REMARK  4 active torsions:
REMARK  status: ('A' for Active; 'I' for Inactive)
REMARK    1  A    between atoms: C8_8  and  C9_9 
REMARK    2  A    between atoms: C12_12  and  C13_13 
REMARK       I    between atoms: C13_13  and  N15_15 
REMARK    3  A    between atoms: N15_15  and  N16_16 
REMARK    4  A    between atoms: N23_23  and  C24_24 
ROOT
ATOM      1  C9  UNL A   1      -3.539  -1.282   0.106  1.00  0.00     0.080 A 
ATOM      2  C10 UNL A   1      -4.372  -0.949  -0.973  1.00  0.00     0.020 A 
ATOM      3  C11 UNL A   1      -4.091  -0.117  -2.180  1.00  0.00     0.034 C 
ATOM      4  C12 UNL A   1      -5.635  -1.538  -0.689  1.00  0.00     0.155 A 
ATOM      5  N22 UNL A   1      -5.587  -2.243   0.442  1.00  0.00    -0.161 NA
ATOM      6  N23 UNL A   1      -4.326  -2.109   0.927  1.00  0.00    -0.229 N 
ENDROOT
BRANCH   4   7
ATOM      7  C13 UNL A   1      -6.902  -1.433  -1.472  1.00  0.00     0.287 C 
ATOM      8  O14 UNL A   1      -6.967  -0.838  -2.546  1.00  0.00    -0.265 OA
ATOM      9  N15 UNL A   1      -7.964  -2.073  -0.837  1.00  0.00    -0.282 N 
ATOM     10  H32 UNL A   1      -7.805  -2.517   0.028  1.00  0.00     0.184 HD
BRANCH   9  11
ATOM     11  N16 UNL A   1      -9.272  -2.106  -1.400  1.00  0.00    -0.199 NA
ATOM     12  C17 UNL A   1      -9.653  -3.489  -1.721  1.00  0.00     0.094 C 
ATOM     13  C18 UNL A   1     -11.057  -3.572  -2.328  1.00  0.00     0.019 C 
ATOM     14  C19 UNL A   1     -12.097  -2.912  -1.429  1.00  0.00     0.003 C 
ATOM     15  C20 UNL A   1     -11.660  -1.500  -1.060  1.00  0.00     0.019 C 
ATOM     16  C21 UNL A   1     -10.240  -1.483  -0.484  1.00  0.00     0.094 C 
ENDBRANCH   9  11
ENDBRANCH   4   7
BRANCH   1  17
ATOM     17  C8  UNL A   1      -2.138  -0.817   0.335  1.00  0.00     0.014 A 
ATOM     18  C2  UNL A   1      -1.650  -0.197   1.512  1.00  0.00    -0.020 A 
ATOM     19  C1  UNL A   1      -2.455   0.062   2.760  1.00  0.00     0.031 C 
ATOM     20  C3  UNL A   1      -0.329   0.316   1.528  1.00  0.00     0.007 A 
ATOM     21  C4  UNL A   1       0.485   0.267   0.401  1.00  0.00     0.057 A 
ATOM     22 CL5  UNL A   1       2.046   0.987   0.434  1.00  0.00    -0.082 Cl
ATOM     23  C6  UNL A   1       0.025  -0.343  -0.752  1.00  0.00     0.011 A 
ATOM     24  C7  UNL A   1      -1.255  -0.908  -0.767  1.00  0.00     0.002 A 
ENDBRANCH   1  17
BRANCH   6  25
ATOM     25  C24 UNL A   1      -3.987  -2.826   2.118  1.00  0.00     0.093 A 
ATOM     26  C25 UNL A   1      -2.668  -3.287   2.299  1.00  0.00     0.021 A 
ATOM     27  C26 UNL A   1      -2.266  -3.839   3.521  1.00  0.00     0.013 A 
ATOM     28  C27 UNL A   1      -3.181  -3.974   4.558  1.00  0.00     0.059 A 
ATOM     29 CL28 UNL A   1      -2.672  -4.589   6.081  1.00  0.00    -0.082 Cl
ATOM     30  C29 UNL A   1      -4.505  -3.586   4.378  1.00  0.00     0.024 A 
ATOM     31  C30 UNL A   1      -4.918  -3.018   3.165  1.00  0.00     0.076 A 
ATOM     32 CL31 UNL A   1      -6.562  -2.463   3.158  1.00  0.00    -0.081 Cl
ENDBRANCH   6  25
TORSDOF 4
