CHEMBL109393_6KPF


 27 29  0  0  0  0  0  0  0  0999 V2000
  106.9589  114.0253  130.1468 C   0  0  0  0  0
  108.3146  114.2548  129.5134 C   0  0  0  0  0
  108.1994  114.1122  128.0074 C   0  0  0  0  0
  109.5499  114.3298  127.3493 C   0  0  0  0  0
  110.4395  113.1154  127.5527 C   0  0  0  0  0
  111.7868  113.3133  126.8626 C   0  0  0  0  0
  111.8027  112.8691  125.3928 C   0  0  0  0  0
  113.2245  113.0169  124.8803 C   0  0  0  0  0
  110.9353  113.8134  124.5648 C   0  0  0  0  0
  111.3772  111.4154  125.2580 C   0  0  0  0  0
  110.2675  111.0408  124.4864 C   0  0  0  0  0
  109.8822  109.7030  124.3748 C   0  0  0  0  0
  110.6145  108.6949  125.0480 C   0  0  0  0  0
  111.7127  109.0746  125.8392 C   0  0  0  0  0
  112.0910  110.4150  125.9320 C   0  0  0  0  0
  112.0067  106.7847  126.7854 C   0  0  0  0  0
  113.2272  105.8781  126.7827 C   0  0  0  0  0
  111.3792  106.7391  128.1676 C   0  0  0  0  0
  110.9905  106.3152  125.7618 C   0  0  0  0  0
  110.6661  104.9490  125.6787 C   0  0  0  0  0
  109.7046  104.4967  124.7754 C   0  0  0  0  0
  109.0459  105.4058  123.9504 C   0  0  0  0  0
  108.0232  104.9282  122.9842 C   0  0  0  0  0
  109.3411  106.7664  124.0380 C   0  0  0  0  0
  110.3024  107.2429  124.9446 C   0  0  0  0  0
  108.7699  109.4043  123.5971 O   0  0  0  0  0
  112.4577  108.1166  126.5304 O   0  0  0  0  0
  1  2  1  0  0  0
  2  3  1  0  0  0
  3  4  1  0  0  0
  4  5  1  0  0  0
  5  6  1  0  0  0
  6  7  1  0  0  0
  7  8  1  0  0  0
  7  9  1  0  0  0
  7 10  1  0  0  0
 11 12  1  0  0  0
 12 26  1  0  0  0
 13 14  1  0  0  0
 14 27  1  0  0  0
 15 10  1  0  0  0
 16 27  1  0  0  0
 16 17  1  0  0  0
 16 18  1  0  0  0
 16 19  1  0  0  0
 20 21  1  0  0  0
 22 24  1  0  0  0
 23 22  1  0  0  0
 25 19  1  0  0  0
 25 13  1  0  0  0
 10 11  2  0  0  0
 12 13  2  0  0  0
 14 15  2  0  0  0
 19 20  2  0  0  0
 21 22  2  0  0  0
 24 25  2  0  0  0
M  END
> <rmsd>
0.634558439

$$$$
CHEMBL420173_8GUS


 30 32  0  0  0  0  0  0  0  0999 V2000
  107.8992  114.1649  130.1176 C   0  0  0  0  0
  107.3239  112.8809  129.5511 C   0  0  0  0  0
  108.4241  112.0154  128.9565 C   0  0  0  0  0
  108.7490  112.4376  127.5326 C   0  0  0  0  0
  109.7240  113.6022  127.5266 C   0  0  0  0  0
  110.1003  113.9797  126.0958 C   0  0  0  0  0
  111.3221  113.2215  125.5577 C   0  0  0  0  0
  112.5301  113.5196  126.4433 C   0  0  0  0  0
  111.6412  113.7737  124.1793 C   0  0  0  0  0
  111.0359  111.7331  125.4416 C   0  0  0  0  0
  110.0038  111.2846  124.6051 C   0  0  0  0  0
  109.7044  109.9253  124.4907 C   0  0  0  0  0
  110.4462  108.9706  125.2281 C   0  0  0  0  0
  111.4663  109.4238  126.0827 C   0  0  0  0  0
  111.7603  110.7850  126.1774 C   0  0  0  0  0
  111.8228  107.1690  127.0885 C   0  0  0  0  0
  111.1062  107.1104  128.4261 C   0  0  0  0  0
  113.0885  106.3321  127.1852 C   0  0  0  0  0
  110.9056  106.6275  126.0083 C   0  0  0  0  0
  110.6640  105.2448  125.9289 C   0  0  0  0  0
  109.7919  104.7261  124.9727 C   0  0  0  0  0
  109.1348  105.5808  124.0833 C   0  0  0  0  0
  108.2150  105.0437  123.0675 C   0  0  0  0  0
  106.6686  105.4497  121.1946 C   0  0  0  0  0
  109.3536  106.9589  124.1724 C   0  0  0  0  0
  110.2238  107.5019  125.1311 C   0  0  0  0  0
  108.6655  109.5520  123.6464 O   0  0  0  0  0
  112.2165  108.5198  126.8378 O   0  0  0  0  0
  108.0161  103.7996  122.9899 O   0  0  0  0  0
  107.5649  105.9166  122.1915 O   0  0  0  0  0
  1  2  1  0  0  0
  2  3  1  0  0  0
  3  4  1  0  0  0
  4  5  1  0  0  0
  5  6  1  0  0  0
  6  7  1  0  0  0
  7  8  1  0  0  0
  7  9  1  0  0  0
  7 10  1  0  0  0
 11 12  1  0  0  0
 12 27  1  0  0  0
 13 14  1  0  0  0
 14 28  1  0  0  0
 15 10  1  0  0  0
 16 28  1  0  0  0
 16 17  1  0  0  0
 16 18  1  0  0  0
 16 19  1  0  0  0
 20 21  1  0  0  0
 22 23  1  0  0  0
 22 25  1  0  0  0
 23 30  1  0  0  0
 24 30  1  0  0  0
 26 19  1  0  0  0
 26 13  1  0  0  0
 10 11  2  0  0  0
 12 13  2  0  0  0
 14 15  2  0  0  0
 19 20  2  0  0  0
 21 22  2  0  0  0
 23 29  2  0  0  0
 25 26  2  0  0  0
M  END
> <rmsd>
0.53624022

$$$$
CHEMBL411626_6KPF


 27 29  0  0  0  0  0  0  0  0999 V2000
  105.4304  113.5476  129.2424 C   0  0  0  0  0
  106.6338  114.0312  130.0299 C   0  0  0  0  0
  107.8973  113.3452  129.5422 C   0  0  0  0  0
  108.3428  113.9353  128.2175 C   0  0  0  0  0
  109.5933  113.2256  127.7462 C   0  0  0  0  0
  110.0337  113.8082  126.4097 C   0  0  0  0  0
  111.2780  113.1175  125.8425 C   0  0  0  0  0
  111.6160  113.7797  124.5185 C   0  0  0  0  0
  112.4582  113.3637  126.7795 C   0  0  0  0  0
  111.0161  111.6385  125.6055 C   0  0  0  0  0
  109.9726  111.2436  124.7524 C   0  0  0  0  0
  109.7030  109.8924  124.5256 C   0  0  0  0  0
  110.4784  108.9050  125.1550 C   0  0  0  0  0
  111.5272  109.2897  126.0123 C   0  0  0  0  0
  111.7886  110.6444  126.2287 C   0  0  0  0  0
  112.0948  106.9267  126.5755 C   0  0  0  0  0
  111.2759  106.5203  127.7927 C   0  0  0  0  0
  113.4327  106.2141  126.6489 C   0  0  0  0  0
  111.3867  106.5574  125.2508 C   0  0  0  0  0
  111.0762  105.0568  125.0969 C   0  0  0  0  0
  109.6438  104.6783  125.3850 C   0  0  0  0  0
  108.6783  105.5673  125.6584 C   0  0  0  0  0
  107.3025  105.0749  125.9426 C   0  0  0  0  0
  108.9612  107.0370  125.7798 C   0  0  0  0  0
  110.1705  107.4491  124.9415 C   0  0  0  0  0
  108.6620  109.5404  123.6744 O   0  0  0  0  0
  112.3411  108.3332  126.6320 O   0  0  0  0  0
  1  2  1  0  0  0
  2  3  1  0  0  0
  3  4  1  0  0  0
  4  5  1  0  0  0
  5  6  1  0  0  0
  6  7  1  0  0  0
  7  8  1  0  0  0
  7  9  1  0  0  0
  7 10  1  0  0  0
 11 12  1  0  0  0
 12 26  1  0  0  0
 13 14  1  0  0  0
 14 27  1  0  0  0
 15 10  1  0  0  0
 16 27  1  0  0  0
 16 17  1  0  0  0
 16 18  1  0  0  0
 19 16  1  0  0  0
 19 20  1  0  0  0
 20 21  1  0  0  0
 23 22  1  0  0  0
 24 22  1  0  0  0
 25 24  1  0  0  0
 25 19  1  0  0  0
 25 13  1  0  0  0
 10 11  2  0  0  0
 12 13  2  0  0  0
 14 15  2  0  0  0
 21 22  2  0  0  0
M  END
> <rmsd>
0.474677056

$$$$
CHEMBL471295_6KPF


 28 31  0  0  0  0  0  0  0  0999 V2000
  109.6819  104.6711  125.6510 C   0  0  0  0  0
  108.6719  105.5323  125.8498 C   0  0  0  0  0
  108.8646  107.0278  125.7954 C   0  0  0  0  0
  110.1028  107.4358  124.9930 C   0  0  0  0  0
  111.3261  106.5922  125.3723 C   0  0  0  0  0
  111.0547  105.0929  125.1838 C   0  0  0  0  0
  111.9804  106.9835  126.7197 C   0  0  0  0  0
  111.3405  109.3265  126.0985 C   0  0  0  0  0
  110.3795  108.9003  125.1643 C   0  0  0  0  0
  109.6807  109.8524  124.4041 C   0  0  0  0  0
  109.9376  111.2148  124.5820 C   0  0  0  0  0
  110.9002  111.6523  125.5075 C   0  0  0  0  0
  111.5848  110.6911  126.2696 C   0  0  0  0  0
  111.1630  113.1306  125.7502 C   0  0  0  0  0
  110.6212  113.5245  127.1158 C   0  0  0  0  0
  109.2458  113.3927  127.3833 C   0  0  0  0  0
  108.7269  113.7312  128.6360 C   0  0  0  0  0
  109.5761  114.2046  129.6401 C   0  0  0  0  0
  110.9442  114.3394  129.3916 C   0  0  0  0  0
  111.4636  114.0007  128.1391 C   0  0  0  0  0
  107.2729  113.5815  128.9017 C   0  0  0  0  0
  110.5021  114.0092  124.6900 C   0  0  0  0  0
  112.6659  113.3866  125.6336 C   0  0  0  0  0
  113.3941  106.4321  126.7441 C   0  0  0  0  0
  111.2259  106.4139  127.9109 C   0  0  0  0  0
  107.3673  104.9998  126.3284 C   0  0  0  0  0
  112.0591  108.4053  126.8710 O   0  0  0  0  0
  108.7253  109.4553  123.4737 O   0  0  0  0  0
  3  2  1  0  0  0
  4  3  1  0  0  0
  4  5  1  0  0  0
  4  9  1  0  0  0
  5  6  1  0  0  0
  5  7  1  0  0  0
  6  1  1  0  0  0
  7 27  1  0  0  0
  7 24  1  0  0  0
  7 25  1  0  0  0
  8 27  1  0  0  0
  9 10  1  0  0  0
 10 28  1  0  0  0
 11 12  1  0  0  0
 13  8  1  0  0  0
 14 12  1  0  0  0
 14 15  1  0  0  0
 14 22  1  0  0  0
 14 23  1  0  0  0
 16 17  1  0  0  0
 18 19  1  0  0  0
 20 15  1  0  0  0
 21 17  1  0  0  0
 26  2  1  0  0  0
  1  2  2  0  0  0
  8  9  2  0  0  0
 10 11  2  0  0  0
 12 13  2  0  0  0
 15 16  2  0  0  0
 17 18  2  0  0  0
 19 20  2  0  0  0
M  END
> <rmsd>
0.512913227

$$$$
CHEMBL512531_6KPF


 28 31  0  0  0  0  0  0  0  0999 V2000
  106.7085  105.3463  125.0001 C   0  0  0  0  0
  108.1059  105.7461  125.3225 C   0  0  0  0  0
  108.9534  104.8170  125.7972 C   0  0  0  0  0
  110.3816  105.1305  126.1623 C   0  0  0  0  0
  110.5524  106.6193  126.4763 C   0  0  0  0  0
  109.9854  107.4432  125.3081 C   0  0  0  0  0
  108.4697  107.2118  125.2743 C   0  0  0  0  0
  110.3413  108.9166  125.3948 C   0  0  0  0  0
  109.7492  109.8673  124.5379 C   0  0  0  0  0
  110.0741  111.2200  124.6593 C   0  0  0  0  0
  111.0234  111.6579  125.5966 C   0  0  0  0  0
  111.2997  113.1472  125.7895 C   0  0  0  0  0
  111.1480  113.8834  124.4608 C   0  0  0  0  0
  112.7437  113.3557  126.2393 C   0  0  0  0  0
  110.3660  113.7765  126.8138 C   0  0  0  0  0
  110.4815  115.1458  127.1184 C   0  0  0  0  0
  109.6345  115.7440  128.0553 C   0  0  0  0  0
  108.6592  114.9822  128.7021 C   0  0  0  0  0
  108.5304  113.6225  128.4122 C   0  0  0  0  0
  109.3769  113.0242  127.4755 C   0  0  0  0  0
  111.6379  110.7025  126.4214 C   0  0  0  0  0
  111.3313  109.3458  126.3041 C   0  0  0  0  0
  111.9892  107.0199  126.8414 C   0  0  0  0  0
  112.9660  106.6753  125.7236 C   0  0  0  0  0
  112.4232  106.2990  128.1045 C   0  0  0  0  0
  108.8359  109.4838  123.5626 O   0  0  0  0  0
  112.0320  108.4237  127.0894 O   0  0  0  0  0
  107.5846  112.8829  129.0390 F   0  0  0  0  0
  1  2  1  0  0  0
  4  3  1  0  0  0
  5  4  1  0  0  0
  5  6  1  0  0  0
  6  7  1  0  0  0
  6  8  1  0  0  0
  7  2  1  0  0  0
  9 26  1  0  0  0
  9 10  1  0  0  0
 11 21  1  0  0  0
 12 11  1  0  0  0
 12 13  1  0  0  0
 12 14  1  0  0  0
 12 15  1  0  0  0
 16 17  1  0  0  0
 18 19  1  0  0  0
 19 28  1  0  0  0
 20 15  1  0  0  0
 22 27  1  0  0  0
 22  8  1  0  0  0
 23 27  1  0  0  0
 23 24  1  0  0  0
 23 25  1  0  0  0
 23  5  1  0  0  0
  2  3  2  0  0  0
  8  9  2  0  0  0
 10 11  2  0  0  0
 15 16  2  0  0  0
 17 18  2  0  0  0
 19 20  2  0  0  0
 21 22  2  0  0  0
M  END
> <rmsd>
0.488855839

$$$$
CHEMBL487464_6KPF


 28 31  0  0  0  0  0  0  0  0999 V2000
  107.1389  105.3470  126.4098 C   0  0  0  0  0
  108.4971  105.7568  125.9591 C   0  0  0  0  0
  109.4639  104.8296  125.9081 C   0  0  0  0  0
  110.8752  105.1255  125.4759 C   0  0  0  0  0
  111.2381  106.6147  125.5490 C   0  0  0  0  0
  110.0945  107.5075  125.0385 C   0  0  0  0  0
  108.7740  107.2236  125.7621 C   0  0  0  0  0
  110.4360  108.9692  125.1518 C   0  0  0  0  0
  109.7420  109.9206  124.3859 C   0  0  0  0  0
  110.0571  111.2760  124.5005 C   0  0  0  0  0
  111.0810  111.7117  125.3587 C   0  0  0  0  0
  111.3599  113.2010  125.5454 C   0  0  0  0  0
  112.8341  113.4167  125.8777 C   0  0  0  0  0
  111.0936  113.9503  124.2422 C   0  0  0  0  0
  110.5081  113.8101  126.6501 C   0  0  0  0  0
  110.6366  115.1767  126.9617 C   0  0  0  0  0
  109.8640  115.7553  127.9724 C   0  0  0  0  0
  108.9513  114.9765  128.6868 C   0  0  0  0  0
  108.8110  113.6193  128.3907 C   0  0  0  0  0
  109.5830  113.0408  127.3805 C   0  0  0  0  0
  111.7549  110.7552  126.1367 C   0  0  0  0  0
  111.4469  109.3969  126.0357 C   0  0  0  0  0
  111.8428  107.0888  126.8891 C   0  0  0  0  0
  113.1224  106.3224  127.1678 C   0  0  0  0  0
  110.8938  106.8685  128.0581 C   0  0  0  0  0
  108.7360  109.5288  123.5102 O   0  0  0  0  0
  112.1670  108.4780  126.8102 O   0  0  0  0  0
  107.5672  112.5536  129.3632 Br  0  0  0  0  0
  1  2  1  0  0  0
  4  3  1  0  0  0
  5  4  1  0  0  0
  5  6  1  0  0  0
  6  7  1  0  0  0
  6  8  1  0  0  0
  7  2  1  0  0  0
  9 26  1  0  0  0
  9 10  1  0  0  0
 11 21  1  0  0  0
 12 11  1  0  0  0
 12 13  1  0  0  0
 12 14  1  0  0  0
 12 15  1  0  0  0
 16 17  1  0  0  0
 18 19  1  0  0  0
 19 28  1  0  0  0
 20 15  1  0  0  0
 22 27  1  0  0  0
 22  8  1  0  0  0
 23 27  1  0  0  0
 23 24  1  0  0  0
 23 25  1  0  0  0
 23  5  1  0  0  0
  2  3  2  0  0  0
  8  9  2  0  0  0
 10 11  2  0  0  0
 15 16  2  0  0  0
 17 18  2  0  0  0
 19 20  2  0  0  0
 21 22  2  0  0  0
M  END
> <rmsd>
0.500774026

$$$$
CHEMBL432107_6KPF


 28 30  0  0  0  0  0  0  0  0999 V2000
  107.4815  112.7870  130.5039 C   0  0  0  0  0
  107.1268  113.4260  129.1745 C   0  0  0  0  0
  107.5466  112.5245  128.0234 C   0  0  0  0  0
  109.0540  112.5463  127.8243 C   0  0  0  0  0
  109.4848  113.8500  127.1740 C   0  0  0  0  0
  110.9907  113.8510  126.9210 C   0  0  0  0  0
  111.3889  113.2734  125.5552 C   0  0  0  0  0
  112.8915  113.4351  125.4032 C   0  0  0  0  0
  110.7406  114.1039  124.4497 C   0  0  0  0  0
  111.0370  111.7977  125.4607 C   0  0  0  0  0
  110.1480  111.3131  124.4891 C   0  0  0  0  0
  109.8057  109.9604  124.4359 C   0  0  0  0  0
  110.3292  109.0583  125.3864 C   0  0  0  0  0
  111.2791  109.5301  126.3173 C   0  0  0  0  0
  111.6054  110.8866  126.3633 C   0  0  0  0  0
  111.8305  107.2360  127.0795 C   0  0  0  0  0
  112.8776  106.7633  126.0789 C   0  0  0  0  0
  112.1391  106.6191  128.4317 C   0  0  0  0  0
  110.4130  106.8441  126.6327 C   0  0  0  0  0
  110.2164  105.3282  126.4738 C   0  0  0  0  0
  108.9202  104.9756  125.7848 C   0  0  0  0  0
  108.1286  105.8823  125.1873 C   0  0  0  0  0
  106.8632  105.3980  124.5465 C   0  0  0  0  0
  108.4688  107.3553  125.2122 C   0  0  0  0  0
  109.9744  107.5827  125.3587 C   0  0  0  0  0
  108.9496  109.5275  123.4299 O   0  0  0  0  0
  111.9099  108.6542  127.2078 O   0  0  0  0  0
  106.1378  106.4535  123.9900 O   0  0  0  0  0
  1  2  1  0  0  0
  2  3  1  0  0  0
  3  4  1  0  0  0
  4  5  1  0  0  0
  5  6  1  0  0  0
  6  7  1  0  0  0
  7  8  1  0  0  0
  7  9  1  0  0  0
  7 10  1  0  0  0
 11 12  1  0  0  0
 12 26  1  0  0  0
 13 14  1  0  0  0
 14 27  1  0  0  0
 15 10  1  0  0  0
 16 27  1  0  0  0
 16 17  1  0  0  0
 16 18  1  0  0  0
 19 16  1  0  0  0
 19 20  1  0  0  0
 20 21  1  0  0  0
 23 22  1  0  0  0
 23 28  1  0  0  0
 24 22  1  0  0  0
 25 24  1  0  0  0
 25 19  1  0  0  0
 25 13  1  0  0  0
 10 11  2  0  0  0
 12 13  2  0  0  0
 14 15  2  0  0  0
 21 22  2  0  0  0
M  END
> <rmsd>
0.42021513

$$$$
CHEMBL1259244_6KPF


 29 32  0  0  0  0  0  0  0  0999 V2000
  108.6221  111.4993  131.9515 C   0  0  0  0  0
  108.3995  111.9531  130.5246 C   0  0  0  0  0
  108.7438  113.4259  130.4025 C   0  0  0  0  0
  108.5442  113.8998  128.9740 C   0  0  0  0  0
  109.6634  113.3874  128.0888 C   0  0  0  0  0
  109.4141  113.8183  126.6500 C   0  0  0  0  0
  110.4482  113.2742  125.6549 C   0  0  0  0  0
  110.3346  111.7613  125.5181 C   0  0  0  0  0
  109.8594  111.1637  124.3402 C   0  0  0  0  0
  109.7414  109.7766  124.2300 C   0  0  0  0  0
  110.0720  108.9473  125.3229 C   0  0  0  0  0
  110.6196  109.5399  126.4804 C   0  0  0  0  0
  110.7243  110.9284  126.5770 C   0  0  0  0  0
  111.2425  107.3436  127.4512 C   0  0  0  0  0
  111.2157  106.7659  128.8550 C   0  0  0  0  0
  112.5997  107.0451  126.8281 C   0  0  0  0  0
  110.1041  106.7455  126.6106 C   0  0  0  0  0
  110.1609  105.2040  126.4985 C   0  0  0  0  0
  109.6189  104.6549  125.1715 C   0  0  0  0  0
  108.4861  105.4947  124.6584 C   0  0  0  0  0
  108.6152  106.9920  124.6295 C   0  0  0  0  0
  109.9517  107.4365  125.2382 C   0  0  0  0  0
  110.2062  113.9827  124.3207 C   0  0  0  0  0
  111.3690  114.9251  124.0980 C   0  0  0  0  0
  112.5114  114.3326  124.8816 C   0  0  0  0  0
  111.8644  113.6707  126.0771 C   0  0  0  0  0
  109.3018  109.2383  123.0262 O   0  0  0  0  0
  111.0690  108.7557  127.5484 O   0  0  0  0  0
  107.4508  104.9648  124.2918 O   0  0  0  0  0
  1  2  1  0  0  0
  2  3  1  0  0  0
  3  4  1  0  0  0
  4  5  1  0  0  0
  5  6  1  0  0  0
  6  7  1  0  0  0
  7  8  1  0  0  0
  7 23  1  0  0  0
  9 10  1  0  0  0
 10 27  1  0  0  0
 11 12  1  0  0  0
 12 28  1  0  0  0
 13  8  1  0  0  0
 14 28  1  0  0  0
 14 15  1  0  0  0
 14 16  1  0  0  0
 17 14  1  0  0  0
 17 18  1  0  0  0
 18 19  1  0  0  0
 19 20  1  0  0  0
 21 20  1  0  0  0
 22 21  1  0  0  0
 22 17  1  0  0  0
 22 11  1  0  0  0
 23 24  1  0  0  0
 24 25  1  0  0  0
 25 26  1  0  0  0
 26  7  1  0  0  0
  8  9  2  0  0  0
 10 11  2  0  0  0
 12 13  2  0  0  0
 20 29  2  0  0  0
M  END
> <rmsd>
0.577674925

$$$$
CHEMBL19847_6KPF


 27 30  0  0  0  0  0  0  0  0999 V2000
  107.0135  113.0333  130.2871 C   0  0  0  0  0
  107.1737  113.7369  128.9528 C   0  0  0  0  0
  107.8312  112.8117  127.9405 C   0  0  0  0  0
  109.3202  112.6502  128.2215 C   0  0  0  0  0
  110.0981  113.9077  127.8511 C   0  0  0  0  0
  110.1606  114.1065  126.3408 C   0  0  0  0  0
  111.1938  113.1935  125.6932 C   0  0  0  0  0
  110.9245  111.7260  125.5545 C   0  0  0  0  0
  110.0028  111.2670  124.6088 C   0  0  0  0  0
  109.7118  109.9050  124.5025 C   0  0  0  0  0
  110.3213  108.9783  125.3769 C   0  0  0  0  0
  111.2988  109.4428  126.2848 C   0  0  0  0  0
  111.5734  110.8082  126.3854 C   0  0  0  0  0
  111.9819  107.1389  126.8951 C   0  0  0  0  0
  112.3859  106.4668  128.1948 C   0  0  0  0  0
  112.9946  106.7661  125.8195 C   0  0  0  0  0
  110.5610  106.7080  126.4984 C   0  0  0  0  0
  110.4200  105.1946  126.2683 C   0  0  0  0  0
  109.1005  104.8219  125.6372 C   0  0  0  0  0
  108.2483  105.7269  125.1290 C   0  0  0  0  0
  106.9604  105.2618  124.5448 C   0  0  0  0  0
  108.5247  107.2060  125.2001 C   0  0  0  0  0
  110.0258  107.4919  125.2889 C   0  0  0  0  0
  111.8260  113.8079  124.4628 C   0  0  0  0  0
  112.6394  113.6445  125.7373 C   0  0  0  0  0
  108.8212  109.4877  123.5202 O   0  0  0  0  0
  112.0083  108.5506  127.0961 O   0  0  0  0  0
  1  2  1  0  0  0
  2  3  1  0  0  0
  3  4  1  0  0  0
  4  5  1  0  0  0
  5  6  1  0  0  0
  6  7  1  0  0  0
  7  8  1  0  0  0
  7 24  1  0  0  0
  9 10  1  0  0  0
 10 26  1  0  0  0
 11 12  1  0  0  0
 12 27  1  0  0  0
 13  8  1  0  0  0
 14 27  1  0  0  0
 14 15  1  0  0  0
 14 16  1  0  0  0
 17 14  1  0  0  0
 17 18  1  0  0  0
 18 19  1  0  0  0
 21 20  1  0  0  0
 22 20  1  0  0  0
 23 22  1  0  0  0
 23 17  1  0  0  0
 23 11  1  0  0  0
 24 25  1  0  0  0
 25  7  1  0  0  0
  8  9  2  0  0  0
 10 11  2  0  0  0
 12 13  2  0  0  0
 19 20  2  0  0  0
M  END
> <rmsd>
0.447068483

$$$$
CHEMBL108868_6KPF


 29 32  0  0  0  0  0  0  0  0999 V2000
  108.6308  111.4892  131.9510 C   0  0  0  0  0
  108.4052  111.9429  130.5246 C   0  0  0  0  0
  108.7422  113.4176  130.4034 C   0  0  0  0  0
  108.5393  113.8916  128.9754 C   0  0  0  0  0
  109.6604  113.3852  128.0891 C   0  0  0  0  0
  109.4080  113.8158  126.6508 C   0  0  0  0  0
  110.4440  113.2774  125.6545 C   0  0  0  0  0
  110.3375  111.7639  125.5169 C   0  0  0  0  0
  109.8633  111.1647  124.3394 C   0  0  0  0  0
  109.7521  109.7770  124.2285 C   0  0  0  0  0
  110.0892  108.9490  125.3201 C   0  0  0  0  0
  110.6346  109.5436  126.4776 C   0  0  0  0  0
  110.7327  110.9324  126.5751 C   0  0  0  0  0
  111.2597  107.3473  127.4435 C   0  0  0  0  0
  111.2325  106.7647  128.8450 C   0  0  0  0  0
  112.6177  107.0508  126.8195 C   0  0  0  0  0
  110.1171  106.7538  126.6040 C   0  0  0  0  0
  110.2034  105.2276  126.4417 C   0  0  0  0  0
  109.2342  104.6953  125.4141 C   0  0  0  0  0
  108.5416  105.4869  124.5792 C   0  0  0  0  0
  107.5933  104.8675  123.6129 C   0  0  0  0  0
  108.6404  106.9886  124.6429 C   0  0  0  0  0
  109.9793  107.4374  125.2338 C   0  0  0  0  0
  110.1974  113.9854  124.3209 C   0  0  0  0  0
  111.3554  114.9334  124.0975 C   0  0  0  0  0
  112.5014  114.3460  124.8799 C   0  0  0  0  0
  111.8584  113.6806  126.0756 C   0  0  0  0  0
  109.3127  109.2368  123.0255 O   0  0  0  0  0
  111.0874  108.7593  127.5442 O   0  0  0  0  0
  1  2  1  0  0  0
  2  3  1  0  0  0
  3  4  1  0  0  0
  4  5  1  0  0  0
  5  6  1  0  0  0
  6  7  1  0  0  0
  7  8  1  0  0  0
  7 24  1  0  0  0
  9 10  1  0  0  0
 10 28  1  0  0  0
 11 12  1  0  0  0
 12 29  1  0  0  0
 13  8  1  0  0  0
 14 29  1  0  0  0
 14 15  1  0  0  0
 14 16  1  0  0  0
 17 14  1  0  0  0
 17 18  1  0  0  0
 18 19  1  0  0  0
 21 20  1  0  0  0
 22 20  1  0  0  0
 23 22  1  0  0  0
 23 17  1  0  0  0
 23 11  1  0  0  0
 24 25  1  0  0  0
 25 26  1  0  0  0
 26 27  1  0  0  0
 27  7  1  0  0  0
  8  9  2  0  0  0
 10 11  2  0  0  0
 12 13  2  0  0  0
 19 20  2  0  0  0
M  END
> <rmsd>
0.57803899

$$$$
CHEMBL252949_6KPF


 28 31  0  0  0  0  0  0  0  0999 V2000
  107.0890  104.9040  124.3845 C   0  0  0  0  0
  108.0538  105.7054  125.1865 C   0  0  0  0  0
  108.3976  105.2993  126.4119 C   0  0  0  0  0
  109.3842  106.1010  127.1995 C   0  0  0  0  0
  110.5522  106.4602  126.2733 C   0  0  0  0  0
  110.0654  107.3069  125.0527 C   0  0  0  0  0
  108.6090  106.9876  124.6251 C   0  0  0  0  0
  110.2400  108.8086  125.2342 C   0  0  0  0  0
  109.8341  109.7159  124.2335 C   0  0  0  0  0
  109.9212  111.0921  124.4553 C   0  0  0  0  0
  110.4189  111.6012  125.6654 C   0  0  0  0  0
  110.5476  113.0989  125.9029 C   0  0  0  0  0
  109.6744  113.8991  124.9334 C   0  0  0  0  0
  111.9980  113.4810  125.6394 C   0  0  0  0  0
  110.1714  113.4611  127.3620 C   0  0  0  0  0
  110.4182  114.9427  127.6834 C   0  0  0  0  0
  110.2737  115.2462  129.1693 C   0  0  0  0  0
  108.7983  115.3595  129.5244 C   0  0  0  0  0
  108.1875  114.0336  129.9875 C   0  0  0  0  0
  108.6283  112.7937  129.2044 C   0  0  0  0  0
  108.7382  113.0407  127.7073 C   0  0  0  0  0
  110.9057  110.6958  126.6207 C   0  0  0  0  0
  110.8383  109.3185  126.4051 C   0  0  0  0  0
  111.7298  107.1091  127.0207 C   0  0  0  0  0
  112.0695  106.3534  128.2957 C   0  0  0  0  0
  112.9666  107.0818  126.1354 C   0  0  0  0  0
  109.3433  109.2639  123.0139 O   0  0  0  0  0
  111.4072  108.4576  127.3462 O   0  0  0  0  0
  1  2  1  0  0  0
  4  3  1  0  0  0
  5  4  1  0  0  0
  5  6  1  0  0  0
  6  7  1  0  0  0
  6  8  1  0  0  0
  7  2  1  0  0  0
  9 27  1  0  0  0
  9 10  1  0  0  0
 11 22  1  0  0  0
 12 11  1  0  0  0
 12 13  1  0  0  0
 12 14  1  0  0  0
 12 15  1  0  0  0
 15 16  1  0  0  0
 16 17  1  0  0  0
 17 18  1  0  0  0
 18 19  1  0  0  0
 19 20  1  0  0  0
 20 21  1  0  0  0
 21 15  1  0  0  0
 23 28  1  0  0  0
 23  8  1  0  0  0
 24 28  1  0  0  0
 24 25  1  0  0  0
 24 26  1  0  0  0
 24  5  1  0  0  0
  2  3  2  0  0  0
  8  9  2  0  0  0
 10 11  2  0  0  0
 22 23  2  0  0  0
M  END
> <rmsd>
0.663727224

$$$$
CHEMBL120669_6KPF


 29 32  0  0  0  0  0  0  0  0999 V2000
  111.6702  113.8921  124.9125 C   0  0  0  0  0
  110.8560  113.1256  125.9548 C   0  0  0  0  0
  112.2635  113.6000  126.2811 C   0  0  0  0  0
  110.6852  111.6488  125.7376 C   0  0  0  0  0
  111.2430  110.7313  126.6329 C   0  0  0  0  0
  111.0489  109.3600  126.4566 C   0  0  0  0  0
  110.2390  108.8856  125.4010 C   0  0  0  0  0
  110.0290  107.3920  125.2303 C   0  0  0  0  0
  110.4069  106.5936  126.4886 C   0  0  0  0  0
  111.7310  107.0662  127.1102 C   0  0  0  0  0
  111.9524  106.3767  128.4442 C   0  0  0  0  0
  112.9131  106.7560  126.2007 C   0  0  0  0  0
  110.3683  105.0831  126.2050 C   0  0  0  0  0
  109.1804  104.6769  125.3670 C   0  0  0  0  0
  108.3780  105.5621  124.7541 C   0  0  0  0  0
  108.5735  107.0479  124.9041 C   0  0  0  0  0
  107.2183  105.0637  123.9647 C   0  0  0  0  0
  109.7221  109.8152  124.4715 C   0  0  0  0  0
  109.9307  111.1838  124.6569 C   0  0  0  0  0
  109.7369  113.8953  126.6476 C   0  0  0  0  0
  109.5510  113.4022  128.0703 C   0  0  0  0  0
  108.3610  114.0982  128.7000 C   0  0  0  0  0
  108.0973  113.5472  130.0928 C   0  0  0  0  0
  107.2937  112.2564  130.0336 C   0  0  0  0  0
  108.2013  111.0682  129.7750 C   0  0  0  0  0
  111.6730  108.4725  127.3402 O   0  0  0  0  0
  109.0053  109.3949  123.3571 O   0  0  0  0  0
  112.5544  113.0152  123.6332 Cl  0  0  0  0  0
  111.3888  115.6392  124.6826 Cl  0  0  0  0  0
  1  2  1  0  0  0
  1 28  1  0  0  0
  1 29  1  0  0  0
  2  3  1  0  0  0
  2  4  1  0  0  0
  2 20  1  0  0  0
  3  1  1  0  0  0
  5  6  1  0  0  0
  6 26  1  0  0  0
  7 18  1  0  0  0
  8  7  1  0  0  0
  8  9  1  0  0  0
  8 16  1  0  0  0
  9 10  1  0  0  0
  9 13  1  0  0  0
 10 26  1  0  0  0
 10 11  1  0  0  0
 10 12  1  0  0  0
 13 14  1  0  0  0
 16 15  1  0  0  0
 17 15  1  0  0  0
 18 27  1  0  0  0
 19  4  1  0  0  0
 20 21  1  0  0  0
 21 22  1  0  0  0
 22 23  1  0  0  0
 23 24  1  0  0  0
 24 25  1  0  0  0
  4  5  2  0  0  0
  6  7  2  0  0  0
 14 15  2  0  0  0
 18 19  2  0  0  0
M  END
> <rmsd>
0.253505409

$$$$
CHEMBL600602_6KPF


 27 29  0  0  0  0  0  0  0  0999 V2000
  106.5626  113.0640  131.1261 C   0  0  0  0  0
  107.8279  113.8819  131.3051 C   0  0  0  0  0
  108.9186  113.3814  130.3749 C   0  0  0  0  0
  108.6511  113.8355  128.9525 C   0  0  0  0  0
  109.7416  113.3109  128.0441 C   0  0  0  0  0
  109.4664  113.7529  126.6129 C   0  0  0  0  0
  110.4939  113.2425  125.5944 C   0  0  0  0  0
  110.1997  113.9588  124.2828 C   0  0  0  0  0
  111.9030  113.6513  126.0066 C   0  0  0  0  0
  110.4066  111.7291  125.4395 C   0  0  0  0  0
  109.9280  111.1370  124.2600 C   0  0  0  0  0
  109.8353  109.7494  124.1312 C   0  0  0  0  0
  110.1944  108.9117  125.2097 C   0  0  0  0  0
  110.7458  109.5007  126.3688 C   0  0  0  0  0
  110.8255  110.8895  126.4823 C   0  0  0  0  0
  111.3812  107.2959  127.3194 C   0  0  0  0  0
  111.3530  106.7086  128.7185 C   0  0  0  0  0
  112.7351  106.9894  126.6904 C   0  0  0  0  0
  110.2270  106.7188  126.4864 C   0  0  0  0  0
  110.3079  105.2080  126.2696 C   0  0  0  0  0
  109.0274  104.6925  125.6009 C   0  0  0  0  0
  108.4288  105.6443  124.5867 C   0  0  0  0  0
  107.2112  105.2195  123.8429 C   0  0  0  0  0
  108.8932  106.8917  124.4076 C   0  0  0  0  0
  110.1265  107.3972  125.1135 C   0  0  0  0  0
  109.3948  109.2223  122.9231 O   0  0  0  0  0
  111.2206  108.7103  127.4236 O   0  0  0  0  0
  1  2  1  0  0  0
  2  3  1  0  0  0
  3  4  1  0  0  0
  4  5  1  0  0  0
  5  6  1  0  0  0
  6  7  1  0  0  0
  7  8  1  0  0  0
  7  9  1  0  0  0
  7 10  1  0  0  0
 11 12  1  0  0  0
 12 26  1  0  0  0
 13 14  1  0  0  0
 14 27  1  0  0  0
 15 10  1  0  0  0
 16 27  1  0  0  0
 16 17  1  0  0  0
 16 18  1  0  0  0
 19 16  1  0  0  0
 19 20  1  0  0  0
 20 21  1  0  0  0
 21 22  1  0  0  0
 23 22  1  0  0  0
 25 24  1  0  0  0
 25 19  1  0  0  0
 25 13  1  0  0  0
 10 11  2  0  0  0
 12 13  2  0  0  0
 14 15  2  0  0  0
 22 24  2  0  0  0
M  END
> <rmsd>
0.60177964

$$$$
CHEMBL108392_6KPF


 30 33  0  0  0  0  0  0  0  0999 V2000
  105.3357  113.1402  130.9757 C   0  0  0  0  0
  106.7775  113.4737  130.6590 C   0  0  0  0  0
  107.0702  113.1380  129.2124 C   0  0  0  0  0
  108.5091  113.4845  128.8969 C   0  0  0  0  0
  108.8040  113.1449  127.4527 C   0  0  0  0  0
  110.2483  113.5047  127.1350 C   0  0  0  0  0
  110.6414  113.1678  125.6854 C   0  0  0  0  0
  110.5357  111.6631  125.4774 C   0  0  0  0  0
  109.7207  111.1066  124.4806 C   0  0  0  0  0
  109.6204  109.7241  124.3146 C   0  0  0  0  0
  110.3205  108.8543  125.1785 C   0  0  0  0  0
  111.1953  109.4122  126.1380 C   0  0  0  0  0
  111.2783  110.7963  126.2928 C   0  0  0  0  0
  112.1040  107.1830  126.7508 C   0  0  0  0  0
  112.5791  106.5297  128.0382 C   0  0  0  0  0
  113.1578  106.9096  125.6881 C   0  0  0  0  0
  110.7458  106.6101  126.3069 C   0  0  0  0  0
  109.7077  106.7146  127.4454 C   0  0  0  0  0
  108.2728  106.6855  126.9901 C   0  0  0  0  0
  107.9059  106.7446  125.7046 C   0  0  0  0  0
  106.4584  106.6959  125.3614 C   0  0  0  0  0
  108.9149  106.7730  124.5924 C   0  0  0  0  0
  110.2688  107.3391  125.0334 C   0  0  0  0  0
  112.2473  115.3868  125.8922 C   0  0  0  0  0
  111.3609  116.1466  124.9247 C   0  0  0  0  0
  109.9109  115.7644  125.1453 C   0  0  0  0  0
  108.8292  109.2364  123.2815 O   0  0  0  0  0
  111.9900  108.5929  126.9530 O   0  0  0  0  0
  112.3937  113.6389  125.3952 S   0  0  0  0  0
  109.5798  114.0967  124.4889 S   0  0  0  0  0
  1  2  1  0  0  0
  2  3  1  0  0  0
  3  4  1  0  0  0
  4  5  1  0  0  0
  5  6  1  0  0  0
  6  7  1  0  0  0
  7  8  1  0  0  0
  7 29  1  0  0  0
  7 30  1  0  0  0
  9 10  1  0  0  0
 10 27  1  0  0  0
 11 12  1  0  0  0
 12 28  1  0  0  0
 13  8  1  0  0  0
 14 28  1  0  0  0
 14 15  1  0  0  0
 14 16  1  0  0  0
 17 14  1  0  0  0
 17 18  1  0  0  0
 18 19  1  0  0  0
 21 20  1  0  0  0
 22 20  1  0  0  0
 23 22  1  0  0  0
 23 17  1  0  0  0
 23 11  1  0  0  0
 24 29  1  0  0  0
 24 25  1  0  0  0
 25 26  1  0  0  0
 26 30  1  0  0  0
  8  9  2  0  0  0
 10 11  2  0  0  0
 12 13  2  0  0  0
 19 20  2  0  0  0
M  END
> <rmsd>
0.579917431

$$$$
CHEMBL1259001_6KPF


 28 31  0  0  0  0  0  0  0  0999 V2000
  107.5615  113.5161  130.5726 C   0  0  0  0  0
  108.6293  113.1400  129.5675 C   0  0  0  0  0
  108.4194  113.9259  128.2909 C   0  0  0  0  0
  109.4858  113.5459  127.2867 C   0  0  0  0  0
  109.2733  114.3070  126.0184 C   0  0  0  0  0
  110.0561  114.1672  124.9392 C   0  0  0  0  0
  111.2395  113.2359  124.8490 C   0  0  0  0  0
  110.8745  111.7718  124.9554 C   0  0  0  0  0
  110.0601  111.1862  123.9765 C   0  0  0  0  0
  109.6901  109.8424  124.0664 C   0  0  0  0  0
  110.1324  109.0606  125.1473 C   0  0  0  0  0
  110.9448  109.6465  126.1390 C   0  0  0  0  0
  111.3050  110.9919  126.0388 C   0  0  0  0  0
  111.1944  107.4991  127.3774 C   0  0  0  0  0
  112.4136  106.8003  126.7928 C   0  0  0  0  0
  111.1201  107.1644  128.8555 C   0  0  0  0  0
  109.8809  107.0685  126.6829 C   0  0  0  0  0
  109.5414  105.5669  126.7759 C   0  0  0  0  0
  110.3284  104.7259  125.7706 C   0  0  0  0  0
  110.2047  105.3270  124.4076 C   0  0  0  0  0
  110.5361  106.7733  124.2277 C   0  0  0  0  0
  109.7472  107.6089  125.2410 C   0  0  0  0  0
  112.0696  113.5245  123.6120 C   0  0  0  0  0
  113.2281  113.9654  124.4889 C   0  0  0  0  0
  112.4010  113.6798  125.7287 C   0  0  0  0  0
  108.8804  109.2935  123.0787 O   0  0  0  0  0
  111.3728  108.9104  127.2510 O   0  0  0  0  0
  109.8303  104.6531  123.4627 O   0  0  0  0  0
  1  2  1  0  0  0
  2  3  1  0  0  0
  3  4  1  0  0  0
  4  5  1  0  0  0
  7  6  1  0  0  0
  7  8  1  0  0  0
  7 23  1  0  0  0
  9 10  1  0  0  0
 10 26  1  0  0  0
 11 12  1  0  0  0
 12 27  1  0  0  0
 13  8  1  0  0  0
 14 27  1  0  0  0
 14 15  1  0  0  0
 14 16  1  0  0  0
 17 14  1  0  0  0
 17 18  1  0  0  0
 18 19  1  0  0  0
 19 20  1  0  0  0
 21 20  1  0  0  0
 22 21  1  0  0  0
 22 17  1  0  0  0
 22 11  1  0  0  0
 23 24  1  0  0  0
 24 25  1  0  0  0
 25  7  1  0  0  0
  5  6  2  0  0  0
  8  9  2  0  0  0
 10 11  2  0  0  0
 12 13  2  0  0  0
 20 28  2  0  0  0
M  END
> <rmsd>
0.598968625

$$$$
CHEMBL394305_8GUR


 27 29  0  0  0  0  0  0  0  0999 V2000
  112.3973  106.4979  126.9804 C   0  0  0  0  0
  111.1703  107.0033  126.8882 C   0  0  0  0  0
  112.5445  106.4377  126.9927 C   0  0  0  0  0
  110.3624  106.8251  125.6335 C   0  0  0  0  0
  109.8148  105.4005  125.5137 C   0  0  0  0  0
  108.7765  105.0804  126.6000 C   0  0  0  0  0
  107.8390  106.2237  126.9163 C   0  0  0  0  0
  106.7038  105.9766  127.8468 C   0  0  0  0  0
  108.0480  107.4715  126.4716 C   0  0  0  0  0
  109.1818  107.8002  125.5365 C   0  0  0  0  0
  109.5650  109.2590  125.5136 C   0  0  0  0  0
  109.8257  109.9884  126.6946 C   0  0  0  0  0
  110.1917  111.3340  126.6191 C   0  0  0  0  0
  110.3088  111.9714  125.3801 C   0  0  0  0  0
  110.6646  113.4258  125.3082 C   0  0  0  0  0
  109.6028  114.4642  124.9661 C   0  0  0  0  0
  108.4173  114.4184  125.9227 C   0  0  0  0  0
  108.7137  115.1739  127.2111 C   0  0  0  0  0
  109.3120  114.2567  128.2653 C   0  0  0  0  0
  108.2474  113.3373  128.8342 C   0  0  0  0  0
  108.8747  112.4097  129.8526 C   0  0  0  0  0
  111.8514  113.8997  126.1220 C   0  0  0  0  0
  111.9876  113.6904  124.6222 C   0  0  0  0  0
  110.0364  111.2562  124.2096 C   0  0  0  0  0
  109.6709  109.9094  124.2711 C   0  0  0  0  0
  109.7171  109.3941  127.9462 O   0  0  0  0  0
  109.4147  109.2234  123.0893 O   0  0  0  0  0
  3  2  1  0  0  0
  4  2  1  0  0  0
  4  5  1  0  0  0
  5  6  1  0  0  0
  6  7  1  0  0  0
  8  7  1  0  0  0
 10  9  1  0  0  0
 10 11  1  0  0  0
 10  4  1  0  0  0
 12 26  1  0  0  0
 12 13  1  0  0  0
 14 24  1  0  0  0
 15 14  1  0  0  0
 15 16  1  0  0  0
 15 22  1  0  0  0
 16 17  1  0  0  0
 17 18  1  0  0  0
 18 19  1  0  0  0
 19 20  1  0  0  0
 20 21  1  0  0  0
 22 23  1  0  0  0
 23 15  1  0  0  0
 25 27  1  0  0  0
 25 11  1  0  0  0
  1  2  2  0  0  0
  7  9  2  0  0  0
 11 12  2  0  0  0
 13 14  2  0  0  0
 24 25  2  0  0  0
M  END
> <rmsd>
0.723912716

$$$$
CHEMBL118631_6KPF


 29 32  0  0  0  0  0  0  0  0999 V2000
  112.2499  113.6619  125.6577 C   0  0  0  0  0
  110.8896  113.0687  126.0264 C   0  0  0  0  0
  111.0240  113.9712  124.8118 C   0  0  0  0  0
  110.7067  111.6010  125.7663 C   0  0  0  0  0
  111.3821  110.6660  126.5549 C   0  0  0  0  0
  111.1926  109.2974  126.3532 C   0  0  0  0  0
  110.2751  108.8414  125.3809 C   0  0  0  0  0
  110.0750  107.3497  125.1815 C   0  0  0  0  0
  110.5946  106.5217  126.3685 C   0  0  0  0  0
  111.9728  106.9953  126.8585 C   0  0  0  0  0
  112.3382  106.2771  128.1453 C   0  0  0  0  0
  113.0557  106.7186  125.8233 C   0  0  0  0  0
  110.5455  105.0183  126.0481 C   0  0  0  0  0
  109.2874  104.6154  125.3181 C   0  0  0  0  0
  108.4142  105.5032  124.8163 C   0  0  0  0  0
  108.5995  106.9865  124.9962 C   0  0  0  0  0
  107.1919  105.0074  124.1260 C   0  0  0  0  0
  109.6380  109.7912  124.5512 C   0  0  0  0  0
  109.8399  111.1566  124.7633 C   0  0  0  0  0
  110.1909  113.6869  127.2313 C   0  0  0  0  0
  108.6806  113.6375  127.0622 C   0  0  0  0  0
  107.9940  114.1291  128.3226 C   0  0  0  0  0
  108.0558  113.0626  129.4043 C   0  0  0  0  0
  107.4187  113.5684  130.6858 C   0  0  0  0  0
  108.3495  114.5358  131.3927 C   0  0  0  0  0
  111.9299  108.3954  127.1280 O   0  0  0  0  0
  108.8055  109.3944  123.5111 O   0  0  0  0  0
  112.8919  115.2579  126.5589 Br  0  0  0  0  0
  113.5384  112.6317  124.6312 Br  0  0  0  0  0
  1  2  1  0  0  0
  1 28  1  0  0  0
  1 29  1  0  0  0
  2  3  1  0  0  0
  2  4  1  0  0  0
  2 20  1  0  0  0
  3  1  1  0  0  0
  5  6  1  0  0  0
  6 26  1  0  0  0
  7 18  1  0  0  0
  8  7  1  0  0  0
  8  9  1  0  0  0
  8 16  1  0  0  0
  9 10  1  0  0  0
  9 13  1  0  0  0
 10 26  1  0  0  0
 10 11  1  0  0  0
 10 12  1  0  0  0
 13 14  1  0  0  0
 16 15  1  0  0  0
 17 15  1  0  0  0
 18 27  1  0  0  0
 19  4  1  0  0  0
 20 21  1  0  0  0
 21 22  1  0  0  0
 22 23  1  0  0  0
 23 24  1  0  0  0
 24 25  1  0  0  0
  4  5  2  0  0  0
  6  7  2  0  0  0
 14 15  2  0  0  0
 18 19  2  0  0  0
M  END
> <rmsd>
0.441549659

$$$$
CHEMBL57802_6KPF


 27 29  0  0  0  0  0  0  0  0999 V2000
  107.6218  105.0324  123.7428 C   0  0  0  0  0
  108.5250  105.5238  124.5847 C   0  0  0  0  0
  109.0515  104.6433  125.6819 C   0  0  0  0  0
  110.4382  105.1063  126.1298 C   0  0  0  0  0
  110.4207  106.6095  126.4302 C   0  0  0  0  0
  110.0631  107.3886  125.1489 C   0  0  0  0  0
  108.6348  107.0124  124.7441 C   0  0  0  0  0
  110.2476  108.8876  125.3022 C   0  0  0  0  0
  109.7860  109.7906  124.3218 C   0  0  0  0  0
  109.9493  111.1659  124.5021 C   0  0  0  0  0
  110.5824  111.6767  125.6458 C   0  0  0  0  0
  110.7971  113.1709  125.8259 C   0  0  0  0  0
  112.2103  113.5106  125.3911 C   0  0  0  0  0
  109.8420  113.9982  124.9693 C   0  0  0  0  0
  110.6419  113.5966  127.2913 C   0  0  0  0  0
  109.2540  113.3049  127.8461 C   0  0  0  0  0
  109.1894  113.7369  129.2981 C   0  0  0  0  0
  107.8088  113.4579  129.8730 C   0  0  0  0  0
  106.7786  114.4466  129.3477 C   0  0  0  0  0
  106.9628  115.8024  130.0031 C   0  0  0  0  0
  111.1198  110.7716  126.5734 C   0  0  0  0  0
  110.9731  109.3940  126.4020 C   0  0  0  0  0
  111.7054  107.1294  127.0915 C   0  0  0  0  0
  112.9257  106.8756  126.2149 C   0  0  0  0  0
  111.9167  106.4418  128.4280 C   0  0  0  0  0
  109.1700  109.3368  123.1613 O   0  0  0  0  0
  111.5742  108.5303  127.3249 O   0  0  0  0  0
  3  2  1  0  0  0
  3  4  1  0  0  0
  5  4  1  0  0  0
  5  6  1  0  0  0
  6  7  1  0  0  0
  6  8  1  0  0  0
  7  2  1  0  0  0
  9 26  1  0  0  0
  9 10  1  0  0  0
 11 21  1  0  0  0
 12 11  1  0  0  0
 12 13  1  0  0  0
 12 14  1  0  0  0
 12 15  1  0  0  0
 15 16  1  0  0  0
 16 17  1  0  0  0
 17 18  1  0  0  0
 18 19  1  0  0  0
 19 20  1  0  0  0
 22 27  1  0  0  0
 22  8  1  0  0  0
 23 27  1  0  0  0
 23 24  1  0  0  0
 23 25  1  0  0  0
 23  5  1  0  0  0
  1  2  2  0  0  0
  8  9  2  0  0  0
 10 11  2  0  0  0
 21 22  2  0  0  0
M  END
> <rmsd>
0.40095818

$$$$
CHEMBL1259057_6KPF


 28 31  0  0  0  0  0  0  0  0999 V2000
  113.0995  106.5717  125.4263 C   0  0  0  0  0
  112.1656  106.8347  126.6012 C   0  0  0  0  0
  112.6607  106.0447  127.7990 C   0  0  0  0  0
  111.4331  109.1833  126.2764 C   0  0  0  0  0
  111.7070  110.5336  126.5024 C   0  0  0  0  0
  111.0028  111.5319  125.8194 C   0  0  0  0  0
  111.2683  112.9891  126.1217 C   0  0  0  0  0
  110.6151  113.4762  127.4148 C   0  0  0  0  0
  109.0982  113.4122  127.3407 C   0  0  0  0  0
  108.5099  113.8697  128.6574 C   0  0  0  0  0
  106.9976  113.7914  128.5878 C   0  0  0  0  0
  106.3882  114.2202  129.9095 C   0  0  0  0  0
  112.7479  113.3310  126.0920 C   0  0  0  0  0
  112.5113  114.2679  124.9218 C   0  0  0  0  0
  111.0325  113.9300  124.9481 C   0  0  0  0  0
  110.0095  111.1584  124.9055 C   0  0  0  0  0
  109.7180  109.8124  124.6742 C   0  0  0  0  0
  110.3942  108.8047  125.3975 C   0  0  0  0  0
  110.1071  107.3303  125.1718 C   0  0  0  0  0
  108.6066  107.0305  125.0855 C   0  0  0  0  0
  108.4086  105.5664  124.8423 C   0  0  0  0  0
  109.0899  104.5845  125.7457 C   0  0  0  0  0
  110.5668  104.9527  125.8909 C   0  0  0  0  0
  110.7193  106.4343  126.2708 C   0  0  0  0  0
  112.2085  108.2211  126.9334 O   0  0  0  0  0
  108.7603  109.4941  123.7185 O   0  0  0  0  0
  107.7101  105.1798  123.9204 O   0  0  0  0  0
  106.6178  112.8343  131.2445 Br  0  0  0  0  0
  1  2  1  0  0  0
  2  3  1  0  0  0
  2 25  1  0  0  0
  4 25  1  0  0  0
  5  6  1  0  0  0
  7  6  1  0  0  0
  7  8  1  0  0  0
  7 13  1  0  0  0
  8  9  1  0  0  0
  9 10  1  0  0  0
 10 11  1  0  0  0
 11 12  1  0  0  0
 12 28  1  0  0  0
 13 14  1  0  0  0
 14 15  1  0  0  0
 15  7  1  0  0  0
 16 17  1  0  0  0
 17 26  1  0  0  0
 18  4  1  0  0  0
 19 18  1  0  0  0
 19 20  1  0  0  0
 20 21  1  0  0  0
 22 21  1  0  0  0
 22 23  1  0  0  0
 24 23  1  0  0  0
 24  2  1  0  0  0
 24 19  1  0  0  0
  4  5  2  0  0  0
  6 16  2  0  0  0
 17 18  2  0  0  0
 21 27  2  0  0  0
M  END
> <rmsd>
0.562146962

$$$$
CHEMBL1259091_6KPF


 28 31  0  0  0  0  0  0  0  0999 V2000
  113.0331  106.5834  125.5366 C   0  0  0  0  0
  112.1152  106.9210  126.7048 C   0  0  0  0  0
  112.5943  106.1650  127.9309 C   0  0  0  0  0
  111.4279  109.2762  126.3159 C   0  0  0  0  0
  111.7235  110.6272  126.5077 C   0  0  0  0  0
  111.0195  111.6202  125.8167 C   0  0  0  0  0
  111.3039  113.0797  126.0889 C   0  0  0  0  0
  110.6764  113.5934  127.3842 C   0  0  0  0  0
  109.1586  113.5315  127.3369 C   0  0  0  0  0
  108.5933  113.9301  128.6862 C   0  0  0  0  0
  107.0771  113.8124  128.6822 C   0  0  0  0  0
  106.6354  112.3566  128.6772 C   0  0  0  0  0
  111.0564  114.0027  124.9035 C   0  0  0  0  0
  112.5375  114.3262  124.8464 C   0  0  0  0  0
  112.7858  113.4071  126.0285 C   0  0  0  0  0
  110.0046  111.2408  124.9295 C   0  0  0  0  0
  109.6919  109.8942  124.7316 C   0  0  0  0  0
  110.3679  108.8930  125.4642 C   0  0  0  0  0
  110.0651  107.4173  125.2716 C   0  0  0  0  0
  108.5639  107.1260  125.1894 C   0  0  0  0  0
  108.3354  105.6508  124.8681 C   0  0  0  0  0
  108.9604  104.7676  125.9462 C   0  0  0  0  0
  110.4514  105.0646  126.0832 C   0  0  0  0  0
  110.6555  106.5506  126.3992 C   0  0  0  0  0
  112.2024  108.3180  126.9809 O   0  0  0  0  0
  108.7134  109.5693  123.7994 O   0  0  0  0  0
  106.9668  105.3974  124.7952 O   0  0  0  0  0
  106.9725  111.5339  130.3991 Br  0  0  0  0  0
  1  2  1  0  0  0
  2  3  1  0  0  0
  2 25  1  0  0  0
  4 25  1  0  0  0
  5  6  1  0  0  0
  7  6  1  0  0  0
  7  8  1  0  0  0
  7 13  1  0  0  0
  8  9  1  0  0  0
  9 10  1  0  0  0
 10 11  1  0  0  0
 11 12  1  0  0  0
 12 28  1  0  0  0
 13 14  1  0  0  0
 14 15  1  0  0  0
 15  7  1  0  0  0
 16 17  1  0  0  0
 17 26  1  0  0  0
 18  4  1  0  0  0
 19 18  1  0  0  0
 19 20  1  0  0  0
 20 21  1  0  0  0
 21 27  1  0  0  0
 21 22  1  0  0  0
 22 23  1  0  0  0
 24 23  1  0  0  0
 24  2  1  0  0  0
 24 19  1  0  0  0
  4  5  2  0  0  0
  6 16  2  0  0  0
 17 18  2  0  0  0
M  END
> <rmsd>
0.562823653

$$$$
CHEMBL1259076_6KPF


 28 31  0  0  0  0  0  0  0  0999 V2000
  106.8662  112.8211  131.1966 C   0  0  0  0  0
  107.1877  113.2072  129.7685 C   0  0  0  0  0
  108.1891  112.2240  129.1926 C   0  0  0  0  0
  108.5316  112.5940  127.7613 C   0  0  0  0  0
  109.4648  113.7929  127.7311 C   0  0  0  0  0
  109.8631  114.1232  126.2977 C   0  0  0  0  0
  111.0805  113.3224  125.8239 C   0  0  0  0  0
  110.8280  111.8372  125.6920 C   0  0  0  0  0
  109.9137  111.3701  124.7404 C   0  0  0  0  0
  109.6301  110.0072  124.6273 C   0  0  0  0  0
  110.2383  109.0804  125.5026 C   0  0  0  0  0
  111.2114  109.5474  126.4141 C   0  0  0  0  0
  111.4788  110.9134  126.5196 C   0  0  0  0  0
  111.8860  107.2431  127.0429 C   0  0  0  0  0
  112.9018  106.8481  125.9781 C   0  0  0  0  0
  112.2758  106.5832  128.3530 C   0  0  0  0  0
  110.4627  106.8228  126.6448 C   0  0  0  0  0
  110.3030  105.3142  126.4275 C   0  0  0  0  0
  108.8319  104.9828  126.1885 C   0  0  0  0  0
  108.2909  105.7718  124.9974 C   0  0  0  0  0
  108.4774  107.2710  125.2206 C   0  0  0  0  0
  109.9633  107.5899  125.4063 C   0  0  0  0  0
  112.3529  113.6961  126.5730 C   0  0  0  0  0
  112.9284  114.2848  125.2985 C   0  0  0  0  0
  111.6601  113.9129  124.5517 C   0  0  0  0  0
  108.7496  109.5911  123.6357 O   0  0  0  0  0
  111.9233  108.6573  127.2271 O   0  0  0  0  0
  106.9359  105.4914  124.8308 O   0  0  0  0  0
  1  2  1  0  0  0
  2  3  1  0  0  0
  3  4  1  0  0  0
  4  5  1  0  0  0
  5  6  1  0  0  0
  6  7  1  0  0  0
  7  8  1  0  0  0
  7 23  1  0  0  0
  9 10  1  0  0  0
 10 26  1  0  0  0
 11 12  1  0  0  0
 12 27  1  0  0  0
 13  8  1  0  0  0
 14 27  1  0  0  0
 14 15  1  0  0  0
 14 16  1  0  0  0
 17 14  1  0  0  0
 17 18  1  0  0  0
 18 19  1  0  0  0
 19 20  1  0  0  0
 20 28  1  0  0  0
 20 21  1  0  0  0
 22 21  1  0  0  0
 22 17  1  0  0  0
 22 11  1  0  0  0
 23 24  1  0  0  0
 24 25  1  0  0  0
 25  7  1  0  0  0
  8  9  2  0  0  0
 10 11  2  0  0  0
 12 13  2  0  0  0
M  END
> <rmsd>
0.572833121

$$$$
CHEMBL59540_6KPF


 28 30  0  0  0  0  0  0  0  0999 V2000
  107.4781  112.7848  130.5020 C   0  0  0  0  0
  107.1263  113.4288  129.1742 C   0  0  0  0  0
  107.5437  112.5295  128.0206 C   0  0  0  0  0
  109.0512  112.5475  127.8216 C   0  0  0  0  0
  109.4861  113.8523  127.1762 C   0  0  0  0  0
  110.9918  113.8501  126.9230 C   0  0  0  0  0
  111.3888  113.2732  125.5566 C   0  0  0  0  0
  112.8912  113.4344  125.4034 C   0  0  0  0  0
  110.7399  114.1042  124.4519 C   0  0  0  0  0
  111.0364  111.7976  125.4617 C   0  0  0  0  0
  110.1469  111.3135  124.4903 C   0  0  0  0  0
  109.8048  109.9608  124.4365 C   0  0  0  0  0
  110.3288  109.0581  125.3862 C   0  0  0  0  0
  111.2791  109.5296  126.3171 C   0  0  0  0  0
  111.6052  110.8861  126.3636 C   0  0  0  0  0
  111.8307  107.2352  127.0786 C   0  0  0  0  0
  112.8777  106.7624  126.0780 C   0  0  0  0  0
  112.1390  106.6182  128.4308 C   0  0  0  0  0
  110.4131  106.8437  126.6320 C   0  0  0  0  0
  110.2160  105.3282  126.4713 C   0  0  0  0  0
  108.9165  104.9790  125.7931 C   0  0  0  0  0
  108.1301  105.8829  125.1969 C   0  0  0  0  0
  106.8805  105.4259  124.5871 C   0  0  0  0  0
  108.4703  107.3516  125.2047 C   0  0  0  0  0
  109.9754  107.5822  125.3576 C   0  0  0  0  0
  108.9487  109.5285  123.4302 O   0  0  0  0  0
  111.9103  108.6534  127.2071 O   0  0  0  0  0
  106.0930  106.2373  124.0326 O   0  0  0  0  0
  1  2  1  0  0  0
  2  3  1  0  0  0
  3  4  1  0  0  0
  4  5  1  0  0  0
  5  6  1  0  0  0
  6  7  1  0  0  0
  7  8  1  0  0  0
  7  9  1  0  0  0
  7 10  1  0  0  0
 11 12  1  0  0  0
 12 26  1  0  0  0
 13 14  1  0  0  0
 14 27  1  0  0  0
 15 10  1  0  0  0
 16 27  1  0  0  0
 16 17  1  0  0  0
 16 18  1  0  0  0
 19 16  1  0  0  0
 19 20  1  0  0  0
 20 21  1  0  0  0
 22 23  1  0  0  0
 24 22  1  0  0  0
 25 24  1  0  0  0
 25 19  1  0  0  0
 25 13  1  0  0  0
 10 11  2  0  0  0
 12 13  2  0  0  0
 14 15  2  0  0  0
 21 22  2  0  0  0
 23 28  2  0  0  0
M  END
> <rmsd>
0.420351446

$$$$
CHEMBL1259243_6KPF


 29 32  0  0  0  0  0  0  0  0999 V2000
  106.6891  113.9666  131.0863 C   0  0  0  0  0
  107.8472  113.9814  130.1115 C   0  0  0  0  0
  107.7696  112.7593  129.2159 C   0  0  0  0  0
  108.9194  112.7549  128.2253 C   0  0  0  0  0
  108.6682  113.7418  127.1272 C   0  0  0  0  0
  109.5206  113.9519  126.1123 C   0  0  0  0  0
  110.8427  113.2464  125.9130 C   0  0  0  0  0
  110.6458  111.7483  125.7463 C   0  0  0  0  0
  109.8107  111.2631  124.7295 C   0  0  0  0  0
  109.5982  109.8929  124.5636 C   0  0  0  0  0
  110.2018  108.9690  125.4444 C   0  0  0  0  0
  111.1043  109.4523  126.4169 C   0  0  0  0  0
  111.3001  110.8253  126.5748 C   0  0  0  0  0
  111.8741  107.1669  126.9986 C   0  0  0  0  0
  112.9542  106.8740  125.9646 C   0  0  0  0  0
  112.2487  106.4790  128.2988 C   0  0  0  0  0
  110.4960  106.6803  126.5245 C   0  0  0  0  0
  110.4428  105.1712  126.2388 C   0  0  0  0  0
  109.0043  104.7400  125.9583 C   0  0  0  0  0
  108.4177  105.6120  124.8912 C   0  0  0  0  0
  108.5330  107.0988  125.0295 C   0  0  0  0  0
  109.9970  107.4714  125.2947 C   0  0  0  0  0
  111.4972  113.8044  124.6539 C   0  0  0  0  0
  112.6483  114.6780  125.1026 C   0  0  0  0  0
  113.0642  114.1239  126.4412 C   0  0  0  0  0
  111.7887  113.6029  127.0649 C   0  0  0  0  0
  108.7928  109.4671  123.5138 O   0  0  0  0  0
  111.8196  108.5720  127.2369 O   0  0  0  0  0
  107.8713  105.1199  123.9182 O   0  0  0  0  0
  1  2  1  0  0  0
  2  3  1  0  0  0
  3  4  1  0  0  0
  4  5  1  0  0  0
  7  6  1  0  0  0
  7  8  1  0  0  0
  7 23  1  0  0  0
  9 10  1  0  0  0
 10 27  1  0  0  0
 11 12  1  0  0  0
 12 28  1  0  0  0
 13  8  1  0  0  0
 14 28  1  0  0  0
 14 15  1  0  0  0
 14 16  1  0  0  0
 17 14  1  0  0  0
 17 18  1  0  0  0
 18 19  1  0  0  0
 19 20  1  0  0  0
 21 20  1  0  0  0
 22 21  1  0  0  0
 22 17  1  0  0  0
 22 11  1  0  0  0
 23 24  1  0  0  0
 24 25  1  0  0  0
 25 26  1  0  0  0
 26  7  1  0  0  0
  5  6  2  0  0  0
  8  9  2  0  0  0
 10 11  2  0  0  0
 12 13  2  0  0  0
 20 29  2  0  0  0
M  END
> <rmsd>
0.546380937

$$$$
CHEMBL1259018_6KPF


 28 31  0  0  0  0  0  0  0  0999 V2000
  106.8503  112.8653  131.1862 C   0  0  0  0  0
  107.1801  113.2433  129.7578 C   0  0  0  0  0
  108.1766  112.2504  129.1898 C   0  0  0  0  0
  108.5275  112.6122  127.7584 C   0  0  0  0  0
  109.4696  113.8041  127.7272 C   0  0  0  0  0
  109.8758  114.1257  126.2940 C   0  0  0  0  0
  111.0891  113.3141  125.8281 C   0  0  0  0  0
  110.8265  111.8304  125.7014 C   0  0  0  0  0
  109.9120  111.3658  124.7484 C   0  0  0  0  0
  109.6192  110.0045  124.6408 C   0  0  0  0  0
  110.2189  109.0774  125.5207 C   0  0  0  0  0
  111.1914  109.5405  126.4336 C   0  0  0  0  0
  111.4676  110.9051  126.5351 C   0  0  0  0  0
  111.8763  107.2371  127.0497 C   0  0  0  0  0
  112.8952  106.8662  125.9802 C   0  0  0  0  0
  112.2760  106.5687  128.3529 C   0  0  0  0  0
  110.4614  106.7988  126.6418 C   0  0  0  0  0
  110.3133  105.2694  126.4651 C   0  0  0  0  0
  109.2894  104.8615  125.3968 C   0  0  0  0  0
  108.1448  105.8305  125.3431 C   0  0  0  0  0
  108.4139  107.3090  125.3197 C   0  0  0  0  0
  109.9176  107.5923  125.4340 C   0  0  0  0  0
  112.3614  113.6817  126.5806 C   0  0  0  0  0
  112.9460  114.2610  125.3059 C   0  0  0  0  0
  111.6778  113.8952  124.5557 C   0  0  0  0  0
  108.7359  109.5889  123.6512 O   0  0  0  0  0
  111.8960  108.6489  127.2498 O   0  0  0  0  0
  106.9968  105.4197  125.3473 O   0  0  0  0  0
  1  2  1  0  0  0
  2  3  1  0  0  0
  3  4  1  0  0  0
  4  5  1  0  0  0
  5  6  1  0  0  0
  6  7  1  0  0  0
  7  8  1  0  0  0
  7 23  1  0  0  0
  9 10  1  0  0  0
 10 26  1  0  0  0
 11 12  1  0  0  0
 12 27  1  0  0  0
 13  8  1  0  0  0
 14 27  1  0  0  0
 14 15  1  0  0  0
 14 16  1  0  0  0
 17 14  1  0  0  0
 17 18  1  0  0  0
 18 19  1  0  0  0
 19 20  1  0  0  0
 21 20  1  0  0  0
 22 21  1  0  0  0
 22 17  1  0  0  0
 22 11  1  0  0  0
 23 24  1  0  0  0
 24 25  1  0  0  0
 25  7  1  0  0  0
  8  9  2  0  0  0
 10 11  2  0  0  0
 12 13  2  0  0  0
 20 28  2  0  0  0
M  END
> <rmsd>
0.571081221

$$$$
CHEMBL111340_8GUS


 29 31  0  0  0  0  0  0  0  0999 V2000
  107.7512  113.5120  130.4904 C   0  0  0  0  0
  108.0318  113.7563  129.0230 C   0  0  0  0  0
  108.8745  112.6207  128.4739 C   0  0  0  0  0
  109.1744  112.8465  127.0035 C   0  0  0  0  0
  110.2396  113.9173  126.8370 C   0  0  0  0  0
  110.5988  114.0920  125.3633 C   0  0  0  0  0
  111.7380  113.1765  124.8923 C   0  0  0  0  0
  112.0559  113.5348  123.4510 C   0  0  0  0  0
  112.9938  113.4744  125.7087 C   0  0  0  0  0
  111.3295  111.7140  124.9615 C   0  0  0  0  0
  110.2390  111.2579  124.2071 C   0  0  0  0  0
  109.8278  109.9244  124.2628 C   0  0  0  0  0
  110.5131  109.0045  125.0933 C   0  0  0  0  0
  111.5925  109.4684  125.8654 C   0  0  0  0  0
  111.9979  110.8017  125.7900 C   0  0  0  0  0
  111.7973  107.3261  127.1268 C   0  0  0  0  0
  112.9938  106.4034  127.2970 C   0  0  0  0  0
  111.1197  107.4859  128.4764 C   0  0  0  0  0
  110.8068  106.7394  126.1389 C   0  0  0  0  0
  110.4526  105.3820  126.2309 C   0  0  0  0  0
  109.5125  104.8286  125.3626 C   0  0  0  0  0
  108.8991  105.6236  124.3919 C   0  0  0  0  0
  107.9100  105.0385  123.4728 C   0  0  0  0  0
  109.2303  106.9806  124.3097 C   0  0  0  0  0
  110.1704  107.5583  125.1778 C   0  0  0  0  0
  108.7365  109.5426  123.4919 O   0  0  0  0  0
  112.2906  108.6001  126.7074 O   0  0  0  0  0
  107.3508  105.7522  122.5979 O   0  0  0  0  0
  107.5828  103.6903  123.5615 O   0  0  0  0  0
  1  2  1  0  0  0
  2  3  1  0  0  0
  3  4  1  0  0  0
  4  5  1  0  0  0
  5  6  1  0  0  0
  6  7  1  0  0  0
  7  8  1  0  0  0
  7  9  1  0  0  0
  7 10  1  0  0  0
 11 12  1  0  0  0
 12 26  1  0  0  0
 13 14  1  0  0  0
 14 27  1  0  0  0
 15 10  1  0  0  0
 16 27  1  0  0  0
 16 17  1  0  0  0
 16 18  1  0  0  0
 16 19  1  0  0  0
 20 21  1  0  0  0
 22 23  1  0  0  0
 22 24  1  0  0  0
 23 29  1  0  0  0
 25 19  1  0  0  0
 25 13  1  0  0  0
 10 11  2  0  0  0
 12 13  2  0  0  0
 14 15  2  0  0  0
 19 20  2  0  0  0
 21 22  2  0  0  0
 23 28  2  0  0  0
 24 25  2  0  0  0
M  END
> <rmsd>
0.544859588

$$$$
CHEMBL1259092_6KPF


 28 31  0  0  0  0  0  0  0  0999 V2000
  111.9906  106.4270  128.3997 C   0  0  0  0  0
  111.7711  107.0900  127.0520 C   0  0  0  0  0
  112.9619  106.7741  126.1556 C   0  0  0  0  0
  111.0545  109.3655  126.3641 C   0  0  0  0  0
  111.2157  110.7421  126.5315 C   0  0  0  0  0
  110.6437  111.6461  125.6280 C   0  0  0  0  0
  110.7646  113.1372  125.8450 C   0  0  0  0  0
  109.5288  113.7666  126.4871 C   0  0  0  0  0
  109.2862  113.2311  127.8889 C   0  0  0  0  0
  108.0479  113.8836  128.4727 C   0  0  0  0  0
  107.7847  113.3585  129.8724 C   0  0  0  0  0
  108.7647  113.9651  130.8588 C   0  0  0  0  0
  111.1661  113.8808  124.5828 C   0  0  0  0  0
  112.4607  114.3143  125.2459 C   0  0  0  0  0
  112.0636  113.5736  126.5090 C   0  0  0  0  0
  109.8983  111.1505  124.5515 C   0  0  0  0  0
  109.7221  109.7764  124.3740 C   0  0  0  0  0
  110.2575  108.8645  125.3109 C   0  0  0  0  0
  110.0956  107.3632  125.1490 C   0  0  0  0  0
  108.6738  106.9625  124.7380 C   0  0  0  0  0
  108.5793  105.4559  124.4849 C   0  0  0  0  0
  109.0355  104.6629  125.7121 C   0  0  0  0  0
  110.4319  105.0873  126.1651 C   0  0  0  0  0
  110.4537  106.5952  126.4339 C   0  0  0  0  0
  111.6990  108.4999  127.2559 O   0  0  0  0  0
  109.0198  109.3351  123.2587 O   0  0  0  0  0
  109.3402  105.1027  123.3684 O   0  0  0  0  0
  108.4181  113.2609  132.6253 Br  0  0  0  0  0
  1  2  1  0  0  0
  2  3  1  0  0  0
  2 25  1  0  0  0
  4 25  1  0  0  0
  5  6  1  0  0  0
  7  6  1  0  0  0
  7  8  1  0  0  0
  7 13  1  0  0  0
  8  9  1  0  0  0
  9 10  1  0  0  0
 10 11  1  0  0  0
 11 12  1  0  0  0
 12 28  1  0  0  0
 13 14  1  0  0  0
 14 15  1  0  0  0
 15  7  1  0  0  0
 16 17  1  0  0  0
 17 26  1  0  0  0
 18  4  1  0  0  0
 19 18  1  0  0  0
 19 20  1  0  0  0
 20 21  1  0  0  0
 21 27  1  0  0  0
 21 22  1  0  0  0
 22 23  1  0  0  0
 24 23  1  0  0  0
 24  2  1  0  0  0
 24 19  1  0  0  0
  4  5  2  0  0  0
  6 16  2  0  0  0
 17 18  2  0  0  0
M  END
> <rmsd>
0.372510642

$$$$
CHEMBL4474156_6KPF


 31 34  0  0  0  0  0  0  0  0999 V2000
  111.6969  113.6367  124.7079 C   0  0  0  0  0
  111.1768  113.0373  126.0026 C   0  0  0  0  0
  112.2420  113.2820  127.0688 C   0  0  0  0  0
  110.8919  111.5592  125.7871 C   0  0  0  0  0
  111.5687  110.5656  126.5098 C   0  0  0  0  0
  111.2805  109.2143  126.3135 C   0  0  0  0  0
  112.0648  106.8540  126.6684 C   0  0  0  0  0
  113.2623  106.5871  125.7764 C   0  0  0  0  0
  112.2139  106.0455  127.9444 C   0  0  0  0  0
  110.8092  106.4650  125.9422 C   0  0  0  0  0
  109.9619  107.3746  125.3686 C   0  0  0  0  0
  110.2524  108.8289  125.4244 C   0  0  0  0  0
  109.6419  109.8170  124.6219 C   0  0  0  0  0
  109.9484  111.1646  124.8263 C   0  0  0  0  0
  110.2084  105.2262  125.8127 C   0  0  0  0  0
  107.5840  107.2802  124.5393 C   0  0  0  0  0
  106.5928  107.2771  125.7135 C   0  0  0  0  0
  105.1255  107.2170  125.2696 C   0  0  0  0  0
  104.9273  107.9043  123.9217 C   0  0  0  0  0
  105.7338  107.2085  122.8162 C   0  0  0  0  0
  107.0260  106.5493  123.3178 C   0  0  0  0  0
  109.8989  113.7887  126.3889 C   0  0  0  0  0
  109.2763  113.2691  127.6779 C   0  0  0  0  0
  108.0125  114.0507  127.9797 C   0  0  0  0  0
  107.3731  113.5482  129.2653 C   0  0  0  0  0
  108.1576  113.9987  130.4886 C   0  0  0  0  0
  107.9271  115.4747  130.7521 C   0  0  0  0  0
  112.0302  108.2489  127.0127 O   0  0  0  0  0
  108.7788  109.4935  123.5858 O   0  0  0  0  0
  108.8611  106.7113  124.9505 N   0  0  0  0  0
  109.0147  105.4184  125.2102 N   0  0  0  0  0
  1  2  1  0  0  0
  2  3  1  0  0  0
  2  4  1  0  0  0
  2 22  1  0  0  0
  5  6  1  0  0  0
  6 28  1  0  0  0
  7 28  1  0  0  0
  7  8  1  0  0  0
  7  9  1  0  0  0
  7 10  1  0  0  0
 11 12  1  0  0  0
 11 30  1  0  0  0
 12 13  1  0  0  0
 13 29  1  0  0  0
 14  4  1  0  0  0
 15 10  1  0  0  0
 16 30  1  0  0  0
 16 17  1  0  0  0
 17 18  1  0  0  0
 18 19  1  0  0  0
 19 20  1  0  0  0
 20 21  1  0  0  0
 21 16  1  0  0  0
 22 23  1  0  0  0
 23 24  1  0  0  0
 24 25  1  0  0  0
 25 26  1  0  0  0
 26 27  1  0  0  0
 30 31  1  0  0  0
  4  5  2  0  0  0
 10 11  2  0  0  0
 12  6  2  0  0  0
 13 14  2  0  0  0
 15 31  2  0  0  0
M  END
> <rmsd>
0.548573375

$$$$
CHEMBL4591232_6KPF


 27 29  0  0  0  0  0  0  0  0999 V2000
  112.7746  113.2881  125.4969 C   0  0  0  0  0
  111.3028  113.0588  125.7921 C   0  0  0  0  0
  110.5172  113.9652  124.8484 C   0  0  0  0  0
  110.9816  111.5860  125.5905 C   0  0  0  0  0
  111.6449  110.6168  126.3624 C   0  0  0  0  0
  111.3621  109.2580  126.2076 C   0  0  0  0  0
  111.8694  106.8870  126.9427 C   0  0  0  0  0
  111.4514  106.3921  128.3141 C   0  0  0  0  0
  113.1926  106.2439  126.5734 C   0  0  0  0  0
  110.8257  106.5044  125.9311 C   0  0  0  0  0
  110.1527  107.4105  125.1624 C   0  0  0  0  0
  110.3977  108.8499  125.2669 C   0  0  0  0  0
  109.7255  109.8078  124.4893 C   0  0  0  0  0
  110.0200  111.1629  124.6561 C   0  0  0  0  0
  110.3519  105.2597  125.5596 C   0  0  0  0  0
  108.6926  104.4464  123.8979 C   0  0  0  0  0
  111.0452  113.4840  127.2450 C   0  0  0  0  0
  109.6226  113.2083  127.7250 C   0  0  0  0  0
  108.7127  114.3806  127.4034 C   0  0  0  0  0
  107.2880  114.0928  127.8509 C   0  0  0  0  0
  107.1028  114.3915  129.3306 C   0  0  0  0  0
  107.5419  113.2104  130.1748 C   0  0  0  0  0
  112.0496  108.3161  127.0014 O   0  0  0  0  0
  108.7684  109.4322  123.5543 O   0  0  0  0  0
  109.3704  104.1121  122.7258 O   0  0  0  0  0
  109.2951  106.7765  124.3451 N   0  0  0  0  0
  109.4224  105.4829  124.6051 N   0  0  0  0  0
  1  2  1  0  0  0
  2  3  1  0  0  0
  2  4  1  0  0  0
  2 17  1  0  0  0
  5  6  1  0  0  0
  6 23  1  0  0  0
  7 23  1  0  0  0
  7  8  1  0  0  0
  7  9  1  0  0  0
  7 10  1  0  0  0
 10 11  1  0  0  0
 11 12  1  0  0  0
 12 13  1  0  0  0
 13 24  1  0  0  0
 14  4  1  0  0  0
 16 27  1  0  0  0
 16 25  1  0  0  0
 17 18  1  0  0  0
 18 19  1  0  0  0
 19 20  1  0  0  0
 20 21  1  0  0  0
 21 22  1  0  0  0
 27 26  1  0  0  0
 27 15  1  0  0  0
  4  5  2  0  0  0
 11 26  2  0  0  0
 12  6  2  0  0  0
 13 14  2  0  0  0
 15 10  2  0  0  0
M  END
> <rmsd>
0.478617489

$$$$
CHEMBL5189892_6KPF


 25 27  0  0  0  0  0  0  0  0999 V2000
  107.1405  113.5926  129.3194 C   0  0  0  0  0
  108.6091  113.9206  129.1538 C   0  0  0  0  0
  109.0574  113.5332  127.7612 C   0  0  0  0  0
  110.5282  113.8553  127.5963 C   0  0  0  0  0
  110.1640  114.3542  124.6071 C   0  0  0  0  0
  112.9217  113.7185  125.7214 C   0  0  0  0  0
  110.8068  111.5565  125.6409 C   0  0  0  0  0
  109.9891  111.1087  124.6033 C   0  0  0  0  0
  109.7562  109.7431  124.4241 C   0  0  0  0  0
  110.3222  108.8032  125.3158 C   0  0  0  0  0
  110.1126  107.3109  125.1460 C   0  0  0  0  0
  108.6887  106.9469  124.8228 C   0  0  0  0  0
  108.3345  105.6563  124.8132 C   0  0  0  0  0
  109.3617  104.5933  125.1062 C   0  0  0  0  0
  110.3371  104.9972  126.2298 C   0  0  0  0  0
  110.4937  106.5253  126.4137 C   0  0  0  0  0
  111.8547  106.9534  126.9821 C   0  0  0  0  0
  111.2046  109.2650  126.3190 C   0  0  0  0  0
  111.4223  110.6343  126.4868 C   0  0  0  0  0
  112.9910  106.5436  126.0557 C   0  0  0  0  0
  112.0759  106.3049  128.3365 C   0  0  0  0  0
  106.9226  105.2737  124.5372 C   0  0  0  0  0
  111.0969  113.3600  125.8863 Si  0  0  0  0  0
  111.8813  108.3701  127.1580 O   0  0  0  0  0
  108.9705  109.3372  123.3516 O   0  0  0  0  0
  1  2  1  0  0  0
  2  3  1  0  0  0
  3  4  1  0  0  0
  4 23  1  0  0  0
  8  9  1  0  0  0
  9 25  1  0  0  0
 11 10  1  0  0  0
 11 12  1  0  0  0
 14 13  1  0  0  0
 14 15  1  0  0  0
 16 15  1  0  0  0
 16 17  1  0  0  0
 16 11  1  0  0  0
 17 24  1  0  0  0
 17 20  1  0  0  0
 17 21  1  0  0  0
 18 24  1  0  0  0
 18 10  1  0  0  0
 19  7  1  0  0  0
 22 13  1  0  0  0
 23  5  1  0  0  0
 23  6  1  0  0  0
 23  7  1  0  0  0
  7  8  2  0  0  0
  9 10  2  0  0  0
 12 13  2  0  0  0
 18 19  2  0  0  0
M  END
> <rmsd>
0.323532999

$$$$
