CHEMBL385994_6PT0


 30 33  0  0  0  0  0  0  0  0999 V2000
  104.2721  109.1840  126.1995 C   0  0  0  0  0
  103.8823  108.0960  125.4184 C   0  0  0  0  0
  102.5338  107.8973  125.1157 C   0  0  0  0  0
  101.5542  108.7856  125.5797 C   0  0  0  0  0
  101.9418  109.8785  126.3912 C   0  0  0  0  0
  103.3145  110.0732  126.6897 C   0  0  0  0  0
  103.7147  111.1460  127.4911 C   0  0  0  0  0
  102.7630  112.0252  128.0128 C   0  0  0  0  0
  101.4068  111.8323  127.7398 C   0  0  0  0  0
  100.9984  110.7639  126.9376 C   0  0  0  0  0
  100.1466  108.5190  125.2139 C   0  0  0  0  0
   99.3043  109.5415  124.5665 C   0  0  0  0  0
   99.7402  110.7437  124.0432 C   0  0  0  0  0
   97.5913  110.5974  123.6837 C   0  0  0  0  0
   97.9440  109.4268  124.3376 C   0  0  0  0  0
   96.2100  110.9087  123.2373 C   0  0  0  0  0
   95.1965  109.9494  123.3854 C   0  0  0  0  0
   93.8911  110.2222  122.9687 C   0  0  0  0  0
   93.5841  111.4594  122.3985 C   0  0  0  0  0
   94.5781  112.4292  122.2435 C   0  0  0  0  0
   95.8863  112.1478  122.6671 C   0  0  0  0  0
   95.1941  114.6943  121.4655 C   0  0  0  0  0
   98.7663  112.6792  122.8517 C   0  0  0  0  0
   99.4276  112.5594  121.4830 C   0  0  0  0  0
   98.4670  111.9908  120.4516 C   0  0  0  0  0
   98.5058  110.4753  120.4687 C   0  0  0  0  0
   97.4682  109.9339  119.5089 C   0  0  0  0  0
   99.6692  107.3708  125.4213 O   0  0  0  0  0
   94.2431  113.6578  121.6681 O   0  0  0  0  0
   98.6833  111.3808  123.5108 N   0  0  0  0  0
  2  3  1  0  0  0
  4  5  1  0  0  0
  4 11  1  0  0  0
  6  7  1  0  0  0
  6  1  1  0  0  0
  8  9  1  0  0  0
 10  5  1  0  0  0
 11 12  1  0  0  0
 13 30  1  0  0  0
 14 16  1  0  0  0
 15 12  1  0  0  0
 17 18  1  0  0  0
 19 20  1  0  0  0
 20 29  1  0  0  0
 21 16  1  0  0  0
 22 29  1  0  0  0
 23 30  1  0  0  0
 23 24  1  0  0  0
 24 25  1  0  0  0
 25 26  1  0  0  0
 26 27  1  0  0  0
 30 14  1  0  0  0
  1  2  2  0  0  0
  3  4  2  0  0  0
  5  6  2  0  0  0
  7  8  2  0  0  0
  9 10  2  0  0  0
 11 28  2  0  0  0
 12 13  2  0  0  0
 14 15  2  0  0  0
 16 17  2  0  0  0
 18 19  2  0  0  0
 20 21  2  0  0  0
M  END
> <rmsd>
0.701247871

$$$$
CHEMBL232410_8GUR


 24 25  0  0  0  0  0  0  0  0999 V2000
   92.7734  104.8120  122.4127 C   0  0  0  0  0
   93.8297  104.8218  123.5017 C   0  0  0  0  0
   94.3533  106.2300  123.7201 C   0  0  0  0  0
   95.2953  106.6248  122.5985 C   0  0  0  0  0
   95.7986  108.0318  122.8363 C   0  0  0  0  0
   96.7525  108.4254  121.7150 C   0  0  0  0  0
   97.3432  109.8341  121.8867 C   0  0  0  0  0
   96.2101  110.8494  121.9841 C   0  0  0  0  0
   98.1318  110.1418  120.6265 C   0  0  0  0  0
   98.2719  109.9625  123.0845 C   0  0  0  0  0
   98.8155  111.2159  123.4147 C   0  0  0  0  0
   99.6864  111.3539  124.4972 C   0  0  0  0  0
  100.0376  110.2408  125.2700 C   0  0  0  0  0
  100.9652  110.4122  126.4114 C   0  0  0  0  0
  100.5660  111.1398  127.5560 C   0  0  0  0  0
   99.2030  111.7365  127.6734 C   0  0  0  0  0
  101.4475  111.2959  128.6289 C   0  0  0  0  0
  102.7267  110.7427  128.5787 C   0  0  0  0  0
  103.1332  110.0280  127.4524 C   0  0  0  0  0
  102.2653  109.8578  126.3704 C   0  0  0  0  0
  102.7649  109.1085  125.1802 C   0  0  0  0  0
   99.5030  108.9810  124.9479 C   0  0  0  0  0
   98.6337  108.8489  123.8624 C   0  0  0  0  0
   99.8218  107.8588  125.7040 O   0  0  0  0  0
  1  2  1  0  0  0
  2  3  1  0  0  0
  3  4  1  0  0  0
  4  5  1  0  0  0
  5  6  1  0  0  0
  6  7  1  0  0  0
  7  8  1  0  0  0
  7  9  1  0  0  0
  7 10  1  0  0  0
 11 12  1  0  0  0
 13 14  1  0  0  0
 13 22  1  0  0  0
 15 17  1  0  0  0
 16 15  1  0  0  0
 18 19  1  0  0  0
 20 14  1  0  0  0
 21 20  1  0  0  0
 22 24  1  0  0  0
 23 10  1  0  0  0
 10 11  2  0  0  0
 12 13  2  0  0  0
 14 15  2  0  0  0
 17 18  2  0  0  0
 19 20  2  0  0  0
 22 23  2  0  0  0
M  END
> <rmsd>
0.619712234

$$$$
CHEMBL409669_6PT0


 29 32  0  0  0  0  0  0  0  0999 V2000
  103.2221  111.2006  126.7672 C   0  0  0  0  0
  103.0503  111.7354  128.0607 C   0  0  0  0  0
  102.0100  111.2771  128.8860 C   0  0  0  0  0
  101.1493  110.2964  128.3799 C   0  0  0  0  0
  101.2943  109.7944  127.1075 C   0  0  0  0  0
  102.3465  110.2131  126.2805 C   0  0  0  0  0
  100.2886  108.8449  126.9450 C   0  0  0  0  0
   99.5877  108.8014  128.1475 C   0  0  0  0  0
   99.6692  109.9073  130.3773 C   0  0  0  0  0
  100.5173  109.1017  131.3488 C   0  0  0  0  0
  100.2060  107.6043  131.2382 C   0  0  0  0  0
  100.7177  106.8266  132.4607 C   0  0  0  0  0
  100.8105  108.6123  133.8220 C   0  0  0  0  0
  100.3149  109.6212  132.7741 C   0  0  0  0  0
   99.9346  108.0397  125.7594 C   0  0  0  0  0
  100.1991  108.5216  124.3524 C   0  0  0  0  0
   99.4525  109.8075  123.9504 C   0  0  0  0  0
   98.9972  108.4603  123.3916 C   0  0  0  0  0
   97.6642  107.9094  123.8935 C   0  0  0  0  0
   99.3834  108.1278  121.9598 C   0  0  0  0  0
   98.5383  110.4888  124.9666 C   0  0  0  0  0
  100.2539  110.7138  123.0304 C   0  0  0  0  0
  102.5735  109.6578  125.0668 F   0  0  0  0  0
  101.8562  111.7781  130.1370 F   0  0  0  0  0
  103.9047  112.6843  128.5173 F   0  0  0  0  0
  104.2498  111.6293  125.9931 F   0  0  0  0  0
  100.1194  109.6965  129.0077 N   0  0  0  0  0
  101.5978  107.6060  133.2334 O   0  0  0  0  0
   99.4265  106.8992  125.9329 O   0  0  0  0  0
  1 26  1  0  0  0
  2  3  1  0  0  0
  2 25  1  0  0  0
  3 24  1  0  0  0
  4  5  1  0  0  0
  5  7  1  0  0  0
  6 23  1  0  0  0
  6  1  1  0  0  0
  7 15  1  0  0  0
  8 27  1  0  0  0
  9 27  1  0  0  0
  9 10  1  0  0  0
 10 11  1  0  0  0
 11 12  1  0  0  0
 12 28  1  0  0  0
 13 28  1  0  0  0
 13 14  1  0  0  0
 14 10  1  0  0  0
 16 15  1  0  0  0
 16 17  1  0  0  0
 17 18  1  0  0  0
 17 21  1  0  0  0
 17 22  1  0  0  0
 18 19  1  0  0  0
 18 20  1  0  0  0
 18 16  1  0  0  0
 27  4  1  0  0  0
  1  2  2  0  0  0
  3  4  2  0  0  0
  5  6  2  0  0  0
  7  8  2  0  0  0
 15 29  2  0  0  0
M  END
> <rmsd>
0.489536762

$$$$
CHEMBL562350_6PT0


 27 30  0  0  0  0  0  0  0  0999 V2000
   97.2091  110.9972  119.4529 C   0  0  0  0  0
   97.9384  110.1021  120.4316 C   0  0  0  0  0
   96.9896  109.6881  121.5410 C   0  0  0  0  0
   98.6486  109.1852  123.3740 C   0  0  0  0  0
   99.1443  110.5856  123.5327 C   0  0  0  0  0
   99.0212  108.0907  124.1624 C   0  0  0  0  0
  100.0090  108.0489  125.2638 C   0  0  0  0  0
  101.2142  108.9120  125.2640 C   0  0  0  0  0
  101.8988  109.1006  124.0564 C   0  0  0  0  0
  103.0548  109.8764  123.9994 C   0  0  0  0  0
  103.5593  110.4837  125.1503 C   0  0  0  0  0
  104.8125  111.2933  125.0366 C   0  0  0  0  0
  106.0277  110.4092  125.2438 C   0  0  0  0  0
  102.8973  110.3053  126.3812 C   0  0  0  0  0
  103.3851  110.9080  127.5518 C   0  0  0  0  0
  102.7209  110.7402  128.7677 C   0  0  0  0  0
  101.5593  109.9706  128.8286 C   0  0  0  0  0
  101.0609  109.3643  127.6742 C   0  0  0  0  0
  101.7181  109.5140  126.4417 C   0  0  0  0  0
   98.2138  107.0483  123.7399 C   0  0  0  0  0
   98.1318  105.7250  124.1732 C   0  0  0  0  0
   97.1960  104.8872  123.5413 C   0  0  0  0  0
   96.3740  105.3816  122.5062 C   0  0  0  0  0
   96.4774  106.7200  122.0883 C   0  0  0  0  0
   97.4164  107.5290  122.7303 C   0  0  0  0  0
   97.6768  108.8280  122.4977 N   0  0  0  0  0
   99.8366  107.2279  126.2049 O   0  0  0  0  0
  1  2  1  0  0  0
  2  3  1  0  0  0
  3 26  1  0  0  0
  5  4  1  0  0  0
  6  7  1  0  0  0
  6 20  1  0  0  0
  7  8  1  0  0  0
  9 10  1  0  0  0
 11 14  1  0  0  0
 12 11  1  0  0  0
 12 13  1  0  0  0
 15 16  1  0  0  0
 17 18  1  0  0  0
 19  8  1  0  0  0
 19 14  1  0  0  0
 21 22  1  0  0  0
 23 24  1  0  0  0
 25 26  1  0  0  0
 25 20  1  0  0  0
 26  4  1  0  0  0
  4  6  2  0  0  0
  7 27  2  0  0  0
  8  9  2  0  0  0
 10 11  2  0  0  0
 14 15  2  0  0  0
 16 17  2  0  0  0
 18 19  2  0  0  0
 20 21  2  0  0  0
 22 23  2  0  0  0
 24 25  2  0  0  0
M  END
> <rmsd>
0.519021869

$$$$
CHEMBL2380408_6PT0


 25 28  0  0  0  0  0  0  0  0999 V2000
   99.5993  110.9928  123.8832 C   0  0  0  0  0
   98.3849  110.4204  124.5888 C   0  0  0  0  0
   98.3330  110.8924  126.0332 C   0  0  0  0  0
   99.1747  109.9989  126.9363 C   0  0  0  0  0
  101.1898  111.4560  127.1614 C   0  0  0  0  0
  102.5576  111.3775  126.8983 C   0  0  0  0  0
  103.5472  112.4451  127.1578 C   0  0  0  0  0
  104.9053  112.2594  126.8555 C   0  0  0  0  0
  105.8369  113.2719  127.1021 C   0  0  0  0  0
  105.4188  114.4838  127.6550 C   0  0  0  0  0
  106.3437  115.5014  127.9048 C   0  0  0  0  0
  105.9164  116.7124  128.4589 C   0  0  0  0  0
  104.5652  116.9084  128.7641 C   0  0  0  0  0
  103.6342  115.8944  128.5168 C   0  0  0  0  0
  104.0540  114.6818  127.9633 C   0  0  0  0  0
  103.1301  113.6644  127.7134 C   0  0  0  0  0
  102.7736  110.1188  126.3589 C   0  0  0  0  0
  103.9428  109.5019  125.9136 C   0  0  0  0  0
  103.8445  108.1963  125.4065 C   0  0  0  0  0
  102.5980  107.5411  125.3536 C   0  0  0  0  0
  101.4264  108.1828  125.8091 C   0  0  0  0  0
   99.9991  106.2405  125.2550 C   0  0  0  0  0
  101.5566  109.4854  126.3120 C   0  0  0  0  0
  100.5943  110.2977  126.7925 N   0  0  0  0  0
  100.1778  107.5550  125.7633 O   0  0  0  0  0
  1  2  1  0  0  0
  2  3  1  0  0  0
  3  4  1  0  0  0
  4 24  1  0  0  0
  6  7  1  0  0  0
  6 17  1  0  0  0
  8  9  1  0  0  0
 10 11  1  0  0  0
 12 13  1  0  0  0
 14 15  1  0  0  0
 15 10  1  0  0  0
 16  7  1  0  0  0
 18 19  1  0  0  0
 20 21  1  0  0  0
 21 25  1  0  0  0
 22 25  1  0  0  0
 23 24  1  0  0  0
 23 17  1  0  0  0
 24  5  1  0  0  0
  5  6  2  0  0  0
  7  8  2  0  0  0
  9 10  2  0  0  0
 11 12  2  0  0  0
 13 14  2  0  0  0
 15 16  2  0  0  0
 17 18  2  0  0  0
 19 20  2  0  0  0
 21 23  2  0  0  0
M  END
> <rmsd>
0.587721348

$$$$
CHEMBL563929_6PT0


 28 31  0  0  0  0  0  0  0  0999 V2000
   94.0055  114.1166  124.7788 C   0  0  0  0  0
   95.4812  113.8192  124.5929 C   0  0  0  0  0
   95.8874  112.6081  125.4189 C   0  0  0  0  0
   95.3753  111.3124  124.8002 C   0  0  0  0  0
   96.1290  110.9740  123.5192 C   0  0  0  0  0
   97.9386  109.5417  124.4943 C   0  0  0  0  0
   99.3323  109.5516  124.5506 C   0  0  0  0  0
  100.1684  108.5200  125.1964 C   0  0  0  0  0
  101.5719  108.7746  125.5828 C   0  0  0  0  0
  102.5518  107.8736  125.1450 C   0  0  0  0  0
  103.8961  108.0649  125.4702 C   0  0  0  0  0
  104.2804  109.1583  126.2470 C   0  0  0  0  0
  103.3212  110.0599  126.7106 C   0  0  0  0  0
  103.7162  111.1419  127.5018 C   0  0  0  0  0
  102.7685  112.0424  127.9965 C   0  0  0  0  0
  102.3083  114.0788  129.3230 C   0  0  0  0  0
  101.4109  111.8490  127.6986 C   0  0  0  0  0
  101.0079  110.7719  126.9065 C   0  0  0  0  0
  101.9536  109.8712  126.3920 C   0  0  0  0  0
   99.7427  110.6775  123.8545 C   0  0  0  0  0
  101.0147  111.1644  123.5512 C   0  0  0  0  0
  101.0993  112.3474  122.7966 C   0  0  0  0  0
   99.9293  113.0042  122.3595 C   0  0  0  0  0
   98.6600  112.4839  122.6679 C   0  0  0  0  0
   98.6076  111.3096  123.4205 C   0  0  0  0  0
   97.5150  110.6309  123.8104 N   0  0  0  0  0
   99.6756  107.3797  125.4096 O   0  0  0  0  0
  103.2008  113.1147  128.7813 O   0  0  0  0  0
  1  2  1  0  0  0
  2  3  1  0  0  0
  3  4  1  0  0  0
  4  5  1  0  0  0
  5 26  1  0  0  0
  7  8  1  0  0  0
  7 20  1  0  0  0
  8  9  1  0  0  0
 10 11  1  0  0  0
 12 13  1  0  0  0
 14 15  1  0  0  0
 15 28  1  0  0  0
 16 28  1  0  0  0
 17 18  1  0  0  0
 19  9  1  0  0  0
 19 13  1  0  0  0
 21 22  1  0  0  0
 23 24  1  0  0  0
 25 26  1  0  0  0
 25 20  1  0  0  0
 26  6  1  0  0  0
  6  7  2  0  0  0
  8 27  2  0  0  0
  9 10  2  0  0  0
 11 12  2  0  0  0
 13 14  2  0  0  0
 15 17  2  0  0  0
 18 19  2  0  0  0
 20 21  2  0  0  0
 22 23  2  0  0  0
 24 25  2  0  0  0
M  END
> <rmsd>
0.719228089

$$$$
CHEMBL2380417_6PT0


 26 29  0  0  0  0  0  0  0  0999 V2000
  100.4330  114.6429  124.6829 C   0  0  0  0  0
   99.1217  113.9720  125.0461 C   0  0  0  0  0
   98.2477  113.8012  123.8120 C   0  0  0  0  0
   98.7888  112.7135  122.8898 C   0  0  0  0  0
   99.7541  110.7219  124.0211 C   0  0  0  0  0
   99.3079  109.5248  124.5792 C   0  0  0  0  0
  100.1479  108.4935  125.2215 C   0  0  0  0  0
  101.5524  108.7628  125.5997 C   0  0  0  0  0
  102.5332  107.8563  125.1745 C   0  0  0  0  0
  103.8792  108.0584  125.4851 C   0  0  0  0  0
  104.2662  109.1693  126.2349 C   0  0  0  0  0
  103.3078  110.0776  126.6868 C   0  0  0  0  0
  103.7055  111.1747  127.4562 C   0  0  0  0  0
  102.7531  112.0744  127.9405 C   0  0  0  0  0
  101.3986  111.8774  127.6630 C   0  0  0  0  0
  100.9930  110.7846  126.8929 C   0  0  0  0  0
  101.9372  109.8789  126.3819 C   0  0  0  0  0
   97.9393  109.4932  124.3849 C   0  0  0  0  0
   96.9897  108.5326  124.7332 C   0  0  0  0  0
   95.6492  108.7849  124.3945 C   0  0  0  0  0
   95.2905  109.9720  123.7229 C   0  0  0  0  0
   96.2683  110.9231  123.3850 C   0  0  0  0  0
   97.5971  110.6548  123.7400 C   0  0  0  0  0
   98.6977  111.4052  123.5253 N   0  0  0  0  0
   99.6749  107.3409  125.4133 O   0  0  0  0  0
   95.9093  112.0842  122.7127 O   0  0  0  0  0
  1  2  1  0  0  0
  2  3  1  0  0  0
  3  4  1  0  0  0
  4 24  1  0  0  0
  6  7  1  0  0  0
  6 18  1  0  0  0
  7  8  1  0  0  0
  9 10  1  0  0  0
 11 12  1  0  0  0
 13 14  1  0  0  0
 15 16  1  0  0  0
 17  8  1  0  0  0
 17 12  1  0  0  0
 19 20  1  0  0  0
 21 22  1  0  0  0
 22 26  1  0  0  0
 23 24  1  0  0  0
 23 18  1  0  0  0
 24  5  1  0  0  0
  5  6  2  0  0  0
  7 25  2  0  0  0
  8  9  2  0  0  0
 10 11  2  0  0  0
 12 13  2  0  0  0
 14 15  2  0  0  0
 16 17  2  0  0  0
 18 19  2  0  0  0
 20 21  2  0  0  0
 22 23  2  0  0  0
M  END
> <rmsd>
0.704945385

$$$$
CHEMBL261382_5ZTY


 30 33  0  0  0  0  0  0  0  0999 V2000
  100.3710  107.7665  126.3232 N   0  0  0  0  0
   99.4652  107.0894  125.6317 N   0  0  0  0  0
  101.1605  110.1045  126.4853 N   0  0  0  0  0
   97.3747  106.1778  123.8173 N   0  0  0  0  0
   98.8024  107.9612  124.8426 C   0  0  0  0  0
   99.2960  109.2401  125.0511 C   0  0  0  0  0
  100.2847  109.0752  125.9979 C   0  0  0  0  0
  102.5025  110.1393  126.3849 C   0  0  0  0  0
  103.0099  111.2908  126.9561 C   0  0  0  0  0
  101.9133  111.9962  127.4352 C   0  0  0  0  0
  100.8031  111.2366  127.1192 C   0  0  0  0  0
   99.4042  111.6026  127.4818 C   0  0  0  0  0
  103.3322  109.1044  125.7039 C   0  0  0  0  0
   98.9177  110.5003  124.3493 C   0  0  0  0  0
   97.7402  107.5568  123.9100 C   0  0  0  0  0
   96.3694  105.6871  122.8821 C   0  0  0  0  0
   95.9470  104.2646  123.2574 C   0  0  0  0  0
   97.0842  103.2685  123.0312 C   0  0  0  0  0
   97.5481  103.3190  121.5793 C   0  0  0  0  0
   98.0248  104.7252  121.2315 C   0  0  0  0  0
   96.8947  105.7323  121.4422 C   0  0  0  0  0
  101.2123  107.1741  127.3283 C   0  0  0  0  0
  101.4251  107.8516  128.5393 C   0  0  0  0  0
  102.2224  107.2920  129.5391 C   0  0  0  0  0
  102.8156  106.0450  129.3403 C   0  0  0  0  0
  102.6153  105.3602  128.1404 C   0  0  0  0  0
  101.8161  105.9120  127.1341 C   0  0  0  0  0
   97.1545  108.4170  123.1981 O   0  0  0  0  0
  101.6564  105.0186  125.6299 Cl  0  0  0  0  0
  103.8170  105.3427  130.5917 Cl  0  0  0  0  0
  1  2  1  0  0  0
  1 22  1  0  0  0
  3  8  1  0  0  0
  5  6  1  0  0  0
  5 15  1  0  0  0
  7  3  1  0  0  0
  7  1  1  0  0  0
  9 10  1  0  0  0
 11  3  1  0  0  0
 12 11  1  0  0  0
 13  8  1  0  0  0
 14  6  1  0  0  0
 15  4  1  0  0  0
 16  4  1  0  0  0
 16 17  1  0  0  0
 17 18  1  0  0  0
 18 19  1  0  0  0
 19 20  1  0  0  0
 20 21  1  0  0  0
 21 16  1  0  0  0
 23 24  1  0  0  0
 25 26  1  0  0  0
 25 30  1  0  0  0
 27 29  1  0  0  0
 27 22  1  0  0  0
  5  2  2  0  0  0
  6  7  2  0  0  0
  8  9  2  0  0  0
 10 11  2  0  0  0
 15 28  2  0  0  0
 22 23  2  0  0  0
 24 25  2  0  0  0
 26 27  2  0  0  0
M  END
> <rmsd>
0.622941554

$$$$
CHEMBL72163_6PT0


 31 34  0  0  0  0  0  0  0  0999 V2000
   96.7067  113.5133  121.2369 C   0  0  0  0  0
   98.1877  112.3005  122.8029 C   0  0  0  0  0
   99.3984  112.2837  123.5285 C   0  0  0  0  0
   99.7351  111.1919  124.3468 C   0  0  0  0  0
   98.8321  110.1294  124.4264 C   0  0  0  0  0
   97.6590  110.1396  123.7132 C   0  0  0  0  0
   97.3001  111.2061  122.8920 C   0  0  0  0  0
   97.0134  108.9498  123.9701 C   0  0  0  0  0
   95.7197  108.4836  123.3818 C   0  0  0  0  0
   95.9413  107.9158  122.0153 C   0  0  0  0  0
   96.3104  105.9736  120.4712 C   0  0  0  0  0
   97.0787  104.6553  120.5665 C   0  0  0  0  0
   96.5763  104.2907  122.7301 C   0  0  0  0  0
   95.7479  105.5650  122.8914 C   0  0  0  0  0
   97.8464  108.2501  124.8374 C   0  0  0  0  0
   97.5408  106.9045  125.4081 C   0  0  0  0  0
  100.0522  108.5839  125.9782 C   0  0  0  0  0
  100.8661  109.5866  126.6994 C   0  0  0  0  0
  102.2676  109.6268  126.5288 C   0  0  0  0  0
  103.0282  110.5818  127.2084 C   0  0  0  0  0
  102.4143  111.4943  128.0655 C   0  0  0  0  0
  101.0325  111.4573  128.2483 C   0  0  0  0  0
  100.2543  110.5129  127.5739 C   0  0  0  0  0
   97.8983  113.4099  122.0041 O   0  0  0  0  0
   96.0387  108.7049  121.0370 O   0  0  0  0  0
   96.4094  103.7740  121.4335 O   0  0  0  0  0
  100.3253  107.3614  126.1204 O   0  0  0  0  0
   96.0797  106.5010  121.8165 N   0  0  0  0  0
   98.9574  108.9788  125.1272 N   0  0  0  0  0
  103.1065  108.5345  125.4352 Cl  0  0  0  0  0
   98.5242  110.4986  127.8918 Cl  0  0  0  0  0
  1 24  1  0  0  0
  2 24  1  0  0  0
  3  4  1  0  0  0
  5  6  1  0  0  0
  6  8  1  0  0  0
  7  2  1  0  0  0
  9  8  1  0  0  0
  9 10  1  0  0  0
 10 28  1  0  0  0
 11 28  1  0  0  0
 11 12  1  0  0  0
 12 26  1  0  0  0
 13 26  1  0  0  0
 13 14  1  0  0  0
 14 28  1  0  0  0
 15 29  1  0  0  0
 16 15  1  0  0  0
 17 18  1  0  0  0
 19 30  1  0  0  0
 19 20  1  0  0  0
 21 22  1  0  0  0
 23 31  1  0  0  0
 23 18  1  0  0  0
 29 17  1  0  0  0
 29  5  1  0  0  0
  2  3  2  0  0  0
  4  5  2  0  0  0
  6  7  2  0  0  0
  8 15  2  0  0  0
 10 25  2  0  0  0
 17 27  2  0  0  0
 18 19  2  0  0  0
 20 21  2  0  0  0
 22 23  2  0  0  0
M  END
> <rmsd>
0.695225298

$$$$
CHEMBL2206837_6PT0


 26 29  0  0  0  0  0  0  0  0999 V2000
   94.8983  110.0905  122.8253 C   0  0  0  0  0
   96.1241  110.7385  122.2110 C   0  0  0  0  0
   96.9936  109.6900  121.5332 C   0  0  0  0  0
   98.6278  109.1949  123.3948 C   0  0  0  0  0
   99.1471  110.5887  123.5342 C   0  0  0  0  0
   99.0084  108.0966  124.1743 C   0  0  0  0  0
  100.0041  108.0489  125.2681 C   0  0  0  0  0
  101.2088  108.9122  125.2656 C   0  0  0  0  0
  101.8919  109.1008  124.0569 C   0  0  0  0  0
  103.0480  109.8772  123.9993 C   0  0  0  0  0
  103.5537  110.4804  125.1503 C   0  0  0  0  0
  102.8930  110.3057  126.3785 C   0  0  0  0  0
  103.3846  110.9099  127.5439 C   0  0  0  0  0
  102.7233  110.7455  128.7621 C   0  0  0  0  0
  101.5612  109.9766  128.8279 C   0  0  0  0  0
  101.0593  109.3677  127.6762 C   0  0  0  0  0
  101.7142  109.5150  126.4422 C   0  0  0  0  0
   98.2109  107.0511  123.7412 C   0  0  0  0  0
   98.1471  105.7209  124.1558 C   0  0  0  0  0
   97.2264  104.8781  123.5085 C   0  0  0  0  0
   96.4026  105.3740  122.4757 C   0  0  0  0  0
   96.4886  106.7191  122.0759 C   0  0  0  0  0
   97.4117  107.5334  122.7340 C   0  0  0  0  0
   97.6517  108.8400  122.5221 N   0  0  0  0  0
   99.8384  107.2228  126.2059 O   0  0  0  0  0
  105.3142  111.6420  124.9589 I   0  0  0  0  0
  1  2  1  0  0  0
  2  3  1  0  0  0
  3 24  1  0  0  0
  5  4  1  0  0  0
  6  7  1  0  0  0
  6 18  1  0  0  0
  7  8  1  0  0  0
  9 10  1  0  0  0
 11 26  1  0  0  0
 11 12  1  0  0  0
 13 14  1  0  0  0
 15 16  1  0  0  0
 17  8  1  0  0  0
 17 12  1  0  0  0
 19 20  1  0  0  0
 21 22  1  0  0  0
 23 24  1  0  0  0
 23 18  1  0  0  0
 24  4  1  0  0  0
  4  6  2  0  0  0
  7 25  2  0  0  0
  8  9  2  0  0  0
 10 11  2  0  0  0
 12 13  2  0  0  0
 14 15  2  0  0  0
 16 17  2  0  0  0
 18 19  2  0  0  0
 20 21  2  0  0  0
 22 23  2  0  0  0
M  END
> <rmsd>
0.516856015

$$$$
CHEMBL467029_8GUQ


 26 27  0  0  0  0  0  0  0  0999 V2000
  102.3986  108.8587  125.3428 C   0  0  0  0  0
  102.1102  111.3029  127.8978 C   0  0  0  0  0
  102.6647  112.4758  128.6625 C   0  0  0  0  0
  102.4305  113.7477  127.8712 C   0  0  0  0  0
  104.1566  112.3097  128.8917 C   0  0  0  0  0
  101.9888  112.6061  130.0166 C   0  0  0  0  0
  100.7746  110.9094  127.8847 C   0  0  0  0  0
  100.7723  109.8739  126.9722 C   0  0  0  0  0
   99.5039  107.8729  126.0188 C   0  0  0  0  0
   98.3348  107.4807  125.1491 C   0  0  0  0  0
   98.2076  105.9675  125.0475 C   0  0  0  0  0
   97.0436  108.0118  125.7493 C   0  0  0  0  0
   98.8408  109.8930  123.5808 C   0  0  0  0  0
  100.1184  110.4061  123.3273 C   0  0  0  0  0
  100.3593  111.7781  123.4400 C   0  0  0  0  0
   99.3231  112.6409  123.8080 C   0  0  0  0  0
   98.0451  112.1325  124.0583 C   0  0  0  0  0
   97.8047  110.7599  123.9461 C   0  0  0  0  0
  102.0052  109.7128  126.4506 N   0  0  0  0  0
  102.8242  110.5881  127.0020 N   0  0  0  0  0
   99.5825  109.2079  126.5332 N   0  0  0  0  0
  100.4139  107.0397  126.2832 O   0  0  0  0  0
   97.3276  107.9009  122.6728 O   0  0  0  0  0
   99.7298  107.4937  122.8456 O   0  0  0  0  0
   98.5533  108.1602  123.5042 S   0  0  0  0  0
   99.6272  114.3575  123.9587 Cl  0  0  0  0  0
  1 19  1  0  0  0
  2  7  1  0  0  0
  3  2  1  0  0  0
  3  4  1  0  0  0
  3  5  1  0  0  0
  3  6  1  0  0  0
  8 21  1  0  0  0
  8 19  1  0  0  0
 10  9  1  0  0  0
 10 11  1  0  0  0
 10 12  1  0  0  0
 10 25  1  0  0  0
 14 15  1  0  0  0
 16 26  1  0  0  0
 16 17  1  0  0  0
 18 13  1  0  0  0
 19 20  1  0  0  0
 21  9  1  0  0  0
 25 13  1  0  0  0
  2 20  2  0  0  0
  7  8  2  0  0  0
  9 22  2  0  0  0
 13 14  2  0  0  0
 15 16  2  0  0  0
 17 18  2  0  0  0
 25 23  2  0  0  0
 25 24  2  0  0  0
M  END
> <rmsd>
0.4824045

$$$$
CHEMBL1215991_5ZTY


 30 33  0  0  0  0  0  0  0  0999 V2000
  106.9917  114.5983  125.0419 C   0  0  0  0  0
  105.8604  113.6753  125.4419 C   0  0  0  0  0
  104.8926  113.5297  124.2826 C   0  0  0  0  0
  103.7547  112.5989  124.6587 C   0  0  0  0  0
  104.2273  111.1522  124.6468 C   0  0  0  0  0
  102.5456  109.5182  124.1122 C   0  0  0  0  0
  101.5056  108.6378  124.4212 C   0  0  0  0  0
  100.8692  107.8792  123.3255 C   0  0  0  0  0
   98.5201  108.6987  123.8990 C   0  0  0  0  0
   98.4365  110.1492  123.3642 C   0  0  0  0  0
   99.3095  110.4401  122.1430 C   0  0  0  0  0
   98.8392  111.1114  124.4695 C   0  0  0  0  0
   96.9300  110.3085  123.0516 C   0  0  0  0  0
   96.5858  109.4684  121.8117 C   0  0  0  0  0
   96.6942  108.0257  122.3105 C   0  0  0  0  0
   97.0732  108.2149  123.7748 C   0  0  0  0  0
   96.7418  107.0259  124.6541 C   0  0  0  0  0
   96.3072  109.4525  124.1270 C   0  0  0  0  0
  101.1100  108.4940  125.7623 C   0  0  0  0  0
  101.7381  109.2616  126.7547 C   0  0  0  0  0
  101.3595  109.1473  128.1008 C   0  0  0  0  0
  101.9976  109.9082  129.0817 C   0  0  0  0  0
  103.0224  110.7870  128.7285 C   0  0  0  0  0
  103.4102  110.9090  127.3928 C   0  0  0  0  0
  102.7753  110.1550  126.3897 C   0  0  0  0  0
  103.1521  110.2626  125.0751 N   0  0  0  0  0
   99.4467  107.8382  123.1613 N   0  0  0  0  0
  101.5955  107.2838  122.4867 O   0  0  0  0  0
  100.2127  107.6634  126.0766 O   0  0  0  0  0
  101.4709  109.7434  130.9050 Br  0  0  0  0  0
  1  2  1  0  0  0
  2  3  1  0  0  0
  3  4  1  0  0  0
  4  5  1  0  0  0
  5 26  1  0  0  0
  7  8  1  0  0  0
  7 19  1  0  0  0
  8 27  1  0  0  0
  9 27  1  0  0  0
  9 10  1  0  0  0
 10 11  1  0  0  0
 10 12  1  0  0  0
 13 10  1  0  0  0
 13 14  1  0  0  0
 14 15  1  0  0  0
 15 16  1  0  0  0
 16 17  1  0  0  0
 16 18  1  0  0  0
 16  9  1  0  0  0
 18 13  1  0  0  0
 19 20  1  0  0  0
 21 22  1  0  0  0
 22 30  1  0  0  0
 23 24  1  0  0  0
 25 26  1  0  0  0
 25 20  1  0  0  0
 26  6  1  0  0  0
  6  7  2  0  0  0
  8 28  2  0  0  0
 19 29  2  0  0  0
 20 21  2  0  0  0
 22 23  2  0  0  0
 24 25  2  0  0  0
M  END
> <rmsd>
0.759345353

$$$$
CHEMBL498470_8GUT


 27 30  0  0  0  0  0  0  0  0999 V2000
   99.3071  112.0603  121.6297 F   0  0  0  0  0
   99.2612  111.2054  122.6791 C   0  0  0  0  0
   98.8953  111.6695  123.9413 C   0  0  0  0  0
   98.8503  110.7868  125.0211 C   0  0  0  0  0
   99.1705  109.4293  124.8607 C   0  0  0  0  0
   99.1148  108.5633  126.0619 C   0  0  0  0  0
   98.8388  107.8978  128.0223 C   0  0  0  0  0
   98.5300  107.8344  129.4804 C   0  0  0  0  0
   99.5130  108.6872  130.2652 C   0  0  0  0  0
  100.8846  108.0315  130.2898 C   0  0  0  0  0
  101.9735  109.0893  130.1962 C   0  0  0  0  0
  102.0731  109.6365  128.8091 C   0  0  0  0  0
  101.7537  110.9784  128.5703 C   0  0  0  0  0
  101.8499  111.5083  127.2795 C   0  0  0  0  0
  102.2697  110.6972  126.2222 C   0  0  0  0  0
  102.7809  110.4394  123.9191 C   0  0  0  0  0
  103.1058  109.0940  124.1163 C   0  0  0  0  0
  103.0095  108.5449  125.3966 C   0  0  0  0  0
  102.5922  109.3437  126.4611 C   0  0  0  0  0
  102.4955  108.8191  127.7521 C   0  0  0  0  0
   99.5367  108.9646  123.5718 C   0  0  0  0  0
   99.5772  109.8591  122.4969 C   0  0  0  0  0
   99.5189  107.2775  126.1043 N   0  0  0  0  0
  102.3721  111.2070  124.9657 N   0  0  0  0  0
   98.6769  108.9981  127.2644 N   0  0  0  0  0
   99.3322  106.9024  127.3322 O   0  0  0  0  0
   99.9450  107.2908  123.2223 Cl  0  0  0  0  0
  2  1  1  0  0  0
  3  4  1  0  0  0
  5  6  1  0  0  0
  5 21  1  0  0  0
  6 25  1  0  0  0
  7 26  1  0  0  0
  8  7  1  0  0  0
  8  9  1  0  0  0
  9 10  1  0  0  0
 10 11  1  0  0  0
 11 12  1  0  0  0
 13 14  1  0  0  0
 15 24  1  0  0  0
 16 17  1  0  0  0
 18 19  1  0  0  0
 19 15  1  0  0  0
 20 12  1  0  0  0
 21 27  1  0  0  0
 22  2  1  0  0  0
 23 26  1  0  0  0
  2  3  2  0  0  0
  4  5  2  0  0  0
  6 23  2  0  0  0
  7 25  2  0  0  0
 12 13  2  0  0  0
 14 15  2  0  0  0
 16 24  2  0  0  0
 17 18  2  0  0  0
 19 20  2  0  0  0
 21 22  2  0  0  0
M  END
> <rmsd>
0.560045719

$$$$
CHEMBL524822_6PT0


 29 32  0  0  0  0  0  0  0  0999 V2000
   95.7205  105.8624  122.9961 C   0  0  0  0  0
   96.5882  105.2536  123.9277 C   0  0  0  0  0
   97.6857  105.9600  124.4503 C   0  0  0  0  0
   97.8795  107.2715  124.0162 C   0  0  0  0  0
   97.0373  107.8630  123.1069 C   0  0  0  0  0
   95.9395  107.1854  122.5739 C   0  0  0  0  0
   98.5339  109.3429  123.6025 C   0  0  0  0  0
   98.8540  108.1994  124.3440 C   0  0  0  0  0
   99.9610  108.0106  125.3089 C   0  0  0  0  0
  101.1940  108.8307  125.2543 C   0  0  0  0  0
  101.9451  108.8855  124.0593 C   0  0  0  0  0
  103.1169  109.6561  124.0076 C   0  0  0  0  0
  103.5562  110.3634  125.1244 C   0  0  0  0  0
  102.8325  110.3109  126.3134 C   0  0  0  0  0
  101.6460  109.5413  126.3917 C   0  0  0  0  0
  100.9310  109.5212  127.6011 C   0  0  0  0  0
  101.3873  110.2394  128.7094 C   0  0  0  0  0
  102.5618  110.9900  128.6225 C   0  0  0  0  0
  103.2825  111.0266  127.4266 C   0  0  0  0  0
  102.2144  108.1762  121.6988 C   0  0  0  0  0
   99.2455  110.6550  123.6616 C   0  0  0  0  0
   96.7621  110.0861  121.9758 C   0  0  0  0  0
   95.5218  110.6554  122.6483 C   0  0  0  0  0
   95.9109  111.5932  123.7745 C   0  0  0  0  0
   94.6620  112.1176  124.4495 C   0  0  0  0  0
   95.0526  113.0451  125.5803 C   0  0  0  0  0
   97.4282  109.1248  122.8499 N   0  0  0  0  0
   99.8593  107.1212  126.1963 O   0  0  0  0  0
  101.5197  108.1608  122.9384 O   0  0  0  0  0
  2  3  1  0  0  0
  4  5  1  0  0  0
  5 27  1  0  0  0
  6  1  1  0  0  0
  8  9  1  0  0  0
  8  4  1  0  0  0
  9 10  1  0  0  0
 11 12  1  0  0  0
 11 29  1  0  0  0
 13 14  1  0  0  0
 15 16  1  0  0  0
 15 10  1  0  0  0
 17 18  1  0  0  0
 19 14  1  0  0  0
 20 29  1  0  0  0
 21  7  1  0  0  0
 22 27  1  0  0  0
 22 23  1  0  0  0
 23 24  1  0  0  0
 24 25  1  0  0  0
 25 26  1  0  0  0
 27  7  1  0  0  0
  1  2  2  0  0  0
  3  4  2  0  0  0
  5  6  2  0  0  0
  7  8  2  0  0  0
  9 28  2  0  0  0
 10 11  2  0  0  0
 12 13  2  0  0  0
 14 15  2  0  0  0
 16 17  2  0  0  0
 18 19  2  0  0  0
M  END
> <rmsd>
0.387610346

$$$$
CHEMBL232730_5ZTY


 22 23  0  0  0  0  0  0  0  0999 V2000
  103.9086  108.5679  125.0876 C   0  0  0  0  0
  101.6529  109.6266  125.8386 C   0  0  0  0  0
  100.2540  109.8976  123.7901 C   0  0  0  0  0
   98.8226  110.4599  123.7594 C   0  0  0  0  0
   98.4229  110.6688  122.3134 C   0  0  0  0  0
   98.8074  111.8037  124.4590 C   0  0  0  0  0
   97.7839  109.5485  124.4349 C   0  0  0  0  0
   99.6717  108.1003  125.4079 C   0  0  0  0  0
   99.1455  106.3383  127.0689 C   0  0  0  0  0
   98.4820  105.4187  126.2405 C   0  0  0  0  0
   97.8292  104.3098  126.7821 C   0  0  0  0  0
   97.8440  104.0972  128.1605 C   0  0  0  0  0
   98.5176  104.9900  128.9954 C   0  0  0  0  0
   99.1788  106.1073  128.4587 C   0  0  0  0  0
   99.9076  107.0582  129.3643 C   0  0  0  0  0
  101.0324  106.3602  130.1066 C   0  0  0  0  0
   98.9588  107.7191  130.3473 C   0  0  0  0  0
  103.1479  110.2149  125.0437 S   0  0  0  0  0
  101.5111  109.8223  127.4600 S   0  0  0  0  0
   98.2440  107.7860  124.3509 S   0  0  0  0  0
  100.5339  109.1967  125.0423 N   0  0  0  0  0
   99.8704  107.4567  126.5252 N   0  0  0  0  0
  1 18  1  0  0  0
  2 18  1  0  0  0
  2 21  1  0  0  0
  3 21  1  0  0  0
  3  4  1  0  0  0
  4  5  1  0  0  0
  4  6  1  0  0  0
  4  7  1  0  0  0
  7 20  1  0  0  0
  8 20  1  0  0  0
  8 21  1  0  0  0
  9 22  1  0  0  0
 10 11  1  0  0  0
 12 13  1  0  0  0
 14  9  1  0  0  0
 15 14  1  0  0  0
 15 16  1  0  0  0
 15 17  1  0  0  0
  2 19  2  0  0  0
  8 22  2  0  0  0
  9 10  2  0  0  0
 11 12  2  0  0  0
 13 14  2  0  0  0
M  END
> <rmsd>
0.799571335

$$$$
CHEMBL3590632_8GUR


 23 24  0  0  0  0  0  0  0  0999 V2000
   99.5272  110.2469  123.4941 C   0  0  0  0  0
   98.9449  110.8466  124.7594 C   0  0  0  0  0
   98.5185  109.7487  125.7203 C   0  0  0  0  0
   99.6711  109.3257  126.6257 C   0  0  0  0  0
  100.2440  107.2032  125.4666 C   0  0  0  0  0
  101.0018  106.4987  124.4180 C   0  0  0  0  0
  100.5654  105.3037  123.9937 C   0  0  0  0  0
  100.7457  103.2416  122.5336 C   0  0  0  0  0
  101.6796  102.7094  121.4677 C   0  0  0  0  0
   99.3546  103.3790  121.9423 C   0  0  0  0  0
  100.7119  102.2598  123.6904 C   0  0  0  0  0
  102.2128  107.1600  123.8851 C   0  0  0  0  0
  102.7054  108.3984  124.5187 C   0  0  0  0  0
  103.9366  108.9245  124.1062 C   0  0  0  0  0
  104.4606  110.0635  124.7069 C   0  0  0  0  0
  103.7645  110.6822  125.7393 C   0  0  0  0  0
  102.5320  110.1855  126.1699 C   0  0  0  0  0
  101.9118  110.8881  127.3292 C   0  0  0  0  0
  101.9615  109.0391  125.5423 C   0  0  0  0  0
  100.6516  108.5161  125.8999 N   0  0  0  0  0
  101.2325  104.5389  122.9861 N   0  0  0  0  0
   99.2207  106.6631  125.9734 O   0  0  0  0  0
  102.8386  106.6719  122.9039 O   0  0  0  0  0
  1  2  1  0  0  0
  2  3  1  0  0  0
  3  4  1  0  0  0
  4 20  1  0  0  0
  5  6  1  0  0  0
  6 12  1  0  0  0
  7 21  1  0  0  0
  8 21  1  0  0  0
  8  9  1  0  0  0
  8 10  1  0  0  0
  8 11  1  0  0  0
 12 13  1  0  0  0
 14 15  1  0  0  0
 16 17  1  0  0  0
 18 17  1  0  0  0
 19 20  1  0  0  0
 19 13  1  0  0  0
 20  5  1  0  0  0
  5 22  2  0  0  0
  6  7  2  0  0  0
 12 23  2  0  0  0
 13 14  2  0  0  0
 15 16  2  0  0  0
 17 19  2  0  0  0
M  END
> <rmsd>
0.5415712

$$$$
CHEMBL408430_6PT0


 29 32  0  0  0  0  0  0  0  0999 V2000
   94.4925  108.4006  122.6921 C   0  0  0  0  0
   95.5311  106.2506  122.5082 C   0  0  0  0  0
   94.9065  105.8463  121.1718 C   0  0  0  0  0
   95.8058  106.2975  120.0355 C   0  0  0  0  0
   95.9870  107.8067  120.1077 C   0  0  0  0  0
   96.5452  108.2309  121.4736 C   0  0  0  0  0
   98.0226  107.8665  121.6001 C   0  0  0  0  0
   99.0624  107.7718  123.8652 C   0  0  0  0  0
   99.5530  108.6695  124.8134 C   0  0  0  0  0
  100.1265  108.2986  126.1223 C   0  0  0  0  0
  100.8679  109.2645  126.9480 C   0  0  0  0  0
  100.3422  109.6159  128.1973 C   0  0  0  0  0
  101.0034  110.5364  129.0224 C   0  0  0  0  0
  102.2086  111.1010  128.5878 C   0  0  0  0  0
  102.7498  110.7444  127.3513 C   0  0  0  0  0
  102.0914  109.8270  126.5276 C   0  0  0  0  0
   99.3654  109.9366  124.2844 C   0  0  0  0  0
   99.6426  111.2037  124.7988 C   0  0  0  0  0
   99.3232  112.3172  124.0025 C   0  0  0  0  0
   98.7379  112.1445  122.7301 C   0  0  0  0  0
   98.4612  110.8562  122.2401 C   0  0  0  0  0
   98.7885  109.7697  123.0531 C   0  0  0  0  0
   95.7675  107.6998  122.6077 N   0  0  0  0  0
   98.5996  108.4622  122.7980 N   0  0  0  0  0
  100.4543  110.8988  130.2966 N   0  0  0  0  0
   99.9561  107.1292  126.5600 O   0  0  0  0  0
  101.1073  111.8033  131.1023 O   0  0  0  0  0
   99.3793  110.3996  130.6893 O   0  0  0  0  0
  103.0408  109.2970  124.7101 I   0  0  0  0  0
  1 23  1  0  0  0
  2 23  1  0  0  0
  2  3  1  0  0  0
  3  4  1  0  0  0
  4  5  1  0  0  0
  5  6  1  0  0  0
  6  7  1  0  0  0
  6 23  1  0  0  0
  7 24  1  0  0  0
  9 10  1  0  0  0
  9 17  1  0  0  0
 10 11  1  0  0  0
 12 13  1  0  0  0
 13 25  1  0  0  0
 14 15  1  0  0  0
 16 29  1  0  0  0
 16 11  1  0  0  0
 18 19  1  0  0  0
 20 21  1  0  0  0
 22 24  1  0  0  0
 22 17  1  0  0  0
 24  8  1  0  0  0
 25 27  1  0  0  0
  8  9  2  0  0  0
 10 26  2  0  0  0
 11 12  2  0  0  0
 13 14  2  0  0  0
 15 16  2  0  0  0
 17 18  2  0  0  0
 19 20  2  0  0  0
 21 22  2  0  0  0
 25 28  2  0  0  0
M  CHG  2  25   1  27  -1
M  END
> <rmsd>
0.642245352

$$$$
CHEMBL408964_6PT0


 27 30  0  0  0  0  0  0  0  0999 V2000
   99.9072  106.1293  126.2114 C   0  0  0  0  0
   99.3388  107.8918  124.5714 C   0  0  0  0  0
   99.0115  106.9429  123.5786 C   0  0  0  0  0
   98.5328  107.3501  122.3189 C   0  0  0  0  0
   98.3617  108.7116  122.0301 C   0  0  0  0  0
   98.6977  109.6353  123.0202 C   0  0  0  0  0
   99.1968  109.2506  124.2431 C   0  0  0  0  0
   99.4082  110.4288  124.9591 C   0  0  0  0  0
   99.9953  110.6287  126.2986 C   0  0  0  0  0
  101.0647  109.7172  126.8530 C   0  0  0  0  0
  102.3752  109.6755  126.0450 C   0  0  0  0  0
  103.0352  108.3066  126.0277 C   0  0  0  0  0
  102.5003  110.5187  124.7779 C   0  0  0  0  0
  102.3299  110.4198  127.3787 C   0  0  0  0  0
  102.4118  111.9441  127.3334 C   0  0  0  0  0
  102.9448  109.7333  128.5871 C   0  0  0  0  0
   99.0011  111.4750  124.1336 C   0  0  0  0  0
   98.0536  111.7489  121.8388 C   0  0  0  0  0
   96.6165  112.1817  122.1088 C   0  0  0  0  0
   96.1972  113.2399  121.0797 C   0  0  0  0  0
   95.5734  112.6245  119.8173 C   0  0  0  0  0
   95.1338  110.6237  120.7203 C   0  0  0  0  0
   95.6723  110.9681  122.1180 C   0  0  0  0  0
   99.7566  107.4934  125.8432 O   0  0  0  0  0
   99.5676  111.5769  127.0105 O   0  0  0  0  0
   95.8809  111.2577  119.7136 O   0  0  0  0  0
   98.5774  110.9718  122.9543 N   0  0  0  0  0
  1 24  1  0  0  0
  2 24  1  0  0  0
  3  4  1  0  0  0
  5  6  1  0  0  0
  7  8  1  0  0  0
  7  2  1  0  0  0
  8  9  1  0  0  0
 10  9  1  0  0  0
 10 11  1  0  0  0
 11 12  1  0  0  0
 11 13  1  0  0  0
 11 14  1  0  0  0
 14 15  1  0  0  0
 14 16  1  0  0  0
 14 10  1  0  0  0
 17 27  1  0  0  0
 18 27  1  0  0  0
 18 19  1  0  0  0
 19 20  1  0  0  0
 20 21  1  0  0  0
 21 26  1  0  0  0
 22 26  1  0  0  0
 22 23  1  0  0  0
 23 19  1  0  0  0
 27  6  1  0  0  0
  2  3  2  0  0  0
  4  5  2  0  0  0
  6  7  2  0  0  0
  8 17  2  0  0  0
  9 25  2  0  0  0
M  END
> <rmsd>
0.483724415

$$$$
CHEMBL410842_6PT0


 33 37  0  0  0  0  0  0  0  0999 V2000
  103.5306  109.9502  124.3542 C   0  0  0  0  0
  103.4534  109.4314  125.7815 C   0  0  0  0  0
  104.7768  109.1106  126.4736 C   0  0  0  0  0
  102.2325  108.5288  126.0433 C   0  0  0  0  0
  102.4379  107.4073  127.0364 C   0  0  0  0  0
  101.5062  107.2089  128.1575 C   0  0  0  0  0
  101.8941  107.0076  129.4798 C   0  0  0  0  0
  100.7913  106.8623  131.7133 C   0  0  0  0  0
  100.6270  108.2281  132.3748 C   0  0  0  0  0
  101.8853  109.0905  132.1644 C   0  0  0  0  0
  102.9558  108.8659  133.2458 C   0  0  0  0  0
  101.5255  108.0372  134.7601 C   0  0  0  0  0
  100.2786  108.0490  133.8605 C   0  0  0  0  0
   99.7271  107.1835  129.4666 C   0  0  0  0  0
   98.3858  107.2495  129.8457 C   0  0  0  0  0
   97.4301  107.4341  128.8351 C   0  0  0  0  0
   97.8248  107.5294  127.4852 C   0  0  0  0  0
   99.1864  107.4535  127.1239 C   0  0  0  0  0
   98.6926  107.6634  124.7025 C   0  0  0  0  0
   98.6651  109.0990  124.3141 C   0  0  0  0  0
   97.7680  109.9758  124.9321 C   0  0  0  0  0
   97.7623  111.3299  124.5830 C   0  0  0  0  0
   98.6580  111.8093  123.6223 C   0  0  0  0  0
   99.5616  110.9333  123.0087 C   0  0  0  0  0
   99.5665  109.5792  123.3563 C   0  0  0  0  0
  100.1209  107.3101  128.1576 C   0  0  0  0  0
  102.3076  109.9437  126.6526 C   0  0  0  0  0
  102.5910  110.1072  128.1444 C   0  0  0  0  0
  101.3285  110.9224  126.0311 C   0  0  0  0  0
  103.4055  106.6119  126.8946 O   0  0  0  0  0
  102.6779  107.7228  134.0168 O   0  0  0  0  0
   99.5940  107.4732  125.7860 O   0  0  0  0  0
  100.7927  106.9924  130.2640 N   0  0  0  0  0
  1  2  1  0  0  0
  2  3  1  0  0  0
  2  4  1  0  0  0
  4  5  1  0  0  0
  4 27  1  0  0  0
  5  6  1  0  0  0
  7 33  1  0  0  0
  8 33  1  0  0  0
  8  9  1  0  0  0
  9 10  1  0  0  0
 10 11  1  0  0  0
 11 31  1  0  0  0
 12 31  1  0  0  0
 12 13  1  0  0  0
 13  9  1  0  0  0
 15 16  1  0  0  0
 17 18  1  0  0  0
 18 32  1  0  0  0
 19 32  1  0  0  0
 19 20  1  0  0  0
 21 22  1  0  0  0
 23 24  1  0  0  0
 25 20  1  0  0  0
 26  6  1  0  0  0
 26 14  1  0  0  0
 27 28  1  0  0  0
 27 29  1  0  0  0
 27  2  1  0  0  0
 33 14  1  0  0  0
  5 30  2  0  0  0
  6  7  2  0  0  0
 14 15  2  0  0  0
 16 17  2  0  0  0
 18 26  2  0  0  0
 20 21  2  0  0  0
 22 23  2  0  0  0
 24 25  2  0  0  0
M  END
> <rmsd>
0.645269156

$$$$
CHEMBL271814_6PT0


 27 30  0  0  0  0  0  0  0  0999 V2000
   99.7323  112.4997  120.9249 C   0  0  0  0  0
   99.9736  111.2727  121.7886 C   0  0  0  0  0
   99.8537  109.9120  121.1054 C   0  0  0  0  0
  101.0597  111.4824  122.8601 C   0  0  0  0  0
  101.9161  110.2745  123.1607 C   0  0  0  0  0
  102.0864  109.7495  124.5293 C   0  0  0  0  0
  102.1823  108.3911  124.8246 C   0  0  0  0  0
  102.3140  106.9506  126.8566 C   0  0  0  0  0
  100.9346  106.5388  127.3521 C   0  0  0  0  0
   99.0016  107.2703  126.2453 C   0  0  0  0  0
   97.9218  106.8982  125.2260 C   0  0  0  0  0
   98.3618  104.6863  125.4359 C   0  0  0  0  0
   99.4654  104.9425  126.4657 C   0  0  0  0  0
  102.1932  109.4526  126.7189 C   0  0  0  0  0
  102.2321  109.7609  128.0796 C   0  0  0  0  0
  102.2007  111.1150  128.4467 C   0  0  0  0  0
  102.1491  112.1205  127.4619 C   0  0  0  0  0
  102.1094  111.7863  126.0978 C   0  0  0  0  0
  102.1070  110.4250  125.7497 C   0  0  0  0  0
   99.5775  111.3565  123.2615 C   0  0  0  0  0
   98.9667  112.6596  123.7497 C   0  0  0  0  0
   99.0836  110.0724  123.9230 C   0  0  0  0  0
  102.5234  109.7040  122.2150 O   0  0  0  0  0
   97.3518  105.6578  125.5689 O   0  0  0  0  0
  102.2483  108.2301  126.1633 N   0  0  0  0  0
  100.0591  106.2583  126.2264 N   0  0  0  0  0
  102.1495  112.8208  125.1233 N   0  0  0  0  0
  1  2  1  0  0  0
  2  3  1  0  0  0
  2  4  1  0  0  0
  4  5  1  0  0  0
  4 20  1  0  0  0
  5  6  1  0  0  0
  7 25  1  0  0  0
  8 25  1  0  0  0
  8  9  1  0  0  0
  9 26  1  0  0  0
 10 26  1  0  0  0
 10 11  1  0  0  0
 11 24  1  0  0  0
 12 24  1  0  0  0
 12 13  1  0  0  0
 13 26  1  0  0  0
 15 16  1  0  0  0
 17 18  1  0  0  0
 18 27  1  0  0  0
 19  6  1  0  0  0
 19 14  1  0  0  0
 20 21  1  0  0  0
 20 22  1  0  0  0
 20  2  1  0  0  0
 25 14  1  0  0  0
  5 23  2  0  0  0
  6  7  2  0  0  0
 14 15  2  0  0  0
 16 17  2  0  0  0
 18 19  2  0  0  0
M  END
> <rmsd>
0.611793876

$$$$
CHEMBL3639461_8GUR


 32 34  0  0  0  0  0  0  0  0999 V2000
  103.3111  109.5629  125.0660 C   0  0  0  0  0
  103.0648  110.3946  126.3106 C   0  0  0  0  0
  102.1790  109.6379  127.2828 C   0  0  0  0  0
  100.7293  109.6845  126.8258 C   0  0  0  0  0
   99.3104  107.7111  127.3581 C   0  0  0  0  0
   98.9138  105.9515  125.6934 C   0  0  0  0  0
   98.8491  105.6612  124.2432 C   0  0  0  0  0
   98.7949  104.3199  123.8333 C   0  0  0  0  0
   98.7298  103.9756  122.4782 C   0  0  0  0  0
   98.6758  104.9905  121.5183 C   0  0  0  0  0
   98.7153  106.3290  121.9079 C   0  0  0  0  0
   98.8019  106.6810  123.2652 C   0  0  0  0  0
   98.5676  109.0877  122.7228 C   0  0  0  0  0
   98.7707  110.4493  123.3731 C   0  0  0  0  0
  100.2348  110.6467  123.7090 C   0  0  0  0  0
   97.9379  110.5684  124.6365 C   0  0  0  0  0
   98.6267  102.5359  122.0664 C   0  0  0  0  0
   98.7813  108.3147  129.6579 C   0  0  0  0  0
   98.7779  109.6030  131.6201 C   0  0  0  0  0
   99.5992  110.5637  130.9987 C   0  0  0  0  0
  100.0117  110.3764  129.6703 C   0  0  0  0  0
   99.5883  109.2252  129.0020 C   0  0  0  0  0
   99.8911  108.8881  127.7170 N   0  0  0  0  0
   99.4336  107.2071  126.1618 N   0  0  0  0  0
   98.3779  108.4893  130.9404 N   0  0  0  0  0
   98.5641  105.0588  126.5134 O   0  0  0  0  0
   98.8187  108.0288  123.6436 O   0  0  0  0  0
   98.3764  111.4408  122.4764 O   0  0  0  0  0
   99.2947  101.7265  122.9692 F   0  0  0  0  0
   97.2953  102.1660  122.0278 F   0  0  0  0  0
   99.1839  102.3509  120.8129 F   0  0  0  0  0
   98.4045  107.0386  128.6364 S   0  0  0  0  0
  1  2  1  0  0  0
  2  3  1  0  0  0
  3  4  1  0  0  0
  4 23  1  0  0  0
  5 32  1  0  0  0
  6 24  1  0  0  0
  6  7  1  0  0  0
  8  9  1  0  0  0
 10 11  1  0  0  0
 12 27  1  0  0  0
 12  7  1  0  0  0
 13 27  1  0  0  0
 13 14  1  0  0  0
 14 15  1  0  0  0
 14 16  1  0  0  0
 14 28  1  0  0  0
 17  9  1  0  0  0
 17 29  1  0  0  0
 17 30  1  0  0  0
 17 31  1  0  0  0
 18 32  1  0  0  0
 19 25  1  0  0  0
 20 21  1  0  0  0
 22 23  1  0  0  0
 22 18  1  0  0  0
 23  5  1  0  0  0
  5 24  2  0  0  0
  6 26  2  0  0  0
  7  8  2  0  0  0
  9 10  2  0  0  0
 11 12  2  0  0  0
 18 25  2  0  0  0
 19 20  2  0  0  0
 21 22  2  0  0  0
M  END
> <rmsd>
0.699489892

$$$$
CHEMBL477993_8GUT


 27 30  0  0  0  0  0  0  0  0999 V2000
  101.8756  112.6683  128.5120 F   0  0  0  0  0
  101.6722  111.4459  127.9639 C   0  0  0  0  0
  100.6678  110.6170  128.4606 C   0  0  0  0  0
  100.4608  109.3583  127.8946 C   0  0  0  0  0
  101.2523  108.9058  126.8263 C   0  0  0  0  0
  100.9533  107.5657  126.2688 C   0  0  0  0  0
  100.0137  105.7450  125.8632 C   0  0  0  0  0
   99.0234  104.6296  125.8149 C   0  0  0  0  0
   98.1522  104.7559  124.5754 C   0  0  0  0  0
   97.2050  105.9334  124.7139 C   0  0  0  0  0
   97.4903  107.9160  123.1740 C   0  0  0  0  0
   97.3362  108.4689  121.8984 C   0  0  0  0  0
   98.3630  110.4922  122.5983 C   0  0  0  0  0
   98.8054  111.7844  122.3015 C   0  0  0  0  0
   99.4155  112.5589  123.2947 C   0  0  0  0  0
   99.5834  112.0437  124.5857 C   0  0  0  0  0
   99.1425  110.7519  124.8892 C   0  0  0  0  0
   98.5347  109.9743  123.9004 C   0  0  0  0  0
   98.0975  108.6806  124.1804 C   0  0  0  0  0
  102.2673  109.7584  126.3224 C   0  0  0  0  0
  102.4650  111.0180  126.8982 C   0  0  0  0  0
  101.7176  106.9184  125.3655 N   0  0  0  0  0
   97.0454  106.5796  123.4214 N   0  0  0  0  0
   97.7695  109.7329  121.6384 N   0  0  0  0  0
   99.8615  106.8494  126.6164 N   0  0  0  0  0
  101.1016  105.7988  125.1385 O   0  0  0  0  0
  103.2948  109.3433  124.9568 Cl  0  0  0  0  0
  2  1  1  0  0  0
  3  4  1  0  0  0
  5  6  1  0  0  0
  5 20  1  0  0  0
  6 25  1  0  0  0
  7 26  1  0  0  0
  8  7  1  0  0  0
  8  9  1  0  0  0
  9 10  1  0  0  0
 10 23  1  0  0  0
 12 24  1  0  0  0
 13 14  1  0  0  0
 15 16  1  0  0  0
 17 18  1  0  0  0
 18 13  1  0  0  0
 19 11  1  0  0  0
 20 27  1  0  0  0
 21  2  1  0  0  0
 22 26  1  0  0  0
 23 11  1  0  0  0
  2  3  2  0  0  0
  4  5  2  0  0  0
  6 22  2  0  0  0
  7 25  2  0  0  0
 11 12  2  0  0  0
 13 24  2  0  0  0
 14 15  2  0  0  0
 16 17  2  0  0  0
 18 19  2  0  0  0
 20 21  2  0  0  0
M  END
> <rmsd>
0.64126581

$$$$
CHEMBL1760931_6PT0


 29 32  0  0  0  0  0  0  0  0999 V2000
  101.3792  111.9417  122.4408 C   0  0  0  0  0
  100.2697  112.7573  122.1492 C   0  0  0  0  0
   99.0173  112.4887  122.7230 C   0  0  0  0  0
   98.9329  111.3972  123.5856 C   0  0  0  0  0
  101.2273  110.8568  123.3160 C   0  0  0  0  0
   99.5620  109.6777  124.7065 C   0  0  0  0  0
   97.8484  110.8879  124.2606 C   0  0  0  0  0
   96.4348  111.4040  124.2096 C   0  0  0  0  0
   95.4538  109.2778  123.6591 C   0  0  0  0  0
   94.6667  108.5099  122.5952 C   0  0  0  0  0
   95.2869  109.9296  120.9493 C   0  0  0  0  0
   96.1158  110.7934  121.9020 C   0  0  0  0  0
  100.3847  108.5918  125.2774 C   0  0  0  0  0
  101.8531  108.6817  125.3542 C   0  0  0  0  0
  102.5885  107.7667  124.5916 C   0  0  0  0  0
  103.9791  107.8250  124.5549 C   0  0  0  0  0
  104.6510  108.8092  125.2742 C   0  0  0  0  0
  103.9410  109.7244  126.0538 C   0  0  0  0  0
  102.5312  109.6521  126.1454 C   0  0  0  0  0
  101.7823  110.6326  127.0350 C   0  0  0  0  0
  100.0023  110.6384  123.8625 N   0  0  0  0  0
   98.2355  109.7980  124.9630 N   0  0  0  0  0
   95.5740  110.6850  123.2616 N   0  0  0  0  0
   95.3377  108.5854  121.3611 O   0  0  0  0  0
   99.8153  107.5533  125.7075 O   0  0  0  0  0
  102.5674  111.0428  128.0981 F   0  0  0  0  0
  100.6447  110.0555  127.5701 F   0  0  0  0  0
  101.4228  111.7443  126.2970 F   0  0  0  0  0
  104.6426  110.6802  126.7128 F   0  0  0  0  0
  1  2  1  0  0  0
  3  4  1  0  0  0
  4 21  1  0  0  0
  6 13  1  0  0  0
  7 22  1  0  0  0
  8  7  1  0  0  0
  8 23  1  0  0  0
  9 23  1  0  0  0
  9 10  1  0  0  0
 10 24  1  0  0  0
 11 24  1  0  0  0
 11 12  1  0  0  0
 12 23  1  0  0  0
 13 14  1  0  0  0
 15 16  1  0  0  0
 17 18  1  0  0  0
 18 29  1  0  0  0
 19 14  1  0  0  0
 20 19  1  0  0  0
 20 26  1  0  0  0
 20 27  1  0  0  0
 20 28  1  0  0  0
 21  5  1  0  0  0
 21  6  1  0  0  0
  2  3  2  0  0  0
  5  1  2  0  0  0
  6 22  2  0  0  0
  7  4  2  0  0  0
 13 25  2  0  0  0
 14 15  2  0  0  0
 16 17  2  0  0  0
 18 19  2  0  0  0
M  END
> <rmsd>
0.610254586

$$$$
CHEMBL73206_6PT0


 29 33  0  0  0  0  0  0  0  0999 V2000
   99.2285  108.0210  124.0180 N   0  0  0  0  0
   95.9085  109.8865  121.5784 N   0  0  0  0  0
   98.7970  109.0708  123.2690 C   0  0  0  0  0
   97.9673  108.6296  122.2406 C   0  0  0  0  0
   97.9022  107.2582  122.3792 C   0  0  0  0  0
   98.6666  106.9227  123.4702 C   0  0  0  0  0
   98.8126  105.5941  123.8763 C   0  0  0  0  0
   98.1454  104.6042  123.1338 C   0  0  0  0  0
   97.3613  104.9535  122.0139 C   0  0  0  0  0
   97.2334  106.2974  121.6222 C   0  0  0  0  0
   97.2687  109.4751  121.2040 C   0  0  0  0  0
   95.9337  110.6746  122.8156 C   0  0  0  0  0
   94.5016  110.9865  123.2546 C   0  0  0  0  0
   93.6702  109.1454  122.2406 C   0  0  0  0  0
   95.0466  108.7101  121.7337 C   0  0  0  0  0
   99.1148  110.5033  123.5504 C   0  0  0  0  0
  100.0665  108.0604  125.1877 C   0  0  0  0  0
  101.2710  108.9252  125.2375 C   0  0  0  0  0
  101.7498  109.5073  126.4373 C   0  0  0  0  0
  102.9252  110.3011  126.4083 C   0  0  0  0  0
  103.6062  110.5047  125.2077 C   0  0  0  0  0
  103.1335  109.9292  124.0291 C   0  0  0  0  0
  101.9782  109.1465  124.0462 C   0  0  0  0  0
  103.4061  110.8904  127.5809 C   0  0  0  0  0
  102.7283  110.7061  128.7881 C   0  0  0  0  0
  101.5655  109.9338  128.8271 C   0  0  0  0  0
  101.0783  109.3405  127.6597 C   0  0  0  0  0
   93.8037  109.7871  123.4854 O   0  0  0  0  0
   99.7960  107.3088  126.1636 O   0  0  0  0  0
  1  3  1  0  0  0
  1 17  1  0  0  0
  4  5  1  0  0  0
  6  7  1  0  0  0
  6  1  1  0  0  0
  8  9  1  0  0  0
 10  5  1  0  0  0
 11  4  1  0  0  0
 11  2  1  0  0  0
 12  2  1  0  0  0
 12 13  1  0  0  0
 13 28  1  0  0  0
 14 28  1  0  0  0
 14 15  1  0  0  0
 15  2  1  0  0  0
 16  3  1  0  0  0
 17 18  1  0  0  0
 19 20  1  0  0  0
 20 24  1  0  0  0
 21 22  1  0  0  0
 23 18  1  0  0  0
 25 26  1  0  0  0
 27 19  1  0  0  0
  3  4  2  0  0  0
  5  6  2  0  0  0
  7  8  2  0  0  0
  9 10  2  0  0  0
 17 29  2  0  0  0
 18 19  2  0  0  0
 20 21  2  0  0  0
 22 23  2  0  0  0
 24 25  2  0  0  0
 26 27  2  0  0  0
M  END
> <rmsd>
0.542302907

$$$$
CHEMBL1760930_6PT0


 26 29  0  0  0  0  0  0  0  0999 V2000
   99.2915  112.2189  124.0920 C   0  0  0  0  0
   98.7992  112.0760  122.7810 C   0  0  0  0  0
   98.6453  110.8020  122.2124 C   0  0  0  0  0
   99.0079  109.7076  122.9954 C   0  0  0  0  0
   99.6329  111.0761  124.8295 C   0  0  0  0  0
   99.6986  108.6105  124.7068 C   0  0  0  0  0
   98.9369  108.3633  122.7180 C   0  0  0  0  0
   98.3945  107.7385  121.4766 C   0  0  0  0  0
   96.6620  106.2198  121.9435 C   0  0  0  0  0
   95.1702  105.8972  121.7550 C   0  0  0  0  0
   94.9267  107.4756  120.1574 C   0  0  0  0  0
   96.4037  107.8946  120.2487 C   0  0  0  0  0
  100.2027  108.2701  126.0540 C   0  0  0  0  0
  100.9762  109.2221  126.8732 C   0  0  0  0  0
  100.5265  109.4940  128.1713 C   0  0  0  0  0
  101.2166  110.3884  128.9893 C   0  0  0  0  0
  102.3695  111.0152  128.5184 C   0  0  0  0  0
  102.8448  110.7454  127.2330 C   0  0  0  0  0
  102.1592  109.8384  126.4023 C   0  0  0  0  0
   99.4852  109.8615  124.2383 N   0  0  0  0  0
   99.3537  107.6637  123.7982 N   0  0  0  0  0
   96.9505  107.6104  121.5779 N   0  0  0  0  0
   94.4420  107.0514  121.4093 O   0  0  0  0  0
   99.9518  107.1285  126.5253 O   0  0  0  0  0
  102.8168  109.4435  124.8115 Cl  0  0  0  0  0
  104.3117  111.5537  126.7028 Cl  0  0  0  0  0
  1  2  1  0  0  0
  3  4  1  0  0  0
  4 20  1  0  0  0
  6 13  1  0  0  0
  7 21  1  0  0  0
  8  7  1  0  0  0
  8 22  1  0  0  0
  9 22  1  0  0  0
  9 10  1  0  0  0
 10 23  1  0  0  0
 11 23  1  0  0  0
 11 12  1  0  0  0
 12 22  1  0  0  0
 13 14  1  0  0  0
 15 16  1  0  0  0
 17 18  1  0  0  0
 18 26  1  0  0  0
 19 25  1  0  0  0
 19 14  1  0  0  0
 20  5  1  0  0  0
 20  6  1  0  0  0
  2  3  2  0  0  0
  5  1  2  0  0  0
  6 21  2  0  0  0
  7  4  2  0  0  0
 13 24  2  0  0  0
 14 15  2  0  0  0
 16 17  2  0  0  0
 18 19  2  0  0  0
M  END
> <rmsd>
0.562766373

$$$$
CHEMBL253058_8GUQ


 27 29  0  0  0  0  0  0  0  0999 V2000
  103.2652  109.6167  125.0747 C   0  0  0  0  0
  102.5153  109.8785  126.3356 C   0  0  0  0  0
  101.2581  109.2935  126.6032 C   0  0  0  0  0
  100.6097  109.5903  127.8084 C   0  0  0  0  0
  101.1896  110.4520  128.7481 C   0  0  0  0  0
  102.4367  111.0239  128.4720 C   0  0  0  0  0
  103.0934  110.7384  127.2739 C   0  0  0  0  0
  100.4958  110.7515  130.0127 C   0  0  0  0  0
  100.5747  111.9559  132.2926 C   0  0  0  0  0
   99.1229  112.4191  132.2469 C   0  0  0  0  0
  100.8425  110.8306  133.2977 C   0  0  0  0  0
  100.8029  111.3758  134.7327 C   0  0  0  0  0
  100.6432  110.2417  135.7408 C   0  0  0  0  0
   99.3264  109.4806  135.5308 C   0  0  0  0  0
   98.8069  109.5334  134.0880 C   0  0  0  0  0
   99.9566  109.5875  133.0846 C   0  0  0  0  0
   98.5356  109.9119  125.0722 C   0  0  0  0  0
   97.6466  110.6961  124.1103 C   0  0  0  0  0
   98.5143  111.5911  123.2312 C   0  0  0  0  0
   99.5862  110.7622  122.5310 C   0  0  0  0  0
  100.3803  109.9753  123.5701 C   0  0  0  0  0
   99.3704  110.2333  130.2486 O   0  0  0  0  0
   99.5473  107.2799  126.2412 O   0  0  0  0  0
  101.4567  107.3655  124.7378 O   0  0  0  0  0
  101.0969  111.6428  130.9632 N   0  0  0  0  0
   99.4873  109.0916  124.3207 N   0  0  0  0  0
  100.4450  108.2053  125.4670 S   0  0  0  0  0
  1  2  1  0  0  0
  3  4  1  0  0  0
  5  6  1  0  0  0
  5  8  1  0  0  0
  7  2  1  0  0  0
  8 25  1  0  0  0
  9 25  1  0  0  0
  9 10  1  0  0  0
  9 11  1  0  0  0
 11 12  1  0  0  0
 12 13  1  0  0  0
 13 14  1  0  0  0
 14 15  1  0  0  0
 15 16  1  0  0  0
 16 11  1  0  0  0
 17 26  1  0  0  0
 17 18  1  0  0  0
 18 19  1  0  0  0
 19 20  1  0  0  0
 20 21  1  0  0  0
 21 26  1  0  0  0
 27  3  1  0  0  0
 27 26  1  0  0  0
  2  3  2  0  0  0
  4  5  2  0  0  0
  6  7  2  0  0  0
  8 22  2  0  0  0
 27 23  2  0  0  0
 27 24  2  0  0  0
M  END
> <rmsd>
0.558880508

$$$$
CHEMBL1800694_5ZTY


 29 32  0  0  0  0  0  0  0  0999 V2000
   99.0865  105.6589  122.1316 F   0  0  0  0  0
   99.9878  107.6388  121.5648 F   0  0  0  0  0
   98.0018  107.5648  122.6240 F   0  0  0  0  0
   99.2457  106.9719  122.5242 C   0  0  0  0  0
   99.9291  107.0167  123.8525 C   0  0  0  0  0
   99.3439  106.4084  124.9620 C   0  0  0  0  0
  101.1515  107.0791  126.3609 C   0  0  0  0  0
  103.1460  107.1571  127.9453 C   0  0  0  0  0
  103.4891  107.6283  129.3656 C   0  0  0  0  0
  103.0622  109.0765  129.6362 C   0  0  0  0  0
  101.5674  110.3319  128.0684 C   0  0  0  0  0
  100.7392  111.2513  126.1862 C   0  0  0  0  0
   99.7935  111.3700  125.0608 C   0  0  0  0  0
   98.7225  110.4731  124.9396 C   0  0  0  0  0
   97.8294  110.5717  123.8636 C   0  0  0  0  0
   98.0097  111.5639  122.8949 C   0  0  0  0  0
   99.0801  112.4590  123.0040 C   0  0  0  0  0
   99.9677  112.3626  124.0843 C   0  0  0  0  0
  100.5963  108.4910  129.4425 C   0  0  0  0  0
  100.7685  107.0937  128.8293 C   0  0  0  0  0
  101.7722  107.7130  125.2563 C   0  0  0  0  0
  101.1463  107.6731  124.0138 C   0  0  0  0  0
   99.9561  106.4589  126.1709 N   0  0  0  0  0
  101.6967  107.1185  127.6938 N   0  0  0  0  0
  101.7234  109.3647  129.1148 N   0  0  0  0  0
  100.5605  110.3127  127.1684 N   0  0  0  0  0
  101.8603  112.0285  126.2664 N   0  0  0  0  0
  102.6640  111.5012  127.6254 S   0  0  0  0  0
  103.2598  108.6354  125.3536 Cl  0  0  0  0  0
  4  1  1  0  0  0
  4  2  1  0  0  0
  4  3  1  0  0  0
  4  5  1  0  0  0
  6 23  1  0  0  0
  7 24  1  0  0  0
  7 21  1  0  0  0
  8 24  1  0  0  0
  8  9  1  0  0  0
  9 10  1  0  0  0
 10 25  1  0  0  0
 11 28  1  0  0  0
 12 26  1  0  0  0
 12 13  1  0  0  0
 14 15  1  0  0  0
 16 17  1  0  0  0
 18 13  1  0  0  0
 19 25  1  0  0  0
 19 20  1  0  0  0
 20 24  1  0  0  0
 21 29  1  0  0  0
 22  5  1  0  0  0
 25 11  1  0  0  0
 27 28  1  0  0  0
  5  6  2  0  0  0
  7 23  2  0  0  0
 11 26  2  0  0  0
 12 27  2  0  0  0
 13 14  2  0  0  0
 15 16  2  0  0  0
 17 18  2  0  0  0
 21 22  2  0  0  0
M  END
> <rmsd>
0.710960984

$$$$
CHEMBL453472_5ZTY


 25 26  0  0  0  0  0  0  0  0999 V2000
   98.3610  111.6469  122.6211 C   0  0  0  0  0
   98.6836  112.4390  123.7423 C   0  0  0  0  0
   99.1461  111.8449  124.9290 C   0  0  0  0  0
   99.2705  110.4557  124.9611 C   0  0  0  0  0
   98.9534  109.6818  123.8577 C   0  0  0  0  0
   98.4971  110.2493  122.6697 C   0  0  0  0  0
   99.2138  108.2902  124.1972 C   0  0  0  0  0
   99.1978  104.8530  122.9621 C   0  0  0  0  0
   99.3905  102.3732  122.6514 C   0  0  0  0  0
   97.9496  102.1524  122.2242 C   0  0  0  0  0
   99.8226  101.1981  123.5027 C   0  0  0  0  0
  100.2869  102.4340  121.4266 C   0  0  0  0  0
   99.7065  108.3150  125.5763 C   0  0  0  0  0
  100.3538  110.1311  127.2855 C   0  0  0  0  0
  101.7383  110.7093  127.0145 C   0  0  0  0  0
  102.7346  109.6200  126.6555 C   0  0  0  0  0
  102.7953  109.4436  125.1476 C   0  0  0  0  0
  103.7295  108.3043  124.7831 C   0  0  0  0  0
  105.1758  108.7350  124.9382 C   0  0  0  0  0
   99.0639  107.2684  123.4138 N   0  0  0  0  0
   99.3635  105.9666  123.8365 N   0  0  0  0  0
   99.7294  109.6597  126.0556 N   0  0  0  0  0
   98.7747  105.0316  121.7871 O   0  0  0  0  0
   99.5109  103.5685  123.4265 O   0  0  0  0  0
  100.0812  107.3188  126.2503 O   0  0  0  0  0
  2  3  1  0  0  0
  4  5  1  0  0  0
  5  7  1  0  0  0
  6  1  1  0  0  0
  7 13  1  0  0  0
  8 24  1  0  0  0
  9 24  1  0  0  0
  9 10  1  0  0  0
  9 11  1  0  0  0
  9 12  1  0  0  0
 13 22  1  0  0  0
 14 22  1  0  0  0
 14 15  1  0  0  0
 15 16  1  0  0  0
 16 17  1  0  0  0
 17 18  1  0  0  0
 18 19  1  0  0  0
 21 20  1  0  0  0
 21  8  1  0  0  0
 22  4  1  0  0  0
  1  2  2  0  0  0
  3  4  2  0  0  0
  5  6  2  0  0  0
  7 20  2  0  0  0
  8 23  2  0  0  0
 13 25  2  0  0  0
M  END
> <rmsd>
0.498230517

$$$$
CHEMBL250809_6PT0


 30 34  0  0  0  0  0  0  0  0999 V2000
  102.5250  111.5882  128.4618 C   0  0  0  0  0
  103.4916  111.9876  127.5061 C   0  0  0  0  0
  103.7379  111.2208  126.3543 C   0  0  0  0  0
  103.0340  110.0267  126.2074 C   0  0  0  0  0
  102.1121  109.6203  127.1460 C   0  0  0  0  0
  101.8085  110.3883  128.2661 C   0  0  0  0  0
  101.5009  108.5009  126.6286 C   0  0  0  0  0
  102.0380  108.3048  125.4058 C   0  0  0  0  0
  105.3764  109.9841  123.7036 C   0  0  0  0  0
  106.1234  108.8510  124.3776 C   0  0  0  0  0
  101.0428  107.7125  124.4906 C   0  0  0  0  0
  100.0870  108.0863  126.6567 C   0  0  0  0  0
   98.7140  108.3041  124.6845 C   0  0  0  0  0
   98.9822  109.8068  124.5721 C   0  0  0  0  0
   99.1521  110.1770  123.1130 C   0  0  0  0  0
   97.8422  110.4565  123.8171 C   0  0  0  0  0
  102.2727  112.3989  129.6758 C   0  0  0  0  0
  102.6900  114.6367  128.5894 C   0  0  0  0  0
  103.9132  115.5587  128.5975 C   0  0  0  0  0
  104.2727  116.0931  129.9915 C   0  0  0  0  0
  103.1673  115.8625  131.0171 C   0  0  0  0  0
  102.8518  114.3707  131.1045 C   0  0  0  0  0
  104.5945  117.5698  129.9046 C   0  0  0  0  0
  102.9834  109.2291  125.1182 N   0  0  0  0  0
   99.8167  107.5569  125.3024 N   0  0  0  0  0
  102.6783  113.7761  129.7743 N   0  0  0  0  0
  103.6508  109.5719  123.5533 S   0  0  0  0  0
  102.9089  110.7223  122.9344 O   0  0  0  0  0
  103.5171  108.3633  122.6693 O   0  0  0  0  0
  101.6962  111.8564  130.6586 O   0  0  0  0  0
  1 17  1  0  0  0
  2  3  1  0  0  0
  4  5  1  0  0  0
  5  7  1  0  0  0
  6  1  1  0  0  0
  8 24  1  0  0  0
  9 10  1  0  0  0
 11  8  1  0  0  0
 11 25  1  0  0  0
 12 25  1  0  0  0
 12  7  1  0  0  0
 13 25  1  0  0  0
 13 14  1  0  0  0
 14 15  1  0  0  0
 15 16  1  0  0  0
 16 14  1  0  0  0
 17 26  1  0  0  0
 18 26  1  0  0  0
 18 19  1  0  0  0
 19 20  1  0  0  0
 20 21  1  0  0  0
 20 23  1  0  0  0
 21 22  1  0  0  0
 22 26  1  0  0  0
 24  4  1  0  0  0
 27 24  1  0  0  0
 27  9  1  0  0  0
  1  2  2  0  0  0
  3  4  2  0  0  0
  5  6  2  0  0  0
  7  8  2  0  0  0
 17 30  2  0  0  0
 27 28  2  0  0  0
 27 29  2  0  0  0
M  END
> <rmsd>
0.905004203

$$$$
CHEMBL394006_8GUR


 29 31  0  0  0  0  0  0  0  0999 V2000
  103.2111  108.7031  125.2008 C   0  0  0  0  0
  102.8932  109.9891  125.0408 C   0  0  0  0  0
  103.1599  110.6470  123.7316 C   0  0  0  0  0
  102.2332  110.7806  126.1368 C   0  0  0  0  0
  103.1404  110.8622  127.3611 C   0  0  0  0  0
  102.5287  111.7660  128.4316 C   0  0  0  0  0
  101.0544  111.5265  128.6474 C   0  0  0  0  0
  100.3917  112.1653  129.8174 C   0  0  0  0  0
  100.3006  110.8485  127.7691 C   0  0  0  0  0
  100.8743  110.1857  126.5425 C   0  0  0  0  0
   99.8767  110.1957  125.4134 C   0  0  0  0  0
   99.4584  111.3989  124.8073 C   0  0  0  0  0
   98.5450  111.3694  123.7513 C   0  0  0  0  0
   98.0445  110.1504  123.2794 C   0  0  0  0  0
   97.0398  110.1144  122.1635 C   0  0  0  0  0
   95.5709  109.8952  122.5068 C   0  0  0  0  0
   95.0197  111.0662  123.3053 C   0  0  0  0  0
   93.5488  110.8504  123.6091 C   0  0  0  0  0
   92.7103  111.0934  122.3644 C   0  0  0  0  0
   91.2423  110.8410  122.6564 C   0  0  0  0  0
   90.9659  109.3511  122.7296 C   0  0  0  0  0
   97.2896  111.0633  121.0023 C   0  0  0  0  0
   97.5195  109.5716  120.8178 C   0  0  0  0  0
   98.4429  108.9581  123.8927 C   0  0  0  0  0
   99.3559  108.9755  124.9495 C   0  0  0  0  0
   99.9440  112.6253  125.2463 O   0  0  0  0  0
   99.7417  107.7738  125.5323 O   0  0  0  0  0
   99.4027  109.1989  120.5179 Br  0  0  0  0  0
   96.2405  108.8146  119.5684 Br  0  0  0  0  0
  3  2  1  0  0  0
  4  2  1  0  0  0
  4  5  1  0  0  0
  5  6  1  0  0  0
  6  7  1  0  0  0
  8  7  1  0  0  0
 10  9  1  0  0  0
 10 11  1  0  0  0
 10  4  1  0  0  0
 12 26  1  0  0  0
 12 13  1  0  0  0
 14 24  1  0  0  0
 15 14  1  0  0  0
 15 16  1  0  0  0
 15 22  1  0  0  0
 16 17  1  0  0  0
 17 18  1  0  0  0
 18 19  1  0  0  0
 19 20  1  0  0  0
 20 21  1  0  0  0
 22 23  1  0  0  0
 23 28  1  0  0  0
 23 29  1  0  0  0
 23 15  1  0  0  0
 25 27  1  0  0  0
 25 11  1  0  0  0
  1  2  2  0  0  0
  7  9  2  0  0  0
 11 12  2  0  0  0
 13 14  2  0  0  0
 24 25  2  0  0  0
M  END
> <rmsd>
0.772466958

$$$$
CHEMBL473063_6PT0


 29 32  0  0  0  0  0  0  0  0999 V2000
   98.0396  112.1014  121.7152 C   0  0  0  0  0
   98.4831  111.1250  122.7500 C   0  0  0  0  0
   98.8637  111.6230  123.9985 C   0  0  0  0  0
   99.2820  110.7556  125.0083 C   0  0  0  0  0
   99.3318  109.3741  124.7863 C   0  0  0  0  0
   99.7536  108.4289  125.8486 C   0  0  0  0  0
  101.0807  110.1550  127.2268 C   0  0  0  0  0
  101.2977  110.4850  128.7260 C   0  0  0  0  0
  100.4690  111.6990  129.1225 C   0  0  0  0  0
  100.9395  109.3420  129.6737 C   0  0  0  0  0
  102.8180  110.7545  128.8048 C   0  0  0  0  0
  103.1452  112.0518  128.0490 C   0  0  0  0  0
  102.9202  111.6799  126.5819 C   0  0  0  0  0
  102.5145  110.2173  126.6713 C   0  0  0  0  0
  102.7711  109.4641  125.3772 C   0  0  0  0  0
  103.3456  109.7387  127.8240 C   0  0  0  0  0
   98.9387  108.8770  123.5362 C   0  0  0  0  0
   98.5210  109.7343  122.5112 C   0  0  0  0  0
   95.5548  109.9186  121.1378 C   0  0  0  0  0
   95.4212  110.6671  119.8066 C   0  0  0  0  0
   95.7843  108.8341  118.5695 C   0  0  0  0  0
   95.9453  107.9193  119.7884 C   0  0  0  0  0
   99.4749  107.2067  125.7222 O   0  0  0  0  0
   98.3910  109.9265  119.8310 O   0  0  0  0  0
   98.7908  107.7238  120.7911 O   0  0  0  0  0
   94.8346  109.8285  118.8473 O   0  0  0  0  0
  100.4677  108.8409  127.0232 N   0  0  0  0  0
   96.3276  108.6752  120.9913 N   0  0  0  0  0
   98.0372  109.0126  120.9721 S   0  0  0  0  0
  1  2  1  0  0  0
  3  4  1  0  0  0
  5  6  1  0  0  0
  5 17  1  0  0  0
  6 27  1  0  0  0
  7 27  1  0  0  0
  7  8  1  0  0  0
  8  9  1  0  0  0
  8 10  1  0  0  0
 11  8  1  0  0  0
 11 12  1  0  0  0
 12 13  1  0  0  0
 13 14  1  0  0  0
 14 15  1  0  0  0
 14 16  1  0  0  0
 14  7  1  0  0  0
 16 11  1  0  0  0
 18  2  1  0  0  0
 19 28  1  0  0  0
 19 20  1  0  0  0
 20 26  1  0  0  0
 21 26  1  0  0  0
 21 22  1  0  0  0
 22 28  1  0  0  0
 29 18  1  0  0  0
 29 28  1  0  0  0
  2  3  2  0  0  0
  4  5  2  0  0  0
  6 23  2  0  0  0
 17 18  2  0  0  0
 29 24  2  0  0  0
 29 25  2  0  0  0
M  END
> <rmsd>
0.590290487

$$$$
CHEMBL73711_6PT0


 30 33  0  0  0  0  0  0  0  0999 V2000
   94.2726  104.7518  122.1469 C   0  0  0  0  0
   96.2658  105.4143  123.4525 C   0  0  0  0  0
   97.2318  105.0579  124.4190 C   0  0  0  0  0
   98.2346  105.9633  124.8077 C   0  0  0  0  0
   98.2440  107.2233  124.2065 C   0  0  0  0  0
  100.1758  108.2644  125.3900 C   0  0  0  0  0
  101.4579  108.9368  125.0826 C   0  0  0  0  0
  102.2082  109.6309  126.0623 C   0  0  0  0  0
  103.4354  110.2233  125.7045 C   0  0  0  0  0
  103.9057  110.1260  124.3934 C   0  0  0  0  0
  103.1665  109.4439  123.4290 C   0  0  0  0  0
  101.9519  108.8528  123.7733 C   0  0  0  0  0
   98.6872  109.2572  123.6247 C   0  0  0  0  0
   99.2608  110.6365  123.6261 C   0  0  0  0  0
   97.5832  108.8640  122.8743 C   0  0  0  0  0
   96.7757  109.7089  121.9411 C   0  0  0  0  0
   95.7348  110.5130  122.7065 C   0  0  0  0  0
   94.3802  110.0252  124.5992 C   0  0  0  0  0
   93.3276  111.1407  124.7024 C   0  0  0  0  0
   92.5605  110.8515  122.6338 C   0  0  0  0  0
   93.5292  109.7042  122.3040 C   0  0  0  0  0
   97.3117  107.5696  123.2607 C   0  0  0  0  0
   96.3034  106.6958  122.8606 C   0  0  0  0  0
   95.2869  104.4798  123.1043 O   0  0  0  0  0
  100.0412  107.6514  126.4834 O   0  0  0  0  0
   93.1709  111.7932  123.4726 O   0  0  0  0  0
   99.1004  108.2433  124.4323 N   0  0  0  0  0
   94.6865  109.6349  123.2129 N   0  0  0  0  0
  101.6040  109.8204  127.7108 Cl  0  0  0  0  0
  104.4096  111.1051  126.8709 Cl  0  0  0  0  0
  1 24  1  0  0  0
  2 24  1  0  0  0
  3  4  1  0  0  0
  5 27  1  0  0  0
  6  7  1  0  0  0
  8 29  1  0  0  0
  8  9  1  0  0  0
  9 30  1  0  0  0
 10 11  1  0  0  0
 12  7  1  0  0  0
 14 13  1  0  0  0
 15 22  1  0  0  0
 16 15  1  0  0  0
 16 17  1  0  0  0
 17 28  1  0  0  0
 18 28  1  0  0  0
 18 19  1  0  0  0
 19 26  1  0  0  0
 20 26  1  0  0  0
 20 21  1  0  0  0
 21 28  1  0  0  0
 22  5  1  0  0  0
 23  2  1  0  0  0
 27  6  1  0  0  0
 27 13  1  0  0  0
  2  3  2  0  0  0
  4  5  2  0  0  0
  6 25  2  0  0  0
  7  8  2  0  0  0
  9 10  2  0  0  0
 11 12  2  0  0  0
 13 15  2  0  0  0
 22 23  2  0  0  0
M  END
> <rmsd>
0.72339642

$$$$
CHEMBL519575_6KPF


 26 29  0  0  0  0  0  0  0  0999 V2000
  101.9784  110.3924  127.6389 C   0  0  0  0  0
  102.5941  109.9250  126.3664 C   0  0  0  0  0
  103.2955  110.7730  125.6105 C   0  0  0  0  0
  103.8882  110.3183  124.3045 C   0  0  0  0  0
  103.0161  109.2914  123.5323 C   0  0  0  0  0
  101.8881  108.6184  124.3782 C   0  0  0  0  0
  102.3089  108.5449  125.8541 C   0  0  0  0  0
  100.5230  109.2773  124.2169 C   0  0  0  0  0
   99.4127  108.8423  124.9682 C   0  0  0  0  0
   98.1908  109.5109  124.8663 C   0  0  0  0  0
   98.0402  110.6198  124.0181 C   0  0  0  0  0
   96.6998  111.3190  123.8633 C   0  0  0  0  0
   95.7806  111.0479  125.0502 C   0  0  0  0  0
   96.9114  112.8294  123.8222 C   0  0  0  0  0
   96.0230  110.8291  122.6041 C   0  0  0  0  0
   95.6344  109.5163  122.3622 C   0  0  0  0  0
   95.0493  109.3363  121.1005 C   0  0  0  0  0
   94.9709  110.4931  120.3301 C   0  0  0  0  0
   99.1247  110.9965  123.2110 C   0  0  0  0  0
  100.3469  110.3273  123.2922 C   0  0  0  0  0
  102.4950  109.8369  122.1898 C   0  0  0  0  0
  102.0702  108.6768  121.3019 C   0  0  0  0  0
  103.5674  110.6101  121.4380 C   0  0  0  0  0
   99.5100  107.7477  125.8193 O   0  0  0  0  0
  101.3783  110.6908  122.4222 O   0  0  0  0  0
   95.6391  111.7378  121.2409 S   0  0  0  0  0
  1  2  1  0  0  0
  4  3  1  0  0  0
  5  4  1  0  0  0
  5  6  1  0  0  0
  6  7  1  0  0  0
  6  8  1  0  0  0
  7  2  1  0  0  0
  9 24  1  0  0  0
  9 10  1  0  0  0
 11 19  1  0  0  0
 12 11  1  0  0  0
 12 13  1  0  0  0
 12 14  1  0  0  0
 12 15  1  0  0  0
 15 26  1  0  0  0
 16 17  1  0  0  0
 18 26  1  0  0  0
 20 25  1  0  0  0
 20  8  1  0  0  0
 21 25  1  0  0  0
 21 22  1  0  0  0
 21 23  1  0  0  0
 21  5  1  0  0  0
  2  3  2  0  0  0
  8  9  2  0  0  0
 10 11  2  0  0  0
 15 16  2  0  0  0
 17 18  2  0  0  0
 19 20  2  0  0  0
M  END
> <rmsd>
0.703768134

$$$$
CHEMBL598463_5ZTY


 27 29  0  0  0  0  0  0  0  0999 V2000
   95.7775  107.1029  121.7496 C   0  0  0  0  0
   96.7366  107.8100  122.6469 C   0  0  0  0  0
   98.2006  108.1119  124.1668 C   0  0  0  0  0
   99.1195  107.8433  125.2863 C   0  0  0  0  0
  100.8560  108.6597  126.9242 C   0  0  0  0  0
  101.5656  109.9315  127.2549 C   0  0  0  0  0
  100.9748  110.7957  128.1840 C   0  0  0  0  0
  101.5829  112.0096  128.5082 C   0  0  0  0  0
  102.7851  112.3713  127.8997 C   0  0  0  0  0
  103.3795  111.5191  126.9668 C   0  0  0  0  0
  102.7836  110.2926  126.6317 C   0  0  0  0  0
  103.4468  109.4000  125.6108 C   0  0  0  0  0
   97.9862  109.3162  123.5190 C   0  0  0  0  0
   98.6179  110.6281  123.8582 C   0  0  0  0  0
   96.5232  110.1033  121.6384 C   0  0  0  0  0
   95.2048  109.9977  121.1667 C   0  0  0  0  0
   94.6880  110.9447  120.2780 C   0  0  0  0  0
   95.4848  112.0093  119.8510 C   0  0  0  0  0
   96.7979  112.1266  120.3126 C   0  0  0  0  0
   97.3134  111.1787  121.2010 C   0  0  0  0  0
   97.4183  107.1631  123.6149 N   0  0  0  0  0
   99.9217  108.8900  125.8346 N   0  0  0  0  0
   97.0565  109.1249  122.5569 N   0  0  0  0  0
   99.1963  106.6769  125.7589 O   0  0  0  0  0
  103.6685  108.1481  126.1556 F   0  0  0  0  0
  102.6311  109.2765  124.5010 F   0  0  0  0  0
  104.6640  109.9235  125.2067 F   0  0  0  0  0
  1  2  1  0  0  0
  3 21  1  0  0  0
  3  4  1  0  0  0
  4 22  1  0  0  0
  5 22  1  0  0  0
  5  6  1  0  0  0
  7  8  1  0  0  0
  9 10  1  0  0  0
 11  6  1  0  0  0
 12 11  1  0  0  0
 12 25  1  0  0  0
 12 26  1  0  0  0
 12 27  1  0  0  0
 13 23  1  0  0  0
 14 13  1  0  0  0
 16 17  1  0  0  0
 18 19  1  0  0  0
 20 15  1  0  0  0
 23 15  1  0  0  0
 23  2  1  0  0  0
  2 21  2  0  0  0
  3 13  2  0  0  0
  4 24  2  0  0  0
  6  7  2  0  0  0
  8  9  2  0  0  0
 10 11  2  0  0  0
 15 16  2  0  0  0
 17 18  2  0  0  0
 19 20  2  0  0  0
M  END
> <rmsd>
0.786779404

$$$$
CHEMBL361032_6PT0


 25 27  0  0  0  0  0  0  0  0999 V2000
  104.2384  107.8191  120.8885 C   0  0  0  0  0
  105.0359  108.1415  122.1339 C   0  0  0  0  0
  104.4916  109.4075  122.7679 C   0  0  0  0  0
  105.2510  109.7335  124.0450 C   0  0  0  0  0
  104.8852  108.7706  125.1692 C   0  0  0  0  0
  102.4877  108.0660  125.4358 C   0  0  0  0  0
  102.6481  106.7344  124.7783 C   0  0  0  0  0
  101.2971  108.5815  125.9570 C   0  0  0  0  0
   99.9722  107.9255  125.9791 C   0  0  0  0  0
   98.7362  108.7003  126.3136 C   0  0  0  0  0
   97.7679  108.6880  125.1727 C   0  0  0  0  0
   96.7613  107.7150  125.1576 C   0  0  0  0  0
   95.8487  107.6589  124.1012 C   0  0  0  0  0
   95.9395  108.5748  123.0508 C   0  0  0  0  0
   96.9434  109.5465  123.0561 C   0  0  0  0  0
   97.8607  109.6088  124.1103 C   0  0  0  0  0
  101.6306  109.8359  126.4478 C   0  0  0  0  0
  100.8609  110.7999  127.1002 C   0  0  0  0  0
  101.4968  111.9887  127.4977 C   0  0  0  0  0
  102.8704  112.1861  127.2450 C   0  0  0  0  0
  103.6263  111.1970  126.5925 C   0  0  0  0  0
  102.9695  110.0277  126.2052 C   0  0  0  0  0
  103.4972  108.9568  125.5827 N   0  0  0  0  0
   99.8733  106.6961  125.7202 O   0  0  0  0  0
   99.1015  110.8511  124.0657 Cl  0  0  0  0  0
  1  2  1  0  0  0
  2  3  1  0  0  0
  3  4  1  0  0  0
  4  5  1  0  0  0
  5 23  1  0  0  0
  7  6  1  0  0  0
  8  9  1  0  0  0
  8 17  1  0  0  0
 10  9  1  0  0  0
 10 11  1  0  0  0
 12 13  1  0  0  0
 14 15  1  0  0  0
 16 25  1  0  0  0
 16 11  1  0  0  0
 18 19  1  0  0  0
 20 21  1  0  0  0
 22 23  1  0  0  0
 22 17  1  0  0  0
 23  6  1  0  0  0
  6  8  2  0  0  0
  9 24  2  0  0  0
 11 12  2  0  0  0
 13 14  2  0  0  0
 15 16  2  0  0  0
 17 18  2  0  0  0
 19 20  2  0  0  0
 21 22  2  0  0  0
M  END
> <rmsd>
0.539055765

$$$$
CHEMBL497811_6PT0


 25 28  0  0  0  0  0  0  0  0999 V2000
   98.1139  114.0746  124.8095 C   0  0  0  0  0
   99.1942  113.7828  123.7858 C   0  0  0  0  0
   98.7381  112.6892  122.8316 C   0  0  0  0  0
   99.7512  110.7281  124.0162 C   0  0  0  0  0
   99.3081  109.5287  124.5768 C   0  0  0  0  0
  100.1497  108.5002  125.2217 C   0  0  0  0  0
  101.5565  108.7693  125.5897 C   0  0  0  0  0
  102.5328  107.8714  125.1438 C   0  0  0  0  0
  103.8795  108.0710  125.4442 C   0  0  0  0  0
  104.2809  109.1703  126.2032 C   0  0  0  0  0
  105.7360  109.3376  126.4931 C   0  0  0  0  0
  103.3180  110.0771  126.6860 C   0  0  0  0  0
  103.6968  111.1742  127.4760 C   0  0  0  0  0
  102.7365  112.0549  127.9764 C   0  0  0  0  0
  101.3855  111.8471  127.6981 C   0  0  0  0  0
  100.9924  110.7629  126.9120 C   0  0  0  0  0
  101.9442  109.8741  126.3848 C   0  0  0  0  0
   97.9405  109.4872  124.3728 C   0  0  0  0  0
   96.9880  108.5283  124.7172 C   0  0  0  0  0
   95.6498  108.7846  124.3690 C   0  0  0  0  0
   95.2984  109.9747  123.6961 C   0  0  0  0  0
   96.2806  110.9244  123.3630 C   0  0  0  0  0
   97.5998  110.6428  123.7210 C   0  0  0  0  0
   98.6905  111.3990  123.5082 N   0  0  0  0  0
   99.6758  107.3497  125.4239 O   0  0  0  0  0
  1  2  1  0  0  0
  2  3  1  0  0  0
  3 24  1  0  0  0
  5  6  1  0  0  0
  5 18  1  0  0  0
  6  7  1  0  0  0
  8  9  1  0  0  0
 10 12  1  0  0  0
 11 10  1  0  0  0
 13 14  1  0  0  0
 15 16  1  0  0  0
 17  7  1  0  0  0
 17 12  1  0  0  0
 19 20  1  0  0  0
 21 22  1  0  0  0
 23 24  1  0  0  0
 23 18  1  0  0  0
 24  4  1  0  0  0
  4  5  2  0  0  0
  6 25  2  0  0  0
  7  8  2  0  0  0
  9 10  2  0  0  0
 12 13  2  0  0  0
 14 15  2  0  0  0
 16 17  2  0  0  0
 18 19  2  0  0  0
 20 21  2  0  0  0
 22 23  2  0  0  0
M  END
> <rmsd>
0.697031975

$$$$
CHEMBL561349_6PT0


 26 29  0  0  0  0  0  0  0  0999 V2000
   95.0839  108.7816  123.0218 C   0  0  0  0  0
   95.1132  109.9661  123.9683 C   0  0  0  0  0
   96.1258  110.9987  123.4870 C   0  0  0  0  0
   97.9412  109.5360  124.4780 C   0  0  0  0  0
   99.3333  109.5541  124.5470 C   0  0  0  0  0
  100.1697  108.5254  125.1973 C   0  0  0  0  0
  101.5750  108.7796  125.5769 C   0  0  0  0  0
  102.5510  107.8870  125.1221 C   0  0  0  0  0
  103.8955  108.0771  125.4382 C   0  0  0  0  0
  104.2988  109.1644  126.2258 C   0  0  0  0  0
  106.6819  108.4987  126.0860 C   0  0  0  0  0
  103.3302  110.0596  126.7104 C   0  0  0  0  0
  103.7102  111.1410  127.5179 C   0  0  0  0  0
  102.7503  112.0204  128.0223 C   0  0  0  0  0
  101.4002  111.8253  127.7285 C   0  0  0  0  0
  101.0071  110.7545  126.9239 C   0  0  0  0  0
  101.9592  109.8668  126.3956 C   0  0  0  0  0
   99.7405  110.6837  123.8579 C   0  0  0  0  0
  101.0118  111.1810  123.5695 C   0  0  0  0  0
  101.0961  112.3674  122.8204 C   0  0  0  0  0
   99.9262  113.0176  122.3743 C   0  0  0  0  0
   98.6577  112.4869  122.6680 C   0  0  0  0  0
   98.6040  111.3090  123.4156 C   0  0  0  0  0
   97.5091  110.6205  123.7851 N   0  0  0  0  0
   99.6760  107.3870  125.4186 O   0  0  0  0  0
  105.6495  109.3637  126.5396 O   0  0  0  0  0
  1  2  1  0  0  0
  2  3  1  0  0  0
  3 24  1  0  0  0
  5  6  1  0  0  0
  5 18  1  0  0  0
  6  7  1  0  0  0
  8  9  1  0  0  0
 10 26  1  0  0  0
 10 12  1  0  0  0
 11 26  1  0  0  0
 13 14  1  0  0  0
 15 16  1  0  0  0
 17  7  1  0  0  0
 17 12  1  0  0  0
 19 20  1  0  0  0
 21 22  1  0  0  0
 23 24  1  0  0  0
 23 18  1  0  0  0
 24  4  1  0  0  0
  4  5  2  0  0  0
  6 25  2  0  0  0
  7  8  2  0  0  0
  9 10  2  0  0  0
 12 13  2  0  0  0
 14 15  2  0  0  0
 16 17  2  0  0  0
 18 19  2  0  0  0
 20 21  2  0  0  0
 22 23  2  0  0  0
M  END
> <rmsd>
0.713646591

$$$$
CHEMBL187559_6PT0


 25 27  0  0  0  0  0  0  0  0999 V2000
  103.8682  113.5258  122.4749 C   0  0  0  0  0
  104.9213  112.6409  123.1071 C   0  0  0  0  0
  104.3849  112.0672  124.4008 C   0  0  0  0  0
  105.4315  111.1669  125.0290 C   0  0  0  0  0
  104.8919  110.5468  126.3090 C   0  0  0  0  0
  102.5311  109.6836  126.3140 C   0  0  0  0  0
  101.9546  110.8484  127.0463 C   0  0  0  0  0
  101.8302  108.5503  125.8852 C   0  0  0  0  0
  100.3826  108.2650  125.9961 C   0  0  0  0  0
   99.3826  109.3426  126.2866 C   0  0  0  0  0
   99.0482  110.1628  125.0706 C   0  0  0  0  0
   98.9058  109.5455  123.8168 C   0  0  0  0  0
   98.5613  110.2955  122.6903 C   0  0  0  0  0
   98.3389  111.6683  122.8085 C   0  0  0  0  0
   98.4500  112.2882  124.0548 C   0  0  0  0  0
   98.7939  111.5435  125.1877 C   0  0  0  0  0
  102.7895  107.7294  125.3132 C   0  0  0  0  0
  102.6774  106.4731  124.7170 C   0  0  0  0  0
  103.8488  105.8801  124.2142 C   0  0  0  0  0
  105.0894  106.5447  124.3145 C   0  0  0  0  0
  105.1746  107.8119  124.9166 C   0  0  0  0  0
  103.9961  108.3788  125.4054 C   0  0  0  0  0
  103.8465  109.5719  126.0101 N   0  0  0  0  0
   99.9595  107.0966  125.7906 O   0  0  0  0  0
   98.8696  112.4515  126.8714 Br  0  0  0  0  0
  1  2  1  0  0  0
  2  3  1  0  0  0
  3  4  1  0  0  0
  4  5  1  0  0  0
  5 23  1  0  0  0
  7  6  1  0  0  0
  8  9  1  0  0  0
  8 17  1  0  0  0
 10  9  1  0  0  0
 10 11  1  0  0  0
 12 13  1  0  0  0
 14 15  1  0  0  0
 16 25  1  0  0  0
 16 11  1  0  0  0
 18 19  1  0  0  0
 20 21  1  0  0  0
 22 23  1  0  0  0
 22 17  1  0  0  0
 23  6  1  0  0  0
  6  8  2  0  0  0
  9 24  2  0  0  0
 11 12  2  0  0  0
 13 14  2  0  0  0
 15 16  2  0  0  0
 17 18  2  0  0  0
 19 20  2  0  0  0
 21 22  2  0  0  0
M  END
> <rmsd>
0.512667239

$$$$
CHEMBL565194_6PT0


 28 31  0  0  0  0  0  0  0  0999 V2000
  103.5610  110.4790  125.1501 C   0  0  0  0  0
  103.0516  109.8761  123.9985 C   0  0  0  0  0
  101.8949  109.1017  124.0562 C   0  0  0  0  0
  101.2125  108.9121  125.2647 C   0  0  0  0  0
  101.7174  109.5142  126.4418 C   0  0  0  0  0
  102.8970  110.3047  126.3804 C   0  0  0  0  0
  103.3829  110.9112  127.5498 C   0  0  0  0  0
  102.7179  110.7462  128.7656 C   0  0  0  0  0
  101.5570  109.9757  128.8276 C   0  0  0  0  0
  101.0596  109.3666  127.6743 C   0  0  0  0  0
  100.0071  108.0493  125.2659 C   0  0  0  0  0
   99.0161  108.0940  124.1678 C   0  0  0  0  0
   98.6405  109.1901  123.3830 C   0  0  0  0  0
   97.4189  107.5304  122.7278 C   0  0  0  0  0
   98.2153  107.0492  123.7379 C   0  0  0  0  0
   98.1437  105.7219  124.1603 C   0  0  0  0  0
   97.2182  104.8808  123.5176 C   0  0  0  0  0
   96.3968  105.3757  122.4823 C   0  0  0  0  0
   96.4903  106.7180  122.0751 C   0  0  0  0  0
   97.0165  109.6916  121.5227 C   0  0  0  0  0
   97.9104  109.8919  120.3083 C   0  0  0  0  0
   97.9717  108.6240  119.4784 C   0  0  0  0  0
   99.1445  110.5883  123.5326 C   0  0  0  0  0
  104.8143  111.2956  125.0373 C   0  0  0  0  0
  106.0454  110.4080  124.9228 C   0  0  0  0  0
  106.4020  109.8085  126.2701 C   0  0  0  0  0
   99.8376  107.2259  126.2054 O   0  0  0  0  0
   97.6691  108.8338  122.5073 N   0  0  0  0  0
  2  3  1  0  0  0
  4  5  1  0  0  0
  4 11  1  0  0  0
  6  7  1  0  0  0
  6  1  1  0  0  0
  8  9  1  0  0  0
 10  5  1  0  0  0
 11 12  1  0  0  0
 13 28  1  0  0  0
 15 16  1  0  0  0
 15 12  1  0  0  0
 17 18  1  0  0  0
 19 14  1  0  0  0
 20 28  1  0  0  0
 20 21  1  0  0  0
 21 22  1  0  0  0
 23 13  1  0  0  0
 24  1  1  0  0  0
 24 25  1  0  0  0
 25 26  1  0  0  0
 28 14  1  0  0  0
  1  2  2  0  0  0
  3  4  2  0  0  0
  5  6  2  0  0  0
  7  8  2  0  0  0
  9 10  2  0  0  0
 11 27  2  0  0  0
 12 13  2  0  0  0
 14 15  2  0  0  0
 16 17  2  0  0  0
 18 19  2  0  0  0
M  END
> <rmsd>
0.517721951

$$$$
CHEMBL252878_8GUQ


 29 32  0  0  0  0  0  0  0  0999 V2000
  103.3472  109.6115  125.1434 C   0  0  0  0  0
  102.6136  109.8420  126.4201 C   0  0  0  0  0
  103.2257  110.6378  127.3917 C   0  0  0  0  0
  102.5847  110.8913  128.6053 C   0  0  0  0  0
  101.3220  110.3474  128.8700 C   0  0  0  0  0
  100.6130  110.6260  130.1407 C   0  0  0  0  0
  100.5280  111.6297  132.4394 C   0  0  0  0  0
  100.5677  110.6186  133.5801 C   0  0  0  0  0
  102.0206  110.2833  133.9364 C   0  0  0  0  0
  102.0816  109.2510  135.0648 C   0  0  0  0  0
  101.6488  107.8670  134.5804 C   0  0  0  0  0
  102.5194  107.4201  133.4109 C   0  0  0  0  0
  102.3954  108.4090  132.2570 C   0  0  0  0  0
  102.8277  109.8055  132.7095 C   0  0  0  0  0
  102.7040  110.8061  131.5601 C   0  0  0  0  0
  100.7052  109.5594  127.8893 C   0  0  0  0  0
  101.3364  109.2939  126.6680 C   0  0  0  0  0
  100.4786  110.1315  123.6471 C   0  0  0  0  0
   99.8312  111.3929  123.0527 C   0  0  0  0  0
   98.5905  111.1159  122.1980 C   0  0  0  0  0
   97.5238  110.2433  122.8729 C   0  0  0  0  0
   97.3765  110.4855  124.3807 C   0  0  0  0  0
   98.6173  110.0807  125.1933 C   0  0  0  0  0
   99.3666  110.4342  130.1931 O   0  0  0  0  0
  101.4488  107.4536  124.7087 O   0  0  0  0  0
   99.5465  107.3675  126.2213 O   0  0  0  0  0
  101.2968  111.1143  131.3107 N   0  0  0  0  0
   99.5464  109.2753  124.3955 N   0  0  0  0  0
  100.4753  108.2947  125.4869 S   0  0  0  0  0
  1  2  1  0  0  0
  3  4  1  0  0  0
  5  6  1  0  0  0
  5 16  1  0  0  0
  6 27  1  0  0  0
  7 27  1  0  0  0
  7  8  1  0  0  0
  9  8  1  0  0  0
  9 10  1  0  0  0
 10 11  1  0  0  0
 11 12  1  0  0  0
 12 13  1  0  0  0
 14 13  1  0  0  0
 14 15  1  0  0  0
 14  9  1  0  0  0
 15 27  1  0  0  0
 17  2  1  0  0  0
 18 28  1  0  0  0
 18 19  1  0  0  0
 19 20  1  0  0  0
 20 21  1  0  0  0
 21 22  1  0  0  0
 22 23  1  0  0  0
 23 28  1  0  0  0
 29 17  1  0  0  0
 29 28  1  0  0  0
  2  3  2  0  0  0
  4  5  2  0  0  0
  6 24  2  0  0  0
 16 17  2  0  0  0
 29 25  2  0  0  0
 29 26  2  0  0  0
M  END
> <rmsd>
0.665262043

$$$$
CHEMBL596133_8GUT


 33 36  0  0  0  0  0  0  0  0999 V2000
   92.6437  104.4741  123.4150 C   0  0  0  0  0
   94.9112  104.7539  119.9838 C   0  0  0  0  0
   94.8752  105.6793  118.7704 C   0  0  0  0  0
   95.8770  105.9239  119.8708 C   0  0  0  0  0
   95.6384  107.1907  120.6898 C   0  0  0  0  0
   96.6628  107.2438  121.8200 C   0  0  0  0  0
   99.0851  108.9767  123.1889 C   0  0  0  0  0
   98.4556  109.9267  122.3739 C   0  0  0  0  0
   98.3771  111.2642  122.7605 C   0  0  0  0  0
   98.9317  111.6715  123.9718 C   0  0  0  0  0
   99.5698  110.7405  124.7912 C   0  0  0  0  0
   99.6646  109.3933  124.4154 C   0  0  0  0  0
  101.4067  109.2065  126.7223 C   0  0  0  0  0
  100.9787  109.2195  128.0554 C   0  0  0  0  0
  101.6867  109.9466  129.0161 C   0  0  0  0  0
  102.8263  110.6663  128.6477 C   0  0  0  0  0
  103.2574  110.6597  127.3184 C   0  0  0  0  0
  102.5518  109.9329  126.3545 C   0  0  0  0  0
   98.1854  105.7621  120.7555 C   0  0  0  0  0
   97.3116  105.5635  119.5188 C   0  0  0  0  0
   93.9666  104.0951  122.2915 S   0  0  0  0  0
   99.1322  107.3088  122.6030 S   0  0  0  0  0
  100.4956  108.2928  125.5227 S   0  0  0  0  0
   95.2808  104.3878  122.9601 O   0  0  0  0  0
   93.9026  102.6388  121.9253 O   0  0  0  0  0
   98.7558  106.3547  123.7030 O   0  0  0  0  0
  100.5228  107.0008  122.1217 O   0  0  0  0  0
   99.4808  107.4355  126.2261 O   0  0  0  0  0
  101.4595  107.4117  124.7793 O   0  0  0  0  0
   93.7975  105.0669  120.8683 N   0  0  0  0  0
   98.0202  107.1194  121.2817 N   0  0  0  0  0
   97.5791  112.4282  121.7260 Cl  0  0  0  0  0
  102.9817  109.9448  125.0684 F   0  0  0  0  0
  1 21  1  0  0  0
  2 30  1  0  0  0
  2  3  1  0  0  0
  3  4  1  0  0  0
  4  5  1  0  0  0
  4  2  1  0  0  0
  5  6  1  0  0  0
  6 31  1  0  0  0
  8  9  1  0  0  0
  9 32  1  0  0  0
 10 11  1  0  0  0
 12  7  1  0  0  0
 14 15  1  0  0  0
 16 17  1  0  0  0
 18 33  1  0  0  0
 18 13  1  0  0  0
 19 31  1  0  0  0
 19 20  1  0  0  0
 20  4  1  0  0  0
 21 30  1  0  0  0
 22 31  1  0  0  0
 22  7  1  0  0  0
 23 12  1  0  0  0
 23 13  1  0  0  0
  7  8  2  0  0  0
  9 10  2  0  0  0
 11 12  2  0  0  0
 13 14  2  0  0  0
 15 16  2  0  0  0
 17 18  2  0  0  0
 21 24  2  0  0  0
 21 25  2  0  0  0
 22 26  2  0  0  0
 22 27  2  0  0  0
 23 28  2  0  0  0
 23 29  2  0  0  0
M  END
> <rmsd>
0.72795409

$$$$
CHEMBL3901140_6PT0


 25 28  0  0  0  0  0  0  0  0999 V2000
  100.9862  109.9353  127.9854 C   0  0  0  0  0
  102.0114  110.5716  127.0656 C   0  0  0  0  0
  101.3518  111.6774  126.2675 C   0  0  0  0  0
  102.6071  109.5325  126.1370 C   0  0  0  0  0
  100.4614  108.5345  125.2404 C   0  0  0  0  0
   99.6232  109.5833  124.6109 C   0  0  0  0  0
   98.3074  109.7343  125.0735 C   0  0  0  0  0
   97.4621  110.7068  124.5380 C   0  0  0  0  0
   97.9160  111.5454  123.5214 C   0  0  0  0  0
   99.2145  111.4101  123.0297 C   0  0  0  0  0
   99.6498  112.2481  121.9992 C   0  0  0  0  0
  100.9395  112.1122  121.4814 C   0  0  0  0  0
  101.7978  111.1351  121.9894 C   0  0  0  0  0
  101.3706  110.2954  123.0204 C   0  0  0  0  0
  100.0819  110.4223  123.5635 C   0  0  0  0  0
  102.8077  107.8859  124.7847 C   0  0  0  0  0
  104.0457  108.2854  125.1907 C   0  0  0  0  0
  105.2062  107.6546  124.7497 C   0  0  0  0  0
  105.0586  106.5777  123.8555 C   0  0  0  0  0
  103.7749  106.1647  123.4334 C   0  0  0  0  0
  102.6225  106.8235  123.8997 C   0  0  0  0  0
  103.0836  111.2064  127.9356 C   0  0  0  0  0
  101.8851  108.6737  125.3570 N   0  0  0  0  0
  103.9502  109.3174  126.0469 N   0  0  0  0  0
   99.9130  107.4908  125.6875 O   0  0  0  0  0
  1  2  1  0  0  0
  2  3  1  0  0  0
  2  4  1  0  0  0
  2 22  1  0  0  0
  4 23  1  0  0  0
  5  6  1  0  0  0
  7  8  1  0  0  0
  9 10  1  0  0  0
 11 12  1  0  0  0
 13 14  1  0  0  0
 15  6  1  0  0  0
 15 10  1  0  0  0
 17 24  1  0  0  0
 17 18  1  0  0  0
 19 20  1  0  0  0
 21 16  1  0  0  0
 23  5  1  0  0  0
 23 16  1  0  0  0
  4 24  2  0  0  0
  5 25  2  0  0  0
  6  7  2  0  0  0
  8  9  2  0  0  0
 10 11  2  0  0  0
 12 13  2  0  0  0
 14 15  2  0  0  0
 16 17  2  0  0  0
 18 19  2  0  0  0
 20 21  2  0  0  0
M  END
> <rmsd>
0.543707848

$$$$
CHEMBL71810_6PT0


 22 24  0  0  0  0  0  0  0  0999 V2000
   94.6243  111.1803  119.5997 C   0  0  0  0  0
   96.0036  111.3612  120.2044 C   0  0  0  0  0
   96.4510  110.0838  120.8985 C   0  0  0  0  0
   95.7167  109.8812  122.2184 C   0  0  0  0  0
   96.2013  110.8642  123.2779 C   0  0  0  0  0
   98.6249  111.3594  123.5038 C   0  0  0  0  0
   99.7519  110.7563  124.0333 C   0  0  0  0  0
   99.3127  109.5506  124.5587 C   0  0  0  0  0
  100.1506  108.5266  125.2100 C   0  0  0  0  0
  101.5581  108.7892  125.5783 C   0  0  0  0  0
  102.5366  107.8997  125.1141 C   0  0  0  0  0
  103.8847  108.0937  125.4209 C   0  0  0  0  0
  104.2755  109.1780  126.2067 C   0  0  0  0  0
  103.3189  110.0680  126.6973 C   0  0  0  0  0
  103.7198  111.1368  127.5039 C   0  0  0  0  0
  102.7691  112.0170  128.0260 C   0  0  0  0  0
  101.4132  111.8289  127.7483 C   0  0  0  0  0
  101.0040  110.7645  126.9410 C   0  0  0  0  0
  101.9467  109.8785  126.3943 C   0  0  0  0  0
   97.9566  109.4433  124.3309 C   0  0  0  0  0
   97.5631  110.5549  123.6875 N   0  0  0  0  0
   99.6690  107.3803  125.4189 O   0  0  0  0  0
  1  2  1  0  0  0
  2  3  1  0  0  0
  3  4  1  0  0  0
  4  5  1  0  0  0
  5 21  1  0  0  0
  7  8  1  0  0  0
  8  9  1  0  0  0
  9 10  1  0  0  0
 11 12  1  0  0  0
 13 14  1  0  0  0
 15 16  1  0  0  0
 17 18  1  0  0  0
 19 10  1  0  0  0
 19 14  1  0  0  0
 20 21  1  0  0  0
 21  6  1  0  0  0
  6  7  2  0  0  0
  8 20  2  0  0  0
  9 22  2  0  0  0
 10 11  2  0  0  0
 12 13  2  0  0  0
 14 15  2  0  0  0
 16 17  2  0  0  0
 18 19  2  0  0  0
M  END
> <rmsd>
0.707321286

$$$$
CHEMBL602105_8GUQ


 25 26  0  0  0  0  0  0  0  0999 V2000
   99.7663  112.9719  132.4064 C   0  0  0  0  0
  100.6070  112.1390  133.3658 C   0  0  0  0  0
  100.8374  110.7088  132.8700 C   0  0  0  0  0
   99.5027  109.9801  132.7659 C   0  0  0  0  0
  101.6738  109.9816  133.9059 C   0  0  0  0  0
  101.5822  110.7098  131.5554 C   0  0  0  0  0
  101.5766  110.0309  129.0782 C   0  0  0  0  0
  102.8269  110.5855  128.7855 C   0  0  0  0  0
  103.3587  110.5056  127.4974 C   0  0  0  0  0
  104.6954  111.1189  127.2456 C   0  0  0  0  0
  102.6360  109.8606  126.4737 C   0  0  0  0  0
  103.2135  109.7907  125.0945 C   0  0  0  0  0
  101.3735  109.2944  126.7668 C   0  0  0  0  0
  100.2139  110.5557  124.0057 C   0  0  0  0  0
   99.3824  111.6827  123.3814 C   0  0  0  0  0
   97.9114  111.2933  123.2118 C   0  0  0  0  0
   97.7769  109.8237  122.8189 C   0  0  0  0  0
   98.5148  108.8969  123.8010 C   0  0  0  0  0
  100.8610  109.3922  128.0652 C   0  0  0  0  0
  102.7171  111.2573  131.4917 O   0  0  0  0  0
  101.2458  107.7606  124.5534 O   0  0  0  0  0
   99.5189  107.4582  126.2457 O   0  0  0  0  0
  101.0023  110.0996  130.3903 N   0  0  0  0  0
   99.3592  109.6322  124.7509 N   0  0  0  0  0
  100.3793  108.4783  125.5521 S   0  0  0  0  0
  1  2  1  0  0  0
  2  3  1  0  0  0
  3  4  1  0  0  0
  3  5  1  0  0  0
  3  6  1  0  0  0
  6 23  1  0  0  0
  8  9  1  0  0  0
 10  9  1  0  0  0
 11 13  1  0  0  0
 12 11  1  0  0  0
 14 24  1  0  0  0
 14 15  1  0  0  0
 15 16  1  0  0  0
 16 17  1  0  0  0
 17 18  1  0  0  0
 18 24  1  0  0  0
 19  7  1  0  0  0
 23  7  1  0  0  0
 25 13  1  0  0  0
 25 24  1  0  0  0
  6 20  2  0  0  0
  7  8  2  0  0  0
  9 11  2  0  0  0
 13 19  2  0  0  0
 25 21  2  0  0  0
 25 22  2  0  0  0
M  END
> <rmsd>
0.773318112

$$$$
CHEMBL74662_6KPF


 26 28  0  0  0  0  0  0  0  0999 V2000
  101.9775  110.3836  127.6405 C   0  0  0  0  0
  102.5929  109.9224  126.3658 C   0  0  0  0  0
  103.2928  110.7745  125.6130 C   0  0  0  0  0
  103.8857  110.3261  124.3049 C   0  0  0  0  0
  103.0156  109.3002  123.5292 C   0  0  0  0  0
  101.8884  108.6226  124.3725 C   0  0  0  0  0
  102.3096  108.5441  125.8479 C   0  0  0  0  0
  100.5220  109.2798  124.2129 C   0  0  0  0  0
   99.4123  108.8444  124.9685 C   0  0  0  0  0
   98.1886  109.5114  124.8674 C   0  0  0  0  0
   98.0478  110.6028  124.0079 C   0  0  0  0  0
   96.7386  111.3035  123.9014 C   0  0  0  0  0
   95.8800  110.6489  122.8318 C   0  0  0  0  0
   94.5350  111.3454  122.7341 C   0  0  0  0  0
   93.6489  110.9533  123.9074 C   0  0  0  0  0
   92.3001  111.6531  123.8370 C   0  0  0  0  0
   99.1205  111.0004  123.2079 C   0  0  0  0  0
  100.3447  110.3327  123.2888 C   0  0  0  0  0
  102.4949  109.8487  122.1878 C   0  0  0  0  0
  103.5669  110.6253  121.4392 C   0  0  0  0  0
  102.0726  108.6904  121.2964 C   0  0  0  0  0
   99.5135  107.7533  125.8236 O   0  0  0  0  0
  101.3768  110.7005  122.4215 O   0  0  0  0  0
   92.4743  113.0249  123.8748 F   0  0  0  0  0
   91.5350  111.2658  124.9200 F   0  0  0  0  0
   91.6431  111.3021  122.6714 F   0  0  0  0  0
  1  2  1  0  0  0
  4  3  1  0  0  0
  5  4  1  0  0  0
  5  6  1  0  0  0
  6  7  1  0  0  0
  6  8  1  0  0  0
  7  2  1  0  0  0
  9 22  1  0  0  0
  9 10  1  0  0  0
 11 17  1  0  0  0
 12 11  1  0  0  0
 12 13  1  0  0  0
 13 14  1  0  0  0
 14 15  1  0  0  0
 15 16  1  0  0  0
 16 24  1  0  0  0
 16 25  1  0  0  0
 16 26  1  0  0  0
 18 23  1  0  0  0
 18  8  1  0  0  0
 19 23  1  0  0  0
 19 20  1  0  0  0
 19 21  1  0  0  0
 19  5  1  0  0  0
  2  3  2  0  0  0
  8  9  2  0  0  0
 10 11  2  0  0  0
 17 18  2  0  0  0
M  END
> <rmsd>
0.705572069

$$$$
CHEMBL2326299_8GUR


 30 32  0  0  0  0  0  0  0  0999 V2000
   96.5618  114.7649  126.1986 C   0  0  0  0  0
   96.8547  113.4467  125.4930 C   0  0  0  0  0
   99.2523  114.3212  125.4291 C   0  0  0  0  0
  100.1304  113.9412  126.6080 C   0  0  0  0  0
   98.6901  112.0452  124.5046 C   0  0  0  0  0
   97.8014  110.9648  124.3712 C   0  0  0  0  0
   98.2038  109.7846  123.7413 C   0  0  0  0  0
   99.5056  109.6640  123.2422 C   0  0  0  0  0
   99.9553  108.4130  122.5583 C   0  0  0  0  0
   98.4968  106.4017  122.9593 C   0  0  0  0  0
   97.6937  106.7541  121.8600 C   0  0  0  0  0
   96.6060  105.9597  121.4876 C   0  0  0  0  0
   96.3074  104.8022  122.2100 C   0  0  0  0  0
   95.1511  103.9571  121.8144 C   0  0  0  0  0
   97.0986  104.4369  123.3007 C   0  0  0  0  0
   98.1863  105.2318  123.6721 C   0  0  0  0  0
  101.7572  108.0945  125.0769 C   0  0  0  0  0
  102.9297  108.2071  124.3202 C   0  0  0  0  0
  103.8351  109.2409  124.5795 C   0  0  0  0  0
  103.5686  110.1651  125.5943 C   0  0  0  0  0
  102.3984  110.0541  126.3519 C   0  0  0  0  0
  102.1149  111.0367  127.4306 C   0  0  0  0  0
  101.4935  109.0205  126.0930 C   0  0  0  0  0
  100.3900  110.7400  123.3482 C   0  0  0  0  0
   99.9873  111.9201  123.9784 C   0  0  0  0  0
   98.2755  113.2614  125.1631 N   0  0  0  0  0
   99.6163  107.2276  123.3453 N   0  0  0  0  0
  100.6008  106.8191  124.7250 S   0  0  0  0  0
   99.7202  106.6246  125.9282 O   0  0  0  0  0
  101.3473  105.5433  124.4525 O   0  0  0  0  0
  1  2  1  0  0  0
  2 26  1  0  0  0
  3 26  1  0  0  0
  3  4  1  0  0  0
  6  7  1  0  0  0
  8 24  1  0  0  0
  9  8  1  0  0  0
  9 27  1  0  0  0
 11 12  1  0  0  0
 13 15  1  0  0  0
 14 13  1  0  0  0
 16 10  1  0  0  0
 18 19  1  0  0  0
 20 21  1  0  0  0
 22 21  1  0  0  0
 23 17  1  0  0  0
 25  5  1  0  0  0
 26  5  1  0  0  0
 27 10  1  0  0  0
 28 27  1  0  0  0
 28 17  1  0  0  0
  5  6  2  0  0  0
  7  8  2  0  0  0
 10 11  2  0  0  0
 12 13  2  0  0  0
 15 16  2  0  0  0
 17 18  2  0  0  0
 19 20  2  0  0  0
 21 23  2  0  0  0
 24 25  2  0  0  0
 28 29  2  0  0  0
 28 30  2  0  0  0
M  END
> <rmsd>
0.362533957

$$$$
CHEMBL252279_8GUQ


 27 30  0  0  0  0  0  0  0  0999 V2000
  103.1554  109.6383  124.9678 C   0  0  0  0  0
  102.3642  109.9523  126.1912 C   0  0  0  0  0
  102.8789  110.9021  127.0772 C   0  0  0  0  0
  102.1801  111.2397  128.2370 C   0  0  0  0  0
  100.9565  110.6270  128.5340 C   0  0  0  0  0
  100.1831  110.9945  129.7435 C   0  0  0  0  0
   99.9344  112.4022  131.7977 C   0  0  0  0  0
  100.1276  111.8875  133.2247 C   0  0  0  0  0
  101.6043  111.7654  133.6333 C   0  0  0  0  0
  101.8628  110.3443  134.1359 C   0  0  0  0  0
  103.3184  110.1771  134.5552 C   0  0  0  0  0
  104.2339  110.4539  133.3696 C   0  0  0  0  0
  104.0379  111.8874  132.8824 C   0  0  0  0  0
  102.5807  112.1558  132.5009 C   0  0  0  0  0
  102.2109  111.4793  131.1788 C   0  0  0  0  0
  100.4363  109.6844  127.6373 C   0  0  0  0  0
  101.1267  109.3334  126.4708 C   0  0  0  0  0
   98.4293  109.7601  124.8321 C   0  0  0  0  0
   98.7780  111.2074  124.5684 C   0  0  0  0  0
   99.6368  111.1634  123.3390 C   0  0  0  0  0
  100.2862  109.8019  123.3934 C   0  0  0  0  0
   98.9503  110.7261  129.7775 O   0  0  0  0  0
   99.5014  107.2360  126.2017 O   0  0  0  0  0
  101.4428  107.2999  124.7387 O   0  0  0  0  0
  100.7862  111.6526  130.8730 N   0  0  0  0  0
   99.4199  108.9174  124.1661 N   0  0  0  0  0
  100.3826  108.1444  125.3896 S   0  0  0  0  0
  1  2  1  0  0  0
  3  4  1  0  0  0
  5  6  1  0  0  0
  5 16  1  0  0  0
  6 25  1  0  0  0
  7 25  1  0  0  0
  7  8  1  0  0  0
  9  8  1  0  0  0
  9 10  1  0  0  0
 10 11  1  0  0  0
 11 12  1  0  0  0
 12 13  1  0  0  0
 14 13  1  0  0  0
 14 15  1  0  0  0
 14  9  1  0  0  0
 15 25  1  0  0  0
 17  2  1  0  0  0
 18 26  1  0  0  0
 18 19  1  0  0  0
 19 20  1  0  0  0
 20 21  1  0  0  0
 21 26  1  0  0  0
 27 17  1  0  0  0
 27 26  1  0  0  0
  2  3  2  0  0  0
  4  5  2  0  0  0
  6 22  2  0  0  0
 16 17  2  0  0  0
 27 23  2  0  0  0
 27 24  2  0  0  0
M  END
> <rmsd>
0.49648425

$$$$
CHEMBL371040_8GUT


 33 35  0  0  0  0  0  0  0  0999 V2000
   94.7289  103.5375  122.0722 C   0  0  0  0  0
   94.7758  105.0364  121.8395 C   0  0  0  0  0
   94.1339  108.2507  121.2767 C   0  0  0  0  0
   96.0126  105.6268  122.4415 C   0  0  0  0  0
   96.9600  106.2264  121.6049 C   0  0  0  0  0
   98.1151  106.7967  122.1464 C   0  0  0  0  0
   98.3306  106.7694  123.5287 C   0  0  0  0  0
   99.5641  109.2753  124.2758 C   0  0  0  0  0
   98.2460  109.7416  124.1662 C   0  0  0  0  0
   97.9534  111.1023  124.1837 C   0  0  0  0  0
   98.9827  112.0267  124.3073 C   0  0  0  0  0
  100.2988  111.5877  124.4258 C   0  0  0  0  0
  100.6296  110.2168  124.4420 C   0  0  0  0  0
  102.1110  109.8271  124.5391 C   0  0  0  0  0
  102.3321  108.7530  125.5958 C   0  0  0  0  0
  103.0145  111.0064  124.9021 C   0  0  0  0  0
  103.9721  111.4713  123.9822 C   0  0  0  0  0
  104.8025  112.5498  124.2947 C   0  0  0  0  0
  104.6876  113.1830  125.5329 C   0  0  0  0  0
  103.7421  112.7385  126.4588 C   0  0  0  0  0
  102.9088  111.6585  126.1530 C   0  0  0  0  0
   97.3831  106.1735  124.3686 C   0  0  0  0  0
   96.2277  105.6028  123.8280 C   0  0  0  0  0
   93.5851  105.6578  122.4028 N   0  0  0  0  0
   93.0201  106.8638  121.2931 S   0  0  0  0  0
   99.7714  107.5146  124.2061 S   0  0  0  0  0
   92.9199  106.2846  119.9094 O   0  0  0  0  0
   91.6622  107.3350  121.7297 O   0  0  0  0  0
  100.9338  107.1304  123.3357 O   0  0  0  0  0
   99.9888  106.9745  125.5921 O   0  0  0  0  0
  102.5055  109.3077  123.3023 O   0  0  0  0  0
   98.6275  113.7394  124.3164 Cl  0  0  0  0  0
  101.9939  111.2582  127.0720 F   0  0  0  0  0
  2  1  1  0  0  0
  2 24  1  0  0  0
  2  4  1  0  0  0
  5  6  1  0  0  0
  7 22  1  0  0  0
  9 10  1  0  0  0
 11 32  1  0  0  0
 11 12  1  0  0  0
 13  8  1  0  0  0
 14 13  1  0  0  0
 14 15  1  0  0  0
 14 31  1  0  0  0
 14 16  1  0  0  0
 17 18  1  0  0  0
 19 20  1  0  0  0
 21 33  1  0  0  0
 21 16  1  0  0  0
 23  4  1  0  0  0
 25 24  1  0  0  0
 25  3  1  0  0  0
 26  7  1  0  0  0
 26  8  1  0  0  0
  4  5  2  0  0  0
  6  7  2  0  0  0
  8  9  2  0  0  0
 10 11  2  0  0  0
 12 13  2  0  0  0
 16 17  2  0  0  0
 18 19  2  0  0  0
 20 21  2  0  0  0
 22 23  2  0  0  0
 25 27  2  0  0  0
 25 28  2  0  0  0
 26 29  2  0  0  0
 26 30  2  0  0  0
M  END
> <rmsd>
0.568232119

$$$$
CHEMBL4644505_8GUS


 27 27  0  0  0  0  0  0  0  0999 V2000
   97.9168  111.6293  123.0581 C   0  0  0  0  0
   98.8313  112.3343  123.8571 C   0  0  0  0  0
  100.0865  111.7763  124.1179 C   0  0  0  0  0
  100.4302  110.5289  123.5876 C   0  0  0  0  0
   99.5125  109.8306  122.7966 C   0  0  0  0  0
   98.2540  110.3749  122.5262 C   0  0  0  0  0
   96.0945  110.1608  121.3359 C   0  0  0  0  0
   95.3512  109.1256  120.5059 C   0  0  0  0  0
   95.9477  108.9889  119.1079 C   0  0  0  0  0
   97.2691  108.2334  119.1271 C   0  0  0  0  0
   97.0457  106.7760  119.4975 C   0  0  0  0  0
   98.3697  106.0905  119.8050 C   0  0  0  0  0
   98.9851  106.6161  121.1016 C   0  0  0  0  0
   98.2437  106.1930  122.3352 C   0  0  0  0  0
   97.9782  106.3642  124.8345 C   0  0  0  0  0
   98.6890  106.9995  126.0132 C   0  0  0  0  0
  101.7698  109.9397  123.8779 C   0  0  0  0  0
  101.6873  108.8983  124.9881 C   0  0  0  0  0
  101.4633  109.5444  126.3472 C   0  0  0  0  0
  102.7297  110.2283  126.8252 C   0  0  0  0  0
  102.4746  110.8789  128.1680 C   0  0  0  0  0
   97.2682  114.2220  124.1880 C   0  0  0  0  0
   97.3623  109.6520  121.7310 O   0  0  0  0  0
   97.2511  105.4169  122.2639 O   0  0  0  0  0
   99.9093  106.3597  126.2308 O   0  0  0  0  0
   98.5195  113.5831  124.4011 O   0  0  0  0  0
   98.6803  106.6840  123.6020 N   0  0  0  0  0
  2  3  1  0  0  0
  2 26  1  0  0  0
  4  5  1  0  0  0
  6 23  1  0  0  0
  6  1  1  0  0  0
  7 23  1  0  0  0
  7  8  1  0  0  0
  8  9  1  0  0  0
  9 10  1  0  0  0
 10 11  1  0  0  0
 11 12  1  0  0  0
 12 13  1  0  0  0
 13 14  1  0  0  0
 14 27  1  0  0  0
 15 27  1  0  0  0
 15 16  1  0  0  0
 16 25  1  0  0  0
 17  4  1  0  0  0
 17 18  1  0  0  0
 18 19  1  0  0  0
 19 20  1  0  0  0
 20 21  1  0  0  0
 22 26  1  0  0  0
  1  2  2  0  0  0
  3  4  2  0  0  0
  5  6  2  0  0  0
 14 24  2  0  0  0
M  END
> <rmsd>
0.758634984

$$$$
CHEMBL395159_8GUR


 22 23  0  0  0  0  0  0  0  0999 V2000
  102.3454  106.2393  128.8495 C   0  0  0  0  0
  101.2665  106.3181  129.9135 C   0  0  0  0  0
  100.0209  106.9919  129.3577 C   0  0  0  0  0
   99.2551  106.0718  128.4571 C   0  0  0  0  0
   98.6030  104.9609  129.0082 C   0  0  0  0  0
   97.8769  104.0920  128.1918 C   0  0  0  0  0
   97.8001  104.3280  126.8188 C   0  0  0  0  0
   98.4433  105.4368  126.2646 C   0  0  0  0  0
   99.1590  106.3321  127.0761 C   0  0  0  0  0
   99.6651  108.0982  125.4105 C   0  0  0  0  0
   97.7821  109.5736  124.4642 C   0  0  0  0  0
   98.8240  110.4690  123.7715 C   0  0  0  0  0
   98.4050  110.6829  122.3316 C   0  0  0  0  0
   98.8410  111.8134  124.4701 C   0  0  0  0  0
  100.2460  109.8833  123.7805 C   0  0  0  0  0
  101.6487  109.6237  125.8280 C   0  0  0  0  0
  103.9046  108.5448  125.1095 C   0  0  0  0  0
   99.8802  107.4470  126.5204 N   0  0  0  0  0
  100.5331  109.1851  125.0321 N   0  0  0  0  0
   98.2152  107.8036  124.3783 S   0  0  0  0  0
  101.4991  109.8409  127.4459 S   0  0  0  0  0
  103.1502  110.1934  125.0325 S   0  0  0  0  0
  1  2  1  0  0  0
  2  3  1  0  0  0
  3  4  1  0  0  0
  5  6  1  0  0  0
  7  8  1  0  0  0
  9 18  1  0  0  0
  9  4  1  0  0  0
 10 20  1  0  0  0
 11 20  1  0  0  0
 11 12  1  0  0  0
 12 13  1  0  0  0
 12 14  1  0  0  0
 12 15  1  0  0  0
 15 19  1  0  0  0
 16 22  1  0  0  0
 17 22  1  0  0  0
 19 16  1  0  0  0
 19 10  1  0  0  0
  4  5  2  0  0  0
  6  7  2  0  0  0
  8  9  2  0  0  0
 10 18  2  0  0  0
 16 21  2  0  0  0
M  END
> <rmsd>
0.789795876

$$$$
CHEMBL245449_8GUS


 21 22  0  0  0  0  0  0  0  0999 V2000
   99.1288  110.1218  124.3318 C   0  0  0  0  0
   98.2460  107.8978  123.5806 C   0  0  0  0  0
   97.3813  107.2705  122.6754 C   0  0  0  0  0
   97.1498  105.8962  122.7361 C   0  0  0  0  0
   97.7905  105.1258  123.7035 C   0  0  0  0  0
   98.6599  105.7317  124.6102 C   0  0  0  0  0
   98.8889  107.1177  124.5791 C   0  0  0  0  0
  100.1761  107.3494  126.6746 C   0  0  0  0  0
   98.6766  107.4376  128.7437 C   0  0  0  0  0
   99.8356  108.0716  129.5340 C   0  0  0  0  0
   99.8971  107.4252  130.9020 C   0  0  0  0  0
   99.5409  109.5467  129.7169 C   0  0  0  0  0
  101.2117  107.9109  128.8644 C   0  0  0  0  0
  102.0314  109.0715  126.8048 C   0  0  0  0  0
  101.2362  111.5296  127.1332 C   0  0  0  0  0
   98.4150  109.2840  123.4340 O   0  0  0  0  0
   99.8516  107.7137  125.4647 N   0  0  0  0  0
  101.1488  108.1109  127.4158 N   0  0  0  0  0
   99.2220  106.1291  127.5940 S   0  0  0  0  0
  102.6941  108.7957  125.3302 S   0  0  0  0  0
  102.6023  110.4963  127.7326 S   0  0  0  0  0
  1 16  1  0  0  0
  2 16  1  0  0  0
  3  4  1  0  0  0
  5  6  1  0  0  0
  7 17  1  0  0  0
  7  2  1  0  0  0
  8 19  1  0  0  0
  9 19  1  0  0  0
  9 10  1  0  0  0
 10 11  1  0  0  0
 10 12  1  0  0  0
 10 13  1  0  0  0
 13 18  1  0  0  0
 14 21  1  0  0  0
 15 21  1  0  0  0
 18 14  1  0  0  0
 18  8  1  0  0  0
  2  3  2  0  0  0
  4  5  2  0  0  0
  6  7  2  0  0  0
  8 17  2  0  0  0
 14 20  2  0  0  0
M  END
> <rmsd>
0.690350711

$$$$
CHEMBL250607_6PT0


 32 36  0  0  0  0  0  0  0  0999 V2000
  103.3360  112.2429  127.4692 C   0  0  0  0  0
  101.9892  112.0697  127.8747 C   0  0  0  0  0
  101.2436  110.9502  127.4649 C   0  0  0  0  0
  101.8888  109.9924  126.6845 C   0  0  0  0  0
  103.2063  110.1420  126.3125 C   0  0  0  0  0
  103.9496  111.2658  126.6575 C   0  0  0  0  0
  103.4814  109.1102  125.4450 C   0  0  0  0  0
  102.3321  108.4221  125.2924 C   0  0  0  0  0
   98.8068  109.8780  125.0227 C   0  0  0  0  0
   99.3847  110.0029  123.6281 C   0  0  0  0  0
  102.2517  107.8417  123.9375 C   0  0  0  0  0
  104.2887  109.0737  124.2142 C   0  0  0  0  0
  103.2493  108.9059  122.0282 C   0  0  0  0  0
  104.0225  109.4095  119.9766 C   0  0  0  0  0
  103.4944  110.8524  119.9570 C   0  0  0  0  0
  103.1786  111.3613  121.3659 C   0  0  0  0  0
  102.5398  110.2704  122.2263 C   0  0  0  0  0
  104.0875  113.4376  127.9166 C   0  0  0  0  0
  105.4934  113.6847  125.8395 C   0  0  0  0  0
  106.9396  113.2946  125.5376 C   0  0  0  0  0
  107.9288  114.2622  126.1916 C   0  0  0  0  0
  107.6611  114.3953  127.6928 C   0  0  0  0  0
  106.2063  114.7720  127.9717 C   0  0  0  0  0
  107.9104  115.6184  125.5048 C   0  0  0  0  0
  101.3329  108.9416  126.0428 N   0  0  0  0  0
  103.5297  108.2029  123.2871 N   0  0  0  0  0
  105.3105  113.8484  127.2802 N   0  0  0  0  0
   99.6394  108.5836  125.9177 S   0  0  0  0  0
   99.0532  108.4721  127.2966 O   0  0  0  0  0
   99.4476  107.2752  125.2031 O   0  0  0  0  0
  104.4292  109.0323  121.2689 O   0  0  0  0  0
  103.6482  114.1018  128.8957 O   0  0  0  0  0
  1 18  1  0  0  0
  2  3  1  0  0  0
  4  5  1  0  0  0
  5  7  1  0  0  0
  6  1  1  0  0  0
  8 25  1  0  0  0
  9 10  1  0  0  0
 11  8  1  0  0  0
 11 26  1  0  0  0
 12 26  1  0  0  0
 12  7  1  0  0  0
 13 26  1  0  0  0
 13 31  1  0  0  0
 14 31  1  0  0  0
 14 15  1  0  0  0
 15 16  1  0  0  0
 16 17  1  0  0  0
 17 13  1  0  0  0
 18 27  1  0  0  0
 19 27  1  0  0  0
 19 20  1  0  0  0
 20 21  1  0  0  0
 21 22  1  0  0  0
 21 24  1  0  0  0
 22 23  1  0  0  0
 23 27  1  0  0  0
 25  4  1  0  0  0
 28 25  1  0  0  0
 28  9  1  0  0  0
  1  2  2  0  0  0
  3  4  2  0  0  0
  5  6  2  0  0  0
  7  8  2  0  0  0
 18 32  2  0  0  0
 28 29  2  0  0  0
 28 30  2  0  0  0
M  END
> <rmsd>
0.888396263

$$$$
CHEMBL243334_6PT0


 26 29  0  0  0  0  0  0  0  0999 V2000
  103.5475  109.6783  123.9398 C   0  0  0  0  0
  104.4076  110.5198  124.6482 C   0  0  0  0  0
  104.1458  110.8228  125.9861 C   0  0  0  0  0
  103.0197  110.2899  126.6196 C   0  0  0  0  0
  102.1292  109.4478  125.9054 C   0  0  0  0  0
  102.4187  109.1434  124.5650 C   0  0  0  0  0
  100.9903  108.9189  126.5635 C   0  0  0  0  0
  100.7911  109.2140  127.9199 C   0  0  0  0  0
  101.6771  110.0393  128.6141 C   0  0  0  0  0
  102.7857  110.5800  127.9642 C   0  0  0  0  0
   99.9953  108.0474  125.8907 C   0  0  0  0  0
   99.5195  108.2905  124.5064 C   0  0  0  0  0
   99.3619  107.1816  123.6670 C   0  0  0  0  0
   98.9354  107.3342  122.3493 C   0  0  0  0  0
   98.6461  108.6041  121.8337 C   0  0  0  0  0
   98.7791  109.7297  122.6631 C   0  0  0  0  0
   99.2079  109.5798  124.0091 C   0  0  0  0  0
   99.2904  110.7200  124.8254 C   0  0  0  0  0
   98.9811  111.9845  124.3217 C   0  0  0  0  0
   98.5770  112.1280  122.9943 C   0  0  0  0  0
   98.4740  111.0063  122.1700 C   0  0  0  0  0
   97.9852  107.6695  119.6273 C   0  0  0  0  0
   96.4957  107.3838  119.5337 C   0  0  0  0  0
   95.9897  106.7498  120.8148 C   0  0  0  0  0
   99.5346  107.0574  126.5222 O   0  0  0  0  0
   98.2265  108.7639  120.5056 O   0  0  0  0  0
  2  3  1  0  0  0
  4  5  1  0  0  0
  5  7  1  0  0  0
  6  1  1  0  0  0
  7 11  1  0  0  0
  8  9  1  0  0  0
 10  4  1  0  0  0
 11 12  1  0  0  0
 13 14  1  0  0  0
 15 16  1  0  0  0
 15 26  1  0  0  0
 17 18  1  0  0  0
 17 12  1  0  0  0
 19 20  1  0  0  0
 21 16  1  0  0  0
 22 26  1  0  0  0
 22 23  1  0  0  0
 23 24  1  0  0  0
  1  2  2  0  0  0
  3  4  2  0  0  0
  5  6  2  0  0  0
  7  8  2  0  0  0
  9 10  2  0  0  0
 11 25  2  0  0  0
 12 13  2  0  0  0
 14 15  2  0  0  0
 16 17  2  0  0  0
 18 19  2  0  0  0
 20 21  2  0  0  0
M  END
> <rmsd>
0.755713999

$$$$
CHEMBL1765246_5ZTY


 28 32  0  0  0  0  0  0  0  0999 V2000
   98.7746  112.3246  122.8451 C   0  0  0  0  0
   98.8557  112.4780  124.3702 C   0  0  0  0  0
   98.5835  111.1780  125.1322 C   0  0  0  0  0
   99.2340  109.9808  124.4339 C   0  0  0  0  0
   98.7378  109.8114  122.9655 C   0  0  0  0  0
   98.0199  111.0646  122.4336 C   0  0  0  0  0
   97.9377  108.4984  122.7126 C   0  0  0  0  0
   96.9720  108.2634  123.8882 C   0  0  0  0  0
   97.6659  108.1879  125.2560 C   0  0  0  0  0
  100.1240  107.9791  125.6854 C   0  0  0  0  0
  101.4850  108.5403  125.7749 C   0  0  0  0  0
  102.5658  107.8562  125.1858 C   0  0  0  0  0
  103.8748  108.3737  125.2656 C   0  0  0  0  0
  104.1253  109.5767  125.9469 C   0  0  0  0  0
  103.0429  110.2264  126.5357 C   0  0  0  0  0
  101.7712  109.7296  126.4595 C   0  0  0  0  0
  100.9529  110.5701  127.1818 C   0  0  0  0  0
  101.8087  111.5667  127.6507 C   0  0  0  0  0
   98.8512  107.2978  122.5213 C   0  0  0  0  0
   98.2950  106.0116  122.4132 C   0  0  0  0  0
   99.1128  104.8952  122.2186 C   0  0  0  0  0
  100.4971  105.0516  122.1199 C   0  0  0  0  0
  101.0638  106.3246  122.2102 C   0  0  0  0  0
  100.2462  107.4408  122.4046 C   0  0  0  0  0
   99.0119  108.7615  125.2131 N   0  0  0  0  0
  103.0878  111.3553  127.2566 N   0  0  0  0  0
   99.9514  106.7663  125.9859 O   0  0  0  0  0
   97.1736  108.6299  121.5485 O   0  0  0  0  0
  1  2  1  0  0  0
  2  3  1  0  0  0
  4  3  1  0  0  0
  4  5  1  0  0  0
  4 25  1  0  0  0
  5  6  1  0  0  0
  5  7  1  0  0  0
  6  1  1  0  0  0
  7  8  1  0  0  0
  7 19  1  0  0  0
  7 28  1  0  0  0
  8  9  1  0  0  0
  9 25  1  0  0  0
 10 11  1  0  0  0
 12 13  1  0  0  0
 14 15  1  0  0  0
 16 17  1  0  0  0
 16 11  1  0  0  0
 18 26  1  0  0  0
 20 21  1  0  0  0
 22 23  1  0  0  0
 24 19  1  0  0  0
 25 10  1  0  0  0
 26 15  1  0  0  0
 10 27  2  0  0  0
 11 12  2  0  0  0
 13 14  2  0  0  0
 15 16  2  0  0  0
 17 18  2  0  0  0
 19 20  2  0  0  0
 21 22  2  0  0  0
 23 24  2  0  0  0
M  END
> <rmsd>
0.50040102

$$$$
CHEMBL3960865_8GUQ


 27 28  0  0  0  0  0  0  0  0999 V2000
   98.4753  111.6226  123.8612 C   0  0  0  0  0
   99.1530  110.3754  124.3865 C   0  0  0  0  0
   99.1268  109.3070  123.3110 C   0  0  0  0  0
   98.4183  109.8895  125.6230 C   0  0  0  0  0
  100.8287  109.8137  127.2609 C   0  0  0  0  0
  102.0106  110.0284  126.5133 C   0  0  0  0  0
  102.9992  110.8607  127.0606 C   0  0  0  0  0
  102.8342  111.4286  128.3210 C   0  0  0  0  0
  101.6642  111.1731  129.0383 C   0  0  0  0  0
  101.4595  111.7581  130.3716 C   0  0  0  0  0
   99.9472  112.0843  132.3811 C   0  0  0  0  0
   99.1621  113.3970  132.2257 C   0  0  0  0  0
   97.9643  113.2544  131.2984 C   0  0  0  0  0
  100.0626  114.5135  131.7350 C   0  0  0  0  0
   99.2553  111.0814  133.2600 C   0  0  0  0  0
   99.3110  108.8386  134.4089 C   0  0  0  0  0
  102.1911  109.4458  125.1336 C   0  0  0  0  0
  103.6542  109.2606  124.7517 C   0  0  0  0  0
  102.8504  108.0811  125.2439 C   0  0  0  0  0
   99.4648  108.8706  126.6499 S   0  0  0  0  0
   98.6530  108.3922  127.8205 O   0  0  0  0  0
   99.9391  107.6674  125.8850 O   0  0  0  0  0
  102.3478  112.4908  130.8869 O   0  0  0  0  0
   98.1121  111.3186  133.7397 O   0  0  0  0  0
  100.7002  110.3866  128.4892 N   0  0  0  0  0
  100.2517  111.4842  131.0860 N   0  0  0  0  0
   99.9177  109.8529  133.5637 N   0  0  0  0  0
  1  2  1  0  0  0
  2  3  1  0  0  0
  2  4  1  0  0  0
  4 20  1  0  0  0
  5 25  1  0  0  0
  6  7  1  0  0  0
  8  9  1  0  0  0
  9 10  1  0  0  0
 10 26  1  0  0  0
 11 26  1  0  0  0
 11 12  1  0  0  0
 11 15  1  0  0  0
 12 13  1  0  0  0
 12 14  1  0  0  0
 15 27  1  0  0  0
 16 27  1  0  0  0
 17  6  1  0  0  0
 17 18  1  0  0  0
 18 19  1  0  0  0
 19 17  1  0  0  0
 20  5  1  0  0  0
  5  6  2  0  0  0
  7  8  2  0  0  0
  9 25  2  0  0  0
 10 23  2  0  0  0
 15 24  2  0  0  0
 20 21  2  0  0  0
 20 22  2  0  0  0
M  END
> <rmsd>
0.563732743

$$$$
CHEMBL3353835_6PT0


 33 37  0  0  0  0  0  0  0  0999 V2000
   97.4498  111.1168  124.6037 C   0  0  0  0  0
   97.3732  110.6120  123.3072 C   0  0  0  0  0
   98.5144  110.5757  122.5050 C   0  0  0  0  0
   99.7518  111.0368  122.9813 C   0  0  0  0  0
   99.8214  111.5520  124.3026 C   0  0  0  0  0
   98.6672  111.5864  125.0961 C   0  0  0  0  0
  101.0875  112.0839  124.8958 C   0  0  0  0  0
  101.4065  111.4015  127.3056 C   0  0  0  0  0
  100.7464  112.4465  127.9521 C   0  0  0  0  0
  100.7235  112.4333  129.3592 C   0  0  0  0  0
  101.3527  111.3958  130.0836 C   0  0  0  0  0
  102.0171  110.3513  129.4153 C   0  0  0  0  0
  102.0208  110.3888  128.0248 C   0  0  0  0  0
  102.5685  109.5555  127.0832 C   0  0  0  0  0
  102.2703  110.0757  125.8592 C   0  0  0  0  0
  103.4200  108.3266  124.8419 C   0  0  0  0  0
  102.6355  106.2418  123.4931 C   0  0  0  0  0
  101.4341  106.6772  122.7151 C   0  0  0  0  0
  101.4934  106.6718  121.3157 C   0  0  0  0  0
  100.3695  107.0129  120.5596 C   0  0  0  0  0
   99.1756  107.3537  121.1985 C   0  0  0  0  0
   99.1072  107.3597  122.5939 C   0  0  0  0  0
  100.2297  107.0274  123.3585 C   0  0  0  0  0
  100.1217  107.0616  124.7948 C   0  0  0  0  0
  101.5601  111.2191  125.9699 N   0  0  0  0  0
  102.6837  109.4724  124.7205 N   0  0  0  0  0
  103.7245  107.8271  126.0853 N   0  0  0  0  0
  103.3043  108.4301  127.2050 N   0  0  0  0  0
  100.0360  107.0917  125.9485 N   0  0  0  0  0
  100.8935  110.9684  122.1026 N   0  0  0  0  0
  103.9766  107.4663  123.3784 S   0  0  0  0  0
  101.9858  111.4910  122.4040 O   0  0  0  0  0
  100.7736  110.3619  120.8731 O   0  0  0  0  0
  2  3  1  0  0  0
  4  5  1  0  0  0
  4 30  1  0  0  0
  6  1  1  0  0  0
  7  5  1  0  0  0
  7 25  1  0  0  0
  9 10  1  0  0  0
 11 12  1  0  0  0
 13 14  1  0  0  0
 13  8  1  0  0  0
 14 28  1  0  0  0
 15 26  1  0  0  0
 15 25  1  0  0  0
 16 27  1  0  0  0
 16 31  1  0  0  0
 17 31  1  0  0  0
 17 18  1  0  0  0
 19 20  1  0  0  0
 21 22  1  0  0  0
 23 24  1  0  0  0
 23 18  1  0  0  0
 25  8  1  0  0  0
 30 33  1  0  0  0
  1  2  2  0  0  0
  3  4  2  0  0  0
  5  6  2  0  0  0
  8  9  2  0  0  0
 10 11  2  0  0  0
 12 13  2  0  0  0
 14 15  2  0  0  0
 16 26  2  0  0  0
 18 19  2  0  0  0
 20 21  2  0  0  0
 22 23  2  0  0  0
 27 28  2  0  0  0
 30 32  2  0  0  0
 24 29  3  0  0  0
M  CHG  2  30   1  33  -1
M  END
> <rmsd>
0.574224174

$$$$
CHEMBL254530_5ZTY


 24 26  0  0  0  0  0  0  0  0999 V2000
  102.8704  108.9806  125.3481 C   0  0  0  0  0
  102.4349  109.7391  126.5556 C   0  0  0  0  0
  103.4141  110.3387  127.3527 C   0  0  0  0  0
  103.0527  111.0610  128.4918 C   0  0  0  0  0
  101.7044  111.1929  128.8477 C   0  0  0  0  0
  101.3199  111.9552  130.0481 C   0  0  0  0  0
   99.4932  112.8021  131.5863 C   0  0  0  0  0
   99.7989  111.9855  132.8421 C   0  0  0  0  0
   99.4046  112.7493  134.1137 C   0  0  0  0  0
   98.2266  113.7121  133.9108 C   0  0  0  0  0
   97.2799  113.2086  132.8251 C   0  0  0  0  0
   97.9922  113.1014  131.4697 C   0  0  0  0  0
  100.7240  110.5916  128.0484 C   0  0  0  0  0
  101.0753  109.8641  126.9052 C   0  0  0  0  0
   99.5626  111.2155  124.4094 C   0  0  0  0  0
   98.5406  111.5494  123.3524 C   0  0  0  0  0
   97.7716  110.2723  123.1778 C   0  0  0  0  0
   98.7494  109.1834  123.5628 C   0  0  0  0  0
  102.2073  112.4946  130.7648 O   0  0  0  0  0
   98.4585  109.4224  126.5611 O   0  0  0  0  0
  100.0014  107.6476  125.8878 O   0  0  0  0  0
   99.9386  112.0879  130.3996 N   0  0  0  0  0
   99.8420  109.7861  124.3234 N   0  0  0  0  0
   99.7959  109.1362  125.9329 S   0  0  0  0  0
  1  2  1  0  0  0
  3  4  1  0  0  0
  5  6  1  0  0  0
  5 13  1  0  0  0
  6 22  1  0  0  0
  7 22  1  0  0  0
  7  8  1  0  0  0
  8  9  1  0  0  0
  9 10  1  0  0  0
 10 11  1  0  0  0
 11 12  1  0  0  0
 12  7  1  0  0  0
 14  2  1  0  0  0
 15 23  1  0  0  0
 15 16  1  0  0  0
 16 17  1  0  0  0
 17 18  1  0  0  0
 18 23  1  0  0  0
 24 14  1  0  0  0
 24 23  1  0  0  0
  2  3  2  0  0  0
  4  5  2  0  0  0
  6 19  2  0  0  0
 13 14  2  0  0  0
 24 20  2  0  0  0
 24 21  2  0  0  0
M  END
> <rmsd>
0.584237337

$$$$
CHEMBL3354407_6PT0


 30 34  0  0  0  0  0  0  0  0999 V2000
   98.9539  107.5853  131.6358 C   0  0  0  0  0
   99.5229  106.4408  131.0732 C   0  0  0  0  0
   99.7571  106.3809  129.6972 C   0  0  0  0  0
   99.4260  107.4638  128.8761 C   0  0  0  0  0
   98.8567  108.6229  129.4432 C   0  0  0  0  0
   98.6214  108.6719  130.8232 C   0  0  0  0  0
   98.4947  109.8088  128.6033 C   0  0  0  0  0
  100.9530  110.4974  127.9669 C   0  0  0  0  0
  101.9924  110.0750  125.9251 C   0  0  0  0  0
  102.9577  109.3616  126.5715 C   0  0  0  0  0
  103.8635  108.9542  125.6284 C   0  0  0  0  0
  105.0402  108.2185  125.7250 C   0  0  0  0  0
  105.7505  107.9839  124.5344 C   0  0  0  0  0
  105.2773  108.4832  123.3005 C   0  0  0  0  0
  104.0854  109.2281  123.2344 C   0  0  0  0  0
  103.3921  109.4545  124.4250 C   0  0  0  0  0
  101.4719  110.8334  123.5864 C   0  0  0  0  0
   99.9997  110.8319  123.5871 C   0  0  0  0  0
   99.1749  110.0177  124.3387 C   0  0  0  0  0
   97.9044  110.4057  123.9457 C   0  0  0  0  0
   99.6759  107.3582  127.4608 C   0  0  0  0  0
   99.6186  111.2102  128.9186 S   0  0  0  0  0
  100.9882  110.6686  126.6116 N   0  0  0  0  0
  102.2289  110.1392  124.5928 N   0  0  0  0  0
   98.0055  111.3798  123.0197 N   0  0  0  0  0
  102.9350  109.2051  127.9127 N   0  0  0  0  0
  101.9303  109.7668  128.5976 N   0  0  0  0  0
   99.8778  107.2727  126.3245 N   0  0  0  0  0
  102.0774  111.4390  122.6621 O   0  0  0  0  0
   99.2687  111.6068  122.8277 O   0  0  0  0  0
  2  3  1  0  0  0
  4  5  1  0  0  0
  4 21  1  0  0  0
  6  1  1  0  0  0
  7  5  1  0  0  0
  7 22  1  0  0  0
  8 22  1  0  0  0
  8 27  1  0  0  0
  9 23  1  0  0  0
 10 11  1  0  0  0
 10 26  1  0  0  0
 12 13  1  0  0  0
 14 15  1  0  0  0
 16 24  1  0  0  0
 16 11  1  0  0  0
 17 18  1  0  0  0
 18 30  1  0  0  0
 19 20  1  0  0  0
 24 17  1  0  0  0
 24  9  1  0  0  0
 25 30  1  0  0  0
  1  2  2  0  0  0
  3  4  2  0  0  0
  5  6  2  0  0  0
  8 23  2  0  0  0
  9 10  2  0  0  0
 11 12  2  0  0  0
 13 14  2  0  0  0
 15 16  2  0  0  0
 17 29  2  0  0  0
 18 19  2  0  0  0
 20 25  2  0  0  0
 26 27  2  0  0  0
 21 28  3  0  0  0
M  END
> <rmsd>
0.517948687

$$$$
CHEMBL250609_6PT0


 29 32  0  0  0  0  0  0  0  0999 V2000
  103.3310  112.2322  127.4963 C   0  0  0  0  0
  101.9922  112.0391  127.9193 C   0  0  0  0  0
  101.2482  110.9233  127.4971 C   0  0  0  0  0
  101.8875  109.9877  126.6853 C   0  0  0  0  0
  103.1969  110.1574  126.2931 C   0  0  0  0  0
  103.9380  111.2784  126.6522 C   0  0  0  0  0
  103.4650  109.1451  125.4007 C   0  0  0  0  0
  102.3213  108.4471  125.2590 C   0  0  0  0  0
   98.8038  109.8676  125.0088 C   0  0  0  0  0
   99.4186  110.0146  123.6318 C   0  0  0  0  0
  102.2266  107.8705  123.9035 C   0  0  0  0  0
  104.2515  109.1312  124.1554 C   0  0  0  0  0
  104.2020  107.1281  122.7541 C   0  0  0  0  0
  105.2805  107.5223  121.7612 C   0  0  0  0  0
  104.8033  106.3036  123.8914 C   0  0  0  0  0
  104.0816  113.4195  127.9663 C   0  0  0  0  0
  105.4637  113.7003  125.8719 C   0  0  0  0  0
  106.7651  114.3356  125.3871 C   0  0  0  0  0
  107.9118  113.9091  126.2976 C   0  0  0  0  0
  107.6759  114.2869  127.7673 C   0  0  0  0  0
  106.2308  114.6936  128.0738 C   0  0  0  0  0
  109.2087  114.5230  125.8146 C   0  0  0  0  0
  101.3298  108.9432  126.0347 N   0  0  0  0  0
  103.4560  108.3112  123.2095 N   0  0  0  0  0
  105.2863  113.8682  127.3196 N   0  0  0  0  0
   99.6365  108.5827  125.9174 S   0  0  0  0  0
   99.4446  107.2666  125.2168 O   0  0  0  0  0
   99.0518  108.4856  127.2980 O   0  0  0  0  0
  103.6562  114.0458  128.9760 O   0  0  0  0  0
  1 16  1  0  0  0
  2  3  1  0  0  0
  4  5  1  0  0  0
  5  7  1  0  0  0
  6  1  1  0  0  0
  8 23  1  0  0  0
  9 10  1  0  0  0
 11  8  1  0  0  0
 11 24  1  0  0  0
 12 24  1  0  0  0
 12  7  1  0  0  0
 13 24  1  0  0  0
 13 14  1  0  0  0
 13 15  1  0  0  0
 16 25  1  0  0  0
 17 25  1  0  0  0
 17 18  1  0  0  0
 18 19  1  0  0  0
 19 20  1  0  0  0
 19 22  1  0  0  0
 20 21  1  0  0  0
 21 25  1  0  0  0
 23  4  1  0  0  0
 26 23  1  0  0  0
 26  9  1  0  0  0
  1  2  2  0  0  0
  3  4  2  0  0  0
  5  6  2  0  0  0
  7  8  2  0  0  0
 16 29  2  0  0  0
 26 27  2  0  0  0
 26 28  2  0  0  0
M  END
> <rmsd>
0.878426433

$$$$
CHEMBL571095_6PT0


 26 29  0  0  0  0  0  0  0  0999 V2000
  100.0178  110.8428  120.8317 C   0  0  0  0  0
   99.4651  111.1480  122.1803 C   0  0  0  0  0
   97.8307  111.3310  123.7339 C   0  0  0  0  0
  100.2418  111.5683  123.2518 C   0  0  0  0  0
  101.7274  111.7306  123.2770 C   0  0  0  0  0
  102.4218  110.3870  123.4746 C   0  0  0  0  0
  101.3695  108.6816  124.9588 C   0  0  0  0  0
  101.2195  108.4551  126.3267 C   0  0  0  0  0
  100.4801  107.3273  126.9257 C   0  0  0  0  0
  100.1313  107.3057  128.3972 C   0  0  0  0  0
   98.6947  106.8636  128.7370 C   0  0  0  0  0
   97.7406  106.4587  127.6156 C   0  0  0  0  0
   98.5905  106.0885  130.0401 C   0  0  0  0  0
   99.0736  108.3407  128.8259 C   0  0  0  0  0
   98.4934  109.2828  127.7721 C   0  0  0  0  0
   99.3157  108.9209  130.2099 C   0  0  0  0  0
  101.8862  109.4866  126.9682 C   0  0  0  0  0
  102.0841  109.7592  128.3217 C   0  0  0  0  0
  102.8273  110.9044  128.6571 C   0  0  0  0  0
  103.3535  111.7384  127.6478 C   0  0  0  0  0
  103.1450  111.4361  126.2908 C   0  0  0  0  0
  102.4030  110.2931  125.9886 C   0  0  0  0  0
   98.1383  111.0244  122.4514 N   0  0  0  0  0
  102.0870  109.8129  124.7721 N   0  0  0  0  0
   99.2255  111.7679  124.5717 S   0  0  0  0  0
  100.2057  106.3291  126.2062 O   0  0  0  0  0
  1  2  1  0  0  0
  2 23  1  0  0  0
  3 25  1  0  0  0
  4 25  1  0  0  0
  5  4  1  0  0  0
  5  6  1  0  0  0
  6 24  1  0  0  0
  8  9  1  0  0  0
  8 17  1  0  0  0
 10  9  1  0  0  0
 10 11  1  0  0  0
 11 12  1  0  0  0
 11 13  1  0  0  0
 11 14  1  0  0  0
 14 15  1  0  0  0
 14 16  1  0  0  0
 14 10  1  0  0  0
 18 19  1  0  0  0
 20 21  1  0  0  0
 22 24  1  0  0  0
 22 17  1  0  0  0
 24  7  1  0  0  0
  3 23  2  0  0  0
  4  2  2  0  0  0
  7  8  2  0  0  0
  9 26  2  0  0  0
 17 18  2  0  0  0
 19 20  2  0  0  0
 21 22  2  0  0  0
M  END
> <rmsd>
0.874292016

$$$$
CHEMBL572000_6PT0


 23 25  0  0  0  0  0  0  0  0999 V2000
   99.4858  106.8481  127.5483 C   0  0  0  0  0
  101.2814  105.7331  126.9114 C   0  0  0  0  0
  102.4993  105.7625  126.0005 C   0  0  0  0  0
  103.3684  106.9832  126.2783 C   0  0  0  0  0
  102.4620  108.5028  124.5041 C   0  0  0  0  0
  101.8498  109.7550  124.4440 C   0  0  0  0  0
  101.4021  110.4249  123.2078 C   0  0  0  0  0
  100.5162  111.6499  123.2494 C   0  0  0  0  0
   99.0779  111.3947  123.7388 C   0  0  0  0  0
   98.6786  109.9781  124.1489 C   0  0  0  0  0
   98.4999  112.5373  124.5581 C   0  0  0  0  0
   99.3381  111.6527  122.2558 C   0  0  0  0  0
   99.0103  113.0353  121.7141 C   0  0  0  0  0
   99.1452  110.4747  121.3028 C   0  0  0  0  0
  101.7686  110.2122  125.7498 C   0  0  0  0  0
  101.2794  111.4045  126.2839 C   0  0  0  0  0
  101.3487  111.5748  127.6778 C   0  0  0  0  0
  101.9027  110.5678  128.4961 C   0  0  0  0  0
  102.3980  109.3798  127.9305 C   0  0  0  0  0
  102.3155  109.2393  126.5443 C   0  0  0  0  0
  100.3128  106.6245  126.4481 O   0  0  0  0  0
  101.8367  110.0097  122.0997 O   0  0  0  0  0
  102.7288  108.2012  125.7967 N   0  0  0  0  0
  1 21  1  0  0  0
  2 21  1  0  0  0
  2  3  1  0  0  0
  3  4  1  0  0  0
  4 23  1  0  0  0
  6  7  1  0  0  0
  6 15  1  0  0  0
  8  7  1  0  0  0
  8  9  1  0  0  0
  9 10  1  0  0  0
  9 11  1  0  0  0
  9 12  1  0  0  0
 12 13  1  0  0  0
 12 14  1  0  0  0
 12  8  1  0  0  0
 16 17  1  0  0  0
 18 19  1  0  0  0
 20 23  1  0  0  0
 20 15  1  0  0  0
 23  5  1  0  0  0
  5  6  2  0  0  0
  7 22  2  0  0  0
 15 16  2  0  0  0
 17 18  2  0  0  0
 19 20  2  0  0  0
M  END
> <rmsd>
0.569170296

$$$$
CHEMBL570690_6PT0


 22 24  0  0  0  0  0  0  0  0999 V2000
  105.3278  106.7662  123.1128 C   0  0  0  0  0
  105.5093  107.8480  125.0265 C   0  0  0  0  0
  104.8909  108.1186  126.3892 C   0  0  0  0  0
  102.4572  107.9778  125.8027 C   0  0  0  0  0
  101.3440  108.8176  125.8441 C   0  0  0  0  0
   99.9758  108.4370  125.4407 C   0  0  0  0  0
   98.8727  109.4653  125.3219 C   0  0  0  0  0
   97.9660  109.3345  124.0826 C   0  0  0  0  0
   98.2007  108.2022  123.0856 C   0  0  0  0  0
   96.5221  109.7318  124.3423 C   0  0  0  0  0
   99.0196  110.4391  124.1373 C   0  0  0  0  0
   98.5423  111.8491  124.4451 C   0  0  0  0  0
  100.2336  110.3037  123.2199 C   0  0  0  0  0
  101.7896  110.0283  126.3498 C   0  0  0  0  0
  101.1148  111.2143  126.6394 C   0  0  0  0  0
  101.8617  112.2796  127.1722 C   0  0  0  0  0
  103.2457  112.1376  127.4076 C   0  0  0  0  0
  103.8994  110.9277  127.1153 C   0  0  0  0  0
  103.1326  109.8889  126.5850 C   0  0  0  0  0
  104.9138  106.7293  124.4434 O   0  0  0  0  0
   99.7082  107.2161  125.2768 O   0  0  0  0  0
  103.5426  108.6541  126.2481 N   0  0  0  0  0
  1 20  1  0  0  0
  2 20  1  0  0  0
  2  3  1  0  0  0
  3 22  1  0  0  0
  5  6  1  0  0  0
  5 14  1  0  0  0
  7  6  1  0  0  0
  7  8  1  0  0  0
  8  9  1  0  0  0
  8 10  1  0  0  0
  8 11  1  0  0  0
 11 12  1  0  0  0
 11 13  1  0  0  0
 11  7  1  0  0  0
 15 16  1  0  0  0
 17 18  1  0  0  0
 19 22  1  0  0  0
 19 14  1  0  0  0
 22  4  1  0  0  0
  4  5  2  0  0  0
  6 21  2  0  0  0
 14 15  2  0  0  0
 16 17  2  0  0  0
 18 19  2  0  0  0
M  END
> <rmsd>
0.818458974

$$$$
CHEMBL248015_8GUR


 28 29  0  0  0  0  0  0  0  0999 V2000
  102.2686  111.4178  127.3447 C   0  0  0  0  0
  101.4352  110.4863  128.2005 C   0  0  0  0  0
  101.5207  108.3084  128.5689 C   0  0  0  0  0
  102.3126  107.3161  127.7278 C   0  0  0  0  0
  103.7764  108.2029  125.9172 C   0  0  0  0  0
  105.0082  108.0890  126.7579 C   0  0  0  0  0
  103.7877  108.6992  124.6039 C   0  0  0  0  0
  104.9930  109.1962  123.8352 C   0  0  0  0  0
  106.0379  108.0998  123.7385 C   0  0  0  0  0
  104.6252  109.6172  122.4220 C   0  0  0  0  0
  105.5950  110.3963  124.5424 C   0  0  0  0  0
  101.5650  108.0467  125.4687 C   0  0  0  0  0
   99.2382  107.9977  124.7754 C   0  0  0  0  0
   98.9506  109.3604  124.2810 C   0  0  0  0  0
   99.5094  110.4808  124.9120 C   0  0  0  0  0
   99.2151  111.7683  124.4586 C   0  0  0  0  0
   98.3578  111.9458  123.3704 C   0  0  0  0  0
   97.7979  110.8369  122.7213 C   0  0  0  0  0
   96.8338  111.0291  121.5871 C   0  0  0  0  0
   98.0835  109.5486  123.1951 C   0  0  0  0  0
  102.2506  109.4874  128.7324 O   0  0  0  0  0
   98.4828  107.0437  124.4485 O   0  0  0  0  0
  102.5432  107.8455  126.3840 N   0  0  0  0  0
  100.3170  107.7442  125.6845 N   0  0  0  0  0
  102.1937  108.6757  124.0369 S   0  0  0  0  0
   96.9077  109.9640  120.7063 F   0  0  0  0  0
   97.1253  112.1928  120.8962 F   0  0  0  0  0
   95.5483  111.1120  122.0891 F   0  0  0  0  0
  1  2  1  0  0  0
  2 21  1  0  0  0
  3 21  1  0  0  0
  3  4  1  0  0  0
  4 23  1  0  0  0
  6  5  1  0  0  0
  7 25  1  0  0  0
  8  7  1  0  0  0
  8  9  1  0  0  0
  8 10  1  0  0  0
  8 11  1  0  0  0
 12 25  1  0  0  0
 12 23  1  0  0  0
 13 24  1  0  0  0
 13 14  1  0  0  0
 15 16  1  0  0  0
 17 18  1  0  0  0
 19 18  1  0  0  0
 19 26  1  0  0  0
 19 27  1  0  0  0
 19 28  1  0  0  0
 20 14  1  0  0  0
 23  5  1  0  0  0
  5  7  2  0  0  0
 12 24  2  0  0  0
 13 22  2  0  0  0
 14 15  2  0  0  0
 16 17  2  0  0  0
 18 20  2  0  0  0
M  END
> <rmsd>
0.811309576

$$$$
CHEMBL4519981_5ZTY


 26 30  0  0  0  0  0  0  0  0999 V2000
   99.2888  111.7784  122.4887 C   0  0  0  0  0
   97.8924  111.6525  122.6697 C   0  0  0  0  0
   97.3962  110.6344  123.5083 C   0  0  0  0  0
   98.3023  109.7841  124.1326 C   0  0  0  0  0
   99.6730  109.9071  123.9564 C   0  0  0  0  0
  100.1862  110.9090  123.1287 C   0  0  0  0  0
   99.6235  108.1538  125.3549 C   0  0  0  0  0
  101.8745  108.9280  124.6295 C   0  0  0  0  0
  102.4688  109.9833  125.5505 C   0  0  0  0  0
  102.2489  109.6066  127.0028 C   0  0  0  0  0
  102.8294  110.6821  127.8960 C   0  0  0  0  0
   96.9751  112.5927  121.9748 C   0  0  0  0  0
   95.4671  112.5145  122.1259 C   0  0  0  0  0
   95.0776  112.7084  123.6061 C   0  0  0  0  0
   93.5549  112.6033  123.7792 C   0  0  0  0  0
   92.8760  113.6967  122.9403 C   0  0  0  0  0
   93.2376  113.5196  121.4577 C   0  0  0  0  0
   94.7632  113.6123  121.2940 C   0  0  0  0  0
   92.7606  112.1386  120.9822 C   0  0  0  0  0
   93.4388  111.0366  121.8103 C   0  0  0  0  0
   93.0830  111.2232  123.2939 C   0  0  0  0  0
   94.9616  111.1415  121.6367 C   0  0  0  0  0
  100.4149  108.9934  124.6414 N   0  0  0  0  0
  100.0692  107.2191  126.0722 O   0  0  0  0  0
   97.4764  113.4850  121.2346 O   0  0  0  0  0
   97.9790  108.5016  125.1719 S   0  0  0  0  0
  1  2  1  0  0  0
  2 12  1  0  0  0
  3  4  1  0  0  0
  4 26  1  0  0  0
  5  6  1  0  0  0
  5 23  1  0  0  0
  7 26  1  0  0  0
  8 23  1  0  0  0
  8  9  1  0  0  0
  9 10  1  0  0  0
 10 11  1  0  0  0
 13 12  1  0  0  0
 13 14  1  0  0  0
 14 15  1  0  0  0
 15 16  1  0  0  0
 16 17  1  0  0  0
 17 18  1  0  0  0
 17 19  1  0  0  0
 18 13  1  0  0  0
 19 20  1  0  0  0
 20 21  1  0  0  0
 20 22  1  0  0  0
 21 15  1  0  0  0
 22 13  1  0  0  0
 23  7  1  0  0  0
  2  3  2  0  0  0
  4  5  2  0  0  0
  6  1  2  0  0  0
  7 24  2  0  0  0
 12 25  2  0  0  0
M  END
> <rmsd>
0.679003775

$$$$
CHEMBL2152818_5ZTY


 36 40  0  0  0  0  0  0  0  0999 V2000
   92.0506  112.9779  119.4461 C   0  0  0  0  0
   92.9994  113.7358  120.3624 C   0  0  0  0  0
   94.3668  113.7936  119.6765 C   0  0  0  0  0
   92.4322  115.1462  120.6577 C   0  0  0  0  0
   93.4869  115.9609  121.4268 C   0  0  0  0  0
   93.5151  115.3000  122.8089 C   0  0  0  0  0
   92.4739  114.1918  122.6636 C   0  0  0  0  0
   91.9063  113.7074  123.9842 C   0  0  0  0  0
   91.4616  114.8490  121.7775 C   0  0  0  0  0
   93.0019  113.0698  121.7596 C   0  0  0  0  0
   94.5751  111.2581  122.5616 C   0  0  0  0  0
   95.9262  110.8257  122.9985 C   0  0  0  0  0
   96.0799  109.5268  123.5002 C   0  0  0  0  0
   97.3389  107.6967  124.4453 C   0  0  0  0  0
   96.8313  107.6431  125.8836 C   0  0  0  0  0
   97.8781  108.1690  126.8565 C   0  0  0  0  0
   98.8314  107.0628  127.2814 C   0  0  0  0  0
   98.4021  109.8559  123.8711 C   0  0  0  0  0
   99.6532  109.3769  124.2963 C   0  0  0  0  0
  100.7872  110.1897  124.2346 C   0  0  0  0  0
  102.1545  110.1787  126.4447 C   0  0  0  0  0
  101.5283  109.3876  127.4147 C   0  0  0  0  0
  101.3490  109.8795  128.7116 C   0  0  0  0  0
  101.8004  111.1634  129.0394 C   0  0  0  0  0
  102.4319  111.9529  128.0722 C   0  0  0  0  0
  102.6101  111.4607  126.7747 C   0  0  0  0  0
  100.6895  111.4897  123.7333 C   0  0  0  0  0
   99.4547  111.9822  123.3055 C   0  0  0  0  0
   98.3055  111.1772  123.3695 C   0  0  0  0  0
   97.0614  111.6613  122.9343 C   0  0  0  0  0
   94.3240  112.6141  122.1857 N   0  0  0  0  0
   97.2862  109.0632  123.9261 N   0  0  0  0  0
   93.6303  110.4217  122.5356 O   0  0  0  0  0
   99.6986  106.7413  126.2351 O   0  0  0  0  0
   96.9713  112.8372  122.4836 O   0  0  0  0  0
  102.3687  109.5531  124.7802 S   0  0  0  0  0
  1  2  1  0  0  0
  2  3  1  0  0  0
  4  2  1  0  0  0
  4  5  1  0  0  0
  5  6  1  0  0  0
  6  7  1  0  0  0
  7  8  1  0  0  0
  7  9  1  0  0  0
  7 10  1  0  0  0
  9  4  1  0  0  0
 10 31  1  0  0  0
 10  2  1  0  0  0
 11 12  1  0  0  0
 13 32  1  0  0  0
 14 32  1  0  0  0
 14 15  1  0  0  0
 15 16  1  0  0  0
 16 17  1  0  0  0
 17 34  1  0  0  0
 19 20  1  0  0  0
 20 36  1  0  0  0
 21 36  1  0  0  0
 22 23  1  0  0  0
 24 25  1  0  0  0
 26 21  1  0  0  0
 27 28  1  0  0  0
 29 30  1  0  0  0
 29 18  1  0  0  0
 30 12  1  0  0  0
 31 11  1  0  0  0
 32 18  1  0  0  0
 11 33  2  0  0  0
 12 13  2  0  0  0
 18 19  2  0  0  0
 20 27  2  0  0  0
 21 22  2  0  0  0
 23 24  2  0  0  0
 25 26  2  0  0  0
 28 29  2  0  0  0
 30 35  2  0  0  0
M  END
> <rmsd>
0.507504284

$$$$
CHEMBL259253_6PT0


 26 29  0  0  0  0  0  0  0  0999 V2000
  102.4909  110.4852  124.7672 C   0  0  0  0  0
  102.3631  109.6667  126.0502 C   0  0  0  0  0
  103.0152  108.2939  126.0571 C   0  0  0  0  0
  101.0582  109.7348  126.8669 C   0  0  0  0  0
   99.9928  110.6459  126.3036 C   0  0  0  0  0
   99.4113  110.4429  124.9623 C   0  0  0  0  0
   98.9976  111.4842  124.1335 C   0  0  0  0  0
   98.0386  111.7486  121.8445 C   0  0  0  0  0
   96.5183  111.7307  121.8646 C   0  0  0  0  0
   95.9812  112.2350  120.5280 C   0  0  0  0  0
   94.4646  112.4009  120.6321 C   0  0  0  0  0
   94.4677  112.7209  122.8690 C   0  0  0  0  0
   95.9843  112.5906  123.0107 C   0  0  0  0  0
   98.6984  109.6386  123.0285 C   0  0  0  0  0
   98.3577  108.7065  122.0470 C   0  0  0  0  0
   98.5327  107.3462  122.3456 C   0  0  0  0  0
   99.0197  106.9485  123.6060 C   0  0  0  0  0
   99.3484  107.9058  124.5806 C   0  0  0  0  0
   99.2028  109.2624  124.2512 C   0  0  0  0  0
  102.3334  110.4382  127.3681 C   0  0  0  0  0
  102.9509  109.7723  128.5867 C   0  0  0  0  0
  102.4235  111.9609  127.2929 C   0  0  0  0  0
   99.5656  111.5987  127.0096 O   0  0  0  0  0
   94.1518  113.3308  121.6409 O   0  0  0  0  0
   99.7686  107.4889  125.8351 O   0  0  0  0  0
   98.5746  110.9750  122.9565 N   0  0  0  0  0
  1  2  1  0  0  0
  2  3  1  0  0  0
  2  4  1  0  0  0
  4  5  1  0  0  0
  4 20  1  0  0  0
  5  6  1  0  0  0
  7 26  1  0  0  0
  8 26  1  0  0  0
  8  9  1  0  0  0
  9 10  1  0  0  0
 10 11  1  0  0  0
 11 24  1  0  0  0
 12 24  1  0  0  0
 12 13  1  0  0  0
 13  9  1  0  0  0
 15 16  1  0  0  0
 17 18  1  0  0  0
 18 25  1  0  0  0
 19  6  1  0  0  0
 19 14  1  0  0  0
 20 21  1  0  0  0
 20 22  1  0  0  0
 20  2  1  0  0  0
 26 14  1  0  0  0
  5 23  2  0  0  0
  6  7  2  0  0  0
 14 15  2  0  0  0
 16 17  2  0  0  0
 18 19  2  0  0  0
M  END
> <rmsd>
0.477515042

$$$$
CHEMBL3586106_6KPF


 24 26  0  0  0  0  0  0  0  0999 V2000
  101.5158  106.9161  133.7720 C   0  0  0  0  0
  102.8512  106.2117  133.9161 C   0  0  0  0  0
  103.5543  106.1194  132.5711 C   0  0  0  0  0
  103.1038  104.8893  131.7915 C   0  0  0  0  0
  101.7427  105.0926  131.1344 C   0  0  0  0  0
  101.8493  105.8883  129.8748 C   0  0  0  0  0
  101.6108  105.2668  128.6473 C   0  0  0  0  0
  101.6804  105.9983  127.4588 C   0  0  0  0  0
  101.9742  107.3740  127.4939 C   0  0  0  0  0
  102.2375  107.9936  128.7327 C   0  0  0  0  0
  102.1635  107.2506  129.9134 C   0  0  0  0  0
  102.6989  110.2062  127.6680 C   0  0  0  0  0
  101.4244  111.0354  127.6010 C   0  0  0  0  0
  103.8629  111.1550  127.8855 C   0  0  0  0  0
  102.9404  109.3915  126.3719 C   0  0  0  0  0
  102.9999  110.2379  125.0917 C   0  0  0  0  0
  101.6791  110.3572  124.3762 C   0  0  0  0  0
  100.5952  109.6276  124.6779 C   0  0  0  0  0
   99.3316  109.9103  123.9362 C   0  0  0  0  0
  100.5822  108.6380  125.8211 C   0  0  0  0  0
  101.9964  108.1872  126.2255 C   0  0  0  0  0
  101.4633  105.3479  126.2497 O   0  0  0  0  0
  102.6210  109.3388  128.8016 O   0  0  0  0  0
   99.8040  107.5299  125.4783 O   0  0  0  0  0
  1  2  1  0  0  0
  2  3  1  0  0  0
  3  4  1  0  0  0
  4  5  1  0  0  0
  5  6  1  0  0  0
  7  8  1  0  0  0
  8 22  1  0  0  0
  9 10  1  0  0  0
 10 23  1  0  0  0
 11  6  1  0  0  0
 12 23  1  0  0  0
 12 13  1  0  0  0
 12 14  1  0  0  0
 15 12  1  0  0  0
 15 16  1  0  0  0
 16 17  1  0  0  0
 19 18  1  0  0  0
 20 18  1  0  0  0
 20 24  1  0  0  0
 20 21  1  0  0  0
 21 15  1  0  0  0
 21  9  1  0  0  0
  6  7  2  0  0  0
  8  9  2  0  0  0
 10 11  2  0  0  0
 17 18  2  0  0  0
M  END
> <rmsd>
0.884533882

$$$$
CHEMBL3354952_8GUQ


 25 28  0  0  0  0  0  0  0  0999 V2000
   95.1453  105.0120  122.7371 C   0  0  0  0  0
   95.7699  104.9868  124.1192 C   0  0  0  0  0
   94.7146  105.4145  125.1228 C   0  0  0  0  0
   96.2290  103.5682  124.4465 C   0  0  0  0  0
   97.7242  106.1738  125.2901 C   0  0  0  0  0
   98.8294  107.1356  125.1948 C   0  0  0  0  0
  100.0749  108.7969  124.5682 C   0  0  0  0  0
   99.1215  107.9578  124.1229 C   0  0  0  0  0
   98.2279  108.6061  123.1417 C   0  0  0  0  0
   98.8625  110.0021  122.9365 C   0  0  0  0  0
  100.0423  110.1321  123.9177 C   0  0  0  0  0
   98.7306  110.8503  124.1915 C   0  0  0  0  0
  101.2139  109.2489  126.7469 C   0  0  0  0  0
  102.3594  109.9333  126.2913 C   0  0  0  0  0
  103.1527  110.6493  127.1931 C   0  0  0  0  0
  102.8187  110.6877  128.5485 C   0  0  0  0  0
  101.6970  109.9970  129.0105 C   0  0  0  0  0
  100.9014  109.2789  128.1145 C   0  0  0  0  0
   97.2381  103.1559  123.5724 O   0  0  0  0  0
   97.5147  105.5719  126.3777 O   0  0  0  0  0
   96.8958  105.9192  124.1477 N   0  0  0  0  0
   99.6216  107.4777  126.2356 N   0  0  0  0  0
  100.3784  108.4983  125.8490 N   0  0  0  0  0
  103.5902  111.3846  129.4167 F   0  0  0  0  0
  102.7405  109.8738  124.9918 F   0  0  0  0  0
  1  2  1  0  0  0
  2  3  1  0  0  0
  2  4  1  0  0  0
  2 21  1  0  0  0
  4 19  1  0  0  0
  5  6  1  0  0  0
  8  6  1  0  0  0
  9  8  1  0  0  0
 10  9  1  0  0  0
 10 11  1  0  0  0
 11 12  1  0  0  0
 11  7  1  0  0  0
 12 10  1  0  0  0
 14 15  1  0  0  0
 14 25  1  0  0  0
 16 17  1  0  0  0
 16 24  1  0  0  0
 18 13  1  0  0  0
 21  5  1  0  0  0
 23 22  1  0  0  0
 23  7  1  0  0  0
 23 13  1  0  0  0
  5 20  2  0  0  0
  6 22  2  0  0  0
  7  8  2  0  0  0
 13 14  2  0  0  0
 15 16  2  0  0  0
 17 18  2  0  0  0
M  END
> <rmsd>
0.655198932

$$$$
CHEMBL1800175_6KPF


 24 27  0  0  0  0  0  0  0  0999 V2000
   96.1192  103.8713  123.2838 C   0  0  0  0  0
   96.4312  103.1942  124.6040 C   0  0  0  0  0
   96.9248  105.7492  125.8770 C   0  0  0  0  0
   96.2950  106.9606  125.5039 C   0  0  0  0  0
   97.0304  108.1571  125.4217 C   0  0  0  0  0
   98.3900  108.0909  125.7227 C   0  0  0  0  0
   99.0009  106.9257  126.0806 C   0  0  0  0  0
   98.3027  105.7248  126.1692 C   0  0  0  0  0
  100.4666  108.4615  126.0664 C   0  0  0  0  0
  101.7988  109.1680  126.1748 C   0  0  0  0  0
  101.7070  110.3116  127.1698 C   0  0  0  0  0
  102.9036  108.2203  126.6287 C   0  0  0  0  0
  103.8087  108.0070  125.4343 C   0  0  0  0  0
  103.6506  109.2498  124.5930 C   0  0  0  0  0
  102.2229  109.7016  124.8138 C   0  0  0  0  0
   99.0900  110.4652  125.3351 C   0  0  0  0  0
   99.0979  110.6036  123.8246 C   0  0  0  0  0
   97.8423  111.3327  123.3925 C   0  0  0  0  0
   99.1589  112.0736  123.4657 C   0  0  0  0  0
   95.9949  104.2628  125.9612 S   0  0  0  0  0
   96.2899  103.5666  127.2597 O   0  0  0  0  0
   94.5250  104.5748  125.8989 O   0  0  0  0  0
  100.3125  107.1280  126.3018 N   0  0  0  0  0
   99.3024  109.0723  125.7104 N   0  0  0  0  0
  1  2  1  0  0  0
  2 20  1  0  0  0
  4  5  1  0  0  0
  6  7  1  0  0  0
  7 23  1  0  0  0
  8  3  1  0  0  0
  9 24  1  0  0  0
 10  9  1  0  0  0
 10 11  1  0  0  0
 10 12  1  0  0  0
 12 13  1  0  0  0
 13 14  1  0  0  0
 14 15  1  0  0  0
 15 10  1  0  0  0
 16 24  1  0  0  0
 16 17  1  0  0  0
 17 18  1  0  0  0
 18 19  1  0  0  0
 19 17  1  0  0  0
 20  3  1  0  0  0
 24  6  1  0  0  0
  3  4  2  0  0  0
  5  6  2  0  0  0
  7  8  2  0  0  0
  9 23  2  0  0  0
 20 21  2  0  0  0
 20 22  2  0  0  0
M  END
> <rmsd>
0.57875526

$$$$
CHEMBL3354971_8GUQ


 25 28  0  0  0  0  0  0  0  0999 V2000
   95.1444  105.0114  122.7370 C   0  0  0  0  0
   95.7688  104.9864  124.1192 C   0  0  0  0  0
   94.7134  105.4143  125.1226 C   0  0  0  0  0
   97.7232  106.1732  125.2902 C   0  0  0  0  0
   98.8285  107.1350  125.1949 C   0  0  0  0  0
  100.0742  108.7961  124.5683 C   0  0  0  0  0
   99.1206  107.9570  124.1229 C   0  0  0  0  0
   98.2271  108.6054  123.1418 C   0  0  0  0  0
   98.8617  110.0014  122.9368 C   0  0  0  0  0
  100.0414  110.1313  123.9179 C   0  0  0  0  0
   98.7299  110.8495  124.1918 C   0  0  0  0  0
  101.2127  109.2481  126.7471 C   0  0  0  0  0
  100.8993  109.2792  128.1143 C   0  0  0  0  0
  101.6946  109.9971  129.0105 C   0  0  0  0  0
  102.8186  110.6851  128.5497 C   0  0  0  0  0
  103.1516  110.6483  127.1941 C   0  0  0  0  0
  102.3585  109.9324  126.2921 C   0  0  0  0  0
   96.2278  103.5677  124.4468 C   0  0  0  0  0
   96.8948  105.9186  124.1477 N   0  0  0  0  0
   99.6207  107.4769  126.2357 N   0  0  0  0  0
  100.3775  108.4975  125.8492 N   0  0  0  0  0
   97.5136  105.5714  126.3778 O   0  0  0  0  0
   97.2368  103.1551  123.5728 O   0  0  0  0  0
  102.7395  109.8734  124.9925 F   0  0  0  0  0
  101.3755  110.0254  130.3265 F   0  0  0  0  0
  1  2  1  0  0  0
  2  3  1  0  0  0
  2 19  1  0  0  0
  2 18  1  0  0  0
  4  5  1  0  0  0
  7  5  1  0  0  0
  8  7  1  0  0  0
  9  8  1  0  0  0
  9 10  1  0  0  0
 10 11  1  0  0  0
 10  6  1  0  0  0
 11  9  1  0  0  0
 13 14  1  0  0  0
 14 25  1  0  0  0
 15 16  1  0  0  0
 17 24  1  0  0  0
 17 12  1  0  0  0
 18 23  1  0  0  0
 19  4  1  0  0  0
 21 20  1  0  0  0
 21  6  1  0  0  0
 21 12  1  0  0  0
  4 22  2  0  0  0
  5 20  2  0  0  0
  6  7  2  0  0  0
 12 13  2  0  0  0
 14 15  2  0  0  0
 16 17  2  0  0  0
M  END
> <rmsd>
0.655082345

$$$$
CHEMBL556865_8GUQ


 26 29  0  0  0  0  0  0  0  0999 V2000
   98.2444  106.4836  123.0190 C   0  0  0  0  0
   98.6611  105.0551  123.0566 C   0  0  0  0  0
   99.6259  103.1490  123.5431 C   0  0  0  0  0
   99.5825  104.4799  123.9000 C   0  0  0  0  0
  102.0186  106.4231  123.2633 C   0  0  0  0  0
  101.4206  107.8348  123.4147 C   0  0  0  0  0
  101.9545  108.4885  124.6444 C   0  0  0  0  0
  102.6036  107.8162  125.6332 C   0  0  0  0  0
  102.3602  109.8331  126.2608 C   0  0  0  0  0
  102.3911  111.0768  127.1202 C   0  0  0  0  0
  103.2407  110.8660  128.3623 C   0  0  0  0  0
  102.9798  112.2387  126.3420 C   0  0  0  0  0
  100.9850  111.4330  127.5623 C   0  0  0  0  0
  101.0345  110.7924  124.3237 C   0  0  0  0  0
   99.5499  110.6533  124.6065 C   0  0  0  0  0
   98.7954  111.6863  123.7967 C   0  0  0  0  0
   98.8371  110.2465  123.3335 C   0  0  0  0  0
  102.9202  106.3567  125.5610 C   0  0  0  0  0
   98.1740  104.1106  122.2369 N   0  0  0  0  0
  102.1149  105.6700  124.5322 N   0  0  0  0  0
  102.8779  108.6420  126.6606 N   0  0  0  0  0
  101.7790  109.7595  125.0346 N   0  0  0  0  0
   98.7681  102.9951  122.5546 O   0  0  0  0  0
  100.7002  104.2884  126.2973 O   0  0  0  0  0
   99.8212  106.4730  125.6589 O   0  0  0  0  0
  100.5408  105.2523  125.1553 S   0  0  0  0  0
  1  2  1  0  0  0
  3 23  1  0  0  0
  4  2  1  0  0  0
  5 20  1  0  0  0
  5  6  1  0  0  0
  6  7  1  0  0  0
  8 21  1  0  0  0
  9 22  1  0  0  0
 10  9  1  0  0  0
 10 11  1  0  0  0
 10 12  1  0  0  0
 10 13  1  0  0  0
 14 22  1  0  0  0
 14 15  1  0  0  0
 15 16  1  0  0  0
 16 17  1  0  0  0
 17 15  1  0  0  0
 18  8  1  0  0  0
 18 20  1  0  0  0
 19 23  1  0  0  0
 22  7  1  0  0  0
 26  4  1  0  0  0
 26 20  1  0  0  0
  2 19  2  0  0  0
  3  4  2  0  0  0
  7  8  2  0  0  0
  9 21  2  0  0  0
 26 24  2  0  0  0
 26 25  2  0  0  0
M  END
> <rmsd>
0.66656357

$$$$
CHEMBL3410727_8GUS


 26 27  0  0  0  0  0  0  0  0999 V2000
   99.2163  108.6458  124.9230 C   0  0  0  0  0
   98.6713  108.7736  123.6256 C   0  0  0  0  0
   98.5959  110.0568  123.0755 C   0  0  0  0  0
   99.0527  111.1544  123.7956 C   0  0  0  0  0
   98.9628  112.4365  123.2588 C   0  0  0  0  0
   99.4117  113.5298  123.9976 C   0  0  0  0  0
   99.9609  113.3515  125.2773 C   0  0  0  0  0
  100.0704  112.0602  125.8220 C   0  0  0  0  0
   99.5967  110.9516  125.0802 C   0  0  0  0  0
  101.1731  110.7267  127.6327 C   0  0  0  0  0
  102.6729  110.6547  127.3810 C   0  0  0  0  0
  102.9823  110.3883  125.9169 C   0  0  0  0  0
  102.7810  108.9201  125.5946 C   0  0  0  0  0
  100.3457  115.7831  125.5515 C   0  0  0  0  0
   98.1800  107.6219  122.8304 C   0  0  0  0  0
   97.8018  105.1213  122.5964 C   0  0  0  0  0
   98.7616  104.7974  121.4469 C   0  0  0  0  0
  100.2074  104.6704  121.9010 C   0  0  0  0  0
   97.5321  103.9252  123.5105 C   0  0  0  0  0
   98.7071  103.5966  124.4187 C   0  0  0  0  0
   99.3086  107.5198  125.4793 O   0  0  0  0  0
   99.6454  109.7201  125.5813 O   0  0  0  0  0
  100.6405  111.9343  127.0995 O   0  0  0  0  0
  100.4137  114.4447  126.0248 O   0  0  0  0  0
   97.7115  107.8165  121.6749 O   0  0  0  0  0
   98.2276  106.2921  123.3569 N   0  0  0  0  0
  1  2  1  0  0  0
  1 22  1  0  0  0
  2 15  1  0  0  0
  3  4  1  0  0  0
  5  6  1  0  0  0
  7  8  1  0  0  0
  7 24  1  0  0  0
  8 23  1  0  0  0
  9 22  1  0  0  0
  9  4  1  0  0  0
 10 23  1  0  0  0
 10 11  1  0  0  0
 11 12  1  0  0  0
 12 13  1  0  0  0
 14 24  1  0  0  0
 15 26  1  0  0  0
 16 26  1  0  0  0
 16 17  1  0  0  0
 16 19  1  0  0  0
 17 18  1  0  0  0
 19 20  1  0  0  0
  1 21  2  0  0  0
  2  3  2  0  0  0
  4  5  2  0  0  0
  6  7  2  0  0  0
  8  9  2  0  0  0
 15 25  2  0  0  0
M  END
> <rmsd>
0.79665488

$$$$
CHEMBL474602_8GUT


 33 36  0  0  0  0  0  0  0  0999 V2000
   98.9079  106.4778  129.6367 O   0  0  0  0  0
   99.9528  106.5866  128.9413 C   0  0  0  0  0
  100.1478  105.7102  127.7549 C   0  0  0  0  0
   99.2947  107.8784  125.0913 C   0  0  0  0  0
   99.3924  109.1800  124.3904 C   0  0  0  0  0
   98.2131  109.8240  123.9851 C   0  0  0  0  0
   98.2553  111.0718  123.3620 C   0  0  0  0  0
   99.4816  111.6971  123.1402 C   0  0  0  0  0
  100.6646  111.0724  123.5374 C   0  0  0  0  0
  100.6322  109.8219  124.1627 C   0  0  0  0  0
   98.2775  106.9330  125.0174 C   0  0  0  0  0
   97.1144  106.9063  124.1139 C   0  0  0  0  0
   95.8373  106.7870  124.6770 C   0  0  0  0  0
   94.7025  106.7628  123.8633 C   0  0  0  0  0
   94.8367  106.8501  122.4768 C   0  0  0  0  0
   96.1062  106.9434  121.9025 C   0  0  0  0  0
   97.2480  106.9688  122.7094 C   0  0  0  0  0
  100.5395  108.8345  129.9243 C   0  0  0  0  0
   99.8084  109.7583  129.0043 C   0  0  0  0  0
   98.4092  109.7397  128.9771 C   0  0  0  0  0
   97.7124  110.5605  128.0856 C   0  0  0  0  0
   98.4126  111.3986  127.2137 C   0  0  0  0  0
   99.8099  111.4134  127.2299 C   0  0  0  0  0
  100.5104  110.5922  128.1189 C   0  0  0  0  0
   99.6136  106.3796  126.5803 N   0  0  0  0  0
  100.1158  107.5015  126.0884 N   0  0  0  0  0
   98.4945  106.0140  125.9766 N   0  0  0  0  0
  100.9003  107.6210  129.2077 N   0  0  0  0  0
   99.5377  113.2631  122.3619 Cl  0  0  0  0  0
  102.1727  109.0942  124.5963 Cl  0  0  0  0  0
   93.4153  106.8222  121.4565 Cl  0  0  0  0  0
   98.8168  107.0043  121.9163 Cl  0  0  0  0  0
  101.8665  110.6066  128.1113 F   0  0  0  0  0
  2 28  1  0  0  0
  3  2  1  0  0  0
  3 25  1  0  0  0
  4  5  1  0  0  0
  4 11  1  0  0  0
  6  7  1  0  0  0
  8 29  1  0  0  0
  8  9  1  0  0  0
 10 30  1  0  0  0
 10  5  1  0  0  0
 11 12  1  0  0  0
 13 14  1  0  0  0
 15 31  1  0  0  0
 15 16  1  0  0  0
 17 32  1  0  0  0
 17 12  1  0  0  0
 18 28  1  0  0  0
 18 19  1  0  0  0
 20 21  1  0  0  0
 22 23  1  0  0  0
 24 33  1  0  0  0
 24 19  1  0  0  0
 25 26  1  0  0  0
 25 27  1  0  0  0
  2  1  2  0  0  0
  4 26  2  0  0  0
  5  6  2  0  0  0
  7  8  2  0  0  0
  9 10  2  0  0  0
 11 27  2  0  0  0
 12 13  2  0  0  0
 14 15  2  0  0  0
 16 17  2  0  0  0
 19 20  2  0  0  0
 21 22  2  0  0  0
 23 24  2  0  0  0
M  END
> <rmsd>
0.726242185

$$$$
CHEMBL2387073_5ZTY


 23 24  0  0  0  0  0  0  0  0999 V2000
  102.7226  110.6496  127.9802 C   0  0  0  0  0
  102.3894  110.5581  126.5066 C   0  0  0  0  0
  102.2331  109.1019  126.1135 C   0  0  0  0  0
  101.8769  108.9836  124.6370 C   0  0  0  0  0
  100.3116  110.6094  123.6760 C   0  0  0  0  0
  101.4799  111.4095  123.1768 C   0  0  0  0  0
   99.0077  111.0605  123.4191 C   0  0  0  0  0
   98.7409  112.3207  122.6658 C   0  0  0  0  0
   97.9270  110.3165  123.8750 C   0  0  0  0  0
   98.1207  109.1280  124.5794 C   0  0  0  0  0
   96.9291  108.3711  125.0354 C   0  0  0  0  0
   94.4009  108.1512  125.1003 C   0  0  0  0  0
   94.1740  107.0121  124.1652 C   0  0  0  0  0
   93.6871  107.2490  122.8744 C   0  0  0  0  0
   93.4883  106.1809  121.9941 C   0  0  0  0  0
   93.7780  104.8753  122.4023 C   0  0  0  0  0
   94.2672  104.6375  123.6905 C   0  0  0  0  0
   94.4660  105.7053  124.5711 C   0  0  0  0  0
   99.4444  108.6982  124.8206 C   0  0  0  0  0
  100.5082  109.4486  124.3818 N   0  0  0  0  0
   95.6180  108.8674  124.7422 N   0  0  0  0  0
   97.0578  107.2970  125.6838 O   0  0  0  0  0
   99.6526  107.6168  125.4385 O   0  0  0  0  0
  1  2  1  0  0  0
  2  3  1  0  0  0
  3  4  1  0  0  0
  4 20  1  0  0  0
  6  5  1  0  0  0
  7  9  1  0  0  0
  8  7  1  0  0  0
 10 11  1  0  0  0
 10 19  1  0  0  0
 11 21  1  0  0  0
 12 21  1  0  0  0
 12 13  1  0  0  0
 14 15  1  0  0  0
 16 17  1  0  0  0
 18 13  1  0  0  0
 19 20  1  0  0  0
 20  5  1  0  0  0
  5  7  2  0  0  0
  9 10  2  0  0  0
 11 22  2  0  0  0
 13 14  2  0  0  0
 15 16  2  0  0  0
 17 18  2  0  0  0
 19 23  2  0  0  0
M  END
> <rmsd>
0.819495499

$$$$
CHEMBL3353842_6PT0


 30 34  0  0  0  0  0  0  0  0999 V2000
   98.4216  111.8955  124.1464 C   0  0  0  0  0
   98.0420  110.4439  124.4009 C   0  0  0  0  0
   99.1622  109.5783  123.8496 C   0  0  0  0  0
  100.1055  110.5267  123.1434 C   0  0  0  0  0
   99.8765  111.8991  123.7271 C   0  0  0  0  0
  101.5393  110.0841  123.1788 C   0  0  0  0  0
  103.4781  109.1790  124.4961 C   0  0  0  0  0
  104.2897  108.7181  123.4556 C   0  0  0  0  0
  105.5121  108.1070  123.7896 C   0  0  0  0  0
  105.9016  107.9632  125.1389 C   0  0  0  0  0
  105.0758  108.4265  126.1772 C   0  0  0  0  0
  103.8744  109.0275  125.8149 C   0  0  0  0  0
  102.8646  109.5640  126.5612 C   0  0  0  0  0
  101.9113  110.0133  125.6951 C   0  0  0  0  0
  100.6273  110.7201  127.5115 C   0  0  0  0  0
   98.1951  109.8869  128.0446 C   0  0  0  0  0
   98.6210  108.9056  129.0932 C   0  0  0  0  0
   98.3423  109.1801  130.4382 C   0  0  0  0  0
   98.7234  108.2800  131.4364 C   0  0  0  0  0
   99.3836  107.0974  131.0955 C   0  0  0  0  0
   99.6611  106.8130  129.7561 C   0  0  0  0  0
   99.2812  107.7077  128.7504 C   0  0  0  0  0
   99.5925  107.3821  127.3814 C   0  0  0  0  0
  102.1188  109.9463  122.0689 O   0  0  0  0  0
  102.2596  109.7867  124.4001 N   0  0  0  0  0
  100.7850  110.6013  126.1602 N   0  0  0  0  0
  101.5984  110.2558  128.3628 N   0  0  0  0  0
  102.7151  109.6812  127.8985 N   0  0  0  0  0
   99.8441  107.1220  126.2822 N   0  0  0  0  0
   99.1328  111.4457  128.1724 S   0  0  0  0  0
  1  2  1  0  0  0
  2  3  1  0  0  0
  3  4  1  0  0  0
  4  5  1  0  0  0
  4  6  1  0  0  0
  5  1  1  0  0  0
  6 25  1  0  0  0
  8  9  1  0  0  0
 10 11  1  0  0  0
 12 13  1  0  0  0
 12  7  1  0  0  0
 13 28  1  0  0  0
 14 26  1  0  0  0
 14 25  1  0  0  0
 15 27  1  0  0  0
 15 30  1  0  0  0
 16 30  1  0  0  0
 16 17  1  0  0  0
 18 19  1  0  0  0
 20 21  1  0  0  0
 22 23  1  0  0  0
 22 17  1  0  0  0
 25  7  1  0  0  0
  6 24  2  0  0  0
  7  8  2  0  0  0
  9 10  2  0  0  0
 11 12  2  0  0  0
 13 14  2  0  0  0
 15 26  2  0  0  0
 17 18  2  0  0  0
 19 20  2  0  0  0
 21 22  2  0  0  0
 27 28  2  0  0  0
 23 29  3  0  0  0
M  END
> <rmsd>
0.34044522

$$$$
CHEMBL476100_5ZTY


 28 31  0  0  0  0  0  0  0  0999 V2000
   97.7895  103.9789  122.9523 O   0  0  0  0  0
  101.1475  105.7700  125.2111 O   0  0  0  0  0
   97.9606  105.0313  123.6204 C   0  0  0  0  0
   97.7633  104.9856  125.1042 C   0  0  0  0  0
   99.0549  104.5926  125.8122 C   0  0  0  0  0
  100.0064  105.7408  125.8497 C   0  0  0  0  0
  100.8782  107.6060  126.1991 C   0  0  0  0  0
  101.0964  108.9956  126.6638 C   0  0  0  0  0
  100.2358  109.4948  127.6541 C   0  0  0  0  0
  100.3686  110.7995  128.1313 C   0  0  0  0  0
  101.3659  111.6284  127.6206 C   0  0  0  0  0
  102.2269  111.1535  126.6309 C   0  0  0  0  0
  102.1045  109.8472  126.1457 C   0  0  0  0  0
   98.4311  107.5413  123.4887 C   0  0  0  0  0
   97.5374  107.9335  124.4964 C   0  0  0  0  0
   98.4493  110.1236  124.5215 C   0  0  0  0  0
   98.4658  111.4158  125.0533 C   0  0  0  0  0
   99.3800  112.3575  124.5698 C   0  0  0  0  0
  100.2772  112.0101  123.5537 C   0  0  0  0  0
  100.2651  110.7188  123.0162 C   0  0  0  0  0
   99.3550  109.7744  123.4970 C   0  0  0  0  0
   99.3330  108.4792  122.9809 C   0  0  0  0  0
   99.7786  106.8878  126.5159 N   0  0  0  0  0
  101.7219  106.9177  125.4034 N   0  0  0  0  0
   98.4301  106.2118  122.9546 N   0  0  0  0  0
   97.5660  109.2018  124.9882 N   0  0  0  0  0
  101.4947  112.8960  128.0792 F   0  0  0  0  0
  103.2162  109.3694  124.8705 Cl  0  0  0  0  0
  3 25  1  0  0  0
  4  3  1  0  0  0
  4  5  1  0  0  0
  5  6  1  0  0  0
  6  2  1  0  0  0
  7 23  1  0  0  0
  7  8  1  0  0  0
  9 10  1  0  0  0
 11 27  1  0  0  0
 11 12  1  0  0  0
 13 28  1  0  0  0
 13  8  1  0  0  0
 15 26  1  0  0  0
 16 17  1  0  0  0
 18 19  1  0  0  0
 20 21  1  0  0  0
 21 16  1  0  0  0
 22 14  1  0  0  0
 24  2  1  0  0  0
 25 14  1  0  0  0
  3  1  2  0  0  0
  6 23  2  0  0  0
  7 24  2  0  0  0
  8  9  2  0  0  0
 10 11  2  0  0  0
 12 13  2  0  0  0
 14 15  2  0  0  0
 16 26  2  0  0  0
 17 18  2  0  0  0
 19 20  2  0  0  0
 21 22  2  0  0  0
M  END
> <rmsd>
0.576410472

$$$$
CHEMBL578179_6PT0


 26 29  0  0  0  0  0  0  0  0999 V2000
  100.3129  110.3593  123.2831 C   0  0  0  0  0
   99.0589  110.4516  124.1512 C   0  0  0  0  0
   98.5410  111.8453  124.4674 C   0  0  0  0  0
   98.8610  109.4414  125.2988 C   0  0  0  0  0
   99.9679  108.4217  125.4461 C   0  0  0  0  0
  101.3371  108.8149  125.8309 C   0  0  0  0  0
  102.4708  108.0145  125.6960 C   0  0  0  0  0
  104.9287  108.2243  126.0798 C   0  0  0  0  0
  105.6568  108.8253  124.8808 C   0  0  0  0  0
  105.0499  108.3794  123.5912 C   0  0  0  0  0
  105.1107  107.0404  123.1933 C   0  0  0  0  0
  104.5272  106.6470  121.9878 C   0  0  0  0  0
  103.8906  107.6042  121.1941 C   0  0  0  0  0
  104.4078  109.3067  122.7664 C   0  0  0  0  0
  103.1246  109.9082  126.5394 C   0  0  0  0  0
  103.8873  110.9537  127.0621 C   0  0  0  0  0
  103.2139  112.1329  127.4259 C   0  0  0  0  0
  101.8162  112.2398  127.2638 C   0  0  0  0  0
  101.0749  111.1702  126.7319 C   0  0  0  0  0
  101.7689  110.0150  126.3723 C   0  0  0  0  0
   98.0276  109.3351  124.0071 C   0  0  0  0  0
   98.3344  108.2240  123.0053 C   0  0  0  0  0
   96.5650  109.7009  124.1998 C   0  0  0  0  0
   99.7029  107.1971  125.3076 O   0  0  0  0  0
  103.5522  108.6992  126.1351 N   0  0  0  0  0
  103.8451  108.9034  121.5955 N   0  0  0  0  0
  1  2  1  0  0  0
  2  3  1  0  0  0
  2  4  1  0  0  0
  4  5  1  0  0  0
  4 21  1  0  0  0
  5  6  1  0  0  0
  7 25  1  0  0  0
  8 25  1  0  0  0
  8  9  1  0  0  0
  9 10  1  0  0  0
 11 12  1  0  0  0
 13 26  1  0  0  0
 14 10  1  0  0  0
 16 17  1  0  0  0
 18 19  1  0  0  0
 20  6  1  0  0  0
 20 15  1  0  0  0
 21 22  1  0  0  0
 21 23  1  0  0  0
 21  2  1  0  0  0
 25 15  1  0  0  0
  5 24  2  0  0  0
  6  7  2  0  0  0
 10 11  2  0  0  0
 12 13  2  0  0  0
 14 26  2  0  0  0
 15 16  2  0  0  0
 17 18  2  0  0  0
 19 20  2  0  0  0
M  END
> <rmsd>
0.783089578

$$$$
CHEMBL584528_6PT0


 27 30  0  0  0  0  0  0  0  0999 V2000
  101.5918  110.2616  127.3503 C   0  0  0  0  0
  101.6789  109.0471  126.4337 C   0  0  0  0  0
  100.3470  108.7130  125.7982 C   0  0  0  0  0
   99.7020  109.6482  124.8528 C   0  0  0  0  0
  100.1949  110.8923  124.4570 C   0  0  0  0  0
   99.5232  112.7298  122.8937 C   0  0  0  0  0
  100.4670  112.6164  121.6980 C   0  0  0  0  0
   99.9231  111.6645  120.6242 C   0  0  0  0  0
  101.0182  111.2230  119.6428 C   0  0  0  0  0
  102.7472  111.7643  120.9614 C   0  0  0  0  0
  101.9023  112.2885  122.1310 C   0  0  0  0  0
   98.3282  110.5793  123.3904 C   0  0  0  0  0
   97.2160  110.7189  122.5588 C   0  0  0  0  0
   96.2815  109.6684  122.5385 C   0  0  0  0  0
   96.4755  108.5200  123.3357 C   0  0  0  0  0
   97.6063  108.4073  124.1641 C   0  0  0  0  0
   98.5151  109.4654  124.1655 C   0  0  0  0  0
  102.3176  107.8708  127.1686 C   0  0  0  0  0
  103.4981  107.9113  126.2120 C   0  0  0  0  0
  102.8684  109.0766  125.4605 C   0  0  0  0  0
   99.7732  107.6255  126.0801 O   0  0  0  0  0
  102.1450  112.0592  119.7261 O   0  0  0  0  0
   99.3419  111.4457  123.5637 N   0  0  0  0  0
  103.5995  106.7546  125.4592 F   0  0  0  0  0
  104.6792  108.2396  126.8544 F   0  0  0  0  0
  102.5445  108.7481  124.1523 F   0  0  0  0  0
  103.6278  110.2350  125.5293 F   0  0  0  0  0
  2  1  1  0  0  0
  2  3  1  0  0  0
  2 18  1  0  0  0
  3  4  1  0  0  0
  5 23  1  0  0  0
  6 23  1  0  0  0
  6  7  1  0  0  0
  7  8  1  0  0  0
  8  9  1  0  0  0
  9 22  1  0  0  0
 10 22  1  0  0  0
 10 11  1  0  0  0
 11  7  1  0  0  0
 13 14  1  0  0  0
 15 16  1  0  0  0
 17  4  1  0  0  0
 17 12  1  0  0  0
 18 19  1  0  0  0
 19 24  1  0  0  0
 19 25  1  0  0  0
 19 20  1  0  0  0
 20 26  1  0  0  0
 20 27  1  0  0  0
 20  2  1  0  0  0
 23 12  1  0  0  0
  3 21  2  0  0  0
  4  5  2  0  0  0
 12 13  2  0  0  0
 14 15  2  0  0  0
 16 17  2  0  0  0
M  END
> <rmsd>
0.494848222

$$$$
CHEMBL3919875_5ZTY


 26 27  0  0  0  0  0  0  0  0999 V2000
  102.6496  108.1381  125.4837 C   0  0  0  0  0
  102.0121  109.1690  124.5650 C   0  0  0  0  0
  100.5668  109.5499  124.9293 C   0  0  0  0  0
  100.2426  110.8005  124.1068 C   0  0  0  0  0
   98.8002  111.2622  124.2705 C   0  0  0  0  0
  100.4083  109.8761  126.4138 C   0  0  0  0  0
  101.1321  111.0416  128.5143 C   0  0  0  0  0
  102.2414  111.6330  126.3712 C   0  0  0  0  0
   99.5369  107.1507  125.0144 C   0  0  0  0  0
   98.6185  106.2022  124.3671 C   0  0  0  0  0
   98.4810  104.8969  124.8537 C   0  0  0  0  0
   97.6026  104.0183  124.2205 C   0  0  0  0  0
   96.8715  104.4456  123.1124 C   0  0  0  0  0
   97.0268  105.7582  122.6439 C   0  0  0  0  0
   96.2652  106.2405  121.4718 C   0  0  0  0  0
   95.3678  105.3963  120.7972 C   0  0  0  0  0
   94.6524  105.8614  119.6903 C   0  0  0  0  0
   94.8268  107.1746  119.2468 C   0  0  0  0  0
   95.7166  108.0230  119.9101 C   0  0  0  0  0
   96.4322  107.5579  121.0172 C   0  0  0  0  0
   99.4797  109.3264  127.0685 O   0  0  0  0  0
  100.1987  106.7946  126.0264 O   0  0  0  0  0
  101.2621  110.8266  127.0824 N   0  0  0  0  0
   99.6509  108.4843  124.4952 N   0  0  0  0  0
   97.8931  106.5946  123.2833 N   0  0  0  0  0
   93.5379  104.7979  118.8600 Cl  0  0  0  0  0
  1  2  1  0  0  0
  2  3  1  0  0  0
  3  4  1  0  0  0
  3  6  1  0  0  0
  3 24  1  0  0  0
  4  5  1  0  0  0
  6 23  1  0  0  0
  7 23  1  0  0  0
  8 23  1  0  0  0
  9 10  1  0  0  0
 10 25  1  0  0  0
 11 12  1  0  0  0
 13 14  1  0  0  0
 14 15  1  0  0  0
 16 17  1  0  0  0
 17 26  1  0  0  0
 18 19  1  0  0  0
 20 15  1  0  0  0
 24  9  1  0  0  0
  6 21  2  0  0  0
  9 22  2  0  0  0
 10 11  2  0  0  0
 12 13  2  0  0  0
 14 25  2  0  0  0
 15 16  2  0  0  0
 17 18  2  0  0  0
 19 20  2  0  0  0
M  END
> <rmsd>
0.581371784

$$$$
CHEMBL3929481_8GUQ


 28 30  0  0  0  0  0  0  0  0999 V2000
  102.8014  108.8863  125.4773 C   0  0  0  0  0
  101.8394  109.2489  126.5960 C   0  0  0  0  0
  102.6202  109.8069  127.7701 C   0  0  0  0  0
  102.4144  111.3142  127.7479 C   0  0  0  0  0
  101.2149  111.5691  126.8560 C   0  0  0  0  0
   99.9219  110.1888  125.1668 C   0  0  0  0  0
   99.3692  108.9402  124.8079 C   0  0  0  0  0
   97.9259  109.9887  123.2156 C   0  0  0  0  0
   98.4507  111.2400  123.5473 C   0  0  0  0  0
   99.4400  111.3353  124.5225 C   0  0  0  0  0
   96.8960  109.8322  122.1644 C   0  0  0  0  0
   95.9487  112.2117  122.3424 C   0  0  0  0  0
   95.3900  113.2273  121.3548 C   0  0  0  0  0
   95.5799  114.6499  121.8589 C   0  0  0  0  0
   97.0341  115.0624  121.7312 C   0  0  0  0  0
   94.7232  115.5897  121.0376 C   0  0  0  0  0
   95.0516  112.0769  123.5330 C   0  0  0  0  0
   99.3100  106.4791  125.0773 C   0  0  0  0  0
   99.9973  106.0053  123.8102 C   0  0  0  0  0
   99.5283  104.6011  123.4916 C   0  0  0  0  0
   98.9543  105.7782  122.7351 C   0  0  0  0  0
  100.9551  110.3189  126.1653 N   0  0  0  0  0
   98.4029  108.8822  123.8477 N   0  0  0  0  0
   96.0990  110.9229  121.6804 N   0  0  0  0  0
   93.7135  111.6122  123.3826 N   0  0  0  0  0
   96.7120  108.6911  121.6645 O   0  0  0  0  0
   95.4844  112.3739  124.6764 O   0  0  0  0  0
   99.7901  107.7671  125.4428 O   0  0  0  0  0
  2  1  1  0  0  0
  2  3  1  0  0  0
  2 22  1  0  0  0
  3  4  1  0  0  0
  4  5  1  0  0  0
  5 22  1  0  0  0
  6  7  1  0  0  0
  7 28  1  0  0  0
  8 23  1  0  0  0
  8 11  1  0  0  0
  9 10  1  0  0  0
 11 24  1  0  0  0
 12 24  1  0  0  0
 12 13  1  0  0  0
 12 17  1  0  0  0
 13 14  1  0  0  0
 14 15  1  0  0  0
 14 16  1  0  0  0
 17 25  1  0  0  0
 18 28  1  0  0  0
 18 19  1  0  0  0
 19 20  1  0  0  0
 20 21  1  0  0  0
 21 19  1  0  0  0
 22  6  1  0  0  0
  7 23  2  0  0  0
  8  9  2  0  0  0
 10  6  2  0  0  0
 11 26  2  0  0  0
 17 27  2  0  0  0
M  END
> <rmsd>
0.705130935

$$$$
CHEMBL568807_6PT0


 25 28  0  0  0  0  0  0  0  0999 V2000
   98.5374  111.8457  124.4624 C   0  0  0  0  0
   99.0556  110.4520  124.1465 C   0  0  0  0  0
  100.3079  110.3597  123.2761 C   0  0  0  0  0
   98.8618  109.4434  125.2962 C   0  0  0  0  0
   99.9695  108.4242  125.4422 C   0  0  0  0  0
  101.3395  108.8182  125.8238 C   0  0  0  0  0
  102.4694  108.0094  125.7095 C   0  0  0  0  0
  104.9156  108.1814  126.1658 C   0  0  0  0  0
  105.8296  108.9502  125.1964 C   0  0  0  0  0
  105.5380  107.2026  123.5415 C   0  0  0  0  0
  104.2313  106.9140  122.8305 C   0  0  0  0  0
  103.7343  108.2556  122.3631 C   0  0  0  0  0
  104.3777  109.2410  123.3072 C   0  0  0  0  0
  103.1262  109.9072  126.5414 C   0  0  0  0  0
  103.8859  110.9461  127.0815 C   0  0  0  0  0
  103.2133  112.1267  127.4420 C   0  0  0  0  0
  101.8183  112.2406  127.2622 C   0  0  0  0  0
  101.0791  111.1760  126.7176 C   0  0  0  0  0
  101.7727  110.0198  126.3604 C   0  0  0  0  0
   98.0250  109.3343  124.0069 C   0  0  0  0  0
   96.5626  109.6991  124.2029 C   0  0  0  0  0
   98.3303  108.2224  123.0056 C   0  0  0  0  0
   99.7043  107.1994  125.3066 O   0  0  0  0  0
  103.5528  108.6959  126.1400 N   0  0  0  0  0
  105.6234  108.6447  123.7731 N   0  0  0  0  0
  1  2  1  0  0  0
  2  3  1  0  0  0
  2  4  1  0  0  0
  4  5  1  0  0  0
  4 20  1  0  0  0
  5  6  1  0  0  0
  7 24  1  0  0  0
  8 24  1  0  0  0
  8  9  1  0  0  0
  9 25  1  0  0  0
 10 25  1  0  0  0
 10 11  1  0  0  0
 11 12  1  0  0  0
 12 13  1  0  0  0
 13 25  1  0  0  0
 15 16  1  0  0  0
 17 18  1  0  0  0
 19  6  1  0  0  0
 19 14  1  0  0  0
 20 21  1  0  0  0
 20 22  1  0  0  0
 20  2  1  0  0  0
 24 14  1  0  0  0
  5 23  2  0  0  0
  6  7  2  0  0  0
 14 15  2  0  0  0
 16 17  2  0  0  0
 18 19  2  0  0  0
M  END
> <rmsd>
0.783509552

$$$$
CHEMBL3421694_5ZTY


 24 26  0  0  0  0  0  0  0  0999 V2000
  102.1769  110.4116  128.7048 N   0  0  0  0  0
  102.1695  109.7099  124.6644 N   0  0  0  0  0
  101.5091  108.5534  124.6569 N   0  0  0  0  0
  101.5945  109.2932  128.1683 C   0  0  0  0  0
  101.6406  109.1259  126.7962 C   0  0  0  0  0
  102.2701  110.0891  125.9545 C   0  0  0  0  0
  102.8530  111.2225  126.4977 C   0  0  0  0  0
  102.7956  111.3703  127.9154 C   0  0  0  0  0
  103.3817  112.5128  128.4884 C   0  0  0  0  0
  104.0008  113.4762  127.6864 C   0  0  0  0  0
  104.0458  113.3159  126.2988 C   0  0  0  0  0
  103.4730  112.1907  125.7022 C   0  0  0  0  0
  101.1787  108.1826  125.9176 C   0  0  0  0  0
  101.1691  107.8355  123.4361 C   0  0  0  0  0
   99.7128  108.0704  123.0523 C   0  0  0  0  0
   99.4977  109.4817  122.5304 C   0  0  0  0  0
   99.1543  110.4183  123.6726 C   0  0  0  0  0
   98.9995  111.8272  123.1415 C   0  0  0  0  0
  102.1016  110.5654  130.1536 C   0  0  0  0  0
  100.8527  111.3464  130.5319 C   0  0  0  0  0
  100.8226  111.6051  132.0303 C   0  0  0  0  0
  101.8364  112.6673  132.4294 C   0  0  0  0  0
  101.3655  114.0418  131.9926 C   0  0  0  0  0
  100.5414  107.1373  126.2155 O   0  0  0  0  0
  1  4  1  0  0  0
  3  2  1  0  0  0
  3 13  1  0  0  0
  5  6  1  0  0  0
  6  7  1  0  0  0
  8  9  1  0  0  0
  8  1  1  0  0  0
 10 11  1  0  0  0
 12  7  1  0  0  0
 13  5  1  0  0  0
 14  3  1  0  0  0
 14 15  1  0  0  0
 15 16  1  0  0  0
 16 17  1  0  0  0
 17 18  1  0  0  0
 19  1  1  0  0  0
 19 20  1  0  0  0
 20 21  1  0  0  0
 21 22  1  0  0  0
 22 23  1  0  0  0
  4  5  2  0  0  0
  6  2  2  0  0  0
  7  8  2  0  0  0
  9 10  2  0  0  0
 11 12  2  0  0  0
 13 24  2  0  0  0
M  END
> <rmsd>
0.725370884

$$$$
CHEMBL2326290_8GUT


 30 32  0  0  0  0  0  0  0  0999 V2000
   96.5873  114.7079  125.0334 C   0  0  0  0  0
   96.5608  113.2602  125.4894 C   0  0  0  0  0
   95.0292  112.4074  123.7016 C   0  0  0  0  0
   94.2110  111.1944  124.1075 C   0  0  0  0  0
   97.3722  111.4745  123.9078 C   0  0  0  0  0
   97.2030  110.7098  122.7407 C   0  0  0  0  0
   98.2069  109.8395  122.3081 C   0  0  0  0  0
   99.3961  109.7262  123.0340 C   0  0  0  0  0
  100.4530  108.7680  122.5951 C   0  0  0  0  0
   99.3588  106.5072  122.3880 C   0  0  0  0  0
   99.0001  106.7749  121.0557 C   0  0  0  0  0
   98.1952  105.8828  120.3419 C   0  0  0  0  0
   97.7393  104.7118  120.9516 C   0  0  0  0  0
   98.0881  104.4327  122.2743 C   0  0  0  0  0
   98.8929  105.3249  122.9867 C   0  0  0  0  0
  102.0242  108.1704  125.2129 C   0  0  0  0  0
  103.2521  108.1899  124.5430 C   0  0  0  0  0
  104.2489  109.0875  124.9336 C   0  0  0  0  0
  104.0198  109.9680  125.9950 C   0  0  0  0  0
  102.7939  109.9504  126.6661 C   0  0  0  0  0
  102.5504  110.8844  127.7951 C   0  0  0  0  0
  101.7980  109.0513  126.2767 C   0  0  0  0  0
   99.5749  110.4807  124.1969 C   0  0  0  0  0
   98.5714  111.3513  124.6297 C   0  0  0  0  0
   96.3360  112.3728  124.3538 N   0  0  0  0  0
  100.1833  107.4333  123.1261 N   0  0  0  0  0
   96.7287  103.5960  120.0601 Cl  0  0  0  0  0
  100.7738  107.0407  124.7166 S   0  0  0  0  0
  101.3598  105.6567  124.7179 O   0  0  0  0  0
   99.6341  107.0939  125.6934 O   0  0  0  0  0
  1  2  1  0  0  0
  2 25  1  0  0  0
  3 25  1  0  0  0
  3  4  1  0  0  0
  6  7  1  0  0  0
  8 23  1  0  0  0
  9  8  1  0  0  0
  9 26  1  0  0  0
 11 12  1  0  0  0
 13 27  1  0  0  0
 13 14  1  0  0  0
 15 10  1  0  0  0
 17 18  1  0  0  0
 19 20  1  0  0  0
 21 20  1  0  0  0
 22 16  1  0  0  0
 24  5  1  0  0  0
 25  5  1  0  0  0
 26 10  1  0  0  0
 28 26  1  0  0  0
 28 16  1  0  0  0
  5  6  2  0  0  0
  7  8  2  0  0  0
 10 11  2  0  0  0
 12 13  2  0  0  0
 14 15  2  0  0  0
 16 17  2  0  0  0
 18 19  2  0  0  0
 20 22  2  0  0  0
 23 24  2  0  0  0
 28 29  2  0  0  0
 28 30  2  0  0  0
M  END
> <rmsd>
0.758986831

$$$$
CHEMBL3948314_8GUQ


 34 36  0  0  0  0  0  0  0  0999 V2000
   96.7860  116.6876  120.5089 C   0  0  0  0  0
   96.1003  115.3704  120.4407 C   0  0  0  0  0
   95.5689  113.3772  120.7397 C   0  0  0  0  0
   95.5121  111.9612  121.2469 C   0  0  0  0  0
   95.5320  111.0278  120.0463 C   0  0  0  0  0
   94.2100  111.7170  122.0250 C   0  0  0  0  0
   93.4739  114.3817  123.0024 C   0  0  0  0  0
   96.9586  110.4326  122.7284 C   0  0  0  0  0
   98.1502  110.3040  123.5797 C   0  0  0  0  0
  100.0825  111.2977  124.5409 C   0  0  0  0  0
  100.4112  110.1067  125.2053 C   0  0  0  0  0
   99.5818  108.9841  125.0247 C   0  0  0  0  0
   98.4463  109.0917  124.2097 C   0  0  0  0  0
   99.0676  106.6223  125.6077 C   0  0  0  0  0
   99.9348  105.3754  125.6193 C   0  0  0  0  0
   98.0984  106.6197  126.7906 C   0  0  0  0  0
  101.6561  110.0168  126.0580 C   0  0  0  0  0
  102.2824  111.3475  126.4403 C   0  0  0  0  0
  101.9883  111.0604  127.9011 C   0  0  0  0  0
  101.3564  109.7349  127.5179 C   0  0  0  0  0
   96.4837  114.2875  121.1410 N   0  0  0  0  0
   94.6864  113.8894  119.8565 N   0  0  0  0  0
   96.6795  111.6847  122.0872 N   0  0  0  0  0
   98.9745  111.3709  123.7578 N   0  0  0  0  0
   95.0522  115.1243  119.6968 O   0  0  0  0  0
   95.2704  112.8433  124.2637 O   0  0  0  0  0
   92.9290  112.1400  124.3448 O   0  0  0  0  0
   96.1844  109.4493  122.5697 O   0  0  0  0  0
   99.9050  107.7735  125.6516 O   0  0  0  0  0
   93.9933  112.7492  123.4775 S   0  0  0  0  0
   97.2899  107.7397  126.7361 F   0  0  0  0  0
   98.7991  106.6275  127.9844 F   0  0  0  0  0
   97.2975  105.4930  126.7394 F   0  0  0  0  0
  102.5946  109.1395  125.5444 F   0  0  0  0  0
  1  2  1  0  0  0
  2 25  1  0  0  0
  3 21  1  0  0  0
  4  3  1  0  0  0
  4  5  1  0  0  0
  4  6  1  0  0  0
  4 23  1  0  0  0
  6 30  1  0  0  0
  8  9  1  0  0  0
 10 24  1  0  0  0
 11 12  1  0  0  0
 12 29  1  0  0  0
 13  9  1  0  0  0
 14 29  1  0  0  0
 14 15  1  0  0  0
 14 16  1  0  0  0
 16 31  1  0  0  0
 16 32  1  0  0  0
 16 33  1  0  0  0
 17 11  1  0  0  0
 17 18  1  0  0  0
 17 34  1  0  0  0
 18 19  1  0  0  0
 19 20  1  0  0  0
 20 17  1  0  0  0
 22 25  1  0  0  0
 23  8  1  0  0  0
 30  7  1  0  0  0
  2 21  2  0  0  0
  3 22  2  0  0  0
  8 28  2  0  0  0
  9 24  2  0  0  0
 10 11  2  0  0  0
 12 13  2  0  0  0
 30 26  2  0  0  0
 30 27  2  0  0  0
M  END
> <rmsd>
0.601984739

$$$$
CHEMBL3958413_8GUQ


 32 35  0  0  0  0  0  0  0  0999 V2000
  105.8948  110.2164  124.5182 C   0  0  0  0  0
  104.5115  109.7162  124.7332 C   0  0  0  0  0
  102.6791  109.2148  125.5936 C   0  0  0  0  0
  101.5813  108.9650  126.6011 C   0  0  0  0  0
  101.3879  110.2209  127.4358 C   0  0  0  0  0
  100.2596  108.6499  125.9303 C   0  0  0  0  0
   98.4741  109.6414  124.1665 C   0  0  0  0  0
   98.7727  110.9687  123.5664 C   0  0  0  0  0
   99.9915  110.8794  124.4130 C   0  0  0  0  0
  102.3416  106.5531  127.1149 C   0  0  0  0  0
  102.7411  105.5693  128.1317 C   0  0  0  0  0
  103.4463  103.3643  128.6702 C   0  0  0  0  0
  103.4827  103.6726  130.0367 C   0  0  0  0  0
  103.1682  104.9811  130.4453 C   0  0  0  0  0
  102.7879  105.9267  129.4829 C   0  0  0  0  0
  102.9206  106.6204  132.2877 C   0  0  0  0  0
  103.0801  106.6661  133.7965 C   0  0  0  0  0
  103.9401  102.6368  131.0259 C   0  0  0  0  0
  103.1447  101.3497  130.8696 C   0  0  0  0  0
  102.8181  102.3016  131.9955 C   0  0  0  0  0
  103.8693  109.7691  125.9143 N   0  0  0  0  0
  102.6243  108.8318  124.2999 N   0  0  0  0  0
   99.6830  109.5662  124.9973 N   0  0  0  0  0
  101.9850  107.8872  127.5080 N   0  0  0  0  0
  103.0754  104.3035  127.7606 N   0  0  0  0  0
  103.7746  109.1670  123.8017 O   0  0  0  0  0
   99.6375  107.5891  126.2075 O   0  0  0  0  0
  102.3122  106.2178  125.8998 O   0  0  0  0  0
  103.2405  105.3224  131.8008 O   0  0  0  0  0
  102.7608  107.9316  134.2493 F   0  0  0  0  0
  104.3880  106.3763  134.1387 F   0  0  0  0  0
  102.2340  105.7445  134.3851 F   0  0  0  0  0
  1  2  1  0  0  0
  2 26  1  0  0  0
  3 21  1  0  0  0
  4  3  1  0  0  0
  4  5  1  0  0  0
  4  6  1  0  0  0
  4 24  1  0  0  0
  6 23  1  0  0  0
  7 23  1  0  0  0
  7  8  1  0  0  0
  8  9  1  0  0  0
  9 23  1  0  0  0
 10 11  1  0  0  0
 12 25  1  0  0  0
 13 14  1  0  0  0
 14 29  1  0  0  0
 15 11  1  0  0  0
 16 29  1  0  0  0
 16 17  1  0  0  0
 17 30  1  0  0  0
 17 31  1  0  0  0
 17 32  1  0  0  0
 18 13  1  0  0  0
 18 19  1  0  0  0
 19 20  1  0  0  0
 20 18  1  0  0  0
 22 26  1  0  0  0
 24 10  1  0  0  0
  2 21  2  0  0  0
  3 22  2  0  0  0
  6 27  2  0  0  0
 10 28  2  0  0  0
 11 25  2  0  0  0
 12 13  2  0  0  0
 14 15  2  0  0  0
M  END
> <rmsd>
0.680687249

$$$$
CHEMBL3940691_8GUQ


 30 32  0  0  0  0  0  0  0  0999 V2000
  102.0246  111.1286  127.8590 C   0  0  0  0  0
  101.3491  109.8092  127.5304 C   0  0  0  0  0
  101.6533  110.0243  126.0611 C   0  0  0  0  0
  102.3226  111.3486  126.3871 C   0  0  0  0  0
  100.4085  110.1137  125.2079 C   0  0  0  0  0
  100.0565  111.3148  124.5741 C   0  0  0  0  0
   98.1366  110.3123  123.5972 C   0  0  0  0  0
   98.4519  109.0923  124.2029 C   0  0  0  0  0
   99.5937  108.9835  125.0089 C   0  0  0  0  0
   99.2188  106.5552  125.3920 C   0  0  0  0  0
   99.8220  105.7903  124.2231 C   0  0  0  0  0
   96.9445  110.4377  122.7458 C   0  0  0  0  0
   95.5503  111.9500  121.1942 C   0  0  0  0  0
   94.1878  111.4778  121.7153 C   0  0  0  0  0
   95.1851  113.4322  121.2114 C   0  0  0  0  0
   95.8751  111.5076  119.7640 C   0  0  0  0  0
   96.0167  110.0286  119.6063 C   0  0  0  0  0
   98.9451  111.3877  123.7959 N   0  0  0  0  0
   96.6422  111.6986  122.1343 N   0  0  0  0  0
   94.8798  109.1795  119.7168 N   0  0  0  0  0
   99.9283  107.7686  125.6221 O   0  0  0  0  0
   96.1894  109.4436  122.5668 O   0  0  0  0  0
   93.3061  113.6104  123.2213 O   0  0  0  0  0
   92.4512  113.4363  120.8536 O   0  0  0  0  0
   97.1429  109.5345  119.3413 O   0  0  0  0  0
  101.1536  105.5204  124.4786 F   0  0  0  0  0
   99.1406  104.5996  124.0620 F   0  0  0  0  0
   99.7178  106.5322  123.0612 F   0  0  0  0  0
  102.5646  109.0994  125.5827 F   0  0  0  0  0
   93.5560  113.1231  121.8223 S   0  0  0  0  0
  1  2  1  0  0  0
  2  3  1  0  0  0
  3  4  1  0  0  0
  3  5  1  0  0  0
  3 29  1  0  0  0
  4  1  1  0  0  0
  6 18  1  0  0  0
  7  8  1  0  0  0
  7 12  1  0  0  0
  9 21  1  0  0  0
  9  5  1  0  0  0
 10 21  1  0  0  0
 10 11  1  0  0  0
 11 26  1  0  0  0
 11 27  1  0  0  0
 11 28  1  0  0  0
 12 19  1  0  0  0
 13 19  1  0  0  0
 13 14  1  0  0  0
 13 16  1  0  0  0
 14 30  1  0  0  0
 15 13  1  0  0  0
 16 17  1  0  0  0
 17 20  1  0  0  0
 30 15  1  0  0  0
  5  6  2  0  0  0
  7 18  2  0  0  0
  8  9  2  0  0  0
 12 22  2  0  0  0
 17 25  2  0  0  0
 30 23  2  0  0  0
 30 24  2  0  0  0
M  END
> <rmsd>
0.61449796

$$$$
CHEMBL3904362_8GUQ


 31 33  0  0  0  0  0  0  0  0999 V2000
   99.1078  108.5248  128.1231 C   0  0  0  0  0
  100.1189  107.8150  127.2331 C   0  0  0  0  0
  100.3598  106.3881  127.7157 C   0  0  0  0  0
   99.5493  108.9491  125.0877 C   0  0  0  0  0
   98.3899  109.0819  124.3210 C   0  0  0  0  0
   98.1923  110.2171  123.5318 C   0  0  0  0  0
  100.2891  111.0867  124.2271 C   0  0  0  0  0
  100.5497  109.9536  125.0139 C   0  0  0  0  0
  101.8728  109.8597  125.7470 C   0  0  0  0  0
  103.0122  110.6314  125.0986 C   0  0  0  0  0
  103.7580  109.3328  124.8619 C   0  0  0  0  0
  102.6204  108.5606  125.5010 C   0  0  0  0  0
   96.9676  110.3654  122.7320 C   0  0  0  0  0
   94.7271  109.3862  121.9822 C   0  0  0  0  0
   93.7755  108.2659  122.4031 C   0  0  0  0  0
   93.8139  110.5188  122.4515 C   0  0  0  0  0
   94.9591  109.4308  120.4693 C   0  0  0  0  0
   95.6557  108.2118  119.9543 C   0  0  0  0  0
   99.1829  105.6606  127.6744 F   0  0  0  0  0
  100.8422  106.4052  129.0120 F   0  0  0  0  0
  101.2959  105.7794  126.9004 F   0  0  0  0  0
  101.7699  110.1664  127.0918 F   0  0  0  0  0
   99.6603  107.8023  125.8847 O   0  0  0  0  0
   96.8030  111.3970  122.0256 O   0  0  0  0  0
   92.3839  109.3717  124.5105 O   0  0  0  0  0
   91.2860  109.4391  122.2398 O   0  0  0  0  0
   96.8465  107.9702  120.2835 O   0  0  0  0  0
   99.1372  111.1938  123.5157 N   0  0  0  0  0
   95.9662  109.3400  122.7548 N   0  0  0  0  0
   94.9756  107.3335  119.0662 N   0  0  0  0  0
   92.5693  109.4005  123.0199 S   0  0  0  0  0
  2  1  1  0  0  0
  2  3  1  0  0  0
  2 23  1  0  0  0
  3 19  1  0  0  0
  3 20  1  0  0  0
  3 21  1  0  0  0
  4 23  1  0  0  0
  5  6  1  0  0  0
  6 13  1  0  0  0
  7 28  1  0  0  0
  8  4  1  0  0  0
  9  8  1  0  0  0
  9 10  1  0  0  0
  9 22  1  0  0  0
 10 11  1  0  0  0
 11 12  1  0  0  0
 12  9  1  0  0  0
 13 29  1  0  0  0
 14 29  1  0  0  0
 14 15  1  0  0  0
 14 17  1  0  0  0
 15 31  1  0  0  0
 16 14  1  0  0  0
 17 18  1  0  0  0
 18 30  1  0  0  0
 31 16  1  0  0  0
  4  5  2  0  0  0
  6 28  2  0  0  0
  7  8  2  0  0  0
 13 24  2  0  0  0
 18 27  2  0  0  0
 31 25  2  0  0  0
 31 26  2  0  0  0
M  END
> <rmsd>
0.65207386

$$$$
CHEMBL1807841_6PT0


 32 35  0  0  0  0  0  0  0  0999 V2000
  103.2555  109.5647  125.1530 C   0  0  0  0  0
  102.1804  109.9268  126.1240 C   0  0  0  0  0
  101.6077  109.0476  127.0374 C   0  0  0  0  0
  101.9022  107.5900  127.1988 C   0  0  0  0  0
  101.1113  106.7627  126.1941 C   0  0  0  0  0
   99.2188  105.4142  126.5211 C   0  0  0  0  0
   97.6921  105.4023  126.6405 C   0  0  0  0  0
   97.5089  107.4133  125.6117 C   0  0  0  0  0
   99.0249  107.5270  125.4370 C   0  0  0  0  0
  100.6218  109.7660  127.6782 C   0  0  0  0  0
   99.7194  109.3832  128.6674 C   0  0  0  0  0
   98.8050  110.3500  129.1388 C   0  0  0  0  0
   97.7746  108.7658  130.7511 C   0  0  0  0  0
   98.8763  108.6004  131.7837 C   0  0  0  0  0
   98.8282  111.6572  128.6060 C   0  0  0  0  0
   99.7462  112.0128  127.6029 C   0  0  0  0  0
  100.6313  111.0325  127.1498 C   0  0  0  0  0
  101.8879  112.3018  125.3936 C   0  0  0  0  0
  100.8376  113.2451  124.9586 C   0  0  0  0  0
  101.0756  114.6169  125.1142 C   0  0  0  0  0
  100.1140  115.5532  124.7363 C   0  0  0  0  0
   98.9036  115.1267  124.1921 C   0  0  0  0  0
   98.6512  113.7649  124.0130 C   0  0  0  0  0
   99.6191  112.8115  124.3840 C   0  0  0  0  0
   99.6936  106.7976  126.5158 N   0  0  0  0  0
  101.5767  111.1425  126.1890 N   0  0  0  0  0
   97.1222  106.0619  125.5349 O   0  0  0  0  0
   97.8637  110.0431  130.1273 O   0  0  0  0  0
  103.0865  112.5362  125.0801 O   0  0  0  0  0
   98.7091  109.5229  132.7995 F   0  0  0  0  0
   97.1142  113.2916  123.3056 Cl  0  0  0  0  0
   99.3222  111.1012  124.0570 Cl  0  0  0  0  0
  1  2  1  0  0  0
  3 10  1  0  0  0
  4  3  1  0  0  0
  4  5  1  0  0  0
  5 25  1  0  0  0
  6 25  1  0  0  0
  6  7  1  0  0  0
  7 27  1  0  0  0
  8 27  1  0  0  0
  8  9  1  0  0  0
  9 25  1  0  0  0
 11 12  1  0  0  0
 12 28  1  0  0  0
 13 28  1  0  0  0
 13 14  1  0  0  0
 14 30  1  0  0  0
 15 16  1  0  0  0
 17 26  1  0  0  0
 17 10  1  0  0  0
 18 19  1  0  0  0
 20 21  1  0  0  0
 22 23  1  0  0  0
 23 31  1  0  0  0
 24 32  1  0  0  0
 24 19  1  0  0  0
 26 18  1  0  0  0
 26  2  1  0  0  0
  2  3  2  0  0  0
 10 11  2  0  0  0
 12 15  2  0  0  0
 16 17  2  0  0  0
 18 29  2  0  0  0
 19 20  2  0  0  0
 21 22  2  0  0  0
 23 24  2  0  0  0
M  ISO  1  30  -1
M  END
> <rmsd>
0.607163787

$$$$
CHEMBL480540_5ZTY


 33 36  0  0  0  0  0  0  0  0999 V2000
   96.1616  107.4862  125.5762 O   0  0  0  0  0
   97.0407  107.4368  124.6755 C   0  0  0  0  0
   98.0239  106.3196  124.6627 C   0  0  0  0  0
  101.0992  107.8244  125.5439 C   0  0  0  0  0
  102.2435  108.7064  125.2511 C   0  0  0  0  0
  103.0317  108.4084  124.1321 C   0  0  0  0  0
  104.1310  109.2052  123.8024 C   0  0  0  0  0
  104.4470  110.3147  124.5849 C   0  0  0  0  0
  103.6484  110.6441  125.6815 C   0  0  0  0  0
  102.5455  109.8526  126.0203 C   0  0  0  0  0
  100.7409  107.2130  126.7403 C   0  0  0  0  0
  101.4226  107.2475  128.0474 C   0  0  0  0  0
  100.6442  107.5247  129.1809 C   0  0  0  0  0
  101.2196  107.5573  130.4527 C   0  0  0  0  0
  102.5831  107.3044  130.6049 C   0  0  0  0  0
  103.3650  106.9948  129.4887 C   0  0  0  0  0
  102.7968  106.9592  128.2091 C   0  0  0  0  0
   96.3827  109.7097  123.8082 C   0  0  0  0  0
   96.6941  110.5917  122.6450 C   0  0  0  0  0
   95.7394  110.7188  121.6320 C   0  0  0  0  0
   95.9986  111.5174  120.5167 C   0  0  0  0  0
   97.2177  112.1907  120.4072 C   0  0  0  0  0
   98.1780  112.0665  121.4139 C   0  0  0  0  0
   97.9243  111.2706  122.5353 C   0  0  0  0  0
   99.2680  106.7683  125.2633 N   0  0  0  0  0
  100.1575  107.5188  124.6322 N   0  0  0  0  0
   99.5715  106.5772  126.5371 N   0  0  0  0  0
   97.1558  108.4831  123.7131 N   0  0  0  0  0
  105.8191  111.3177  124.1647 Cl  0  0  0  0  0
  101.5205  110.4027  127.3351 Cl  0  0  0  0  0
  103.3111  107.3592  132.1950 Cl  0  0  0  0  0
  103.8177  106.4263  126.8821 Cl  0  0  0  0  0
   99.1603  111.1438  123.7786 Cl  0  0  0  0  0
  2 28  1  0  0  0
  3  2  1  0  0  0
  3 25  1  0  0  0
  4  5  1  0  0  0
  4 11  1  0  0  0
  6  7  1  0  0  0
  8 29  1  0  0  0
  8  9  1  0  0  0
 10 30  1  0  0  0
 10  5  1  0  0  0
 11 12  1  0  0  0
 13 14  1  0  0  0
 15 31  1  0  0  0
 15 16  1  0  0  0
 17 32  1  0  0  0
 17 12  1  0  0  0
 18 28  1  0  0  0
 18 19  1  0  0  0
 20 21  1  0  0  0
 22 23  1  0  0  0
 24 33  1  0  0  0
 24 19  1  0  0  0
 25 26  1  0  0  0
 25 27  1  0  0  0
  2  1  2  0  0  0
  4 26  2  0  0  0
  5  6  2  0  0  0
  7  8  2  0  0  0
  9 10  2  0  0  0
 11 27  2  0  0  0
 12 13  2  0  0  0
 14 15  2  0  0  0
 16 17  2  0  0  0
 19 20  2  0  0  0
 21 22  2  0  0  0
 23 24  2  0  0  0
M  END
> <rmsd>
0.615346611

$$$$
CHEMBL4070881_5ZTY


 32 36  0  0  0  0  0  0  0  0999 V2000
  100.1826  105.8332  125.5567 C   0  0  0  0  0
  101.3735  107.9964  125.8224 C   0  0  0  0  0
  102.2744  107.6439  124.8050 C   0  0  0  0  0
  103.3025  108.4992  124.4258 C   0  0  0  0  0
  103.4517  109.7251  125.0620 C   0  0  0  0  0
  102.5712  110.1158  126.0800 C   0  0  0  0  0
  101.5049  109.2595  126.4726 C   0  0  0  0  0
  100.8189  110.8864  128.0764 C   0  0  0  0  0
  101.8611  111.7494  127.7349 C   0  0  0  0  0
  102.7455  111.3567  126.7145 C   0  0  0  0  0
  101.9754  113.0404  128.4591 C   0  0  0  0  0
  103.2418  115.2413  128.8322 C   0  0  0  0  0
  104.5091  115.9033  128.2647 C   0  0  0  0  0
  104.7364  117.2715  128.9288 C   0  0  0  0  0
  103.5217  118.1738  128.6582 C   0  0  0  0  0
  102.2495  117.5259  129.2280 C   0  0  0  0  0
  102.0358  116.1603  128.5565 C   0  0  0  0  0
  102.4168  117.3252  130.7433 C   0  0  0  0  0
  103.6303  116.4239  131.0257 C   0  0  0  0  0
  104.8943  117.0784  130.4456 C   0  0  0  0  0
  103.4159  115.0591  130.3527 C   0  0  0  0  0
   99.4793  108.9200  127.9024 C   0  0  0  0  0
   98.2069  109.4540  127.2544 C   0  0  0  0  0
   98.1919  110.4908  125.3002 C   0  0  0  0  0
   99.1363  110.5362  124.1167 C   0  0  0  0  0
  100.3654  107.0947  126.1869 O   0  0  0  0  0
  103.6964  112.1102  126.3643 O   0  0  0  0  0
  101.1137  113.3418  129.3310 O   0  0  0  0  0
   98.2317  109.2211  125.8777 O   0  0  0  0  0
  100.6428  109.6854  127.4624 N   0  0  0  0  0
  103.0522  113.9476  128.1833 N   0  0  0  0  0
   99.1177  111.8007  123.5610 F   0  0  0  0  0
  1 26  1  0  0  0
  2 26  1  0  0  0
  3  4  1  0  0  0
  5  6  1  0  0  0
  7 30  1  0  0  0
  7  2  1  0  0  0
  9 10  1  0  0  0
  9 11  1  0  0  0
 10  6  1  0  0  0
 11 31  1  0  0  0
 12 31  1  0  0  0
 12 13  1  0  0  0
 13 14  1  0  0  0
 14 15  1  0  0  0
 15 16  1  0  0  0
 16 17  1  0  0  0
 16 18  1  0  0  0
 17 12  1  0  0  0
 18 19  1  0  0  0
 19 20  1  0  0  0
 19 21  1  0  0  0
 20 14  1  0  0  0
 21 12  1  0  0  0
 22 30  1  0  0  0
 22 23  1  0  0  0
 23 29  1  0  0  0
 24 29  1  0  0  0
 24 25  1  0  0  0
 25 32  1  0  0  0
 30  8  1  0  0  0
  2  3  2  0  0  0
  4  5  2  0  0  0
  6  7  2  0  0  0
  8  9  2  0  0  0
 10 27  2  0  0  0
 11 28  2  0  0  0
M  ISO  1  32  -1
M  END
> <rmsd>
0.421702862

$$$$
CHEMBL4216075_5ZTY


 26 25  0  0  0  0  0  0  0  0999 V2000
  108.3147  114.2614  127.3103 C   0  0  0  0  0
  107.4723  114.1354  126.0546 C   0  0  0  0  0
  106.0491  114.6037  126.3169 C   0  0  0  0  0
  105.2753  113.5860  127.1484 C   0  0  0  0  0
  104.9570  112.3396  126.3388 C   0  0  0  0  0
  103.8435  112.6066  125.3731 C   0  0  0  0  0
  102.6973  111.9076  125.3555 C   0  0  0  0  0
  102.3540  110.7683  126.2815 C   0  0  0  0  0
  102.2301  111.2265  127.7241 C   0  0  0  0  0
  103.3290  109.6320  126.1676 C   0  0  0  0  0
  103.1627  108.6107  125.3190 C   0  0  0  0  0
  101.9883  108.5140  124.3984 C   0  0  0  0  0
  102.0639  107.2435  123.6137 C   0  0  0  0  0
  101.1148  106.8837  122.7427 C   0  0  0  0  0
   99.9103  107.7283  122.4689 C   0  0  0  0  0
  100.2453  108.7896  121.4690 C   0  0  0  0  0
   99.6726  109.9976  121.4794 C   0  0  0  0  0
   98.6802  110.4231  122.5162 C   0  0  0  0  0
   99.4083  110.9108  123.7583 C   0  0  0  0  0
   98.4022  111.2555  124.8406 C   0  0  0  0  0
   98.3096  110.1575  125.8430 C   0  0  0  0  0
   97.6802  107.7640  126.3929 C   0  0  0  0  0
   99.0257  107.2570  126.8850 C   0  0  0  0  0
   98.6157  110.3904  127.0432 O   0  0  0  0  0
   99.7071  106.6378  125.8368 O   0  0  0  0  0
   97.8555  108.8598  125.4472 N   0  0  0  0  0
  1  2  1  0  0  0
  2  3  1  0  0  0
  3  4  1  0  0  0
  4  5  1  0  0  0
  5  6  1  0  0  0
  8  7  1  0  0  0
  8  9  1  0  0  0
  8 10  1  0  0  0
 12 11  1  0  0  0
 12 13  1  0  0  0
 15 14  1  0  0  0
 15 16  1  0  0  0
 18 17  1  0  0  0
 18 19  1  0  0  0
 19 20  1  0  0  0
 20 21  1  0  0  0
 21 26  1  0  0  0
 22 26  1  0  0  0
 22 23  1  0  0  0
 23 25  1  0  0  0
  6  7  2  0  0  0
 10 11  2  0  0  0
 13 14  2  0  0  0
 16 17  2  0  0  0
 21 24  2  0  0  0
M  END
> <rmsd>
0.582279861

$$$$
CHEMBL361088_6PT0


 26 28  0  0  0  0  0  0  0  0999 V2000
  100.2834  110.7832  121.7471 C   0  0  0  0  0
   98.8606  110.8982  122.2601 C   0  0  0  0  0
   98.7596  111.9687  123.3359 C   0  0  0  0  0
   99.1851  111.4275  124.6915 C   0  0  0  0  0
  100.6946  111.5094  124.8487 C   0  0  0  0  0
  101.8260  109.7822  126.2778 C   0  0  0  0  0
  102.3327  108.9614  125.1371 C   0  0  0  0  0
  102.0516  109.5337  127.6373 C   0  0  0  0  0
  102.7817  108.4061  128.2555 C   0  0  0  0  0
  103.1109  107.1744  127.4746 C   0  0  0  0  0
  102.2547  106.0275  127.9093 C   0  0  0  0  0
  102.7696  105.1143  128.8368 C   0  0  0  0  0
  101.9910  104.0423  129.2786 C   0  0  0  0  0
  100.6903  103.8795  128.7978 C   0  0  0  0  0
  100.1677  104.7896  127.8759 C   0  0  0  0  0
  100.9425  105.8715  127.4245 C   0  0  0  0  0
   99.1091  106.7096  125.9844 C   0  0  0  0  0
  101.4395  110.5842  128.3023 C   0  0  0  0  0
  101.3401  110.8680  129.6646 C   0  0  0  0  0
  100.6441  112.0296  130.0421 C   0  0  0  0  0
  100.0699  112.8712  129.0659 C   0  0  0  0  0
  100.1822  112.5611  127.6995 C   0  0  0  0  0
  100.8756  111.4002  127.3522 C   0  0  0  0  0
  101.1026  110.9160  126.1167 N   0  0  0  0  0
  103.1122  108.4630  129.4700 O   0  0  0  0  0
  100.4289  106.7924  126.5042 O   0  0  0  0  0
  1  2  1  0  0  0
  2  3  1  0  0  0
  3  4  1  0  0  0
  4  5  1  0  0  0
  5 24  1  0  0  0
  7  6  1  0  0  0
  8  9  1  0  0  0
  8 18  1  0  0  0
 10  9  1  0  0  0
 10 11  1  0  0  0
 12 13  1  0  0  0
 14 15  1  0  0  0
 16 26  1  0  0  0
 16 11  1  0  0  0
 17 26  1  0  0  0
 19 20  1  0  0  0
 21 22  1  0  0  0
 23 24  1  0  0  0
 23 18  1  0  0  0
 24  6  1  0  0  0
  6  8  2  0  0  0
  9 25  2  0  0  0
 11 12  2  0  0  0
 13 14  2  0  0  0
 15 16  2  0  0  0
 18 19  2  0  0  0
 20 21  2  0  0  0
 22 23  2  0  0  0
M  END
> <rmsd>
0.604211986

$$$$
CHEMBL4866198_8GUT


 27 29  0  0  0  0  0  0  0  0999 V2000
   95.9808  109.7337  123.6464 C   0  0  0  0  0
   97.4084  110.1110  123.8804 C   0  0  0  0  0
   98.3931  109.1143  123.9804 C   0  0  0  0  0
   99.7379  109.5003  124.1640 C   0  0  0  0  0
   99.1020  111.7882  124.2440 C   0  0  0  0  0
   97.7675  111.4582  124.0221 C   0  0  0  0  0
  101.4362  111.2445  124.5459 C   0  0  0  0  0
  101.7713  111.1830  126.0054 C   0  0  0  0  0
  101.1254  112.0526  126.8940 C   0  0  0  0  0
  101.4183  112.0132  128.2594 C   0  0  0  0  0
  102.3624  111.1056  128.7447 C   0  0  0  0  0
  103.0161  110.2400  127.8641 C   0  0  0  0  0
  102.7277  110.2741  126.4959 C   0  0  0  0  0
   98.5390  106.6442  124.5932 C   0  0  0  0  0
   98.2556  105.2480  124.1522 C   0  0  0  0  0
   99.5614  104.4861  123.8890 C   0  0  0  0  0
   99.3896  103.2653  122.9676 C   0  0  0  0  0
   97.9347  102.8368  122.7435 C   0  0  0  0  0
   97.2616  102.2630  123.9945 C   0  0  0  0  0
   97.5455  103.0397  125.2834 C   0  0  0  0  0
   97.3234  104.5506  125.1581 C   0  0  0  0  0
  100.6505  108.6292  124.1611 O   0  0  0  0  0
   99.1859  106.8537  125.6559 O   0  0  0  0  0
  100.0576  110.8231  124.3117 N   0  0  0  0  0
   98.0165  107.7354  123.8288 N   0  0  0  0  0
   96.4813  112.8730  123.9270 Br  0  0  0  0  0
  103.5944  109.1800  125.4289 Cl  0  0  0  0  0
  1  2  1  0  0  0
  3  4  1  0  0  0
  3 25  1  0  0  0
  4 24  1  0  0  0
  6 26  1  0  0  0
  6  2  1  0  0  0
  7 24  1  0  0  0
  7  8  1  0  0  0
  9 10  1  0  0  0
 11 12  1  0  0  0
 13 27  1  0  0  0
 13  8  1  0  0  0
 15 14  1  0  0  0
 15 16  1  0  0  0
 16 17  1  0  0  0
 17 18  1  0  0  0
 18 19  1  0  0  0
 19 20  1  0  0  0
 20 21  1  0  0  0
 21 15  1  0  0  0
 24  5  1  0  0  0
 25 14  1  0  0  0
  2  3  2  0  0  0
  4 22  2  0  0  0
  5  6  2  0  0  0
  8  9  2  0  0  0
 10 11  2  0  0  0
 12 13  2  0  0  0
 14 23  2  0  0  0
M  END
> <rmsd>
0.752049327

$$$$
CHEMBL571342_6PT0


 25 28  0  0  0  0  0  0  0  0999 V2000
  100.7760  104.5759  129.5300 C   0  0  0  0  0
  101.3555  105.2195  128.2810 C   0  0  0  0  0
  101.4015  104.3595  127.0199 C   0  0  0  0  0
  101.0376  106.7228  128.1626 C   0  0  0  0  0
  100.8223  107.2348  126.7556 C   0  0  0  0  0
  101.4758  108.4660  126.2688 C   0  0  0  0  0
  101.5117  108.8847  124.9389 C   0  0  0  0  0
  102.3696  110.8422  123.6460 C   0  0  0  0  0
  101.3306  111.9540  123.5461 C   0  0  0  0  0
   99.9574  111.4004  123.3561 C   0  0  0  0  0
   98.9545  111.5598  124.3222 C   0  0  0  0  0
   97.7434  110.9751  123.9751 C   0  0  0  0  0
   99.5799  110.6964  122.2189 C   0  0  0  0  0
  102.5369  110.4008  126.1108 C   0  0  0  0  0
  103.2115  111.5515  126.5219 C   0  0  0  0  0
  103.4611  111.7047  127.8969 C   0  0  0  0  0
  103.0319  110.7245  128.8170 C   0  0  0  0  0
  102.3500  109.5780  128.3731 C   0  0  0  0  0
  102.1258  109.4454  127.0028 C   0  0  0  0  0
  102.4707  106.2452  128.4687 C   0  0  0  0  0
  103.5336  106.3300  127.3747 C   0  0  0  0  0
  102.9213  106.5356  129.8912 C   0  0  0  0  0
  100.0022  106.6440  126.0024 O   0  0  0  0  0
  102.1733  110.0625  124.8614 N   0  0  0  0  0
   97.9729  110.2798  122.4634 S   0  0  0  0  0
  1  2  1  0  0  0
  2  3  1  0  0  0
  2  4  1  0  0  0
  4  5  1  0  0  0
  4 20  1  0  0  0
  5  6  1  0  0  0
  7 24  1  0  0  0
  8 24  1  0  0  0
  8  9  1  0  0  0
  9 10  1  0  0  0
 10 11  1  0  0  0
 12 25  1  0  0  0
 13 25  1  0  0  0
 15 16  1  0  0  0
 17 18  1  0  0  0
 19  6  1  0  0  0
 19 14  1  0  0  0
 20 21  1  0  0  0
 20 22  1  0  0  0
 20  2  1  0  0  0
 24 14  1  0  0  0
  5 23  2  0  0  0
  6  7  2  0  0  0
 11 12  2  0  0  0
 13 10  2  0  0  0
 14 15  2  0  0  0
 16 17  2  0  0  0
 18 19  2  0  0  0
M  END
> <rmsd>
0.790287673

$$$$
CHEMBL551351_6PT0


 29 32  0  0  0  0  0  0  0  0999 V2000
  103.5481  110.4833  125.1635 C   0  0  0  0  0
  103.0527  109.8875  124.0042 C   0  0  0  0  0
  101.8962  109.1079  124.0567 C   0  0  0  0  0
  101.2104  108.9126  125.2654 C   0  0  0  0  0
  101.7140  109.5122  126.4448 C   0  0  0  0  0
  102.8892  110.3023  126.3803 C   0  0  0  0  0
  103.3925  110.9092  127.5332 C   0  0  0  0  0
  102.7371  110.7450  128.7550 C   0  0  0  0  0
  101.5684  109.9725  128.8351 C   0  0  0  0  0
  101.0650  109.3647  127.6813 C   0  0  0  0  0
  101.3288  110.3737  131.2641 C   0  0  0  0  0
  100.0068  108.0479  125.2651 C   0  0  0  0  0
   99.0153  108.0922  124.1674 C   0  0  0  0  0
   98.6357  109.1894  123.3861 C   0  0  0  0  0
   97.4106  107.5306  122.7352 C   0  0  0  0  0
   98.2121  107.0483  123.7407 C   0  0  0  0  0
   98.1395  105.7215  124.1648 C   0  0  0  0  0
   97.2085  104.8820  123.5282 C   0  0  0  0  0
   96.3824  105.3778  122.4971 C   0  0  0  0  0
   96.4765  106.7197  122.0884 C   0  0  0  0  0
   96.9776  109.7082  121.5645 C   0  0  0  0  0
   95.5936  110.0885  122.0790 C   0  0  0  0  0
   95.6810  111.0193  123.2783 C   0  0  0  0  0
   96.0951  112.4110  122.8400 C   0  0  0  0  0
   96.2120  113.3074  124.0543 C   0  0  0  0  0
   99.1452  110.5860  123.5319 C   0  0  0  0  0
  100.8896  109.7935  130.0435 O   0  0  0  0  0
   99.8378  107.2247  126.2048 O   0  0  0  0  0
   97.6609  108.8345  122.5138 N   0  0  0  0  0
  2  3  1  0  0  0
  4  5  1  0  0  0
  4 12  1  0  0  0
  6  7  1  0  0  0
  6  1  1  0  0  0
  8  9  1  0  0  0
  9 27  1  0  0  0
 10  5  1  0  0  0
 11 27  1  0  0  0
 12 13  1  0  0  0
 14 29  1  0  0  0
 16 17  1  0  0  0
 16 13  1  0  0  0
 18 19  1  0  0  0
 20 15  1  0  0  0
 21 29  1  0  0  0
 21 22  1  0  0  0
 22 23  1  0  0  0
 23 24  1  0  0  0
 24 25  1  0  0  0
 26 14  1  0  0  0
 29 15  1  0  0  0
  1  2  2  0  0  0
  3  4  2  0  0  0
  5  6  2  0  0  0
  7  8  2  0  0  0
  9 10  2  0  0  0
 12 28  2  0  0  0
 13 14  2  0  0  0
 15 16  2  0  0  0
 17 18  2  0  0  0
 19 20  2  0  0  0
M  END
> <rmsd>
0.519860029

$$$$
CHEMBL570198_6PT0


 25 28  0  0  0  0  0  0  0  0999 V2000
  102.9325  106.5353  129.8582 C   0  0  0  0  0
  102.4735  106.2502  128.4373 C   0  0  0  0  0
  101.0376  106.7265  128.1424 C   0  0  0  0  0
  101.3588  105.2234  128.2523 C   0  0  0  0  0
  101.3984  104.3689  126.9872 C   0  0  0  0  0
  100.7883  104.5732  129.5020 C   0  0  0  0  0
  100.8125  107.2443  126.7391 C   0  0  0  0  0
  101.4605  108.4787  126.2535 C   0  0  0  0  0
  101.4870  108.9034  124.9252 C   0  0  0  0  0
  102.5174  110.4161  126.0973 C   0  0  0  0  0
  103.1929  111.5660  126.5091 C   0  0  0  0  0
  103.4511  111.7135  127.8832 C   0  0  0  0  0
  103.0295  110.7286  128.8016 C   0  0  0  0  0
  102.3465  109.5831  128.3571 C   0  0  0  0  0
  102.1137  109.4560  126.9876 C   0  0  0  0  0
  102.3337  110.8678  123.6361 C   0  0  0  0  0
  101.2779  111.9635  123.5408 C   0  0  0  0  0
   99.4969  110.6739  122.3665 C   0  0  0  0  0
   98.1850  110.3145  122.6082 C   0  0  0  0  0
   97.8462  110.8454  123.8440 C   0  0  0  0  0
   98.9632  111.5098  124.3122 C   0  0  0  0  0
  103.5291  106.3417  127.3371 C   0  0  0  0  0
   99.9887  106.6552  125.9884 O   0  0  0  0  0
  102.1465  110.0825  124.8487 N   0  0  0  0  0
   99.9472  111.3899  123.4089 N   0  0  0  0  0
  1  2  1  0  0  0
  2  3  1  0  0  0
  2 22  1  0  0  0
  3  4  1  0  0  0
  3  7  1  0  0  0
  4  5  1  0  0  0
  4  6  1  0  0  0
  4  2  1  0  0  0
  7  8  1  0  0  0
  9 24  1  0  0  0
 11 12  1  0  0  0
 13 14  1  0  0  0
 15  8  1  0  0  0
 15 10  1  0  0  0
 16 24  1  0  0  0
 16 17  1  0  0  0
 17 25  1  0  0  0
 19 20  1  0  0  0
 21 25  1  0  0  0
 24 10  1  0  0  0
 25 18  1  0  0  0
  7 23  2  0  0  0
  8  9  2  0  0  0
 10 11  2  0  0  0
 12 13  2  0  0  0
 14 15  2  0  0  0
 18 19  2  0  0  0
 20 21  2  0  0  0
M  END
> <rmsd>
0.771846831

$$$$
CHEMBL4866238_6PT0


 28 31  0  0  0  0  0  0  0  0999 V2000
   99.9776  108.5302  128.0391 C   0  0  0  0  0
   99.6709  109.2535  126.7691 C   0  0  0  0  0
   99.0852  108.6882  125.6350 C   0  0  0  0  0
   99.0094  109.7200  124.7117 C   0  0  0  0  0
   98.5843  109.7318  123.3829 C   0  0  0  0  0
   98.6663  110.9456  122.6790 C   0  0  0  0  0
   99.1776  112.1032  123.3024 C   0  0  0  0  0
   99.6195  112.0606  124.6361 C   0  0  0  0  0
   99.5221  110.8442  125.3137 C   0  0  0  0  0
  100.5596  111.4870  127.5101 C   0  0  0  0  0
  101.9875  111.8147  127.0854 C   0  0  0  0  0
  102.9190  110.6300  127.2896 C   0  0  0  0  0
  102.9432  109.7855  126.0914 C   0  0  0  0  0
  102.9610  109.0901  125.1068 C   0  0  0  0  0
   98.7182  107.2683  125.4416 C   0  0  0  0  0
   97.5248  106.8599  124.6710 C   0  0  0  0  0
   97.4349  105.5500  124.1627 C   0  0  0  0  0
   96.2898  105.1744  123.4612 C   0  0  0  0  0
   95.2549  106.0503  123.2684 C   0  0  0  0  0
   94.1452  105.4430  122.5043 C   0  0  0  0  0
   94.6305  104.0123  122.2250 C   0  0  0  0  0
   96.0227  103.8533  122.8552 C   0  0  0  0  0
   93.6706  103.0144  122.8409 C   0  0  0  0  0
   94.7139  103.7808  120.7297 C   0  0  0  0  0
   95.3039  107.3495  123.7705 C   0  0  0  0  0
   96.4464  107.7501  124.4785 C   0  0  0  0  0
   99.9263  110.5685  126.5680 N   0  0  0  0  0
   99.4434  106.3793  125.9648 O   0  0  0  0  0
  1  2  1  0  0  0
  3  4  1  0  0  0
  3 15  1  0  0  0
  5  6  1  0  0  0
  7  8  1  0  0  0
  9 27  1  0  0  0
  9  4  1  0  0  0
 10 27  1  0  0  0
 10 11  1  0  0  0
 11 12  1  0  0  0
 12 13  1  0  0  0
 15 16  1  0  0  0
 17 18  1  0  0  0
 19 25  1  0  0  0
 20 19  1  0  0  0
 20 21  1  0  0  0
 21 22  1  0  0  0
 21 23  1  0  0  0
 21 24  1  0  0  0
 22 18  1  0  0  0
 26 16  1  0  0  0
 27  2  1  0  0  0
  2  3  2  0  0  0
  4  5  2  0  0  0
  6  7  2  0  0  0
  8  9  2  0  0  0
 15 28  2  0  0  0
 16 17  2  0  0  0
 18 19  2  0  0  0
 25 26  2  0  0  0
 13 14  3  0  0  0
M  END
> <rmsd>
0.504104853

$$$$
CHEMBL576920_6PT0


 21 23  0  0  0  0  0  0  0  0999 V2000
   96.5546  109.6968  124.2236 C   0  0  0  0  0
   98.0160  109.3343  124.0166 C   0  0  0  0  0
   98.3155  108.2247  123.0110 C   0  0  0  0  0
   98.8624  109.4439  125.2997 C   0  0  0  0  0
   99.9722  108.4254  125.4381 C   0  0  0  0  0
  101.3415  108.8167  125.8278 C   0  0  0  0  0
  102.4663  107.9951  125.7473 C   0  0  0  0  0
  104.9090  108.1646  126.2452 C   0  0  0  0  0
  105.6753  108.5834  125.0012 C   0  0  0  0  0
  103.1260  109.8996  126.5610 C   0  0  0  0  0
  103.8880  110.9411  127.0928 C   0  0  0  0  0
  103.2222  112.1360  127.4178 C   0  0  0  0  0
  101.8317  112.2607  127.2121 C   0  0  0  0  0
  101.0905  111.1935  126.6756 C   0  0  0  0  0
  101.7773  110.0231  126.3527 C   0  0  0  0  0
   99.0459  110.4535  124.1495 C   0  0  0  0  0
  100.2930  110.3636  123.2718 C   0  0  0  0  0
   98.5275  111.8462  124.4695 C   0  0  0  0  0
   99.7076  107.2010  125.2960 O   0  0  0  0  0
  105.1604  107.9299  123.8815 O   0  0  0  0  0
  103.5456  108.6746  126.1992 N   0  0  0  0  0
  1  2  1  0  0  0
  2  3  1  0  0  0
  2  4  1  0  0  0
  4  5  1  0  0  0
  4 16  1  0  0  0
  5  6  1  0  0  0
  7 21  1  0  0  0
  8 21  1  0  0  0
  8  9  1  0  0  0
  9 20  1  0  0  0
 11 12  1  0  0  0
 13 14  1  0  0  0
 15  6  1  0  0  0
 15 10  1  0  0  0
 16 17  1  0  0  0
 16 18  1  0  0  0
 16  2  1  0  0  0
 21 10  1  0  0  0
  5 19  2  0  0  0
  6  7  2  0  0  0
 10 11  2  0  0  0
 12 13  2  0  0  0
 14 15  2  0  0  0
M  END
> <rmsd>
0.797093332

$$$$
CHEMBL3410823_8GUS


 27 29  0  0  0  0  0  0  0  0999 V2000
   97.6388  107.6575  124.9512 C   0  0  0  0  0
   99.0237  107.6691  125.1796 C   0  0  0  0  0
   99.7767  108.8229  124.8419 C   0  0  0  0  0
  101.9743  107.9263  125.6606 C   0  0  0  0  0
  103.4088  108.4160  125.7638 C   0  0  0  0  0
  103.5860  109.3801  126.9286 C   0  0  0  0  0
  103.1337  110.7817  126.5576 C   0  0  0  0  0
  101.7924  111.0785  127.1980 C   0  0  0  0  0
   99.1162  109.9338  124.2798 C   0  0  0  0  0
   97.7216  109.9038  124.0576 C   0  0  0  0  0
   96.9939  108.7603  124.3975 C   0  0  0  0  0
   97.0871  111.0277  123.4976 C   0  0  0  0  0
   99.1671  112.1755  123.3841 C   0  0  0  0  0
   99.8332  111.0834  123.9366 C   0  0  0  0  0
   97.1886  113.3079  122.5834 C   0  0  0  0  0
   97.1714  113.1826  121.0673 C   0  0  0  0  0
   96.5147  114.3702  120.4513 C   0  0  0  0  0
   95.3104  114.2139  119.7614 C   0  0  0  0  0
   94.7101  115.3297  119.1734 C   0  0  0  0  0
   96.4753  116.7252  119.9323 C   0  0  0  0  0
   97.1073  115.6346  120.5339 C   0  0  0  0  0
   98.9464  105.3630  126.0904 C   0  0  0  0  0
  101.1657  108.9175  125.0421 O   0  0  0  0  0
   95.8404  111.0130  123.2934 O   0  0  0  0  0
   99.6495  106.5458  125.7330 O   0  0  0  0  0
   97.8226  112.1370  123.1760 N   0  0  0  0  0
   95.2991  116.5522  119.2708 N   0  0  0  0  0
  2  3  1  0  0  0
  2 25  1  0  0  0
  3 23  1  0  0  0
  4 23  1  0  0  0
  4  5  1  0  0  0
  5  6  1  0  0  0
  6  7  1  0  0  0
  7  8  1  0  0  0
  9 10  1  0  0  0
 10 12  1  0  0  0
 11  1  1  0  0  0
 12 26  1  0  0  0
 14  9  1  0  0  0
 15 26  1  0  0  0
 15 16  1  0  0  0
 16 17  1  0  0  0
 18 19  1  0  0  0
 20 27  1  0  0  0
 21 17  1  0  0  0
 22 25  1  0  0  0
 26 13  1  0  0  0
  1  2  2  0  0  0
  3  9  2  0  0  0
 10 11  2  0  0  0
 12 24  2  0  0  0
 13 14  2  0  0  0
 17 18  2  0  0  0
 19 27  2  0  0  0
 20 21  2  0  0  0
M  END
> <rmsd>
0.809405863

$$$$
CHEMBL569299_5ZTY


 22 24  0  0  0  0  0  0  0  0999 V2000
   98.8622  109.4439  125.3003 C   0  0  0  0  0
   99.9718  108.4254  125.4390 C   0  0  0  0  0
  101.3411  108.8168  125.8280 C   0  0  0  0  0
  101.7768  110.0227  126.3539 C   0  0  0  0  0
  101.0896  111.1922  126.6793 C   0  0  0  0  0
  101.8308  112.2591  127.2168 C   0  0  0  0  0
  103.2215  112.1349  127.4208 C   0  0  0  0  0
  103.8877  110.9410  127.0932 C   0  0  0  0  0
  103.1258  109.8999  126.5604 C   0  0  0  0  0
  102.4662  107.9959  125.7452 C   0  0  0  0  0
  104.9094  108.1649  126.2410 C   0  0  0  0  0
  105.7023  108.6422  125.0311 C   0  0  0  0  0
  105.2321  107.9554  123.7594 C   0  0  0  0  0
   98.0163  109.3345  124.0169 C   0  0  0  0  0
   99.0463  110.4535  124.1503 C   0  0  0  0  0
   98.5278  111.8463  124.4703 C   0  0  0  0  0
  100.2935  110.3636  123.2728 C   0  0  0  0  0
   96.5547  109.6972  124.2234 C   0  0  0  0  0
   98.3160  108.2248  123.0115 C   0  0  0  0  0
   99.7072  107.2009  125.2972 O   0  0  0  0  0
  105.5804  106.6047  123.7897 O   0  0  0  0  0
  103.5459  108.6758  126.1957 N   0  0  0  0  0
  1  2  1  0  0  0
  1 14  1  0  0  0
  2  3  1  0  0  0
  3  4  1  0  0  0
  5  6  1  0  0  0
  7  8  1  0  0  0
  9 22  1  0  0  0
  9  4  1  0  0  0
 11 22  1  0  0  0
 11 12  1  0  0  0
 12 13  1  0  0  0
 13 21  1  0  0  0
 14 15  1  0  0  0
 14 18  1  0  0  0
 14 19  1  0  0  0
 15 16  1  0  0  0
 15 17  1  0  0  0
 15  1  1  0  0  0
 22 10  1  0  0  0
  2 20  2  0  0  0
  4  5  2  0  0  0
  6  7  2  0  0  0
  8  9  2  0  0  0
 10  3  2  0  0  0
M  END
> <rmsd>
0.795844972

$$$$
CHEMBL3092895_8GUT


 32 36  0  0  0  0  0  0  0  0999 V2000
  101.4975  113.6938  130.0522 N   0  0  0  0  0
  100.0457  111.8962  129.5022 N   0  0  0  0  0
  103.5507  114.1812  128.8300 N   0  0  0  0  0
  106.1050  114.8240  129.4358 N   0  0  0  0  0
  102.6470  111.7763  127.1534 N   0  0  0  0  0
  100.7493  110.6068  127.5916 N   0  0  0  0  0
   99.4204  107.1767  128.1312 N   0  0  0  0  0
  100.3638  112.9621  130.2946 C   0  0  0  0  0
  100.8722  111.6072  128.4710 C   0  0  0  0  0
  102.0006  112.3149  128.2109 C   0  0  0  0  0
  102.3503  113.3996  129.0207 C   0  0  0  0  0
  104.5441  113.7860  127.8032 C   0  0  0  0  0
  105.9512  114.3596  128.0604 C   0  0  0  0  0
  105.1638  115.9169  129.5789 C   0  0  0  0  0
  103.7528  115.3467  129.7001 C   0  0  0  0  0
  107.4333  115.4080  129.5190 C   0  0  0  0  0
  101.8456  110.7351  126.7944 C   0  0  0  0  0
   99.7578  109.5353  127.6027 C   0  0  0  0  0
  100.3301  108.3003  128.2921 C   0  0  0  0  0
   98.7388  106.5215  129.2262 C   0  0  0  0  0
   97.9182  105.3870  128.5921 C   0  0  0  0  0
   98.2309  105.3640  127.0928 C   0  0  0  0  0
   99.1497  106.5053  126.9217 C   0  0  0  0  0
  102.1857  109.8214  125.6873 C   0  0  0  0  0
  103.4365  109.1935  125.7025 C   0  0  0  0  0
  103.8085  108.3300  124.6692 C   0  0  0  0  0
  102.9336  108.0940  123.6067 C   0  0  0  0  0
  101.6893  108.7278  123.5742 C   0  0  0  0  0
  101.3072  109.5901  124.6060 C   0  0  0  0  0
   99.4802  113.3285  131.4364 C   0  0  0  0  0
   99.6452  106.8494  125.8166 O   0  0  0  0  0
   99.7664  110.4278  124.4581 Cl  0  0  0  0  0
  6  9  1  0  0  0
  8  2  1  0  0  0
  9 10  1  0  0  0
 10  5  1  0  0  0
 11  3  1  0  0  0
 11  1  1  0  0  0
 12  3  1  0  0  0
 12 13  1  0  0  0
 13  4  1  0  0  0
 14  4  1  0  0  0
 14 15  1  0  0  0
 15  3  1  0  0  0
 16  4  1  0  0  0
 17  6  1  0  0  0
 17 24  1  0  0  0
 18  6  1  0  0  0
 18 19  1  0  0  0
 19  7  1  0  0  0
 20  7  1  0  0  0
 20 21  1  0  0  0
 21 22  1  0  0  0
 22 23  1  0  0  0
 23  7  1  0  0  0
 25 26  1  0  0  0
 27 28  1  0  0  0
 29 32  1  0  0  0
 29 24  1  0  0  0
 30  8  1  0  0  0
  8  1  2  0  0  0
  9  2  2  0  0  0
 10 11  2  0  0  0
 17  5  2  0  0  0
 23 31  2  0  0  0
 24 25  2  0  0  0
 26 27  2  0  0  0
 28 29  2  0  0  0
M  END
> <rmsd>
0.754492819

$$$$
CHEMBL253059_8GUR


 24 26  0  0  0  0  0  0  0  0999 V2000
  103.2342  109.7860  125.1068 C   0  0  0  0  0
  102.6295  109.8504  126.4675 C   0  0  0  0  0
  103.3552  110.4891  127.4766 C   0  0  0  0  0
  102.8339  110.5901  128.7676 C   0  0  0  0  0
  101.5726  110.0608  129.0686 C   0  0  0  0  0
  101.0442  110.1556  130.4500 C   0  0  0  0  0
   99.2643  109.5836  132.1132 C   0  0  0  0  0
   98.2191  110.5534  132.6690 C   0  0  0  0  0
   97.1098  110.9004  131.6630 C   0  0  0  0  0
   97.2105  110.1124  130.3578 C   0  0  0  0  0
   98.6084  110.2659  129.7628 C   0  0  0  0  0
  100.8540  109.4089  128.0582 C   0  0  0  0  0
  101.3646  109.2960  126.7600 C   0  0  0  0  0
  100.2012  110.5610  124.0080 C   0  0  0  0  0
   99.3683  111.6887  123.3869 C   0  0  0  0  0
   97.8974  111.2983  123.2176 C   0  0  0  0  0
   97.7637  109.8297  122.8209 C   0  0  0  0  0
   98.5036  108.9008  123.7995 C   0  0  0  0  0
  101.8501  110.3979  131.3905 O   0  0  0  0  0
  101.2368  107.7669  124.5463 O   0  0  0  0  0
   99.5130  107.4573  126.2419 O   0  0  0  0  0
   99.6491  109.9713  130.7553 N   0  0  0  0  0
   99.3476  109.6345  124.7510 N   0  0  0  0  0
  100.3699  108.4801  125.5480 S   0  0  0  0  0
  1  2  1  0  0  0
  3  4  1  0  0  0
  5  6  1  0  0  0
  5 12  1  0  0  0
  6 22  1  0  0  0
  7 22  1  0  0  0
  7  8  1  0  0  0
  8  9  1  0  0  0
  9 10  1  0  0  0
 10 11  1  0  0  0
 11 22  1  0  0  0
 13  2  1  0  0  0
 14 23  1  0  0  0
 14 15  1  0  0  0
 15 16  1  0  0  0
 16 17  1  0  0  0
 17 18  1  0  0  0
 18 23  1  0  0  0
 24 13  1  0  0  0
 24 23  1  0  0  0
  2  3  2  0  0  0
  4  5  2  0  0  0
  6 19  2  0  0  0
 12 13  2  0  0  0
 24 20  2  0  0  0
 24 21  2  0  0  0
M  END
> <rmsd>
0.774059236

$$$$
CHEMBL244403_6PT0


 28 31  0  0  0  0  0  0  0  0999 V2000
   91.8873  114.7500  124.8508 C   0  0  0  0  0
   93.3283  114.5977  124.4128 C   0  0  0  0  0
   93.9602  113.4318  125.1497 C   0  0  0  0  0
   95.4058  113.2555  124.7222 C   0  0  0  0  0
   95.4776  112.6185  123.3431 C   0  0  0  0  0
   97.6757  111.4576  123.4917 C   0  0  0  0  0
   97.1872  110.5176  124.4087 C   0  0  0  0  0
   98.0277  109.5451  124.9467 C   0  0  0  0  0
   99.3798  109.4843  124.5903 C   0  0  0  0  0
  100.2147  108.4331  125.2224 C   0  0  0  0  0
  101.5983  108.6831  125.6972 C   0  0  0  0  0
  101.9854  109.8698  126.3694 C   0  0  0  0  0
  101.0627  110.8844  126.6729 C   0  0  0  0  0
  101.4702  112.0445  127.3358 C   0  0  0  0  0
  102.8057  112.2036  127.7115 C   0  0  0  0  0
  103.7358  111.2001  127.4324 C   0  0  0  0  0
  103.3356  110.0354  126.7715 C   0  0  0  0  0
  104.2708  109.0300  126.5234 C   0  0  0  0  0
  103.8811  107.8546  125.8827 C   0  0  0  0  0
  102.5566  107.6830  125.4776 C   0  0  0  0  0
   99.8839  110.4081  123.6420 C   0  0  0  0  0
  101.2167  110.3531  123.2019 C   0  0  0  0  0
  101.7001  111.2704  122.2675 C   0  0  0  0  0
  100.8553  112.2536  121.7523 C   0  0  0  0  0
   99.5235  112.3171  122.1649 C   0  0  0  0  0
   99.0235  111.4006  123.1010 C   0  0  0  0  0
   96.8349  112.4419  122.9508 O   0  0  0  0  0
   99.7273  107.2782  125.3625 O   0  0  0  0  0
  1  2  1  0  0  0
  2  3  1  0  0  0
  3  4  1  0  0  0
  4  5  1  0  0  0
  5 27  1  0  0  0
  6 27  1  0  0  0
  7  8  1  0  0  0
  9 10  1  0  0  0
  9 21  1  0  0  0
 10 11  1  0  0  0
 11 12  1  0  0  0
 13 14  1  0  0  0
 15 16  1  0  0  0
 17 18  1  0  0  0
 17 12  1  0  0  0
 19 20  1  0  0  0
 22 23  1  0  0  0
 24 25  1  0  0  0
 26  6  1  0  0  0
 26 21  1  0  0  0
  6  7  2  0  0  0
  8  9  2  0  0  0
 10 28  2  0  0  0
 12 13  2  0  0  0
 14 15  2  0  0  0
 16 17  2  0  0  0
 18 19  2  0  0  0
 20 11  2  0  0  0
 21 22  2  0  0  0
 23 24  2  0  0  0
 25 26  2  0  0  0
M  END
> <rmsd>
0.800255299

$$$$
CHEMBL3354962_8GUQ


 24 27  0  0  0  0  0  0  0  0999 V2000
   98.0642  102.5926  125.1576 C   0  0  0  0  0
   97.1877  103.8266  125.1249 C   0  0  0  0  0
   96.1326  103.7020  126.2088 C   0  0  0  0  0
   96.5187  103.9115  123.7651 C   0  0  0  0  0
   97.5415  106.3545  125.3961 C   0  0  0  0  0
   98.4872  107.4510  125.6385 C   0  0  0  0  0
   99.4138  109.4118  125.6681 C   0  0  0  0  0
   98.2146  108.8053  125.5925 C   0  0  0  0  0
   97.2630  109.5616  124.7538 C   0  0  0  0  0
   98.0380  110.8520  124.3960 C   0  0  0  0  0
   99.4652  110.7158  124.9583 C   0  0  0  0  0
   99.2050  110.5478  123.4700 C   0  0  0  0  0
  101.8065  108.6899  125.7142 C   0  0  0  0  0
  102.4066  109.8519  126.2413 C   0  0  0  0  0
  103.7927  110.0199  126.1670 C   0  0  0  0  0
  104.5906  109.0383  125.5755 C   0  0  0  0  0
  104.0061  107.8763  125.0686 C   0  0  0  0  0
  102.6219  107.7023  125.1411 C   0  0  0  0  0
   98.0206  105.0038  125.3572 N   0  0  0  0  0
   99.8218  107.2786  125.7656 N   0  0  0  0  0
  100.3854  108.4811  125.7781 N   0  0  0  0  0
   96.3170  106.6035  125.2284 O   0  0  0  0  0
  105.9325  109.2077  125.5051 F   0  0  0  0  0
  101.6672  110.7997  126.8678 F   0  0  0  0  0
  1  2  1  0  0  0
  2  3  1  0  0  0
  2  4  1  0  0  0
  2 19  1  0  0  0
  5  6  1  0  0  0
  8  6  1  0  0  0
  9  8  1  0  0  0
 10  9  1  0  0  0
 10 11  1  0  0  0
 11 12  1  0  0  0
 11  7  1  0  0  0
 12 10  1  0  0  0
 14 15  1  0  0  0
 14 24  1  0  0  0
 16 17  1  0  0  0
 16 23  1  0  0  0
 18 13  1  0  0  0
 19  5  1  0  0  0
 21 20  1  0  0  0
 21  7  1  0  0  0
 21 13  1  0  0  0
  5 22  2  0  0  0
  6 20  2  0  0  0
  7  8  2  0  0  0
 13 14  2  0  0  0
 15 16  2  0  0  0
 17 18  2  0  0  0
M  END
> <rmsd>
0.533847928

$$$$
CHEMBL232336_5ZTY


 25 28  0  0  0  0  0  0  0  0999 V2000
   99.3617  112.8546  125.4970 C   0  0  0  0  0
   99.0547  114.2643  124.9628 C   0  0  0  0  0
   99.5266  115.3551  125.9223 C   0  0  0  0  0
   98.8124  115.2536  127.2761 C   0  0  0  0  0
   98.3903  113.8245  127.6392 C   0  0  0  0  0
   99.3440  112.7959  127.0354 C   0  0  0  0  0
  100.7756  112.4707  125.0192 C   0  0  0  0  0
  100.0501  110.1762  124.3998 C   0  0  0  0  0
   99.1354  107.8883  124.1562 C   0  0  0  0  0
   98.4893  108.0141  122.9128 C   0  0  0  0  0
   97.6743  106.9878  122.4123 C   0  0  0  0  0
   97.4972  105.8031  123.1356 C   0  0  0  0  0
   98.1462  105.6533  124.3594 C   0  0  0  0  0
   98.9741  106.6939  124.8698 C   0  0  0  0  0
   98.2625  111.9086  124.9729 C   0  0  0  0  0
  102.1428  110.5217  125.7892 C   0  0  0  0  0
  101.7801  110.5032  128.3679 C   0  0  0  0  0
  101.0041  111.0259  125.0647 N   0  0  0  0  0
  100.0193  108.9001  124.6693 N   0  0  0  0  0
   99.5744  106.4604  126.0649 N   0  0  0  0  0
   98.0342  104.5315  125.1126 N   0  0  0  0  0
   99.0051  104.9413  126.3878 S   0  0  0  0  0
   98.7447  110.9951  123.4680 S   0  0  0  0  0
  102.9858  109.2235  125.2473 S   0  0  0  0  0
  102.8013  111.4302  127.1883 S   0  0  0  0  0
  1  2  1  0  0  0
  1  7  1  0  0  0
  2  3  1  0  0  0
  3  4  1  0  0  0
  4  5  1  0  0  0
  5  6  1  0  0  0
  6  1  1  0  0  0
  7 18  1  0  0  0
  8 23  1  0  0  0
  9 19  1  0  0  0
 10 11  1  0  0  0
 12 13  1  0  0  0
 13 14  1  0  0  0
 14  9  1  0  0  0
 15 23  1  0  0  0
 15  1  1  0  0  0
 16 25  1  0  0  0
 17 25  1  0  0  0
 18  8  1  0  0  0
 18 16  1  0  0  0
 20 22  1  0  0  0
 22 21  1  0  0  0
  8 19  2  0  0  0
  9 10  2  0  0  0
 11 12  2  0  0  0
 13 21  2  0  0  0
 14 20  2  0  0  0
 16 24  2  0  0  0
M  END
> <rmsd>
0.63785404

$$$$
CHEMBL308777_6PT0


 29 32  0  0  0  0  0  0  0  0999 V2000
  102.5393  111.9103  130.7906 C   0  0  0  0  0
  102.2815  110.6509  128.6779 C   0  0  0  0  0
  102.5440  111.7993  127.8887 C   0  0  0  0  0
  102.5416  111.7267  126.4850 C   0  0  0  0  0
  102.2787  110.4879  125.8982 C   0  0  0  0  0
  102.0207  109.3765  126.6617 C   0  0  0  0  0
  102.0137  109.4189  128.0543 C   0  0  0  0  0
  101.7891  108.3319  125.7944 C   0  0  0  0  0
  101.4187  106.9305  126.1563 C   0  0  0  0  0
   99.6894  105.4107  125.5654 C   0  0  0  0  0
   99.6429  104.3353  126.6631 C   0  0  0  0  0
   99.3943  105.7892  128.3309 C   0  0  0  0  0
   99.3891  107.0201  127.4092 C   0  0  0  0  0
  101.9038  108.8684  124.5165 C   0  0  0  0  0
  101.7754  108.0815  123.2534 C   0  0  0  0  0
  102.4192  111.1048  123.4879 C   0  0  0  0  0
  101.6466  111.0076  122.2325 C   0  0  0  0  0
  102.3432  111.0938  121.0199 C   0  0  0  0  0
  101.6689  110.9971  119.8032 C   0  0  0  0  0
  100.2865  110.8193  119.7861 C   0  0  0  0  0
   99.5693  110.7470  120.9824 C   0  0  0  0  0
  100.2402  110.8509  122.2164 C   0  0  0  0  0
  102.2805  110.7108  130.0740 O   0  0  0  0  0
  100.2523  104.7971  127.8371 O   0  0  0  0  0
  103.3041  111.9972  123.5914 O   0  0  0  0  0
   99.9723  106.7606  126.0806 N   0  0  0  0  0
  102.2004  110.1947  124.5820 N   0  0  0  0  0
   97.8268  110.5416  120.8940 Cl  0  0  0  0  0
   99.3043  110.8584  123.7144 Cl  0  0  0  0  0
  1 23  1  0  0  0
  2 23  1  0  0  0
  3  4  1  0  0  0
  5  6  1  0  0  0
  6  8  1  0  0  0
  7  2  1  0  0  0
  9  8  1  0  0  0
  9 26  1  0  0  0
 10 26  1  0  0  0
 10 11  1  0  0  0
 11 24  1  0  0  0
 12 24  1  0  0  0
 12 13  1  0  0  0
 13 26  1  0  0  0
 14 27  1  0  0  0
 15 14  1  0  0  0
 16 17  1  0  0  0
 18 19  1  0  0  0
 20 21  1  0  0  0
 21 28  1  0  0  0
 22 29  1  0  0  0
 22 17  1  0  0  0
 27 16  1  0  0  0
 27  5  1  0  0  0
  2  3  2  0  0  0
  4  5  2  0  0  0
  6  7  2  0  0  0
  8 14  2  0  0  0
 16 25  2  0  0  0
 17 18  2  0  0  0
 19 20  2  0  0  0
 21 22  2  0  0  0
M  END
> <rmsd>
0.438687712

$$$$
CHEMBL4852456_8GUR


 29 32  0  0  0  0  0  0  0  0999 V2000
   98.3059  111.1915  123.3085 C   0  0  0  0  0
   99.8163  111.2570  123.2373 C   0  0  0  0  0
  100.2908  110.6039  121.9541 C   0  0  0  0  0
  101.8164  110.6053  121.8846 C   0  0  0  0  0
  102.4699  109.3451  122.4723 C   0  0  0  0  0
  101.9295  108.1111  121.6985 C   0  0  0  0  0
  102.9935  107.0796  121.3065 C   0  0  0  0  0
  104.0236  106.9265  122.4170 C   0  0  0  0  0
  104.7789  108.2368  122.6616 C   0  0  0  0  0
  103.9861  109.4862  122.2460 C   0  0  0  0  0
  102.1870  109.2582  123.9679 C   0  0  0  0  0
  101.4652  108.1836  124.5183 C   0  0  0  0  0
  101.2006  108.1203  125.8886 C   0  0  0  0  0
  101.6584  109.1420  126.7318 C   0  0  0  0  0
  101.4142  109.1212  128.1052 C   0  0  0  0  0
  101.8898  110.1593  128.9066 C   0  0  0  0  0
  102.6006  111.2092  128.3004 C   0  0  0  0  0
  102.3825  110.2267  126.1948 C   0  0  0  0  0
  102.6408  110.2773  124.8237 C   0  0  0  0  0
  101.6048  110.1488  130.3749 C   0  0  0  0  0
  100.2939  110.8004  130.6596 C   0  0  0  0  0
   99.1327  110.0266  130.7446 C   0  0  0  0  0
   97.9103  110.6555  130.9875 C   0  0  0  0  0
   97.8597  112.0425  131.1374 C   0  0  0  0  0
   99.0404  112.7825  131.0396 C   0  0  0  0  0
  103.0391  112.1658  128.9930 O   0  0  0  0  0
  102.8180  111.2017  126.9873 O   0  0  0  0  0
  100.4842  107.0429  126.3975 O   0  0  0  0  0
  100.2225  112.1522  130.8025 N   0  0  0  0  0
  1  2  1  0  0  0
  2  3  1  0  0  0
  3  4  1  0  0  0
  4  5  1  0  0  0
  5  6  1  0  0  0
  5 11  1  0  0  0
  6  7  1  0  0  0
  7  8  1  0  0  0
  8  9  1  0  0  0
  9 10  1  0  0  0
 10  5  1  0  0  0
 12 13  1  0  0  0
 13 28  1  0  0  0
 14 15  1  0  0  0
 16 17  1  0  0  0
 17 27  1  0  0  0
 18 27  1  0  0  0
 18 14  1  0  0  0
 19 11  1  0  0  0
 20 16  1  0  0  0
 20 21  1  0  0  0
 21 29  1  0  0  0
 22 23  1  0  0  0
 24 25  1  0  0  0
 11 12  2  0  0  0
 13 14  2  0  0  0
 15 16  2  0  0  0
 17 26  2  0  0  0
 18 19  2  0  0  0
 21 22  2  0  0  0
 23 24  2  0  0  0
 25 29  2  0  0  0
M  END
> <rmsd>
0.719041288

$$$$
CHEMBL3647321_8GUR


 32 34  0  0  0  0  0  0  0  0999 V2000
  103.5753  108.7101  126.0247 C   0  0  0  0  0
  102.6618  109.8949  125.7770 C   0  0  0  0  0
  102.1089  110.4264  127.0900 C   0  0  0  0  0
  100.8325  109.6951  127.4955 C   0  0  0  0  0
  100.7160  107.2167  127.2953 C   0  0  0  0  0
   99.5508  106.1466  125.4173 C   0  0  0  0  0
   98.4775  106.3130  124.4052 C   0  0  0  0  0
   98.0708  105.1795  123.6819 C   0  0  0  0  0
   97.0529  105.2499  122.7244 C   0  0  0  0  0
   96.3989  106.4664  122.5131 C   0  0  0  0  0
   96.7870  107.6035  123.2200 C   0  0  0  0  0
   97.8282  107.5468  124.1602 C   0  0  0  0  0
   98.3905  110.8211  123.8773 C   0  0  0  0  0
   98.7150  110.2370  122.5128 C   0  0  0  0  0
   97.6410  112.1205  123.6744 C   0  0  0  0  0
   99.6772  111.1218  124.6216 C   0  0  0  0  0
   96.6042  104.0121  122.0034 C   0  0  0  0  0
  101.9697  106.6766  129.3262 C   0  0  0  0  0
  102.6492  106.1970  130.4395 C   0  0  0  0  0
  103.1781  107.1478  131.3245 C   0  0  0  0  0
  102.3496  108.9501  129.9898 C   0  0  0  0  0
  101.8128  108.0304  129.0862 C   0  0  0  0  0
  101.1216  108.3365  127.9514 N   0  0  0  0  0
  100.0030  107.2621  126.2038 N   0  0  0  0  0
   97.5479  109.9102  124.6540 N   0  0  0  0  0
  103.0188  108.4850  131.0847 N   0  0  0  0  0
  100.0772  105.0094  125.5665 O   0  0  0  0  0
   98.2079  108.7085  124.8426 O   0  0  0  0  0
   97.6638  103.1360  121.8430 F   0  0  0  0  0
   96.1064  104.3354  120.7528 F   0  0  0  0  0
   95.6115  103.3905  122.7377 F   0  0  0  0  0
  101.2200  105.8057  128.1028 S   0  0  0  0  0
  1  2  1  0  0  0
  2  3  1  0  0  0
  3  4  1  0  0  0
  4 23  1  0  0  0
  5 32  1  0  0  0
  6 24  1  0  0  0
  6  7  1  0  0  0
  8  9  1  0  0  0
 10 11  1  0  0  0
 12 28  1  0  0  0
 12  7  1  0  0  0
 13 25  1  0  0  0
 13 14  1  0  0  0
 13 15  1  0  0  0
 13 16  1  0  0  0
 17  9  1  0  0  0
 17 29  1  0  0  0
 17 30  1  0  0  0
 17 31  1  0  0  0
 18 32  1  0  0  0
 19 20  1  0  0  0
 21 26  1  0  0  0
 22 23  1  0  0  0
 22 18  1  0  0  0
 23  5  1  0  0  0
 25 28  1  0  0  0
  5 24  2  0  0  0
  6 27  2  0  0  0
  7  8  2  0  0  0
  9 10  2  0  0  0
 11 12  2  0  0  0
 18 19  2  0  0  0
 20 26  2  0  0  0
 21 22  2  0  0  0
M  END
> <rmsd>
0.657243311

$$$$
CHEMBL1076685_8GUS


 25 27  0  0  0  0  0  0  0  0999 V2000
   99.2508  110.9532  123.2819 C   0  0  0  0  0
   98.5639  108.5704  123.4580 C   0  0  0  0  0
   97.4506  107.7919  123.1308 C   0  0  0  0  0
   97.1476  106.6338  123.8440 C   0  0  0  0  0
   95.9531  105.8225  123.4495 C   0  0  0  0  0
   96.3437  104.6218  122.6500 C   0  0  0  0  0
   96.0677  104.4401  121.3063 C   0  0  0  0  0
   96.5579  103.2219  120.8137 C   0  0  0  0  0
   97.2194  102.4411  121.7597 C   0  0  0  0  0
   97.9780  106.2345  124.8936 C   0  0  0  0  0
   99.1173  106.9786  125.2309 C   0  0  0  0  0
   99.7180  105.3811  127.0296 C   0  0  0  0  0
   99.4291  108.1498  124.5049 C   0  0  0  0  0
  100.6961  108.8542  124.7904 C   0  0  0  0  0
  100.9551  109.3552  126.0741 C   0  0  0  0  0
  102.1609  110.0077  126.3451 C   0  0  0  0  0
  103.1162  110.1593  125.3364 C   0  0  0  0  0
  102.8668  109.6566  124.0566 C   0  0  0  0  0
  101.6618  109.0032  123.7844 C   0  0  0  0  0
   98.7572  109.7453  122.7197 O   0  0  0  0  0
   95.2129  105.4430  124.5712 O   0  0  0  0  0
   99.9622  106.5539  126.2649 O   0  0  0  0  0
   97.1863  103.2852  123.2146 S   0  0  0  0  0
  102.4749  110.6332  127.9488 Cl  0  0  0  0  0
  104.0639  109.8441  122.7942 Cl  0  0  0  0  0
  1 20  1  0  0  0
  2 20  1  0  0  0
  3  4  1  0  0  0
  5  4  1  0  0  0
  5 21  1  0  0  0
  5  6  1  0  0  0
  6 23  1  0  0  0
  7  8  1  0  0  0
  9 23  1  0  0  0
 10 11  1  0  0  0
 11 22  1  0  0  0
 12 22  1  0  0  0
 13 14  1  0  0  0
 13  2  1  0  0  0
 15 16  1  0  0  0
 16 24  1  0  0  0
 17 18  1  0  0  0
 18 25  1  0  0  0
 19 14  1  0  0  0
  2  3  2  0  0  0
  4 10  2  0  0  0
  6  7  2  0  0  0
  8  9  2  0  0  0
 11 13  2  0  0  0
 14 15  2  0  0  0
 16 17  2  0  0  0
 18 19  2  0  0  0
M  END
> <rmsd>
0.763550878

$$$$
CHEMBL3650084_8GUS


 32 34  0  0  0  0  0  0  0  0999 V2000
  103.3042  109.7056  130.0809 C   0  0  0  0  0
  102.3716  109.4340  128.9201 C   0  0  0  0  0
  102.2383  110.6861  128.0739 C   0  0  0  0  0
  101.3147  110.4297  126.8935 C   0  0  0  0  0
  103.4752  108.9435  124.4011 C   0  0  0  0  0
  104.6456  109.1176  123.4950 C   0  0  0  0  0
  104.4771  109.8227  122.1659 C   0  0  0  0  0
  105.9635  109.3718  124.1884 C   0  0  0  0  0
  105.6887  108.0251  123.5312 C   0  0  0  0  0
  101.4867  108.3123  125.6051 C   0  0  0  0  0
   99.8776  106.4939  125.8785 C   0  0  0  0  0
   99.6879  106.0083  124.4924 C   0  0  0  0  0
   99.8469  104.6396  124.2353 C   0  0  0  0  0
   99.6657  104.1204  122.9476 C   0  0  0  0  0
   99.9130  102.6655  122.6768 C   0  0  0  0  0
   99.3443  104.9894  121.8992 C   0  0  0  0  0
   99.1665  106.3517  122.1436 C   0  0  0  0  0
   99.3268  106.8722  123.4366 C   0  0  0  0  0
   98.6912  110.4568  123.1770 C   0  0  0  0  0
  100.1073  110.8989  123.4990 C   0  0  0  0  0
   98.1365  111.3667  122.1025 C   0  0  0  0  0
   97.8195  110.5820  124.4154 C   0  0  0  0  0
  101.9503  109.5433  125.9255 N   0  0  0  0  0
  103.0412  109.9022  125.2504 N   0  0  0  0  0
  100.4454  107.7775  126.1774 N   0  0  0  0  0
   98.6894  109.0843  122.6749 N   0  0  0  0  0
  102.4753  107.5840  124.4420 S   0  0  0  0  0
   99.4934  105.7701  126.8353 O   0  0  0  0  0
   99.1208  108.2338  123.6755 O   0  0  0  0  0
  101.2440  102.4819  122.3514 F   0  0  0  0  0
   99.1263  102.2299  121.6244 F   0  0  0  0  0
   99.6126  101.9074  123.7959 F   0  0  0  0  0
  1  2  1  0  0  0
  2  3  1  0  0  0
  3  4  1  0  0  0
  4 23  1  0  0  0
  5 27  1  0  0  0
  6  5  1  0  0  0
  6  7  1  0  0  0
  6  8  1  0  0  0
  8  9  1  0  0  0
  9  6  1  0  0  0
 10 27  1  0  0  0
 10 23  1  0  0  0
 11 25  1  0  0  0
 11 12  1  0  0  0
 13 14  1  0  0  0
 15 14  1  0  0  0
 15 30  1  0  0  0
 15 31  1  0  0  0
 15 32  1  0  0  0
 16 17  1  0  0  0
 18 29  1  0  0  0
 18 12  1  0  0  0
 19 26  1  0  0  0
 19 20  1  0  0  0
 19 21  1  0  0  0
 19 22  1  0  0  0
 23 24  1  0  0  0
 26 29  1  0  0  0
  5 24  2  0  0  0
 10 25  2  0  0  0
 11 28  2  0  0  0
 12 13  2  0  0  0
 14 16  2  0  0  0
 17 18  2  0  0  0
M  END
> <rmsd>
0.811375201

$$$$
CHEMBL3650095_8GUR


 35 36  0  0  0  0  0  0  0  0999 V2000
  102.4254  111.2032  127.1205 C   0  0  0  0  0
  103.9075  109.3012  126.4208 C   0  0  0  0  0
  105.2164  109.8986  126.8918 C   0  0  0  0  0
  105.1437  110.2141  128.3736 C   0  0  0  0  0
  106.3822  108.9457  126.6691 C   0  0  0  0  0
  105.4984  111.1772  126.1264 C   0  0  0  0  0
  103.7690  108.0987  125.7315 C   0  0  0  0  0
  102.4122  108.0346  125.4709 C   0  0  0  0  0
  100.4752  106.8607  124.5383 C   0  0  0  0  0
   99.9877  106.6095  123.1650 C   0  0  0  0  0
   98.7678  105.9401  122.9912 C   0  0  0  0  0
   98.2600  105.6826  121.7124 C   0  0  0  0  0
   96.9747  104.9239  121.5449 C   0  0  0  0  0
   98.9978  106.0791  120.5909 C   0  0  0  0  0
  100.2054  106.7604  120.7472 C   0  0  0  0  0
  100.7051  107.0406  122.0275 C   0  0  0  0  0
  103.7499  108.9965  121.5692 C   0  0  0  0  0
  104.6840  108.0901  122.3494 C   0  0  0  0  0
  103.3113  110.1570  122.4452 C   0  0  0  0  0
  104.5006  109.5511  120.3778 C   0  0  0  0  0
  100.4132  109.5684  125.6955 C   0  0  0  0  0
  100.3392  110.2729  124.3495 C   0  0  0  0  0
   98.9097  110.6521  123.9992 C   0  0  0  0  0
  102.6983  109.9002  126.5228 N   0  0  0  0  0
  101.8702  107.0683  124.7862 N   0  0  0  0  0
  102.5909  108.2478  121.0874 N   0  0  0  0  0
  101.7835  109.1350  125.9491 N   0  0  0  0  0
   99.6713  106.8068  125.5099 O   0  0  0  0  0
  101.8888  107.7666  122.1755 O   0  0  0  0  0
   96.3211  105.3327  120.3951 F   0  0  0  0  0
   96.1396  105.1436  122.6274 F   0  0  0  0  0
   97.2483  103.5712  121.4533 F   0  0  0  0  0
   98.3850  111.4803  124.9741 F   0  0  0  0  0
   98.9075  111.3237  122.7916 F   0  0  0  0  0
   98.1282  109.5152  123.8859 F   0  0  0  0  0
  1 24  1  0  0  0
  3  2  1  0  0  0
  3  4  1  0  0  0
  3  5  1  0  0  0
  3  6  1  0  0  0
  7  8  1  0  0  0
  8 27  1  0  0  0
  9 25  1  0  0  0
  9 10  1  0  0  0
 11 12  1  0  0  0
 13 12  1  0  0  0
 13 30  1  0  0  0
 13 31  1  0  0  0
 13 32  1  0  0  0
 14 15  1  0  0  0
 16 29  1  0  0  0
 16 10  1  0  0  0
 17 26  1  0  0  0
 17 18  1  0  0  0
 17 19  1  0  0  0
 17 20  1  0  0  0
 21 27  1  0  0  0
 21 22  1  0  0  0
 22 23  1  0  0  0
 23 33  1  0  0  0
 23 34  1  0  0  0
 23 35  1  0  0  0
 24  2  1  0  0  0
 26 29  1  0  0  0
 27 24  1  0  0  0
  2  7  2  0  0  0
  8 25  2  0  0  0
  9 28  2  0  0  0
 10 11  2  0  0  0
 12 14  2  0  0  0
 15 16  2  0  0  0
M  END
> <rmsd>
0.736233354

$$$$
CHEMBL254730_8GUQ


 26 28  0  0  0  0  0  0  0  0999 V2000
  103.6268  107.8954  125.6940 C   0  0  0  0  0
  102.7135  109.0645  125.3731 C   0  0  0  0  0
  103.3951  110.0118  124.4025 C   0  0  0  0  0
  102.2854  109.7808  126.6227 C   0  0  0  0  0
  103.2495  110.3840  127.4462 C   0  0  0  0  0
  102.8704  111.0538  128.6105 C   0  0  0  0  0
  101.5206  111.1330  128.9728 C   0  0  0  0  0
  101.1168  111.8380  130.2017 C   0  0  0  0  0
   99.2703  112.5649  131.7773 C   0  0  0  0  0
   97.7604  112.8215  131.6763 C   0  0  0  0  0
   97.0502  112.8547  133.0366 C   0  0  0  0  0
   97.9856  113.3427  134.1390 C   0  0  0  0  0
   99.1920  112.4075  134.3007 C   0  0  0  0  0
   99.6055  111.7087  132.9983 C   0  0  0  0  0
  100.5565  110.5334  128.1538 C   0  0  0  0  0
  100.9237  109.8591  126.9835 C   0  0  0  0  0
   98.6353  109.1824  123.6125 C   0  0  0  0  0
   97.7224  110.3011  123.1546 C   0  0  0  0  0
   98.5309  111.5521  123.3406 C   0  0  0  0  0
   99.4925  111.1998  124.4463 C   0  0  0  0  0
  101.9893  112.3789  130.9352 O   0  0  0  0  0
   99.8554  107.6406  125.9657 O   0  0  0  0  0
   98.3107  109.4316  126.5936 O   0  0  0  0  0
   99.7335  111.9129  130.5620 N   0  0  0  0  0
   99.7359  109.7635  124.3782 N   0  0  0  0  0
   99.6577  109.1306  125.9934 S   0  0  0  0  0
  1  2  1  0  0  0
  2  3  1  0  0  0
  2  4  1  0  0  0
  5  6  1  0  0  0
  7  8  1  0  0  0
  7 15  1  0  0  0
  8 24  1  0  0  0
  9 24  1  0  0  0
  9 10  1  0  0  0
 10 11  1  0  0  0
 11 12  1  0  0  0
 12 13  1  0  0  0
 13 14  1  0  0  0
 14  9  1  0  0  0
 16  4  1  0  0  0
 17 25  1  0  0  0
 17 18  1  0  0  0
 18 19  1  0  0  0
 19 20  1  0  0  0
 20 25  1  0  0  0
 26 16  1  0  0  0
 26 25  1  0  0  0
  4  5  2  0  0  0
  6  7  2  0  0  0
  8 21  2  0  0  0
 15 16  2  0  0  0
 26 22  2  0  0  0
 26 23  2  0  0  0
M  END
> <rmsd>
0.663780451

$$$$
CHEMBL527031_6PT0


 34 39  0  0  0  0  0  0  0  0999 V2000
   96.3575  105.9412  122.8595 C   0  0  0  0  0
   95.6511  106.6251  121.8481 C   0  0  0  0  0
   95.9027  107.9893  121.5837 C   0  0  0  0  0
   96.8769  108.6298  122.3617 C   0  0  0  0  0
   97.5627  107.9477  123.3507 C   0  0  0  0  0
   97.3288  106.6033  123.6281 C   0  0  0  0  0
   98.4262  108.8572  123.9239 C   0  0  0  0  0
   98.2289  110.0460  123.2619 C   0  0  0  0  0
   96.7833  110.9784  121.4330 C   0  0  0  0  0
   95.6045  111.6852  122.1074 C   0  0  0  0  0
   94.4789  112.1389  120.0377 C   0  0  0  0  0
   94.0942  113.2249  119.0206 C   0  0  0  0  0
   95.5120  114.7363  119.9014 C   0  0  0  0  0
   96.0088  113.7697  120.9880 C   0  0  0  0  0
   98.9448  111.1875  123.6048 C   0  0  0  0  0
   99.8740  111.0692  124.6515 C   0  0  0  0  0
   99.3512  108.7562  124.9614 C   0  0  0  0  0
  101.0597  109.7709  126.4022 C   0  0  0  0  0
  101.0303  110.9285  127.4173 C   0  0  0  0  0
  101.7395  110.4610  128.6790 C   0  0  0  0  0
  103.2103  110.4581  128.2549 C   0  0  0  0  0
  103.1633  110.9001  126.7842 C   0  0  0  0  0
  102.5376  109.7709  125.9296 C   0  0  0  0  0
  103.1736  108.4141  126.1998 C   0  0  0  0  0
  102.7321  110.0877  124.4501 C   0  0  0  0  0
  102.0285  111.8940  126.8493 C   0  0  0  0  0
   99.6669  111.5306  127.7129 C   0  0  0  0  0
   94.2158  108.0787  119.7771 C   0  0  0  0  0
   97.2879  109.9206  122.2986 N   0  0  0  0  0
   95.0081  112.7320  121.2738 N   0  0  0  0  0
  100.0666  109.8759  125.3147 N   0  0  0  0  0
   94.1575  114.5044  119.6014 O   0  0  0  0  0
   99.5227  107.6587  125.5600 O   0  0  0  0  0
   95.2140  108.6854  120.5855 O   0  0  0  0  0
  2  3  1  0  0  0
  3 34  1  0  0  0
  4  5  1  0  0  0
  5  7  1  0  0  0
  6  1  1  0  0  0
  8 29  1  0  0  0
  8 15  1  0  0  0
  9 29  1  0  0  0
  9 10  1  0  0  0
 10 30  1  0  0  0
 11 30  1  0  0  0
 11 12  1  0  0  0
 12 32  1  0  0  0
 13 32  1  0  0  0
 13 14  1  0  0  0
 14 30  1  0  0  0
 16 31  1  0  0  0
 17  7  1  0  0  0
 18 31  1  0  0  0
 18 19  1  0  0  0
 19 20  1  0  0  0
 19 27  1  0  0  0
 20 21  1  0  0  0
 22 21  1  0  0  0
 22 23  1  0  0  0
 22 26  1  0  0  0
 23 24  1  0  0  0
 23 25  1  0  0  0
 23 18  1  0  0  0
 26 19  1  0  0  0
 28 34  1  0  0  0
 29  4  1  0  0  0
 31 17  1  0  0  0
  1  2  2  0  0  0
  3  4  2  0  0  0
  5  6  2  0  0  0
  7  8  2  0  0  0
 15 16  2  0  0  0
 17 33  2  0  0  0
M  END
> <rmsd>
0.664124191

$$$$
CHEMBL404650_6PT0


 29 32  0  0  0  0  0  0  0  0999 V2000
   98.4564  111.7049  121.2854 C   0  0  0  0  0
   98.7696  110.8554  122.4700 C   0  0  0  0  0
   99.0280  111.4855  123.6898 C   0  0  0  0  0
   99.3251  110.7295  124.8251 C   0  0  0  0  0
   99.3754  109.3312  124.7568 C   0  0  0  0  0
   99.6671  108.5100  125.9543 C   0  0  0  0  0
  101.0871  110.2832  127.1532 C   0  0  0  0  0
  101.2827  110.8435  128.5811 C   0  0  0  0  0
  100.7001  112.2453  128.6485 C   0  0  0  0  0
  100.6380  110.0115  129.6904 C   0  0  0  0  0
  102.8215  110.9076  128.7179 C   0  0  0  0  0
  103.3745  109.4780  128.8256 C   0  0  0  0  0
  103.1734  108.9052  127.4209 C   0  0  0  0  0
  102.5335  110.0742  126.6808 C   0  0  0  0  0
  102.7017  110.0103  125.1759 C   0  0  0  0  0
  103.2330  111.2416  127.3056 C   0  0  0  0  0
   99.1027  108.7023  123.5344 C   0  0  0  0  0
   98.8049  109.4493  122.3887 C   0  0  0  0  0
   95.9211  108.5305  121.3347 C   0  0  0  0  0
   94.4960  108.6777  120.7967 C   0  0  0  0  0
   95.1810  108.4296  118.6531 C   0  0  0  0  0
   96.6440  108.2692  119.0735 C   0  0  0  0  0
   99.3236  107.2979  125.9631 O   0  0  0  0  0
   98.5777  107.1136  121.1014 O   0  0  0  0  0
   99.4864  109.0098  119.8508 O   0  0  0  0  0
   94.3398  107.8873  119.6426 O   0  0  0  0  0
  100.3154  109.0400  127.1180 N   0  0  0  0  0
   96.8751  108.9947  120.3246 N   0  0  0  0  0
   98.4707  108.5984  120.8799 S   0  0  0  0  0
  1  2  1  0  0  0
  3  4  1  0  0  0
  5  6  1  0  0  0
  5 17  1  0  0  0
  6 27  1  0  0  0
  7 27  1  0  0  0
  7  8  1  0  0  0
  8  9  1  0  0  0
  8 10  1  0  0  0
 11  8  1  0  0  0
 11 12  1  0  0  0
 12 13  1  0  0  0
 13 14  1  0  0  0
 14 15  1  0  0  0
 14 16  1  0  0  0
 14  7  1  0  0  0
 16 11  1  0  0  0
 18  2  1  0  0  0
 19 28  1  0  0  0
 19 20  1  0  0  0
 20 26  1  0  0  0
 21 26  1  0  0  0
 21 22  1  0  0  0
 22 28  1  0  0  0
 29 18  1  0  0  0
 29 28  1  0  0  0
  2  3  2  0  0  0
  4  5  2  0  0  0
  6 23  2  0  0  0
 17 18  2  0  0  0
 29 24  2  0  0  0
 29 25  2  0  0  0
M  END
> <rmsd>
0.790963292

$$$$
CHEMBL371575_8GUT


 33 35  0  0  0  0  0  0  0  0999 V2000
   96.9216  112.9914  122.7279 C   0  0  0  0  0
   97.6290  111.7628  123.1728 C   0  0  0  0  0
   96.9521  110.5466  123.2200 C   0  0  0  0  0
   97.6201  109.3962  123.6381 C   0  0  0  0  0
   98.9710  109.4383  124.0116 C   0  0  0  0  0
   98.6798  106.5675  124.0900 C   0  0  0  0  0
   98.7130  106.0717  122.7825 C   0  0  0  0  0
   97.8764  105.0160  122.4125 C   0  0  0  0  0
   96.9995  104.4464  123.3493 C   0  0  0  0  0
   96.0582  103.3358  122.9724 C   0  0  0  0  0
   96.5554  102.4124  121.8682 C   0  0  0  0  0
   95.3411  104.5666  120.0379 C   0  0  0  0  0
   96.9649  104.9510  124.6543 C   0  0  0  0  0
   97.8019  106.0071  125.0240 C   0  0  0  0  0
   99.6588  110.6810  123.9685 C   0  0  0  0  0
  101.6313  110.3743  126.0812 C   0  0  0  0  0
  100.7459  110.8143  127.0728 C   0  0  0  0  0
  100.9289  110.4330  128.4043 C   0  0  0  0  0
  102.0029  109.6115  128.7535 C   0  0  0  0  0
  102.8959  109.1746  127.7719 C   0  0  0  0  0
  102.7177  109.5543  126.4379 C   0  0  0  0  0
   98.9713  111.8266  123.5454 C   0  0  0  0  0
   99.7082  107.9186  124.5421 S   0  0  0  0  0
   94.4929  104.9965  121.5424 S   0  0  0  0  0
  101.3570  110.8854  124.4182 S   0  0  0  0  0
   99.8695  107.9224  126.0360 O   0  0  0  0  0
  101.0491  107.7105  123.8982 O   0  0  0  0  0
   95.0195  106.3081  122.0538 O   0  0  0  0  0
   93.0321  105.1534  121.2302 O   0  0  0  0  0
  102.2161  110.1193  123.4524 O   0  0  0  0  0
  101.7272  112.3395  124.3216 O   0  0  0  0  0
   94.6697  103.7683  122.7691 N   0  0  0  0  0
  103.6052  109.1210  125.5096 F   0  0  0  0  0
  1  2  1  0  0  0
  3  4  1  0  0  0
  5 15  1  0  0  0
  7  8  1  0  0  0
  9 13  1  0  0  0
 10  9  1  0  0  0
 10 11  1  0  0  0
 10 32  1  0  0  0
 14  6  1  0  0  0
 17 18  1  0  0  0
 19 20  1  0  0  0
 21 33  1  0  0  0
 21 16  1  0  0  0
 22  2  1  0  0  0
 23  5  1  0  0  0
 23  6  1  0  0  0
 24 32  1  0  0  0
 24 12  1  0  0  0
 25 15  1  0  0  0
 25 16  1  0  0  0
  2  3  2  0  0  0
  4  5  2  0  0  0
  6  7  2  0  0  0
  8  9  2  0  0  0
 13 14  2  0  0  0
 15 22  2  0  0  0
 16 17  2  0  0  0
 18 19  2  0  0  0
 20 21  2  0  0  0
 23 26  2  0  0  0
 23 27  2  0  0  0
 24 28  2  0  0  0
 24 29  2  0  0  0
 25 30  2  0  0  0
 25 31  2  0  0  0
M  END
> <rmsd>
0.896455884

$$$$
CHEMBL370445_8GUS


 36 38  0  0  0  0  0  0  0  0999 V2000
  102.5072  109.1008  124.6583 C   0  0  0  0  0
  101.5058  109.7640  125.2327 C   0  0  0  0  0
  100.3482  110.2262  124.4272 C   0  0  0  0  0
  100.1464  109.7556  123.1188 C   0  0  0  0  0
   99.0581  110.1992  122.3630 C   0  0  0  0  0
   98.1553  111.1227  122.8998 C   0  0  0  0  0
   96.9791  111.5596  122.0692 C   0  0  0  0  0
   96.4324  112.9437  122.3980 C   0  0  0  0  0
   96.2549  108.8417  124.2606 C   0  0  0  0  0
   98.3499  111.5952  124.2059 C   0  0  0  0  0
   99.4398  111.1536  124.9599 C   0  0  0  0  0
  101.6250  110.1133  126.6620 C   0  0  0  0  0
  102.5954  111.0532  127.0371 C   0  0  0  0  0
  102.7331  111.4418  128.3708 C   0  0  0  0  0
  101.9020  110.8993  129.3516 C   0  0  0  0  0
  101.2738  110.8275  131.7663 C   0  0  0  0  0
  100.9349  109.9539  128.9844 C   0  0  0  0  0
  100.7892  109.5466  127.6535 C   0  0  0  0  0
   99.2476  107.3689  128.7486 C   0  0  0  0  0
   98.0018  107.4835  129.3771 C   0  0  0  0  0
   97.7340  106.7672  130.5469 C   0  0  0  0  0
   98.7130  105.9354  131.0965 C   0  0  0  0  0
   99.9599  105.8200  130.4764 C   0  0  0  0  0
  100.2312  106.5342  129.3047 C   0  0  0  0  0
   95.9230  110.5459  121.9578 N   0  0  0  0  0
   95.2431  110.0899  123.4983 S   0  0  0  0  0
   99.5805  108.3071  127.2961 S   0  0  0  0  0
   93.8714  109.5206  123.2725 O   0  0  0  0  0
   95.1335  111.2759  124.4162 O   0  0  0  0  0
  102.0630  111.3108  130.6809 O   0  0  0  0  0
   98.3143  108.9654  126.8251 O   0  0  0  0  0
  100.0754  107.3692  126.2311 O   0  0  0  0  0
  101.4184  109.4567  131.8855 F   0  0  0  0  0
   99.9416  111.1381  131.5586 F   0  0  0  0  0
  101.6981  111.4278  132.9359 F   0  0  0  0  0
  101.4512  106.4177  128.7228 F   0  0  0  0  0
  2  3  1  0  0  0
  2 12  1  0  0  0
  4  5  1  0  0  0
  6 10  1  0  0  0
  7  6  1  0  0  0
  7  8  1  0  0  0
  7 25  1  0  0  0
 11  3  1  0  0  0
 13 14  1  0  0  0
 15 30  1  0  0  0
 15 17  1  0  0  0
 16 30  1  0  0  0
 16 33  1  0  0  0
 16 34  1  0  0  0
 16 35  1  0  0  0
 18 12  1  0  0  0
 20 21  1  0  0  0
 22 23  1  0  0  0
 24 36  1  0  0  0
 24 19  1  0  0  0
 26 25  1  0  0  0
 26  9  1  0  0  0
 27 18  1  0  0  0
 27 19  1  0  0  0
  1  2  2  0  0  0
  3  4  2  0  0  0
  5  6  2  0  0  0
 10 11  2  0  0  0
 12 13  2  0  0  0
 14 15  2  0  0  0
 17 18  2  0  0  0
 19 20  2  0  0  0
 21 22  2  0  0  0
 23 24  2  0  0  0
 26 28  2  0  0  0
 26 29  2  0  0  0
 27 31  2  0  0  0
 27 32  2  0  0  0
M  END
> <rmsd>
0.600074351

$$$$
CHEMBL232928_5ZTY


 22 24  0  0  0  0  0  0  0  0999 V2000
  101.5758  111.2857  127.6471 C   0  0  0  0  0
  102.2887  108.8734  126.9767 C   0  0  0  0  0
  101.4727  107.5130  128.9031 C   0  0  0  0  0
  100.0866  107.3876  129.5359 C   0  0  0  0  0
  100.0762  107.1478  131.0257 C   0  0  0  0  0
   99.7087  108.5155  130.4648 C   0  0  0  0  0
   98.9177  106.7735  128.7679 C   0  0  0  0  0
  100.3692  107.2553  126.6690 C   0  0  0  0  0
   98.9687  107.4297  124.6315 C   0  0  0  0  0
   98.6602  106.0731  124.4400 C   0  0  0  0  0
   97.7301  105.6810  123.4755 C   0  0  0  0  0
   97.1066  106.6407  122.6780 C   0  0  0  0  0
   97.4190  107.9911  122.8410 C   0  0  0  0  0
   98.3544  108.3944  123.8083 C   0  0  0  0  0
   98.6937  109.8487  123.9699 C   0  0  0  0  0
   99.3120  110.4133  122.7041 C   0  0  0  0  0
   97.4726  110.6587  124.3655 C   0  0  0  0  0
  102.9365  110.1549  128.0514 S   0  0  0  0  0
  102.8824  108.7692  125.4512 S   0  0  0  0  0
   99.5230  105.8103  127.3445 S   0  0  0  0  0
  101.3741  107.8865  127.4908 N   0  0  0  0  0
   99.9649  107.8506  125.5809 N   0  0  0  0  0
  1 18  1  0  0  0
  2 18  1  0  0  0
  2 21  1  0  0  0
  3 21  1  0  0  0
  3  4  1  0  0  0
  4  5  1  0  0  0
  4  7  1  0  0  0
  5  6  1  0  0  0
  6  4  1  0  0  0
  7 20  1  0  0  0
  8 20  1  0  0  0
  8 21  1  0  0  0
  9 22  1  0  0  0
 10 11  1  0  0  0
 12 13  1  0  0  0
 14  9  1  0  0  0
 15 14  1  0  0  0
 15 16  1  0  0  0
 15 17  1  0  0  0
  2 19  2  0  0  0
  8 22  2  0  0  0
  9 10  2  0  0  0
 11 12  2  0  0  0
 13 14  2  0  0  0
M  END
> <rmsd>
0.818540692

$$$$
CHEMBL3590293_8GUS


 28 30  0  0  0  0  0  0  0  0999 V2000
   98.9119  109.1370  121.6581 C   0  0  0  0  0
   99.6405  109.7529  122.8329 C   0  0  0  0  0
   98.6323  110.2377  123.8568 C   0  0  0  0  0
   99.3473  110.7825  125.0824 C   0  0  0  0  0
   99.5925  109.6870  126.1165 C   0  0  0  0  0
  100.1681  107.4367  125.2632 C   0  0  0  0  0
  100.9850  106.6242  124.3442 C   0  0  0  0  0
  100.5159  105.4369  123.9344 C   0  0  0  0  0
  100.6816  103.2972  122.6421 C   0  0  0  0  0
  100.6654  102.3214  123.8322 C   0  0  0  0  0
  101.9110  101.4389  123.8518 C   0  0  0  0  0
  102.0079  100.5836  122.5812 C   0  0  0  0  0
  101.3896  101.2493  121.3440 C   0  0  0  0  0
  101.4682  102.7704  121.4341 C   0  0  0  0  0
  102.2888  107.1788  123.9143 C   0  0  0  0  0
  102.8039  108.4048  124.5550 C   0  0  0  0  0
  104.1150  108.8161  124.2828 C   0  0  0  0  0
  104.6626  109.9298  124.9130 C   0  0  0  0  0
  106.6083  111.4297  125.2018 C   0  0  0  0  0
  103.8974  110.6282  125.8515 C   0  0  0  0  0
  102.5856  110.2449  126.1378 C   0  0  0  0  0
  101.8908  111.0021  127.2178 C   0  0  0  0  0
  101.9998  109.1410  125.4588 C   0  0  0  0  0
  100.6162  108.7448  125.6611 N   0  0  0  0  0
  101.2330  104.5782  123.0488 N   0  0  0  0  0
   99.0556  107.0009  125.6730 O   0  0  0  0  0
  102.9732  106.6088  123.0204 O   0  0  0  0  0
  105.9709  110.3101  124.6019 O   0  0  0  0  0
  1  2  1  0  0  0
  2  3  1  0  0  0
  3  4  1  0  0  0
  4  5  1  0  0  0
  5 24  1  0  0  0
  6  7  1  0  0  0
  7 15  1  0  0  0
  8 25  1  0  0  0
  9 25  1  0  0  0
  9 10  1  0  0  0
 10 11  1  0  0  0
 11 12  1  0  0  0
 12 13  1  0  0  0
 13 14  1  0  0  0
 14  9  1  0  0  0
 15 16  1  0  0  0
 17 18  1  0  0  0
 18 28  1  0  0  0
 19 28  1  0  0  0
 20 21  1  0  0  0
 22 21  1  0  0  0
 23 24  1  0  0  0
 23 16  1  0  0  0
 24  6  1  0  0  0
  6 26  2  0  0  0
  7  8  2  0  0  0
 15 27  2  0  0  0
 16 17  2  0  0  0
 18 20  2  0  0  0
 21 23  2  0  0  0
M  END
> <rmsd>
0.7524634

$$$$
CHEMBL3897056_8GUQ


 32 34  0  0  0  0  0  0  0  0999 V2000
  104.4897  107.7831  126.1428 C   0  0  0  0  0
  103.3294  108.4339  125.4799 C   0  0  0  0  0
  101.4266  109.1789  125.0599 C   0  0  0  0  0
   99.9440  109.4588  125.1102 C   0  0  0  0  0
   99.6373  110.7470  124.3583 C   0  0  0  0  0
   99.4296  109.5632  126.5598 C   0  0  0  0  0
  101.6775  111.3417  127.3437 C   0  0  0  0  0
   99.2004  107.0049  124.8360 C   0  0  0  0  0
   98.4721  106.0147  124.0294 C   0  0  0  0  0
   97.7718  103.7674  123.7027 C   0  0  0  0  0
   97.0990  104.1126  122.5257 C   0  0  0  0  0
   97.1184  105.4515  122.0968 C   0  0  0  0  0
   97.8137  106.4017  122.8582 C   0  0  0  0  0
   96.3496  107.1683  120.4704 C   0  0  0  0  0
   95.0969  107.8266  121.0291 C   0  0  0  0  0
   96.3881  103.0674  121.7737 C   0  0  0  0  0
   96.2017  101.7053  121.9482 C   0  0  0  0  0
   95.3879  101.6311  120.7065 C   0  0  0  0  0
   95.5767  103.0301  120.5240 C   0  0  0  0  0
  102.0977  108.4991  126.0166 N   0  0  0  0  0
  102.2081  109.4750  124.0000 N   0  0  0  0  0
   99.2305  108.3807  124.4273 N   0  0  0  0  0
   98.4350  104.7119  124.4203 N   0  0  0  0  0
  103.3791  109.0055  124.3040 O   0  0  0  0  0
   99.5825  110.8362  128.9157 O   0  0  0  0  0
   99.1827  112.2256  126.9456 O   0  0  0  0  0
   99.7914  106.6388  125.8876 O   0  0  0  0  0
   96.4558  105.8203  120.9188 O   0  0  0  0  0
   99.9306  111.0316  127.4677 S   0  0  0  0  0
   93.9800  107.1084  120.6439 F   0  0  0  0  0
   95.1578  107.8769  122.4093 F   0  0  0  0  0
   95.0024  109.1125  120.5335 F   0  0  0  0  0
  1  2  1  0  0  0
  2 24  1  0  0  0
  3 20  1  0  0  0
  4  3  1  0  0  0
  4  5  1  0  0  0
  4  6  1  0  0  0
  4 22  1  0  0  0
  6 29  1  0  0  0
  8  9  1  0  0  0
 10 23  1  0  0  0
 11 12  1  0  0  0
 11 16  1  0  0  0
 12 28  1  0  0  0
 13  9  1  0  0  0
 14 28  1  0  0  0
 14 15  1  0  0  0
 15 30  1  0  0  0
 15 31  1  0  0  0
 15 32  1  0  0  0
 18 17  1  0  0  0
 18 19  1  0  0  0
 19 16  1  0  0  0
 21 24  1  0  0  0
 22  8  1  0  0  0
 29  7  1  0  0  0
  2 20  2  0  0  0
  3 21  2  0  0  0
  8 27  2  0  0  0
  9 23  2  0  0  0
 10 11  2  0  0  0
 12 13  2  0  0  0
 16 17  2  0  0  0
 29 25  2  0  0  0
 29 26  2  0  0  0
M  END
> <rmsd>
0.586646736

$$$$
CHEMBL3590621_8GUR


 24 26  0  0  0  0  0  0  0  0999 V2000
  103.8950  109.5406  125.2173 C   0  0  0  0  0
  102.9871  108.4414  124.6991 C   0  0  0  0  0
  102.4222  107.6291  125.8542 C   0  0  0  0  0
  101.3413  108.4034  126.6022 C   0  0  0  0  0
   99.3721  107.4001  125.4636 C   0  0  0  0  0
   98.4400  107.4048  124.3226 C   0  0  0  0  0
   97.7710  106.2812  124.0263 C   0  0  0  0  0
   96.1233  104.9539  122.6366 C   0  0  0  0  0
   97.0897  103.8220  122.3233 C   0  0  0  0  0
   96.8027  102.7194  123.3234 C   0  0  0  0  0
   95.4238  103.0066  123.8734 C   0  0  0  0  0
   95.2790  104.5095  123.8168 C   0  0  0  0  0
   98.2981  108.6638  123.5583 C   0  0  0  0  0
   98.9438  109.8942  124.0555 C   0  0  0  0  0
   98.6655  111.1100  123.4176 C   0  0  0  0  0
   99.2106  112.3001  123.8866 C   0  0  0  0  0
  100.0281  112.2897  125.0117 C   0  0  0  0  0
  100.3286  111.0930  125.6663 C   0  0  0  0  0
  101.1476  111.2095  126.9066 C   0  0  0  0  0
   99.8123  109.8582  125.1758 C   0  0  0  0  0
  100.1476  108.5748  125.7719 N   0  0  0  0  0
   96.8406  106.1851  122.9445 N   0  0  0  0  0
   99.5085  106.3557  126.1609 O   0  0  0  0  0
   97.6198  108.7030  122.4947 O   0  0  0  0  0
  1  2  1  0  0  0
  2  3  1  0  0  0
  3  4  1  0  0  0
  4 21  1  0  0  0
  5  6  1  0  0  0
  6 13  1  0  0  0
  7 22  1  0  0  0
  8 22  1  0  0  0
  8  9  1  0  0  0
  9 10  1  0  0  0
 10 11  1  0  0  0
 11 12  1  0  0  0
 12  8  1  0  0  0
 13 14  1  0  0  0
 15 16  1  0  0  0
 17 18  1  0  0  0
 19 18  1  0  0  0
 20 21  1  0  0  0
 20 14  1  0  0  0
 21  5  1  0  0  0
  5 23  2  0  0  0
  6  7  2  0  0  0
 13 24  2  0  0  0
 14 15  2  0  0  0
 16 17  2  0  0  0
 18 20  2  0  0  0
M  END
> <rmsd>
0.843945503

$$$$
CHEMBL410243_8GUR


 29 30  0  0  0  0  0  0  0  0999 V2000
   97.2015  105.0434  120.0955 C   0  0  0  0  0
   97.2409  106.1393  121.1398 C   0  0  0  0  0
   98.2450  107.9561  121.8833 C   0  0  0  0  0
   99.3867  108.9416  121.7151 C   0  0  0  0  0
   99.6300  109.7186  124.0897 C   0  0  0  0  0
  100.2630  108.2571  125.9439 C   0  0  0  0  0
  101.0882  109.1691  126.7670 C   0  0  0  0  0
  100.8038  109.2937  128.1328 C   0  0  0  0  0
  101.5581  110.1457  128.9397 C   0  0  0  0  0
  102.6090  110.8788  128.3883 C   0  0  0  0  0
  102.9228  110.7611  127.0272 C   0  0  0  0  0
  104.0656  111.5483  126.4435 C   0  0  0  0  0
  102.1682  109.8902  126.2180 C   0  0  0  0  0
   99.5239  110.9058  124.8045 C   0  0  0  0  0
   99.1931  111.8397  123.8230 C   0  0  0  0  0
   98.9756  113.3197  124.0539 C   0  0  0  0  0
   99.9781  114.1208  123.2448 C   0  0  0  0  0
   97.5711  113.7078  123.6320 C   0  0  0  0  0
   99.1480  113.6914  125.5185 C   0  0  0  0  0
   98.7885  111.8373  121.3418 C   0  0  0  0  0
   98.2915  107.0116  120.8592 O   0  0  0  0  0
   99.8687  107.1712  126.4457 O   0  0  0  0  0
   99.3614  109.9317  122.7880 N   0  0  0  0  0
   99.9211  108.5462  124.5785 N   0  0  0  0  0
   99.1069  111.2185  122.6228 N   0  0  0  0  0
  105.0303  110.6796  125.9667 F   0  0  0  0  0
  104.6417  112.3729  127.3954 F   0  0  0  0  0
  103.6045  112.3317  125.4009 F   0  0  0  0  0
  102.5033  109.7289  124.9110 F   0  0  0  0  0
  1  2  1  0  0  0
  2 21  1  0  0  0
  3 21  1  0  0  0
  3  4  1  0  0  0
  4 23  1  0  0  0
  5 14  1  0  0  0
  6 24  1  0  0  0
  6  7  1  0  0  0
  8  9  1  0  0  0
 10 11  1  0  0  0
 12 11  1  0  0  0
 12 26  1  0  0  0
 12 27  1  0  0  0
 12 28  1  0  0  0
 13 29  1  0  0  0
 13  7  1  0  0  0
 15 25  1  0  0  0
 16 15  1  0  0  0
 16 17  1  0  0  0
 16 18  1  0  0  0
 16 19  1  0  0  0
 20 25  1  0  0  0
 23  5  1  0  0  0
 25 23  1  0  0  0
  5 24  2  0  0  0
  6 22  2  0  0  0
  7  8  2  0  0  0
  9 10  2  0  0  0
 11 13  2  0  0  0
 14 15  2  0  0  0
M  END
> <rmsd>
0.544228673

$$$$
CHEMBL3910524_8GUQ


 30 33  0  0  0  0  0  0  0  0999 V2000
  102.5051  111.2619  129.7858 C   0  0  0  0  0
  102.0013  111.2167  128.3882 C   0  0  0  0  0
  101.3079  110.5592  126.5341 C   0  0  0  0  0
  100.9334  109.6745  125.3581 C   0  0  0  0  0
   99.8779  110.4067  124.5374 C   0  0  0  0  0
  102.1286  109.3198  124.4327 C   0  0  0  0  0
  103.2574  110.3388  124.4339 C   0  0  0  0  0
  103.4137  109.0311  125.1902 C   0  0  0  0  0
   99.6270  107.3766  125.2477 C   0  0  0  0  0
   99.3877  107.2923  123.7857 C   0  0  0  0  0
   99.9750  107.8749  121.5542 C   0  0  0  0  0
   98.9503  107.0750  121.0344 C   0  0  0  0  0
   98.1496  106.3387  121.9244 C   0  0  0  0  0
   98.3747  106.4550  123.3030 C   0  0  0  0  0
   96.2565  104.7599  122.2589 C   0  0  0  0  0
   95.1733  105.6802  122.8022 C   0  0  0  0  0
   95.6444  103.6022  121.4765 C   0  0  0  0  0
   98.7877  106.9406  119.5465 C   0  0  0  0  0
   98.6875  108.3070  118.8847 C   0  0  0  0  0
   97.4379  107.4898  119.1130 C   0  0  0  0  0
  101.7264  110.0784  127.7261 N   0  0  0  0  0
  101.3510  111.9081  126.4824 N   0  0  0  0  0
  100.3524  108.4400  125.8946 N   0  0  0  0  0
  100.1644  107.9654  122.8964 N   0  0  0  0  0
  101.7803  112.2748  127.6508 O   0  0  0  0  0
   99.1511  106.4690  125.9808 O   0  0  0  0  0
   97.1477  105.4954  121.4251 O   0  0  0  0  0
   96.6529  102.7767  121.0156 F   0  0  0  0  0
   94.8094  102.8681  122.2999 F   0  0  0  0  0
   94.9193  104.0790  120.3983 F   0  0  0  0  0
  1  2  1  0  0  0
  2 25  1  0  0  0
  3 21  1  0  0  0
  4  3  1  0  0  0
  4  5  1  0  0  0
  4  6  1  0  0  0
  4 23  1  0  0  0
  6  7  1  0  0  0
  7  8  1  0  0  0
  8  6  1  0  0  0
  9 10  1  0  0  0
 11 24  1  0  0  0
 12 13  1  0  0  0
 13 27  1  0  0  0
 14 10  1  0  0  0
 15 27  1  0  0  0
 15 16  1  0  0  0
 15 17  1  0  0  0
 17 28  1  0  0  0
 17 29  1  0  0  0
 17 30  1  0  0  0
 18 12  1  0  0  0
 18 19  1  0  0  0
 19 20  1  0  0  0
 20 18  1  0  0  0
 22 25  1  0  0  0
 23  9  1  0  0  0
  2 21  2  0  0  0
  3 22  2  0  0  0
  9 26  2  0  0  0
 10 24  2  0  0  0
 11 12  2  0  0  0
 13 14  2  0  0  0
M  END
> <rmsd>
0.827475011

$$$$
CHEMBL582810_6PT0


 26 29  0  0  0  0  0  0  0  0999 V2000
   96.5662  109.7009  124.1960 C   0  0  0  0  0
   98.0290  109.3354  124.0047 C   0  0  0  0  0
   98.3370  108.2246  123.0030 C   0  0  0  0  0
   98.8612  109.4418  125.2973 C   0  0  0  0  0
   99.9680  108.4221  125.4454 C   0  0  0  0  0
  101.3370  108.8153  125.8308 C   0  0  0  0  0
  102.4710  108.0155  125.6950 C   0  0  0  0  0
  104.9294  108.2270  126.0753 C   0  0  0  0  0
  105.6522  108.8252  124.8725 C   0  0  0  0  0
  105.0350  108.3737  123.5909 C   0  0  0  0  0
  104.4121  109.3064  122.7572 C   0  0  0  0  0
  103.8217  108.8721  121.5693 C   0  0  0  0  0
  103.8606  107.5191  121.2276 C   0  0  0  0  0
  104.4949  106.6172  122.0852 C   0  0  0  0  0
  103.1244  109.9090  126.5390 C   0  0  0  0  0
  103.8870  110.9551  127.0608 C   0  0  0  0  0
  103.2135  112.1342  127.4249 C   0  0  0  0  0
  101.8155  112.2404  127.2635 C   0  0  0  0  0
  101.0743  111.1705  126.7320 C   0  0  0  0  0
  101.7686  110.0154  126.3726 C   0  0  0  0  0
   99.0599  110.4520  124.1498 C   0  0  0  0  0
  100.3149  110.3603  123.2829 C   0  0  0  0  0
   98.5416  111.8456  124.4657 C   0  0  0  0  0
   99.7033  107.1974  125.3066 O   0  0  0  0  0
  103.5522  108.7003  126.1340 N   0  0  0  0  0
  105.0643  107.0585  123.2392 N   0  0  0  0  0
  1  2  1  0  0  0
  2  3  1  0  0  0
  2  4  1  0  0  0
  4  5  1  0  0  0
  4 21  1  0  0  0
  5  6  1  0  0  0
  7 25  1  0  0  0
  8 25  1  0  0  0
  8  9  1  0  0  0
  9 10  1  0  0  0
 10 26  1  0  0  0
 11 12  1  0  0  0
 13 14  1  0  0  0
 16 17  1  0  0  0
 18 19  1  0  0  0
 20  6  1  0  0  0
 20 15  1  0  0  0
 21 22  1  0  0  0
 21 23  1  0  0  0
 21  2  1  0  0  0
 25 15  1  0  0  0
  5 24  2  0  0  0
  6  7  2  0  0  0
 10 11  2  0  0  0
 12 13  2  0  0  0
 14 26  2  0  0  0
 15 16  2  0  0  0
 17 18  2  0  0  0
 19 20  2  0  0  0
M  END
> <rmsd>
0.78338939

$$$$
CHEMBL67006_6PT0


 34 37  0  0  0  0  0  0  0  0999 V2000
  101.4371  108.7974  125.2238 C   0  0  0  0  0
  102.7270  110.3412  126.0943 C   0  0  0  0  0
  101.7115  109.4737  126.3998 C   0  0  0  0  0
  101.1400  109.4148  127.6695 C   0  0  0  0  0
  101.6497  110.2849  128.6499 C   0  0  0  0  0
  102.6966  111.1811  128.3429 C   0  0  0  0  0
  103.2544  111.2223  127.0456 C   0  0  0  0  0
  104.8649  112.9994  127.6492 C   0  0  0  0  0
  104.0359  110.9487  124.0354 C   0  0  0  0  0
  103.3539  112.0932  123.2994 C   0  0  0  0  0
  103.2611  111.6091  121.0002 C   0  0  0  0  0
  102.3519  111.3421  119.7880 C   0  0  0  0  0
  100.5803  112.2715  120.8337 C   0  0  0  0  0
  101.3474  112.4863  122.1488 C   0  0  0  0  0
  100.3940  107.7680  125.0116 C   0  0  0  0  0
  100.3390  108.1421  122.5100 C   0  0  0  0  0
   99.1456  108.8991  122.0064 C   0  0  0  0  0
   98.6829  110.0320  122.6982 C   0  0  0  0  0
   97.5677  110.7326  122.2314 C   0  0  0  0  0
   96.9068  110.3112  121.0775 C   0  0  0  0  0
   97.3600  109.1876  120.3858 C   0  0  0  0  0
   98.4746  108.4785  120.8431 C   0  0  0  0  0
   99.1680  106.1580  123.4681 C   0  0  0  0  0
   97.7907  106.3217  124.0874 C   0  0  0  0  0
   99.8510  104.9085  123.9931 C   0  0  0  0  0
  102.2775  109.2530  124.2631 N   0  0  0  0  0
  103.0586  110.1836  124.7981 N   0  0  0  0  0
  102.4926  111.5768  122.2479 N   0  0  0  0  0
   99.9944  107.3471  123.6862 N   0  0  0  0  0
  104.2894  112.1010  126.7114 O   0  0  0  0  0
  101.0220  111.1034  120.1861 O   0  0  0  0  0
   99.8460  107.2469  126.0216 O   0  0  0  0  0
   99.3114  110.4684  123.8164 F   0  0  0  0  0
   99.0030  107.0734  119.9317 Cl  0  0  0  0  0
  1 15  1  0  0  0
  3  4  1  0  0  0
  3  1  1  0  0  0
  5  6  1  0  0  0
  7 30  1  0  0  0
  7  2  1  0  0  0
  8 30  1  0  0  0
  9 27  1  0  0  0
  9 10  1  0  0  0
 10 28  1  0  0  0
 11 28  1  0  0  0
 11 12  1  0  0  0
 12 31  1  0  0  0
 13 31  1  0  0  0
 13 14  1  0  0  0
 14 28  1  0  0  0
 15 29  1  0  0  0
 16 29  1  0  0  0
 16 17  1  0  0  0
 18 33  1  0  0  0
 18 19  1  0  0  0
 20 21  1  0  0  0
 22 34  1  0  0  0
 22 17  1  0  0  0
 23 29  1  0  0  0
 23 24  1  0  0  0
 23 25  1  0  0  0
 27 26  1  0  0  0
 27  2  1  0  0  0
  1 26  2  0  0  0
  2  3  2  0  0  0
  4  5  2  0  0  0
  6  7  2  0  0  0
 15 32  2  0  0  0
 17 18  2  0  0  0
 19 20  2  0  0  0
 21 22  2  0  0  0
M  END
> <rmsd>
0.421220899

$$$$
CHEMBL3943239_8GUQ


 30 32  0  0  0  0  0  0  0  0999 V2000
   98.8469  111.9436  122.8541 C   0  0  0  0  0
   99.3534  110.9917  123.8774 C   0  0  0  0  0
  100.5351  109.6379  124.9368 C   0  0  0  0  0
  101.6185  108.6540  125.3082 C   0  0  0  0  0
  102.9633  109.1512  124.7951 C   0  0  0  0  0
  101.6900  108.4293  126.8317 C   0  0  0  0  0
  101.5736  111.3487  127.3726 C   0  0  0  0  0
  100.2125  106.5356  124.8832 C   0  0  0  0  0
  100.0562  105.2943  124.1108 C   0  0  0  0  0
  100.8804  103.8142  122.4450 C   0  0  0  0  0
   99.8029  102.9397  122.6396 C   0  0  0  0  0
   98.8114  103.2805  123.5775 C   0  0  0  0  0
   98.9517  104.4623  124.3190 C   0  0  0  0  0
   96.6217  102.6558  124.6626 C   0  0  0  0  0
   97.1029  102.6539  126.1030 C   0  0  0  0  0
   95.8649  103.9353  124.3438 C   0  0  0  0  0
   99.6746  101.7071  121.7883 C   0  0  0  0  0
   99.7889  100.4600  122.6500 C   0  0  0  0  0
  100.9618  100.8967  121.8049 C   0  0  0  0  0
  100.5355  110.3551  123.7910 N   0  0  0  0  0
   99.4028  109.8148  125.6501 N   0  0  0  0  0
  101.3512  107.3764  124.6491 N   0  0  0  0  0
  100.9859  104.9534  123.1781 N   0  0  0  0  0
   98.7033  110.6666  124.9652 O   0  0  0  0  0
  103.8202  109.9097  127.5857 O   0  0  0  0  0
  102.0744  109.5220  129.2511 O   0  0  0  0  0
   99.3513  106.8538  125.7482 O   0  0  0  0  0
   97.7011  102.4347  123.7498 O   0  0  0  0  0
  102.3369  109.7997  127.7985 S   0  0  0  0  0
   95.3189  103.8536  123.0765 F   0  0  0  0  0
  1  2  1  0  0  0
  2 24  1  0  0  0
  3 20  1  0  0  0
  4  3  1  0  0  0
  4  5  1  0  0  0
  4  6  1  0  0  0
  4 22  1  0  0  0
  6 29  1  0  0  0
  8  9  1  0  0  0
 10 23  1  0  0  0
 11 12  1  0  0  0
 12 28  1  0  0  0
 13  9  1  0  0  0
 14 28  1  0  0  0
 14 15  1  0  0  0
 14 16  1  0  0  0
 16 30  1  0  0  0
 17 11  1  0  0  0
 17 18  1  0  0  0
 18 19  1  0  0  0
 19 17  1  0  0  0
 21 24  1  0  0  0
 22  8  1  0  0  0
 29  7  1  0  0  0
  2 20  2  0  0  0
  3 21  2  0  0  0
  8 27  2  0  0  0
  9 23  2  0  0  0
 10 11  2  0  0  0
 12 13  2  0  0  0
 29 25  2  0  0  0
 29 26  2  0  0  0
M  END
> <rmsd>
0.774327755

$$$$
CHEMBL427843_8GUR


 26 27  0  0  0  0  0  0  0  0999 V2000
   94.1443  110.1655  119.8998 C   0  0  0  0  0
   93.3256  109.3479  120.8791 C   0  0  0  0  0
   93.2389  110.0668  122.2148 C   0  0  0  0  0
   94.2594  109.5260  123.2076 C   0  0  0  0  0
   95.6411  110.1036  122.9550 C   0  0  0  0  0
   96.4507  109.1604  122.0717 C   0  0  0  0  0
   97.8454  109.7027  121.7451 C   0  0  0  0  0
   98.5458  108.6846  120.8626 C   0  0  0  0  0
   97.7054  110.9831  120.9251 C   0  0  0  0  0
   98.6601  109.9043  123.0128 C   0  0  0  0  0
   99.1780  111.1623  123.3641 C   0  0  0  0  0
   99.9205  111.3256  124.5352 C   0  0  0  0  0
  100.1674  110.2344  125.3778 C   0  0  0  0  0
  100.9435  110.4403  126.6177 C   0  0  0  0  0
  100.4532  111.3745  127.5378 C   0  0  0  0  0
  101.0723  111.5520  128.7708 C   0  0  0  0  0
  102.1832  110.7838  129.1060 C   0  0  0  0  0
  102.7058  109.8446  128.2125 C   0  0  0  0  0
  104.4298  108.0474  127.9345 C   0  0  0  0  0
  102.1105  109.6897  126.9324 C   0  0  0  0  0
  102.7877  109.0844  124.6169 C   0  0  0  0  0
   99.6332  108.9747  125.0463 C   0  0  0  0  0
   98.8931  108.8172  123.8718 C   0  0  0  0  0
  103.8241  109.1163  128.6475 O   0  0  0  0  0
  102.6958  108.8120  126.0086 O   0  0  0  0  0
   99.8208  107.8787  125.8807 O   0  0  0  0  0
  1  2  1  0  0  0
  2  3  1  0  0  0
  3  4  1  0  0  0
  4  5  1  0  0  0
  5  6  1  0  0  0
  6  7  1  0  0  0
  7  8  1  0  0  0
  7  9  1  0  0  0
  7 10  1  0  0  0
 11 12  1  0  0  0
 13 14  1  0  0  0
 13 22  1  0  0  0
 15 16  1  0  0  0
 17 18  1  0  0  0
 18 24  1  0  0  0
 19 24  1  0  0  0
 20 25  1  0  0  0
 20 14  1  0  0  0
 21 25  1  0  0  0
 22 26  1  0  0  0
 23 10  1  0  0  0
 10 11  2  0  0  0
 12 13  2  0  0  0
 14 15  2  0  0  0
 16 17  2  0  0  0
 18 20  2  0  0  0
 22 23  2  0  0  0
M  END
> <rmsd>
0.785600841

$$$$
CHEMBL80439_6PT0


 33 37  0  0  0  0  0  0  0  0999 V2000
   98.2892  108.3308  124.5368 C   0  0  0  0  0
   97.9725  109.4970  123.8352 C   0  0  0  0  0
   96.3516  108.1091  123.4592 C   0  0  0  0  0
   97.2422  107.4596  124.2828 C   0  0  0  0  0
   97.0199  106.1567  124.7275 C   0  0  0  0  0
   95.8459  105.5110  124.3078 C   0  0  0  0  0
   94.9286  106.1696  123.4651 C   0  0  0  0  0
   95.1704  107.4888  123.0258 C   0  0  0  0  0
   93.0643  107.5741  121.7316 C   0  0  0  0  0
   96.1254  110.3719  122.3817 C   0  0  0  0  0
   95.2027  111.1926  123.2656 C   0  0  0  0  0
   93.1564  112.3602  122.9644 C   0  0  0  0  0
   93.0266  113.3449  124.1380 C   0  0  0  0  0
   94.9868  114.3296  123.7619 C   0  0  0  0  0
   95.3236  113.4589  122.5400 C   0  0  0  0  0
   98.7904  110.7466  123.7973 C   0  0  0  0  0
   99.4768  108.0709  125.3758 C   0  0  0  0  0
  101.7022  108.8684  126.3050 C   0  0  0  0  0
  102.7994  108.2627  125.4166 C   0  0  0  0  0
  104.0441  108.6497  126.1538 C   0  0  0  0  0
  103.7590  110.1306  126.1351 C   0  0  0  0  0
  102.3609  110.1804  126.7933 C   0  0  0  0  0
  101.5979  111.4553  126.4311 C   0  0  0  0  0
  102.5013  110.1334  128.3056 C   0  0  0  0  0
  103.6086  110.3547  124.6222 C   0  0  0  0  0
  102.9477  109.0656  124.1290 C   0  0  0  0  0
  102.6761  106.7685  125.1948 C   0  0  0  0  0
   96.7964  109.3518  123.1782 N   0  0  0  0  0
   94.5360  112.2150  122.4708 N   0  0  0  0  0
  100.4611  109.0896  125.5634 N   0  0  0  0  0
   94.2742  108.1613  122.1891 O   0  0  0  0  0
   94.2767  113.5937  124.7195 O   0  0  0  0  0
   99.6185  106.9500  125.9350 O   0  0  0  0  0
  1 17  1  0  0  0
  2 28  1  0  0  0
  4  5  1  0  0  0
  4  1  1  0  0  0
  6  7  1  0  0  0
  8 31  1  0  0  0
  8  3  1  0  0  0
  9 31  1  0  0  0
 10 28  1  0  0  0
 10 11  1  0  0  0
 11 29  1  0  0  0
 12 29  1  0  0  0
 12 13  1  0  0  0
 13 32  1  0  0  0
 14 32  1  0  0  0
 14 15  1  0  0  0
 15 29  1  0  0  0
 16  2  1  0  0  0
 17 30  1  0  0  0
 18 30  1  0  0  0
 18 19  1  0  0  0
 19 20  1  0  0  0
 19 27  1  0  0  0
 20 21  1  0  0  0
 21 22  1  0  0  0
 21 25  1  0  0  0
 22 23  1  0  0  0
 22 24  1  0  0  0
 22 18  1  0  0  0
 25 26  1  0  0  0
 26 19  1  0  0  0
 28  3  1  0  0  0
  1  2  2  0  0  0
  3  4  2  0  0  0
  5  6  2  0  0  0
  7  8  2  0  0  0
 17 33  2  0  0  0
M  END
> <rmsd>
0.398452789

$$$$
CHEMBL4846991_8GUR


 25 27  0  0  0  0  0  0  0  0999 V2000
  102.7540  110.6234  128.0125 C   0  0  0  0  0
  102.4299  110.5752  126.5347 C   0  0  0  0  0
  102.2691  109.1308  126.0995 C   0  0  0  0  0
  101.9235  109.0554  124.6192 C   0  0  0  0  0
  100.5044  109.4618  124.3647 C   0  0  0  0  0
  100.2512  110.6334  123.6526 C   0  0  0  0  0
   98.9342  111.0189  123.4012 C   0  0  0  0  0
   98.6338  112.1894  122.6910 C   0  0  0  0  0
   97.2999  112.5375  122.4628 C   0  0  0  0  0
   96.2494  111.7359  122.9439 C   0  0  0  0  0
   96.5627  110.5563  123.6419 C   0  0  0  0  0
   97.8913  110.1970  123.8769 C   0  0  0  0  0
   99.4134  108.6872  124.7995 C   0  0  0  0  0
   94.8088  112.1176  122.6432 C   0  0  0  0  0
   94.5665  113.5725  123.0339 C   0  0  0  0  0
   93.6629  113.5592  124.2467 C   0  0  0  0  0
   92.8682  112.2843  124.1282 C   0  0  0  0  0
   93.8009  111.2994  123.4587 C   0  0  0  0  0
   94.5105  111.9721  121.1477 C   0  0  0  0  0
   94.6728  110.5417  120.6517 C   0  0  0  0  0
   94.3790  110.4861  119.1682 C   0  0  0  0  0
   94.5464  109.0648  118.6749 C   0  0  0  0  0
   98.1676  109.0807  124.5444 O   0  0  0  0  0
   99.6035  107.6135  125.4304 O   0  0  0  0  0
   99.6468  113.0099  122.2073 O   0  0  0  0  0
  1  2  1  0  0  0
  2  3  1  0  0  0
  3  4  1  0  0  0
  4  5  1  0  0  0
  6  7  1  0  0  0
  8  9  1  0  0  0
  8 25  1  0  0  0
 10 11  1  0  0  0
 12 23  1  0  0  0
 12  7  1  0  0  0
 13 23  1  0  0  0
 13  5  1  0  0  0
 14 10  1  0  0  0
 14 15  1  0  0  0
 14 19  1  0  0  0
 15 16  1  0  0  0
 16 17  1  0  0  0
 17 18  1  0  0  0
 18 14  1  0  0  0
 19 20  1  0  0  0
 20 21  1  0  0  0
 21 22  1  0  0  0
  5  6  2  0  0  0
  7  8  2  0  0  0
  9 10  2  0  0  0
 11 12  2  0  0  0
 13 24  2  0  0  0
M  END
> <rmsd>
0.837373555

$$$$
CHEMBL3353429_5ZTY


 28 30  0  0  0  0  0  0  0  0999 V2000
   99.2448  106.6047  123.8509 C   0  0  0  0  0
   99.6183  106.6926  125.1936 C   0  0  0  0  0
   99.3820  109.0628  125.1513 C   0  0  0  0  0
   99.0004  109.0045  123.7977 C   0  0  0  0  0
   98.9339  107.7708  123.1505 C   0  0  0  0  0
   98.6953  110.1763  123.1195 C   0  0  0  0  0
   98.7624  111.4106  123.7711 C   0  0  0  0  0
   99.1508  111.4378  125.1317 C   0  0  0  0  0
   99.8792  110.3189  127.1934 C   0  0  0  0  0
  101.3265  110.7855  127.3278 C   0  0  0  0  0
  102.3020  109.7205  126.8555 C   0  0  0  0  0
  102.5862  109.8886  125.3722 C   0  0  0  0  0
  103.4730  108.7636  124.8711 C   0  0  0  0  0
  104.9051  108.9761  125.3239 C   0  0  0  0  0
   98.4237  112.6346  123.0042 C   0  0  0  0  0
   97.6633  113.6788  120.8232 C   0  0  0  0  0
   96.2819  114.1874  121.2354 C   0  0  0  0  0
   95.8978  115.4503  120.4530 C   0  0  0  0  0
   96.5094  115.5093  119.0466 C   0  0  0  0  0
   96.7262  114.1128  118.4707 C   0  0  0  0  0
   97.6936  113.2947  119.3375 C   0  0  0  0  0
   95.6084  116.3113  118.1319 C   0  0  0  0  0
   99.6784  107.9043  125.8091 N   0  0  0  0  0
   99.4602  110.2724  125.7892 N   0  0  0  0  0
   98.0377  112.5269  121.6293 N   0  0  0  0  0
   99.2141  112.5384  125.7474 O   0  0  0  0  0
  105.6997  107.9307  124.8568 O   0  0  0  0  0
   98.4756  113.7711  123.5488 O   0  0  0  0  0
  2 23  1  0  0  0
  3  4  1  0  0  0
  4  6  1  0  0  0
  5  1  1  0  0  0
  7  8  1  0  0  0
  7 15  1  0  0  0
  8 24  1  0  0  0
  9 24  1  0  0  0
  9 10  1  0  0  0
 10 11  1  0  0  0
 11 12  1  0  0  0
 12 13  1  0  0  0
 13 14  1  0  0  0
 14 27  1  0  0  0
 15 25  1  0  0  0
 16 25  1  0  0  0
 16 17  1  0  0  0
 17 18  1  0  0  0
 18 19  1  0  0  0
 19 20  1  0  0  0
 19 22  1  0  0  0
 20 21  1  0  0  0
 21 16  1  0  0  0
 24  3  1  0  0  0
  1  2  2  0  0  0
  3 23  2  0  0  0
  4  5  2  0  0  0
  6  7  2  0  0  0
  8 26  2  0  0  0
 15 28  2  0  0  0
M  END
> <rmsd>
0.806813002

$$$$
CHEMBL574052_5ZTY


 31 34  0  0  0  0  0  0  0  0999 V2000
  100.3719  107.7661  126.3214 N   0  0  0  0  0
   99.4652  107.0891  125.6308 N   0  0  0  0  0
  101.1617  110.1039  126.4839 N   0  0  0  0  0
   97.3670  106.1803  123.8202 N   0  0  0  0  0
   98.8024  107.9612  124.8418 C   0  0  0  0  0
   99.2971  109.2398  125.0495 C   0  0  0  0  0
  100.2863  109.0747  125.9956 C   0  0  0  0  0
  102.5039  110.1384  126.3850 C   0  0  0  0  0
  103.0110  111.2895  126.9570 C   0  0  0  0  0
  101.9142  111.9952  127.4351 C   0  0  0  0  0
  100.8040  111.2359  127.1176 C   0  0  0  0  0
   99.4049  111.6021  127.4794 C   0  0  0  0  0
  103.3341  109.1032  125.7049 C   0  0  0  0  0
   98.9180  110.5004  124.3489 C   0  0  0  0  0
   97.7358  107.5587  123.9128 C   0  0  0  0  0
   96.3455  105.6995  122.9025 C   0  0  0  0  0
   96.8714  105.7341  121.4609 C   0  0  0  0  0
   95.7584  105.7161  120.3978 C   0  0  0  0  0
   94.3693  105.3561  120.9383 C   0  0  0  0  0
   94.2466  103.9024  121.4069 C   0  0  0  0  0
   95.4529  103.3821  122.1939 C   0  0  0  0  0
   95.8895  104.2994  123.3417 C   0  0  0  0  0
  101.2121  107.1744  127.3276 C   0  0  0  0  0
  101.8195  105.9143  127.1332 C   0  0  0  0  0
  102.6178  105.3629  128.1405 C   0  0  0  0  0
  102.8136  106.0467  129.3419 C   0  0  0  0  0
  102.2169  107.2919  129.5410 C   0  0  0  0  0
  101.4203  107.8509  128.5401 C   0  0  0  0  0
   97.1474  108.4210  123.2059 O   0  0  0  0  0
  103.8138  105.3451  130.5947 Cl  0  0  0  0  0
  101.6659  105.0233  125.6270 Cl  0  0  0  0  0
  1  2  1  0  0  0
  1 23  1  0  0  0
  3  8  1  0  0  0
  5  6  1  0  0  0
  5 15  1  0  0  0
  7  3  1  0  0  0
  7  1  1  0  0  0
  9 10  1  0  0  0
 11  3  1  0  0  0
 12 11  1  0  0  0
 13  8  1  0  0  0
 14  6  1  0  0  0
 15  4  1  0  0  0
 16  4  1  0  0  0
 16 17  1  0  0  0
 17 18  1  0  0  0
 18 19  1  0  0  0
 19 20  1  0  0  0
 20 21  1  0  0  0
 21 22  1  0  0  0
 22 16  1  0  0  0
 24 25  1  0  0  0
 24 31  1  0  0  0
 26 27  1  0  0  0
 26 30  1  0  0  0
 28 23  1  0  0  0
  5  2  2  0  0  0
  6  7  2  0  0  0
  8  9  2  0  0  0
 10 11  2  0  0  0
 15 29  2  0  0  0
 23 24  2  0  0  0
 25 26  2  0  0  0
 27 28  2  0  0  0
M  END
> <rmsd>
0.623970687

$$$$
CHEMBL190469_6PT0


 25 27  0  0  0  0  0  0  0  0999 V2000
  101.8740  108.5670  125.9300 C   0  0  0  0  0
  102.6086  109.6695  126.3851 C   0  0  0  0  0
  104.0491  108.2865  125.5559 C   0  0  0  0  0
  102.8179  107.6966  125.4077 C   0  0  0  0  0
  102.6730  106.4446  124.8091 C   0  0  0  0  0
  103.8361  105.7945  124.3609 C   0  0  0  0  0
  105.1010  106.3999  124.5151 C   0  0  0  0  0
  105.2196  107.6636  125.1192 C   0  0  0  0  0
  105.0105  110.4213  126.4566 C   0  0  0  0  0
  105.4593  111.1495  125.1963 C   0  0  0  0  0
  104.4315  112.1835  124.7584 C   0  0  0  0  0
  104.7047  113.5339  125.4022 C   0  0  0  0  0
  104.1973  113.5652  126.8312 C   0  0  0  0  0
  102.0531  110.8721  127.0744 C   0  0  0  0  0
  100.4101  108.3544  125.9759 C   0  0  0  0  0
   99.4716  109.4604  126.3341 C   0  0  0  0  0
   98.9868  110.1548  125.1030 C   0  0  0  0  0
   97.8151  109.7318  124.4554 C   0  0  0  0  0
   97.3884  110.3797  123.2918 C   0  0  0  0  0
   98.1279  111.4450  122.7701 C   0  0  0  0  0
   99.2972  111.8643  123.4104 C   0  0  0  0  0
   99.7265  111.2192  124.5735 C   0  0  0  0  0
  103.9310  109.4873  126.1514 N   0  0  0  0  0
   99.9293  107.2313  125.6683 O   0  0  0  0  0
   97.0882  108.6978  124.9474 F   0  0  0  0  0
  1 15  1  0  0  0
  2 23  1  0  0  0
  4  5  1  0  0  0
  4  1  1  0  0  0
  6  7  1  0  0  0
  8  3  1  0  0  0
  9 23  1  0  0  0
  9 10  1  0  0  0
 10 11  1  0  0  0
 11 12  1  0  0  0
 12 13  1  0  0  0
 14  2  1  0  0  0
 16 15  1  0  0  0
 16 17  1  0  0  0
 18 25  1  0  0  0
 18 19  1  0  0  0
 20 21  1  0  0  0
 22 17  1  0  0  0
 23  3  1  0  0  0
  1  2  2  0  0  0
  3  4  2  0  0  0
  5  6  2  0  0  0
  7  8  2  0  0  0
 15 24  2  0  0  0
 17 18  2  0  0  0
 19 20  2  0  0  0
 21 22  2  0  0  0
M  END
> <rmsd>
0.617934763

$$$$
CHEMBL232131_5ZTY


 26 28  0  0  0  0  0  0  0  0999 V2000
  101.3476  111.1956  127.6320 C   0  0  0  0  0
  102.2737  108.9057  126.8243 C   0  0  0  0  0
  101.8682  107.2891  128.6901 C   0  0  0  0  0
  100.6630  107.2959  129.6490 C   0  0  0  0  0
  100.5166  108.7103  130.2276 C   0  0  0  0  0
   99.5026  108.7620  131.3731 C   0  0  0  0  0
   99.8989  107.7868  132.4756 C   0  0  0  0  0
   99.9690  106.3711  131.9151 C   0  0  0  0  0
  100.9879  106.3062  130.7754 C   0  0  0  0  0
   99.3388  106.8854  128.9641 C   0  0  0  0  0
  100.4063  107.2050  126.6739 C   0  0  0  0  0
   98.7455  107.4693  124.8365 C   0  0  0  0  0
   98.2111  106.1708  124.8302 C   0  0  0  0  0
   97.1253  105.8469  124.0156 C   0  0  0  0  0
   96.5724  106.8144  123.1759 C   0  0  0  0  0
   97.1110  108.1032  123.1468 C   0  0  0  0  0
   98.1936  108.4453  123.9716 C   0  0  0  0  0
   98.7538  109.8466  123.9193 C   0  0  0  0  0
  102.8505  110.2154  127.9035 S   0  0  0  0  0
  102.7149  108.9501  125.2443 S   0  0  0  0  0
   99.5864  105.8310  127.4985 S   0  0  0  0  0
  101.5284  107.7936  127.3580 N   0  0  0  0  0
   99.8922  107.8124  125.6376 N   0  0  0  0  0
   98.7749  110.3865  125.1933 F   0  0  0  0  0
  100.0437  109.8131  123.4166 F   0  0  0  0  0
   97.9799  110.6658  123.1148 F   0  0  0  0  0
  1 19  1  0  0  0
  2 19  1  0  0  0
  2 22  1  0  0  0
  3 22  1  0  0  0
  3  4  1  0  0  0
  4  5  1  0  0  0
  4 10  1  0  0  0
  5  6  1  0  0  0
  6  7  1  0  0  0
  7  8  1  0  0  0
  8  9  1  0  0  0
  9  4  1  0  0  0
 10 21  1  0  0  0
 11 21  1  0  0  0
 11 22  1  0  0  0
 12 23  1  0  0  0
 13 14  1  0  0  0
 15 16  1  0  0  0
 17 12  1  0  0  0
 18 17  1  0  0  0
 18 24  1  0  0  0
 18 25  1  0  0  0
 18 26  1  0  0  0
  2 20  2  0  0  0
 11 23  2  0  0  0
 12 13  2  0  0  0
 14 15  2  0  0  0
 16 17  2  0  0  0
M  END
> <rmsd>
0.671977758

$$$$
CHEMBL4783200_5ZTY


 23 23  0  0  0  0  0  0  0  0999 V2000
   99.5793  111.3903  126.0800 C   0  0  0  0  0
   99.3495  109.2202  125.7365 C   0  0  0  0  0
   99.0661  110.4584  125.1781 C   0  0  0  0  0
   99.0399  107.8901  125.1859 C   0  0  0  0  0
   97.9440  106.4936  123.3294 C   0  0  0  0  0
   99.2041  105.7225  122.9668 C   0  0  0  0  0
   97.1785  106.7985  122.0555 C   0  0  0  0  0
   97.0627  105.6729  124.2707 C   0  0  0  0  0
  100.9665  111.2168  128.1895 C   0  0  0  0  0
  102.3876  111.5387  127.7398 C   0  0  0  0  0
  103.1756  110.2759  127.4348 C   0  0  0  0  0
  103.0573  109.9302  125.9631 C   0  0  0  0  0
  103.7932  108.6367  125.6871 C   0  0  0  0  0
   99.6439  112.9013  125.8913 C   0  0  0  0  0
   98.4460  113.4257  125.1203 C   0  0  0  0  0
  100.9048  113.2572  125.1289 C   0  0  0  0  0
   99.6479  113.6396  127.2179 C   0  0  0  0  0
  100.1693  110.6934  127.0857 N   0  0  0  0  0
  100.0232  109.3938  126.8876 N   0  0  0  0  0
   98.3022  107.7596  123.9635 N   0  0  0  0  0
   98.3468  110.7619  123.5989 Cl  0  0  0  0  0
   99.4272  106.8620  125.8044 O   0  0  0  0  0
   96.6995  104.4543  123.6906 O   0  0  0  0  0
  1 18  1  0  0  0
  2  3  1  0  0  0
  2  4  1  0  0  0
  3 21  1  0  0  0
  4 20  1  0  0  0
  5 20  1  0  0  0
  5  6  1  0  0  0
  5  7  1  0  0  0
  5  8  1  0  0  0
  8 23  1  0  0  0
  9 18  1  0  0  0
  9 10  1  0  0  0
 10 11  1  0  0  0
 11 12  1  0  0  0
 12 13  1  0  0  0
 14  1  1  0  0  0
 14 15  1  0  0  0
 14 16  1  0  0  0
 14 17  1  0  0  0
 18 19  1  0  0  0
  2 19  2  0  0  0
  3  1  2  0  0  0
  4 22  2  0  0  0
M  END
> <rmsd>
0.763209343

$$$$
CHEMBL111702_8GUS


 32 34  0  0  0  0  0  0  0  0999 V2000
  102.7237  110.6215  127.8943 C   0  0  0  0  0
  101.9302  109.5313  127.1996 C   0  0  0  0  0
  102.7684  108.8727  126.1149 C   0  0  0  0  0
  102.9223  109.7767  124.8982 C   0  0  0  0  0
  101.7243  109.6660  123.9682 C   0  0  0  0  0
  100.5626  110.5147  124.4790 C   0  0  0  0  0
   99.3532  110.5226  123.5311 C   0  0  0  0  0
   98.3514  111.5132  124.0963 C   0  0  0  0  0
   99.7909  111.0351  122.1636 C   0  0  0  0  0
   98.6736  109.1689  123.3956 C   0  0  0  0  0
   99.0367  108.0758  124.1934 C   0  0  0  0  0
   98.3995  106.8304  124.0765 C   0  0  0  0  0
   99.6716  105.7878  125.9703 C   0  0  0  0  0
  100.0629  104.5153  126.6294 C   0  0  0  0  0
   97.3615  106.6722  123.1214 C   0  0  0  0  0
   96.9716  107.7811  122.3490 C   0  0  0  0  0
   97.6259  109.0050  122.4815 C   0  0  0  0  0
   94.9770  106.6135  121.4135 C   0  0  0  0  0
   93.7542  107.0555  122.1984 C   0  0  0  0  0
   94.5613  106.3777  119.9701 C   0  0  0  0  0
   95.5290  105.3417  122.0271 C   0  0  0  0  0
   94.8592  104.1223  121.8236 C   0  0  0  0  0
   95.3239  102.9456  122.4097 C   0  0  0  0  0
   96.4613  102.9663  123.2197 C   0  0  0  0  0
   96.9555  101.7245  123.8354 C   0  0  0  0  0
   97.1182  104.1806  123.4449 C   0  0  0  0  0
   96.6633  105.3787  122.8711 C   0  0  0  0  0
   98.7864  105.7464  124.8839 O   0  0  0  0  0
  100.1233  106.8750  126.4169 O   0  0  0  0  0
   95.9349  107.6733  121.4195 O   0  0  0  0  0
   97.9770  101.7402  124.5727 O   0  0  0  0  0
   96.2986  100.5206  123.6089 O   0  0  0  0  0
  1  2  1  0  0  0
  2  3  1  0  0  0
  3  4  1  0  0  0
  4  5  1  0  0  0
  5  6  1  0  0  0
  6  7  1  0  0  0
  7  8  1  0  0  0
  7  9  1  0  0  0
  7 10  1  0  0  0
 11 12  1  0  0  0
 12 28  1  0  0  0
 13 28  1  0  0  0
 14 13  1  0  0  0
 15 16  1  0  0  0
 16 30  1  0  0  0
 17 10  1  0  0  0
 18 30  1  0  0  0
 18 19  1  0  0  0
 18 20  1  0  0  0
 18 21  1  0  0  0
 22 23  1  0  0  0
 24 25  1  0  0  0
 24 26  1  0  0  0
 25 32  1  0  0  0
 27 21  1  0  0  0
 27 15  1  0  0  0
 10 11  2  0  0  0
 12 15  2  0  0  0
 13 29  2  0  0  0
 16 17  2  0  0  0
 21 22  2  0  0  0
 23 24  2  0  0  0
 25 31  2  0  0  0
 26 27  2  0  0  0
M  END
> <rmsd>
0.701708257

$$$$
CHEMBL3780166_5ZTY


 30 34  0  0  0  0  0  0  0  0999 V2000
   98.9444  109.8719  123.4509 C   0  0  0  0  0
   98.5271  110.7731  122.4606 C   0  0  0  0  0
   98.2965  112.1133  122.7751 C   0  0  0  0  0
   98.4794  112.5640  124.0824 C   0  0  0  0  0
   98.8942  111.6751  125.0759 C   0  0  0  0  0
   99.1344  110.3206  124.7770 C   0  0  0  0  0
   99.7650  109.9039  127.1236 C   0  0  0  0  0
  101.0899  110.6519  127.2564 C   0  0  0  0  0
  102.2789  109.7141  127.1304 C   0  0  0  0  0
  102.7207  109.6207  125.6827 C   0  0  0  0  0
  103.8542  108.6249  125.5638 C   0  0  0  0  0
   99.7559  108.1182  125.4554 C   0  0  0  0  0
   99.5807  107.6305  124.1399 C   0  0  0  0  0
   99.8295  106.1989  123.8187 C   0  0  0  0  0
  100.5338  104.4474  122.0803 C   0  0  0  0  0
  100.9607  104.4592  120.6025 C   0  0  0  0  0
  101.2615  103.0286  120.1253 C   0  0  0  0  0
  100.0005  102.1649  120.2879 C   0  0  0  0  0
   99.5682  102.1396  121.7627 C   0  0  0  0  0
  100.7072  101.5564  122.6154 C   0  0  0  0  0
  101.9748  102.4130  122.4602 C   0  0  0  0  0
  101.6768  103.8479  122.9223 C   0  0  0  0  0
  102.3929  102.4368  120.9812 C   0  0  0  0  0
   99.2719  103.5747  122.2254 C   0  0  0  0  0
   99.1678  108.5283  123.1374 C   0  0  0  0  0
   99.5434  109.4412  125.7474 N   0  0  0  0  0
  100.2557  105.8165  122.5033 N   0  0  0  0  0
  100.1304  107.3307  126.3698 O   0  0  0  0  0
   99.6768  105.3161  124.7067 O   0  0  0  0  0
   98.9549  108.0867  121.8329 O   0  0  0  0  0
  2  3  1  0  0  0
  4  5  1  0  0  0
  6 26  1  0  0  0
  6  1  1  0  0  0
  7 26  1  0  0  0
  7  8  1  0  0  0
  8  9  1  0  0  0
  9 10  1  0  0  0
 10 11  1  0  0  0
 12 13  1  0  0  0
 13 14  1  0  0  0
 14 27  1  0  0  0
 15 27  1  0  0  0
 15 16  1  0  0  0
 16 17  1  0  0  0
 17 18  1  0  0  0
 18 19  1  0  0  0
 19 20  1  0  0  0
 19 24  1  0  0  0
 20 21  1  0  0  0
 21 22  1  0  0  0
 21 23  1  0  0  0
 22 15  1  0  0  0
 23 17  1  0  0  0
 24 15  1  0  0  0
 25 30  1  0  0  0
 25  1  1  0  0  0
 26 12  1  0  0  0
  1  2  2  0  0  0
  3  4  2  0  0  0
  5  6  2  0  0  0
 12 28  2  0  0  0
 13 25  2  0  0  0
 14 29  2  0  0  0
M  END
> <rmsd>
0.701868892

$$$$
CHEMBL1909844_5ZTY


 29 32  0  0  0  0  0  0  0  0999 V2000
   98.8333  110.5353  124.3891 C   0  0  0  0  0
   99.2613  109.2645  125.0416 C   0  0  0  0  0
   98.7759  107.9817  124.8335 C   0  0  0  0  0
   97.6867  107.5716  123.9328 C   0  0  0  0  0
   95.8973  108.3164  122.2071 C   0  0  0  0  0
   96.3116  107.5061  120.9720 C   0  0  0  0  0
   96.2117  106.0000  121.1999 C   0  0  0  0  0
   94.8233  105.6292  121.7053 C   0  0  0  0  0
   94.5655  106.3139  123.0414 C   0  0  0  0  0
   94.6065  107.8314  122.8798 C   0  0  0  0  0
  101.2120  107.2064  127.2949 C   0  0  0  0  0
  101.3945  107.8744  128.5160 C   0  0  0  0  0
  102.1868  107.3175  129.5216 C   0  0  0  0  0
  102.8045  106.0831  129.3181 C   0  0  0  0  0
  102.6331  105.4077  128.1085 C   0  0  0  0  0
  101.8389  105.9568  127.0969 C   0  0  0  0  0
  100.2764  109.1027  125.9604 C   0  0  0  0  0
  100.6868  111.2930  127.0172 C   0  0  0  0  0
  101.7776  112.0745  127.3602 C   0  0  0  0  0
  102.9165  111.3751  126.9873 C   0  0  0  0  0
  102.4638  110.1942  126.4406 C   0  0  0  0  0
   97.3747  106.3541  123.8639 O   0  0  0  0  0
   96.9937  108.5501  123.1471 N   0  0  0  0  0
   99.4626  107.1125  125.6056 N   0  0  0  0  0
  100.3765  107.7937  126.2825 N   0  0  0  0  0
  101.1201  110.1464  126.4669 N   0  0  0  0  0
  103.7999  105.3847  130.5766 Cl  0  0  0  0  0
  101.7142  105.0795  125.5801 Cl  0  0  0  0  0
  103.5047  108.9813  125.7121 Cl  0  0  0  0  0
  1  2  1  0  0  0
  2  3  1  0  0  0
  3  4  1  0  0  0
  4 23  1  0  0  0
  5 23  1  0  0  0
  5  6  1  0  0  0
  6  7  1  0  0  0
  7  8  1  0  0  0
  8  9  1  0  0  0
  9 10  1  0  0  0
 10  5  1  0  0  0
 12 13  1  0  0  0
 14 27  1  0  0  0
 14 15  1  0  0  0
 16 28  1  0  0  0
 16 11  1  0  0  0
 17 26  1  0  0  0
 19 20  1  0  0  0
 21 29  1  0  0  0
 21 26  1  0  0  0
 25 24  1  0  0  0
 25 11  1  0  0  0
 25 17  1  0  0  0
 26 18  1  0  0  0
  3 24  2  0  0  0
  4 22  2  0  0  0
 11 12  2  0  0  0
 13 14  2  0  0  0
 15 16  2  0  0  0
 17  2  2  0  0  0
 18 19  2  0  0  0
 20 21  2  0  0  0
M  END
> <rmsd>
0.71465081

$$$$
CHEMBL2380416_6PT0


 25 28  0  0  0  0  0  0  0  0999 V2000
   98.3772  114.4339  120.2903 C   0  0  0  0  0
   97.7886  114.6466  121.6724 C   0  0  0  0  0
   97.5339  113.3127  122.3503 C   0  0  0  0  0
   98.8425  112.7058  122.8377 C   0  0  0  0  0
   99.7404  110.7307  124.0203 C   0  0  0  0  0
   99.3023  109.5307  124.5771 C   0  0  0  0  0
  100.1464  108.5039  125.2225 C   0  0  0  0  0
  101.5531  108.7745  125.5881 C   0  0  0  0  0
  101.9391  109.8765  126.3884 C   0  0  0  0  0
  100.9946  110.7677  126.9232 C   0  0  0  0  0
  101.4013  111.8448  127.7146 C   0  0  0  0  0
  102.7569  112.0406  127.9884 C   0  0  0  0  0
  103.7096  111.1557  127.4785 C   0  0  0  0  0
  103.3111  110.0742  126.6878 C   0  0  0  0  0
  104.2698  109.1797  126.2096 C   0  0  0  0  0
  103.8816  108.0832  125.4399 C   0  0  0  0  0
  102.5340  107.8812  125.1363 C   0  0  0  0  0
   97.9400  109.4812  124.3608 C   0  0  0  0  0
   96.9981  108.5096  124.6991 C   0  0  0  0  0
   95.6600  108.7439  124.3415 C   0  0  0  0  0
   95.2975  109.9258  123.6638 C   0  0  0  0  0
   96.2692  110.8870  123.3367 C   0  0  0  0  0
   97.5946  110.6352  123.7030 C   0  0  0  0  0
   98.6904  111.4032  123.4936 N   0  0  0  0  0
   99.6753  107.3525  125.4253 O   0  0  0  0  0
  1  2  1  0  0  0
  2  3  1  0  0  0
  3  4  1  0  0  0
  4 24  1  0  0  0
  6  7  1  0  0  0
  6 18  1  0  0  0
  7  8  1  0  0  0
  8  9  1  0  0  0
 10 11  1  0  0  0
 12 13  1  0  0  0
 14 15  1  0  0  0
 14  9  1  0  0  0
 16 17  1  0  0  0
 19 20  1  0  0  0
 21 22  1  0  0  0
 23 24  1  0  0  0
 23 18  1  0  0  0
 24  5  1  0  0  0
  5  6  2  0  0  0
  7 25  2  0  0  0
  9 10  2  0  0  0
 11 12  2  0  0  0
 13 14  2  0  0  0
 15 16  2  0  0  0
 17  8  2  0  0  0
 18 19  2  0  0  0
 20 21  2  0  0  0
 22 23  2  0  0  0
M  END
> <rmsd>
0.697384357

$$$$
CHEMBL3410832_8GUS


 32 34  0  0  0  0  0  0  0  0999 V2000
   97.2459  106.5356  125.6464 C   0  0  0  0  0
   98.5519  107.0114  125.4877 C   0  0  0  0  0
   98.7752  108.2800  124.8844 C   0  0  0  0  0
   97.6547  109.0514  124.4312 C   0  0  0  0  0
   96.3552  108.5186  124.6177 C   0  0  0  0  0
   96.1600  107.2811  125.2176 C   0  0  0  0  0
   95.2420  109.2309  124.2012 C   0  0  0  0  0
   95.3740  110.4757  123.5954 C   0  0  0  0  0
   96.6721  110.9966  123.4112 C   0  0  0  0  0
   99.0788  110.9163  123.5902 C   0  0  0  0  0
   94.1408  111.1877  123.1716 C   0  0  0  0  0
   93.0212  113.2071  122.1462 C   0  0  0  0  0
   93.4162  114.5584  121.5695 C   0  0  0  0  0
   94.1839  114.4027  120.2981 C   0  0  0  0  0
   95.5237  114.8022  120.2463 C   0  0  0  0  0
   96.2504  114.6661  119.0596 C   0  0  0  0  0
   95.6373  114.1332  117.9215 C   0  0  0  0  0
   94.2966  113.7392  117.9687 C   0  0  0  0  0
   93.5695  113.8750  119.1551 C   0  0  0  0  0
  101.2674  108.2275  125.2515 C   0  0  0  0  0
  102.4605  109.0909  124.8761 C   0  0  0  0  0
  102.3950  110.4453  125.5642 C   0  0  0  0  0
  102.7236  110.3085  127.0388 C   0  0  0  0  0
  102.6331  111.6656  127.7033 C   0  0  0  0  0
   99.4665  104.9500  126.5269 C   0  0  0  0  0
   96.8202  112.1223  122.8569 O   0  0  0  0  0
   93.0176  110.6304  123.3166 O   0  0  0  0  0
  100.0754  108.7905  124.7186 O   0  0  0  0  0
   99.6277  106.2252  125.9186 O   0  0  0  0  0
   97.7775  110.2914  123.8253 N   0  0  0  0  0
   94.2058  112.4975  122.6030 N   0  0  0  0  0
   96.3418  114.0012  116.7723 F   0  0  0  0  0
  2  3  1  0  0  0
  2 29  1  0  0  0
  3 28  1  0  0  0
  4  5  1  0  0  0
  5  7  1  0  0  0
  6  1  1  0  0  0
  8  9  1  0  0  0
  8 11  1  0  0  0
  9 30  1  0  0  0
 10 30  1  0  0  0
 11 31  1  0  0  0
 12 31  1  0  0  0
 12 13  1  0  0  0
 13 14  1  0  0  0
 15 16  1  0  0  0
 17 18  1  0  0  0
 17 32  1  0  0  0
 19 14  1  0  0  0
 20 28  1  0  0  0
 20 21  1  0  0  0
 21 22  1  0  0  0
 22 23  1  0  0  0
 23 24  1  0  0  0
 25 29  1  0  0  0
 30  4  1  0  0  0
  1  2  2  0  0  0
  3  4  2  0  0  0
  5  6  2  0  0  0
  7  8  2  0  0  0
  9 26  2  0  0  0
 11 27  2  0  0  0
 14 15  2  0  0  0
 16 17  2  0  0  0
 18 19  2  0  0  0
M  END
> <rmsd>
0.722925425

$$$$
CHEMBL306529_6PT0


 27 30  0  0  0  0  0  0  0  0999 V2000
   92.8251  111.9003  120.1511 C   0  0  0  0  0
   93.4734  111.0111  121.1909 C   0  0  0  0  0
   94.9283  110.7948  120.8330 C   0  0  0  0  0
   95.5757  109.9057  121.8725 C   0  0  0  0  0
   97.0333  109.6862  121.5121 C   0  0  0  0  0
   98.6420  109.1836  123.3754 C   0  0  0  0  0
   99.1391  110.5842  123.5249 C   0  0  0  0  0
   99.0215  108.0895  124.1613 C   0  0  0  0  0
  100.0082  108.0504  125.2634 C   0  0  0  0  0
  101.2111  108.9164  125.2662 C   0  0  0  0  0
  101.8953  109.1174  124.0576 C   0  0  0  0  0
  103.0516  109.8974  124.0067 C   0  0  0  0  0
  103.5490  110.4881  125.1677 C   0  0  0  0  0
  102.8925  110.3015  126.3847 C   0  0  0  0  0
  103.3984  110.9035  127.5403 C   0  0  0  0  0
  102.7455  110.7337  128.7633 C   0  0  0  0  0
  101.5828  109.9634  128.8355 C   0  0  0  0  0
  101.0704  109.3576  127.6853 C   0  0  0  0  0
  101.7167  109.5106  126.4476 C   0  0  0  0  0
   98.2310  107.0392  123.7264 C   0  0  0  0  0
   98.1726  105.7093  124.1426 C   0  0  0  0  0
   97.2626  104.8595  123.4894 C   0  0  0  0  0
   96.4447  105.3480  122.4483 C   0  0  0  0  0
   96.5250  106.6931  122.0472 C   0  0  0  0  0
   97.4354  107.5155  122.7133 C   0  0  0  0  0
   97.6738  108.8235  122.4987 N   0  0  0  0  0
   99.8364  107.2290  126.2043 O   0  0  0  0  0
  1  2  1  0  0  0
  2  3  1  0  0  0
  3  4  1  0  0  0
  4  5  1  0  0  0
  5 26  1  0  0  0
  7  6  1  0  0  0
  8  9  1  0  0  0
  8 20  1  0  0  0
  9 10  1  0  0  0
 11 12  1  0  0  0
 13 14  1  0  0  0
 15 16  1  0  0  0
 17 18  1  0  0  0
 19 10  1  0  0  0
 19 14  1  0  0  0
 21 22  1  0  0  0
 23 24  1  0  0  0
 25 26  1  0  0  0
 25 20  1  0  0  0
 26  6  1  0  0  0
  6  8  2  0  0  0
  9 27  2  0  0  0
 10 11  2  0  0  0
 12 13  2  0  0  0
 14 15  2  0  0  0
 16 17  2  0  0  0
 18 19  2  0  0  0
 20 21  2  0  0  0
 22 23  2  0  0  0
 24 25  2  0  0  0
M  END
> <rmsd>
0.525955617

$$$$
CHEMBL3410812_8GUR


 30 31  0  0  0  0  0  0  0  0999 V2000
  102.9919  104.4843  128.4798 C   0  0  0  0  0
  102.6754  104.8062  127.0314 C   0  0  0  0  0
  101.3438  105.5276  126.9249 C   0  0  0  0  0
  101.4825  106.9684  127.3859 C   0  0  0  0  0
  100.1662  107.7036  127.2140 C   0  0  0  0  0
   99.6251  109.1015  125.2104 C   0  0  0  0  0
  100.1350  110.3480  125.6615 C   0  0  0  0  0
   99.7704  111.5229  124.9932 C   0  0  0  0  0
   98.9386  111.4871  123.8686 C   0  0  0  0  0
   98.4751  110.2532  123.4031 C   0  0  0  0  0
   98.8171  109.0757  124.0686 C   0  0  0  0  0
   98.5666  112.7327  123.1759 C   0  0  0  0  0
   97.2731  113.8798  121.3205 C   0  0  0  0  0
   96.2230  114.6166  122.1444 C   0  0  0  0  0
   94.9071  113.9106  122.1185 C   0  0  0  0  0
   93.8253  114.4941  121.4501 C   0  0  0  0  0
   92.5821  113.8542  121.4345 C   0  0  0  0  0
   92.4163  112.6318  122.0926 C   0  0  0  0  0
   93.4921  112.0513  122.7709 C   0  0  0  0  0
   94.7353  112.6908  122.7867 C   0  0  0  0  0
  102.7462  110.6707  125.9373 C   0  0  0  0  0
  103.4331  109.3302  125.7552 C   0  0  0  0  0
  102.8406  108.5970  124.5691 C   0  0  0  0  0
  103.5159  107.2515  124.4151 C   0  0  0  0  0
  102.8859  106.5037  123.2595 C   0  0  0  0  0
   99.8756  107.8697  125.8325 O   0  0  0  0  0
   98.9841  113.8431  123.6056 O   0  0  0  0  0
   97.7310  112.6837  122.0150 N   0  0  0  0  0
   91.1519  111.9809  122.0755 N   0  0  0  0  0
  101.2926  110.5162  127.0255 S   0  0  0  0  0
  1  2  1  0  0  0
  2  3  1  0  0  0
  3  4  1  0  0  0
  4  5  1  0  0  0
  5 26  1  0  0  0
  6 26  1  0  0  0
  7  8  1  0  0  0
  7 30  1  0  0  0
  9 10  1  0  0  0
  9 12  1  0  0  0
 11  6  1  0  0  0
 12 28  1  0  0  0
 13 28  1  0  0  0
 13 14  1  0  0  0
 14 15  1  0  0  0
 16 17  1  0  0  0
 18 19  1  0  0  0
 18 29  1  0  0  0
 20 15  1  0  0  0
 21 30  1  0  0  0
 21 22  1  0  0  0
 22 23  1  0  0  0
 23 24  1  0  0  0
 24 25  1  0  0  0
  6  7  2  0  0  0
  8  9  2  0  0  0
 10 11  2  0  0  0
 12 27  2  0  0  0
 15 16  2  0  0  0
 17 18  2  0  0  0
 19 20  2  0  0  0
M  END
> <rmsd>
0.72422266

$$$$
CHEMBL3085421_6PT0


 27 31  0  0  0  0  0  0  0  0999 V2000
  100.2756  106.8852  125.8632 O   0  0  0  0  0
   91.8587  109.2838  124.8436 O   0  0  0  0  0
  100.4036  108.0358  125.3625 C   0  0  0  0  0
   99.2025  108.7552  124.8953 C   0  0  0  0  0
   97.8879  108.3134  125.0499 C   0  0  0  0  0
   95.5997  109.1057  124.4400 C   0  0  0  0  0
   95.1970  108.3915  123.1509 C   0  0  0  0  0
   93.0945  109.5817  122.8071 C   0  0  0  0  0
   92.6738  110.1890  124.1492 C   0  0  0  0  0
   92.7016  108.2346  125.2377 C   0  0  0  0  0
   93.1266  107.4226  124.0099 C   0  0  0  0  0
   97.8007  110.2197  124.0090 C   0  0  0  0  0
   97.3671  111.3684  123.3450 C   0  0  0  0  0
   98.3469  112.2740  122.9019 C   0  0  0  0  0
   99.7160  112.0154  123.1257 C   0  0  0  0  0
  100.1222  110.8481  123.7958 C   0  0  0  0  0
   99.1296  109.9684  124.2285 C   0  0  0  0  0
  101.7779  108.6311  125.2107 C   0  0  0  0  0
  102.6657  108.2981  126.4130 C   0  0  0  0  0
  102.0993  109.6881  126.2637 C   0  0  0  0  0
  103.1194  110.7410  125.8467 C   0  0  0  0  0
  103.7103  111.4219  127.0798 C   0  0  0  0  0
  102.6028  111.9433  127.9933 C   0  0  0  0  0
  101.7472  110.7814  128.4940 C   0  0  0  0  0
  101.0653  110.0712  127.3270 C   0  0  0  0  0
   97.0473  109.2254  124.5095 N   0  0  0  0  0
   93.7445  108.2710  122.9764 N   0  0  0  0  0
  3  4  1  0  0  0
  5 26  1  0  0  0
  6 26  1  0  0  0
  6  7  1  0  0  0
  7 27  1  0  0  0
  8 27  1  0  0  0
  8  9  1  0  0  0
  9  2  1  0  0  0
 10  2  1  0  0  0
 10 11  1  0  0  0
 11 27  1  0  0  0
 13 14  1  0  0  0
 15 16  1  0  0  0
 17  4  1  0  0  0
 17 12  1  0  0  0
 18  3  1  0  0  0
 18 19  1  0  0  0
 19 20  1  0  0  0
 20 21  1  0  0  0
 20 18  1  0  0  0
 21 22  1  0  0  0
 22 23  1  0  0  0
 23 24  1  0  0  0
 24 25  1  0  0  0
 25 20  1  0  0  0
 26 12  1  0  0  0
  3  1  2  0  0  0
  4  5  2  0  0  0
 12 13  2  0  0  0
 14 15  2  0  0  0
 16 17  2  0  0  0
M  END
> <rmsd>
0.670730174

$$$$
CHEMBL579241_6PT0


 21 23  0  0  0  0  0  0  0  0999 V2000
  105.1441  106.7522  124.3382 C   0  0  0  0  0
  105.0798  106.7296  125.8532 C   0  0  0  0  0
  104.9145  108.1452  126.3934 C   0  0  0  0  0
  102.4565  107.9783  125.8052 C   0  0  0  0  0
  101.3437  108.8171  125.8457 C   0  0  0  0  0
   99.9758  108.4368  125.4405 C   0  0  0  0  0
   98.8724  109.4650  125.3222 C   0  0  0  0  0
   99.0187  110.4391  124.1379 C   0  0  0  0  0
   98.5412  111.8490  124.4465 C   0  0  0  0  0
  100.2326  110.3043  123.2202 C   0  0  0  0  0
   97.9654  109.3343  124.0833 C   0  0  0  0  0
   98.2001  108.2025  123.0856 C   0  0  0  0  0
   96.5215  109.7313  124.3433 C   0  0  0  0  0
  101.7898  110.0266  126.3504 C   0  0  0  0  0
  101.1153  111.2137  126.6361 C   0  0  0  0  0
  101.8618  112.2804  127.1660 C   0  0  0  0  0
  103.2455  112.1388  127.4021 C   0  0  0  0  0
  103.8988  110.9281  127.1135 C   0  0  0  0  0
  103.1329  109.8865  126.5861 C   0  0  0  0  0
  103.5466  108.6502  126.2550 N   0  0  0  0  0
   99.7086  107.2160  125.2752 O   0  0  0  0  0
  1  2  1  0  0  0
  2  3  1  0  0  0
  3 20  1  0  0  0
  5  6  1  0  0  0
  5 14  1  0  0  0
  7  6  1  0  0  0
  7  8  1  0  0  0
  8  9  1  0  0  0
  8 10  1  0  0  0
  8 11  1  0  0  0
 11 12  1  0  0  0
 11 13  1  0  0  0
 11  7  1  0  0  0
 15 16  1  0  0  0
 17 18  1  0  0  0
 19 20  1  0  0  0
 19 14  1  0  0  0
 20  4  1  0  0  0
  4  5  2  0  0  0
  6 21  2  0  0  0
 14 15  2  0  0  0
 16 17  2  0  0  0
 18 19  2  0  0  0
M  END
> <rmsd>
0.820100725

$$$$
CHEMBL1828811_6PT0


 25 28  0  0  0  0  0  0  0  0999 V2000
   99.9247  108.1335  125.9830 C   0  0  0  0  0
  100.9537  108.9738  126.6298 C   0  0  0  0  0
  100.7883  109.2962  127.9835 C   0  0  0  0  0
  101.7226  110.0921  128.6491 C   0  0  0  0  0
  102.8438  110.5719  127.9716 C   0  0  0  0  0
  103.0415  110.2496  126.6281 C   0  0  0  0  0
  104.1782  110.7197  125.9646 C   0  0  0  0  0
  104.3995  110.3826  124.6271 C   0  0  0  0  0
  103.4878  109.5701  123.9491 C   0  0  0  0  0
  102.3478  109.0976  124.6040 C   0  0  0  0  0
  102.1016  109.4377  125.9444 C   0  0  0  0  0
   99.2548  108.5365  124.7303 C   0  0  0  0  0
   99.1382  109.8072  124.1888 C   0  0  0  0  0
   98.4008  109.6812  123.0462 C   0  0  0  0  0
   98.0826  110.7938  122.2718 C   0  0  0  0  0
   99.2635  112.1644  123.8385 C   0  0  0  0  0
   99.5868  111.0498  124.6318 C   0  0  0  0  0
   98.5510  107.6821  123.8800 C   0  0  0  0  0
   97.2195  107.8746  121.7740 C   0  0  0  0  0
   95.7570  107.9353  122.1725 C   0  0  0  0  0
   93.6619  107.5620  121.5972 C   0  0  0  0  0
   99.5950  107.0467  126.5297 O   0  0  0  0  0
   94.9711  107.4364  121.1353 O   0  0  0  0  0
   98.5300  112.0144  122.6907 N   0  0  0  0  0
   98.0491  108.3994  122.8476 N   0  0  0  0  0
  1  2  1  0  0  0
  1 12  1  0  0  0
  3  4  1  0  0  0
  5  6  1  0  0  0
  7  8  1  0  0  0
  9 10  1  0  0  0
 11  2  1  0  0  0
 11  6  1  0  0  0
 12 13  1  0  0  0
 13 14  1  0  0  0
 14 25  1  0  0  0
 15 24  1  0  0  0
 16 17  1  0  0  0
 19 25  1  0  0  0
 19 20  1  0  0  0
 20 23  1  0  0  0
 21 23  1  0  0  0
 25 18  1  0  0  0
  1 22  2  0  0  0
  2  3  2  0  0  0
  4  5  2  0  0  0
  6  7  2  0  0  0
  8  9  2  0  0  0
 10 11  2  0  0  0
 14 15  2  0  0  0
 16 24  2  0  0  0
 17 13  2  0  0  0
 18 12  2  0  0  0
M  END
> <rmsd>
0.740853965

$$$$
CHEMBL583654_6PT0


 29 32  0  0  0  0  0  0  0  0999 V2000
  102.4660  109.5480  124.4307 C   0  0  0  0  0
  101.2270  110.3658  124.2874 C   0  0  0  0  0
  100.4750  110.2436  123.1158 C   0  0  0  0  0
   99.3100  110.9947  122.9441 C   0  0  0  0  0
   98.8835  111.8792  123.9431 C   0  0  0  0  0
   97.6518  112.6661  123.7635 C   0  0  0  0  0
   95.6207  113.2372  122.3543 C   0  0  0  0  0
   95.2990  113.4347  120.8498 C   0  0  0  0  0
   95.2608  114.9184  120.5098 C   0  0  0  0  0
   96.2948  112.7630  119.9060 C   0  0  0  0  0
   93.9177  112.7570  120.6978 C   0  0  0  0  0
   92.8609  113.5796  121.4509 C   0  0  0  0  0
   93.2134  113.3567  122.9230 C   0  0  0  0  0
   94.4087  112.4207  122.8373 C   0  0  0  0  0
   94.6044  111.6108  124.1078 C   0  0  0  0  0
   94.0610  111.5887  121.6392 C   0  0  0  0  0
   99.6379  112.0008  125.1180 C   0  0  0  0  0
  100.8070  111.2518  125.2981 C   0  0  0  0  0
  101.5704  111.3946  126.5796 C   0  0  0  0  0
  100.8699  110.6676  127.7181 C   0  0  0  0  0
  101.0194  109.1629  127.5617 C   0  0  0  0  0
   98.8332  108.3170  128.0040 C   0  0  0  0  0
   98.6714  107.0854  127.0962 C   0  0  0  0  0
  100.4712  106.0538  127.9074 C   0  0  0  0  0
  100.8432  107.1909  128.8735 C   0  0  0  0  0
   97.2766  113.4674  124.6630 O   0  0  0  0  0
   99.9195  106.5663  126.7257 O   0  0  0  0  0
   96.8796  112.5228  122.5678 N   0  0  0  0  0
  100.1957  108.4720  128.5457 N   0  0  0  0  0
  1  2  1  0  0  0
  3  4  1  0  0  0
  5  6  1  0  0  0
  5 17  1  0  0  0
  6 28  1  0  0  0
  7 28  1  0  0  0
  7  8  1  0  0  0
  8  9  1  0  0  0
  8 10  1  0  0  0
 11  8  1  0  0  0
 11 12  1  0  0  0
 12 13  1  0  0  0
 13 14  1  0  0  0
 14 15  1  0  0  0
 14 16  1  0  0  0
 14  7  1  0  0  0
 16 11  1  0  0  0
 18  2  1  0  0  0
 19 18  1  0  0  0
 19 20  1  0  0  0
 20 21  1  0  0  0
 21 29  1  0  0  0
 22 29  1  0  0  0
 22 23  1  0  0  0
 23 27  1  0  0  0
 24 27  1  0  0  0
 24 25  1  0  0  0
 25 29  1  0  0  0
  2  3  2  0  0  0
  4  5  2  0  0  0
  6 26  2  0  0  0
 17 18  2  0  0  0
M  END
> <rmsd>
0.854711294

$$$$
CHEMBL3354956_8GUQ


 29 33  0  0  0  0  0  0  0  0999 V2000
   97.5701  106.6790  122.6279 C   0  0  0  0  0
   97.6952  106.1871  125.1368 C   0  0  0  0  0
   98.5739  107.3276  125.4282 C   0  0  0  0  0
   99.4993  109.2932  125.3492 C   0  0  0  0  0
   98.3257  108.6627  125.1783 C   0  0  0  0  0
   97.4347  109.3623  124.2339 C   0  0  0  0  0
   98.3113  110.5277  123.7149 C   0  0  0  0  0
   99.6496  110.4886  124.4804 C   0  0  0  0  0
   98.5997  111.5370  124.8131 C   0  0  0  0  0
  101.8613  108.5992  125.7685 C   0  0  0  0  0
  102.7280  107.5566  125.4072 C   0  0  0  0  0
  104.1127  107.7316  125.4618 C   0  0  0  0  0
  104.6455  108.9504  125.8852 C   0  0  0  0  0
  103.7940  109.9898  126.2663 C   0  0  0  0  0
  102.4070  109.8209  126.2122 C   0  0  0  0  0
   96.6926  106.2595  121.4596 C   0  0  0  0  0
   99.0206  106.4337  122.3274 C   0  0  0  0  0
   99.8883  107.5258  122.2126 C   0  0  0  0  0
  101.2477  107.3219  121.9600 C   0  0  0  0  0
  101.7449  106.0231  121.8196 C   0  0  0  0  0
  100.8826  104.9282  121.9300 C   0  0  0  0  0
   99.5229  105.1316  122.1836 C   0  0  0  0  0
   97.1568  105.9592  123.8286 N   0  0  0  0  0
   99.8766  107.1894  125.7589 N   0  0  0  0  0
  100.4409  108.3910  125.6983 N   0  0  0  0  0
   97.4495  105.3589  126.0516 O   0  0  0  0  0
   96.8844  107.1262  120.3832 O   0  0  0  0  0
  101.6087  110.8318  126.6344 F   0  0  0  0  0
  105.9881  109.1209  125.9380 F   0  0  0  0  0
  1 23  1  0  0  0
  1 16  1  0  0  0
  1 17  1  0  0  0
  2  3  1  0  0  0
  5  3  1  0  0  0
  6  5  1  0  0  0
  7  6  1  0  0  0
  7  8  1  0  0  0
  8  9  1  0  0  0
  8  4  1  0  0  0
  9  7  1  0  0  0
 11 12  1  0  0  0
 13 14  1  0  0  0
 13 29  1  0  0  0
 15 28  1  0  0  0
 15 10  1  0  0  0
 16 27  1  0  0  0
 18 19  1  0  0  0
 20 21  1  0  0  0
 22 17  1  0  0  0
 23  2  1  0  0  0
 25 24  1  0  0  0
 25  4  1  0  0  0
 25 10  1  0  0  0
  2 26  2  0  0  0
  3 24  2  0  0  0
  4  5  2  0  0  0
 10 11  2  0  0  0
 12 13  2  0  0  0
 14 15  2  0  0  0
 17 18  2  0  0  0
 19 20  2  0  0  0
 21 22  2  0  0  0
M  END
> <rmsd>
0.656176269

$$$$
CHEMBL3970254_8GUR


 28 30  0  0  0  0  0  0  0  0999 V2000
   99.7594  110.8014  123.5771 C   0  0  0  0  0
   99.9738  110.7348  125.0835 C   0  0  0  0  0
  100.2099  109.3045  125.5911 C   0  0  0  0  0
  101.4553  108.6743  124.9314 C   0  0  0  0  0
  102.7200  109.5155  125.0174 C   0  0  0  0  0
  100.3525  109.3277  127.1115 C   0  0  0  0  0
  101.8347  111.3668  127.3286 C   0  0  0  0  0
  101.8834  109.6079  129.0794 C   0  0  0  0  0
  102.7614  108.3807  128.9212 C   0  0  0  0  0
   98.8844  107.0914  125.3933 C   0  0  0  0  0
   97.6464  106.4324  124.9529 C   0  0  0  0  0
   95.4856  106.6092  123.9561 C   0  0  0  0  0
   95.2909  105.2221  124.0807 C   0  0  0  0  0
   96.2936  104.4542  124.6855 C   0  0  0  0  0
   97.4754  105.0542  125.1174 C   0  0  0  0  0
   93.9991  104.5788  123.6593 C   0  0  0  0  0
   93.8500  104.6446  122.1480 C   0  0  0  0  0
   94.2554  103.3468  122.8053 C   0  0  0  0  0
   94.6250  108.8146  123.2705 C   0  0  0  0  0
   93.3678  109.3965  122.6591 C   0  0  0  0  0
   92.4658  109.9040  123.7647 C   0  0  0  0  0
   93.3089  110.8776  122.9677 C   0  0  0  0  0
   99.5353  108.6735  127.8175 O   0  0  0  0  0
   99.8063  106.4149  125.9261 O   0  0  0  0  0
   94.4834  107.4074  123.3987 O   0  0  0  0  0
  101.4057  110.0521  127.7780 N   0  0  0  0  0
   99.0357  108.5075  125.2115 N   0  0  0  0  0
   96.6523  107.1687  124.3855 N   0  0  0  0  0
  1  2  1  0  0  0
  2  3  1  0  0  0
  3  4  1  0  0  0
  3  6  1  0  0  0
  3 27  1  0  0  0
  4  5  1  0  0  0
  6 26  1  0  0  0
  7 26  1  0  0  0
  8 26  1  0  0  0
  8  9  1  0  0  0
 10 11  1  0  0  0
 12 28  1  0  0  0
 12 25  1  0  0  0
 13 14  1  0  0  0
 15 11  1  0  0  0
 16 13  1  0  0  0
 16 17  1  0  0  0
 17 18  1  0  0  0
 18 16  1  0  0  0
 19 25  1  0  0  0
 19 20  1  0  0  0
 20 21  1  0  0  0
 21 22  1  0  0  0
 22 20  1  0  0  0
 27 10  1  0  0  0
  6 23  2  0  0  0
 10 24  2  0  0  0
 11 28  2  0  0  0
 12 13  2  0  0  0
 14 15  2  0  0  0
M  END
> <rmsd>
0.708170474

$$$$
CHEMBL108085_6KPF


 29 32  0  0  0  0  0  0  0  0999 V2000
  102.6775  113.6009  127.4620 C   0  0  0  0  0
  102.1334  112.2062  127.2376 C   0  0  0  0  0
  103.2711  111.2038  127.2972 C   0  0  0  0  0
  102.7467  109.7990  127.0628 C   0  0  0  0  0
  102.4245  109.5952  125.5924 C   0  0  0  0  0
  101.7174  108.2610  125.3736 C   0  0  0  0  0
  100.2111  108.3106  125.6773 C   0  0  0  0  0
   99.5380  109.3498  124.8025 C   0  0  0  0  0
   98.9223  110.4771  125.3622 C   0  0  0  0  0
   98.3015  111.4310  124.5530 C   0  0  0  0  0
   98.2602  111.2553  123.1531 C   0  0  0  0  0
   98.9419  110.1560  122.5872 C   0  0  0  0  0
   99.5511  109.2063  123.4094 C   0  0  0  0  0
   98.6604  111.0293  120.2836 C   0  0  0  0  0
   98.3611  110.3875  118.9408 C   0  0  0  0  0
   99.8331  111.9873  120.1143 C   0  0  0  0  0
   97.4134  111.7588  120.8083 C   0  0  0  0  0
   96.9288  112.8882  119.8847 C   0  0  0  0  0
   95.8728  113.7540  120.5279 C   0  0  0  0  0
   95.5605  113.6838  121.8321 C   0  0  0  0  0
   94.4885  114.5663  122.3691 C   0  0  0  0  0
   96.2113  112.6842  122.7523 C   0  0  0  0  0
   97.5961  112.2747  122.2451 C   0  0  0  0  0
   98.9386  106.6674  126.4975 C   0  0  0  0  0
   99.4666  107.4870  127.6227 C   0  0  0  0  0
   97.7391  112.5512  125.1537 O   0  0  0  0  0
   99.0245  109.9983  121.1993 O   0  0  0  0  0
   99.6652  107.0455  125.3741 O   0  0  0  0  0
  100.0257  108.6216  127.0445 O   0  0  0  0  0
  1  2  1  0  0  0
  2  3  1  0  0  0
  3  4  1  0  0  0
  4  5  1  0  0  0
  5  6  1  0  0  0
  6  7  1  0  0  0
  7  8  1  0  0  0
  7 28  1  0  0  0
  7 29  1  0  0  0
  9 10  1  0  0  0
 10 26  1  0  0  0
 11 12  1  0  0  0
 12 27  1  0  0  0
 13  8  1  0  0  0
 14 27  1  0  0  0
 14 15  1  0  0  0
 14 16  1  0  0  0
 17 14  1  0  0  0
 17 18  1  0  0  0
 18 19  1  0  0  0
 21 20  1  0  0  0
 22 20  1  0  0  0
 23 22  1  0  0  0
 23 17  1  0  0  0
 23 11  1  0  0  0
 24 28  1  0  0  0
 24 25  1  0  0  0
 25 29  1  0  0  0
  8  9  2  0  0  0
 10 11  2  0  0  0
 12 13  2  0  0  0
 19 20  2  0  0  0
M  END
> <rmsd>
0.775163651

$$$$
CHEMBL2112293_6PT0


 34 38  0  0  0  0  0  0  0  0999 V2000
   98.8517  108.2950  124.1015 C   0  0  0  0  0
   98.3839  109.3581  123.3242 C   0  0  0  0  0
   97.6741  107.5508  122.3625 C   0  0  0  0  0
   98.3871  107.1530  123.4699 C   0  0  0  0  0
   98.5409  105.8075  123.8031 C   0  0  0  0  0
   97.9420  104.8505  122.9683 C   0  0  0  0  0
   97.2098  105.2510  121.8328 C   0  0  0  0  0
   97.0644  106.6174  121.5115 C   0  0  0  0  0
   95.7041  106.1262  119.5047 C   0  0  0  0  0
   96.9956  109.7108  121.2648 C   0  0  0  0  0
   95.5746  110.0055  121.7142 C   0  0  0  0  0
   94.1368  109.7847  119.8692 C   0  0  0  0  0
   93.1104  110.4897  118.9666 C   0  0  0  0  0
   92.9194  112.2407  120.3807 C   0  0  0  0  0
   93.9355  111.6431  121.3687 C   0  0  0  0  0
   98.6120  110.8092  123.5961 C   0  0  0  0  0
   99.6620  108.3601  125.3348 C   0  0  0  0  0
  100.8990  109.7473  127.0610 C   0  0  0  0  0
  102.3925  109.8217  126.6976 C   0  0  0  0  0
  102.6136  111.2873  126.4705 C   0  0  0  0  0
  102.0938  111.7150  127.8191 C   0  0  0  0  0
  100.6799  111.0897  127.8066 C   0  0  0  0  0
  100.1443  110.8317  129.2083 C   0  0  0  0  0
   99.7148  112.0430  127.1044 C   0  0  0  0  0
  103.0089  110.8865  128.7341 C   0  0  0  0  0
  103.1986  109.5783  127.9637 C   0  0  0  0  0
  102.8488  108.9481  125.5414 C   0  0  0  0  0
   97.6741  108.8969  122.2662 N   0  0  0  0  0
   94.8774  110.7543  120.6834 N   0  0  0  0  0
  100.0549  109.6246  125.8723 N   0  0  0  0  0
   96.3434  107.0360  120.3888 O   0  0  0  0  0
   93.2353  111.8892  119.0547 O   0  0  0  0  0
  100.0066  107.2965  125.9178 O   0  0  0  0  0
   98.0681  103.5332  123.2570 F   0  0  0  0  0
  1 17  1  0  0  0
  2 28  1  0  0  0
  4  5  1  0  0  0
  4  1  1  0  0  0
  6  7  1  0  0  0
  6 34  1  0  0  0
  8 31  1  0  0  0
  8  3  1  0  0  0
  9 31  1  0  0  0
 10 28  1  0  0  0
 10 11  1  0  0  0
 11 29  1  0  0  0
 12 29  1  0  0  0
 12 13  1  0  0  0
 13 32  1  0  0  0
 14 32  1  0  0  0
 14 15  1  0  0  0
 15 29  1  0  0  0
 16  2  1  0  0  0
 17 30  1  0  0  0
 18 30  1  0  0  0
 18 19  1  0  0  0
 19 20  1  0  0  0
 19 27  1  0  0  0
 20 21  1  0  0  0
 21 22  1  0  0  0
 21 25  1  0  0  0
 22 23  1  0  0  0
 22 24  1  0  0  0
 22 18  1  0  0  0
 25 26  1  0  0  0
 26 19  1  0  0  0
 28  3  1  0  0  0
  1  2  2  0  0  0
  3  4  2  0  0  0
  5  6  2  0  0  0
  7  8  2  0  0  0
 17 33  2  0  0  0
M  END
> <rmsd>
0.489941865

$$$$
CHEMBL600602_6KPF


 27 29  0  0  0  0  0  0  0  0999 V2000
   99.4313  110.9690  123.5881 C   0  0  0  0  0
   98.0274  111.5445  123.6150 C   0  0  0  0  0
   97.3382  111.3602  122.2703 C   0  0  0  0  0
   96.7658  109.9580  122.1326 C   0  0  0  0  0
   97.8391  108.9951  121.6670 C   0  0  0  0  0
   97.3254  107.5654  121.7673 C   0  0  0  0  0
   98.4292  106.5292  121.5322 C   0  0  0  0  0
   97.8246  105.1492  121.7205 C   0  0  0  0  0
   98.8975  106.6210  120.0821 C   0  0  0  0  0
   99.5638  106.7169  122.5277 C   0  0  0  0  0
   99.2989  106.6591  123.9041 C   0  0  0  0  0
  100.3089  106.8781  124.8426 C   0  0  0  0  0
  101.6172  107.1944  124.4172 C   0  0  0  0  0
  101.9024  107.1712  123.0339 C   0  0  0  0  0
  100.8795  106.9615  122.1075 C   0  0  0  0  0
  104.3376  107.2884  123.4356 C   0  0  0  0  0
  104.6611  105.8343  123.7451 C   0  0  0  0  0
  105.5464  107.8799  122.7281 C   0  0  0  0  0
  104.0230  108.0401  124.7405 C   0  0  0  0  0
  104.0261  109.5827  124.5458 C   0  0  0  0  0
  102.7165  110.2651  124.9504 C   0  0  0  0  0
  102.2645  109.7465  126.2810 C   0  0  0  0  0
  101.8573  110.6888  127.3591 C   0  0  0  0  0
  102.2860  108.4293  126.5078 C   0  0  0  0  0
  102.7323  107.4843  125.4166 C   0  0  0  0  0
   99.9973  106.7760  126.1933 O   0  0  0  0  0
  103.2092  107.3491  122.5669 O   0  0  0  0  0
  1  2  1  0  0  0
  2  3  1  0  0  0
  3  4  1  0  0  0
  4  5  1  0  0  0
  5  6  1  0  0  0
  6  7  1  0  0  0
  7  8  1  0  0  0
  7  9  1  0  0  0
  7 10  1  0  0  0
 11 12  1  0  0  0
 12 26  1  0  0  0
 13 14  1  0  0  0
 14 27  1  0  0  0
 15 10  1  0  0  0
 16 27  1  0  0  0
 16 17  1  0  0  0
 16 18  1  0  0  0
 19 16  1  0  0  0
 19 20  1  0  0  0
 20 21  1  0  0  0
 21 22  1  0  0  0
 23 22  1  0  0  0
 25 24  1  0  0  0
 25 19  1  0  0  0
 25 13  1  0  0  0
 10 11  2  0  0  0
 12 13  2  0  0  0
 14 15  2  0  0  0
 22 24  2  0  0  0
M  END
> <rmsd>
0.48230198

$$$$
CHEMBL2326297_8GUT


 31 33  0  0  0  0  0  0  0  0999 V2000
   98.2049  108.9277  126.6830 O   0  0  0  0  0
   99.8234  107.1115  126.5099 O   0  0  0  0  0
  103.6488  111.6261  129.4287 O   0  0  0  0  0
   99.6105  108.5819  126.2783 S   0  0  0  0  0
   99.8704  108.9268  124.5893 N   0  0  0  0  0
  105.9239  110.2726  125.8470 N   0  0  0  0  0
  100.9326  108.1935  123.9025 C   0  0  0  0  0
  102.2679  108.6992  124.3368 C   0  0  0  0  0
  102.7115  109.9595  123.9247 C   0  0  0  0  0
  103.9163  110.4711  124.4128 C   0  0  0  0  0
  104.6902  109.7338  125.3248 C   0  0  0  0  0
  104.2389  108.4639  125.7222 C   0  0  0  0  0
  103.0345  107.9514  125.2341 C   0  0  0  0  0
  106.4566  111.5450  125.3737 C   0  0  0  0  0
  105.6950  112.6985  126.0008 C   0  0  0  0  0
  106.7665  109.4994  126.7521 C   0  0  0  0  0
  106.1765  109.5047  128.1506 C   0  0  0  0  0
   99.2101  110.0227  123.9212 C   0  0  0  0  0
   98.4470  110.9563  124.6413 C   0  0  0  0  0
   97.8212  112.0222  123.9895 C   0  0  0  0  0
   97.9524  112.1686  122.6069 C   0  0  0  0  0
   98.7094  111.2498  121.8770 C   0  0  0  0  0
   99.3347  110.1843  122.5304 C   0  0  0  0  0
   97.2875  113.3020  121.9130 C   0  0  0  0  0
  100.7570  109.5009  127.2393 C   0  0  0  0  0
  101.0108  110.8411  126.9303 C   0  0  0  0  0
  101.9677  111.5584  127.6526 C   0  0  0  0  0
  102.6815  110.9384  128.6909 C   0  0  0  0  0
  102.4213  109.5989  128.9984 C   0  0  0  0  0
  101.4646  108.8815  128.2749 C   0  0  0  0  0
  103.9800  112.9854  129.1811 C   0  0  0  0  0
  4  5  1  0  0  0
  4 25  1  0  0  0
  5 18  1  0  0  0
  7  5  1  0  0  0
  7  8  1  0  0  0
  9 10  1  0  0  0
 11 12  1  0  0  0
 11  6  1  0  0  0
 13  8  1  0  0  0
 14  6  1  0  0  0
 14 15  1  0  0  0
 16  6  1  0  0  0
 16 17  1  0  0  0
 19 20  1  0  0  0
 21 22  1  0  0  0
 23 18  1  0  0  0
 24 21  1  0  0  0
 26 27  1  0  0  0
 28 29  1  0  0  0
 28  3  1  0  0  0
 30 25  1  0  0  0
 31  3  1  0  0  0
  4  1  2  0  0  0
  4  2  2  0  0  0
  8  9  2  0  0  0
 10 11  2  0  0  0
 12 13  2  0  0  0
 18 19  2  0  0  0
 20 21  2  0  0  0
 22 23  2  0  0  0
 25 26  2  0  0  0
 27 28  2  0  0  0
 29 30  2  0  0  0
M  END
> <rmsd>
0.841523349

$$$$
CHEMBL431363_6PT0


 33 37  0  0  0  0  0  0  0  0999 V2000
  103.1443  110.9250  126.8838 C   0  0  0  0  0
  103.4292  110.4811  128.3271 C   0  0  0  0  0
  102.0451  110.1242  128.8737 C   0  0  0  0  0
  101.1372  110.4269  127.6923 C   0  0  0  0  0
   99.6993  110.6853  128.1098 C   0  0  0  0  0
  101.8172  111.6140  127.0783 C   0  0  0  0  0
  101.3405  109.3283  126.6391 C   0  0  0  0  0
   99.4674  108.1987  125.3703 C   0  0  0  0  0
   98.4013  108.2621  124.3500 C   0  0  0  0  0
   98.0352  109.3537  123.5580 C   0  0  0  0  0
   98.6618  110.7095  123.5904 C   0  0  0  0  0
   96.3305  109.9149  121.8058 C   0  0  0  0  0
   95.1693  110.6227  122.5102 C   0  0  0  0  0
   93.8186  110.7135  120.5314 C   0  0  0  0  0
   93.1456  111.6510  119.5266 C   0  0  0  0  0
   94.5169  113.3726  120.0463 C   0  0  0  0  0
   95.2806  112.5489  121.0855 C   0  0  0  0  0
   96.7057  107.7349  123.0040 C   0  0  0  0  0
   95.7073  106.9381  122.4243 C   0  0  0  0  0
   93.8405  106.6838  120.8214 C   0  0  0  0  0
   95.5893  105.6076  122.8800 C   0  0  0  0  0
   96.4478  105.1097  123.8805 C   0  0  0  0  0
   97.4383  105.9301  124.4438 C   0  0  0  0  0
   97.5402  107.2416  123.9806 C   0  0  0  0  0
  102.7239  109.6965  126.0435 C   0  0  0  0  0
  102.6833  110.0859  124.5671 C   0  0  0  0  0
  103.6895  108.5289  126.1930 C   0  0  0  0  0
  100.2759  109.3451  125.6379 N   0  0  0  0  0
   97.0079  109.0231  122.7388 N   0  0  0  0  0
   94.4037  111.5018  121.6219 N   0  0  0  0  0
   99.6659  107.1290  126.0077 O   0  0  0  0  0
   94.0981  112.5387  118.9931 O   0  0  0  0  0
   94.8674  107.4527  121.4317 O   0  0  0  0  0
  1  2  1  0  0  0
  2  3  1  0  0  0
  3  4  1  0  0  0
  4  5  1  0  0  0
  4  6  1  0  0  0
  4  7  1  0  0  0
  6  1  1  0  0  0
  7 28  1  0  0  0
  7 25  1  0  0  0
  8  9  1  0  0  0
 10 29  1  0  0  0
 11 10  1  0  0  0
 12 29  1  0  0  0
 12 13  1  0  0  0
 13 30  1  0  0  0
 14 30  1  0  0  0
 14 15  1  0  0  0
 15 32  1  0  0  0
 16 32  1  0  0  0
 16 17  1  0  0  0
 17 30  1  0  0  0
 19 33  1  0  0  0
 19 21  1  0  0  0
 20 33  1  0  0  0
 22 23  1  0  0  0
 24  9  1  0  0  0
 24 18  1  0  0  0
 25 26  1  0  0  0
 25 27  1  0  0  0
 25  1  1  0  0  0
 28  8  1  0  0  0
 29 18  1  0  0  0
  8 31  2  0  0  0
  9 10  2  0  0  0
 18 19  2  0  0  0
 21 22  2  0  0  0
 23 24  2  0  0  0
M  END
> <rmsd>
0.492381871

$$$$
CHEMBL1629731_5ZTY


 27 29  0  0  0  0  0  0  0  0999 V2000
  103.3052  109.0880  124.8454 C   0  0  0  0  0
  102.8251  108.9006  126.2779 C   0  0  0  0  0
  101.6883  109.8568  126.6470 C   0  0  0  0  0
  101.2331  109.5581  128.0639 C   0  0  0  0  0
  102.1857  111.2907  126.6097 C   0  0  0  0  0
   99.8223  108.5124  125.4999 C   0  0  0  0  0
   98.7113  108.4870  124.5348 C   0  0  0  0  0
   96.1365  106.7357  122.8554 C   0  0  0  0  0
   95.2248  106.1239  123.7252 C   0  0  0  0  0
   94.3151  105.1789  123.2451 C   0  0  0  0  0
   94.3169  104.8326  121.8921 C   0  0  0  0  0
   95.2379  105.4201  121.0216 C   0  0  0  0  0
   96.1513  106.3669  121.4948 C   0  0  0  0  0
   97.1837  109.0014  123.0474 C   0  0  0  0  0
   96.5841  110.8802  121.5460 C   0  0  0  0  0
   95.4921  111.2777  120.8004 C   0  0  0  0  0
   94.5130  110.3166  120.9869 C   0  0  0  0  0
   95.0454  109.3701  121.8392 C   0  0  0  0  0
   98.2381  109.5401  123.7644 C   0  0  0  0  0
   98.7088  110.9560  123.7651 C   0  0  0  0  0
  100.5623  109.7201  125.7234 N   0  0  0  0  0
   97.9808  107.3812  124.2810 N   0  0  0  0  0
   97.0643  107.6941  123.3776 N   0  0  0  0  0
   96.3016  109.7209  122.1651 N   0  0  0  0  0
  100.1203  107.4603  126.1272 O   0  0  0  0  0
   93.1759  103.6503  121.2902 Cl  0  0  0  0  0
   97.3256  107.0328  120.3710 Cl  0  0  0  0  0
  1  2  1  0  0  0
  2  3  1  0  0  0
  3  4  1  0  0  0
  3  5  1  0  0  0
  3 21  1  0  0  0
  6  7  1  0  0  0
  9 10  1  0  0  0
 11 26  1  0  0  0
 11 12  1  0  0  0
 13 27  1  0  0  0
 13  8  1  0  0  0
 14 24  1  0  0  0
 16 17  1  0  0  0
 18 24  1  0  0  0
 19  7  1  0  0  0
 20 19  1  0  0  0
 21  6  1  0  0  0
 23 22  1  0  0  0
 23  8  1  0  0  0
 23 14  1  0  0  0
 24 15  1  0  0  0
  6 25  2  0  0  0
  7 22  2  0  0  0
  8  9  2  0  0  0
 10 11  2  0  0  0
 12 13  2  0  0  0
 14 19  2  0  0  0
 15 16  2  0  0  0
 17 18  2  0  0  0
M  END
> <rmsd>
0.515410662

$$$$
CHEMBL4089773_8GUR


 26 27  0  0  0  0  0  0  0  0999 V2000
   99.0388  112.2853  123.8321 C   0  0  0  0  0
  100.0169  112.3072  124.8186 C   0  0  0  0  0
  100.4205  111.1345  125.4624 C   0  0  0  0  0
   99.8422  109.8771  125.0911 C   0  0  0  0  0
   98.8066  109.8901  124.1214 C   0  0  0  0  0
   98.4287  111.0846  123.4938 C   0  0  0  0  0
   98.1569  108.6964  123.7970 C   0  0  0  0  0
   99.5384  107.5167  125.3204 C   0  0  0  0  0
  101.4301  108.5252  126.4571 C   0  0  0  0  0
  102.5673  107.8647  125.6777 C   0  0  0  0  0
  103.0507  108.7415  124.5340 C   0  0  0  0  0
  104.0029  109.8016  125.0497 C   0  0  0  0  0
  104.4196  110.7025  123.9070 C   0  0  0  0  0
   97.8300  106.2884  124.0678 C   0  0  0  0  0
   98.4976  105.6377  122.9034 C   0  0  0  0  0
  100.4935  104.2742  122.0433 C   0  0  0  0  0
   99.6668  103.2244  121.3235 C   0  0  0  0  0
  101.7016  103.6015  122.6598 C   0  0  0  0  0
  100.9727  105.3191  121.0522 C   0  0  0  0  0
   97.2287  108.6967  122.9387 O   0  0  0  0  0
   99.8569  106.4247  125.8742 O   0  0  0  0  0
   98.0066  105.7714  121.7509 O   0  0  0  0  0
   98.5161  107.5359  124.4141 N   0  0  0  0  0
  100.2297  108.6634  125.6252 N   0  0  0  0  0
   99.7100  104.9012  123.1041 N   0  0  0  0  0
  101.5496  111.3920  126.7893 Cl  0  0  0  0  0
  2  3  1  0  0  0
  3 26  1  0  0  0
  4  5  1  0  0  0
  5  7  1  0  0  0
  6  1  1  0  0  0
  7 23  1  0  0  0
  8 24  1  0  0  0
  9 24  1  0  0  0
  9 10  1  0  0  0
 10 11  1  0  0  0
 11 12  1  0  0  0
 12 13  1  0  0  0
 14 23  1  0  0  0
 14 15  1  0  0  0
 15 25  1  0  0  0
 16 25  1  0  0  0
 16 17  1  0  0  0
 16 18  1  0  0  0
 16 19  1  0  0  0
 23  8  1  0  0  0
 24  4  1  0  0  0
  1  2  2  0  0  0
  3  4  2  0  0  0
  5  6  2  0  0  0
  7 20  2  0  0  0
  8 21  2  0  0  0
 15 22  2  0  0  0
M  END
> <rmsd>
0.702739537

$$$$
CHEMBL1800174_8GUT


 22 25  0  0  0  0  0  0  0  0999 V2000
   96.0257  103.9130  123.3391 C   0  0  0  0  0
   96.3939  103.2449  124.6489 C   0  0  0  0  0
   96.9653  105.8046  125.8789 C   0  0  0  0  0
   96.3459  106.9986  125.4405 C   0  0  0  0  0
   97.0856  108.1885  125.3163 C   0  0  0  0  0
   98.4402  108.1325  125.6394 C   0  0  0  0  0
   99.0428  106.9831  126.0600 C   0  0  0  0  0
   98.3384  105.7900  126.1938 C   0  0  0  0  0
  100.5054  108.5130  126.0046 C   0  0  0  0  0
  101.8098  109.2303  126.1559 C   0  0  0  0  0
  102.0468  110.1299  127.3511 C   0  0  0  0  0
  102.4691  109.6725  124.8702 C   0  0  0  0  0
  103.0301  108.4933  125.6534 C   0  0  0  0  0
   99.1564  110.4970  125.1990 C   0  0  0  0  0
   99.3285  110.6238  123.6971 C   0  0  0  0  0
   97.9822  110.9095  123.0651 C   0  0  0  0  0
   98.9724  112.0341  123.2776 C   0  0  0  0  0
   96.0275  104.3271  126.0148 S   0  0  0  0  0
   96.3709  103.6374  127.3049 O   0  0  0  0  0
   94.5600  104.6537  126.0167 O   0  0  0  0  0
  100.3498  107.1949  126.3043 N   0  0  0  0  0
   99.3531  109.1124  125.6088 N   0  0  0  0  0
  1  2  1  0  0  0
  2 18  1  0  0  0
  4  5  1  0  0  0
  6  7  1  0  0  0
  7 21  1  0  0  0
  8  3  1  0  0  0
  9 22  1  0  0  0
 10  9  1  0  0  0
 10 11  1  0  0  0
 10 12  1  0  0  0
 12 13  1  0  0  0
 13 10  1  0  0  0
 14 22  1  0  0  0
 14 15  1  0  0  0
 15 16  1  0  0  0
 16 17  1  0  0  0
 17 15  1  0  0  0
 18  3  1  0  0  0
 22  6  1  0  0  0
  3  4  2  0  0  0
  5  6  2  0  0  0
  7  8  2  0  0  0
  9 21  2  0  0  0
 18 19  2  0  0  0
 18 20  2  0  0  0
M  END
> <rmsd>
0.603827775

$$$$
CHEMBL460754_5ZTY


 25 27  0  0  0  0  0  0  0  0999 V2000
   99.2406  110.9489  123.2691 C   0  0  0  0  0
   98.5731  108.5625  123.4592 C   0  0  0  0  0
   97.4642  107.7740  123.1393 C   0  0  0  0  0
   97.1575  106.6146  123.8601 C   0  0  0  0  0
   95.9891  105.7663  123.5135 C   0  0  0  0  0
   94.8532  106.2391  122.6820 C   0  0  0  0  0
   93.9737  105.3027  122.1156 C   0  0  0  0  0
   92.8823  105.7225  121.3496 C   0  0  0  0  0
   92.6541  107.0855  121.1476 C   0  0  0  0  0
   93.5151  108.0281  121.7142 C   0  0  0  0  0
   94.6058  107.6065  122.4799 C   0  0  0  0  0
   98.0004  106.2326  124.9087 C   0  0  0  0  0
   99.1282  106.9867  125.2347 C   0  0  0  0  0
   99.4398  108.1545  124.5079 C   0  0  0  0  0
  100.7039  108.8644  124.7929 C   0  0  0  0  0
  100.9673  109.3542  126.0800 C   0  0  0  0  0
  102.1701  110.0124  126.3505 C   0  0  0  0  0
  103.1186  110.1804  125.3380 C   0  0  0  0  0
  102.8652  109.6885  124.0547 C   0  0  0  0  0
  101.6630  109.0296  123.7830 C   0  0  0  0  0
   98.7586  109.7335  122.7131 O   0  0  0  0  0
   95.9599  104.5815  123.9481 O   0  0  0  0  0
   99.9498  106.5483  126.2675 O   0  0  0  0  0
  102.4892  110.6246  127.9583 Cl  0  0  0  0  0
  104.0536  109.8964  122.7874 Cl  0  0  0  0  0
  1 21  1  0  0  0
  2 21  1  0  0  0
  3  4  1  0  0  0
  4  5  1  0  0  0
  5  6  1  0  0  0
  7  8  1  0  0  0
  9 10  1  0  0  0
 11  6  1  0  0  0
 12 13  1  0  0  0
 13 23  1  0  0  0
 14 15  1  0  0  0
 14  2  1  0  0  0
 16 17  1  0  0  0
 17 24  1  0  0  0
 18 19  1  0  0  0
 19 25  1  0  0  0
 20 15  1  0  0  0
  2  3  2  0  0  0
  4 12  2  0  0  0
  5 22  2  0  0  0
  6  7  2  0  0  0
  8  9  2  0  0  0
 10 11  2  0  0  0
 13 14  2  0  0  0
 15 16  2  0  0  0
 17 18  2  0  0  0
 19 20  2  0  0  0
M  END
> <rmsd>
0.771709263

$$$$
CHEMBL406924_5ZTY


 28 31  0  0  0  0  0  0  0  0999 V2000
   98.0870  107.1620  123.2814 C   0  0  0  0  0
   98.9146  107.4022  124.4995 C   0  0  0  0  0
   99.2116  106.5042  125.5155 C   0  0  0  0  0
   98.8151  105.0895  125.6033 C   0  0  0  0  0
   97.6521  103.0836  124.5759 C   0  0  0  0  0
   96.5106  102.8508  123.5735 C   0  0  0  0  0
   96.9623  102.2215  122.2504 C   0  0  0  0  0
   98.3242  102.7630  121.8315 C   0  0  0  0  0
   99.4092  102.4028  122.8541 C   0  0  0  0  0
   98.8692  102.1986  124.2781 C   0  0  0  0  0
  100.8864  109.3177  126.8553 C   0  0  0  0  0
  100.4584  109.6547  128.1457 C   0  0  0  0  0
  101.1916  110.5567  128.9204 C   0  0  0  0  0
  102.3634  111.1215  128.4125 C   0  0  0  0  0
  102.8107  110.7739  127.1357 C   0  0  0  0  0
  102.0821  109.8719  126.3543 C   0  0  0  0  0
   99.5005  108.5899  124.9017 C   0  0  0  0  0
   99.5381  111.0706  124.7883 C   0  0  0  0  0
   99.3550  112.0441  123.8268 C   0  0  0  0  0
   99.0908  111.3836  122.6390 C   0  0  0  0  0
   99.1231  110.0324  122.9217 C   0  0  0  0  0
   99.1728  104.4058  126.6003 O   0  0  0  0  0
   98.0291  104.4911  124.5694 N   0  0  0  0  0
   99.9420  107.1255  126.4648 N   0  0  0  0  0
  100.1199  108.3825  126.0874 N   0  0  0  0  0
   99.4006  109.8575  124.2254 N   0  0  0  0  0
  103.2808  112.2531  129.3822 Cl  0  0  0  0  0
  102.7176  109.4243  124.7792 Cl  0  0  0  0  0
  1  2  1  0  0  0
  2  3  1  0  0  0
  3  4  1  0  0  0
  4 23  1  0  0  0
  5 23  1  0  0  0
  5  6  1  0  0  0
  6  7  1  0  0  0
  7  8  1  0  0  0
  8  9  1  0  0  0
  9 10  1  0  0  0
 10  5  1  0  0  0
 12 13  1  0  0  0
 14 27  1  0  0  0
 14 15  1  0  0  0
 16 28  1  0  0  0
 16 11  1  0  0  0
 17 26  1  0  0  0
 19 20  1  0  0  0
 21 26  1  0  0  0
 25 24  1  0  0  0
 25 11  1  0  0  0
 25 17  1  0  0  0
 26 18  1  0  0  0
  3 24  2  0  0  0
  4 22  2  0  0  0
 11 12  2  0  0  0
 13 14  2  0  0  0
 15 16  2  0  0  0
 17  2  2  0  0  0
 18 19  2  0  0  0
 20 21  2  0  0  0
M  END
> <rmsd>
0.492371589

$$$$
CHEMBL3650111_5ZTY


 33 34  0  0  0  0  0  0  0  0999 V2000
   98.6167  111.1878  125.5266 C   0  0  0  0  0
   98.8953  110.4884  124.2134 C   0  0  0  0  0
  100.1402  111.0999  123.5936 C   0  0  0  0  0
   97.7055  110.7005  123.2928 C   0  0  0  0  0
   98.5475  107.3653  122.8259 C   0  0  0  0  0
   98.2781  107.3082  121.4548 C   0  0  0  0  0
   97.4185  106.3397  120.9360 C   0  0  0  0  0
   96.8205  105.4004  121.7824 C   0  0  0  0  0
   95.8421  104.4013  121.2365 C   0  0  0  0  0
   97.0998  105.4402  123.1535 C   0  0  0  0  0
   97.9769  106.3946  123.6887 C   0  0  0  0  0
   98.3291  106.2820  125.1173 C   0  0  0  0  0
  100.1348  106.5877  126.7597 C   0  0  0  0  0
  100.6292  106.5998  129.1288 C   0  0  0  0  0
  100.6910  106.4566  130.6255 C   0  0  0  0  0
  101.9153  107.1574  131.1883 C   0  0  0  0  0
   99.4587  107.0658  131.2688 C   0  0  0  0  0
  100.7612  104.9866  130.9878 C   0  0  0  0  0
  102.4431  107.1744  126.0477 C   0  0  0  0  0
  102.4339  108.6593  125.7210 C   0  0  0  0  0
  103.0486  109.4530  126.8597 C   0  0  0  0  0
  103.0023  110.9357  126.5464 C   0  0  0  0  0
   99.0984  109.0648  124.4740 N   0  0  0  0  0
   99.6739  106.5593  125.5415 N   0  0  0  0  0
  101.7062  106.8647  128.3502 N   0  0  0  0  0
  101.4282  106.8656  127.0474 N   0  0  0  0  0
   99.3516  108.4155  123.2802 O   0  0  0  0  0
   97.4612  105.8743  125.9366 O   0  0  0  0  0
   96.1602  104.0782  119.9285 F   0  0  0  0  0
   94.5704  104.9421  121.2715 F   0  0  0  0  0
   95.8615  103.2426  121.9937 F   0  0  0  0  0
  101.6962  111.3872  126.5900 F   0  0  0  0  0
   99.2577  106.3167  128.1776 S   0  0  0  0  0
  1  2  1  0  0  0
  2  3  1  0  0  0
  2  4  1  0  0  0
  2 23  1  0  0  0
  5 27  1  0  0  0
  6  7  1  0  0  0
  8 10  1  0  0  0
  9  8  1  0  0  0
  9 29  1  0  0  0
  9 30  1  0  0  0
  9 31  1  0  0  0
 11 12  1  0  0  0
 11  5  1  0  0  0
 12 24  1  0  0  0
 13 33  1  0  0  0
 14 33  1  0  0  0
 15 14  1  0  0  0
 15 16  1  0  0  0
 15 17  1  0  0  0
 15 18  1  0  0  0
 19 26  1  0  0  0
 19 20  1  0  0  0
 20 21  1  0  0  0
 21 22  1  0  0  0
 22 32  1  0  0  0
 23 27  1  0  0  0
 26 25  1  0  0  0
 26 13  1  0  0  0
  5  6  2  0  0  0
  7  8  2  0  0  0
 10 11  2  0  0  0
 12 28  2  0  0  0
 13 24  2  0  0  0
 14 25  2  0  0  0
M  END
> <rmsd>
0.815905809

$$$$
CHEMBL502263_8GUT


 29 32  0  0  0  0  0  0  0  0999 V2000
   96.8383  108.0327  123.5037 O   0  0  0  0  0
   99.4388  106.1078  125.7644 O   0  0  0  0  0
   97.8904  107.6698  122.9163 C   0  0  0  0  0
   98.2448  106.2164  122.8768 C   0  0  0  0  0
   99.6969  105.9759  123.2992 C   0  0  0  0  0
   99.9736  106.5407  124.6528 C   0  0  0  0  0
  100.6509  107.7738  126.1955 C   0  0  0  0  0
  101.2868  108.8688  126.9694 C   0  0  0  0  0
  101.0361  108.9234  128.3489 C   0  0  0  0  0
  101.5813  109.9342  129.1424 C   0  0  0  0  0
  102.3871  110.9104  128.5648 C   0  0  0  0  0
  102.6506  110.8739  127.1961 C   0  0  0  0  0
  102.1110  109.8664  126.3907 C   0  0  0  0  0
   99.0187  109.9258  122.8685 C   0  0  0  0  0
   99.4768  111.8438  124.2355 C   0  0  0  0  0
  100.5241  113.9899  124.9838 C   0  0  0  0  0
  101.4844  114.2137  126.1501 C   0  0  0  0  0
  100.8231  114.0586  127.5283 C   0  0  0  0  0
   99.3088  113.8810  127.4561 C   0  0  0  0  0
   98.9658  112.7174  126.5339 C   0  0  0  0  0
  100.7688  107.6049  124.8628 N   0  0  0  0  0
   99.8365  106.8512  126.7507 N   0  0  0  0  0
   98.7550  108.6347  122.3090 N   0  0  0  0  0
   99.8173  110.8296  122.2632 N   0  0  0  0  0
  100.0662  111.8985  123.0191 N   0  0  0  0  0
   99.6575  112.8424  125.2471 N   0  0  0  0  0
  102.9163  111.8933  129.3319 F   0  0  0  0  0
  102.5199  109.9163  124.6805 Cl  0  0  0  0  0
   98.5967  110.4182  124.4292 S   0  0  0  0  0
  3 23  1  0  0  0
  4  3  1  0  0  0
  4  5  1  0  0  0
  5  6  1  0  0  0
  6  2  1  0  0  0
  7 21  1  0  0  0
  7  8  1  0  0  0
  9 10  1  0  0  0
 11 27  1  0  0  0
 11 12  1  0  0  0
 13 28  1  0  0  0
 13  8  1  0  0  0
 14 29  1  0  0  0
 15 26  1  0  0  0
 15 29  1  0  0  0
 16 26  1  0  0  0
 16 17  1  0  0  0
 17 18  1  0  0  0
 18 19  1  0  0  0
 19 20  1  0  0  0
 20 26  1  0  0  0
 22  2  1  0  0  0
 23 14  1  0  0  0
 24 25  1  0  0  0
  3  1  2  0  0  0
  6 21  2  0  0  0
  7 22  2  0  0  0
  8  9  2  0  0  0
 10 11  2  0  0  0
 12 13  2  0  0  0
 14 24  2  0  0  0
 15 25  2  0  0  0
M  END
> <rmsd>
0.80204922

$$$$
CHEMBL3353823_6PT0


 25 28  0  0  0  0  0  0  0  0999 V2000
   99.2383  111.1857  122.6278 C   0  0  0  0  0
   98.1721  111.2992  123.5189 C   0  0  0  0  0
   98.1392  110.5118  124.6710 C   0  0  0  0  0
   99.1676  109.5967  124.9502 C   0  0  0  0  0
  100.2571  109.4988  124.0480 C   0  0  0  0  0
  100.2764  110.2922  122.8939 C   0  0  0  0  0
  101.4328  108.6097  124.3062 C   0  0  0  0  0
  102.2615  109.8582  126.4748 C   0  0  0  0  0
  101.9397  109.1671  128.6765 C   0  0  0  0  0
  101.2370  110.3069  128.9249 C   0  0  0  0  0
  100.8327  110.2525  130.2296 C   0  0  0  0  0
  101.3327  109.0488  130.7004 C   0  0  0  0  0
  101.1120  108.6449  132.0157 C   0  0  0  0  0
  100.3658  109.4968  132.8505 C   0  0  0  0  0
   99.8576  110.7210  132.3644 C   0  0  0  0  0
  100.0877  111.1152  131.0352 C   0  0  0  0  0
  102.8920  109.5741  124.8261 S   0  0  0  0  0
  102.4620  108.9237  127.4524 N   0  0  0  0  0
  102.0216  108.3580  129.7560 N   0  0  0  0  0
  101.0430  111.2353  127.9634 N   0  0  0  0  0
  101.5568  111.0045  126.7485 N   0  0  0  0  0
   99.0812  108.7944  126.1434 N   0  0  0  0  0
   99.3893  112.7725  130.3916 Br  0  0  0  0  0
   98.3060  109.1272  127.0641 O   0  0  0  0  0
   99.7453  107.5938  126.2440 O   0  0  0  0  0
  2  3  1  0  0  0
  4  5  1  0  0  0
  4 22  1  0  0  0
  6  1  1  0  0  0
  7  5  1  0  0  0
  7 17  1  0  0  0
  8 17  1  0  0  0
  8 21  1  0  0  0
  9 18  1  0  0  0
 10 11  1  0  0  0
 10 20  1  0  0  0
 12 19  1  0  0  0
 12 13  1  0  0  0
 14 15  1  0  0  0
 16 23  1  0  0  0
 16 11  1  0  0  0
 19  9  1  0  0  0
 22 25  1  0  0  0
  1  2  2  0  0  0
  3  4  2  0  0  0
  5  6  2  0  0  0
  8 18  2  0  0  0
  9 10  2  0  0  0
 11 12  2  0  0  0
 13 14  2  0  0  0
 15 16  2  0  0  0
 20 21  2  0  0  0
 22 24  2  0  0  0
M  CHG  2  22   1  25  -1
M  END
> <rmsd>
0.612500191

$$$$
CHEMBL256962_6PT0


 29 32  0  0  0  0  0  0  0  0999 V2000
  103.3335  110.7215  124.9814 C   0  0  0  0  0
  103.0306  109.8416  126.1865 C   0  0  0  0  0
  103.5408  108.4350  125.8807 C   0  0  0  0  0
  103.7013  110.3580  127.4808 C   0  0  0  0  0
  103.3868  111.8520  127.6556 C   0  0  0  0  0
  101.8934  111.8688  127.9896 C   0  0  0  0  0
  101.5399  110.3900  127.9888 C   0  0  0  0  0
  100.2946  110.0854  128.8041 C   0  0  0  0  0
  102.7937  109.7738  128.5339 C   0  0  0  0  0
  101.5207  109.9051  126.5327 C   0  0  0  0  0
   99.7149  108.3304  125.5844 C   0  0  0  0  0
   99.1309  109.3147  124.6378 C   0  0  0  0  0
   99.7954  110.4983  124.2934 C   0  0  0  0  0
   99.2292  111.3966  123.3876 C   0  0  0  0  0
   97.9887  111.1260  122.8055 C   0  0  0  0  0
   97.3093  109.9366  123.1353 C   0  0  0  0  0
   94.5721  109.1022  120.1542 C   0  0  0  0  0
   94.6695  108.7009  118.6731 C   0  0  0  0  0
   96.8074  108.0076  118.8899 C   0  0  0  0  0
   96.8436  108.3587  120.3864 C   0  0  0  0  0
   97.8895  109.0442  124.0444 C   0  0  0  0  0
  100.8578  108.6073  126.4067 N   0  0  0  0  0
   95.8933  109.4315  120.6994 N   0  0  0  0  0
   99.1835  107.1919  125.6792 O   0  0  0  0  0
   94.7473  110.5868  122.7970 O   0  0  0  0  0
   95.2771  108.2053  122.9684 O   0  0  0  0  0
   95.9743  108.8941  118.1816 O   0  0  0  0  0
   97.2850  112.4107  121.5719 Br  0  0  0  0  0
   95.7478  109.5278  122.4257 S   0  0  0  0  0
  1  2  1  0  0  0
  2  3  1  0  0  0
  4  2  1  0  0  0
  4  5  1  0  0  0
  5  6  1  0  0  0
  6  7  1  0  0  0
  7  8  1  0  0  0
  7  9  1  0  0  0
  7 10  1  0  0  0
  9  4  1  0  0  0
 10 22  1  0  0  0
 10  2  1  0  0  0
 11 12  1  0  0  0
 13 14  1  0  0  0
 15 28  1  0  0  0
 15 16  1  0  0  0
 17 23  1  0  0  0
 17 18  1  0  0  0
 18 27  1  0  0  0
 19 27  1  0  0  0
 19 20  1  0  0  0
 20 23  1  0  0  0
 21 12  1  0  0  0
 22 11  1  0  0  0
 29 16  1  0  0  0
 29 23  1  0  0  0
 11 24  2  0  0  0
 12 13  2  0  0  0
 14 15  2  0  0  0
 16 21  2  0  0  0
 29 25  2  0  0  0
 29 26  2  0  0  0
M  END
> <rmsd>
0.826786518

$$$$
CHEMBL3590631_8GUT


 23 24  0  0  0  0  0  0  0  0999 V2000
   98.3729  110.9345  123.3118 C   0  0  0  0  0
   99.5997  110.4146  124.0299 C   0  0  0  0  0
   99.6331  108.9011  123.9422 C   0  0  0  0  0
  100.8479  108.3552  124.6793 C   0  0  0  0  0
   99.7080  107.6908  126.7845 C   0  0  0  0  0
   99.2187  108.0498  128.1270 C   0  0  0  0  0
   98.2626  107.2977  128.6923 C   0  0  0  0  0
   96.6968  106.6975  130.5353 C   0  0  0  0  0
   96.2992  107.1789  131.9186 C   0  0  0  0  0
   97.4042  106.8803  132.9139 C   0  0  0  0  0
   95.0348  106.4678  132.3516 C   0  0  0  0  0
   99.8157  109.2354  128.7802 C   0  0  0  0  0
  100.9698  109.9089  128.1539 C   0  0  0  0  0
  101.6210  110.9290  128.8596 C   0  0  0  0  0
  102.7415  111.5580  128.3288 C   0  0  0  0  0
  103.2335  111.1623  127.0899 C   0  0  0  0  0
  102.6038  110.1521  126.3591 C   0  0  0  0  0
  103.2613  109.7625  125.0792 C   0  0  0  0  0
  101.4319  109.5206  126.8704 C   0  0  0  0  0
  100.6955  108.5095  126.1273 N   0  0  0  0  0
   97.7282  107.5591  129.9871 N   0  0  0  0  0
   99.2454  106.6716  126.1986 O   0  0  0  0  0
   99.3600  109.6706  129.8737 O   0  0  0  0  0
  1  2  1  0  0  0
  2  3  1  0  0  0
  3  4  1  0  0  0
  4 20  1  0  0  0
  5  6  1  0  0  0
  6 12  1  0  0  0
  7 21  1  0  0  0
  8 21  1  0  0  0
  8  9  1  0  0  0
  9 10  1  0  0  0
  9 11  1  0  0  0
 12 13  1  0  0  0
 14 15  1  0  0  0
 16 17  1  0  0  0
 18 17  1  0  0  0
 19 20  1  0  0  0
 19 13  1  0  0  0
 20  5  1  0  0  0
  5 22  2  0  0  0
  6  7  2  0  0  0
 12 23  2  0  0  0
 13 14  2  0  0  0
 15 16  2  0  0  0
 17 19  2  0  0  0
M  END
> <rmsd>
0.622736871

$$$$
CHEMBL3899824_8GUQ


 27 29  0  0  0  0  0  0  0  0999 V2000
   99.8162  112.4367  121.4134 C   0  0  0  0  0
   99.7581  111.8487  122.7776 C   0  0  0  0  0
  100.1009  110.6625  124.4601 C   0  0  0  0  0
  100.5583  109.5503  125.3718 C   0  0  0  0  0
  101.9291  109.0461  124.8942 C   0  0  0  0  0
  100.5510  110.0668  126.8393 C   0  0  0  0  0
  101.7384  109.6225  127.6820 C   0  0  0  0  0
  101.6960  111.0288  127.1188 C   0  0  0  0  0
   99.6605  107.1972  125.9177 C   0  0  0  0  0
   98.5943  106.2026  125.7273 C   0  0  0  0  0
   97.7005  104.0566  126.2074 C   0  0  0  0  0
   96.5922  104.2931  125.3898 C   0  0  0  0  0
   96.4882  105.5391  124.7187 C   0  0  0  0  0
   97.5032  106.4824  124.8996 C   0  0  0  0  0
   94.2763  105.1342  123.5965 C   0  0  0  0  0
   93.3657  105.8725  122.6324 C   0  0  0  0  0
  100.4989  110.7983  123.1748 N   0  0  0  0  0
   99.1533  111.5626  124.7982 N   0  0  0  0  0
   99.5868  108.4646  125.2486 N   0  0  0  0  0
   98.6647  105.0009  126.3590 N   0  0  0  0  0
   98.9775  112.2832  123.7333 O   0  0  0  0  0
  100.6382  106.9277  126.6663 O   0  0  0  0  0
   95.4331  105.9113  123.8710 O   0  0  0  0  0
   94.0336  106.1099  121.4454 F   0  0  0  0  0
   92.9705  107.0750  123.1885 F   0  0  0  0  0
   92.2493  105.0991  122.3796 F   0  0  0  0  0
   95.4205  102.9888  125.2643 Cl  0  0  0  0  0
  1  2  1  0  0  0
  2 21  1  0  0  0
  3 17  1  0  0  0
  4  3  1  0  0  0
  4  5  1  0  0  0
  4  6  1  0  0  0
  4 19  1  0  0  0
  6  7  1  0  0  0
  7  8  1  0  0  0
  8  6  1  0  0  0
  9 10  1  0  0  0
 11 20  1  0  0  0
 12 13  1  0  0  0
 12 27  1  0  0  0
 13 23  1  0  0  0
 14 10  1  0  0  0
 15 23  1  0  0  0
 15 16  1  0  0  0
 16 24  1  0  0  0
 16 25  1  0  0  0
 16 26  1  0  0  0
 18 21  1  0  0  0
 19  9  1  0  0  0
  2 17  2  0  0  0
  3 18  2  0  0  0
  9 22  2  0  0  0
 10 20  2  0  0  0
 11 12  2  0  0  0
 13 14  2  0  0  0
M  END
> <rmsd>
0.836717188

$$$$
CHEMBL204387_8GUS


 31 33  0  0  0  0  0  0  0  0999 V2000
   99.1283  108.5063  122.9836 C   0  0  0  0  0
   99.0775  109.8131  123.4623 C   0  0  0  0  0
   99.3003  110.0592  124.8331 C   0  0  0  0  0
   99.5829  107.7214  125.2191 C   0  0  0  0  0
   99.3870  107.4384  123.8507 C   0  0  0  0  0
   99.4325  106.0641  123.3014 C   0  0  0  0  0
   99.1887  104.5285  121.2956 C   0  0  0  0  0
   97.9000  103.8102  121.6792 C   0  0  0  0  0
   96.7046  104.4842  121.0912 C   0  0  0  0  0
   95.7671  105.0884  121.9358 C   0  0  0  0  0
   94.6409  105.7176  121.3968 C   0  0  0  0  0
   94.4483  105.7404  120.0120 C   0  0  0  0  0
   95.3806  105.1319  119.1660 C   0  0  0  0  0
   96.5071  104.5027  119.7044 C   0  0  0  0  0
   99.2569  111.3873  125.3238 C   0  0  0  0  0
   98.9507  112.4371  124.4407 C   0  0  0  0  0
   98.7271  112.1686  123.0810 C   0  0  0  0  0
   98.7947  110.8647  122.5938 C   0  0  0  0  0
   98.5880  114.8657  124.1154 C   0  0  0  0  0
  100.2728  110.9273  127.5674 C   0  0  0  0  0
  101.7384  111.3383  127.5046 C   0  0  0  0  0
  102.3904  110.8889  126.2070 C   0  0  0  0  0
  102.6968  109.4044  126.2563 C   0  0  0  0  0
  103.2442  108.9583  124.9173 C   0  0  0  0  0
   99.5314  109.0061  125.6631 N   0  0  0  0  0
   99.2368  105.8542  121.8988 N   0  0  0  0  0
   99.6406  105.0758  124.0568 O   0  0  0  0  0
   93.3308  106.3660  119.4773 O   0  0  0  0  0
   99.8328  106.7062  126.1348 O   0  0  0  0  0
   98.8853  113.7444  124.9362 O   0  0  0  0  0
   99.4967  111.7139  126.6692 O   0  0  0  0  0
  2  3  1  0  0  0
  3 15  1  0  0  0
  4 25  1  0  0  0
  4 29  1  0  0  0
  5  6  1  0  0  0
  5  1  1  0  0  0
  6 26  1  0  0  0
  7 26  1  0  0  0
  7  8  1  0  0  0
  8  9  1  0  0  0
 10 11  1  0  0  0
 12 13  1  0  0  0
 12 28  1  0  0  0
 14  9  1  0  0  0
 15 31  1  0  0  0
 16 17  1  0  0  0
 16 30  1  0  0  0
 18  2  1  0  0  0
 19 30  1  0  0  0
 20 31  1  0  0  0
 20 21  1  0  0  0
 21 22  1  0  0  0
 22 23  1  0  0  0
 23 24  1  0  0  0
  1  2  2  0  0  0
  3 25  2  0  0  0
  4  5  2  0  0  0
  6 27  2  0  0  0
  9 10  2  0  0  0
 11 12  2  0  0  0
 13 14  2  0  0  0
 15 16  2  0  0  0
 17 18  2  0  0  0
M  END
> <rmsd>
0.36533469

$$$$
CHEMBL3978407_8GUQ


 31 34  0  0  0  0  0  0  0  0999 V2000
   90.8041  110.9332  122.4056 C   0  0  0  0  0
   92.2418  111.3036  122.4825 C   0  0  0  0  0
   94.2304  111.7052  122.0005 C   0  0  0  0  0
   95.5178  111.9595  121.2334 C   0  0  0  0  0
   95.5821  111.0301  120.0279 C   0  0  0  0  0
   95.6676  113.4021  120.6904 C   0  0  0  0  0
   95.2447  114.4607  121.6954 C   0  0  0  0  0
   94.3566  114.1506  120.5043 C   0  0  0  0  0
   96.9600  110.4324  122.7248 C   0  0  0  0  0
   98.1489  110.3062  123.5808 C   0  0  0  0  0
  100.0746  111.3034  124.5514 C   0  0  0  0  0
  100.4089  110.1098  125.2083 C   0  0  0  0  0
   99.5866  108.9834  125.0178 C   0  0  0  0  0
   98.4497  109.0918  124.2048 C   0  0  0  0  0
   99.1917  106.5621  125.4251 C   0  0  0  0  0
   99.7959  105.7788  124.2691 C   0  0  0  0  0
  101.6552  110.0197  126.0592 C   0  0  0  0  0
  101.3565  109.7519  127.5217 C   0  0  0  0  0
  101.9984  111.0762  127.8927 C   0  0  0  0  0
  102.2912  111.3493  126.4290 C   0  0  0  0  0
   93.0691  111.3257  121.4217 N   0  0  0  0  0
   94.0970  111.9183  123.3264 N   0  0  0  0  0
   96.6709  111.6886  122.0945 N   0  0  0  0  0
   98.9677  111.3760  123.7667 N   0  0  0  0  0
   92.8537  111.6517  123.5854 O   0  0  0  0  0
   96.1994  109.4416  122.5483 O   0  0  0  0  0
   99.9095  107.7727  125.6451 O   0  0  0  0  0
   99.1053  104.5921  124.1172 F   0  0  0  0  0
  101.1234  105.5004  124.5366 F   0  0  0  0  0
   99.7057  106.5081  123.0982 F   0  0  0  0  0
  102.5873  109.1322  125.5513 F   0  0  0  0  0
  1  2  1  0  0  0
  2 25  1  0  0  0
  3 21  1  0  0  0
  4  3  1  0  0  0
  4  5  1  0  0  0
  4  6  1  0  0  0
  4 23  1  0  0  0
  6  7  1  0  0  0
  7  8  1  0  0  0
  8  6  1  0  0  0
  9 10  1  0  0  0
 11 24  1  0  0  0
 12 13  1  0  0  0
 13 27  1  0  0  0
 14 10  1  0  0  0
 15 27  1  0  0  0
 15 16  1  0  0  0
 16 28  1  0  0  0
 16 29  1  0  0  0
 16 30  1  0  0  0
 17 12  1  0  0  0
 17 18  1  0  0  0
 17 31  1  0  0  0
 18 19  1  0  0  0
 19 20  1  0  0  0
 20 17  1  0  0  0
 22 25  1  0  0  0
 23  9  1  0  0  0
  2 21  2  0  0  0
  3 22  2  0  0  0
  9 26  2  0  0  0
 10 24  2  0  0  0
 11 12  2  0  0  0
 13 14  2  0  0  0
M  END
> <rmsd>
0.604126692

$$$$
CHEMBL3354958_8GUQ


 26 30  0  0  0  0  0  0  0  0999 V2000
  100.3780  108.4983  125.8498 N   0  0  0  0  0
   99.6215  107.4773  126.2360 N   0  0  0  0  0
   96.8900  105.9269  124.1548 N   0  0  0  0  0
   98.8289  107.1359  125.1954 C   0  0  0  0  0
   99.1208  107.9584  124.1236 C   0  0  0  0  0
  100.0742  108.7974  124.5690 C   0  0  0  0  0
  100.0418  110.1325  123.9184 C   0  0  0  0  0
   98.8626  110.0021  122.9365 C   0  0  0  0  0
   98.2278  108.6063  123.1415 C   0  0  0  0  0
   98.7301  110.8507  124.1912 C   0  0  0  0  0
   97.7247  106.1728  125.2897 C   0  0  0  0  0
   95.8034  104.9569  124.1682 C   0  0  0  0  0
   94.8752  105.2159  122.9747 C   0  0  0  0  0
   95.3493  104.5079  121.6954 C   0  0  0  0  0
   96.6686  103.0248  122.7361 C   0  0  0  0  0
   96.3717  103.5290  124.1572 C   0  0  0  0  0
  101.2137  109.2486  126.7476 C   0  0  0  0  0
  100.9018  109.2780  128.1152 C   0  0  0  0  0
  101.6976  109.9957  129.0113 C   0  0  0  0  0
  102.8192  110.6866  128.5493 C   0  0  0  0  0
  103.1527  110.6487  127.1938 C   0  0  0  0  0
  102.3591  109.9332  126.2919 C   0  0  0  0  0
   97.5185  105.5632  126.3737 O   0  0  0  0  0
   96.6838  104.0828  121.8112 O   0  0  0  0  0
  102.7398  109.8741  124.9922 F   0  0  0  0  0
  103.5909  111.3830  129.4175 F   0  0  0  0  0
  1  2  1  0  0  0
  1 17  1  0  0  0
  4  5  1  0  0  0
  4 11  1  0  0  0
  6  1  1  0  0  0
  7  6  1  0  0  0
  7  8  1  0  0  0
  8  9  1  0  0  0
  8 10  1  0  0  0
  9  5  1  0  0  0
 10  7  1  0  0  0
 11  3  1  0  0  0
 12  3  1  0  0  0
 12 13  1  0  0  0
 13 14  1  0  0  0
 14 24  1  0  0  0
 15 24  1  0  0  0
 15 16  1  0  0  0
 16 12  1  0  0  0
 18 19  1  0  0  0
 20 21  1  0  0  0
 20 26  1  0  0  0
 22 25  1  0  0  0
 22 17  1  0  0  0
  4  2  2  0  0  0
  5  6  2  0  0  0
 11 23  2  0  0  0
 17 18  2  0  0  0
 19 20  2  0  0  0
 21 22  2  0  0  0
M  END
> <rmsd>
0.655502439

$$$$
CHEMBL3647332_8GUR


 34 37  0  0  0  0  0  0  0  0999 V2000
  103.2141  109.5154  125.0792 C   0  0  0  0  0
  103.0464  110.3067  126.3624 C   0  0  0  0  0
  102.3403  109.4675  127.4108 C   0  0  0  0  0
  100.8479  109.4111  127.1257 C   0  0  0  0  0
   99.6530  107.3165  127.7313 C   0  0  0  0  0
   99.1972  105.6014  126.0219 C   0  0  0  0  0
   99.2235  105.3025  124.5692 C   0  0  0  0  0
   98.9861  103.9826  124.1546 C   0  0  0  0  0
   98.9911  103.6330  122.7992 C   0  0  0  0  0
   99.2698  104.6135  121.8424 C   0  0  0  0  0
   99.5014  105.9316  122.2338 C   0  0  0  0  0
   99.4747  106.2937  123.5907 C   0  0  0  0  0
   99.9007  108.6738  123.0341 C   0  0  0  0  0
  100.0541  110.0084  123.7758 C   0  0  0  0  0
   98.7088  110.3996  124.3528 C   0  0  0  0  0
   98.1312  111.4024  123.3754 C   0  0  0  0  0
   99.2229  111.6515  122.3526 C   0  0  0  0  0
  101.3424  110.7297  121.8246 C   0  0  0  0  0
   98.7909  102.2040  122.3860 C   0  0  0  0  0
   99.3250  107.8116  130.1034 C   0  0  0  0  0
   99.0475  107.9380  131.4592 C   0  0  0  0  0
   99.4751  109.1141  132.0927 C   0  0  0  0  0
  100.4011  109.9556  130.0552 C   0  0  0  0  0
   99.9934  108.7947  129.3946 C   0  0  0  0  0
  100.1836  108.5201  128.0734 N   0  0  0  0  0
   99.6994  106.8556  126.5131 N   0  0  0  0  0
  100.4578  111.1285  122.9141 N   0  0  0  0  0
  100.1327  110.0842  131.3872 N   0  0  0  0  0
   98.7592  104.7287  126.8208 O   0  0  0  0  0
   99.6838  107.6248  123.9693 O   0  0  0  0  0
   98.2447  102.1391  121.1157 F   0  0  0  0  0
  100.0108  101.5534  122.3865 F   0  0  0  0  0
   97.9368  101.5630  123.2664 F   0  0  0  0  0
   98.9379  106.5462  129.0694 S   0  0  0  0  0
  1  2  1  0  0  0
  2  3  1  0  0  0
  3  4  1  0  0  0
  4 25  1  0  0  0
  5 34  1  0  0  0
  6 26  1  0  0  0
  6  7  1  0  0  0
  8  9  1  0  0  0
 10 11  1  0  0  0
 12 30  1  0  0  0
 12  7  1  0  0  0
 13 30  1  0  0  0
 14 13  1  0  0  0
 14 15  1  0  0  0
 14 27  1  0  0  0
 15 16  1  0  0  0
 16 17  1  0  0  0
 17 27  1  0  0  0
 18 27  1  0  0  0
 19  9  1  0  0  0
 19 31  1  0  0  0
 19 32  1  0  0  0
 19 33  1  0  0  0
 20 34  1  0  0  0
 21 22  1  0  0  0
 23 28  1  0  0  0
 24 25  1  0  0  0
 24 20  1  0  0  0
 25  5  1  0  0  0
  5 26  2  0  0  0
  6 29  2  0  0  0
  7  8  2  0  0  0
  9 10  2  0  0  0
 11 12  2  0  0  0
 20 21  2  0  0  0
 22 28  2  0  0  0
 23 24  2  0  0  0
M  END
> <rmsd>
0.819874823

$$$$
CHEMBL3590633_8GUR


 24 25  0  0  0  0  0  0  0  0999 V2000
  103.8945  109.5401  125.2164 C   0  0  0  0  0
  102.9867  108.4408  124.6986 C   0  0  0  0  0
  102.4219  107.6286  125.8539 C   0  0  0  0  0
  101.3412  108.4031  126.6021 C   0  0  0  0  0
   99.3717  107.3999  125.4638 C   0  0  0  0  0
   98.4397  107.4047  124.3228 C   0  0  0  0  0
   97.7707  106.2812  124.0262 C   0  0  0  0  0
   96.1252  104.9549  122.6276 C   0  0  0  0  0
   95.2621  104.5412  123.8056 C   0  0  0  0  0
   95.2191  105.2005  121.4361 C   0  0  0  0  0
   97.1037  103.8279  122.3072 C   0  0  0  0  0
   98.2986  108.6634  123.5580 C   0  0  0  0  0
   98.9441  109.8938  124.0553 C   0  0  0  0  0
   98.6661  111.1096  123.4170 C   0  0  0  0  0
   99.2111  112.2998  123.8862 C   0  0  0  0  0
  100.0282  112.2893  125.0115 C   0  0  0  0  0
  100.3285  111.0926  125.6663 C   0  0  0  0  0
  101.1472  111.2092  126.9068 C   0  0  0  0  0
   99.8123  109.8580  125.1757 C   0  0  0  0  0
  100.1474  108.5746  125.7719 N   0  0  0  0  0
   96.8405  106.1866  122.9438 N   0  0  0  0  0
   99.5080  106.3556  126.1614 O   0  0  0  0  0
   97.9509  104.1864  121.2556 O   0  0  0  0  0
   97.6212  108.7024  122.4938 O   0  0  0  0  0
  1  2  1  0  0  0
  2  3  1  0  0  0
  3  4  1  0  0  0
  4 20  1  0  0  0
  5  6  1  0  0  0
  6 12  1  0  0  0
  7 21  1  0  0  0
  8 21  1  0  0  0
  8  9  1  0  0  0
  8 10  1  0  0  0
  8 11  1  0  0  0
 11 23  1  0  0  0
 12 13  1  0  0  0
 14 15  1  0  0  0
 16 17  1  0  0  0
 18 17  1  0  0  0
 19 20  1  0  0  0
 19 13  1  0  0  0
 20  5  1  0  0  0
  5 22  2  0  0  0
  6  7  2  0  0  0
 12 24  2  0  0  0
 13 14  2  0  0  0
 15 16  2  0  0  0
 17 19  2  0  0  0
M  END
> <rmsd>
0.843788743

$$$$
CHEMBL271824_5ZTY


 30 33  0  0  0  0  0  0  0  0999 V2000
  100.3229  107.7458  126.4048 N   0  0  0  0  0
   99.4502  107.0716  125.6680 N   0  0  0  0  0
  101.1456  110.0780  126.5488 N   0  0  0  0  0
   97.1911  108.5156  123.0204 N   0  0  0  0  0
   98.8302  107.9435  124.8442 C   0  0  0  0  0
   99.3251  109.2192  125.0680 C   0  0  0  0  0
  100.2674  109.0530  126.0598 C   0  0  0  0  0
  100.7940  111.1835  127.2295 C   0  0  0  0  0
  101.9003  111.9647  127.5055 C   0  0  0  0  0
  102.9867  111.3017  126.9476 C   0  0  0  0  0
  102.4774  110.1539  126.3706 C   0  0  0  0  0
  103.2921  109.1546  125.6218 C   0  0  0  0  0
   99.4039  111.5097  127.6579 C   0  0  0  0  0
   98.9903  110.4828  124.3505 C   0  0  0  0  0
   97.8021  107.5422  123.8711 C   0  0  0  0  0
   96.1330  108.1861  122.0728 C   0  0  0  0  0
   95.9447  109.3289  121.0723 C   0  0  0  0  0
   95.3706  110.5729  121.7502 C   0  0  0  0  0
   94.0470  110.2390  122.4302 C   0  0  0  0  0
   94.2549  109.1420  123.4688 C   0  0  0  0  0
   94.8191  107.8866  122.8042 C   0  0  0  0  0
  101.1277  107.1281  127.4255 C   0  0  0  0  0
  101.3061  105.7376  127.4280 C   0  0  0  0  0
  102.0688  105.1224  128.4238 C   0  0  0  0  0
  102.6583  105.8878  129.4335 C   0  0  0  0  0
  102.4761  107.2804  129.4474 C   0  0  0  0  0
  101.7103  107.8886  128.4498 C   0  0  0  0  0
   97.4627  106.3306  123.7907 O   0  0  0  0  0
  103.1889  108.2908  130.6934 Cl  0  0  0  0  0
  103.6107  105.0732  130.6632 Cl  0  0  0  0  0
  1  2  1  0  0  0
  1 22  1  0  0  0
  3  8  1  0  0  0
  5  6  1  0  0  0
  5 15  1  0  0  0
  7  3  1  0  0  0
  7  1  1  0  0  0
  9 10  1  0  0  0
 11  3  1  0  0  0
 12 11  1  0  0  0
 13  8  1  0  0  0
 14  6  1  0  0  0
 15  4  1  0  0  0
 16  4  1  0  0  0
 16 17  1  0  0  0
 17 18  1  0  0  0
 18 19  1  0  0  0
 19 20  1  0  0  0
 20 21  1  0  0  0
 21 16  1  0  0  0
 23 24  1  0  0  0
 25 26  1  0  0  0
 25 30  1  0  0  0
 26 29  1  0  0  0
 27 22  1  0  0  0
  5  2  2  0  0  0
  6  7  2  0  0  0
  8  9  2  0  0  0
 10 11  2  0  0  0
 15 28  2  0  0  0
 22 23  2  0  0  0
 24 25  2  0  0  0
 26 27  2  0  0  0
M  END
> <rmsd>
0.579555154

$$$$
CHEMBL239208_8GUR


 29 31  0  0  0  0  0  0  0  0999 V2000
   96.5845  108.8701  119.8460 C   0  0  0  0  0
   96.4151  110.3534  119.6554 C   0  0  0  0  0
   96.9173  110.1872  122.2045 C   0  0  0  0  0
   97.9457  110.1782  123.3292 C   0  0  0  0  0
   98.3918  108.9802  123.9104 C   0  0  0  0  0
   99.3347  108.9840  124.9404 C   0  0  0  0  0
   99.8557  110.1977  125.4153 C   0  0  0  0  0
   99.4154  111.4061  124.8406 C   0  0  0  0  0
   98.4724  111.3875  123.8112 C   0  0  0  0  0
  100.8799  110.1768  126.5192 C   0  0  0  0  0
  102.2326  110.7630  126.0772 C   0  0  0  0  0
  103.1468  110.9592  127.2823 C   0  0  0  0  0
  102.5111  111.9281  128.2764 C   0  0  0  0  0
  101.0745  111.5886  128.5817 C   0  0  0  0  0
  100.3349  110.8129  127.7750 C   0  0  0  0  0
  100.4333  112.1991  129.7784 C   0  0  0  0  0
  102.8999  109.9096  125.0347 C   0  0  0  0  0
  103.2457  108.6453  125.2834 C   0  0  0  0  0
  103.1482  110.4796  123.6814 C   0  0  0  0  0
   95.5858  110.7738  122.6990 C   0  0  0  0  0
   95.6428  112.2618  123.0291 C   0  0  0  0  0
   94.2638  112.7718  123.4163 C   0  0  0  0  0
   93.3501  112.8751  122.2002 C   0  0  0  0  0
   93.7588  114.0265  121.2938 C   0  0  0  0  0
   93.3656  115.3540  121.9136 C   0  0  0  0  0
   97.5611  111.1588  120.7901 S   0  0  0  0  0
   96.5384  108.4815  121.6219 S   0  0  0  0  0
   99.9083  112.6282  125.2833 O   0  0  0  0  0
   99.7492  107.7740  125.4850 O   0  0  0  0  0
  1  2  1  0  0  0
  1 27  1  0  0  0
  2 26  1  0  0  0
  3 26  1  0  0  0
  3 27  1  0  0  0
  3  4  1  0  0  0
  3 20  1  0  0  0
  5  6  1  0  0  0
  6 29  1  0  0  0
  7  8  1  0  0  0
  8 28  1  0  0  0
  9  4  1  0  0  0
 10  7  1  0  0  0
 10 11  1  0  0  0
 10 15  1  0  0  0
 11 12  1  0  0  0
 11 17  1  0  0  0
 12 13  1  0  0  0
 13 14  1  0  0  0
 16 14  1  0  0  0
 19 17  1  0  0  0
 20 21  1  0  0  0
 21 22  1  0  0  0
 22 23  1  0  0  0
 23 24  1  0  0  0
 24 25  1  0  0  0
  4  5  2  0  0  0
  6  7  2  0  0  0
  8  9  2  0  0  0
 14 15  2  0  0  0
 17 18  2  0  0  0
M  END
> <rmsd>
0.801196635

$$$$
CHEMBL496781_5ZTY


 32 35  0  0  0  0  0  0  0  0999 V2000
   94.6782  112.0234  123.3590 C   0  0  0  0  0
   94.4809  111.7147  121.8856 C   0  0  0  0  0
   95.7975  111.5539  121.2013 C   0  0  0  0  0
   96.6016  110.4141  121.4094 C   0  0  0  0  0
   96.8420  108.1693  122.6302 C   0  0  0  0  0
   96.2915  107.2733  123.6857 C   0  0  0  0  0
   98.1271  107.7070  125.5248 C   0  0  0  0  0
  100.2388  107.7815  125.4760 C   0  0  0  0  0
   99.0823  109.8482  124.6097 C   0  0  0  0  0
   98.0725  110.7500  124.9828 C   0  0  0  0  0
   98.0282  112.0338  124.4309 C   0  0  0  0  0
   98.9915  112.4281  123.4983 C   0  0  0  0  0
   99.9988  111.5383  123.1163 C   0  0  0  0  0
  100.0424  110.2548  123.6683 C   0  0  0  0  0
  101.6423  108.2104  125.3366 C   0  0  0  0  0
  102.1217  109.3848  125.9535 C   0  0  0  0  0
  101.6698  111.3655  127.3729 C   0  0  0  0  0
  103.4716  109.7436  125.7953 C   0  0  0  0  0
  104.3338  108.9410  125.0455 C   0  0  0  0  0
  103.8587  107.7707  124.4510 C   0  0  0  0  0
  102.5191  107.4056  124.5992 C   0  0  0  0  0
   97.8256  110.3077  120.7305 C   0  0  0  0  0
   98.2453  111.3157  119.8595 C   0  0  0  0  0
   97.4437  112.4382  119.6556 C   0  0  0  0  0
   96.2216  112.5561  120.3225 C   0  0  0  0  0
   96.1616  109.3913  122.3158 N   0  0  0  0  0
   98.5731  106.5194  125.9749 N   0  0  0  0  0
   99.8958  106.5642  125.9407 N   0  0  0  0  0
   99.1465  108.5340  125.1992 N   0  0  0  0  0
   97.9111  107.8478  122.0458 O   0  0  0  0  0
  101.2571  110.1675  126.7276 O   0  0  0  0  0
   96.3815  108.0706  125.3210 S   0  0  0  0  0
  1  2  1  0  0  0
  2  3  1  0  0  0
  4 26  1  0  0  0
  4 22  1  0  0  0
  6  5  1  0  0  0
  6 32  1  0  0  0
  7 32  1  0  0  0
  8 29  1  0  0  0
  8 15  1  0  0  0
 10 11  1  0  0  0
 12 13  1  0  0  0
 14  9  1  0  0  0
 16 31  1  0  0  0
 16 18  1  0  0  0
 17 31  1  0  0  0
 19 20  1  0  0  0
 21 15  1  0  0  0
 23 24  1  0  0  0
 25  3  1  0  0  0
 26  5  1  0  0  0
 27 28  1  0  0  0
 29  9  1  0  0  0
 29  7  1  0  0  0
  3  4  2  0  0  0
  5 30  2  0  0  0
  7 27  2  0  0  0
  8 28  2  0  0  0
  9 10  2  0  0  0
 11 12  2  0  0  0
 13 14  2  0  0  0
 15 16  2  0  0  0
 18 19  2  0  0  0
 20 21  2  0  0  0
 22 23  2  0  0  0
 24 25  2  0  0  0
M  END
> <rmsd>
0.633929789

$$$$
CHEMBL3985919_8GUQ


 29 31  0  0  0  0  0  0  0  0999 V2000
   95.4532  110.7719  120.0518 C   0  0  0  0  0
   95.6061  111.8530  121.1251 C   0  0  0  0  0
   95.8541  113.1708  120.3783 C   0  0  0  0  0
   96.0664  114.3530  121.2747 C   0  0  0  0  0
   94.3698  112.0104  122.0566 C   0  0  0  0  0
   93.0661  112.0948  121.2776 C   0  0  0  0  0
   93.4061  110.8323  122.0439 C   0  0  0  0  0
   96.9665  110.3703  122.7338 C   0  0  0  0  0
   98.1915  110.2179  123.5329 C   0  0  0  0  0
  100.2891  111.0864  124.2269 C   0  0  0  0  0
  100.5495  109.9536  125.0143 C   0  0  0  0  0
   99.5485  108.9495  125.0894 C   0  0  0  0  0
   98.3886  109.0826  124.3231 C   0  0  0  0  0
  100.1157  107.8319  127.2296 C   0  0  0  0  0
  100.1821  106.4233  127.7901 C   0  0  0  0  0
  101.8729  109.8603  125.7471 C   0  0  0  0  0
  103.0126  110.6307  125.0978 C   0  0  0  0  0
  103.7579  109.3314  124.8624 C   0  0  0  0  0
  102.6200  108.5603  125.5027 C   0  0  0  0  0
   95.2177  115.2814  121.2922 O   0  0  0  0  0
   96.0838  109.4696  122.7511 O   0  0  0  0  0
   99.6600  107.8035  125.8837 O   0  0  0  0  0
   97.2354  114.4494  122.0811 N   0  0  0  0  0
   96.7867  111.5462  121.9333 N   0  0  0  0  0
   99.1369  111.1938  123.5161 N   0  0  0  0  0
  100.6272  106.4750  129.0968 F   0  0  0  0  0
  101.0589  105.6617  127.0400 F   0  0  0  0  0
   98.9260  105.8465  127.7590 F   0  0  0  0  0
  101.7696  110.1683  127.0917 F   0  0  0  0  0
  2  1  1  0  0  0
  2  3  1  0  0  0
  2  5  1  0  0  0
  2 24  1  0  0  0
  3  4  1  0  0  0
  4 23  1  0  0  0
  5  6  1  0  0  0
  6  7  1  0  0  0
  7  5  1  0  0  0
  8  9  1  0  0  0
 10 25  1  0  0  0
 11 12  1  0  0  0
 12 22  1  0  0  0
 13  9  1  0  0  0
 14 22  1  0  0  0
 14 15  1  0  0  0
 15 26  1  0  0  0
 15 27  1  0  0  0
 15 28  1  0  0  0
 16 11  1  0  0  0
 16 17  1  0  0  0
 16 29  1  0  0  0
 17 18  1  0  0  0
 18 19  1  0  0  0
 19 16  1  0  0  0
 24  8  1  0  0  0
  4 20  2  0  0  0
  8 21  2  0  0  0
  9 25  2  0  0  0
 10 11  2  0  0  0
 12 13  2  0  0  0
M  END
> <rmsd>
0.652433455

$$$$
CHEMBL2206850_6PT0


 27 30  0  0  0  0  0  0  0  0999 V2000
   99.7167  111.9925  123.3347 C   0  0  0  0  0
   98.4222  112.1934  122.8099 C   0  0  0  0  0
   97.4203  111.2234  122.9888 C   0  0  0  0  0
   97.7560  110.0695  123.6987 C   0  0  0  0  0
   99.0125  109.8733  124.2083 C   0  0  0  0  0
  100.0251  110.8189  124.0444 C   0  0  0  0  0
   98.9993  108.6399  124.8411 C   0  0  0  0  0
   97.7099  108.1312  124.6817 C   0  0  0  0  0
   95.5776  108.8365  123.5900 C   0  0  0  0  0
   95.5136  108.1526  122.2344 C   0  0  0  0  0
   94.0699  107.9448  121.8142 C   0  0  0  0  0
   93.4524  106.7978  122.5919 C   0  0  0  0  0
   92.0128  106.6138  122.1613 C   0  0  0  0  0
  100.1002  107.9638  125.5580 C   0  0  0  0  0
  101.4351  108.5660  125.6541 C   0  0  0  0  0
  102.3622  108.1183  124.7050 C   0  0  0  0  0
  103.6318  108.6783  124.6169 C   0  0  0  0  0
  103.9926  109.7110  125.4732 C   0  0  0  0  0
  103.0959  110.1775  126.4341 C   0  0  0  0  0
  101.7972  109.6000  126.5709 C   0  0  0  0  0
  100.9586  110.0976  127.6165 C   0  0  0  0  0
  101.4055  111.1464  128.4262 C   0  0  0  0  0
  102.6631  111.7124  128.2482 C   0  0  0  0  0
  103.5077  111.2230  127.2600 C   0  0  0  0  0
   96.9647  109.0219  123.9875 N   0  0  0  0  0
   99.9124  106.8173  126.0465 O   0  0  0  0  0
   99.0607  109.3685  128.2311 I   0  0  0  0  0
  2  3  1  0  0  0
  4  5  1  0  0  0
  5  7  1  0  0  0
  6  1  1  0  0  0
  7 14  1  0  0  0
  8 25  1  0  0  0
  9 25  1  0  0  0
  9 10  1  0  0  0
 10 11  1  0  0  0
 11 12  1  0  0  0
 12 13  1  0  0  0
 14 15  1  0  0  0
 16 17  1  0  0  0
 18 19  1  0  0  0
 20 21  1  0  0  0
 20 15  1  0  0  0
 21 27  1  0  0  0
 22 23  1  0  0  0
 24 19  1  0  0  0
 25  4  1  0  0  0
  1  2  2  0  0  0
  3  4  2  0  0  0
  5  6  2  0  0  0
  7  8  2  0  0  0
 14 26  2  0  0  0
 15 16  2  0  0  0
 17 18  2  0  0  0
 19 20  2  0  0  0
 21 22  2  0  0  0
 23 24  2  0  0  0
M  END
> <rmsd>
0.446944803

$$$$
CHEMBL3354946_8GUQ


 29 34  0  0  0  0  0  0  0  0999 V2000
   93.9595  105.6627  125.2679 C   0  0  0  0  0
   95.3101  105.4168  124.6348 C   0  0  0  0  0
   94.9015  104.6172  125.8535 C   0  0  0  0  0
   97.6395  106.2217  125.2416 C   0  0  0  0  0
   98.5639  107.3412  125.4581 C   0  0  0  0  0
   99.4971  109.3031  125.3744 C   0  0  0  0  0
   98.3128  108.6798  125.2318 C   0  0  0  0  0
   97.4310  109.3564  124.2607 C   0  0  0  0  0
   98.3049  110.5147  123.7239 C   0  0  0  0  0
   99.6429  110.4869  124.4877 C   0  0  0  0  0
   98.5937  111.5402  124.8072 C   0  0  0  0  0
  101.8628  108.5992  125.7660 C   0  0  0  0  0
  102.7299  107.5529  125.4163 C   0  0  0  0  0
  104.1147  107.7238  125.4827 C   0  0  0  0  0
  104.6476  108.9424  125.9069 C   0  0  0  0  0
  103.7961  109.9852  126.2773 C   0  0  0  0  0
  102.4090  109.8205  126.2117 C   0  0  0  0  0
   95.3212  104.7268  123.3076 C   0  0  0  0  0
   94.6304  105.2802  122.2212 C   0  0  0  0  0
   94.6658  104.6525  120.9725 C   0  0  0  0  0
   95.3984  103.4739  120.8031 C   0  0  0  0  0
   96.0980  102.9242  121.8813 C   0  0  0  0  0
   96.0630  103.5513  123.1302 C   0  0  0  0  0
   96.2795  106.4760  124.8772 N   0  0  0  0  0
   99.8746  107.1919  125.7514 N   0  0  0  0  0
  100.4417  108.3921  125.6923 N   0  0  0  0  0
   98.0498  105.0380  125.3811 O   0  0  0  0  0
  101.6114  110.8350  126.6268 F   0  0  0  0  0
  105.9902  109.1089  125.9710 F   0  0  0  0  0
  1  2  1  0  0  0
  2  3  1  0  0  0
  2 24  1  0  0  0
  2 18  1  0  0  0
  3  1  1  0  0  0
  4  5  1  0  0  0
  7  5  1  0  0  0
  8  7  1  0  0  0
  9  8  1  0  0  0
  9 10  1  0  0  0
 10 11  1  0  0  0
 10  6  1  0  0  0
 11  9  1  0  0  0
 13 14  1  0  0  0
 15 16  1  0  0  0
 15 29  1  0  0  0
 17 28  1  0  0  0
 17 12  1  0  0  0
 19 20  1  0  0  0
 21 22  1  0  0  0
 23 18  1  0  0  0
 24  4  1  0  0  0
 26 25  1  0  0  0
 26  6  1  0  0  0
 26 12  1  0  0  0
  4 27  2  0  0  0
  5 25  2  0  0  0
  6  7  2  0  0  0
 12 13  2  0  0  0
 14 15  2  0  0  0
 16 17  2  0  0  0
 18 19  2  0  0  0
 20 21  2  0  0  0
 22 23  2  0  0  0
M  END
> <rmsd>
0.663265288

$$$$
CHEMBL3669117_8GUT


 34 36  0  0  0  0  0  0  0  0999 V2000
  103.4532  104.4435  129.0159 C   0  0  0  0  0
  101.3558  105.1458  127.9324 C   0  0  0  0  0
  101.3170  106.8873  126.3407 C   0  0  0  0  0
   99.3194  105.7892  126.9406 C   0  0  0  0  0
   97.1431  104.6057  127.4757 C   0  0  0  0  0
   97.4025  103.2474  126.8284 C   0  0  0  0  0
   96.7744  103.0768  125.4733 C   0  0  0  0  0
   95.9324  104.0474  124.9040 C   0  0  0  0  0
   95.3690  103.8411  123.6414 C   0  0  0  0  0
   95.6411  102.6641  122.9387 C   0  0  0  0  0
   96.4737  101.6925  123.5006 C   0  0  0  0  0
   97.0374  101.8994  124.7641 C   0  0  0  0  0
  102.0208  107.9161  125.5530 C   0  0  0  0  0
  101.3134  108.7191  124.6491 C   0  0  0  0  0
  101.9646  109.7183  123.9086 C   0  0  0  0  0
  103.3462  109.8996  124.0699 C   0  0  0  0  0
  104.0581  109.0989  124.9672 C   0  0  0  0  0
  103.3994  108.1133  125.7063 C   0  0  0  0  0
   99.8388  110.5497  122.9172 C   0  0  0  0  0
   99.2550  111.5625  123.8877 C   0  0  0  0  0
   99.2212  110.9887  125.2918 C   0  0  0  0  0
  101.5020  110.9718  127.5035 C   0  0  0  0  0
  102.0515  104.3249  128.8206 O   0  0  0  0  0
  101.2603  110.5342  123.0142 O   0  0  0  0  0
  101.5747  112.9080  125.6458 O   0  0  0  0  0
  100.6880  113.4955  127.8521 O   0  0  0  0  0
  102.0048  106.0926  127.2032 N   0  0  0  0  0
   99.9719  106.7315  126.2157 N   0  0  0  0  0
  100.0140  104.9963  127.7978 N   0  0  0  0  0
   97.9051  105.6462  126.7988 N   0  0  0  0  0
   99.1372  112.0619  126.2673 N   0  0  0  0  0
   95.0924  102.4618  121.7171 F   0  0  0  0  0
  104.2021  111.1365  123.1672 Cl  0  0  0  0  0
  100.7472  112.4223  126.8033 S   0  0  0  0  0
  1 23  1  0  0  0
  2 23  1  0  0  0
  2 29  1  0  0  0
  3 27  1  0  0  0
  3 13  1  0  0  0
  4 28  1  0  0  0
  4 30  1  0  0  0
  5 30  1  0  0  0
  5  6  1  0  0  0
  6  7  1  0  0  0
  8  9  1  0  0  0
 10 11  1  0  0  0
 10 32  1  0  0  0
 12  7  1  0  0  0
 14 15  1  0  0  0
 15 24  1  0  0  0
 16 17  1  0  0  0
 16 33  1  0  0  0
 18 13  1  0  0  0
 19 24  1  0  0  0
 19 20  1  0  0  0
 20 21  1  0  0  0
 21 31  1  0  0  0
 34 31  1  0  0  0
 34 22  1  0  0  0
  2 27  2  0  0  0
  3 28  2  0  0  0
  4 29  2  0  0  0
  7  8  2  0  0  0
  9 10  2  0  0  0
 11 12  2  0  0  0
 13 14  2  0  0  0
 15 16  2  0  0  0
 17 18  2  0  0  0
 34 25  2  0  0  0
 34 26  2  0  0  0
M  END
> <rmsd>
0.48745054

$$$$
CHEMBL3927144_8GUT


 28 30  0  0  0  0  0  0  0  0999 V2000
  103.0312  113.4604  128.2610 C   0  0  0  0  0
  102.4175  112.1798  127.8217 C   0  0  0  0  0
  101.8387  110.5251  126.6934 C   0  0  0  0  0
  101.6520  109.5495  125.5604 C   0  0  0  0  0
  103.0294  109.0600  125.1443 C   0  0  0  0  0
  100.9826  110.2642  124.3796 C   0  0  0  0  0
   99.5708  110.7345  124.7013 C   0  0  0  0  0
   99.0705  111.5964  123.5611 C   0  0  0  0  0
   98.6122  110.1604  123.6777 C   0  0  0  0  0
  100.2590  107.3255  125.2834 C   0  0  0  0  0
  100.4417  107.1146  123.8280 C   0  0  0  0  0
  101.7088  107.4170  121.8360 C   0  0  0  0  0
  100.7886  106.6690  121.1009 C   0  0  0  0  0
   99.6748  106.1211  121.7486 C   0  0  0  0  0
   99.5061  106.3478  123.1216 C   0  0  0  0  0
   97.6286  104.7162  121.6077 C   0  0  0  0  0
   97.9900  103.3055  122.0501 C   0  0  0  0  0
  102.5653  111.6600  126.5895 N   0  0  0  0  0
  101.2852  110.3794  127.9156 N   0  0  0  0  0
  100.8462  108.4132  126.0215 N   0  0  0  0  0
  101.5191  107.6172  123.1669 N   0  0  0  0  0
  101.6695  111.4234  128.5837 O   0  0  0  0  0
   99.5239  106.5208  125.9155 O   0  0  0  0  0
   98.7501  105.3662  121.0163 O   0  0  0  0  0
   98.4653  102.5834  120.9714 F   0  0  0  0  0
   98.9570  103.3468  123.0374 F   0  0  0  0  0
   96.8607  102.6854  122.5491 F   0  0  0  0  0
  101.0509  106.4246  119.3836 Cl  0  0  0  0  0
  1  2  1  0  0  0
  2 22  1  0  0  0
  3 18  1  0  0  0
  4  3  1  0  0  0
  4  5  1  0  0  0
  4  6  1  0  0  0
  4 20  1  0  0  0
  6  7  1  0  0  0
  7  8  1  0  0  0
  8  9  1  0  0  0
  9  7  1  0  0  0
 10 11  1  0  0  0
 12 21  1  0  0  0
 13 14  1  0  0  0
 13 28  1  0  0  0
 14 24  1  0  0  0
 15 11  1  0  0  0
 16 24  1  0  0  0
 16 17  1  0  0  0
 17 25  1  0  0  0
 17 26  1  0  0  0
 17 27  1  0  0  0
 19 22  1  0  0  0
 20 10  1  0  0  0
  2 18  2  0  0  0
  3 19  2  0  0  0
 10 23  2  0  0  0
 11 21  2  0  0  0
 12 13  2  0  0  0
 14 15  2  0  0  0
M  END
> <rmsd>
0.524693608

$$$$
CHEMBL3354957_8GUQ


 29 33  0  0  0  0  0  0  0  0999 V2000
   96.8645  104.3125  123.6289 C   0  0  0  0  0
   98.3081  105.8264  125.0426 C   0  0  0  0  0
   98.8551  107.1624  125.3044 C   0  0  0  0  0
   99.4828  109.2257  125.0676 C   0  0  0  0  0
   98.6809  108.2971  124.5398 C   0  0  0  0  0
   98.3493  108.5655  123.1294 C   0  0  0  0  0
   99.1479  109.8620  122.8241 C   0  0  0  0  0
   99.8557  110.3059  124.1242 C   0  0  0  0  0
   98.6230  111.0434  123.6232 C   0  0  0  0  0
  101.1586  109.3213  126.9204 C   0  0  0  0  0
  101.0303  109.2910  128.3157 C   0  0  0  0  0
  102.0003  109.8813  129.1298 C   0  0  0  0  0
  103.1125  110.4991  128.5541 C   0  0  0  0  0
  103.2634  110.5115  127.1656 C   0  0  0  0  0
  102.2944  109.9240  126.3462 C   0  0  0  0  0
   95.3430  104.3690  123.5277 C   0  0  0  0  0
   97.5077  103.7495  122.3990 C   0  0  0  0  0
   97.4673  104.4355  121.1754 C   0  0  0  0  0
   98.0879  103.8945  120.0457 C   0  0  0  0  0
   98.7536  102.6685  120.1341 C   0  0  0  0  0
   98.8000  101.9842  121.3522 C   0  0  0  0  0
   98.1794  102.5248  122.4824 C   0  0  0  0  0
   97.4133  105.6231  123.9476 N   0  0  0  0  0
   99.7430  107.4447  126.2880 N   0  0  0  0  0
  100.1494  108.6988  126.1147 N   0  0  0  0  0
   98.6304  104.8616  125.7871 O   0  0  0  0  0
   94.9373  105.3258  122.5945 O   0  0  0  0  0
  102.5014  109.8930  125.0075 F   0  0  0  0  0
  104.0529  111.0718  129.3427 F   0  0  0  0  0
  1 23  1  0  0  0
  1 16  1  0  0  0
  1 17  1  0  0  0
  2  3  1  0  0  0
  5  3  1  0  0  0
  6  5  1  0  0  0
  7  6  1  0  0  0
  7  8  1  0  0  0
  8  9  1  0  0  0
  8  4  1  0  0  0
  9  7  1  0  0  0
 11 12  1  0  0  0
 13 14  1  0  0  0
 13 29  1  0  0  0
 15 28  1  0  0  0
 15 10  1  0  0  0
 16 27  1  0  0  0
 18 19  1  0  0  0
 20 21  1  0  0  0
 22 17  1  0  0  0
 23  2  1  0  0  0
 25 24  1  0  0  0
 25  4  1  0  0  0
 25 10  1  0  0  0
  2 26  2  0  0  0
  3 24  2  0  0  0
  4  5  2  0  0  0
 10 11  2  0  0  0
 12 13  2  0  0  0
 14 15  2  0  0  0
 17 18  2  0  0  0
 19 20  2  0  0  0
 21 22  2  0  0  0
M  END
> <rmsd>
0.699924767

$$$$
CHEMBL1909858_5ZTY


 30 33  0  0  0  0  0  0  0  0999 V2000
   98.9730  110.4966  124.3603 C   0  0  0  0  0
   99.3061  109.2366  125.0850 C   0  0  0  0  0
   98.8322  107.9550  124.8496 C   0  0  0  0  0
   97.8323  107.5408  123.8526 C   0  0  0  0  0
   96.2367  108.1524  121.9832 C   0  0  0  0  0
   95.5067  109.4098  121.5187 C   0  0  0  0  0
   94.4942  109.0600  120.4314 C   0  0  0  0  0
   95.1982  108.3973  119.2503 C   0  0  0  0  0
   95.9311  107.1404  119.7117 C   0  0  0  0  0
   96.9430  107.4914  120.7988 C   0  0  0  0  0
  101.0946  107.1648  127.4701 C   0  0  0  0  0
  101.2801  105.7752  127.4801 C   0  0  0  0  0
  102.0393  105.1684  128.4837 C   0  0  0  0  0
  102.6184  105.9414  129.4936 C   0  0  0  0  0
  102.4296  107.3333  129.4995 C   0  0  0  0  0
  101.6674  107.9329  128.4942 C   0  0  0  0  0
  100.2299  109.0810  126.0953 C   0  0  0  0  0
  100.7058  111.1965  127.3052 C   0  0  0  0  0
  101.7948  111.9955  127.5975 C   0  0  0  0  0
  102.8956  111.3681  127.0272 C   0  0  0  0  0
  102.4124  110.2214  126.4263 C   0  0  0  0  0
   97.5230  106.3226  123.7537 O   0  0  0  0  0
   97.2090  108.5095  123.0047 N   0  0  0  0  0
   99.4480  107.0898  125.6836 N   0  0  0  0  0
  100.2964  107.7742  126.4391 N   0  0  0  0  0
  101.0837  110.1153  126.6025 N   0  0  0  0  0
  103.5669  105.1375  130.7332 Cl  0  0  0  0  0
  103.1299  108.3532  130.7449 Cl  0  0  0  0  0
   99.0607  111.5302  127.8186 Cl  0  0  0  0  0
  103.3966  109.0803  125.5251 Cl  0  0  0  0  0
  1  2  1  0  0  0
  2  3  1  0  0  0
  3  4  1  0  0  0
  4 23  1  0  0  0
  5 23  1  0  0  0
  5  6  1  0  0  0
  6  7  1  0  0  0
  7  8  1  0  0  0
  8  9  1  0  0  0
  9 10  1  0  0  0
 10  5  1  0  0  0
 12 13  1  0  0  0
 14 27  1  0  0  0
 14 15  1  0  0  0
 15 28  1  0  0  0
 16 11  1  0  0  0
 17 26  1  0  0  0
 18 29  1  0  0  0
 19 20  1  0  0  0
 21 30  1  0  0  0
 21 26  1  0  0  0
 25 24  1  0  0  0
 25 11  1  0  0  0
 25 17  1  0  0  0
 26 18  1  0  0  0
  3 24  2  0  0  0
  4 22  2  0  0  0
 11 12  2  0  0  0
 13 14  2  0  0  0
 15 16  2  0  0  0
 17  2  2  0  0  0
 18 19  2  0  0  0
 20 21  2  0  0  0
M  END
> <rmsd>
0.604192793

$$$$
CHEMBL238972_8GUR


 29 31  0  0  0  0  0  0  0  0999 V2000
  103.2123  108.7023  125.2013 C   0  0  0  0  0
  102.8945  109.9882  125.0408 C   0  0  0  0  0
  103.1628  110.6460  123.7320 C   0  0  0  0  0
  102.2337  110.7798  126.1361 C   0  0  0  0  0
  103.1401  110.8618  127.3609 C   0  0  0  0  0
  102.5277  111.7655  128.4310 C   0  0  0  0  0
  101.0534  111.5254  128.6463 C   0  0  0  0  0
  100.3901  112.1638  129.8161 C   0  0  0  0  0
  100.3002  110.8472  127.7676 C   0  0  0  0  0
  100.8745  110.1848  126.5410 C   0  0  0  0  0
   99.8772  110.1949  125.4118 C   0  0  0  0  0
   99.4592  111.3981  124.8055 C   0  0  0  0  0
   98.5441  111.3690  123.7509 C   0  0  0  0  0
   98.0416  110.1502  123.2806 C   0  0  0  0  0
   97.0330  110.1154  122.1678 C   0  0  0  0  0
   95.5612  109.9249  122.5172 C   0  0  0  0  0
   95.0318  111.1135  123.3044 C   0  0  0  0  0
   93.5595  110.9240  123.6184 C   0  0  0  0  0
   92.7181  111.1654  122.3755 C   0  0  0  0  0
   91.2477  110.9411  122.6789 C   0  0  0  0  0
   90.9473  109.4569  122.7727 C   0  0  0  0  0
   97.2951  111.0496  120.9956 C   0  0  0  0  0
   97.4997  109.5532  120.8260 C   0  0  0  0  0
   98.4403  108.9578  123.8935 C   0  0  0  0  0
   99.3550  108.9749  124.9488 C   0  0  0  0  0
   99.9463  112.6244  125.2433 O   0  0  0  0  0
   99.7407  107.7732  125.5315 O   0  0  0  0  0
   99.2222  109.1610  120.5683 Cl  0  0  0  0  0
   96.3053  108.8497  119.7023 Cl  0  0  0  0  0
  3  2  1  0  0  0
  4  2  1  0  0  0
  4  5  1  0  0  0
  5  6  1  0  0  0
  6  7  1  0  0  0
  8  7  1  0  0  0
 10  9  1  0  0  0
 10 11  1  0  0  0
 10  4  1  0  0  0
 12 26  1  0  0  0
 12 13  1  0  0  0
 14 24  1  0  0  0
 15 14  1  0  0  0
 15 16  1  0  0  0
 15 22  1  0  0  0
 16 17  1  0  0  0
 17 18  1  0  0  0
 18 19  1  0  0  0
 19 20  1  0  0  0
 20 21  1  0  0  0
 22 23  1  0  0  0
 23 28  1  0  0  0
 23 29  1  0  0  0
 23 15  1  0  0  0
 25 27  1  0  0  0
 25 11  1  0  0  0
  1  2  2  0  0  0
  7  9  2  0  0  0
 11 12  2  0  0  0
 13 14  2  0  0  0
 24 25  2  0  0  0
M  END
> <rmsd>
0.772925973

$$$$
CHEMBL3590638_8GUR


 22 23  0  0  0  0  0  0  0  0999 V2000
   99.5471  110.7984  123.9537 C   0  0  0  0  0
   98.7818  109.9211  124.9256 C   0  0  0  0  0
   99.6649  109.5430  126.1067 C   0  0  0  0  0
  100.2837  107.2557  125.3589 C   0  0  0  0  0
  101.1766  106.3727  124.5887 C   0  0  0  0  0
  100.7401  105.1542  124.2381 C   0  0  0  0  0
  101.0438  102.9005  123.1219 C   0  0  0  0  0
  102.1262  102.1763  122.3499 C   0  0  0  0  0
  100.7031  102.0942  124.3618 C   0  0  0  0  0
   99.8135  103.0245  122.2418 C   0  0  0  0  0
  102.5182  106.8890  124.2400 C   0  0  0  0  0
  102.9721  108.1763  124.8009 C   0  0  0  0  0
  104.2989  108.5741  124.5905 C   0  0  0  0  0
  104.7831  109.7553  125.1410 C   0  0  0  0  0
  103.9483  110.5461  125.9226 C   0  0  0  0  0
  102.6192  110.1799  126.1469 C   0  0  0  0  0
  101.8409  111.0660  127.0586 C   0  0  0  0  0
  102.0936  108.9908  125.5605 C   0  0  0  0  0
  100.7020  108.5910  125.7042 N   0  0  0  0  0
  101.5319  104.2218  123.4968 N   0  0  0  0  0
   99.1384  106.8471  125.7017 O   0  0  0  0  0
  103.2858  106.2366  123.4798 O   0  0  0  0  0
  1  2  1  0  0  0
  2  3  1  0  0  0
  3 19  1  0  0  0
  4  5  1  0  0  0
  5 11  1  0  0  0
  6 20  1  0  0  0
  7 20  1  0  0  0
  7  8  1  0  0  0
  7  9  1  0  0  0
  7 10  1  0  0  0
 11 12  1  0  0  0
 13 14  1  0  0  0
 15 16  1  0  0  0
 17 16  1  0  0  0
 18 19  1  0  0  0
 18 12  1  0  0  0
 19  4  1  0  0  0
  4 21  2  0  0  0
  5  6  2  0  0  0
 11 22  2  0  0  0
 12 13  2  0  0  0
 14 15  2  0  0  0
 16 18  2  0  0  0
M  END
> <rmsd>
0.706756175

$$$$
CHEMBL382676_8GUS


 31 33  0  0  0  0  0  0  0  0999 V2000
   99.1282  108.5059  122.9833 C   0  0  0  0  0
   99.0776  109.8127  123.4620 C   0  0  0  0  0
   99.3004  110.0589  124.8328 C   0  0  0  0  0
   99.5828  107.7211  125.2189 C   0  0  0  0  0
   99.3869  107.4381  123.8505 C   0  0  0  0  0
   99.4322  106.0637  123.3012 C   0  0  0  0  0
   99.1880  104.5281  121.2954 C   0  0  0  0  0
   97.8988  103.8104  121.6790 C   0  0  0  0  0
   96.7037  104.4855  121.0916 C   0  0  0  0  0
   95.7669  105.0900  121.9367 C   0  0  0  0  0
   94.6411  105.7204  121.3982 C   0  0  0  0  0
   94.4484  105.7442  120.0134 C   0  0  0  0  0
   95.3798  105.1351  119.1670 C   0  0  0  0  0
   96.5060  104.5047  119.7049 C   0  0  0  0  0
   99.2570  111.3870  125.3234 C   0  0  0  0  0
   98.9509  112.4368  124.4402 C   0  0  0  0  0
   98.7273  112.1682  123.0805 C   0  0  0  0  0
   98.7948  110.8643  122.5934 C   0  0  0  0  0
   98.5883  114.8654  124.1148 C   0  0  0  0  0
  100.2730  110.9270  127.5670 C   0  0  0  0  0
  101.7386  111.3380  127.5041 C   0  0  0  0  0
  102.3906  110.8885  126.2065 C   0  0  0  0  0
  102.6969  109.4039  126.2559 C   0  0  0  0  0
  103.2442  108.9578  124.9169 C   0  0  0  0  0
   99.5315  109.0059  125.6627 N   0  0  0  0  0
   99.2366  105.8537  121.8986 N   0  0  0  0  0
   93.3033  106.3858  119.4660 N   0  0  0  0  0
   99.6398  105.0755  124.0567 O   0  0  0  0  0
   99.8327  106.7058  126.1346 O   0  0  0  0  0
   98.8856  113.7440  124.9357 O   0  0  0  0  0
   99.4969  111.7136  126.6687 O   0  0  0  0  0
  2  3  1  0  0  0
  3 15  1  0  0  0
  4 25  1  0  0  0
  4 29  1  0  0  0
  5  6  1  0  0  0
  5  1  1  0  0  0
  6 26  1  0  0  0
  7 26  1  0  0  0
  7  8  1  0  0  0
  8  9  1  0  0  0
 10 11  1  0  0  0
 12 13  1  0  0  0
 12 27  1  0  0  0
 14  9  1  0  0  0
 15 31  1  0  0  0
 16 17  1  0  0  0
 16 30  1  0  0  0
 18  2  1  0  0  0
 19 30  1  0  0  0
 20 31  1  0  0  0
 20 21  1  0  0  0
 21 22  1  0  0  0
 22 23  1  0  0  0
 23 24  1  0  0  0
  1  2  2  0  0  0
  3 25  2  0  0  0
  4  5  2  0  0  0
  6 28  2  0  0  0
  9 10  2  0  0  0
 11 12  2  0  0  0
 13 14  2  0  0  0
 15 16  2  0  0  0
 17 18  2  0  0  0
M  END
> <rmsd>
0.365474582

$$$$
CHEMBL2206857_6PT0


 25 28  0  0  0  0  0  0  0  0999 V2000
   98.2068  105.6012  121.4342 C   0  0  0  0  0
   98.0534  106.9859  120.8356 C   0  0  0  0  0
   97.2349  107.8776  121.7569 C   0  0  0  0  0
   98.5571  107.6815  123.8798 C   0  0  0  0  0
   99.2547  108.5367  124.7325 C   0  0  0  0  0
   99.9254  108.1336  125.9847 C   0  0  0  0  0
  100.9529  108.9757  126.6322 C   0  0  0  0  0
  100.7821  109.3003  127.9824 C   0  0  0  0  0
  101.7108  110.0996  128.6481 C   0  0  0  0  0
  102.8342  110.5868  127.9796 C   0  0  0  0  0
  103.0427  110.2563  126.6288 C   0  0  0  0  0
  104.1786  110.7169  125.9474 C   0  0  0  0  0
  104.3954  110.3682  124.6131 C   0  0  0  0  0
  103.4816  109.5514  123.9464 C   0  0  0  0  0
  102.3449  109.0870  124.6103 C   0  0  0  0  0
  102.1021  109.4380  125.9487 C   0  0  0  0  0
   99.1364  109.8069  124.1915 C   0  0  0  0  0
   99.5866  111.0486  124.6416 C   0  0  0  0  0
   99.2780  112.1776  123.8632 C   0  0  0  0  0
   98.5288  112.0460  122.6746 C   0  0  0  0  0
   98.0759  110.7839  122.2516 C   0  0  0  0  0
   98.4008  109.6807  123.0427 C   0  0  0  0  0
   98.0560  108.3965  122.8443 N   0  0  0  0  0
   99.5984  107.0453  126.5301 O   0  0  0  0  0
  103.9651  111.5937  128.8745 Cl  0  0  0  0  0
  1  2  1  0  0  0
  2  3  1  0  0  0
  3 23  1  0  0  0
  5  6  1  0  0  0
  5 17  1  0  0  0
  6  7  1  0  0  0
  8  9  1  0  0  0
 10 25  1  0  0  0
 10 11  1  0  0  0
 12 13  1  0  0  0
 14 15  1  0  0  0
 16  7  1  0  0  0
 16 11  1  0  0  0
 18 19  1  0  0  0
 20 21  1  0  0  0
 22 23  1  0  0  0
 22 17  1  0  0  0
 23  4  1  0  0  0
  4  5  2  0  0  0
  6 24  2  0  0  0
  7  8  2  0  0  0
  9 10  2  0  0  0
 11 12  2  0  0  0
 13 14  2  0  0  0
 15 16  2  0  0  0
 17 18  2  0  0  0
 19 20  2  0  0  0
 21 22  2  0  0  0
M  END
> <rmsd>
0.737416744

$$$$
CHEMBL2206851_6PT0


 28 31  0  0  0  0  0  0  0  0999 V2000
   95.6351  106.2135  125.1653 C   0  0  0  0  0
   94.7344  107.0590  124.4835 C   0  0  0  0  0
   95.1644  108.2943  123.9685 C   0  0  0  0  0
   96.5030  108.6438  124.1542 C   0  0  0  0  0
   97.3801  107.8217  124.8178 C   0  0  0  0  0
   96.9774  106.5926  125.3412 C   0  0  0  0  0
   98.6110  108.4601  124.8454 C   0  0  0  0  0
   98.4043  109.6742  124.1755 C   0  0  0  0  0
   96.5047  110.9010  123.0718 C   0  0  0  0  0
   96.0095  111.9146  124.0898 C   0  0  0  0  0
   95.3341  113.0793  123.3900 C   0  0  0  0  0
   93.9515  112.6779  122.9123 C   0  0  0  0  0
   93.2996  113.8506  122.2114 C   0  0  0  0  0
   99.4204  110.7458  123.9533 C   0  0  0  0  0
   99.8483  107.9557  125.4898 C   0  0  0  0  0
  101.1069  108.7056  125.4334 C   0  0  0  0  0
  101.9288  108.4144  124.3378 C   0  0  0  0  0
  103.1392  109.0718  124.1495 C   0  0  0  0  0
  103.5491  110.0387  125.0585 C   0  0  0  0  0
  102.7574  110.3503  126.1637 C   0  0  0  0  0
  101.5141  109.6853  126.3904 C   0  0  0  0  0
  100.7705  110.0526  127.5557 C   0  0  0  0  0
  101.2656  111.0399  128.4135 C   0  0  0  0  0
  102.4757  111.6767  128.1625 C   0  0  0  0  0
  103.2192  111.3303  127.0418 C   0  0  0  0  0
   97.1196  109.7700  123.7551 N   0  0  0  0  0
   99.8433  106.8329  126.0622 O   0  0  0  0  0
   98.9217  109.2628  128.2428 I   0  0  0  0  0
  2  3  1  0  0  0
  4  5  1  0  0  0
  5  7  1  0  0  0
  6  1  1  0  0  0
  7 15  1  0  0  0
  8 26  1  0  0  0
  9 26  1  0  0  0
  9 10  1  0  0  0
 10 11  1  0  0  0
 11 12  1  0  0  0
 12 13  1  0  0  0
 14  8  1  0  0  0
 15 16  1  0  0  0
 17 18  1  0  0  0
 19 20  1  0  0  0
 21 22  1  0  0  0
 21 16  1  0  0  0
 22 28  1  0  0  0
 23 24  1  0  0  0
 25 20  1  0  0  0
 26  4  1  0  0  0
  1  2  2  0  0  0
  3  4  2  0  0  0
  5  6  2  0  0  0
  7  8  2  0  0  0
 15 27  2  0  0  0
 16 17  2  0  0  0
 18 19  2  0  0  0
 20 21  2  0  0  0
 22 23  2  0  0  0
 24 25  2  0  0  0
M  END
> <rmsd>
0.240093991

$$$$
CHEMBL394305_8GUR


 27 29  0  0  0  0  0  0  0  0999 V2000
  103.0555  109.5476  125.1998 C   0  0  0  0  0
  101.8553  110.0572  125.4596 C   0  0  0  0  0
  101.4779  110.3604  126.8725 C   0  0  0  0  0
  100.8768  110.2485  124.3408 C   0  0  0  0  0
  100.5011  111.7378  124.1867 C   0  0  0  0  0
   99.0880  112.0409  124.6873 C   0  0  0  0  0
   98.1151  111.1281  124.0022 C   0  0  0  0  0
   96.8804  111.6792  123.3790 C   0  0  0  0  0
   98.4015  109.8276  123.8878 C   0  0  0  0  0
   99.6725  109.2883  124.4906 C   0  0  0  0  0
   99.9825  107.9058  123.9864 C   0  0  0  0  0
   99.9441  106.8247  124.8835 C   0  0  0  0  0
  100.2325  105.5325  124.4384 C   0  0  0  0  0
  100.5718  105.3022  123.1007 C   0  0  0  0  0
  100.8344  103.9085  122.6175 C   0  0  0  0  0
   99.7404  103.1288  121.9073 C   0  0  0  0  0
   98.5939  102.8308  122.8599 C   0  0  0  0  0
   97.4381  102.1835  122.1135 C   0  0  0  0  0
   96.7044  103.1980  121.2436 C   0  0  0  0  0
   95.9008  104.1765  122.0871 C   0  0  0  0  0
   94.6599  103.5032  122.6419 C   0  0  0  0  0
  102.2159  103.6921  122.0399 C   0  0  0  0  0
  101.8492  103.0930  123.3908 C   0  0  0  0  0
  100.5967  106.3732  122.2010 C   0  0  0  0  0
  100.3102  107.6697  122.6351 C   0  0  0  0  0
   99.6190  107.0253  126.2202 O   0  0  0  0  0
  100.3515  108.7141  121.7183 O   0  0  0  0  0
  3  2  1  0  0  0
  4  2  1  0  0  0
  4  5  1  0  0  0
  5  6  1  0  0  0
  6  7  1  0  0  0
  8  7  1  0  0  0
 10  9  1  0  0  0
 10 11  1  0  0  0
 10  4  1  0  0  0
 12 26  1  0  0  0
 12 13  1  0  0  0
 14 24  1  0  0  0
 15 14  1  0  0  0
 15 16  1  0  0  0
 15 22  1  0  0  0
 16 17  1  0  0  0
 17 18  1  0  0  0
 18 19  1  0  0  0
 19 20  1  0  0  0
 20 21  1  0  0  0
 22 23  1  0  0  0
 23 15  1  0  0  0
 25 27  1  0  0  0
 25 11  1  0  0  0
  1  2  2  0  0  0
  7  9  2  0  0  0
 11 12  2  0  0  0
 13 14  2  0  0  0
 24 25  2  0  0  0
M  END
> <rmsd>
0.452349484

$$$$
CHEMBL2206855_6PT0


 27 30  0  0  0  0  0  0  0  0999 V2000
   91.7399  110.3544  123.2648 C   0  0  0  0  0
   93.1789  109.9832  123.5538 C   0  0  0  0  0
   94.0352  110.2973  122.3416 C   0  0  0  0  0
   95.4854  109.9388  122.6105 C   0  0  0  0  0
   96.1268  110.9731  123.5218 C   0  0  0  0  0
   97.9387  109.5358  124.4818 C   0  0  0  0  0
   99.3320  109.5534  124.5473 C   0  0  0  0  0
  100.1690  108.5248  125.1971 C   0  0  0  0  0
  101.5740  108.7795  125.5775 C   0  0  0  0  0
  102.5516  107.8842  125.1268 C   0  0  0  0  0
  103.8967  108.0744  125.4449 C   0  0  0  0  0
  104.2891  109.1617  126.2261 C   0  0  0  0  0
  103.3279  110.0600  126.7097 C   0  0  0  0  0
  103.7139  111.1395  127.5147 C   0  0  0  0  0
  102.7562  112.0227  128.0176 C   0  0  0  0  0
  101.4050  111.8314  127.7239 C   0  0  0  0  0
  101.0078  110.7604  126.9208 C   0  0  0  0  0
  101.9575  109.8693  126.3943 C   0  0  0  0  0
   99.7402  110.6839  123.8572 C   0  0  0  0  0
  101.0112  111.1815  123.5674 C   0  0  0  0  0
  101.0939  112.3689  122.8195 C   0  0  0  0  0
   99.9230  113.0199  122.3761 C   0  0  0  0  0
   98.6549  112.4891  122.6712 C   0  0  0  0  0
   98.6041  111.3105  123.4171 C   0  0  0  0  0
   97.5134  110.6186  123.7886 N   0  0  0  0  0
   99.6761  107.3859  125.4173 O   0  0  0  0  0
  105.6037  109.3262  126.5201 F   0  0  0  0  0
  1  2  1  0  0  0
  2  3  1  0  0  0
  3  4  1  0  0  0
  4  5  1  0  0  0
  5 25  1  0  0  0
  7  8  1  0  0  0
  7 19  1  0  0  0
  8  9  1  0  0  0
 10 11  1  0  0  0
 12 27  1  0  0  0
 12 13  1  0  0  0
 14 15  1  0  0  0
 16 17  1  0  0  0
 18  9  1  0  0  0
 18 13  1  0  0  0
 20 21  1  0  0  0
 22 23  1  0  0  0
 24 25  1  0  0  0
 24 19  1  0  0  0
 25  6  1  0  0  0
  6  7  2  0  0  0
  8 26  2  0  0  0
  9 10  2  0  0  0
 11 12  2  0  0  0
 13 14  2  0  0  0
 15 16  2  0  0  0
 17 18  2  0  0  0
 19 20  2  0  0  0
 21 22  2  0  0  0
 23 24  2  0  0  0
M  END
> <rmsd>
0.714471698

$$$$
CHEMBL2206860_6PT0


 28 31  0  0  0  0  0  0  0  0999 V2000
   95.6807  112.9888  124.2373 C   0  0  0  0  0
   95.7818  112.2117  122.9422 C   0  0  0  0  0
   95.4083  110.7630  123.1925 C   0  0  0  0  0
   95.5410  109.9498  121.9140 C   0  0  0  0  0
   97.0043  109.7203  121.5520 C   0  0  0  0  0
   98.6341  109.1955  123.3925 C   0  0  0  0  0
   99.1492  110.5903  123.5361 C   0  0  0  0  0
   99.0084  108.0976  124.1754 C   0  0  0  0  0
  100.0048  108.0481  125.2685 C   0  0  0  0  0
  101.2100  108.9108  125.2657 C   0  0  0  0  0
  101.8941  109.0974  124.0573 C   0  0  0  0  0
  103.0505  109.8734  123.9993 C   0  0  0  0  0
  103.5549  110.4783  125.1501 C   0  0  0  0  0
  102.8930  110.3059  126.3784 C   0  0  0  0  0
  103.3834  110.9122  127.5440 C   0  0  0  0  0
  102.7203  110.7496  128.7615 C   0  0  0  0  0
  101.5580  109.9809  128.8268 C   0  0  0  0  0
  101.0576  109.3702  127.6754 C   0  0  0  0  0
  101.7141  109.5154  126.4420 C   0  0  0  0  0
   98.1998  107.0571  123.7506 C   0  0  0  0  0
   98.1275  105.7288  124.1703 C   0  0  0  0  0
   97.1982  104.8906  123.5298 C   0  0  0  0  0
   96.3745  105.3886  122.4979 C   0  0  0  0  0
   96.4687  106.7316  122.0931 C   0  0  0  0  0
   97.3988  107.5423  122.7460 C   0  0  0  0  0
   97.6514  108.8468  122.5271 N   0  0  0  0  0
   99.8390  107.2219  126.2062 O   0  0  0  0  0
  105.0169  111.4462  125.0101 Cl  0  0  0  0  0
  1  2  1  0  0  0
  2  3  1  0  0  0
  3  4  1  0  0  0
  4  5  1  0  0  0
  5 26  1  0  0  0
  7  6  1  0  0  0
  8  9  1  0  0  0
  8 20  1  0  0  0
  9 10  1  0  0  0
 11 12  1  0  0  0
 13 28  1  0  0  0
 13 14  1  0  0  0
 15 16  1  0  0  0
 17 18  1  0  0  0
 19 10  1  0  0  0
 19 14  1  0  0  0
 21 22  1  0  0  0
 23 24  1  0  0  0
 25 26  1  0  0  0
 25 20  1  0  0  0
 26  6  1  0  0  0
  6  8  2  0  0  0
  9 27  2  0  0  0
 10 11  2  0  0  0
 12 13  2  0  0  0
 14 15  2  0  0  0
 16 17  2  0  0  0
 18 19  2  0  0  0
 20 21  2  0  0  0
 22 23  2  0  0  0
 24 25  2  0  0  0
M  END
> <rmsd>
0.515049458

$$$$
CHEMBL572887_5ZTY


 29 32  0  0  0  0  0  0  0  0999 V2000
   98.0879  107.1625  123.2811 C   0  0  0  0  0
   98.9149  107.4028  124.4997 C   0  0  0  0  0
   99.2123  106.5047  125.5154 C   0  0  0  0  0
   98.8171  105.0897  125.6018 C   0  0  0  0  0
   97.6585  103.0819  124.5667 C   0  0  0  0  0
   98.8596  102.1636  124.3167 C   0  0  0  0  0
   99.6484  102.4931  123.0510 C   0  0  0  0  0
   98.8077  102.3346  121.7935 C   0  0  0  0  0
   97.9710  103.5874  121.5935 C   0  0  0  0  0
   96.5845  103.4991  122.2351 C   0  0  0  0  0
   96.5134  102.7873  123.5944 C   0  0  0  0  0
  100.8868  109.3182  126.8556 C   0  0  0  0  0
  100.4590  109.6551  128.1461 C   0  0  0  0  0
  101.1924  110.5570  128.9206 C   0  0  0  0  0
  102.3642  111.1218  128.4126 C   0  0  0  0  0
  102.8112  110.7740  127.1358 C   0  0  0  0  0
  102.0825  109.8721  126.3545 C   0  0  0  0  0
   99.5005  108.5907  124.9022 C   0  0  0  0  0
   99.5383  111.0713  124.7890 C   0  0  0  0  0
   99.3550  112.0449  123.8277 C   0  0  0  0  0
   99.0903  111.3845  122.6400 C   0  0  0  0  0
   99.1226  110.0333  122.9225 C   0  0  0  0  0
   99.1781  104.4039  126.5961 O   0  0  0  0  0
   98.0292  104.4936  124.5686 N   0  0  0  0  0
   99.9428  107.1258  126.4647 N   0  0  0  0  0
  100.1201  108.3830  126.0877 N   0  0  0  0  0
   99.4005  109.8582  124.2261 N   0  0  0  0  0
  103.2818  112.2532  129.3822 Cl  0  0  0  0  0
  102.7178  109.4246  124.7792 Cl  0  0  0  0  0
  1  2  1  0  0  0
  2  3  1  0  0  0
  3  4  1  0  0  0
  4 24  1  0  0  0
  5 24  1  0  0  0
  5  6  1  0  0  0
  6  7  1  0  0  0
  7  8  1  0  0  0
  8  9  1  0  0  0
  9 10  1  0  0  0
 10 11  1  0  0  0
 11  5  1  0  0  0
 13 14  1  0  0  0
 15 28  1  0  0  0
 15 16  1  0  0  0
 17 29  1  0  0  0
 17 12  1  0  0  0
 18 27  1  0  0  0
 20 21  1  0  0  0
 22 27  1  0  0  0
 26 25  1  0  0  0
 26 12  1  0  0  0
 26 18  1  0  0  0
 27 19  1  0  0  0
  3 25  2  0  0  0
  4 23  2  0  0  0
 12 13  2  0  0  0
 14 15  2  0  0  0
 16 17  2  0  0  0
 18  2  2  0  0  0
 19 20  2  0  0  0
 21 22  2  0  0  0
M  END
> <rmsd>
0.492512494

$$$$
CHEMBL3942450_8GUT


 26 28  0  0  0  0  0  0  0  0999 V2000
  103.6988  110.3686  128.0417 C   0  0  0  0  0
  102.1884  110.2283  127.9626 C   0  0  0  0  0
  101.5416  111.5316  127.5307 C   0  0  0  0  0
  102.2999  108.9016  125.7450 C   0  0  0  0  0
  102.3613  110.1820  124.9298 C   0  0  0  0  0
  103.6550  108.2188  125.7779 C   0  0  0  0  0
  100.9707  108.0733  127.7079 C   0  0  0  0  0
  100.0898  107.2012  126.9007 C   0  0  0  0  0
   99.5621  106.0283  127.4522 C   0  0  0  0  0
   98.7193  105.2262  126.6835 C   0  0  0  0  0
   98.3997  105.5957  125.3750 C   0  0  0  0  0
   96.9433  104.7493  123.2477 C   0  0  0  0  0
   96.2040  103.4774  123.4250 C   0  0  0  0  0
   96.8021  103.5008  124.7807 C   0  0  0  0  0
   98.9331  106.7849  124.8539 C   0  0  0  0  0
   99.0578  108.4200  123.0025 C   0  0  0  0  0
   98.1508  109.5435  123.4700 C   0  0  0  0  0
   98.6909  110.8595  122.9507 C   0  0  0  0  0
   98.9238  110.4640  124.3921 C   0  0  0  0  0
  101.7725  109.1077  127.1050 N   0  0  0  0  0
   97.5344  104.7659  124.5975 N   0  0  0  0  0
   99.7564  107.5474  125.6271 N   0  0  0  0  0
  101.0063  107.9129  128.9595 O   0  0  0  0  0
   98.6227  107.1813  123.5495 O   0  0  0  0  0
   96.6755  102.4495  122.6311 F   0  0  0  0  0
   94.8309  103.6324  123.4245 F   0  0  0  0  0
  1  2  1  0  0  0
  2  3  1  0  0  0
  2 20  1  0  0  0
  4 20  1  0  0  0
  4  5  1  0  0  0
  4  6  1  0  0  0
  7  8  1  0  0  0
  8 22  1  0  0  0
  9 10  1  0  0  0
 11 21  1  0  0  0
 11 15  1  0  0  0
 12 21  1  0  0  0
 12 13  1  0  0  0
 13 25  1  0  0  0
 13 26  1  0  0  0
 13 14  1  0  0  0
 14 21  1  0  0  0
 15 24  1  0  0  0
 16 24  1  0  0  0
 16 17  1  0  0  0
 17 18  1  0  0  0
 18 19  1  0  0  0
 19 17  1  0  0  0
 20  7  1  0  0  0
  7 23  2  0  0  0
  8  9  2  0  0  0
 10 11  2  0  0  0
 15 22  2  0  0  0
M  END
> <rmsd>
0.7287696

$$$$
CHEMBL3354960_8GUQ


 30 34  0  0  0  0  0  0  0  0999 V2000
   94.7188  105.4271  125.1361 C   0  0  0  0  0
   95.7632  104.9982  124.1156 C   0  0  0  0  0
   96.2414  103.5885  124.4318 C   0  0  0  0  0
   97.7229  106.1752  125.2904 C   0  0  0  0  0
   98.8290  107.1361  125.1951 C   0  0  0  0  0
  100.0744  108.7974  124.5687 C   0  0  0  0  0
   99.1209  107.9584  124.1232 C   0  0  0  0  0
   98.2273  108.6069  123.1422 C   0  0  0  0  0
   98.8618  110.0029  122.9374 C   0  0  0  0  0
  100.0415  110.1327  123.9185 C   0  0  0  0  0
   98.7301  110.8508  124.1925 C   0  0  0  0  0
  101.2134  109.2492  126.7474 C   0  0  0  0  0
  100.9010  109.2789  128.1150 C   0  0  0  0  0
  101.6966  109.9968  129.0111 C   0  0  0  0  0
  102.8183  110.6877  128.5493 C   0  0  0  0  0
  103.1522  110.6495  127.1938 C   0  0  0  0  0
  102.3589  109.9336  126.2919 C   0  0  0  0  0
   95.1596  105.0360  122.7124 C   0  0  0  0  0
   94.3023  103.1285  121.5563 C   0  0  0  0  0
   94.2095  103.7232  120.1448 C   0  0  0  0  0
   92.8375  105.3805  120.7870 C   0  0  0  0  0
   92.8178  104.9217  122.2510 C   0  0  0  0  0
   96.8938  105.9224  124.1479 N   0  0  0  0  0
   99.6211  107.4779  126.2360 N   0  0  0  0  0
  100.3780  108.4986  125.8495 N   0  0  0  0  0
   94.0136  104.1352  122.5886 N   0  0  0  0  0
   97.5126  105.5737  126.3781 O   0  0  0  0  0
   92.9301  104.2637  119.9418 O   0  0  0  0  0
  102.7400  109.8743  124.9924 F   0  0  0  0  0
  103.5897  111.3844  129.4175 F   0  0  0  0  0
  1  2  1  0  0  0
  2  3  1  0  0  0
  2 23  1  0  0  0
  2 18  1  0  0  0
  4  5  1  0  0  0
  7  5  1  0  0  0
  8  7  1  0  0  0
  9  8  1  0  0  0
  9 10  1  0  0  0
 10 11  1  0  0  0
 10  6  1  0  0  0
 11  9  1  0  0  0
 13 14  1  0  0  0
 15 16  1  0  0  0
 15 30  1  0  0  0
 17 29  1  0  0  0
 17 12  1  0  0  0
 18 26  1  0  0  0
 19 26  1  0  0  0
 19 20  1  0  0  0
 20 28  1  0  0  0
 21 28  1  0  0  0
 21 22  1  0  0  0
 22 26  1  0  0  0
 23  4  1  0  0  0
 25 24  1  0  0  0
 25  6  1  0  0  0
 25 12  1  0  0  0
  4 27  2  0  0  0
  5 24  2  0  0  0
  6  7  2  0  0  0
 12 13  2  0  0  0
 14 15  2  0  0  0
 16 17  2  0  0  0
M  END
> <rmsd>
0.655169606

$$$$
CHEMBL2336545_8GUT


 30 32  0  0  0  0  0  0  0  0999 V2000
  102.1365  111.5212  127.7899 C   0  0  0  0  0
  101.3746  110.3661  127.1647 C   0  0  0  0  0
  102.8878  110.0223  125.1995 C   0  0  0  0  0
  102.8863  108.6243  124.6072 C   0  0  0  0  0
  100.4633  110.6562  124.8327 C   0  0  0  0  0
   99.1810  110.9107  125.3476 C   0  0  0  0  0
   98.1108  111.1814  124.4915 C   0  0  0  0  0
   98.3069  111.1978  123.1088 C   0  0  0  0  0
   97.1430  111.4162  122.2012 C   0  0  0  0  0
   96.2517  110.6277  120.1087 C   0  0  0  0  0
   94.8880  111.2319  120.2931 C   0  0  0  0  0
   93.7158  110.6807  119.8262 C   0  0  0  0  0
   92.7296  111.5725  120.2113 C   0  0  0  0  0
   93.3672  112.6036  120.8803 C   0  0  0  0  0
   97.0228  108.2266  123.3844 C   0  0  0  0  0
   96.6421  108.1327  124.7272 C   0  0  0  0  0
   97.4957  107.5345  125.6586 C   0  0  0  0  0
   98.7352  107.0262  125.2565 C   0  0  0  0  0
  100.8510  105.9170  125.8955 C   0  0  0  0  0
   99.1103  107.1124  123.9054 C   0  0  0  0  0
   98.2566  107.7097  122.9743 C   0  0  0  0  0
   99.5831  110.9669  122.5844 C   0  0  0  0  0
  100.6534  110.6978  123.4413 C   0  0  0  0  0
  101.5624  110.3557  125.7171 N   0  0  0  0  0
   96.9147  110.2399  121.3614 N   0  0  0  0  0
   94.6562  112.3643  120.9060 O   0  0  0  0  0
   94.8375  109.6906  122.9412 O   0  0  0  0  0
   95.4469  108.0146  121.2605 O   0  0  0  0  0
   99.5701  106.4439  126.2140 O   0  0  0  0  0
   95.9865  109.0367  122.2220 S   0  0  0  0  0
  1  2  1  0  0  0
  2 24  1  0  0  0
  3 24  1  0  0  0
  3  4  1  0  0  0
  6  7  1  0  0  0
  8 22  1  0  0  0
  9  8  1  0  0  0
  9 25  1  0  0  0
 10 25  1  0  0  0
 10 11  1  0  0  0
 11 26  1  0  0  0
 12 13  1  0  0  0
 14 26  1  0  0  0
 16 17  1  0  0  0
 18 29  1  0  0  0
 18 20  1  0  0  0
 19 29  1  0  0  0
 21 15  1  0  0  0
 23  5  1  0  0  0
 24  5  1  0  0  0
 30 25  1  0  0  0
 30 15  1  0  0  0
  5  6  2  0  0  0
  7  8  2  0  0  0
 11 12  2  0  0  0
 13 14  2  0  0  0
 15 16  2  0  0  0
 17 18  2  0  0  0
 20 21  2  0  0  0
 22 23  2  0  0  0
 30 27  2  0  0  0
 30 28  2  0  0  0
M  END
> <rmsd>
0.472968549

$$$$
CHEMBL3354950_8GUQ


 24 27  0  0  0  0  0  0  0  0999 V2000
   96.2340  103.5801  124.4282 C   0  0  0  0  0
   95.7669  104.9912  124.1209 C   0  0  0  0  0
   94.7113  105.4127  125.1267 C   0  0  0  0  0
   95.1524  105.0080  122.7374 C   0  0  0  0  0
   97.7230  106.1739  125.2903 C   0  0  0  0  0
   98.8286  107.1354  125.1948 C   0  0  0  0  0
  100.0741  108.7968  124.5682 C   0  0  0  0  0
   99.1205  107.9577  124.1229 C   0  0  0  0  0
   98.2268  108.6063  123.1421 C   0  0  0  0  0
   98.8613  110.0024  122.9371 C   0  0  0  0  0
  100.0412  110.1321  123.9181 C   0  0  0  0  0
   98.7296  110.8502  124.1924 C   0  0  0  0  0
  101.2129  109.2487  126.7469 C   0  0  0  0  0
  102.3585  109.9332  126.2914 C   0  0  0  0  0
  103.1516  110.6494  127.1932 C   0  0  0  0  0
  102.8175  110.6880  128.5485 C   0  0  0  0  0
  101.6958  109.9972  129.0104 C   0  0  0  0  0
  100.9005  109.2788  128.1145 C   0  0  0  0  0
   96.8949  105.9185  124.1477 N   0  0  0  0  0
   99.6208  107.4774  126.2355 N   0  0  0  0  0
  100.3777  108.4981  125.8491 N   0  0  0  0  0
   97.5125  105.5736  126.3785 O   0  0  0  0  0
  103.5887  111.3851  129.4167 F   0  0  0  0  0
  102.7398  109.8735  124.9920 F   0  0  0  0  0
  1  2  1  0  0  0
  2  3  1  0  0  0
  2  4  1  0  0  0
  2 19  1  0  0  0
  5  6  1  0  0  0
  8  6  1  0  0  0
  9  8  1  0  0  0
 10  9  1  0  0  0
 10 11  1  0  0  0
 11 12  1  0  0  0
 11  7  1  0  0  0
 12 10  1  0  0  0
 14 15  1  0  0  0
 14 24  1  0  0  0
 16 17  1  0  0  0
 16 23  1  0  0  0
 18 13  1  0  0  0
 19  5  1  0  0  0
 21 20  1  0  0  0
 21  7  1  0  0  0
 21 13  1  0  0  0
  5 22  2  0  0  0
  6 20  2  0  0  0
  7  8  2  0  0  0
 13 14  2  0  0  0
 15 16  2  0  0  0
 17 18  2  0  0  0
M  END
> <rmsd>
0.654843211

$$$$
CHEMBL3354948_8GUQ


 29 33  0  0  0  0  0  0  0  0999 V2000
   94.7276  105.4193  125.1586 C   0  0  0  0  0
   95.7561  105.0057  124.1084 C   0  0  0  0  0
   96.2289  103.5963  124.4353 C   0  0  0  0  0
   97.7226  106.1756  125.2900 C   0  0  0  0  0
   98.8288  107.1360  125.1952 C   0  0  0  0  0
  100.0742  108.7973  124.5688 C   0  0  0  0  0
   99.1210  107.9583  124.1234 C   0  0  0  0  0
   98.2280  108.6058  123.1412 C   0  0  0  0  0
   98.8626  110.0017  122.9360 C   0  0  0  0  0
  100.0416  110.1324  123.9181 C   0  0  0  0  0
   98.7296  110.8504  124.1905 C   0  0  0  0  0
  101.2135  109.2489  126.7475 C   0  0  0  0  0
  100.9017  109.2781  128.1152 C   0  0  0  0  0
  101.6975  109.9958  129.0114 C   0  0  0  0  0
  102.8188  110.6869  128.5493 C   0  0  0  0  0
  103.1523  110.6493  127.1937 C   0  0  0  0  0
  102.3587  109.9337  126.2919 C   0  0  0  0  0
   95.1713  105.0134  122.7099 C   0  0  0  0  0
   93.8157  105.2896  122.4663 C   0  0  0  0  0
   93.3158  105.2874  121.1638 C   0  0  0  0  0
   94.1788  105.0071  120.1043 C   0  0  0  0  0
   95.9964  104.7370  121.6074 C   0  0  0  0  0
   96.8886  105.9314  124.1493 N   0  0  0  0  0
   99.6211  107.4778  126.2360 N   0  0  0  0  0
  100.3778  108.4986  125.8496 N   0  0  0  0  0
   95.4896  104.7399  120.3453 N   0  0  0  0  0
   97.5170  105.5671  126.3746 O   0  0  0  0  0
  102.7393  109.8750  124.9921 F   0  0  0  0  0
  103.5907  111.3834  129.4176 F   0  0  0  0  0
  1  2  1  0  0  0
  2  3  1  0  0  0
  2 23  1  0  0  0
  2 18  1  0  0  0
  4  5  1  0  0  0
  7  5  1  0  0  0
  8  7  1  0  0  0
  9  8  1  0  0  0
  9 10  1  0  0  0
 10 11  1  0  0  0
 10  6  1  0  0  0
 11  9  1  0  0  0
 13 14  1  0  0  0
 15 16  1  0  0  0
 15 29  1  0  0  0
 17 28  1  0  0  0
 17 12  1  0  0  0
 19 20  1  0  0  0
 21 26  1  0  0  0
 22 18  1  0  0  0
 23  4  1  0  0  0
 25 24  1  0  0  0
 25  6  1  0  0  0
 25 12  1  0  0  0
  4 27  2  0  0  0
  5 24  2  0  0  0
  6  7  2  0  0  0
 12 13  2  0  0  0
 14 15  2  0  0  0
 16 17  2  0  0  0
 18 19  2  0  0  0
 20 21  2  0  0  0
 22 26  2  0  0  0
M  END
> <rmsd>
0.655706167

$$$$
CHEMBL3986505_8GUQ


 31 33  0  0  0  0  0  0  0  0999 V2000
   98.8791  112.1886  121.7334 C   0  0  0  0  0
   99.2806  111.4118  122.9305 C   0  0  0  0  0
  100.2043  110.0586  124.2212 C   0  0  0  0  0
  101.0470  108.9213  124.7476 C   0  0  0  0  0
  102.5141  109.2577  124.5398 C   0  0  0  0  0
  100.8058  108.6654  126.2302 C   0  0  0  0  0
  100.8365  109.3628  128.6364 C   0  0  0  0  0
  101.7392  110.9224  126.9333 C   0  0  0  0  0
   99.4879  107.1282  123.7209 C   0  0  0  0  0
   99.3883  105.9177  122.8920 C   0  0  0  0  0
  100.4778  104.2122  121.6478 C   0  0  0  0  0
   99.2511  103.6174  121.3148 C   0  0  0  0  0
   98.0565  104.2429  121.7509 C   0  0  0  0  0
   98.1407  105.3745  122.5657 C   0  0  0  0  0
   96.4470  103.1839  120.1601 C   0  0  0  0  0
   96.2979  104.2341  119.0718 C   0  0  0  0  0
   99.2460  102.3544  120.4955 C   0  0  0  0  0
   98.8437  101.1769  121.3709 C   0  0  0  0  0
  100.2902  101.3583  120.9841 C   0  0  0  0  0
  100.2288  110.4580  122.9283 N   0  0  0  0  0
   99.2915  110.7350  124.9518 N   0  0  0  0  0
  101.1382  109.6354  127.2446 N   0  0  0  0  0
  100.7769  107.7122  123.9641 N   0  0  0  0  0
  100.5189  105.3336  122.4134 N   0  0  0  0  0
   98.7511  111.5706  124.1185 O   0  0  0  0  0
  100.2914  107.5689  126.5854 O   0  0  0  0  0
   98.4484  107.6534  124.2032 O   0  0  0  0  0
   96.7747  103.7875  121.4084 O   0  0  0  0  0
   95.3414  105.1619  119.4413 F   0  0  0  0  0
   95.9033  103.6190  117.9003 F   0  0  0  0  0
   97.5049  104.8758  118.8587 F   0  0  0  0  0
  1  2  1  0  0  0
  2 25  1  0  0  0
  3 20  1  0  0  0
  4  3  1  0  0  0
  4  5  1  0  0  0
  4  6  1  0  0  0
  4 23  1  0  0  0
  6 22  1  0  0  0
  7 22  1  0  0  0
  8 22  1  0  0  0
  9 10  1  0  0  0
 11 24  1  0  0  0
 12 13  1  0  0  0
 13 28  1  0  0  0
 14 10  1  0  0  0
 15 28  1  0  0  0
 15 16  1  0  0  0
 16 29  1  0  0  0
 16 30  1  0  0  0
 16 31  1  0  0  0
 17 12  1  0  0  0
 17 18  1  0  0  0
 18 19  1  0  0  0
 19 17  1  0  0  0
 21 25  1  0  0  0
 23  9  1  0  0  0
  2 20  2  0  0  0
  3 21  2  0  0  0
  6 26  2  0  0  0
  9 27  2  0  0  0
 10 24  2  0  0  0
 11 12  2  0  0  0
 13 14  2  0  0  0
M  END
> <rmsd>
0.784830153

$$$$
CHEMBL3959114_5ZTY


 27 30  0  0  0  0  0  0  0  0999 V2000
   98.4736  107.0013  119.6644 C   0  0  0  0  0
   98.1529  105.8393  120.5810 C   0  0  0  0  0
   98.5026  107.1908  121.1664 C   0  0  0  0  0
   97.2262  107.8855  121.6065 C   0  0  0  0  0
   98.1996  109.7923  122.8543 C   0  0  0  0  0
   98.4373  111.1724  122.9448 C   0  0  0  0  0
   99.1752  111.6623  124.0237 C   0  0  0  0  0
   99.6686  110.7863  124.9888 C   0  0  0  0  0
   99.4292  109.4141  124.8678 C   0  0  0  0  0
   99.9079  108.4476  125.8807 C   0  0  0  0  0
  101.9713  109.7871  126.6940 C   0  0  0  0  0
  102.5520  110.1153  128.0533 C   0  0  0  0  0
  101.6215  111.1016  127.3618 C   0  0  0  0  0
  103.0267  109.7099  125.5845 C   0  0  0  0  0
   97.9767  113.5312  121.7137 C   0  0  0  0  0
   97.1824  113.4911  120.4630 C   0  0  0  0  0
   97.1477  112.0318  120.7172 C   0  0  0  0  0
   97.4557  109.2783  121.7872 O   0  0  0  0  0
   99.3426  107.3244  125.9494 O   0  0  0  0  0
   98.6940  108.9604  123.8147 N   0  0  0  0  0
  100.9827  108.7191  126.7936 N   0  0  0  0  0
   97.9379  112.0795  121.9602 N   0  0  0  0  0
  103.7802  108.5617  125.7461 F   0  0  0  0  0
  102.4118  109.6682  124.3481 F   0  0  0  0  0
  103.8686  110.8093  125.6231 F   0  0  0  0  0
   97.9062  113.8381  119.3380 F   0  0  0  0  0
   95.9472  114.1005  120.5735 F   0  0  0  0  0
  1  2  1  0  0  0
  2  3  1  0  0  0
  3  4  1  0  0  0
  3  1  1  0  0  0
  4 18  1  0  0  0
  5 18  1  0  0  0
  5  6  1  0  0  0
  6 22  1  0  0  0
  7  8  1  0  0  0
  9 20  1  0  0  0
  9 10  1  0  0  0
 10 21  1  0  0  0
 11 21  1  0  0  0
 11 12  1  0  0  0
 11 14  1  0  0  0
 12 13  1  0  0  0
 13 11  1  0  0  0
 14 23  1  0  0  0
 14 24  1  0  0  0
 14 25  1  0  0  0
 15 22  1  0  0  0
 15 16  1  0  0  0
 16 17  1  0  0  0
 16 26  1  0  0  0
 16 27  1  0  0  0
 17 22  1  0  0  0
  5 20  2  0  0  0
  6  7  2  0  0  0
  8  9  2  0  0  0
 10 19  2  0  0  0
M  END
> <rmsd>
0.593141139

$$$$
CHEMBL3914194_8GUQ


 31 33  0  0  0  0  0  0  0  0999 V2000
  104.9097  109.8510  123.4778 C   0  0  0  0  0
  103.6267  109.3640  124.0494 C   0  0  0  0  0
  101.6463  109.2353  124.6955 C   0  0  0  0  0
  100.2143  109.5704  125.0513 C   0  0  0  0  0
   99.7681  110.8128  124.2927 C   0  0  0  0  0
  100.0143  109.8126  126.5663 C   0  0  0  0  0
  100.9960  110.7254  127.3268 C   0  0  0  0  0
  101.2475  112.0424  126.6142 C   0  0  0  0  0
  100.3848  111.0360  128.6768 C   0  0  0  0  0
  102.3163  110.0186  127.5683 C   0  0  0  0  0
   99.2530  107.1711  125.1964 C   0  0  0  0  0
   98.4075  106.1447  124.5691 C   0  0  0  0  0
   97.5444  103.9321  124.5739 C   0  0  0  0  0
   96.8235  104.1603  123.3976 C   0  0  0  0  0
   96.9103  105.4414  122.7929 C   0  0  0  0  0
   97.7092  106.4251  123.3932 C   0  0  0  0  0
   96.2728  106.9959  120.9669 C   0  0  0  0  0
   95.4423  106.9750  119.6966 C   0  0  0  0  0
   96.0176  102.9835  122.8880 C   0  0  0  0  0
   95.9045  102.9406  121.3758 C   0  0  0  0  0
   94.7215  103.3935  122.2146 C   0  0  0  0  0
  102.5049  110.1041  124.1149 N   0  0  0  0  0
  102.2298  108.0501  124.9715 N   0  0  0  0  0
   99.3355  108.4831  124.6176 N   0  0  0  0  0
   98.3085  104.9095  125.1273 N   0  0  0  0  0
  103.4521  108.1689  124.5526 O   0  0  0  0  0
   99.8967  106.8933  126.2443 O   0  0  0  0  0
   96.2151  105.7287  121.6124 O   0  0  0  0  0
   95.4848  108.2238  119.1077 F   0  0  0  0  0
   95.9545  106.0380  118.8188 F   0  0  0  0  0
   94.1305  106.6576  119.9967 F   0  0  0  0  0
  1  2  1  0  0  0
  2 26  1  0  0  0
  3 22  1  0  0  0
  4  3  1  0  0  0
  4  5  1  0  0  0
  4  6  1  0  0  0
  4 24  1  0  0  0
  6  7  1  0  0  0
  7  8  1  0  0  0
  7  9  1  0  0  0
  7 10  1  0  0  0
 11 12  1  0  0  0
 13 25  1  0  0  0
 14 15  1  0  0  0
 15 28  1  0  0  0
 16 12  1  0  0  0
 17 28  1  0  0  0
 17 18  1  0  0  0
 18 29  1  0  0  0
 18 30  1  0  0  0
 18 31  1  0  0  0
 19 14  1  0  0  0
 19 20  1  0  0  0
 20 21  1  0  0  0
 21 19  1  0  0  0
 23 26  1  0  0  0
 24 11  1  0  0  0
  2 22  2  0  0  0
  3 23  2  0  0  0
 11 27  2  0  0  0
 12 25  2  0  0  0
 13 14  2  0  0  0
 15 16  2  0  0  0
M  END
> <rmsd>
0.684593439

$$$$
CHEMBL3918668_8GUQ


 31 33  0  0  0  0  0  0  0  0999 V2000
  104.9498  109.8954  123.6363 C   0  0  0  0  0
  103.6408  109.3835  124.1200 C   0  0  0  0  0
  101.6386  109.2358  124.6922 C   0  0  0  0  0
  100.2074  109.5727  125.0507 C   0  0  0  0  0
   99.7663  110.8139  124.2885 C   0  0  0  0  0
  100.0089  109.8196  126.5654 C   0  0  0  0  0
  100.9984  110.7220  127.3266 C   0  0  0  0  0
  102.3130  110.0038  127.5641 C   0  0  0  0  0
  101.2574  112.0385  126.6168 C   0  0  0  0  0
  100.3924  111.0332  128.6782 C   0  0  0  0  0
   99.2304  107.1825  125.2159 C   0  0  0  0  0
   98.3395  106.1702  124.6296 C   0  0  0  0  0
   97.4426  103.9723  124.6785 C   0  0  0  0  0
   96.6829  104.2128  123.5240 C   0  0  0  0  0
   96.7277  105.5068  122.9445 C   0  0  0  0  0
   97.5797  106.4668  123.4949 C   0  0  0  0  0
   94.6937  105.3488  121.4900 C   0  0  0  0  0
   93.5907  105.9705  122.3344 C   0  0  0  0  0
   95.8380  103.1005  122.9622 C   0  0  0  0  0
   96.6030  101.7854  122.9049 C   0  0  0  0  0
   96.4372  102.6119  121.6529 C   0  0  0  0  0
  102.5324  110.1381  124.2268 N   0  0  0  0  0
  102.1906  108.0172  124.8677 N   0  0  0  0  0
   99.3229  108.4873  124.6227 N   0  0  0  0  0
   98.2422  104.9392  125.1982 N   0  0  0  0  0
  103.4273  108.1494  124.4974 O   0  0  0  0  0
   99.9030  106.8992  126.2442 O   0  0  0  0  0
   95.9655  105.8924  121.8311 O   0  0  0  0  0
   92.3707  105.4701  121.9231 F   0  0  0  0  0
   93.7793  105.6620  123.6687 F   0  0  0  0  0
   93.5956  107.3437  122.1739 F   0  0  0  0  0
  1  2  1  0  0  0
  2 26  1  0  0  0
  3 22  1  0  0  0
  4  3  1  0  0  0
  4  5  1  0  0  0
  4  6  1  0  0  0
  4 24  1  0  0  0
  6  7  1  0  0  0
  7  8  1  0  0  0
  7  9  1  0  0  0
  7 10  1  0  0  0
 11 12  1  0  0  0
 13 25  1  0  0  0
 14 15  1  0  0  0
 15 28  1  0  0  0
 16 12  1  0  0  0
 17 28  1  0  0  0
 17 18  1  0  0  0
 18 29  1  0  0  0
 18 30  1  0  0  0
 18 31  1  0  0  0
 19 14  1  0  0  0
 19 20  1  0  0  0
 20 21  1  0  0  0
 21 19  1  0  0  0
 23 26  1  0  0  0
 24 11  1  0  0  0
  2 22  2  0  0  0
  3 23  2  0  0  0
 11 27  2  0  0  0
 12 25  2  0  0  0
 13 14  2  0  0  0
 15 16  2  0  0  0
M  END
> <rmsd>
0.680658638

$$$$
CHEMBL259255_5ZTY


 30 33  0  0  0  0  0  0  0  0999 V2000
  100.3231  107.7468  126.4052 N   0  0  0  0  0
   99.4512  107.0730  125.6668 N   0  0  0  0  0
  101.1462  110.0791  126.5508 N   0  0  0  0  0
   97.4312  106.1637  123.7653 N   0  0  0  0  0
   96.4665  105.6540  122.8727 N   0  0  0  0  0
   98.8310  107.9461  124.8449 C   0  0  0  0  0
   99.3246  109.2214  125.0705 C   0  0  0  0  0
  100.2668  109.0547  126.0623 C   0  0  0  0  0
  102.4780  110.1535  126.3724 C   0  0  0  0  0
  102.9886  111.3009  126.9489 C   0  0  0  0  0
  101.9029  111.9652  127.5068 C   0  0  0  0  0
  100.7958  111.1850  127.2313 C   0  0  0  0  0
   99.4062  111.5127  127.6600 C   0  0  0  0  0
  103.2915  109.1534  125.6233 C   0  0  0  0  0
   98.9893  110.4827  124.3493 C   0  0  0  0  0
   97.8071  107.5474  123.8675 C   0  0  0  0  0
   95.1792  106.2966  123.1530 C   0  0  0  0  0
   94.1023  105.7341  122.2290 C   0  0  0  0  0
   94.5024  105.9683  120.7758 C   0  0  0  0  0
   95.8830  105.3779  120.5076 C   0  0  0  0  0
   96.8878  105.9548  121.5015 C   0  0  0  0  0
  101.1284  107.1280  127.4248 C   0  0  0  0  0
  101.3081  105.7377  127.4247 C   0  0  0  0  0
  102.0712  105.1213  128.4194 C   0  0  0  0  0
  102.6601  105.8854  129.4305 C   0  0  0  0  0
  102.4766  107.2780  129.4469 C   0  0  0  0  0
  101.7104  107.8873  128.4503 C   0  0  0  0  0
   97.2645  108.4126  123.1283 O   0  0  0  0  0
  103.1886  108.2867  130.6948 Cl  0  0  0  0  0
  103.6133  105.0695  130.6586 Cl  0  0  0  0  0
  1  2  1  0  0  0
  1 22  1  0  0  0
  3  9  1  0  0  0
  4  5  1  0  0  0
  6  7  1  0  0  0
  6 16  1  0  0  0
  8  3  1  0  0  0
  8  1  1  0  0  0
 10 11  1  0  0  0
 12  3  1  0  0  0
 13 12  1  0  0  0
 14  9  1  0  0  0
 15  7  1  0  0  0
 16  4  1  0  0  0
 17  5  1  0  0  0
 17 18  1  0  0  0
 18 19  1  0  0  0
 19 20  1  0  0  0
 20 21  1  0  0  0
 21  5  1  0  0  0
 23 24  1  0  0  0
 25 26  1  0  0  0
 25 30  1  0  0  0
 26 29  1  0  0  0
 27 22  1  0  0  0
  6  2  2  0  0  0
  7  8  2  0  0  0
  9 10  2  0  0  0
 11 12  2  0  0  0
 16 28  2  0  0  0
 22 23  2  0  0  0
 24 25  2  0  0  0
 26 27  2  0  0  0
M  END
> <rmsd>
0.579806685

$$$$
CHEMBL3647320_8GUR


 32 34  0  0  0  0  0  0  0  0999 V2000
  103.3108  109.5638  125.0660 C   0  0  0  0  0
  103.0654  110.3943  126.3114 C   0  0  0  0  0
  102.1805  109.6367  127.2836 C   0  0  0  0  0
  100.7302  109.6846  126.8281 C   0  0  0  0  0
   99.3134  107.7109  127.3583 C   0  0  0  0  0
   98.9145  105.9519  125.6938 C   0  0  0  0  0
   98.8502  105.6606  124.2438 C   0  0  0  0  0
   98.7956  104.3191  123.8347 C   0  0  0  0  0
   98.7307  103.9741  122.4798 C   0  0  0  0  0
   98.6776  104.9885  121.5193 C   0  0  0  0  0
   98.7175  106.3272  121.9081 C   0  0  0  0  0
   98.8037  106.6800  123.2653 C   0  0  0  0  0
   98.5707  109.0864  122.7215 C   0  0  0  0  0
   98.7725  110.4484  123.3718 C   0  0  0  0  0
  100.2361  110.6461  123.7100 C   0  0  0  0  0
   97.9377  110.5675  124.6338 C   0  0  0  0  0
   98.6274  102.5341  122.0689 C   0  0  0  0  0
   98.7835  108.3136  129.6689 C   0  0  0  0  0
   98.3816  108.5073  130.9851 C   0  0  0  0  0
   98.8291  109.6721  131.6256 C   0  0  0  0  0
  100.0156  110.3722  129.6715 C   0  0  0  0  0
   99.5903  109.2211  129.0049 C   0  0  0  0  0
   99.8929  108.8863  127.7187 N   0  0  0  0  0
   99.4352  107.2072  126.1617 N   0  0  0  0  0
   99.6247  110.5671  130.9645 N   0  0  0  0  0
   98.5632  105.0601  126.5145 O   0  0  0  0  0
   98.8208  108.0279  123.6429 O   0  0  0  0  0
   98.3796  111.4395  122.4743 O   0  0  0  0  0
   99.2950  101.7252  122.9721 F   0  0  0  0  0
   97.2958  102.1647  122.0303 F   0  0  0  0  0
   99.1846  102.3484  120.8154 F   0  0  0  0  0
   98.4122  107.0417  128.6375 S   0  0  0  0  0
  1  2  1  0  0  0
  2  3  1  0  0  0
  3  4  1  0  0  0
  4 23  1  0  0  0
  5 32  1  0  0  0
  6 24  1  0  0  0
  6  7  1  0  0  0
  8  9  1  0  0  0
 10 11  1  0  0  0
 12 27  1  0  0  0
 12  7  1  0  0  0
 13 27  1  0  0  0
 13 14  1  0  0  0
 14 15  1  0  0  0
 14 16  1  0  0  0
 14 28  1  0  0  0
 17  9  1  0  0  0
 17 29  1  0  0  0
 17 30  1  0  0  0
 17 31  1  0  0  0
 18 32  1  0  0  0
 19 20  1  0  0  0
 21 25  1  0  0  0
 22 23  1  0  0  0
 22 18  1  0  0  0
 23  5  1  0  0  0
  5 24  2  0  0  0
  6 26  2  0  0  0
  7  8  2  0  0  0
  9 10  2  0  0  0
 11 12  2  0  0  0
 18 19  2  0  0  0
 20 25  2  0  0  0
 21 22  2  0  0  0
M  END
> <rmsd>
0.698663533

$$$$
CHEMBL253472_8GUQ


 27 29  0  0  0  0  0  0  0  0999 V2000
  102.5592  109.8555  126.4514 C   0  0  0  0  0
  101.5054  109.0150  126.8613 C   0  0  0  0  0
  101.0597  109.0691  128.1871 C   0  0  0  0  0
  101.6508  109.9389  129.1139 C   0  0  0  0  0
  102.6903  110.7765  128.6891 C   0  0  0  0  0
  103.1429  110.7325  127.3690 C   0  0  0  0  0
  101.1393  109.9903  130.5035 C   0  0  0  0  0
  101.2282  110.9071  132.8391 C   0  0  0  0  0
  101.7050  109.9352  133.9150 C   0  0  0  0  0
  103.2302  109.9548  134.0028 C   0  0  0  0  0
  103.8670  109.6433  132.6357 C   0  0  0  0  0
  103.3492  110.6074  131.5732 C   0  0  0  0  0
  105.3985  109.7142  132.6935 C   0  0  0  0  0
  105.9753  109.3878  134.0772 C   0  0  0  0  0
  105.0940  108.3900  134.8220 C   0  0  0  0  0
  103.6964  108.9676  135.0812 C   0  0  0  0  0
   99.0899  109.7233  124.9164 C   0  0  0  0  0
   98.6447  110.7017  123.8360 C   0  0  0  0  0
   99.8138  111.5268  123.3308 C   0  0  0  0  0
   97.9734  109.9789  122.6829 C   0  0  0  0  0
  103.0765  109.8449  125.0531 C   0  0  0  0  0
  100.0039  109.4972  130.7501 O   0  0  0  0  0
  101.7237  106.8997  125.2497 O   0  0  0  0  0
   99.6086  107.1673  126.4458 O   0  0  0  0  0
  101.8886  110.5939  131.5748 N   0  0  0  0  0
  100.0641  108.7721  124.3969 N   0  0  0  0  0
  100.7175  107.9008  125.7427 S   0  0  0  0  0
  2  3  1  0  0  0
  4  5  1  0  0  0
  4  7  1  0  0  0
  6  1  1  0  0  0
  7 25  1  0  0  0
  8 25  1  0  0  0
  8  9  1  0  0  0
  9 10  1  0  0  0
 10 11  1  0  0  0
 11 12  1  0  0  0
 11 13  1  0  0  0
 12 25  1  0  0  0
 13 14  1  0  0  0
 14 15  1  0  0  0
 15 16  1  0  0  0
 16 10  1  0  0  0
 17 26  1  0  0  0
 17 18  1  0  0  0
 18 19  1  0  0  0
 18 20  1  0  0  0
 21  1  1  0  0  0
 27  2  1  0  0  0
 27 26  1  0  0  0
  1  2  2  0  0  0
  3  4  2  0  0  0
  5  6  2  0  0  0
  7 22  2  0  0  0
 27 23  2  0  0  0
 27 24  2  0  0  0
M  END
> <rmsd>
0.760457277

$$$$
CHEMBL244402_6PT0


 27 30  0  0  0  0  0  0  0  0999 V2000
  103.5467  109.6783  123.9390 C   0  0  0  0  0
  104.4069  110.5198  124.6474 C   0  0  0  0  0
  104.1453  110.8227  125.9854 C   0  0  0  0  0
  103.0192  110.2898  126.6189 C   0  0  0  0  0
  102.1288  109.4477  125.9048 C   0  0  0  0  0
  102.4180  109.1433  124.5644 C   0  0  0  0  0
  100.9900  108.9187  126.5631 C   0  0  0  0  0
  100.7909  109.2138  127.9196 C   0  0  0  0  0
  101.6769  110.0391  128.6136 C   0  0  0  0  0
  102.7855  110.5800  127.9636 C   0  0  0  0  0
   99.9950  108.0471  125.8905 C   0  0  0  0  0
   99.5189  108.2901  124.5062 C   0  0  0  0  0
   99.3604  107.1811  123.6671 C   0  0  0  0  0
   98.9343  107.3336  122.3490 C   0  0  0  0  0
   98.6479  108.6041  121.8330 C   0  0  0  0  0
   98.7789  109.7295  122.6628 C   0  0  0  0  0
   99.2074  109.5794  124.0089 C   0  0  0  0  0
   99.2894  110.7196  124.8254 C   0  0  0  0  0
   98.9800  111.9841  124.3216 C   0  0  0  0  0
   98.5762  112.1277  122.9942 C   0  0  0  0  0
   98.4737  111.0061  122.1696 C   0  0  0  0  0
   98.0657  107.6695  119.6118 C   0  0  0  0  0
   97.5753  108.1713  118.2634 C   0  0  0  0  0
   96.1539  108.7025  118.3601 C   0  0  0  0  0
   95.1667  107.5570  118.4825 C   0  0  0  0  0
   99.5344  107.0571  126.5221 O   0  0  0  0  0
   98.2263  108.7632  120.5068 O   0  0  0  0  0
  2  3  1  0  0  0
  4  5  1  0  0  0
  5  7  1  0  0  0
  6  1  1  0  0  0
  7 11  1  0  0  0
  8  9  1  0  0  0
 10  4  1  0  0  0
 11 12  1  0  0  0
 13 14  1  0  0  0
 15 16  1  0  0  0
 15 27  1  0  0  0
 17 18  1  0  0  0
 17 12  1  0  0  0
 19 20  1  0  0  0
 21 16  1  0  0  0
 22 27  1  0  0  0
 22 23  1  0  0  0
 23 24  1  0  0  0
 24 25  1  0  0  0
  1  2  2  0  0  0
  3  4  2  0  0  0
  5  6  2  0  0  0
  7  8  2  0  0  0
  9 10  2  0  0  0
 11 26  2  0  0  0
 12 13  2  0  0  0
 14 15  2  0  0  0
 16 17  2  0  0  0
 18 19  2  0  0  0
 20 21  2  0  0  0
M  END
> <rmsd>
0.755726159

$$$$
CHEMBL1668513_8GUQ


 26 27  0  0  0  0  0  0  0  0999 V2000
   99.6626  109.0575  134.2410 C   0  0  0  0  0
  100.8034  109.5126  133.3386 C   0  0  0  0  0
  100.3456  110.4287  132.1921 C   0  0  0  0  0
   99.3355  109.6917  131.3238 C   0  0  0  0  0
   99.6891  111.6761  132.7666 C   0  0  0  0  0
  101.5219  110.8461  131.3333 C   0  0  0  0  0
  101.3164  111.7593  130.1571 C   0  0  0  0  0
  101.6522  111.0704  128.8773 C   0  0  0  0  0
  102.9401  111.1671  128.3480 C   0  0  0  0  0
  103.2669  110.5094  127.1596 C   0  0  0  0  0
  104.6560  110.6461  126.6328 C   0  0  0  0  0
  102.2953  109.7386  126.4897 C   0  0  0  0  0
  102.6473  109.0345  125.2157 C   0  0  0  0  0
  100.9948  109.6381  127.0304 C   0  0  0  0  0
   99.0215  110.6821  124.7386 C   0  0  0  0  0
   98.3242  111.2065  123.4737 C   0  0  0  0  0
   99.1146  110.9738  122.1821 C   0  0  0  0  0
   99.5419  109.5191  121.9395 C   0  0  0  0  0
   98.5495  108.4767  122.4715 C   0  0  0  0  0
   98.4429  108.4538  124.0062 C   0  0  0  0  0
  100.6870  110.3058  128.2203 C   0  0  0  0  0
  102.6551  110.4672  131.5958 O   0  0  0  0  0
   98.4528  108.7955  127.0314 O   0  0  0  0  0
  100.1557  107.2516  126.1931 O   0  0  0  0  0
   99.7301  108.6926  126.2421 S   0  0  0  0  0
   99.4725  109.2870  124.6326 N   0  0  0  0  0
  1  2  1  0  0  0
  2  3  1  0  0  0
  3  4  1  0  0  0
  3  5  1  0  0  0
  3  6  1  0  0  0
  7  6  1  0  0  0
  7  8  1  0  0  0
  9 10  1  0  0  0
 11 10  1  0  0  0
 12 14  1  0  0  0
 13 12  1  0  0  0
 15 26  1  0  0  0
 15 16  1  0  0  0
 16 17  1  0  0  0
 17 18  1  0  0  0
 18 19  1  0  0  0
 19 20  1  0  0  0
 20 26  1  0  0  0
 21  8  1  0  0  0
 25 14  1  0  0  0
 25 26  1  0  0  0
  6 22  2  0  0  0
  8  9  2  0  0  0
 10 12  2  0  0  0
 14 21  2  0  0  0
 25 23  2  0  0  0
 25 24  2  0  0  0
M  END
> <rmsd>
0.479353309

$$$$
CHEMBL4069848_6PT0


 24 26  0  0  0  0  0  0  0  0999 V2000
   93.6728  107.1549  123.9561 C   0  0  0  0  0
   94.1018  108.4118  123.2295 C   0  0  0  0  0
   94.9803  109.2441  124.1386 C   0  0  0  0  0
   95.4179  110.4989  123.4085 C   0  0  0  0  0
   96.3270  111.3393  124.2924 C   0  0  0  0  0
   98.0880  109.6428  124.8556 C   0  0  0  0  0
   99.4643  109.5015  124.6804 C   0  0  0  0  0
   99.8847  110.6216  123.9817 C   0  0  0  0  0
   98.7751  111.3984  123.7747 C   0  0  0  0  0
   98.8423  112.6090  123.0833 C   0  0  0  0  0
  100.0974  113.0116  122.5938 C   0  0  0  0  0
  101.2380  112.2056  122.7954 C   0  0  0  0  0
  101.1389  110.9896  123.4936 C   0  0  0  0  0
  100.2653  108.3416  125.1199 C   0  0  0  0  0
  101.7234  108.4261  125.3385 C   0  0  0  0  0
  102.5401  107.4097  124.8237 C   0  0  0  0  0
  103.9232  107.4454  125.0111 C   0  0  0  0  0
  104.5033  108.4945  125.7245 C   0  0  0  0  0
  103.6993  109.5020  126.2604 C   0  0  0  0  0
  102.3055  109.4748  126.0835 C   0  0  0  0  0
  102.0123  111.5547  127.3991 C   0  0  0  0  0
   97.6853  110.8089  124.2963 N   0  0  0  0  0
   99.6857  107.2371  125.3023 O   0  0  0  0  0
  101.4925  110.4632  126.6523 O   0  0  0  0  0
  1  2  1  0  0  0
  2  3  1  0  0  0
  3  4  1  0  0  0
  4  5  1  0  0  0
  5 22  1  0  0  0
  7  8  1  0  0  0
  7 14  1  0  0  0
  9 10  1  0  0  0
  9 22  1  0  0  0
 11 12  1  0  0  0
 13  8  1  0  0  0
 14 15  1  0  0  0
 16 17  1  0  0  0
 18 19  1  0  0  0
 20 24  1  0  0  0
 20 15  1  0  0  0
 21 24  1  0  0  0
 22  6  1  0  0  0
  6  7  2  0  0  0
  8  9  2  0  0  0
 10 11  2  0  0  0
 12 13  2  0  0  0
 14 23  2  0  0  0
 15 16  2  0  0  0
 17 18  2  0  0  0
 19 20  2  0  0  0
M  END
> <rmsd>
0.868572176

$$$$
CHEMBL197955_5ZTY


 33 35  0  0  0  0  0  0  0  0999 V2000
   92.1783  106.0028  122.4219 C   0  0  0  0  0
   93.4611  108.1071  122.2171 C   0  0  0  0  0
   93.4492  109.5006  122.1850 C   0  0  0  0  0
   94.6400  110.2090  122.0260 C   0  0  0  0  0
   95.8646  109.5419  121.8937 C   0  0  0  0  0
   98.2238  110.5531  123.2224 C   0  0  0  0  0
   97.5536  110.5065  124.4493 C   0  0  0  0  0
   98.2776  110.4935  125.6442 C   0  0  0  0  0
   99.6765  110.5317  125.6222 C   0  0  0  0  0
  100.4274  110.4713  126.9241 C   0  0  0  0  0
  101.7977  111.1357  126.9136 C   0  0  0  0  0
  102.6823  108.3995  125.8105 C   0  0  0  0  0
  100.3459  110.5803  124.3891 C   0  0  0  0  0
   99.6216  110.5945  123.1946 C   0  0  0  0  0
   95.8866  108.1236  121.9321 C   0  0  0  0  0
   97.0313  105.4797  122.1587 C   0  0  0  0  0
   96.7074  104.5694  121.1460 C   0  0  0  0  0
   96.4274  103.2372  121.4640 C   0  0  0  0  0
   96.4674  102.8130  122.7956 C   0  0  0  0  0
   96.7867  103.7213  123.8095 C   0  0  0  0  0
   97.0667  105.0536  123.4916 C   0  0  0  0  0
   94.6801  107.4292  122.0889 C   0  0  0  0  0
   92.2540  107.4212  122.3767 O   0  0  0  0  0
   98.1620  110.0235  120.5978 O   0  0  0  0  0
   96.9111  111.9552  121.4001 O   0  0  0  0  0
  101.3582  106.6702  127.3451 O   0  0  0  0  0
  100.1622  107.5684  125.4155 O   0  0  0  0  0
   98.4306  107.6523  122.6969 O   0  0  0  0  0
   97.8617  107.2371  120.3499 O   0  0  0  0  0
   97.3125  110.5429  121.7232 S   0  0  0  0  0
  101.1269  107.9026  126.5183 S   0  0  0  0  0
   97.3607  107.1604  121.7647 S   0  0  0  0  0
  100.4476  109.1402  127.5439 N   0  0  0  0  0
  1 23  1  0  0  0
  2 23  1  0  0  0
  3  4  1  0  0  0
  5 15  1  0  0  0
  7  8  1  0  0  0
  9 13  1  0  0  0
 10  9  1  0  0  0
 10 11  1  0  0  0
 10 33  1  0  0  0
 14  6  1  0  0  0
 17 18  1  0  0  0
 19 20  1  0  0  0
 21 16  1  0  0  0
 22  2  1  0  0  0
 30  5  1  0  0  0
 30  6  1  0  0  0
 31 33  1  0  0  0
 31 12  1  0  0  0
 32 15  1  0  0  0
 32 16  1  0  0  0
  2  3  2  0  0  0
  4  5  2  0  0  0
  6  7  2  0  0  0
  8  9  2  0  0  0
 13 14  2  0  0  0
 15 22  2  0  0  0
 16 17  2  0  0  0
 18 19  2  0  0  0
 20 21  2  0  0  0
 30 24  2  0  0  0
 30 25  2  0  0  0
 31 26  2  0  0  0
 31 27  2  0  0  0
 32 28  2  0  0  0
 32 29  2  0  0  0
M  END
> <rmsd>
0.797532082

$$$$
CHEMBL402938_8GUR


 28 30  0  0  0  0  0  0  0  0999 V2000
   98.7118  111.8078  121.3399 C   0  0  0  0  0
   99.1424  111.8231  123.8171 C   0  0  0  0  0
   98.8620  113.2916  124.0537 C   0  0  0  0  0
   99.0498  113.6713  125.5143 C   0  0  0  0  0
   99.8076  114.1389  123.2233 C   0  0  0  0  0
   97.4319  113.6132  123.6632 C   0  0  0  0  0
   99.5001  110.8970  124.7970 C   0  0  0  0  0
   99.6398  109.7148  124.0795 C   0  0  0  0  0
  100.2636  108.2604  125.9391 C   0  0  0  0  0
  101.0890  109.1699  126.7641 C   0  0  0  0  0
  100.8030  109.2978  128.1302 C   0  0  0  0  0
  101.5565  110.1521  128.9462 C   0  0  0  0  0
  101.2644  110.2479  130.4154 C   0  0  0  0  0
  102.6367  110.8511  128.3929 C   0  0  0  0  0
  102.9435  110.7168  127.0375 C   0  0  0  0  0
  102.1773  109.8807  126.2214 C   0  0  0  0  0
   99.3592  108.9166  121.7230 C   0  0  0  0  0
   97.9658  108.3330  121.5844 C   0  0  0  0  0
   97.9474  106.9405  122.1798 C   0  0  0  0  0
   98.0265  107.1212  120.6791 C   0  0  0  0  0
   99.0703  111.2012  122.6161 N   0  0  0  0  0
   99.9385  108.5450  124.5692 N   0  0  0  0  0
   99.3746  109.9248  122.7779 N   0  0  0  0  0
   99.8551  107.1806  126.4430 O   0  0  0  0  0
  101.6231  111.4944  130.8990 F   0  0  0  0  0
  101.9840  109.2783  131.0883 F   0  0  0  0  0
   99.9143  110.0551  130.6525 F   0  0  0  0  0
  102.5253  109.7400  124.9179 F   0  0  0  0  0
  1 21  1  0  0  0
  3  2  1  0  0  0
  3  4  1  0  0  0
  3  5  1  0  0  0
  3  6  1  0  0  0
  7  8  1  0  0  0
  8 23  1  0  0  0
  9 22  1  0  0  0
  9 10  1  0  0  0
 11 12  1  0  0  0
 13 12  1  0  0  0
 13 25  1  0  0  0
 13 26  1  0  0  0
 13 27  1  0  0  0
 14 15  1  0  0  0
 16 28  1  0  0  0
 16 10  1  0  0  0
 17 23  1  0  0  0
 17 18  1  0  0  0
 18 19  1  0  0  0
 19 20  1  0  0  0
 20 18  1  0  0  0
 21  2  1  0  0  0
 23 21  1  0  0  0
  2  7  2  0  0  0
  8 22  2  0  0  0
  9 24  2  0  0  0
 10 11  2  0  0  0
 12 14  2  0  0  0
 15 16  2  0  0  0
M  END
> <rmsd>
0.548533916

$$$$
CHEMBL558801_6PT0


 26 29  0  0  0  0  0  0  0  0999 V2000
  103.5505  110.4874  125.1688 C   0  0  0  0  0
  103.0542  109.8963  124.0076 C   0  0  0  0  0
  101.8980  109.1160  124.0576 C   0  0  0  0  0
  101.2129  108.9151  125.2658 C   0  0  0  0  0
  101.7174  109.5099  126.4473 C   0  0  0  0  0
  102.8930  110.3009  126.3853 C   0  0  0  0  0
  103.3976  110.9035  127.5412 C   0  0  0  0  0
  102.7433  110.7338  128.7635 C   0  0  0  0  0
  101.5807  109.9631  128.8348 C   0  0  0  0  0
  101.0699  109.3572  127.6842 C   0  0  0  0  0
  100.8852  109.7880  130.1360 C   0  0  0  0  0
  100.0099  108.0490  125.2625 C   0  0  0  0  0
   99.0254  108.0867  124.1582 C   0  0  0  0  0
   98.6462  109.1808  123.3722 C   0  0  0  0  0
   97.4265  107.5177  122.7222 C   0  0  0  0  0
   98.2253  107.0399  123.7321 C   0  0  0  0  0
   98.1493  105.7157  124.1637 C   0  0  0  0  0
   97.2180  104.8743  123.5302 C   0  0  0  0  0
   96.3940  105.3660  122.4954 C   0  0  0  0  0
   96.4910  106.7054  122.0792 C   0  0  0  0  0
   96.9830  109.6892  121.5538 C   0  0  0  0  0
   95.7628  110.2991  122.2169 C   0  0  0  0  0
   95.0500  111.1987  121.2301 C   0  0  0  0  0
   99.1385  110.5826  123.5263 C   0  0  0  0  0
   99.8360  107.2297  126.2047 O   0  0  0  0  0
   97.6791  108.8195  122.4940 N   0  0  0  0  0
  2  3  1  0  0  0
  4  5  1  0  0  0
  4 12  1  0  0  0
  6  7  1  0  0  0
  6  1  1  0  0  0
  8  9  1  0  0  0
 10  5  1  0  0  0
 11  9  1  0  0  0
 12 13  1  0  0  0
 14 26  1  0  0  0
 16 17  1  0  0  0
 16 13  1  0  0  0
 18 19  1  0  0  0
 20 15  1  0  0  0
 21 26  1  0  0  0
 21 22  1  0  0  0
 22 23  1  0  0  0
 24 14  1  0  0  0
 26 15  1  0  0  0
  1  2  2  0  0  0
  3  4  2  0  0  0
  5  6  2  0  0  0
  7  8  2  0  0  0
  9 10  2  0  0  0
 12 25  2  0  0  0
 13 14  2  0  0  0
 15 16  2  0  0  0
 17 18  2  0  0  0
 19 20  2  0  0  0
M  END
> <rmsd>
0.525609553

$$$$
CHEMBL564888_6PT0


 29 32  0  0  0  0  0  0  0  0999 V2000
  101.0881  112.3828  119.4382 C   0  0  0  0  0
  101.0457  111.6588  120.7704 C   0  0  0  0  0
  100.9441  110.1565  120.5553 C   0  0  0  0  0
   99.5468  109.7492  120.0998 C   0  0  0  0  0
   98.5299  109.8894  121.2273 C   0  0  0  0  0
   99.2371  109.2718  123.5573 C   0  0  0  0  0
   99.4214  108.1147  124.3218 C   0  0  0  0  0
   99.0718  107.0680  123.4860 C   0  0  0  0  0
   98.7190  107.6103  122.2744 C   0  0  0  0  0
   98.3166  106.8117  121.2027 C   0  0  0  0  0
   98.2884  105.4200  121.3996 C   0  0  0  0  0
   98.6569  104.8633  122.6429 C   0  0  0  0  0
   99.0570  105.6910  123.7067 C   0  0  0  0  0
   99.8742  108.0085  125.7262 C   0  0  0  0  0
  100.7648  109.0160  126.3441 C   0  0  0  0  0
  100.4243  109.5038  127.6104 C   0  0  0  0  0
  101.2131  110.4629  128.2437 C   0  0  0  0  0
  102.3714  110.9567  127.6283 C   0  0  0  0  0
  102.7434  110.4638  126.3664 C   0  0  0  0  0
  101.9469  109.4818  125.7198 C   0  0  0  0  0
  102.3654  108.9776  124.4769 C   0  0  0  0  0
  103.5308  109.4490  123.8705 C   0  0  0  0  0
  104.3005  110.4266  124.5015 C   0  0  0  0  0
  103.9106  110.9295  125.7441 C   0  0  0  0  0
  102.8488  112.4683  129.5335 C   0  0  0  0  0
   99.4078  110.6761  124.0372 C   0  0  0  0  0
   98.8220  108.9526  122.3082 N   0  0  0  0  0
   99.4776  107.0371  126.4249 O   0  0  0  0  0
  103.1628  111.9264  128.2577 O   0  0  0  0  0
  1  2  1  0  0  0
  2  3  1  0  0  0
  3  4  1  0  0  0
  4  5  1  0  0  0
  5 27  1  0  0  0
  7  8  1  0  0  0
  7 14  1  0  0  0
  9 10  1  0  0  0
  9 27  1  0  0  0
 11 12  1  0  0  0
 13  8  1  0  0  0
 14 15  1  0  0  0
 16 17  1  0  0  0
 18 19  1  0  0  0
 18 29  1  0  0  0
 20 21  1  0  0  0
 20 15  1  0  0  0
 22 23  1  0  0  0
 24 19  1  0  0  0
 25 29  1  0  0  0
 26  6  1  0  0  0
 27  6  1  0  0  0
  6  7  2  0  0  0
  8  9  2  0  0  0
 10 11  2  0  0  0
 12 13  2  0  0  0
 14 28  2  0  0  0
 15 16  2  0  0  0
 17 18  2  0  0  0
 19 20  2  0  0  0
 21 22  2  0  0  0
 23 24  2  0  0  0
M  END
> <rmsd>
0.63354677

$$$$
CHEMBL3353424_5ZTY


 26 28  0  0  0  0  0  0  0  0999 V2000
   98.6743  113.7191  123.7131 C   0  0  0  0  0
   98.9623  113.7456  125.0792 C   0  0  0  0  0
   99.2303  111.3787  125.1152 C   0  0  0  0  0
   98.9415  111.3213  123.7389 C   0  0  0  0  0
   98.6645  112.4965  123.0407 C   0  0  0  0  0
   98.9356  110.0948  123.0898 C   0  0  0  0  0
   99.2088  108.9174  123.7923 C   0  0  0  0  0
   99.4900  109.0070  125.1768 C   0  0  0  0  0
   99.8232  110.2939  127.2353 C   0  0  0  0  0
  101.2513  110.7805  127.4689 C   0  0  0  0  0
  102.2725  109.7276  127.0714 C   0  0  0  0  0
  102.6674  109.9024  125.6178 C   0  0  0  0  0
  103.6230  108.7988  125.2181 C   0  0  0  0  0
   99.1950  107.6328  123.0474 C   0  0  0  0  0
   99.5416  105.1220  123.0035 C   0  0  0  0  0
  100.8022  105.0424  122.1265 C   0  0  0  0  0
  101.3126  103.6110  121.9122 C   0  0  0  0  0
  100.1689  102.6019  121.9559 C   0  0  0  0  0
   99.4564  102.6163  123.3154 C   0  0  0  0  0
   99.4998  103.9812  124.0156 C   0  0  0  0  0
  100.6954  101.2114  121.6711 C   0  0  0  0  0
   99.2309  112.5896  125.7445 N   0  0  0  0  0
   99.5070  110.2278  125.8051 N   0  0  0  0  0
   99.5004  106.3973  123.7024 N   0  0  0  0  0
   99.7295  107.9610  125.8421 O   0  0  0  0  0
   98.9107  107.6287  121.8177 O   0  0  0  0  0
  2 22  1  0  0  0
  3  4  1  0  0  0
  4  6  1  0  0  0
  5  1  1  0  0  0
  7  8  1  0  0  0
  7 14  1  0  0  0
  8 23  1  0  0  0
  9 23  1  0  0  0
  9 10  1  0  0  0
 10 11  1  0  0  0
 11 12  1  0  0  0
 12 13  1  0  0  0
 14 24  1  0  0  0
 15 24  1  0  0  0
 15 16  1  0  0  0
 16 17  1  0  0  0
 17 18  1  0  0  0
 18 19  1  0  0  0
 18 21  1  0  0  0
 19 20  1  0  0  0
 20 15  1  0  0  0
 23  3  1  0  0  0
  1  2  2  0  0  0
  3 22  2  0  0  0
  4  5  2  0  0  0
  6  7  2  0  0  0
  8 25  2  0  0  0
 14 26  2  0  0  0
M  END
> <rmsd>
0.764559627

$$$$
CHEMBL3960124_8GUS


 24 25  0  0  0  0  0  0  0  0999 V2000
  103.2679  108.6915  124.5930 C   0  0  0  0  0
  102.8279  108.5319  126.0375 C   0  0  0  0  0
  100.3943  108.8464  125.6533 C   0  0  0  0  0
   99.5720  109.7549  124.8292 C   0  0  0  0  0
   98.3086  109.3527  124.3830 C   0  0  0  0  0
   97.5371  110.2143  123.5908 C   0  0  0  0  0
   95.6996  108.5603  123.4160 C   0  0  0  0  0
   94.3296  108.4485  122.7721 C   0  0  0  0  0
   98.0429  111.4849  123.2636 C   0  0  0  0  0
   99.3260  111.8347  123.7040 C   0  0  0  0  0
   97.2710  112.4245  122.3796 C   0  0  0  0  0
   97.1970  113.8135  122.9952 C   0  0  0  0  0
   96.0064  112.8889  123.0840 C   0  0  0  0  0
  101.6642  110.4730  127.1859 C   0  0  0  0  0
  102.4624  110.1454  128.4383 C   0  0  0  0  0
  100.2823  110.9199  127.6447 C   0  0  0  0  0
  102.3401  111.6313  126.4754 C   0  0  0  0  0
  101.6070  109.2982  126.2884 N   0  0  0  0  0
  100.0501  110.9764  124.4689 N   0  0  0  0  0
  100.0553  107.6370  125.7692 O   0  0  0  0  0
   96.2771  109.8264  123.1208 O   0  0  0  0  0
   93.5007  109.4424  123.2586 F   0  0  0  0  0
   94.4450  108.5741  121.4001 F   0  0  0  0  0
   93.7856  107.2146  123.0722 F   0  0  0  0  0
  1  2  1  0  0  0
  2 18  1  0  0  0
  3  4  1  0  0  0
  4 19  1  0  0  0
  5  6  1  0  0  0
  6 21  1  0  0  0
  7 21  1  0  0  0
  7  8  1  0  0  0
  8 22  1  0  0  0
  8 23  1  0  0  0
  8 24  1  0  0  0
  9 10  1  0  0  0
 11  9  1  0  0  0
 11 12  1  0  0  0
 12 13  1  0  0  0
 13 11  1  0  0  0
 14 18  1  0  0  0
 14 15  1  0  0  0
 14 16  1  0  0  0
 14 17  1  0  0  0
 18  3  1  0  0  0
  3 20  2  0  0  0
  4  5  2  0  0  0
  6  9  2  0  0  0
 10 19  2  0  0  0
M  END
> <rmsd>
0.596612215

$$$$
CHEMBL3686341_8GUT


 24 25  0  0  0  0  0  0  0  0999 V2000
   96.9719  106.7616  120.0522 C   0  0  0  0  0
   97.6726  106.5468  121.1711 C   0  0  0  0  0
   98.3530  105.2554  121.4049 C   0  0  0  0  0
   99.0685  104.9959  122.5096 C   0  0  0  0  0
   98.9795  108.0393  124.7845 C   0  0  0  0  0
   98.3833  109.4058  124.8252 C   0  0  0  0  0
   98.9742  110.3000  123.7417 C   0  0  0  0  0
  100.4262  110.6470  124.0343 C   0  0  0  0  0
  101.2058  111.0458  126.3808 C   0  0  0  0  0
  102.2001  110.0317  126.4320 C   0  0  0  0  0
  102.8138  109.7282  127.6521 C   0  0  0  0  0
  102.4629  110.4124  128.8161 C   0  0  0  0  0
  101.5009  111.4198  128.7675 C   0  0  0  0  0
  100.8807  111.7326  127.5570 C   0  0  0  0  0
   98.2245  104.2224  120.3534 C   0  0  0  0  0
   97.4377  104.5279  119.1478 C   0  0  0  0  0
   96.8508  105.7209  119.0091 C   0  0  0  0  0
   99.2760  105.8982  123.6062 N   0  0  0  0  0
   98.7228  107.1839  123.6725 N   0  0  0  0  0
   99.7109  107.6501  125.7331 O   0  0  0  0  0
  100.5137  111.4237  125.2203 O   0  0  0  0  0
   98.7736  103.0944  120.4728 O   0  0  0  0  0
  103.2412  110.0165  130.3326 Cl  0  0  0  0  0
  102.7797  109.1486  125.0269 Cl  0  0  0  0  0
  2  3  1  0  0  0
  3 15  1  0  0  0
  4 18  1  0  0  0
  6  5  1  0  0  0
  6  7  1  0  0  0
  7  8  1  0  0  0
  8 21  1  0  0  0
  9 21  1  0  0  0
 10 11  1  0  0  0
 10 24  1  0  0  0
 12 13  1  0  0  0
 12 23  1  0  0  0
 14  9  1  0  0  0
 15 16  1  0  0  0
 17  1  1  0  0  0
 18 19  1  0  0  0
 19  5  1  0  0  0
  1  2  2  0  0  0
  3  4  2  0  0  0
  5 20  2  0  0  0
  9 10  2  0  0  0
 11 12  2  0  0  0
 13 14  2  0  0  0
 15 22  2  0  0  0
 16 17  2  0  0  0
M  END
> <rmsd>
0.58136183

$$$$
CHEMBL3590634_5ZTY


 24 25  0  0  0  0  0  0  0  0999 V2000
   98.3528  110.9994  123.3790 C   0  0  0  0  0
   99.3719  110.6403  124.4389 C   0  0  0  0  0
   98.7472  109.6855  125.4378 C   0  0  0  0  0
   99.7636  109.2920  126.5004 C   0  0  0  0  0
  100.4031  107.0798  125.5677 C   0  0  0  0  0
  101.2448  106.2862  124.6555 C   0  0  0  0  0
  100.8298  105.0657  124.2856 C   0  0  0  0  0
  101.0767  102.9034  123.0395 C   0  0  0  0  0
  101.1966  101.9666  124.2334 C   0  0  0  0  0
  101.8681  102.3573  121.8492 C   0  0  0  0  0
  101.8137  103.3232  120.6783 C   0  0  0  0  0
  101.3014  101.0241  121.3919 C   0  0  0  0  0
  102.5128  106.8908  124.1916 C   0  0  0  0  0
  102.9658  108.1696  124.7721 C   0  0  0  0  0
  104.2400  108.6483  124.4405 C   0  0  0  0  0
  104.7265  109.8237  125.0013 C   0  0  0  0  0
  103.9483  110.5272  125.9138 C   0  0  0  0  0
  102.6718  110.0792  126.2612 C   0  0  0  0  0
  101.9594  110.8736  127.3024 C   0  0  0  0  0
  102.1408  108.8957  125.6689 C   0  0  0  0  0
  100.7945  108.4158  125.9409 N   0  0  0  0  0
  101.5760  104.2184  123.4129 N   0  0  0  0  0
   99.3235  106.5944  126.0091 O   0  0  0  0  0
  103.2196  106.3207  123.3150 O   0  0  0  0  0
  1  2  1  0  0  0
  2  3  1  0  0  0
  3  4  1  0  0  0
  4 21  1  0  0  0
  5  6  1  0  0  0
  6 13  1  0  0  0
  7 22  1  0  0  0
  8 22  1  0  0  0
  8  9  1  0  0  0
  8 10  1  0  0  0
 10 11  1  0  0  0
 10 12  1  0  0  0
 13 14  1  0  0  0
 15 16  1  0  0  0
 17 18  1  0  0  0
 19 18  1  0  0  0
 20 21  1  0  0  0
 20 14  1  0  0  0
 21  5  1  0  0  0
  5 23  2  0  0  0
  6  7  2  0  0  0
 13 24  2  0  0  0
 14 15  2  0  0  0
 16 17  2  0  0  0
 18 20  2  0  0  0
M  END
> <rmsd>
0.574043453

$$$$
CHEMBL2380413_6PT0


 25 28  0  0  0  0  0  0  0  0999 V2000
   98.8710  111.0583  122.0729 C   0  0  0  0  0
   99.2860  110.3246  123.3301 C   0  0  0  0  0
   98.7356  111.0495  124.5434 C   0  0  0  0  0
   99.1581  110.3374  125.8189 C   0  0  0  0  0
  101.1795  111.6914  126.3800 C   0  0  0  0  0
  102.5441  111.4781  126.5650 C   0  0  0  0  0
  103.5253  112.5064  126.9718 C   0  0  0  0  0
  103.1749  113.3719  128.0176 C   0  0  0  0  0
  104.0582  114.3586  128.4591 C   0  0  0  0  0
  105.3066  114.5024  127.8544 C   0  0  0  0  0
  105.6735  113.6668  126.7986 C   0  0  0  0  0
  106.9166  113.8388  126.1832 C   0  0  0  0  0
  107.2826  113.0318  125.1036 C   0  0  0  0  0
  106.4048  112.0536  124.6314 C   0  0  0  0  0
  105.1616  111.8734  125.2428 C   0  0  0  0  0
  104.7825  112.6629  126.3401 C   0  0  0  0  0
  102.7545  110.1222  126.3817 C   0  0  0  0  0
  103.9070  109.3492  126.5193 C   0  0  0  0  0
  103.7993  107.9667  126.2983 C   0  0  0  0  0
  102.5580  107.3903  125.9619 C   0  0  0  0  0
  101.3995  108.1886  125.8473 C   0  0  0  0  0
   99.9699  106.2508  125.2839 C   0  0  0  0  0
  101.5387  109.5656  126.0729 C   0  0  0  0  0
  100.5841  110.5178  126.0626 N   0  0  0  0  0
  100.1551  107.6385  125.5242 O   0  0  0  0  0
  1  2  1  0  0  0
  2  3  1  0  0  0
  3  4  1  0  0  0
  4 24  1  0  0  0
  6  7  1  0  0  0
  6 17  1  0  0  0
  8  9  1  0  0  0
 10 11  1  0  0  0
 12 13  1  0  0  0
 14 15  1  0  0  0
 16  7  1  0  0  0
 16 11  1  0  0  0
 18 19  1  0  0  0
 20 21  1  0  0  0
 21 25  1  0  0  0
 22 25  1  0  0  0
 23 24  1  0  0  0
 23 17  1  0  0  0
 24  5  1  0  0  0
  5  6  2  0  0  0
  7  8  2  0  0  0
  9 10  2  0  0  0
 11 12  2  0  0  0
 13 14  2  0  0  0
 15 16  2  0  0  0
 17 18  2  0  0  0
 19 20  2  0  0  0
 21 23  2  0  0  0
M  END
> <rmsd>
0.879021227

$$$$
CHEMBL602591_8GUQ


 26 27  0  0  0  0  0  0  0  0999 V2000
   99.9576  111.5386  134.9946 C   0  0  0  0  0
  100.0641  111.0030  133.5720 C   0  0  0  0  0
  100.4753  112.0704  132.5515 C   0  0  0  0  0
  101.8383  112.6429  132.9260 C   0  0  0  0  0
   99.4634  113.2071  132.5387 C   0  0  0  0  0
  100.5109  111.4390  131.1818 C   0  0  0  0  0
  101.9170  110.8550  129.1129 C   0  0  0  0  0
  103.1795  110.9325  128.5232 C   0  0  0  0  0
  103.4085  110.3997  127.2523 C   0  0  0  0  0
  104.7784  110.5131  126.6723 C   0  0  0  0  0
  102.3589  109.7748  126.5502 C   0  0  0  0  0
  102.6050  109.2056  125.1872 C   0  0  0  0  0
  101.0810  109.6934  127.1429 C   0  0  0  0  0
   98.3160  109.0518  124.1385 C   0  0  0  0  0
   97.6461  109.8910  123.0385 C   0  0  0  0  0
   98.6230  110.4675  122.0083 C   0  0  0  0  0
   99.7929  111.2654  122.6017 C   0  0  0  0  0
   99.4422  112.0376  123.8804 C   0  0  0  0  0
   99.1139  111.1297  125.0776 C   0  0  0  0  0
  100.8740  110.2344  128.4158 C   0  0  0  0  0
   99.4564  110.9280  130.7133 O   0  0  0  0  0
  100.0325  107.4835  126.0844 O   0  0  0  0  0
   98.4852  109.0356  127.1734 O   0  0  0  0  0
  101.7291  111.4171  130.4186 N   0  0  0  0  0
   99.4412  109.7288  124.7987 N   0  0  0  0  0
   99.7182  108.9354  126.3163 S   0  0  0  0  0
  1  2  1  0  0  0
  2  3  1  0  0  0
  3  4  1  0  0  0
  3  5  1  0  0  0
  3  6  1  0  0  0
  6 24  1  0  0  0
  8  9  1  0  0  0
 10  9  1  0  0  0
 11 13  1  0  0  0
 12 11  1  0  0  0
 14 25  1  0  0  0
 14 15  1  0  0  0
 15 16  1  0  0  0
 16 17  1  0  0  0
 17 18  1  0  0  0
 18 19  1  0  0  0
 19 25  1  0  0  0
 20  7  1  0  0  0
 24  7  1  0  0  0
 26 13  1  0  0  0
 26 25  1  0  0  0
  6 21  2  0  0  0
  7  8  2  0  0  0
  9 11  2  0  0  0
 13 20  2  0  0  0
 26 22  2  0  0  0
 26 23  2  0  0  0
M  END
> <rmsd>
0.558325648

$$$$
CHEMBL1631297_5ZTY


 28 30  0  0  0  0  0  0  0  0999 V2000
  101.4170  107.8520  128.5418 C   0  0  0  0  0
  102.2139  107.2945  129.5433 C   0  0  0  0  0
  102.8154  106.0516  129.3434 C   0  0  0  0  0
  102.6241  105.3690  128.1408 C   0  0  0  0  0
  101.8255  105.9188  127.1330 C   0  0  0  0  0
  101.2130  107.1762  127.3282 C   0  0  0  0  0
   98.8016  107.9596  124.8420 C   0  0  0  0  0
   99.2971  109.2390  125.0484 C   0  0  0  0  0
  100.2867  109.0744  125.9944 C   0  0  0  0  0
  102.5034  110.1396  126.3842 C   0  0  0  0  0
  103.0097  111.2909  126.9567 C   0  0  0  0  0
  101.9123  111.9956  127.4351 C   0  0  0  0  0
  100.8027  111.2357  127.1171 C   0  0  0  0  0
   99.4033  111.6005  127.4790 C   0  0  0  0  0
  103.3344  109.1052  125.7038 C   0  0  0  0  0
   98.9205  110.5016  124.3500 C   0  0  0  0  0
   97.7318  107.5535  123.9169 C   0  0  0  0  0
   95.9874  108.2421  122.1627 C   0  0  0  0  0
   94.7985  107.6271  122.8783 C   0  0  0  0  0
   95.5458  109.5368  121.5142 C   0  0  0  0  0
   96.4786  107.2992  121.0795 C   0  0  0  0  0
  100.3727  107.7664  126.3212 N   0  0  0  0  0
   99.4657  107.0885  125.6320 N   0  0  0  0  0
  101.1613  110.1042  126.4827 N   0  0  0  0  0
   97.0596  108.5310  123.1114 N   0  0  0  0  0
   97.4100  106.3370  123.8398 O   0  0  0  0  0
  101.6778  105.0299  125.6250 Cl  0  0  0  0  0
  103.8162  105.3521  130.5969 Cl  0  0  0  0  0
  2  3  1  0  0  0
  3 28  1  0  0  0
  4  5  1  0  0  0
  5 27  1  0  0  0
  6 22  1  0  0  0
  6  1  1  0  0  0
  7  8  1  0  0  0
  7 17  1  0  0  0
  9 24  1  0  0  0
  9 22  1  0  0  0
 11 12  1  0  0  0
 13 24  1  0  0  0
 14 13  1  0  0  0
 15 10  1  0  0  0
 16  8  1  0  0  0
 17 25  1  0  0  0
 18 25  1  0  0  0
 18 19  1  0  0  0
 18 20  1  0  0  0
 18 21  1  0  0  0
 22 23  1  0  0  0
 24 10  1  0  0  0
  1  2  2  0  0  0
  3  4  2  0  0  0
  5  6  2  0  0  0
  7 23  2  0  0  0
  8  9  2  0  0  0
 10 11  2  0  0  0
 12 13  2  0  0  0
 17 26  2  0  0  0
M  END
> <rmsd>
0.623050511

$$$$
CHEMBL552150_6PT0


 29 32  0  0  0  0  0  0  0  0999 V2000
  103.5516  110.4795  125.1414 C   0  0  0  0  0
  103.0501  109.8600  123.9949 C   0  0  0  0  0
  101.8968  109.0810  124.0573 C   0  0  0  0  0
  101.2106  108.9034  125.2653 C   0  0  0  0  0
  101.7114  109.5161  126.4383 C   0  0  0  0  0
  102.8886  110.3093  126.3727 C   0  0  0  0  0
  103.3744  110.9213  127.5393 C   0  0  0  0  0
  102.7082  110.7633  128.7553 C   0  0  0  0  0
  101.5472  109.9931  128.8205 C   0  0  0  0  0
  101.0517  109.3760  127.6707 C   0  0  0  0  0
  100.0038  108.0437  125.2703 C   0  0  0  0  0
   99.0030  108.1006  124.1816 C   0  0  0  0  0
   98.6322  109.2021  123.4018 C   0  0  0  0  0
   97.3803  107.5591  122.7618 C   0  0  0  0  0
   98.1830  107.0670  123.7616 C   0  0  0  0  0
   98.0969  105.7412  124.1865 C   0  0  0  0  0
   97.1515  104.9131  123.5566 C   0  0  0  0  0
   96.3249  105.4187  122.5306 C   0  0  0  0  0
   96.4330  106.7591  122.1207 C   0  0  0  0  0
   96.9645  109.7360  121.5893 C   0  0  0  0  0
   95.9241  110.5904  122.2980 C   0  0  0  0  0
   94.7243  109.7511  122.6925 C   0  0  0  0  0
   99.1576  110.5932  123.5450 C   0  0  0  0  0
  104.7857  111.3233  125.0213 C   0  0  0  0  0
  104.5012  112.6459  124.3172 C   0  0  0  0  0
  103.8156  113.6372  125.2443 C   0  0  0  0  0
  102.3089  113.4891  125.1564 C   0  0  0  0  0
   99.8398  107.2153  126.2064 O   0  0  0  0  0
   97.6465  108.8588  122.5365 N   0  0  0  0  0
  2  3  1  0  0  0
  4  5  1  0  0  0
  4 11  1  0  0  0
  6  7  1  0  0  0
  6  1  1  0  0  0
  8  9  1  0  0  0
 10  5  1  0  0  0
 11 12  1  0  0  0
 13 29  1  0  0  0
 15 16  1  0  0  0
 15 12  1  0  0  0
 17 18  1  0  0  0
 19 14  1  0  0  0
 20 29  1  0  0  0
 20 21  1  0  0  0
 21 22  1  0  0  0
 23 13  1  0  0  0
 24  1  1  0  0  0
 24 25  1  0  0  0
 25 26  1  0  0  0
 26 27  1  0  0  0
 29 14  1  0  0  0
  1  2  2  0  0  0
  3  4  2  0  0  0
  5  6  2  0  0  0
  7  8  2  0  0  0
  9 10  2  0  0  0
 11 28  2  0  0  0
 12 13  2  0  0  0
 14 15  2  0  0  0
 16 17  2  0  0  0
 18 19  2  0  0  0
M  END
> <rmsd>
0.507382393

$$$$
CHEMBL3923684_8GUS


 23 25  0  0  0  0  0  0  0  0999 V2000
  101.3159  111.0546  127.7435 C   0  0  0  0  0
  101.8413  109.6583  127.4681 C   0  0  0  0  0
  100.4006  108.8984  125.6185 C   0  0  0  0  0
   99.5910  109.7386  124.7194 C   0  0  0  0  0
   99.3301  111.7709  123.5154 C   0  0  0  0  0
   98.0743  111.3691  123.0412 C   0  0  0  0  0
   97.5879  110.0994  123.4005 C   0  0  0  0  0
   98.3526  109.2884  124.2509 C   0  0  0  0  0
   95.7590  108.4192  123.2650 C   0  0  0  0  0
   95.1405  108.5214  124.6470 C   0  0  0  0  0
   94.1842  107.3652  124.8474 C   0  0  0  0  0
   93.6485  108.7406  124.5094 C   0  0  0  0  0
   97.3105  112.2543  122.0961 C   0  0  0  0  0
   96.0130  112.7145  122.7408 C   0  0  0  0  0
   97.1836  113.6643  122.6525 C   0  0  0  0  0
  102.9036  109.0363  125.2557 C   0  0  0  0  0
  102.6113  109.0327  123.7619 C   0  0  0  0  0
  103.9818  110.0790  125.5046 C   0  0  0  0  0
  103.4445  107.6716  125.6429 C   0  0  0  0  0
  101.6974  109.3392  126.0496 N   0  0  0  0  0
  100.0481  110.9618  124.3376 N   0  0  0  0  0
   99.9499  107.7961  126.0336 O   0  0  0  0  0
   96.3544  109.6600  122.9003 O   0  0  0  0  0
  1  2  1  0  0  0
  2 20  1  0  0  0
  3  4  1  0  0  0
  5 21  1  0  0  0
  6  7  1  0  0  0
  7 23  1  0  0  0
  8  4  1  0  0  0
  9 23  1  0  0  0
  9 10  1  0  0  0
 10 11  1  0  0  0
 11 12  1  0  0  0
 12 10  1  0  0  0
 13  6  1  0  0  0
 13 14  1  0  0  0
 14 15  1  0  0  0
 15 13  1  0  0  0
 16 20  1  0  0  0
 16 17  1  0  0  0
 16 18  1  0  0  0
 16 19  1  0  0  0
 20  3  1  0  0  0
  3 22  2  0  0  0
  4 21  2  0  0  0
  5  6  2  0  0  0
  7  8  2  0  0  0
M  END
> <rmsd>
0.642322004

$$$$
CHEMBL552088_6PT0


 28 31  0  0  0  0  0  0  0  0999 V2000
  101.9877  108.7519  133.2512 C   0  0  0  0  0
  101.1234  109.0072  132.0307 C   0  0  0  0  0
  101.8141  109.9724  131.0844 C   0  0  0  0  0
  102.9302  109.2691  130.3303 C   0  0  0  0  0
  103.6093  110.2293  129.3658 C   0  0  0  0  0
  101.6312  111.0390  128.0527 C   0  0  0  0  0
  101.2054  111.0127  126.7251 C   0  0  0  0  0
   99.9637  111.6272  126.2142 C   0  0  0  0  0
   99.3576  111.2241  124.9277 C   0  0  0  0  0
   99.0366  112.2286  124.0048 C   0  0  0  0  0
   98.4689  111.9106  122.7694 C   0  0  0  0  0
   98.2052  110.5807  122.4408 C   0  0  0  0  0
   98.4981  109.5632  123.3503 C   0  0  0  0  0
   98.2132  108.2368  123.0182 C   0  0  0  0  0
   98.4796  107.2132  123.9299 C   0  0  0  0  0
   99.0293  107.5077  125.1871 C   0  0  0  0  0
   99.0469  105.1300  125.8685 C   0  0  0  0  0
   99.3150  108.8347  125.5188 C   0  0  0  0  0
   99.0685  109.8756  124.6092 C   0  0  0  0  0
  102.1918  110.3496  126.0131 C   0  0  0  0  0
  102.3220  110.0750  124.6513 C   0  0  0  0  0
  103.4743  109.3891  124.2297 C   0  0  0  0  0
  104.4623  109.0067  125.1620 C   0  0  0  0  0
  104.3118  109.3086  126.5269 C   0  0  0  0  0
  103.1559  109.9872  126.9165 C   0  0  0  0  0
  102.8178  110.3934  128.1524 N   0  0  0  0  0
   99.4107  112.5371  126.8888 O   0  0  0  0  0
   99.3016  106.5049  126.1215 O   0  0  0  0  0
  1  2  1  0  0  0
  2  3  1  0  0  0
  3  4  1  0  0  0
  4  5  1  0  0  0
  5 26  1  0  0  0
  7  8  1  0  0  0
  7 20  1  0  0  0
  8  9  1  0  0  0
 10 11  1  0  0  0
 12 13  1  0  0  0
 14 15  1  0  0  0
 16 28  1  0  0  0
 16 18  1  0  0  0
 17 28  1  0  0  0
 19  9  1  0  0  0
 19 13  1  0  0  0
 21 22  1  0  0  0
 23 24  1  0  0  0
 25 26  1  0  0  0
 25 20  1  0  0  0
 26  6  1  0  0  0
  6  7  2  0  0  0
  8 27  2  0  0  0
  9 10  2  0  0  0
 11 12  2  0  0  0
 13 14  2  0  0  0
 15 16  2  0  0  0
 18 19  2  0  0  0
 20 21  2  0  0  0
 22 23  2  0  0  0
 24 25  2  0  0  0
M  END
> <rmsd>
0.643671811

$$$$
CHEMBL2206856_6PT0


 28 31  0  0  0  0  0  0  0  0999 V2000
   93.1383  110.7191  121.2721 C   0  0  0  0  0
   93.9053  109.5611  121.8819 C   0  0  0  0  0
   94.9185  110.0703  122.8958 C   0  0  0  0  0
   96.1141  110.7213  122.2106 C   0  0  0  0  0
   96.9956  109.6818  121.5279 C   0  0  0  0  0
   98.6317  109.1906  123.3885 C   0  0  0  0  0
   99.1449  110.5863  123.5304 C   0  0  0  0  0
   99.0134  108.0935  124.1691 C   0  0  0  0  0
  100.0057  108.0491  125.2662 C   0  0  0  0  0
  101.2096  108.9135  125.2657 C   0  0  0  0  0
  101.8936  109.1067  124.0569 C   0  0  0  0  0
  103.0501  109.8844  124.0020 C   0  0  0  0  0
  103.5517  110.4823  125.1575 C   0  0  0  0  0
  102.8924  110.3035  126.3812 C   0  0  0  0  0
  103.3902  110.9076  127.5430 C   0  0  0  0  0
  102.7316  110.7413  128.7628 C   0  0  0  0  0
  101.5691  109.9720  128.8309 C   0  0  0  0  0
  101.0630  109.3640  127.6800 C   0  0  0  0  0
  101.7147  109.5130  126.4445 C   0  0  0  0  0
   98.2189  107.0459  123.7350 C   0  0  0  0  0
   98.1556  105.7162  124.1515 C   0  0  0  0  0
   97.2363  104.8719  123.5043 C   0  0  0  0  0
   96.4132  105.3657  122.4699 C   0  0  0  0  0
   96.4985  106.7103  122.0684 C   0  0  0  0  0
   97.4207  107.5259  122.7261 C   0  0  0  0  0
   97.6585  108.8328  122.5139 N   0  0  0  0  0
   99.8375  107.2247  126.2051 O   0  0  0  0  0
  104.6780  111.2352  125.0785 F   0  0  0  0  0
  1  2  1  0  0  0
  2  3  1  0  0  0
  3  4  1  0  0  0
  4  5  1  0  0  0
  5 26  1  0  0  0
  7  6  1  0  0  0
  8  9  1  0  0  0
  8 20  1  0  0  0
  9 10  1  0  0  0
 11 12  1  0  0  0
 13 28  1  0  0  0
 13 14  1  0  0  0
 15 16  1  0  0  0
 17 18  1  0  0  0
 19 10  1  0  0  0
 19 14  1  0  0  0
 21 22  1  0  0  0
 23 24  1  0  0  0
 25 26  1  0  0  0
 25 20  1  0  0  0
 26  6  1  0  0  0
  6  8  2  0  0  0
  9 27  2  0  0  0
 10 11  2  0  0  0
 12 13  2  0  0  0
 14 15  2  0  0  0
 16 17  2  0  0  0
 18 19  2  0  0  0
 20 21  2  0  0  0
 22 23  2  0  0  0
 24 25  2  0  0  0
M  END
> <rmsd>
0.520410836

$$$$
CHEMBL3920679_8GUQ


 24 25  0  0  0  0  0  0  0  0999 V2000
  103.2610  109.4695  125.0669 C   0  0  0  0  0
  102.3780  110.5490  125.6816 C   0  0  0  0  0
  103.0776  111.8761  125.6796 C   0  0  0  0  0
  103.1144  114.2189  124.9305 C   0  0  0  0  0
  101.7861  110.1395  127.0522 C   0  0  0  0  0
  102.8991  109.8565  128.0503 C   0  0  0  0  0
  100.9312  111.2502  127.6438 C   0  0  0  0  0
   99.9545  108.5901  125.9696 C   0  0  0  0  0
   99.4695  109.5088  124.9163 C   0  0  0  0  0
   98.5990  109.7731  122.7155 C   0  0  0  0  0
   98.5083  111.1548  122.8860 C   0  0  0  0  0
   98.8872  111.7220  124.1083 C   0  0  0  0  0
   99.3640  110.8866  125.1280 C   0  0  0  0  0
   99.0163  113.7484  125.5380 C   0  0  0  0  0
   97.7439  113.7231  126.3642 C   0  0  0  0  0
   98.0012  114.4215  127.6830 C   0  0  0  0  0
   97.9762  112.9103  127.6210 C   0  0  0  0  0
  104.1528  112.0329  126.3220 O   0  0  0  0  0
  102.5200  112.9306  124.9565 O   0  0  0  0  0
   99.4815  107.4236  125.9984 O   0  0  0  0  0
   98.7930  113.1075  124.2872 O   0  0  0  0  0
  100.9775  108.9246  126.9272 N   0  0  0  0  0
   99.0670  108.9894  123.7230 N   0  0  0  0  0
   97.9075  112.1488  121.5713 Cl  0  0  0  0  0
  2  1  1  0  0  0
  2  3  1  0  0  0
  2  5  1  0  0  0
  3 19  1  0  0  0
  4 19  1  0  0  0
  5  6  1  0  0  0
  5  7  1  0  0  0
  5 22  1  0  0  0
  8  9  1  0  0  0
 10 23  1  0  0  0
 11 12  1  0  0  0
 11 24  1  0  0  0
 12 21  1  0  0  0
 13  9  1  0  0  0
 14 21  1  0  0  0
 14 15  1  0  0  0
 15 16  1  0  0  0
 16 17  1  0  0  0
 17 15  1  0  0  0
 22  8  1  0  0  0
  3 18  2  0  0  0
  8 20  2  0  0  0
  9 23  2  0  0  0
 10 11  2  0  0  0
 12 13  2  0  0  0
M  END
> <rmsd>
0.555485964

$$$$
CHEMBL3949331_6KPF


 29 32  0  0  0  0  0  0  0  0999 V2000
  101.8480  113.3876  128.7368 C   0  0  0  0  0
  101.9157  112.0523  128.0869 C   0  0  0  0  0
  101.8710  110.5078  126.6889 C   0  0  0  0  0
  101.8060  109.7312  125.4002 C   0  0  0  0  0
  103.2311  109.4461  124.9544 C   0  0  0  0  0
  101.1052  110.5391  124.2961 C   0  0  0  0  0
   99.6338  110.7964  124.6006 C   0  0  0  0  0
   98.7778  110.0591  123.5921 C   0  0  0  0  0
   99.0141  111.5471  123.4410 C   0  0  0  0  0
  100.8447  107.4726  124.6307 C   0  0  0  0  0
   99.8231  106.4445  124.8740 C   0  0  0  0  0
   98.2663  105.4318  126.3539 C   0  0  0  0  0
   97.8123  104.5655  125.3464 C   0  0  0  0  0
   98.4328  104.6287  124.0722 C   0  0  0  0  0
   99.4218  105.5876  123.8450 C   0  0  0  0  0
   97.6080  102.4552  123.1410 C   0  0  0  0  0
   98.7327  101.5174  123.5377 C   0  0  0  0  0
   97.0161  101.9939  121.8247 C   0  0  0  0  0
   96.6960  103.6021  125.6527 C   0  0  0  0  0
   95.4192  104.0724  124.9755 C   0  0  0  0  0
   95.5850  104.2530  126.4658 C   0  0  0  0  0
  101.6979  111.8465  126.7761 N   0  0  0  0  0
  102.1938  109.9515  127.8763 N   0  0  0  0  0
  101.0959  108.4706  125.6315 N   0  0  0  0  0
   99.2439  106.3390  126.0993 N   0  0  0  0  0
  102.2076  110.9420  128.7159 O   0  0  0  0  0
  101.4723  107.4951  123.5364 O   0  0  0  0  0
   98.1093  103.7805  123.0018 O   0  0  0  0  0
   95.9227  102.7768  121.5031 F   0  0  0  0  0
  1  2  1  0  0  0
  2 26  1  0  0  0
  3 22  1  0  0  0
  4  3  1  0  0  0
  4  5  1  0  0  0
  4  6  1  0  0  0
  4 24  1  0  0  0
  6  7  1  0  0  0
  7  8  1  0  0  0
  8  9  1  0  0  0
  9  7  1  0  0  0
 10 11  1  0  0  0
 12 25  1  0  0  0
 13 14  1  0  0  0
 14 28  1  0  0  0
 15 11  1  0  0  0
 16 28  1  0  0  0
 16 17  1  0  0  0
 16 18  1  0  0  0
 18 29  1  0  0  0
 19 13  1  0  0  0
 19 20  1  0  0  0
 20 21  1  0  0  0
 21 19  1  0  0  0
 23 26  1  0  0  0
 24 10  1  0  0  0
  2 22  2  0  0  0
  3 23  2  0  0  0
 10 27  2  0  0  0
 11 25  2  0  0  0
 12 13  2  0  0  0
 14 15  2  0  0  0
M  END
> <rmsd>
0.657868624

$$$$
CHEMBL3354954_8GUQ


 26 30  0  0  0  0  0  0  0  0999 V2000
   95.7760  104.9822  124.1473 C   0  0  0  0  0
   94.6274  105.4492  125.0166 C   0  0  0  0  0
   93.7671  105.6103  123.7750 C   0  0  0  0  0
   94.9211  105.1360  122.9080 C   0  0  0  0  0
   97.7226  106.1751  125.2907 C   0  0  0  0  0
   98.8288  107.1357  125.1953 C   0  0  0  0  0
  100.0746  108.7968  124.5687 C   0  0  0  0  0
   99.1210  107.9578  124.1233 C   0  0  0  0  0
   98.2273  108.6064  123.1423 C   0  0  0  0  0
   98.8620  110.0023  122.9373 C   0  0  0  0  0
  100.0418  110.1320  123.9184 C   0  0  0  0  0
   98.7303  110.8502  124.1925 C   0  0  0  0  0
  101.2133  109.2488  126.7475 C   0  0  0  0  0
  100.9009  109.2787  128.1150 C   0  0  0  0  0
  101.6963  109.9969  129.0111 C   0  0  0  0  0
  102.8179  110.6877  128.5492 C   0  0  0  0  0
  103.1521  110.6493  127.1938 C   0  0  0  0  0
  102.3589  109.9332  126.2920 C   0  0  0  0  0
   96.1874  103.5392  124.4184 C   0  0  0  0  0
   96.8950  105.9205  124.1501 N   0  0  0  0  0
   99.6210  107.4776  126.2361 N   0  0  0  0  0
  100.3780  108.4981  125.8496 N   0  0  0  0  0
   97.5096  105.5755  126.3789 O   0  0  0  0  0
   97.1031  103.1066  123.4576 O   0  0  0  0  0
  102.7400  109.8737  124.9925 F   0  0  0  0  0
  103.5893  111.3846  129.4174 F   0  0  0  0  0
  1  2  1  0  0  0
  1 20  1  0  0  0
  1 19  1  0  0  0
  2  3  1  0  0  0
  3  4  1  0  0  0
  4  1  1  0  0  0
  5  6  1  0  0  0
  8  6  1  0  0  0
  9  8  1  0  0  0
 10  9  1  0  0  0
 10 11  1  0  0  0
 11 12  1  0  0  0
 11  7  1  0  0  0
 12 10  1  0  0  0
 14 15  1  0  0  0
 16 17  1  0  0  0
 16 26  1  0  0  0
 18 25  1  0  0  0
 18 13  1  0  0  0
 19 24  1  0  0  0
 20  5  1  0  0  0
 22 21  1  0  0  0
 22  7  1  0  0  0
 22 13  1  0  0  0
  5 23  2  0  0  0
  6 21  2  0  0  0
  7  8  2  0  0  0
 13 14  2  0  0  0
 15 16  2  0  0  0
 17 18  2  0  0  0
M  END
> <rmsd>
0.655186892

$$$$
CHEMBL3104358_6KPF


 27 29  0  0  0  0  0  0  0  0999 V2000
   97.5677  112.4077  125.0610 C   0  0  0  0  0
   98.1782  111.0244  124.9824 C   0  0  0  0  0
   98.6244  110.7449  123.5596 C   0  0  0  0  0
   99.2643  109.3711  123.4717 C   0  0  0  0  0
  100.7054  108.5090  125.2733 C   0  0  0  0  0
  101.9494  108.6394  126.0908 C   0  0  0  0  0
  103.1894  108.5939  125.2132 C   0  0  0  0  0
  101.9203  109.8772  126.9345 C   0  0  0  0  0
  101.8982  111.1529  126.3564 C   0  0  0  0  0
  101.8612  112.2962  127.1579 C   0  0  0  0  0
  101.8759  112.1766  128.5651 C   0  0  0  0  0
  101.8249  110.8857  129.1375 C   0  0  0  0  0
  101.8683  109.7514  128.3233 C   0  0  0  0  0
  101.4258  111.7917  131.4109 C   0  0  0  0  0
   99.9163  111.9935  131.4595 C   0  0  0  0  0
  101.9086  111.4113  132.7988 C   0  0  0  0  0
  102.1447  113.0637  130.9336 C   0  0  0  0  0
  101.8925  114.2845  131.8334 C   0  0  0  0  0
  102.3818  115.5734  131.2186 C   0  0  0  0  0
  102.7849  115.6712  129.9415 C   0  0  0  0  0
  103.2671  116.9845  129.4331 C   0  0  0  0  0
  102.8306  114.4736  129.0291 C   0  0  0  0  0
  101.8326  113.3981  129.4656 C   0  0  0  0  0
  100.4898  109.3640  124.1902 O   0  0  0  0  0
   99.8419  107.6499  125.5967 O   0  0  0  0  0
  101.7985  113.5408  126.5428 O   0  0  0  0  0
  101.7274  110.7170  130.5231 O   0  0  0  0  0
  1  2  1  0  0  0
  2  3  1  0  0  0
  3  4  1  0  0  0
  4 24  1  0  0  0
  5 24  1  0  0  0
  6  5  1  0  0  0
  6  7  1  0  0  0
  6  8  1  0  0  0
  9 10  1  0  0  0
 10 26  1  0  0  0
 11 12  1  0  0  0
 12 27  1  0  0  0
 13  8  1  0  0  0
 14 27  1  0  0  0
 14 15  1  0  0  0
 14 16  1  0  0  0
 17 14  1  0  0  0
 17 18  1  0  0  0
 18 19  1  0  0  0
 21 20  1  0  0  0
 22 20  1  0  0  0
 23 22  1  0  0  0
 23 17  1  0  0  0
 23 11  1  0  0  0
  5 25  2  0  0  0
  8  9  2  0  0  0
 10 11  2  0  0  0
 12 13  2  0  0  0
 19 20  2  0  0  0
M  END
> <rmsd>
0.756023943

$$$$
CHEMBL1631294_5ZTY


 26 28  0  0  0  0  0  0  0  0999 V2000
   98.0824  107.1635  123.2839 C   0  0  0  0  0
   98.9147  107.4016  124.4991 C   0  0  0  0  0
   99.2108  106.5039  125.5155 C   0  0  0  0  0
   98.8101  105.0904  125.6066 C   0  0  0  0  0
   97.5869  103.0964  124.5465 C   0  0  0  0  0
   98.7762  102.1537  124.5751 C   0  0  0  0  0
   96.6846  102.8204  125.7353 C   0  0  0  0  0
   96.8030  102.8492  123.2754 C   0  0  0  0  0
  100.8871  109.3171  126.8547 C   0  0  0  0  0
  100.4594  109.6530  128.1455 C   0  0  0  0  0
  101.1922  110.5551  128.9204 C   0  0  0  0  0
  102.3634  111.1211  128.4124 C   0  0  0  0  0
  102.8104  110.7744  127.1352 C   0  0  0  0  0
  102.0822  109.8724  126.3536 C   0  0  0  0  0
   99.5016  108.5892  124.9007 C   0  0  0  0  0
   99.5375  111.0698  124.7881 C   0  0  0  0  0
   99.3542  112.0436  123.8269 C   0  0  0  0  0
   99.0912  111.3831  122.6387 C   0  0  0  0  0
   99.1244  110.0320  122.9210 C   0  0  0  0  0
   99.1542  104.4142  126.6134 O   0  0  0  0  0
   98.0375  104.4857  124.5606 N   0  0  0  0  0
   99.9412  107.1252  126.4647 N   0  0  0  0  0
  100.1208  108.3818  126.0865 N   0  0  0  0  0
   99.4012  109.8568  124.2248 N   0  0  0  0  0
  103.2804  112.2526  129.3824 Cl  0  0  0  0  0
  102.7176  109.4262  124.7780 Cl  0  0  0  0  0
  1  2  1  0  0  0
  2  3  1  0  0  0
  3  4  1  0  0  0
  4 21  1  0  0  0
  5 21  1  0  0  0
  5  6  1  0  0  0
  5  7  1  0  0  0
  5  8  1  0  0  0
 10 11  1  0  0  0
 12 25  1  0  0  0
 12 13  1  0  0  0
 14 26  1  0  0  0
 14  9  1  0  0  0
 15 24  1  0  0  0
 17 18  1  0  0  0
 19 24  1  0  0  0
 23 22  1  0  0  0
 23  9  1  0  0  0
 23 15  1  0  0  0
 24 16  1  0  0  0
  3 22  2  0  0  0
  4 20  2  0  0  0
  9 10  2  0  0  0
 11 12  2  0  0  0
 13 14  2  0  0  0
 15  2  2  0  0  0
 16 17  2  0  0  0
 18 19  2  0  0  0
M  END
> <rmsd>
0.492901742

$$$$
CHEMBL2206839_6PT0


 28 31  0  0  0  0  0  0  0  0999 V2000
   93.8448  111.8164  124.7411 C   0  0  0  0  0
   93.9630  110.9658  123.4943 C   0  0  0  0  0
   95.4242  110.7909  123.1409 C   0  0  0  0  0
   95.5443  109.9312  121.8975 C   0  0  0  0  0
   97.0081  109.7143  121.5447 C   0  0  0  0  0
   98.6350  109.1932  123.3895 C   0  0  0  0  0
   99.1471  110.5889  123.5340 C   0  0  0  0  0
   99.0103  108.0960  124.1730 C   0  0  0  0  0
  100.0052  108.0481  125.2675 C   0  0  0  0  0
  101.2102  108.9112  125.2653 C   0  0  0  0  0
  101.8939  109.0995  124.0570 C   0  0  0  0  0
  103.0500  109.8759  123.9997 C   0  0  0  0  0
  103.5549  110.4797  125.1508 C   0  0  0  0  0
  102.8935  110.3055  126.3787 C   0  0  0  0  0
  103.3843  110.9102  127.5440 C   0  0  0  0  0
  102.7222  110.7464  128.7619 C   0  0  0  0  0
  101.5601  109.9774  128.8274 C   0  0  0  0  0
  101.0590  109.3679  127.6756 C   0  0  0  0  0
  101.7146  109.5146  126.4420 C   0  0  0  0  0
   98.2049  107.0537  123.7464 C   0  0  0  0  0
   98.1351  105.7252  124.1657 C   0  0  0  0  0
   97.2090  104.8849  123.5231 C   0  0  0  0  0
   96.3862  105.3811  122.4896 C   0  0  0  0  0
   96.4782  106.7244  122.0852 C   0  0  0  0  0
   97.4051  107.5373  122.7401 C   0  0  0  0  0
   97.6550  108.8425  122.5220 N   0  0  0  0  0
   99.8385  107.2228  126.2057 O   0  0  0  0  0
  105.3154  111.6412  124.9599 I   0  0  0  0  0
  1  2  1  0  0  0
  2  3  1  0  0  0
  3  4  1  0  0  0
  4  5  1  0  0  0
  5 26  1  0  0  0
  7  6  1  0  0  0
  8  9  1  0  0  0
  8 20  1  0  0  0
  9 10  1  0  0  0
 11 12  1  0  0  0
 13 28  1  0  0  0
 13 14  1  0  0  0
 15 16  1  0  0  0
 17 18  1  0  0  0
 19 10  1  0  0  0
 19 14  1  0  0  0
 21 22  1  0  0  0
 23 24  1  0  0  0
 25 26  1  0  0  0
 25 20  1  0  0  0
 26  6  1  0  0  0
  6  8  2  0  0  0
  9 27  2  0  0  0
 10 11  2  0  0  0
 12 13  2  0  0  0
 14 15  2  0  0  0
 16 17  2  0  0  0
 18 19  2  0  0  0
 20 21  2  0  0  0
 22 23  2  0  0  0
 24 25  2  0  0  0
M  END
> <rmsd>
0.516561747

$$$$
CHEMBL2206861_6PT0


 25 28  0  0  0  0  0  0  0  0999 V2000
   98.1134  114.0745  124.8097 C   0  0  0  0  0
   99.1936  113.7826  123.7857 C   0  0  0  0  0
   98.7371  112.6891  122.8315 C   0  0  0  0  0
   99.7502  110.7280  124.0161 C   0  0  0  0  0
   99.3072  109.5286  124.5768 C   0  0  0  0  0
  100.1486  108.5000  125.2215 C   0  0  0  0  0
  101.5553  108.7693  125.5902 C   0  0  0  0  0
  102.5324  107.8714  125.1456 C   0  0  0  0  0
  103.8788  108.0718  125.4470 C   0  0  0  0  0
  104.2786  109.1720  126.2056 C   0  0  0  0  0
  103.3160  110.0771  126.6860 C   0  0  0  0  0
  103.6971  111.1722  127.4744 C   0  0  0  0  0
  102.7381  112.0545  127.9748 C   0  0  0  0  0
  101.3866  111.8486  127.6970 C   0  0  0  0  0
  100.9916  110.7646  126.9115 C   0  0  0  0  0
  101.9425  109.8747  126.3847 C   0  0  0  0  0
   97.9394  109.4871  124.3728 C   0  0  0  0  0
   96.9870  108.5281  124.7171 C   0  0  0  0  0
   95.6488  108.7844  124.3688 C   0  0  0  0  0
   95.2974  109.9745  123.6961 C   0  0  0  0  0
   96.2796  110.9242  123.3630 C   0  0  0  0  0
   97.5989  110.6427  123.7209 C   0  0  0  0  0
   98.6895  111.3989  123.5082 N   0  0  0  0  0
   99.6750  107.3494  125.4230 O   0  0  0  0  0
  106.1469  109.3815  126.5753 Br  0  0  0  0  0
  1  2  1  0  0  0
  2  3  1  0  0  0
  3 23  1  0  0  0
  5  6  1  0  0  0
  5 17  1  0  0  0
  6  7  1  0  0  0
  8  9  1  0  0  0
 10 25  1  0  0  0
 10 11  1  0  0  0
 12 13  1  0  0  0
 14 15  1  0  0  0
 16  7  1  0  0  0
 16 11  1  0  0  0
 18 19  1  0  0  0
 20 21  1  0  0  0
 22 23  1  0  0  0
 22 17  1  0  0  0
 23  4  1  0  0  0
  4  5  2  0  0  0
  6 24  2  0  0  0
  7  8  2  0  0  0
  9 10  2  0  0  0
 11 12  2  0  0  0
 13 14  2  0  0  0
 15 16  2  0  0  0
 17 18  2  0  0  0
 19 20  2  0  0  0
 21 22  2  0  0  0
M  END
> <rmsd>
0.697705388

$$$$
CHEMBL2206854_6PT0


 26 29  0  0  0  0  0  0  0  0999 V2000
   94.9004  110.0734  122.8086 C   0  0  0  0  0
   96.1256  110.7260  122.1981 C   0  0  0  0  0
   97.0008  109.6808  121.5226 C   0  0  0  0  0
   98.6313  109.1910  123.3887 C   0  0  0  0  0
   99.1451  110.5866  123.5302 C   0  0  0  0  0
   99.0135  108.0940  124.1692 C   0  0  0  0  0
  100.0058  108.0497  125.2662 C   0  0  0  0  0
  101.2098  108.9141  125.2656 C   0  0  0  0  0
  101.8936  109.1074  124.0568 C   0  0  0  0  0
  103.0502  109.8849  124.0018 C   0  0  0  0  0
  103.5520  110.4826  125.1572 C   0  0  0  0  0
  102.8929  110.3038  126.3810 C   0  0  0  0  0
  103.3909  110.9077  127.5428 C   0  0  0  0  0
  102.7326  110.7414  128.7627 C   0  0  0  0  0
  101.5700  109.9722  128.8309 C   0  0  0  0  0
  101.0637  109.3644  127.6800 C   0  0  0  0  0
  101.7152  109.5134  126.4444 C   0  0  0  0  0
   98.2209  107.0458  123.7337 C   0  0  0  0  0
   98.1605  105.7152  124.1480 C   0  0  0  0  0
   97.2446  104.8694  123.4981 C   0  0  0  0  0
   96.4220  105.3625  122.4628 C   0  0  0  0  0
   96.5045  106.7081  122.0634 C   0  0  0  0  0
   97.4230  107.5254  122.7242 C   0  0  0  0  0
   97.6590  108.8329  122.5132 N   0  0  0  0  0
   99.8379  107.2253  126.2051 O   0  0  0  0  0
  104.6784  111.2355  125.0781 F   0  0  0  0  0
  1  2  1  0  0  0
  2  3  1  0  0  0
  3 24  1  0  0  0
  5  4  1  0  0  0
  6  7  1  0  0  0
  6 18  1  0  0  0
  7  8  1  0  0  0
  9 10  1  0  0  0
 11 26  1  0  0  0
 11 12  1  0  0  0
 13 14  1  0  0  0
 15 16  1  0  0  0
 17  8  1  0  0  0
 17 12  1  0  0  0
 19 20  1  0  0  0
 21 22  1  0  0  0
 23 24  1  0  0  0
 23 18  1  0  0  0
 24  4  1  0  0  0
  4  6  2  0  0  0
  7 25  2  0  0  0
  8  9  2  0  0  0
 10 11  2  0  0  0
 12 13  2  0  0  0
 14 15  2  0  0  0
 16 17  2  0  0  0
 18 19  2  0  0  0
 20 21  2  0  0  0
 22 23  2  0  0  0
M  END
> <rmsd>
0.520368695

$$$$
CHEMBL2206843_6PT0


 28 31  0  0  0  0  0  0  0  0999 V2000
   99.7596  111.9444  123.2725 C   0  0  0  0  0
   98.4518  112.2026  122.8120 C   0  0  0  0  0
   97.4133  111.2890  123.0616 C   0  0  0  0  0
   97.7250  110.1305  123.7751 C   0  0  0  0  0
   98.9982  109.8782  124.2261 C   0  0  0  0  0
  100.0454  110.7696  123.9888 C   0  0  0  0  0
   98.9679  108.6589  124.8903 C   0  0  0  0  0
   97.6398  108.2294  124.7999 C   0  0  0  0  0
   95.4695  109.0310  123.8100 C   0  0  0  0  0
   95.2635  108.6257  122.3553 C   0  0  0  0  0
   95.6775  107.1791  122.1154 C   0  0  0  0  0
   94.6780  106.2079  122.7247 C   0  0  0  0  0
   93.4118  106.1585  121.8910 C   0  0  0  0  0
   97.0890  106.9681  125.3800 C   0  0  0  0  0
  100.0902  107.9631  125.5658 C   0  0  0  0  0
  101.4270  108.5680  125.6471 C   0  0  0  0  0
  102.3585  108.1067  124.7093 C   0  0  0  0  0
  103.6330  108.6583  124.6287 C   0  0  0  0  0
  103.9953  109.6928  125.4833 C   0  0  0  0  0
  103.0941  110.1714  126.4344 C   0  0  0  0  0
  101.7897  109.6069  126.5581 C   0  0  0  0  0
  100.9415  110.1169  127.5874 C   0  0  0  0  0
  101.3849  111.1622  128.4030 C   0  0  0  0  0
  102.6520  111.7135  128.2417 C   0  0  0  0  0
  103.5053  111.2143  127.2644 C   0  0  0  0  0
   96.8922  109.1321  124.1210 N   0  0  0  0  0
   99.9188  106.8116  126.0477 O   0  0  0  0  0
   99.3488  109.4900  127.9948 Cl  0  0  0  0  0
  2  3  1  0  0  0
  4  5  1  0  0  0
  5  7  1  0  0  0
  6  1  1  0  0  0
  7 15  1  0  0  0
  8 26  1  0  0  0
  9 26  1  0  0  0
  9 10  1  0  0  0
 10 11  1  0  0  0
 11 12  1  0  0  0
 12 13  1  0  0  0
 14  8  1  0  0  0
 15 16  1  0  0  0
 17 18  1  0  0  0
 19 20  1  0  0  0
 21 22  1  0  0  0
 21 16  1  0  0  0
 22 28  1  0  0  0
 23 24  1  0  0  0
 25 20  1  0  0  0
 26  4  1  0  0  0
  1  2  2  0  0  0
  3  4  2  0  0  0
  5  6  2  0  0  0
  7  8  2  0  0  0
 15 27  2  0  0  0
 16 17  2  0  0  0
 18 19  2  0  0  0
 20 21  2  0  0  0
 22 23  2  0  0  0
 24 25  2  0  0  0
M  END
> <rmsd>
0.442028314

$$$$
CHEMBL2206858_6PT0


 26 29  0  0  0  0  0  0  0  0999 V2000
   94.8990  110.0895  122.8250 C   0  0  0  0  0
   96.1247  110.7378  122.2106 C   0  0  0  0  0
   96.9944  109.6894  121.5330 C   0  0  0  0  0
   98.6285  109.1945  123.3945 C   0  0  0  0  0
   99.1476  110.5884  123.5339 C   0  0  0  0  0
   99.0092  108.0963  124.1741 C   0  0  0  0  0
  100.0048  108.0488  125.2681 C   0  0  0  0  0
  101.2096  108.9121  125.2656 C   0  0  0  0  0
  101.8927  109.1006  124.0568 C   0  0  0  0  0
  103.0491  109.8766  123.9989 C   0  0  0  0  0
  103.5546  110.4796  125.1501 C   0  0  0  0  0
  102.8939  110.3052  126.3788 C   0  0  0  0  0
  103.3857  110.9095  127.5451 C   0  0  0  0  0
  102.7238  110.7449  128.7629 C   0  0  0  0  0
  101.5616  109.9762  128.8282 C   0  0  0  0  0
  101.0598  109.3676  127.6762 C   0  0  0  0  0
  101.7149  109.5148  126.4423 C   0  0  0  0  0
   98.2119  107.0507  123.7411 C   0  0  0  0  0
   98.1483  105.7204  124.1557 C   0  0  0  0  0
   97.2277  104.8775  123.5085 C   0  0  0  0  0
   96.4038  105.3732  122.4756 C   0  0  0  0  0
   96.4896  106.7183  122.0757 C   0  0  0  0  0
   97.4127  107.5329  122.7338 C   0  0  0  0  0
   97.6524  108.8394  122.5219 N   0  0  0  0  0
   99.8390  107.2228  126.2060 O   0  0  0  0  0
  105.0166  111.4476  125.0104 Cl  0  0  0  0  0
  1  2  1  0  0  0
  2  3  1  0  0  0
  3 24  1  0  0  0
  5  4  1  0  0  0
  6  7  1  0  0  0
  6 18  1  0  0  0
  7  8  1  0  0  0
  9 10  1  0  0  0
 11 26  1  0  0  0
 11 12  1  0  0  0
 13 14  1  0  0  0
 15 16  1  0  0  0
 17  8  1  0  0  0
 17 12  1  0  0  0
 19 20  1  0  0  0
 21 22  1  0  0  0
 23 24  1  0  0  0
 23 18  1  0  0  0
 24  4  1  0  0  0
  4  6  2  0  0  0
  7 25  2  0  0  0
  8  9  2  0  0  0
 10 11  2  0  0  0
 12 13  2  0  0  0
 14 15  2  0  0  0
 16 17  2  0  0  0
 18 19  2  0  0  0
 20 21  2  0  0  0
 22 23  2  0  0  0
M  END
> <rmsd>
0.51716131

$$$$
CHEMBL2112291_6PT0


 29 32  0  0  0  0  0  0  0  0999 V2000
   94.6995  113.3491  122.5824 C   0  0  0  0  0
   95.6951  111.3914  122.7707 C   0  0  0  0  0
   96.2950  110.1921  122.0601 C   0  0  0  0  0
   97.9717  109.4453  123.7809 C   0  0  0  0  0
   98.8086  110.6818  123.7271 C   0  0  0  0  0
   98.2223  108.3225  124.5743 C   0  0  0  0  0
   99.3286  108.1162  125.5311 C   0  0  0  0  0
  101.3947  109.0094  126.6998 C   0  0  0  0  0
  100.9860  109.3535  128.1536 C   0  0  0  0  0
   99.5271  109.7766  128.3318 C   0  0  0  0  0
  101.2364  108.1455  129.0407 C   0  0  0  0  0
  101.9688  110.4892  128.5239 C   0  0  0  0  0
  101.5795  111.7588  127.7506 C   0  0  0  0  0
  101.9504  111.4285  126.3031 C   0  0  0  0  0
  102.5152  110.0176  126.4256 C   0  0  0  0  0
  103.4346  109.6246  125.2868 C   0  0  0  0  0
  103.2016  110.0827  127.7547 C   0  0  0  0  0
   97.2069  107.4307  124.2710 C   0  0  0  0  0
   96.9526  106.1488  124.7577 C   0  0  0  0  0
   95.8317  105.4669  124.2578 C   0  0  0  0  0
   94.9982  106.0693  123.2946 C   0  0  0  0  0
   95.2720  107.3673  122.8132 C   0  0  0  0  0
   93.3058  107.3565  121.3126 C   0  0  0  0  0
   96.3981  108.0255  123.3299 C   0  0  0  0  0
   95.1568  112.2678  121.8302 O   0  0  0  0  0
   99.4101  107.0353  126.1751 O   0  0  0  0  0
   94.4573  107.9845  121.8588 O   0  0  0  0  0
   96.8568  109.2590  123.0311 N   0  0  0  0  0
  100.3073  109.1384  125.7310 N   0  0  0  0  0
  1 25  1  0  0  0
  2 25  1  0  0  0
  2  3  1  0  0  0
  3 28  1  0  0  0
  5  4  1  0  0  0
  6  7  1  0  0  0
  6 18  1  0  0  0
  7 29  1  0  0  0
  8 29  1  0  0  0
  8  9  1  0  0  0
  9 10  1  0  0  0
  9 11  1  0  0  0
 12  9  1  0  0  0
 12 13  1  0  0  0
 13 14  1  0  0  0
 14 15  1  0  0  0
 15 16  1  0  0  0
 15 17  1  0  0  0
 15  8  1  0  0  0
 17 12  1  0  0  0
 19 20  1  0  0  0
 21 22  1  0  0  0
 22 27  1  0  0  0
 23 27  1  0  0  0
 24 28  1  0  0  0
 24 18  1  0  0  0
 28  4  1  0  0  0
  4  6  2  0  0  0
  7 26  2  0  0  0
 18 19  2  0  0  0
 20 21  2  0  0  0
 22 24  2  0  0  0
M  END
> <rmsd>
0.571403682

$$$$
CHEMBL3114180_8GUR


 22 23  0  0  0  0  0  0  0  0999 V2000
  104.1155  109.8318  125.7150 C   0  0  0  0  0
  102.6799  109.4166  125.9563 C   0  0  0  0  0
  101.9384  110.5423  126.6512 C   0  0  0  0  0
  100.4854  110.1528  126.8875 C   0  0  0  0  0
   99.5023  111.2983  124.9886 C   0  0  0  0  0
   98.7809  111.3223  123.7989 C   0  0  0  0  0
   98.2943  110.1300  123.2736 C   0  0  0  0  0
   98.5226  108.9164  123.9314 C   0  0  0  0  0
   97.9822  107.6711  123.3345 C   0  0  0  0  0
   96.6602  106.5861  121.4190 C   0  0  0  0  0
   95.6323  105.8951  122.3126 C   0  0  0  0  0
   94.6547  105.0373  121.5153 C   0  0  0  0  0
   95.3504  103.8983  120.7806 C   0  0  0  0  0
   95.9948  104.4330  119.5097 C   0  0  0  0  0
   97.4507  104.8659  119.7069 C   0  0  0  0  0
   97.7520  105.5988  121.0174 C   0  0  0  0  0
   99.2597  108.9354  125.1392 C   0  0  0  0  0
   99.7379  110.1213  125.6323 N   0  0  0  0  0
   97.2412  107.7359  122.1066 N   0  0  0  0  0
   98.4617  112.9710  122.9001 Br  0  0  0  0  0
   98.1683  106.5568  123.8953 O   0  0  0  0  0
   99.4818  107.8618  125.7657 O   0  0  0  0  0
  1  2  1  0  0  0
  2  3  1  0  0  0
  3  4  1  0  0  0
  4 18  1  0  0  0
  6 20  1  0  0  0
  6  7  1  0  0  0
  8  9  1  0  0  0
  8 17  1  0  0  0
  9 19  1  0  0  0
 10 19  1  0  0  0
 10 11  1  0  0  0
 11 12  1  0  0  0
 12 13  1  0  0  0
 13 14  1  0  0  0
 14 15  1  0  0  0
 15 16  1  0  0  0
 16 10  1  0  0  0
 17 18  1  0  0  0
 18  5  1  0  0  0
  5  6  2  0  0  0
  7  8  2  0  0  0
  9 21  2  0  0  0
 17 22  2  0  0  0
M  END
> <rmsd>
0.939548373

$$$$
CHEMBL2206853_6PT0


 25 28  0  0  0  0  0  0  0  0999 V2000
   98.1122  114.0746  124.8110 C   0  0  0  0  0
   99.1920  113.7828  123.7868 C   0  0  0  0  0
   98.7354  112.6892  122.8328 C   0  0  0  0  0
   99.7491  110.7281  124.0168 C   0  0  0  0  0
   99.3063  109.5287  124.5777 C   0  0  0  0  0
  100.1481  108.4999  125.2217 C   0  0  0  0  0
  101.5544  108.7693  125.5917 C   0  0  0  0  0
  102.5328  107.8696  125.1508 C   0  0  0  0  0
  103.8795  108.0702  125.4551 C   0  0  0  0  0
  104.2739  109.1730  126.2126 C   0  0  0  0  0
  103.3131  110.0765  126.6871 C   0  0  0  0  0
  103.7018  111.1691  127.4731 C   0  0  0  0  0
  102.7452  112.0557  127.9719 C   0  0  0  0  0
  101.3924  111.8542  127.6940 C   0  0  0  0  0
  100.9927  110.7701  126.9098 C   0  0  0  0  0
  101.9408  109.8764  126.3849 C   0  0  0  0  0
   97.9385  109.4871  124.3742 C   0  0  0  0  0
   96.9863  108.5281  124.7188 C   0  0  0  0  0
   95.6479  108.7843  124.3711 C   0  0  0  0  0
   95.2962  109.9745  123.6984 C   0  0  0  0  0
   96.2782  110.9242  123.3650 C   0  0  0  0  0
   97.5977  110.6428  123.7225 C   0  0  0  0  0
   98.6882  111.3991  123.5094 N   0  0  0  0  0
   99.6750  107.3487  125.4215 O   0  0  0  0  0
  105.5900  109.3468  126.4944 F   0  0  0  0  0
  1  2  1  0  0  0
  2  3  1  0  0  0
  3 23  1  0  0  0
  5  6  1  0  0  0
  5 17  1  0  0  0
  6  7  1  0  0  0
  8  9  1  0  0  0
 10 25  1  0  0  0
 10 11  1  0  0  0
 12 13  1  0  0  0
 14 15  1  0  0  0
 16  7  1  0  0  0
 16 11  1  0  0  0
 18 19  1  0  0  0
 20 21  1  0  0  0
 22 23  1  0  0  0
 22 17  1  0  0  0
 23  4  1  0  0  0
  4  5  2  0  0  0
  6 24  2  0  0  0
  7  8  2  0  0  0
  9 10  2  0  0  0
 11 12  2  0  0  0
 13 14  2  0  0  0
 15 16  2  0  0  0
 17 18  2  0  0  0
 19 20  2  0  0  0
 21 22  2  0  0  0
M  END
> <rmsd>
0.699534893

$$$$
CHEMBL2206834_6PT0


 27 30  0  0  0  0  0  0  0  0999 V2000
   94.7734  107.2000  121.5603 C   0  0  0  0  0
   94.6732  108.6320  122.0409 C   0  0  0  0  0
   95.8728  109.4162  121.5441 C   0  0  0  0  0
   95.8087  110.8548  122.0335 C   0  0  0  0  0
   96.1190  110.9482  123.5234 C   0  0  0  0  0
   97.9397  109.5356  124.4792 C   0  0  0  0  0
   99.3327  109.5540  124.5464 C   0  0  0  0  0
  100.1692  108.5259  125.1974 C   0  0  0  0  0
  101.5746  108.7805  125.5763 C   0  0  0  0  0
  102.5511  107.8883  125.1202 C   0  0  0  0  0
  103.8960  108.0790  125.4350 C   0  0  0  0  0
  104.2936  109.1630  126.2182 C   0  0  0  0  0
  103.3302  110.0615  126.7094 C   0  0  0  0  0
  103.7084  111.1428  127.5179 C   0  0  0  0  0
  102.7479  112.0205  128.0238 C   0  0  0  0  0
  101.3981  111.8243  127.7307 C   0  0  0  0  0
  101.0058  110.7539  126.9254 C   0  0  0  0  0
  101.9587  109.8678  126.3958 C   0  0  0  0  0
   99.7413  110.6850  123.8575 C   0  0  0  0  0
  101.0125  111.1849  123.5725 C   0  0  0  0  0
  101.0959  112.3749  122.8289 C   0  0  0  0  0
   99.9255  113.0268  122.3859 C   0  0  0  0  0
   98.6574  112.4937  122.6761 C   0  0  0  0  0
   98.6055  111.3110  123.4158 C   0  0  0  0  0
   97.5139  110.6166  123.7859 N   0  0  0  0  0
   99.6758  107.3876  125.4198 O   0  0  0  0  0
  106.1600  109.3611  126.6033 Br  0  0  0  0  0
  1  2  1  0  0  0
  2  3  1  0  0  0
  3  4  1  0  0  0
  4  5  1  0  0  0
  5 25  1  0  0  0
  7  8  1  0  0  0
  7 19  1  0  0  0
  8  9  1  0  0  0
 10 11  1  0  0  0
 12 27  1  0  0  0
 12 13  1  0  0  0
 14 15  1  0  0  0
 16 17  1  0  0  0
 18  9  1  0  0  0
 18 13  1  0  0  0
 20 21  1  0  0  0
 22 23  1  0  0  0
 24 25  1  0  0  0
 24 19  1  0  0  0
 25  6  1  0  0  0
  6  7  2  0  0  0
  8 26  2  0  0  0
  9 10  2  0  0  0
 11 12  2  0  0  0
 13 14  2  0  0  0
 15 16  2  0  0  0
 17 18  2  0  0  0
 19 20  2  0  0  0
 21 22  2  0  0  0
 23 24  2  0  0  0
M  END
> <rmsd>
0.712320626

$$$$
CHEMBL2112286_6PT0


 33 37  0  0  0  0  0  0  0  0999 V2000
   98.2823  108.3360  124.5490 C   0  0  0  0  0
   97.9660  109.5020  123.8466 C   0  0  0  0  0
   96.3532  108.1083  123.4574 C   0  0  0  0  0
   97.2411  107.4608  124.2855 C   0  0  0  0  0
   97.0294  106.1501  124.7124 C   0  0  0  0  0
   95.8686  105.4951  124.2710 C   0  0  0  0  0
   94.9546  106.1514  123.4229 C   0  0  0  0  0
   95.1863  107.4781  123.0006 C   0  0  0  0  0
   93.1023  107.5481  121.6698 C   0  0  0  0  0
   96.1637  110.3434  122.3185 C   0  0  0  0  0
   96.6650  110.1619  120.8825 C   0  0  0  0  0
   96.3320  112.4678  120.3206 C   0  0  0  0  0
   95.7552  113.4348  119.2899 C   0  0  0  0  0
   94.2485  113.2247  119.1788 C   0  0  0  0  0
   93.9419  111.7647  118.8610 C   0  0  0  0  0
   94.5923  110.8657  119.9091 C   0  0  0  0  0
   98.7929  110.7452  123.7941 C   0  0  0  0  0
   99.4729  108.0741  125.3829 C   0  0  0  0  0
  101.7017  108.8695  126.3057 C   0  0  0  0  0
  102.7943  108.2690  125.4080 C   0  0  0  0  0
  104.0429  108.6535  126.1396 C   0  0  0  0  0
  103.7567  110.1341  126.1297 C   0  0  0  0  0
  102.3623  110.1796  126.7962 C   0  0  0  0  0
  101.5962  111.4557  126.4446 C   0  0  0  0  0
  102.5116  110.1256  128.3076 C   0  0  0  0  0
  103.5972  110.3652  124.6188 C   0  0  0  0  0
  102.9344  109.0779  124.1235 C   0  0  0  0  0
  102.6710  106.7757  125.1799 C   0  0  0  0  0
   96.7890  109.3574  123.1910 N   0  0  0  0  0
   96.0419  111.0849  119.9292 N   0  0  0  0  0
  100.4563  109.0933  125.5722 N   0  0  0  0  0
   94.2924  108.1491  122.1602 O   0  0  0  0  0
   99.6179  106.9508  125.9367 O   0  0  0  0  0
  1 18  1  0  0  0
  2 29  1  0  0  0
  4  5  1  0  0  0
  4  1  1  0  0  0
  6  7  1  0  0  0
  8 32  1  0  0  0
  8  3  1  0  0  0
  9 32  1  0  0  0
 10 29  1  0  0  0
 10 11  1  0  0  0
 11 30  1  0  0  0
 12 30  1  0  0  0
 12 13  1  0  0  0
 13 14  1  0  0  0
 14 15  1  0  0  0
 15 16  1  0  0  0
 16 30  1  0  0  0
 17  2  1  0  0  0
 18 31  1  0  0  0
 19 31  1  0  0  0
 19 20  1  0  0  0
 20 21  1  0  0  0
 20 28  1  0  0  0
 21 22  1  0  0  0
 22 23  1  0  0  0
 22 26  1  0  0  0
 23 24  1  0  0  0
 23 25  1  0  0  0
 23 19  1  0  0  0
 26 27  1  0  0  0
 27 20  1  0  0  0
 29  3  1  0  0  0
  1  2  2  0  0  0
  3  4  2  0  0  0
  5  6  2  0  0  0
  7  8  2  0  0  0
 18 33  2  0  0  0
M  END
> <rmsd>
0.397071391

$$$$
CHEMBL480539_8GUT


 34 37  0  0  0  0  0  0  0  0999 V2000
   99.2460  110.6961  135.0002 C   0  0  0  0  0
   98.7207  108.5420  133.9045 C   0  0  0  0  0
   98.2642  109.1720  132.7346 C   0  0  0  0  0
   97.7990  108.4095  131.6596 C   0  0  0  0  0
   97.7811  107.0137  131.7478 C   0  0  0  0  0
   97.3197  106.2012  130.5902 C   0  0  0  0  0
   98.2629  105.3275  128.4195 C   0  0  0  0  0
   99.4272  105.1925  127.5003 C   0  0  0  0  0
   99.9017  108.2802  125.8383 C   0  0  0  0  0
   99.5452  109.2862  124.8124 C   0  0  0  0  0
   99.4493  110.6353  125.1870 C   0  0  0  0  0
   99.0987  111.6136  124.2551 C   0  0  0  0  0
   98.8357  111.2532  122.9337 C   0  0  0  0  0
   98.9272  109.9162  122.5441 C   0  0  0  0  0
   99.2757  108.9287  123.4714 C   0  0  0  0  0
  100.6944  108.4481  126.9674 C   0  0  0  0  0
  101.4677  109.6323  127.3785 C   0  0  0  0  0
  101.2484  110.1567  128.6591 C   0  0  0  0  0
  101.9519  111.2815  129.0952 C   0  0  0  0  0
  102.8880  111.8872  128.2553 C   0  0  0  0  0
  103.1338  111.3580  126.9866 C   0  0  0  0  0
  102.4337  110.2324  126.5412 C   0  0  0  0  0
   98.2415  106.3821  132.9073 C   0  0  0  0  0
   98.7065  107.1450  133.9829 C   0  0  0  0  0
   99.1920  109.2761  134.9962 O   0  0  0  0  0
   97.1389  104.8757  128.0738 O   0  0  0  0  0
   98.4272  105.9903  129.6729 N   0  0  0  0  0
   99.8290  106.5031  127.0183 N   0  0  0  0  0
   99.3635  107.0475  125.9052 N   0  0  0  0  0
  100.6186  107.3204  127.6967 N   0  0  0  0  0
   98.3976  112.4779  121.7630 Cl  0  0  0  0  0
   99.4185  107.2772  122.8856 Cl  0  0  0  0  0
  103.7689  113.2978  128.8000 Cl  0  0  0  0  0
  102.8546  109.5695  124.9680 Cl  0  0  0  0  0
  1 25  1  0  0  0
  2 25  1  0  0  0
  3  4  1  0  0  0
  5 23  1  0  0  0
  6  5  1  0  0  0
  6 27  1  0  0  0
  8  7  1  0  0  0
  8 28  1  0  0  0
  9 10  1  0  0  0
  9 16  1  0  0  0
 11 12  1  0  0  0
 13 31  1  0  0  0
 13 14  1  0  0  0
 15 32  1  0  0  0
 15 10  1  0  0  0
 16 17  1  0  0  0
 18 19  1  0  0  0
 20 33  1  0  0  0
 20 21  1  0  0  0
 22 34  1  0  0  0
 22 17  1  0  0  0
 24  2  1  0  0  0
 27  7  1  0  0  0
 28 29  1  0  0  0
 28 30  1  0  0  0
  2  3  2  0  0  0
  4  5  2  0  0  0
  7 26  2  0  0  0
  9 29  2  0  0  0
 10 11  2  0  0  0
 12 13  2  0  0  0
 14 15  2  0  0  0
 16 30  2  0  0  0
 17 18  2  0  0  0
 19 20  2  0  0  0
 21 22  2  0  0  0
 23 24  2  0  0  0
M  END
> <rmsd>
0.573331416

$$$$
CHEMBL3647325_8GUT


 33 36  0  0  0  0  0  0  0  0999 V2000
  100.4329  104.6703  127.5151 C   0  0  0  0  0
  100.4451  106.1680  127.7331 C   0  0  0  0  0
  101.8740  106.6184  127.9661 C   0  0  0  0  0
   99.5830  106.4980  128.9430 C   0  0  0  0  0
   99.9087  108.5564  130.2900 C   0  0  0  0  0
  100.4999  107.8297  131.3360 C   0  0  0  0  0
  100.8962  108.4688  132.5111 C   0  0  0  0  0
  100.6914  109.8435  132.6703 C   0  0  0  0  0
  101.1579  110.5405  133.9151 C   0  0  0  0  0
  100.1252  110.5769  131.6207 C   0  0  0  0  0
   99.7379  109.9514  130.4273 C   0  0  0  0  0
   99.1361  110.7794  129.3572 C   0  0  0  0  0
  100.4693  110.2149  127.3956 C   0  0  0  0  0
  102.7883  109.8203  126.7383 C   0  0  0  0  0
  104.1488  109.6209  126.5370 C   0  0  0  0  0
  104.5580  109.2605  125.2447 C   0  0  0  0  0
  102.3061  109.3130  124.4431 C   0  0  0  0  0
  101.8649  109.6739  125.7175 C   0  0  0  0  0
   99.4385  109.8231  125.1584 C   0  0  0  0  0
   99.0233  111.2168  124.7068 C   0  0  0  0  0
   99.9323  111.7071  123.5962 C   0  0  0  0  0
   98.7870  111.6050  122.6098 C   0  0  0  0  0
   97.8794  111.1130  123.7194 C   0  0  0  0  0
   99.9350  106.7986  126.5984 O   0  0  0  0  0
   99.4788  107.9068  129.1261 O   0  0  0  0  0
   98.3948  111.7471  129.6747 O   0  0  0  0  0
  102.4661  110.9534  133.7441 F   0  0  0  0  0
  101.0920  109.6851  135.0013 F   0  0  0  0  0
  100.3656  111.6453  134.1753 F   0  0  0  0  0
   99.3310  110.4919  127.9653 N   0  0  0  0  0
  103.6413  109.1162  124.2399 N   0  0  0  0  0
  100.5716  109.9000  126.0773 N   0  0  0  0  0
  101.9921  110.2467  128.1545 S   0  0  0  0  0
  1  2  1  0  0  0
  2  3  1  0  0  0
  2 24  1  0  0  0
  2  4  1  0  0  0
  4 25  1  0  0  0
  5 25  1  0  0  0
  6  7  1  0  0  0
  8 10  1  0  0  0
  9  8  1  0  0  0
  9 27  1  0  0  0
  9 28  1  0  0  0
  9 29  1  0  0  0
 11 12  1  0  0  0
 11  5  1  0  0  0
 12 30  1  0  0  0
 13 33  1  0  0  0
 14 33  1  0  0  0
 15 16  1  0  0  0
 17 31  1  0  0  0
 18 32  1  0  0  0
 18 14  1  0  0  0
 19 32  1  0  0  0
 19 20  1  0  0  0
 20 21  1  0  0  0
 21 22  1  0  0  0
 22 23  1  0  0  0
 23 20  1  0  0  0
 32 13  1  0  0  0
  5  6  2  0  0  0
  7  8  2  0  0  0
 10 11  2  0  0  0
 12 26  2  0  0  0
 13 30  2  0  0  0
 14 15  2  0  0  0
 16 31  2  0  0  0
 17 18  2  0  0  0
M  END
> <rmsd>
0.696067095

$$$$
CHEMBL1909846_5ZTY


 30 33  0  0  0  0  0  0  0  0999 V2000
   99.4898  106.2843  122.6359 C   0  0  0  0  0
   99.8161  106.8400  123.9809 C   0  0  0  0  0
   99.4874  106.3225  125.2259 C   0  0  0  0  0
   98.8071  105.0495  125.5119 C   0  0  0  0  0
   97.7396  102.9101  124.6648 C   0  0  0  0  0
   96.2741  103.1790  125.0265 C   0  0  0  0  0
   95.5097  103.7713  123.8430 C   0  0  0  0  0
   95.5975  102.8385  122.6399 C   0  0  0  0  0
   97.0562  102.6246  122.2495 C   0  0  0  0  0
   97.8338  102.0239  123.4205 C   0  0  0  0  0
  100.8992  109.3805  126.3226 C   0  0  0  0  0
  100.0320  110.0312  127.2112 C   0  0  0  0  0
  100.4586  111.1519  127.9267 C   0  0  0  0  0
  101.7615  111.6261  127.7672 C   0  0  0  0  0
  102.6452  110.9651  126.9118 C   0  0  0  0  0
  102.2257  109.8428  126.1910 C   0  0  0  0  0
  100.4008  108.0581  124.2579 C   0  0  0  0  0
  100.2888  110.2814  123.1398 C   0  0  0  0  0
  100.8731  110.9238  122.0653 C   0  0  0  0  0
  101.7796  110.0227  121.5244 C   0  0  0  0  0
  101.6853  108.8791  122.2934 C   0  0  0  0  0
   98.5379  104.7439  126.7051 O   0  0  0  0  0
   98.4582  104.1600  124.4481 N   0  0  0  0  0
   99.8589  107.1948  126.1875 N   0  0  0  0  0
  100.4205  108.2394  125.5973 N   0  0  0  0  0
  100.7885  109.0400  123.2838 N   0  0  0  0  0
  102.2965  113.0324  128.6608 Cl  0  0  0  0  0
  103.4180  108.9912  125.2253 Cl  0  0  0  0  0
   98.9807  110.9599  124.0935 Cl  0  0  0  0  0
  102.6490  107.4338  122.0334 Cl  0  0  0  0  0
  1  2  1  0  0  0
  2  3  1  0  0  0
  3  4  1  0  0  0
  4 23  1  0  0  0
  5 23  1  0  0  0
  5  6  1  0  0  0
  6  7  1  0  0  0
  7  8  1  0  0  0
  8  9  1  0  0  0
  9 10  1  0  0  0
 10  5  1  0  0  0
 12 13  1  0  0  0
 14 27  1  0  0  0
 14 15  1  0  0  0
 16 28  1  0  0  0
 16 11  1  0  0  0
 17 26  1  0  0  0
 18 29  1  0  0  0
 19 20  1  0  0  0
 21 30  1  0  0  0
 21 26  1  0  0  0
 25 24  1  0  0  0
 25 11  1  0  0  0
 25 17  1  0  0  0
 26 18  1  0  0  0
  3 24  2  0  0  0
  4 22  2  0  0  0
 11 12  2  0  0  0
 13 14  2  0  0  0
 15 16  2  0  0  0
 17  2  2  0  0  0
 18 19  2  0  0  0
 20 21  2  0  0  0
M  END
> <rmsd>
0.529107213

$$$$
CHEMBL2206842_6PT0


 27 30  0  0  0  0  0  0  0  0999 V2000
   95.8058  107.3570  120.5891 C   0  0  0  0  0
   96.5926  106.0860  120.3324 C   0  0  0  0  0
   97.7638  105.9791  121.2962 C   0  0  0  0  0
   98.9883  106.7167  120.7677 C   0  0  0  0  0
   98.8668  108.2253  120.9718 C   0  0  0  0  0
   99.4076  107.8426  123.4164 C   0  0  0  0  0
   99.4846  108.6187  124.5718 C   0  0  0  0  0
   99.8547  108.1197  125.9119 C   0  0  0  0  0
   99.9265  109.0176  127.0727 C   0  0  0  0  0
   98.8010  109.0214  127.9055 C   0  0  0  0  0
   98.7133  109.8829  128.9941 C   0  0  0  0  0
   99.7520  110.7660  129.2639 C   0  0  0  0  0
  100.8906  110.7843  128.4583 C   0  0  0  0  0
  101.9021  111.6933  128.7691 C   0  0  0  0  0
  103.0645  111.7390  128.0084 C   0  0  0  0  0
  103.2271  110.8658  126.9376 C   0  0  0  0  0
  102.2327  109.9433  126.5987 C   0  0  0  0  0
  101.0191  109.8954  127.3497 C   0  0  0  0  0
   99.1644  109.9110  124.1919 C   0  0  0  0  0
   99.0827  111.0961  124.9238 C   0  0  0  0  0
   98.7283  112.2686  124.2346 C   0  0  0  0  0
   98.4662  112.2333  122.8487 C   0  0  0  0  0
   98.5551  111.0250  122.1356 C   0  0  0  0  0
   98.9092  109.8763  122.8459 C   0  0  0  0  0
   99.0503  108.6271  122.3680 N   0  0  0  0  0
  100.0744  106.8900  126.0782 O   0  0  0  0  0
  102.6472  108.8697  125.2680 Cl  0  0  0  0  0
  1  2  1  0  0  0
  2  3  1  0  0  0
  3  4  1  0  0  0
  4  5  1  0  0  0
  5 25  1  0  0  0
  7  8  1  0  0  0
  7 19  1  0  0  0
  8  9  1  0  0  0
 10 11  1  0  0  0
 12 13  1  0  0  0
 14 15  1  0  0  0
 16 17  1  0  0  0
 17 27  1  0  0  0
 18  9  1  0  0  0
 18 13  1  0  0  0
 20 21  1  0  0  0
 22 23  1  0  0  0
 24 25  1  0  0  0
 24 19  1  0  0  0
 25  6  1  0  0  0
  6  7  2  0  0  0
  8 26  2  0  0  0
  9 10  2  0  0  0
 11 12  2  0  0  0
 13 14  2  0  0  0
 15 16  2  0  0  0
 17 18  2  0  0  0
 19 20  2  0  0  0
 21 22  2  0  0  0
 23 24  2  0  0  0
M  END
> <rmsd>
0.483005434

$$$$
CHEMBL3354408_6PT0


 31 35  0  0  0  0  0  0  0  0999 V2000
   97.5168  107.9001  127.9712 C   0  0  0  0  0
   96.2306  108.6052  128.3992 C   0  0  0  0  0
   97.0862  110.6483  128.5233 C   0  0  0  0  0
   98.5087  110.2695  128.1157 C   0  0  0  0  0
   99.8077  108.3796  127.1016 C   0  0  0  0  0
  101.6211  109.5996  128.3572 C   0  0  0  0  0
  101.1607  109.5055  129.6717 C   0  0  0  0  0
  101.9355  110.1043  130.6821 C   0  0  0  0  0
  103.1407  110.7720  130.3696 C   0  0  0  0  0
  103.5978  110.8483  129.0418 C   0  0  0  0  0
  102.8139  110.2437  128.0645 C   0  0  0  0  0
  102.9702  110.1231  126.7075 C   0  0  0  0  0
  101.9018  109.4191  126.2401 C   0  0  0  0  0
  102.6939  109.6714  124.0659 C   0  0  0  0  0
  101.4777  110.9504  122.0978 C   0  0  0  0  0
  100.1436  110.8192  122.7727 C   0  0  0  0  0
   99.8920  111.6183  123.8947 C   0  0  0  0  0
   98.6798  111.5147  124.5812 C   0  0  0  0  0
   97.7062  110.6134  124.1462 C   0  0  0  0  0
   97.9409  109.8221  123.0189 C   0  0  0  0  0
   99.1512  109.9211  122.3239 C   0  0  0  0  0
   99.3425  109.1019  121.1546 C   0  0  0  0  0
   96.5257  109.6311  129.3050 O   0  0  0  0  0
   99.7739  107.3361  126.3941 O   0  0  0  0  0
   98.6053  108.8559  127.7252 N   0  0  0  0  0
  101.0447  109.0962  127.2330 N   0  0  0  0  0
  101.7449  109.1817  124.9184 N   0  0  0  0  0
  103.7672  110.3751  124.5557 N   0  0  0  0  0
  103.9125  110.6049  125.8680 N   0  0  0  0  0
   99.4962  108.4439  120.2151 N   0  0  0  0  0
  102.4953  109.4454  122.3027 S   0  0  0  0  0
  1  2  1  0  0  0
  1 25  1  0  0  0
  2 23  1  0  0  0
  3 23  1  0  0  0
  3  4  1  0  0  0
  4 25  1  0  0  0
  5 26  1  0  0  0
  7  8  1  0  0  0
  9 10  1  0  0  0
 11 12  1  0  0  0
 11  6  1  0  0  0
 12 29  1  0  0  0
 13 27  1  0  0  0
 13 26  1  0  0  0
 14 28  1  0  0  0
 14 31  1  0  0  0
 15 31  1  0  0  0
 15 16  1  0  0  0
 17 18  1  0  0  0
 19 20  1  0  0  0
 21 22  1  0  0  0
 21 16  1  0  0  0
 25  5  1  0  0  0
 26  6  1  0  0  0
  5 24  2  0  0  0
  6  7  2  0  0  0
  8  9  2  0  0  0
 10 11  2  0  0  0
 12 13  2  0  0  0
 14 27  2  0  0  0
 16 17  2  0  0  0
 18 19  2  0  0  0
 20 21  2  0  0  0
 28 29  2  0  0  0
 22 30  3  0  0  0
M  END
> <rmsd>
0.68636328

$$$$
CHEMBL75733_6PT0


 30 33  0  0  0  0  0  0  0  0999 V2000
   95.3560  103.0673  123.4538 C   0  0  0  0  0
   96.4024  105.3054  123.3438 C   0  0  0  0  0
   97.3615  104.9740  124.3340 C   0  0  0  0  0
   98.3233  105.9109  124.7495 C   0  0  0  0  0
   98.3006  107.1737  124.1552 C   0  0  0  0  0
   97.3767  107.4933  123.1916 C   0  0  0  0  0
   96.4092  106.5866  122.7635 C   0  0  0  0  0
   97.6146  108.7975  122.8140 C   0  0  0  0  0
   96.8088  109.6130  121.8530 C   0  0  0  0  0
   95.6505  110.2578  122.5486 C   0  0  0  0  0
   96.7457  112.5180  122.3657 C   0  0  0  0  0
   96.2462  113.9331  122.0759 C   0  0  0  0  0
   94.3103  113.6965  123.1947 C   0  0  0  0  0
   94.5738  112.2523  123.6209 C   0  0  0  0  0
   98.6920  109.2220  123.5865 C   0  0  0  0  0
   99.2346  110.6134  123.5947 C   0  0  0  0  0
  100.1774  108.2690  125.3757 C   0  0  0  0  0
  101.4567  108.9526  125.0807 C   0  0  0  0  0
  101.9560  108.9020  123.7703 C   0  0  0  0  0
  103.1705  109.5086  123.4443 C   0  0  0  0  0
  103.9033  110.1732  124.4278 C   0  0  0  0  0
  103.4203  110.2327  125.7361 C   0  0  0  0  0
  102.2056  109.6264  126.0735 C   0  0  0  0  0
   95.4398  104.3833  122.9244 O   0  0  0  0  0
   94.6886  109.5368  122.9290 O   0  0  0  0  0
   95.5172  114.4162  123.1759 O   0  0  0  0  0
  100.0289  107.6731  126.4768 O   0  0  0  0  0
   95.6220  111.6748  122.7781 N   0  0  0  0  0
   99.1200  108.2190  124.3997 N   0  0  0  0  0
  101.6455  109.7934  127.7318 Cl  0  0  0  0  0
  1 24  1  0  0  0
  2 24  1  0  0  0
  3  4  1  0  0  0
  5  6  1  0  0  0
  6  8  1  0  0  0
  7  2  1  0  0  0
  9  8  1  0  0  0
  9 10  1  0  0  0
 10 28  1  0  0  0
 11 28  1  0  0  0
 11 12  1  0  0  0
 12 26  1  0  0  0
 13 26  1  0  0  0
 13 14  1  0  0  0
 14 28  1  0  0  0
 15 29  1  0  0  0
 16 15  1  0  0  0
 17 18  1  0  0  0
 19 20  1  0  0  0
 21 22  1  0  0  0
 23 30  1  0  0  0
 23 18  1  0  0  0
 29 17  1  0  0  0
 29  5  1  0  0  0
  2  3  2  0  0  0
  4  5  2  0  0  0
  6  7  2  0  0  0
  8 15  2  0  0  0
 10 25  2  0  0  0
 17 27  2  0  0  0
 18 19  2  0  0  0
 20 21  2  0  0  0
 22 23  2  0  0  0
M  END
> <rmsd>
0.739084899

$$$$
CHEMBL3686311_8GUR


 36 39  0  0  0  0  0  0  0  0999 V2000
  101.3859  110.7747  126.7733 C   0  0  0  0  0
  103.4045  109.8647  126.0359 C   0  0  0  0  0
  103.7858  108.6119  125.2770 C   0  0  0  0  0
  102.5433  107.7548  125.2702 C   0  0  0  0  0
  101.5013  108.5477  126.0337 C   0  0  0  0  0
  100.7150  107.6433  126.9750 C   0  0  0  0  0
   99.0203  106.7512  125.3385 C   0  0  0  0  0
   98.8791  105.7447  124.3764 C   0  0  0  0  0
   97.9020  105.8292  123.3843 C   0  0  0  0  0
   97.0456  106.9324  123.3308 C   0  0  0  0  0
   95.9668  107.0121  122.2907 C   0  0  0  0  0
   97.1437  107.9189  124.3161 C   0  0  0  0  0
   98.1197  107.8510  125.3209 C   0  0  0  0  0
   98.1014  108.9099  126.3500 C   0  0  0  0  0
   98.4167  110.8979  124.9475 C   0  0  0  0  0
   99.6181  111.6838  122.9448 C   0  0  0  0  0
  100.5506  111.9221  121.7863 C   0  0  0  0  0
  101.9329  112.2513  122.3146 C   0  0  0  0  0
  100.6407  110.6850  120.9115 C   0  0  0  0  0
  100.0679  113.0759  120.9233 C   0  0  0  0  0
   98.8154  112.6449  123.5633 C   0  0  0  0  0
   97.2167  113.0311  125.4106 C   0  0  0  0  0
   95.7822  112.8746  124.9030 C   0  0  0  0  0
   95.6458  113.3600  123.4735 C   0  0  0  0  0
   95.0543  112.1939  122.7474 C   0  0  0  0  0
   94.5695  111.3018  123.8602 C   0  0  0  0  0
  102.2004  109.5720  126.7976 N   0  0  0  0  0
   97.9179  110.2872  125.9858 N   0  0  0  0  0
   98.1482  112.1930  124.6599 N   0  0  0  0  0
  100.0625  106.5925  126.2667 O   0  0  0  0  0
   95.3667  111.5333  124.9904 O   0  0  0  0  0
   95.7203  108.3325  121.9561 F   0  0  0  0  0
   94.8077  106.4485  122.7904 F   0  0  0  0  0
   96.3448  106.3304  121.1468 F   0  0  0  0  0
   97.7302  108.4816  127.8857 S   0  0  0  0  0
   99.5115  110.2538  123.8377 S   0  0  0  0  0
  1 27  1  0  0  0
  2 27  1  0  0  0
  2  3  1  0  0  0
  3  4  1  0  0  0
  4  5  1  0  0  0
  5  6  1  0  0  0
  5 27  1  0  0  0
  6 30  1  0  0  0
  7 30  1  0  0  0
  8  9  1  0  0  0
 10 12  1  0  0  0
 11 10  1  0  0  0
 11 32  1  0  0  0
 11 33  1  0  0  0
 11 34  1  0  0  0
 13 14  1  0  0  0
 13  7  1  0  0  0
 14 28  1  0  0  0
 15 36  1  0  0  0
 16 36  1  0  0  0
 17 16  1  0  0  0
 17 18  1  0  0  0
 17 19  1  0  0  0
 17 20  1  0  0  0
 21 29  1  0  0  0
 22 29  1  0  0  0
 23 22  1  0  0  0
 23 24  1  0  0  0
 23 31  1  0  0  0
 24 25  1  0  0  0
 25 26  1  0  0  0
 26 31  1  0  0  0
 29 15  1  0  0  0
  7  8  2  0  0  0
  9 10  2  0  0  0
 12 13  2  0  0  0
 14 35  2  0  0  0
 15 28  2  0  0  0
 16 21  2  0  0  0
M  END
> <rmsd>
0.706576169

$$$$
CHEMBL562704_6PT0


 27 30  0  0  0  0  0  0  0  0999 V2000
   93.9330  111.6086  124.3956 C   0  0  0  0  0
   95.3670  111.2702  124.7431 C   0  0  0  0  0
   96.1312  110.9456  123.4731 C   0  0  0  0  0
   97.9404  109.5344  124.4756 C   0  0  0  0  0
   99.3333  109.5553  124.5473 C   0  0  0  0  0
  100.1703  108.5275  125.1985 C   0  0  0  0  0
  101.5773  108.7820  125.5734 C   0  0  0  0  0
  102.5469  107.8817  125.1280 C   0  0  0  0  0
  103.8917  108.0736  125.4330 C   0  0  0  0  0
  104.3120  109.1670  126.1924 C   0  0  0  0  0
  106.3764  110.4808  126.7682 C   0  0  0  0  0
  106.5016  111.3778  125.5513 C   0  0  0  0  0
  103.3403  110.0701  126.6971 C   0  0  0  0  0
  103.6963  111.1391  127.5339 C   0  0  0  0  0
  102.7302  112.0038  128.0491 C   0  0  0  0  0
  101.3849  111.8073  127.7440 C   0  0  0  0  0
  101.0054  110.7457  126.9236 C   0  0  0  0  0
  101.9654  109.8709  126.3869 C   0  0  0  0  0
   99.7422  110.6840  123.8548 C   0  0  0  0  0
  101.0135  111.1790  123.5619 C   0  0  0  0  0
  101.0971  112.3604  122.8046 C   0  0  0  0  0
   99.9268  113.0075  122.3541 C   0  0  0  0  0
   98.6583  112.4792  122.6522 C   0  0  0  0  0
   98.6065  111.3074  123.4087 C   0  0  0  0  0
   97.5151  110.6205  123.7875 N   0  0  0  0  0
   99.6762  107.3902  125.4247 O   0  0  0  0  0
  105.6943  109.2807  126.4220 O   0  0  0  0  0
  1  2  1  0  0  0
  2  3  1  0  0  0
  3 25  1  0  0  0
  5  6  1  0  0  0
  5 19  1  0  0  0
  6  7  1  0  0  0
  8  9  1  0  0  0
 10 27  1  0  0  0
 10 13  1  0  0  0
 11 27  1  0  0  0
 11 12  1  0  0  0
 14 15  1  0  0  0
 16 17  1  0  0  0
 18  7  1  0  0  0
 18 13  1  0  0  0
 20 21  1  0  0  0
 22 23  1  0  0  0
 24 25  1  0  0  0
 24 19  1  0  0  0
 25  4  1  0  0  0
  4  5  2  0  0  0
  6 26  2  0  0  0
  7  8  2  0  0  0
  9 10  2  0  0  0
 13 14  2  0  0  0
 15 16  2  0  0  0
 17 18  2  0  0  0
 19 20  2  0  0  0
 21 22  2  0  0  0
 23 24  2  0  0  0
M  END
> <rmsd>
0.708818257

$$$$
CHEMBL561090_6PT0


 28 31  0  0  0  0  0  0  0  0999 V2000
   93.1333  110.7487  121.3007 C   0  0  0  0  0
   93.8975  109.5876  121.9080 C   0  0  0  0  0
   94.9169  110.0927  122.9177 C   0  0  0  0  0
   96.1128  110.7380  122.2275 C   0  0  0  0  0
   96.9869  109.6942  121.5419 C   0  0  0  0  0
   98.6280  109.1964  123.3964 C   0  0  0  0  0
   99.1482  110.5899  123.5354 C   0  0  0  0  0
   99.0079  108.0978  124.1758 C   0  0  0  0  0
  100.0044  108.0493  125.2689 C   0  0  0  0  0
  101.2097  108.9119  125.2657 C   0  0  0  0  0
  101.8926  109.0986  124.0567 C   0  0  0  0  0
  103.0494  109.8736  123.9977 C   0  0  0  0  0
  103.5561  110.4780  125.1477 C   0  0  0  0  0
  104.7978  111.2985  125.0279 C   0  0  0  0  0
  102.8949  110.3057  126.3785 C   0  0  0  0  0
  103.3849  110.9102  127.5470 C   0  0  0  0  0
  102.7213  110.7461  128.7639 C   0  0  0  0  0
  101.5589  109.9778  128.8276 C   0  0  0  0  0
  101.0586  109.3693  127.6753 C   0  0  0  0  0
  101.7151  109.5155  126.4418 C   0  0  0  0  0
   98.2071  107.0537  123.7452 C   0  0  0  0  0
   98.1394  105.7244  124.1623 C   0  0  0  0  0
   97.2139  104.8839  123.5190 C   0  0  0  0  0
   96.3888  105.3811  122.4876 C   0  0  0  0  0
   96.4787  106.7252  122.0854 C   0  0  0  0  0
   97.4069  107.5370  122.7393 C   0  0  0  0  0
   97.6497  108.8427  122.5257 N   0  0  0  0  0
   99.8391  107.2229  126.2065 O   0  0  0  0  0
  1  2  1  0  0  0
  2  3  1  0  0  0
  3  4  1  0  0  0
  4  5  1  0  0  0
  5 27  1  0  0  0
  7  6  1  0  0  0
  8  9  1  0  0  0
  8 21  1  0  0  0
  9 10  1  0  0  0
 11 12  1  0  0  0
 13 15  1  0  0  0
 14 13  1  0  0  0
 16 17  1  0  0  0
 18 19  1  0  0  0
 20 10  1  0  0  0
 20 15  1  0  0  0
 22 23  1  0  0  0
 24 25  1  0  0  0
 26 27  1  0  0  0
 26 21  1  0  0  0
 27  6  1  0  0  0
  6  8  2  0  0  0
  9 28  2  0  0  0
 10 11  2  0  0  0
 12 13  2  0  0  0
 15 16  2  0  0  0
 17 18  2  0  0  0
 19 20  2  0  0  0
 21 22  2  0  0  0
 23 24  2  0  0  0
 25 26  2  0  0  0
M  END
> <rmsd>
0.516270578

$$$$
CHEMBL539479_6PT0


 27 30  0  0  0  0  0  0  0  0999 V2000
  102.4786  113.5980  128.7501 C   0  0  0  0  0
  103.7436  112.9102  128.2720 C   0  0  0  0  0
  103.7795  111.4651  128.7495 C   0  0  0  0  0
  102.8240  110.6040  127.9770 C   0  0  0  0  0
  101.7067  110.1031  128.6472 C   0  0  0  0  0
  100.7819  109.2983  127.9841 C   0  0  0  0  0
  100.9506  108.9757  126.6338 C   0  0  0  0  0
  102.0980  109.4387  125.9487 C   0  0  0  0  0
  103.0376  110.2625  126.6249 C   0  0  0  0  0
  104.1778  110.7117  125.9396 C   0  0  0  0  0
  104.3953  110.3531  124.6085 C   0  0  0  0  0
  103.4793  109.5358  123.9464 C   0  0  0  0  0
  102.3413  109.0790  124.6126 C   0  0  0  0  0
   99.9236  108.1323  125.9877 C   0  0  0  0  0
   99.2478  108.5379  124.7389 C   0  0  0  0  0
   98.5572  107.6820  123.8809 C   0  0  0  0  0
   98.3992  109.6840  123.0479 C   0  0  0  0  0
   99.1301  109.8093  124.1997 C   0  0  0  0  0
   99.5849  111.0498  124.6484 C   0  0  0  0  0
   99.2852  112.1785  123.8659 C   0  0  0  0  0
   98.5416  112.0473  122.6737 C   0  0  0  0  0
   98.0846  110.7864  122.2516 C   0  0  0  0  0
   97.2859  107.8580  121.7364 C   0  0  0  0  0
   98.1808  107.6510  120.5240 C   0  0  0  0  0
   99.1024  106.4663  120.7409 C   0  0  0  0  0
   99.6015  107.0414  126.5306 O   0  0  0  0  0
   98.0497  108.4003  122.8524 N   0  0  0  0  0
  1  2  1  0  0  0
  2  3  1  0  0  0
  3  4  1  0  0  0
  5  6  1  0  0  0
  7  8  1  0  0  0
  7 14  1  0  0  0
  9 10  1  0  0  0
  9  4  1  0  0  0
 11 12  1  0  0  0
 13  8  1  0  0  0
 14 15  1  0  0  0
 16 27  1  0  0  0
 18 19  1  0  0  0
 18 15  1  0  0  0
 20 21  1  0  0  0
 22 17  1  0  0  0
 23 27  1  0  0  0
 23 24  1  0  0  0
 24 25  1  0  0  0
 27 17  1  0  0  0
  4  5  2  0  0  0
  6  7  2  0  0  0
  8  9  2  0  0  0
 10 11  2  0  0  0
 12 13  2  0  0  0
 14 26  2  0  0  0
 15 16  2  0  0  0
 17 18  2  0  0  0
 19 20  2  0  0  0
 21 22  2  0  0  0
M  END
> <rmsd>
0.733001649

$$$$
CHEMBL2387076_5ZTY


 25 27  0  0  0  0  0  0  0  0999 V2000
   95.2261  104.2536  123.2948 C   0  0  0  0  0
   94.0097  104.8564  122.9601 C   0  0  0  0  0
   93.9843  105.9301  122.0645 C   0  0  0  0  0
   95.1755  106.4007  121.5033 C   0  0  0  0  0
   96.3935  105.7961  121.8353 C   0  0  0  0  0
   96.4174  104.7237  122.7337 C   0  0  0  0  0
   97.6664  106.3062  121.2494 C   0  0  0  0  0
   98.6599  107.5751  123.2107 C   0  0  0  0  0
   98.9808  108.8796  123.8402 C   0  0  0  0  0
   99.5570  108.9933  125.1241 C   0  0  0  0  0
  100.4553  110.3057  126.9808 C   0  0  0  0  0
  101.9487  110.6092  126.8871 C   0  0  0  0  0
  102.7340  109.4134  126.3753 C   0  0  0  0  0
  102.8667  109.4805  124.8662 C   0  0  0  0  0
   99.5358  111.3798  124.9661 C   0  0  0  0  0
   98.9756  111.2966  123.6744 C   0  0  0  0  0
   98.6936  110.0482  123.1354 C   0  0  0  0  0
   98.5594  112.5165  122.9001 C   0  0  0  0  0
   99.2541  113.7815  123.3906 C   0  0  0  0  0
   99.1202  113.8767  124.9008 C   0  0  0  0  0
   99.8928  112.7321  125.5468 C   0  0  0  0  0
   98.0682  107.5425  121.9069 N   0  0  0  0  0
   99.8369  110.2287  125.6524 N   0  0  0  0  0
   98.9075  106.4929  123.8094 O   0  0  0  0  0
   99.8189  107.9534  125.7912 O   0  0  0  0  0
  2  3  1  0  0  0
  4  5  1  0  0  0
  6  1  1  0  0  0
  7  5  1  0  0  0
  7 22  1  0  0  0
  8  9  1  0  0  0
  9 10  1  0  0  0
 10 23  1  0  0  0
 11 23  1  0  0  0
 11 12  1  0  0  0
 12 13  1  0  0  0
 13 14  1  0  0  0
 16 17  1  0  0  0
 18 16  1  0  0  0
 18 19  1  0  0  0
 19 20  1  0  0  0
 20 21  1  0  0  0
 21 15  1  0  0  0
 22  8  1  0  0  0
 23 15  1  0  0  0
  1  2  2  0  0  0
  3  4  2  0  0  0
  5  6  2  0  0  0
  8 24  2  0  0  0
 10 25  2  0  0  0
 15 16  2  0  0  0
 17  9  2  0  0  0
M  END
> <rmsd>
0.748624802

$$$$
CHEMBL561089_6PT0


 26 29  0  0  0  0  0  0  0  0999 V2000
   94.8983  110.0937  122.8284 C   0  0  0  0  0
   96.1242  110.7408  122.2132 C   0  0  0  0  0
   96.9926  109.6916  121.5352 C   0  0  0  0  0
   98.6277  109.1959  123.3957 C   0  0  0  0  0
   99.1480  110.5894  123.5344 C   0  0  0  0  0
   99.0079  108.0976  124.1753 C   0  0  0  0  0
  100.0044  108.0495  125.2686 C   0  0  0  0  0
  101.2094  108.9124  125.2655 C   0  0  0  0  0
  101.8925  109.0991  124.0566 C   0  0  0  0  0
  103.0492  109.8744  123.9978 C   0  0  0  0  0
  103.5557  110.4788  125.1478 C   0  0  0  0  0
  104.7973  111.2995  125.0282 C   0  0  0  0  0
  102.8944  110.3064  126.3786 C   0  0  0  0  0
  103.3841  110.9110  127.5473 C   0  0  0  0  0
  102.7204  110.7467  128.7640 C   0  0  0  0  0
  101.5581  109.9784  128.8275 C   0  0  0  0  0
  101.0581  109.3697  127.6751 C   0  0  0  0  0
  101.7147  109.5161  126.4418 C   0  0  0  0  0
   98.2096  107.0524  123.7430 C   0  0  0  0  0
   98.1452  105.7223  124.1580 C   0  0  0  0  0
   97.2235  104.8800  123.5115 C   0  0  0  0  0
   96.3992  105.3762  122.4791 C   0  0  0  0  0
   96.4858  106.7211  122.0789 C   0  0  0  0  0
   97.4100  107.5351  122.7363 C   0  0  0  0  0
   97.6507  108.8414  122.5238 N   0  0  0  0  0
   99.8391  107.2232  126.2063 O   0  0  0  0  0
  1  2  1  0  0  0
  2  3  1  0  0  0
  3 25  1  0  0  0
  5  4  1  0  0  0
  6  7  1  0  0  0
  6 19  1  0  0  0
  7  8  1  0  0  0
  9 10  1  0  0  0
 11 13  1  0  0  0
 12 11  1  0  0  0
 14 15  1  0  0  0
 16 17  1  0  0  0
 18  8  1  0  0  0
 18 13  1  0  0  0
 20 21  1  0  0  0
 22 23  1  0  0  0
 24 25  1  0  0  0
 24 19  1  0  0  0
 25  4  1  0  0  0
  4  6  2  0  0  0
  7 26  2  0  0  0
  8  9  2  0  0  0
 10 11  2  0  0  0
 13 14  2  0  0  0
 15 16  2  0  0  0
 17 18  2  0  0  0
 19 20  2  0  0  0
 21 22  2  0  0  0
 23 24  2  0  0  0
M  END
> <rmsd>
0.516779482

$$$$
CHEMBL1269867_6PT0


 38 41  0  0  0  0  0  0  0  0999 V2000
   98.7452  106.8782  133.0886 C   0  0  0  0  0
   99.7147  107.2227  131.9716 C   0  0  0  0  0
   98.9072  107.5190  130.7050 C   0  0  0  0  0
  101.4827  109.6110  128.1715 C   0  0  0  0  0
  102.8311  109.9682  128.2077 C   0  0  0  0  0
  103.1892  110.0273  126.8776 C   0  0  0  0  0
  104.4263  110.3215  126.3092 C   0  0  0  0  0
  104.5264  110.2857  124.9073 C   0  0  0  0  0
  103.4051  109.9559  124.1173 C   0  0  0  0  0
  102.1702  109.6611  124.7201 C   0  0  0  0  0
  102.0963  109.7131  126.1136 C   0  0  0  0  0
   99.0508  109.7787  124.8409 C   0  0  0  0  0
   98.7729  109.0102  123.7042 C   0  0  0  0  0
   98.4672  109.6328  122.4910 C   0  0  0  0  0
   98.4389  111.0276  122.4091 C   0  0  0  0  0
   98.7158  111.7997  123.5404 C   0  0  0  0  0
   99.0214  111.1802  124.7561 C   0  0  0  0  0
  100.7193  106.6897  129.3000 C   0  0  0  0  0
  101.5755  106.4006  130.5311 C   0  0  0  0  0
  100.6894  106.0705  131.7249 C   0  0  0  0  0
  101.5679  105.8480  132.9468 C   0  0  0  0  0
  102.1298  104.1324  135.6859 C   0  0  0  0  0
   99.7505  107.7703  129.5287 N   0  0  0  0  0
  101.0324  109.4647  126.8971 N   0  0  0  0  0
  102.2616  104.5743  132.8375 N   0  0  0  0  0
  100.5332  109.3259  129.6266 S   0  0  0  0  0
   99.4467  108.9822  126.3586 S   0  0  0  0  0
  103.1999  104.3543  134.2770 S   0  0  0  0  0
   99.5023  110.4106  129.7638 O   0  0  0  0  0
  101.4461  109.3756  130.8211 O   0  0  0  0  0
   99.4232  107.4903  126.1768 O   0  0  0  0  0
   98.3990  109.3707  127.3625 O   0  0  0  0  0
  104.0574  103.1311  134.1162 O   0  0  0  0  0
  104.0857  105.5492  134.4987 O   0  0  0  0  0
   99.2927  111.9455  125.8426 F   0  0  0  0  0
  101.2344  103.1115  135.4300 F   0  0  0  0  0
  101.4338  105.3001  135.9350 F   0  0  0  0  0
  102.8878  103.8086  136.7952 F   0  0  0  0  0
  2  1  1  0  0  0
  2  3  1  0  0  0
  3 23  1  0  0  0
  5  6  1  0  0  0
  7  8  1  0  0  0
  9 10  1  0  0  0
 11 24  1  0  0  0
 11  6  1  0  0  0
 13 14  1  0  0  0
 15 16  1  0  0  0
 17 35  1  0  0  0
 17 12  1  0  0  0
 18 23  1  0  0  0
 18 19  1  0  0  0
 19 20  1  0  0  0
 20 21  1  0  0  0
 20  2  1  0  0  0
 21 25  1  0  0  0
 22 36  1  0  0  0
 22 37  1  0  0  0
 22 38  1  0  0  0
 24  4  1  0  0  0
 26 23  1  0  0  0
 26  4  1  0  0  0
 27 24  1  0  0  0
 27 12  1  0  0  0
 28 25  1  0  0  0
 28 22  1  0  0  0
  4  5  2  0  0  0
  6  7  2  0  0  0
  8  9  2  0  0  0
 10 11  2  0  0  0
 12 13  2  0  0  0
 14 15  2  0  0  0
 16 17  2  0  0  0
 26 29  2  0  0  0
 26 30  2  0  0  0
 27 31  2  0  0  0
 27 32  2  0  0  0
 28 33  2  0  0  0
 28 34  2  0  0  0
M  END
> <rmsd>
0.822003126

$$$$
CHEMBL3353833_6PT0


 30 34  0  0  0  0  0  0  0  0999 V2000
   97.6174  109.5094  123.4368 C   0  0  0  0  0
   97.7376  110.4243  124.4875 C   0  0  0  0  0
   98.9522  111.0811  124.7068 C   0  0  0  0  0
  100.0464  110.8281  123.8720 C   0  0  0  0  0
   99.9269  109.9074  122.8249 C   0  0  0  0  0
   98.7122  109.2504  122.6062 C   0  0  0  0  0
  101.3503  111.5042  124.1303 C   0  0  0  0  0
  103.2056  109.8080  124.3774 C   0  0  0  0  0
  103.6198  109.6913  123.0507 C   0  0  0  0  0
  104.6271  108.7520  122.7612 C   0  0  0  0  0
  105.1870  107.9529  123.7834 C   0  0  0  0  0
  104.7506  108.0769  125.1148 C   0  0  0  0  0
  103.7616  109.0202  125.3732 C   0  0  0  0  0
  103.0958  109.3635  126.5225 C   0  0  0  0  0
  102.1860  110.3226  126.1909 C   0  0  0  0  0
  101.3852  110.3124  128.3757 C   0  0  0  0  0
   98.9253  109.7166  129.0604 C   0  0  0  0  0
   99.2291  108.3122  129.4842 C   0  0  0  0  0
   99.1970  107.9895  130.8470 C   0  0  0  0  0
   99.4732  106.6876  131.2715 C   0  0  0  0  0
   99.7813  105.6984  130.3353 C   0  0  0  0  0
   99.8099  106.0096  128.9734 C   0  0  0  0  0
   99.5312  107.3097  128.5394 C   0  0  0  0  0
   99.5798  107.5914  127.1270 C   0  0  0  0  0
  102.2377  110.6186  124.8742 N   0  0  0  0  0
  101.3146  110.8090  127.1043 N   0  0  0  0  0
  102.3102  109.3464  128.6919 N   0  0  0  0  0
  103.1610  108.8651  127.7759 N   0  0  0  0  0
   99.6213  107.8168  125.9927 N   0  0  0  0  0
  100.2234  110.8723  129.6136 S   0  0  0  0  0
  2  3  1  0  0  0
  4  5  1  0  0  0
  6  1  1  0  0  0
  7  4  1  0  0  0
  7 25  1  0  0  0
  9 10  1  0  0  0
 11 12  1  0  0  0
 13 14  1  0  0  0
 13  8  1  0  0  0
 14 28  1  0  0  0
 15 26  1  0  0  0
 15 25  1  0  0  0
 16 27  1  0  0  0
 16 30  1  0  0  0
 17 30  1  0  0  0
 17 18  1  0  0  0
 19 20  1  0  0  0
 21 22  1  0  0  0
 23 24  1  0  0  0
 23 18  1  0  0  0
 25  8  1  0  0  0
  1  2  2  0  0  0
  3  4  2  0  0  0
  5  6  2  0  0  0
  8  9  2  0  0  0
 10 11  2  0  0  0
 12 13  2  0  0  0
 14 15  2  0  0  0
 16 26  2  0  0  0
 18 19  2  0  0  0
 20 21  2  0  0  0
 22 23  2  0  0  0
 27 28  2  0  0  0
 24 29  3  0  0  0
M  END
> <rmsd>
0.797278523

$$$$
CHEMBL539994_6PT0


 28 31  0  0  0  0  0  0  0  0999 V2000
   92.9802  107.6049  123.9804 C   0  0  0  0  0
   93.7497  108.2097  122.8252 C   0  0  0  0  0
   95.1682  107.6820  122.8336 C   0  0  0  0  0
   95.9422  108.2957  121.6831 C   0  0  0  0  0
   97.3821  107.8044  121.6928 C   0  0  0  0  0
   98.6107  107.6555  123.8596 C   0  0  0  0  0
   99.2686  108.5202  124.7341 C   0  0  0  0  0
   99.9269  108.1206  125.9945 C   0  0  0  0  0
  100.9648  108.9519  126.6420 C   0  0  0  0  0
  100.8309  109.2301  128.0092 C   0  0  0  0  0
  101.7724  110.0168  128.6756 C   0  0  0  0  0
  102.8692  110.5335  127.9852 C   0  0  0  0  0
  103.0360  110.2559  126.6277 C   0  0  0  0  0
  104.1442  110.7694  125.9480 C   0  0  0  0  0
  104.3321  110.4817  124.5939 C   0  0  0  0  0
  103.4192  109.6689  123.9158 C   0  0  0  0  0
  103.6096  109.3806  122.4676 C   0  0  0  0  0
  102.8083  110.3603  121.6310 C   0  0  0  0  0
  102.3074  109.1552  124.5890 C   0  0  0  0  0
  102.0913  109.4498  125.9444 C   0  0  0  0  0
   99.1453  109.7901  124.1930 C   0  0  0  0  0
   99.5748  111.0360  124.6516 C   0  0  0  0  0
   99.2858  112.1601  123.8586 C   0  0  0  0  0
   98.5778  112.0192  122.6462 C   0  0  0  0  0
   98.1448  110.7531  122.2148 C   0  0  0  0  0
   98.4456  109.6553  123.0230 C   0  0  0  0  0
   98.1152  108.3665  122.8206 N   0  0  0  0  0
   99.5813  107.0411  126.5460 O   0  0  0  0  0
  1  2  1  0  0  0
  2  3  1  0  0  0
  3  4  1  0  0  0
  4  5  1  0  0  0
  5 27  1  0  0  0
  7  8  1  0  0  0
  7 21  1  0  0  0
  8  9  1  0  0  0
 10 11  1  0  0  0
 12 13  1  0  0  0
 14 15  1  0  0  0
 16 19  1  0  0  0
 17 16  1  0  0  0
 17 18  1  0  0  0
 20  9  1  0  0  0
 20 13  1  0  0  0
 22 23  1  0  0  0
 24 25  1  0  0  0
 26 27  1  0  0  0
 26 21  1  0  0  0
 27  6  1  0  0  0
  6  7  2  0  0  0
  8 28  2  0  0  0
  9 10  2  0  0  0
 11 12  2  0  0  0
 13 14  2  0  0  0
 15 16  2  0  0  0
 19 20  2  0  0  0
 21 22  2  0  0  0
 23 24  2  0  0  0
 25 26  2  0  0  0
M  END
> <rmsd>
0.757506549

$$$$
CHEMBL564622_6PT0


 29 32  0  0  0  0  0  0  0  0999 V2000
   92.8797  110.4825  124.2199 C   0  0  0  0  0
   94.0818  111.1386  123.5748 C   0  0  0  0  0
   94.9109  110.0873  122.8691 C   0  0  0  0  0
   96.1205  110.7419  122.2304 C   0  0  0  0  0
   96.9856  109.6958  121.5441 C   0  0  0  0  0
   98.6282  109.1959  123.3969 C   0  0  0  0  0
   99.1502  110.5888  123.5351 C   0  0  0  0  0
   99.0073  108.0974  124.1766 C   0  0  0  0  0
  100.0045  108.0482  125.2690 C   0  0  0  0  0
  101.2097  108.9109  125.2654 C   0  0  0  0  0
  101.8934  109.0954  124.0568 C   0  0  0  0  0
  103.0498  109.8705  123.9969 C   0  0  0  0  0
  103.5555  110.4808  125.1458 C   0  0  0  0  0
  104.8091  111.2893  125.0289 C   0  0  0  0  0
  106.0239  110.4050  125.2374 C   0  0  0  0  0
  102.8942  110.3061  126.3777 C   0  0  0  0  0
  103.3831  110.9116  127.5463 C   0  0  0  0  0
  102.7197  110.7473  128.7631 C   0  0  0  0  0
  101.5578  109.9783  128.8268 C   0  0  0  0  0
  101.0583  109.3692  127.6744 C   0  0  0  0  0
  101.7147  109.5156  126.4411 C   0  0  0  0  0
   98.2049  107.0540  123.7472 C   0  0  0  0  0
   98.1362  105.7250  124.1651 C   0  0  0  0  0
   97.2092  104.8853  123.5230 C   0  0  0  0  0
   96.3837  105.3829  122.4923 C   0  0  0  0  0
   96.4745  106.7266  122.0893 C   0  0  0  0  0
   97.4045  107.5378  122.7417 C   0  0  0  0  0
   97.6487  108.8432  122.5272 N   0  0  0  0  0
   99.8397  107.2217  126.2066 O   0  0  0  0  0
  1  2  1  0  0  0
  2  3  1  0  0  0
  3  4  1  0  0  0
  4  5  1  0  0  0
  5 28  1  0  0  0
  7  6  1  0  0  0
  8  9  1  0  0  0
  8 22  1  0  0  0
  9 10  1  0  0  0
 11 12  1  0  0  0
 13 16  1  0  0  0
 14 13  1  0  0  0
 14 15  1  0  0  0
 17 18  1  0  0  0
 19 20  1  0  0  0
 21 10  1  0  0  0
 21 16  1  0  0  0
 23 24  1  0  0  0
 25 26  1  0  0  0
 27 28  1  0  0  0
 27 22  1  0  0  0
 28  6  1  0  0  0
  6  8  2  0  0  0
  9 29  2  0  0  0
 10 11  2  0  0  0
 12 13  2  0  0  0
 16 17  2  0  0  0
 18 19  2  0  0  0
 20 21  2  0  0  0
 22 23  2  0  0  0
 24 25  2  0  0  0
 26 27  2  0  0  0
M  END
> <rmsd>
0.515841424

$$$$
CHEMBL3590630_8GUR


 23 24  0  0  0  0  0  0  0  0999 V2000
   94.4279  104.9772  120.3927 C   0  0  0  0  0
   95.8991  105.3441  120.3470 C   0  0  0  0  0
   96.6936  104.4763  121.3109 C   0  0  0  0  0
   96.4629  104.8998  122.7536 C   0  0  0  0  0
   98.0988  106.3081  124.0004 C   0  0  0  0  0
   98.7250  107.4625  124.2730 C   0  0  0  0  0
   98.4481  108.7285  123.5583 C   0  0  0  0  0
   99.0600  109.9833  124.0365 C   0  0  0  0  0
   98.6621  111.1960  123.4584 C   0  0  0  0  0
   99.1720  112.4047  123.9203 C   0  0  0  0  0
  100.0732  112.4152  124.9799 C   0  0  0  0  0
  100.4926  111.2221  125.5728 C   0  0  0  0  0
  101.3949  111.3500  126.7527 C   0  0  0  0  0
  100.0153  109.9726  125.0835 C   0  0  0  0  0
  101.7634  108.5670  126.2903 C   0  0  0  0  0
  102.8443  108.1440  125.3048 C   0  0  0  0  0
  103.2072  109.2922  124.3831 C   0  0  0  0  0
  104.2632  108.8354  123.3998 C   0  0  0  0  0
   99.7500  107.4856  125.3317 C   0  0  0  0  0
   97.0903  106.1851  123.0008 N   0  0  0  0  0
  100.4695  108.6996  125.6189 N   0  0  0  0  0
   97.6843  108.7520  122.5538 O   0  0  0  0  0
  100.0169  106.4307  125.9733 O   0  0  0  0  0
  1  2  1  0  0  0
  2  3  1  0  0  0
  3  4  1  0  0  0
  4 20  1  0  0  0
  6  7  1  0  0  0
  7  8  1  0  0  0
  9 10  1  0  0  0
 11 12  1  0  0  0
 13 12  1  0  0  0
 14 21  1  0  0  0
 14  8  1  0  0  0
 15 21  1  0  0  0
 15 16  1  0  0  0
 16 17  1  0  0  0
 17 18  1  0  0  0
 19  6  1  0  0  0
 20  5  1  0  0  0
 21 19  1  0  0  0
  5  6  2  0  0  0
  7 22  2  0  0  0
  8  9  2  0  0  0
 10 11  2  0  0  0
 12 14  2  0  0  0
 19 23  2  0  0  0
M  END
> <rmsd>
0.759190798

$$$$
CHEMBL256752_8GUQ


 29 32  0  0  0  0  0  0  0  0999 V2000
  103.5304  108.4117  125.9203 C   0  0  0  0  0
  103.0321  109.8290  126.1958 C   0  0  0  0  0
  103.3528  110.6830  124.9764 C   0  0  0  0  0
  103.6983  110.3627  127.4854 C   0  0  0  0  0
  103.3963  111.8627  127.6313 C   0  0  0  0  0
  101.9009  111.8989  127.9556 C   0  0  0  0  0
  101.5335  110.4234  127.9774 C   0  0  0  0  0
  100.2796  110.1438  128.7886 C   0  0  0  0  0
  102.7776  109.8056  128.5423 C   0  0  0  0  0
  101.5207  109.9138  126.5294 C   0  0  0  0  0
   99.7117  108.3380  125.5848 C   0  0  0  0  0
   99.1232  109.3210  124.6390 C   0  0  0  0  0
   99.7492  110.5393  124.3471 C   0  0  0  0  0
   99.1782  111.4372  123.4441 C   0  0  0  0  0
   97.9708  111.1319  122.8118 C   0  0  0  0  0
   97.3310  109.9075  123.0870 C   0  0  0  0  0
   93.3509  110.2432  122.0474 C   0  0  0  0  0
   92.2674  111.3129  122.2330 C   0  0  0  0  0
   92.5404  112.2110  123.4428 C   0  0  0  0  0
   93.1391  111.4087  124.5956 C   0  0  0  0  0
   94.3884  110.6237  124.1599 C   0  0  0  0  0
   97.9145  109.0171  123.9959 C   0  0  0  0  0
  100.8446  108.6213  126.4187 N   0  0  0  0  0
   94.5930  110.6448  122.7061 N   0  0  0  0  0
   99.1926  107.1929  125.6682 O   0  0  0  0  0
   95.3673  108.1105  122.8205 O   0  0  0  0  0
   96.0019  109.3933  120.8362 O   0  0  0  0  0
   97.2566  112.4201  121.5880 Br  0  0  0  0  0
   95.8046  109.4627  122.3248 S   0  0  0  0  0
  1  2  1  0  0  0
  2  3  1  0  0  0
  4  2  1  0  0  0
  4  5  1  0  0  0
  5  6  1  0  0  0
  6  7  1  0  0  0
  7  8  1  0  0  0
  7  9  1  0  0  0
  7 10  1  0  0  0
  9  4  1  0  0  0
 10 23  1  0  0  0
 10  2  1  0  0  0
 11 12  1  0  0  0
 13 14  1  0  0  0
 15 28  1  0  0  0
 15 16  1  0  0  0
 17 24  1  0  0  0
 17 18  1  0  0  0
 18 19  1  0  0  0
 19 20  1  0  0  0
 20 21  1  0  0  0
 21 24  1  0  0  0
 22 12  1  0  0  0
 23 11  1  0  0  0
 29 16  1  0  0  0
 29 24  1  0  0  0
 11 25  2  0  0  0
 12 13  2  0  0  0
 14 15  2  0  0  0
 16 22  2  0  0  0
 29 26  2  0  0  0
 29 27  2  0  0  0
M  END
> <rmsd>
0.825663865

$$$$
CHEMBL591572_8GUQ


 26 27  0  0  0  0  0  0  0  0999 V2000
   99.2851  112.4802  134.3332 C   0  0  0  0  0
  100.0988  112.3449  133.0520 C   0  0  0  0  0
  100.4358  110.8920  132.6982 C   0  0  0  0  0
   99.1486  110.0970  132.5063 C   0  0  0  0  0
  101.2366  110.2468  133.8201 C   0  0  0  0  0
  101.2701  110.8832  131.4413 C   0  0  0  0  0
  101.4859  110.1048  129.0024 C   0  0  0  0  0
  102.7316  110.7035  128.7812 C   0  0  0  0  0
  103.3653  110.5951  127.5415 C   0  0  0  0  0
  104.6915  111.2547  127.3633 C   0  0  0  0  0
  102.7509  109.8770  126.4970 C   0  0  0  0  0
  103.4299  109.7629  125.1671 C   0  0  0  0  0
  101.4954  109.2715  126.7172 C   0  0  0  0  0
   99.4772  110.4707  124.5163 C   0  0  0  0  0
   98.1408  110.2810  123.8342 C   0  0  0  0  0
   98.4478  109.4156  122.6475 C   0  0  0  0  0
   99.6608  108.6225  123.0767 C   0  0  0  0  0
  100.5696  108.3604  121.8885 C   0  0  0  0  0
  100.8780  109.3937  127.9669 C   0  0  0  0  0
  102.3786  111.4865  131.4355 O   0  0  0  0  0
  101.5253  107.2034  125.0361 O   0  0  0  0  0
   99.3587  107.8368  125.9785 O   0  0  0  0  0
   99.9784  107.4311  121.0323 O   0  0  0  0  0
  100.8099  110.1992  130.2635 N   0  0  0  0  0
  100.3743  109.3998  124.0858 N   0  0  0  0  0
  100.6655  108.3650  125.4506 S   0  0  0  0  0
  1  2  1  0  0  0
  2  3  1  0  0  0
  3  4  1  0  0  0
  3  5  1  0  0  0
  3  6  1  0  0  0
  6 24  1  0  0  0
  8  9  1  0  0  0
 10  9  1  0  0  0
 11 13  1  0  0  0
 12 11  1  0  0  0
 14 25  1  0  0  0
 14 15  1  0  0  0
 15 16  1  0  0  0
 16 17  1  0  0  0
 17 18  1  0  0  0
 17 25  1  0  0  0
 18 23  1  0  0  0
 19  7  1  0  0  0
 24  7  1  0  0  0
 26 13  1  0  0  0
 26 25  1  0  0  0
  6 20  2  0  0  0
  7  8  2  0  0  0
  9 11  2  0  0  0
 13 19  2  0  0  0
 26 21  2  0  0  0
 26 22  2  0  0  0
M  END
> <rmsd>
0.930574954

$$$$
CHEMBL72374_6PT0


 31 34  0  0  0  0  0  0  0  0999 V2000
   96.8869  111.6751  120.5587 C   0  0  0  0  0
   98.0394  111.1135  122.6736 C   0  0  0  0  0
   99.1240  111.9799  122.3853 C   0  0  0  0  0
  100.1983  112.1137  123.2814 C   0  0  0  0  0
  100.1579  111.3699  124.4620 C   0  0  0  0  0
   99.1107  110.5264  124.7391 C   0  0  0  0  0
   98.0330  110.3738  123.8697 C   0  0  0  0  0
   99.3740  109.9360  125.9562 C   0  0  0  0  0
   98.5457  108.9078  126.6580 C   0  0  0  0  0
   98.9696  107.5310  126.2529 C   0  0  0  0  0
   96.9693  107.3137  124.7388 C   0  0  0  0  0
   95.9935  106.1842  124.4101 C   0  0  0  0  0
   97.5419  104.5543  124.4852 C   0  0  0  0  0
   98.7052  105.4867  124.8241 C   0  0  0  0  0
  100.6001  110.4497  126.3670 C   0  0  0  0  0
  101.2603  110.1267  127.6671 C   0  0  0  0  0
  102.3073  112.0820  125.5027 C   0  0  0  0  0
  103.5378  111.5219  126.0986 C   0  0  0  0  0
  104.2689  112.3263  126.9826 C   0  0  0  0  0
  105.4313  111.8470  127.5855 C   0  0  0  0  0
  105.8795  110.5573  127.3051 C   0  0  0  0  0
  105.1759  109.7434  126.4144 C   0  0  0  0  0
  104.0044  110.2206  125.7948 C   0  0  0  0  0
   96.9653  110.9720  121.7914 O   0  0  0  0  0
  100.0387  107.0586  126.7264 O   0  0  0  0  0
   96.6384  105.2087  123.6303 O   0  0  0  0  0
  102.3300  113.2599  125.0527 O   0  0  0  0  0
   98.1835  106.7548  125.3361 N   0  0  0  0  0
  101.0834  111.3256  125.4447 N   0  0  0  0  0
  105.8031  108.1351  126.0875 Cl  0  0  0  0  0
  103.1841  109.2133  124.5981 Cl  0  0  0  0  0
  1 24  1  0  0  0
  2 24  1  0  0  0
  3  4  1  0  0  0
  5  6  1  0  0  0
  6  8  1  0  0  0
  7  2  1  0  0  0
  9  8  1  0  0  0
  9 10  1  0  0  0
 10 28  1  0  0  0
 11 28  1  0  0  0
 11 12  1  0  0  0
 12 26  1  0  0  0
 13 26  1  0  0  0
 13 14  1  0  0  0
 14 28  1  0  0  0
 15 29  1  0  0  0
 16 15  1  0  0  0
 17 18  1  0  0  0
 19 20  1  0  0  0
 21 22  1  0  0  0
 22 30  1  0  0  0
 23 31  1  0  0  0
 23 18  1  0  0  0
 29 17  1  0  0  0
 29  5  1  0  0  0
  2  3  2  0  0  0
  4  5  2  0  0  0
  6  7  2  0  0  0
  8 15  2  0  0  0
 10 25  2  0  0  0
 17 27  2  0  0  0
 18 19  2  0  0  0
 20 21  2  0  0  0
 22 23  2  0  0  0
M  END
> <rmsd>
0.777764857

$$$$
CHEMBL579249_5ZTY


 31 34  0  0  0  0  0  0  0  0999 V2000
  100.3226  107.7460  126.4060 N   0  0  0  0  0
   99.4512  107.0716  125.6681 N   0  0  0  0  0
  101.1447  110.0785  126.5505 N   0  0  0  0  0
   97.1792  108.5174  123.0282 N   0  0  0  0  0
   98.8299  107.9434  124.8453 C   0  0  0  0  0
   99.3235  109.2195  125.0704 C   0  0  0  0  0
  100.2657  109.0535  126.0622 C   0  0  0  0  0
  100.7938  111.1840  127.2314 C   0  0  0  0  0
  101.9005  111.9651  127.5061 C   0  0  0  0  0
  102.9862  111.3019  126.9473 C   0  0  0  0  0
  102.4762  110.1540  126.3709 C   0  0  0  0  0
  103.2900  109.1547  125.6212 C   0  0  0  0  0
   99.4042  111.5104  127.6611 C   0  0  0  0  0
   98.9914  110.4826  124.3507 C   0  0  0  0  0
   97.8052  107.5402  123.8691 C   0  0  0  0  0
   96.1557  108.2132  122.0340 C   0  0  0  0  0
   96.7188  107.3070  120.9300 C   0  0  0  0  0
   95.9196  107.3698  119.6180 C   0  0  0  0  0
   94.4915  107.9063  119.7665 C   0  0  0  0  0
   93.5782  107.0095  120.6072 C   0  0  0  0  0
   94.1859  106.5487  121.9355 C   0  0  0  0  0
   94.8857  107.6672  122.7148 C   0  0  0  0  0
  101.1283  107.1282  127.4260 C   0  0  0  0  0
  101.7102  107.8885  128.4509 C   0  0  0  0  0
  102.4769  107.2802  129.4478 C   0  0  0  0  0
  102.6607  105.8878  129.4324 C   0  0  0  0  0
  102.0720  105.1226  128.4221 C   0  0  0  0  0
  101.3084  105.7380  127.4270 C   0  0  0  0  0
   97.4804  106.3253  123.7796 O   0  0  0  0  0
  103.6143  105.0731  130.6612 Cl  0  0  0  0  0
  103.1888  108.2902  130.6947 Cl  0  0  0  0  0
  1  2  1  0  0  0
  1 23  1  0  0  0
  3  8  1  0  0  0
  5  6  1  0  0  0
  5 15  1  0  0  0
  7  3  1  0  0  0
  7  1  1  0  0  0
  9 10  1  0  0  0
 11  3  1  0  0  0
 12 11  1  0  0  0
 13  8  1  0  0  0
 14  6  1  0  0  0
 15  4  1  0  0  0
 16  4  1  0  0  0
 16 17  1  0  0  0
 17 18  1  0  0  0
 18 19  1  0  0  0
 19 20  1  0  0  0
 20 21  1  0  0  0
 21 22  1  0  0  0
 22 16  1  0  0  0
 24 25  1  0  0  0
 25 31  1  0  0  0
 26 27  1  0  0  0
 26 30  1  0  0  0
 28 23  1  0  0  0
  5  2  2  0  0  0
  6  7  2  0  0  0
  8  9  2  0  0  0
 10 11  2  0  0  0
 15 29  2  0  0  0
 23 24  2  0  0  0
 25 26  2  0  0  0
 27 28  2  0  0  0
M  END
> <rmsd>
0.578804374

$$$$
CHEMBL3085420_6PT0


 26 30  0  0  0  0  0  0  0  0999 V2000
  100.0070  107.3591  125.3691 O   0  0  0  0  0
   99.7221  116.2194  125.6562 O   0  0  0  0  0
  100.4831  108.4875  125.0698 C   0  0  0  0  0
   99.6042  109.5353  124.5190 C   0  0  0  0  0
  100.0092  110.7960  124.0798 C   0  0  0  0  0
   98.9273  112.8815  123.2292 C   0  0  0  0  0
   98.7533  113.8296  124.4057 C   0  0  0  0  0
   98.4180  115.2279  123.8942 C   0  0  0  0  0
   98.4432  116.2067  125.0691 C   0  0  0  0  0
   99.8865  114.9794  126.3009 C   0  0  0  0  0
  100.0207  113.8671  125.2611 C   0  0  0  0  0
   97.8470  110.7130  123.8766 C   0  0  0  0  0
   96.5075  111.0229  123.6367 C   0  0  0  0  0
   95.5485  110.0372  123.9305 C   0  0  0  0  0
   95.9417  108.7862  124.4530 C   0  0  0  0  0
   97.2992  108.5043  124.6890 C   0  0  0  0  0
   98.2281  109.4986  124.3837 C   0  0  0  0  0
  101.9563  108.7440  125.2337 C   0  0  0  0  0
  102.4745  108.2019  126.5648 C   0  0  0  0  0
  102.2767  109.6876  126.3917 C   0  0  0  0  0
  103.5789  110.4680  126.2623 C   0  0  0  0  0
  103.2733  111.9625  126.3131 C   0  0  0  0  0
  102.5336  112.3767  127.5976 C   0  0  0  0  0
  101.7564  111.2416  128.2829 C   0  0  0  0  0
  101.1627  110.2610  127.2760 C   0  0  0  0  0
   98.9218  111.4979  123.6846 N   0  0  0  0  0
  3  4  1  0  0  0
  5 26  1  0  0  0
  6 26  1  0  0  0
  6  7  1  0  0  0
  7  8  1  0  0  0
  8  9  1  0  0  0
  9  2  1  0  0  0
 10  2  1  0  0  0
 10 11  1  0  0  0
 11  7  1  0  0  0
 13 14  1  0  0  0
 15 16  1  0  0  0
 17  4  1  0  0  0
 17 12  1  0  0  0
 18  3  1  0  0  0
 18 19  1  0  0  0
 19 20  1  0  0  0
 20 21  1  0  0  0
 20 18  1  0  0  0
 21 22  1  0  0  0
 22 23  1  0  0  0
 23 24  1  0  0  0
 24 25  1  0  0  0
 25 20  1  0  0  0
 26 12  1  0  0  0
  3  1  2  0  0  0
  4  5  2  0  0  0
 12 13  2  0  0  0
 14 15  2  0  0  0
 16 17  2  0  0  0
M  END
> <rmsd>
0.756974399

$$$$
CHEMBL574480_8GUQ


 30 33  0  0  0  0  0  0  0  0999 V2000
   98.5344  110.8544  123.7689 C   0  0  0  0  0
   98.0827  109.4443  123.5836 C   0  0  0  0  0
   98.6401  108.2998  124.1335 C   0  0  0  0  0
   99.8155  108.2137  125.0148 C   0  0  0  0  0
  101.8380  109.3334  126.0603 C   0  0  0  0  0
  102.9375  108.4296  125.5232 C   0  0  0  0  0
  102.3714  110.7629  126.2257 C   0  0  0  0  0
  101.2544  111.7691  126.5449 C   0  0  0  0  0
  100.6989  111.5560  127.9515 C   0  0  0  0  0
  101.8192  111.6855  128.9769 C   0  0  0  0  0
  102.9021  110.6493  128.6975 C   0  0  0  0  0
  103.4721  110.8433  127.2938 C   0  0  0  0  0
   95.9232  106.7596  122.4830 C   0  0  0  0  0
   95.0861  106.0738  123.3712 C   0  0  0  0  0
   94.1386  105.1693  122.8854 C   0  0  0  0  0
   94.0292  104.9332  121.5111 C   0  0  0  0  0
   94.8812  105.6041  120.6173 C   0  0  0  0  0
   95.8302  106.5047  121.1086 C   0  0  0  0  0
   96.9881  108.9922  122.8640 C   0  0  0  0  0
   95.7607  111.1157  122.5099 C   0  0  0  0  0
   94.7452  111.5849  121.7029 C   0  0  0  0  0
   94.3616  110.5271  120.8949 C   0  0  0  0  0
   95.1596  109.4553  121.2430 C   0  0  0  0  0
  100.0354  107.1494  125.6536 O   0  0  0  0  0
  100.7113  109.3227  125.1347 N   0  0  0  0  0
   97.9107  107.2256  123.7681 N   0  0  0  0  0
   96.9260  107.6439  122.9865 N   0  0  0  0  0
   95.9983  109.8219  122.2259 N   0  0  0  0  0
   92.8270  103.7861  120.9453 Cl  0  0  0  0  0
   94.7989  105.3253  118.8859 Cl  0  0  0  0  0
  1  2  1  0  0  0
  2  3  1  0  0  0
  3  4  1  0  0  0
  4 25  1  0  0  0
  5 25  1  0  0  0
  5  6  1  0  0  0
  5  7  1  0  0  0
  7  8  1  0  0  0
  8  9  1  0  0  0
  9 10  1  0  0  0
 10 11  1  0  0  0
 11 12  1  0  0  0
 12  7  1  0  0  0
 14 15  1  0  0  0
 16 29  1  0  0  0
 16 17  1  0  0  0
 17 30  1  0  0  0
 18 13  1  0  0  0
 19 28  1  0  0  0
 21 22  1  0  0  0
 23 28  1  0  0  0
 27 26  1  0  0  0
 27 13  1  0  0  0
 27 19  1  0  0  0
 28 20  1  0  0  0
  3 26  2  0  0  0
  4 24  2  0  0  0
 13 14  2  0  0  0
 15 16  2  0  0  0
 17 18  2  0  0  0
 19  2  2  0  0  0
 20 21  2  0  0  0
 22 23  2  0  0  0
M  END
> <rmsd>
0.726976633

$$$$
CHEMBL574270_5ZTY


 32 35  0  0  0  0  0  0  0  0999 V2000
  100.3232  107.7459  126.4060 N   0  0  0  0  0
   99.4516  107.0713  125.6682 N   0  0  0  0  0
  101.1451  110.0785  126.5503 N   0  0  0  0  0
   97.1796  108.5179  123.0331 N   0  0  0  0  0
   98.8301  107.9434  124.8458 C   0  0  0  0  0
   99.3235  109.2194  125.0708 C   0  0  0  0  0
  100.2661  109.0534  126.0624 C   0  0  0  0  0
  102.4767  110.1539  126.3710 C   0  0  0  0  0
  102.9867  111.3020  126.9468 C   0  0  0  0  0
  101.9009  111.9656  127.5051 C   0  0  0  0  0
  100.7942  111.1844  127.2306 C   0  0  0  0  0
   99.4046  111.5113  127.6598 C   0  0  0  0  0
  103.2906  109.1542  125.6218 C   0  0  0  0  0
   98.9908  110.4825  124.3511 C   0  0  0  0  0
   97.8052  107.5413  123.8696 C   0  0  0  0  0
   96.1782  108.1774  122.0314 C   0  0  0  0  0
   95.4429  109.4065  121.6024 C   0  0  0  0  0
   96.1201  110.4974  121.0347 C   0  0  0  0  0
   95.4123  111.6394  120.6488 C   0  0  0  0  0
   94.0273  111.6975  120.8295 C   0  0  0  0  0
   93.3499  110.6139  121.3966 C   0  0  0  0  0
   94.0569  109.4712  121.7830 C   0  0  0  0  0
   96.8345  107.5008  120.8383 C   0  0  0  0  0
  101.1294  107.1281  127.4256 C   0  0  0  0  0
  101.7112  107.8883  128.4507 C   0  0  0  0  0
  102.4782  107.2799  129.4471 C   0  0  0  0  0
  102.6627  105.8875  129.4313 C   0  0  0  0  0
  102.0741  105.1226  128.4207 C   0  0  0  0  0
  101.3101  105.7379  127.4261 C   0  0  0  0  0
   97.4764  106.3276  123.7789 O   0  0  0  0  0
  103.6169  105.0729  130.6595 Cl  0  0  0  0  0
  103.1899  108.2898  130.6944 Cl  0  0  0  0  0
  1  2  1  0  0  0
  1 24  1  0  0  0
  3  8  1  0  0  0
  5  6  1  0  0  0
  5 15  1  0  0  0
  7  3  1  0  0  0
  7  1  1  0  0  0
  9 10  1  0  0  0
 11  3  1  0  0  0
 12 11  1  0  0  0
 13  8  1  0  0  0
 14  6  1  0  0  0
 15  4  1  0  0  0
 16  4  1  0  0  0
 16 17  1  0  0  0
 16 23  1  0  0  0
 18 19  1  0  0  0
 20 21  1  0  0  0
 22 17  1  0  0  0
 25 26  1  0  0  0
 26 32  1  0  0  0
 27 28  1  0  0  0
 27 31  1  0  0  0
 29 24  1  0  0  0
  5  2  2  0  0  0
  6  7  2  0  0  0
  8  9  2  0  0  0
 10 11  2  0  0  0
 15 30  2  0  0  0
 17 18  2  0  0  0
 19 20  2  0  0  0
 21 22  2  0  0  0
 24 25  2  0  0  0
 26 27  2  0  0  0
 28 29  2  0  0  0
M  END
> <rmsd>
0.578905106

$$$$
CHEMBL3968525_5ZTY


 27 29  0  0  0  0  0  0  0  0999 V2000
  100.5650  110.7180  127.7063 C   0  0  0  0  0
  101.9136  110.2356  127.1764 C   0  0  0  0  0
  102.6765  111.4404  126.6453 C   0  0  0  0  0
  102.6884  109.6081  128.3389 C   0  0  0  0  0
  103.5438  109.7981  130.3654 C   0  0  0  0  0
  102.9446  108.5730  125.5626 C   0  0  0  0  0
  100.4901  108.8306  125.5648 C   0  0  0  0  0
   99.6243  109.7740  124.8326 C   0  0  0  0  0
   97.5276  110.2237  123.7848 C   0  0  0  0  0
   97.9646  111.5072  123.4198 C   0  0  0  0  0
   99.2551  111.9090  123.7711 C   0  0  0  0  0
  100.0903  111.0440  124.4761 C   0  0  0  0  0
   97.2074  113.7690  122.1531 C   0  0  0  0  0
   95.8459  113.7860  121.5682 C   0  0  0  0  0
   95.7633  112.4117  122.1162 C   0  0  0  0  0
   95.7554  108.5115  123.7870 C   0  0  0  0  0
   94.3437  108.3490  123.2649 C   0  0  0  0  0
   93.9804  106.8796  123.2718 C   0  0  0  0  0
   94.3785  107.5546  121.9762 C   0  0  0  0  0
  102.9029  110.5306  129.3675 O   0  0  0  0  0
  100.1268  107.6305  125.6949 O   0  0  0  0  0
   96.2429  109.7989  123.4405 O   0  0  0  0  0
  101.7617  109.2402  126.0949 N   0  0  0  0  0
   98.3653  109.3981  124.4746 N   0  0  0  0  0
   97.1189  112.4014  122.6939 N   0  0  0  0  0
   94.9910  114.6792  122.1853 F   0  0  0  0  0
   95.8395  113.8305  120.1872 F   0  0  0  0  0
  1  2  1  0  0  0
  2  3  1  0  0  0
  2  4  1  0  0  0
  2 23  1  0  0  0
  4 20  1  0  0  0
  5 20  1  0  0  0
  6 23  1  0  0  0
  7  8  1  0  0  0
  9 24  1  0  0  0
  9 22  1  0  0  0
 10 11  1  0  0  0
 10 25  1  0  0  0
 12  8  1  0  0  0
 13 25  1  0  0  0
 13 14  1  0  0  0
 14 15  1  0  0  0
 14 26  1  0  0  0
 14 27  1  0  0  0
 15 25  1  0  0  0
 16 22  1  0  0  0
 16 17  1  0  0  0
 17 18  1  0  0  0
 18 19  1  0  0  0
 19 17  1  0  0  0
 23  7  1  0  0  0
  7 21  2  0  0  0
  8 24  2  0  0  0
  9 10  2  0  0  0
 11 12  2  0  0  0
M  END
> <rmsd>
0.611446202

$$$$
CHEMBL2152808_5ZTY


 30 33  0  0  0  0  0  0  0  0999 V2000
  103.6248  108.4255  125.9561 C   0  0  0  0  0
  103.0653  109.8294  126.1738 C   0  0  0  0  0
  103.4428  110.6756  124.9652 C   0  0  0  0  0
  103.6317  110.4068  127.4924 C   0  0  0  0  0
  103.2857  111.9011  127.5824 C   0  0  0  0  0
  101.7710  111.9067  127.7970 C   0  0  0  0  0
  101.4394  110.4232  127.8380 C   0  0  0  0  0
  100.1426  110.1363  128.5761 C   0  0  0  0  0
  102.6574  109.8520  128.5000 C   0  0  0  0  0
  101.5313  109.8695  126.4085 C   0  0  0  0  0
   99.7399  108.2784  125.5390 C   0  0  0  0  0
   99.1649  109.2860  124.6291 C   0  0  0  0  0
   97.8313  109.6646  124.7984 C   0  0  0  0  0
   95.8507  110.9233  124.2407 C   0  0  0  0  0
   94.9362  110.1444  123.3055 C   0  0  0  0  0
   94.8708  108.6842  123.7182 C   0  0  0  0  0
   94.0071  107.9031  122.7461 C   0  0  0  0  0
   97.9650  111.1908  122.9821 C   0  0  0  0  0
   97.3774  112.1633  122.1539 C   0  0  0  0  0
   98.1095  112.7587  121.1247 C   0  0  0  0  0
   99.4378  112.3899  120.9071 C   0  0  0  0  0
  100.0387  111.4269  121.7198 C   0  0  0  0  0
   99.3153  110.8237  122.7599 C   0  0  0  0  0
   99.9085  109.8545  123.5829 C   0  0  0  0  0
  100.9124  108.5460  126.3145 N   0  0  0  0  0
   97.2525  110.5940  123.9905 N   0  0  0  0  0
   99.1595  107.1692  125.6735 O   0  0  0  0  0
   94.6605  107.7823  121.5191 O   0  0  0  0  0
  101.0945  109.4795  123.3698 O   0  0  0  0  0
   97.5289  113.6936  120.3352 F   0  0  0  0  0
  1  2  1  0  0  0
  2  3  1  0  0  0
  4  2  1  0  0  0
  4  5  1  0  0  0
  5  6  1  0  0  0
  6  7  1  0  0  0
  7  8  1  0  0  0
  7  9  1  0  0  0
  7 10  1  0  0  0
  9  4  1  0  0  0
 10 25  1  0  0  0
 10  2  1  0  0  0
 11 12  1  0  0  0
 13 26  1  0  0  0
 14 26  1  0  0  0
 14 15  1  0  0  0
 15 16  1  0  0  0
 16 17  1  0  0  0
 17 28  1  0  0  0
 19 20  1  0  0  0
 20 30  1  0  0  0
 21 22  1  0  0  0
 23 24  1  0  0  0
 23 18  1  0  0  0
 24 12  1  0  0  0
 25 11  1  0  0  0
 26 18  1  0  0  0
 11 27  2  0  0  0
 12 13  2  0  0  0
 18 19  2  0  0  0
 20 21  2  0  0  0
 22 23  2  0  0  0
 24 29  2  0  0  0
M  END
> <rmsd>
0.815981448

$$$$
CHEMBL557627_6PT0


 26 29  0  0  0  0  0  0  0  0999 V2000
   95.0682  107.7376  122.9475 C   0  0  0  0  0
   95.8238  108.3606  121.7896 C   0  0  0  0  0
   97.2574  107.8519  121.7577 C   0  0  0  0  0
   98.5442  107.6858  123.8893 C   0  0  0  0  0
   99.2424  108.5404  124.7422 C   0  0  0  0  0
   99.9222  108.1341  125.9886 C   0  0  0  0  0
  100.9498  108.9772  126.6340 C   0  0  0  0  0
  100.7769  109.3079  127.9820 C   0  0  0  0  0
  101.7044  110.1095  128.6457 C   0  0  0  0  0
  102.8325  110.5920  127.9790 C   0  0  0  0  0
  103.7843  111.4671  128.7318 C   0  0  0  0  0
  103.3745  112.9216  128.5991 C   0  0  0  0  0
  103.0405  110.2574  126.6259 C   0  0  0  0  0
  104.1768  110.7140  125.9390 C   0  0  0  0  0
  104.3913  110.3598  124.6060 C   0  0  0  0  0
  103.4759  109.5411  123.9443 C   0  0  0  0  0
  102.3402  109.0801  124.6119 C   0  0  0  0  0
  102.0993  109.4364  125.9494 C   0  0  0  0  0
   99.1267  109.8111  124.2013 C   0  0  0  0  0
   99.5918  111.0501  124.6437 C   0  0  0  0  0
   99.2970  112.1780  123.8584 C   0  0  0  0  0
   98.5488  112.0476  122.6691 C   0  0  0  0  0
   98.0814  110.7886  122.2534 C   0  0  0  0  0
   98.3889  109.6867  123.0536 C   0  0  0  0  0
   98.0303  108.4034  122.8640 N   0  0  0  0  0
   99.6024  107.0423  126.5312 O   0  0  0  0  0
  1  2  1  0  0  0
  2  3  1  0  0  0
  3 25  1  0  0  0
  5  6  1  0  0  0
  5 19  1  0  0  0
  6  7  1  0  0  0
  8  9  1  0  0  0
 10 13  1  0  0  0
 11 10  1  0  0  0
 11 12  1  0  0  0
 14 15  1  0  0  0
 16 17  1  0  0  0
 18  7  1  0  0  0
 18 13  1  0  0  0
 20 21  1  0  0  0
 22 23  1  0  0  0
 24 25  1  0  0  0
 24 19  1  0  0  0
 25  4  1  0  0  0
  4  5  2  0  0  0
  6 26  2  0  0  0
  7  8  2  0  0  0
  9 10  2  0  0  0
 13 14  2  0  0  0
 15 16  2  0  0  0
 17 18  2  0  0  0
 19 20  2  0  0  0
 21 22  2  0  0  0
 23 24  2  0  0  0
M  END
> <rmsd>
0.733485937

$$$$
CHEMBL570877_6PT0


 24 26  0  0  0  0  0  0  0  0999 V2000
   98.8052  111.1173  123.3443 C   0  0  0  0  0
  101.1843  111.2500  122.7327 C   0  0  0  0  0
  102.5987  111.4569  123.1539 C   0  0  0  0  0
  103.2257  110.1430  123.6034 C   0  0  0  0  0
  101.8834  108.5490  124.9750 C   0  0  0  0  0
  101.4768  108.4172  126.3030 C   0  0  0  0  0
  100.6422  107.3201  126.8316 C   0  0  0  0  0
  100.4190  107.1427  128.3174 C   0  0  0  0  0
  101.6526  106.6632  129.1053 C   0  0  0  0  0
  101.7564  107.2629  130.4983 C   0  0  0  0  0
  102.9612  106.4303  128.3523 C   0  0  0  0  0
  100.5017  105.6949  128.8388 C   0  0  0  0  0
  100.7714  104.5504  127.8648 C   0  0  0  0  0
   99.5490  105.4080  129.9877 C   0  0  0  0  0
  101.9954  109.5102  126.9788 C   0  0  0  0  0
  101.8903  109.9088  128.3115 C   0  0  0  0  0
  102.5380  111.0967  128.6930 C   0  0  0  0  0
  103.2623  111.8535  127.7478 C   0  0  0  0  0
  103.3446  111.4336  126.4087 C   0  0  0  0  0
  102.6914  110.2504  126.0593 C   0  0  0  0  0
  100.1657  111.3393  123.6820 O   0  0  0  0  0
  100.9268  110.9657  121.5319 O   0  0  0  0  0
  100.0355  106.5724  126.0179 O   0  0  0  0  0
  102.6221  109.6746  124.8452 N   0  0  0  0  0
  1 21  1  0  0  0
  2 21  1  0  0  0
  3  2  1  0  0  0
  3  4  1  0  0  0
  4 24  1  0  0  0
  6  7  1  0  0  0
  6 15  1  0  0  0
  8  7  1  0  0  0
  8  9  1  0  0  0
  9 10  1  0  0  0
  9 11  1  0  0  0
  9 12  1  0  0  0
 12 13  1  0  0  0
 12 14  1  0  0  0
 12  8  1  0  0  0
 16 17  1  0  0  0
 18 19  1  0  0  0
 20 24  1  0  0  0
 20 15  1  0  0  0
 24  5  1  0  0  0
  2 22  2  0  0  0
  5  6  2  0  0  0
  7 23  2  0  0  0
 15 16  2  0  0  0
 17 18  2  0  0  0
 19 20  2  0  0  0
M  END
> <rmsd>
0.708408356

$$$$
CHEMBL1668514_8GUQ


 25 26  0  0  0  0  0  0  0  0999 V2000
   98.8082  108.0933  132.6243 C   0  0  0  0  0
  100.0449  108.6344  131.9171 C   0  0  0  0  0
  100.2760  110.1309  132.1573 C   0  0  0  0  0
   99.0725  110.9221  131.6530 C   0  0  0  0  0
  100.4396  110.4068  133.6453 C   0  0  0  0  0
  101.5483  110.5404  131.4440 C   0  0  0  0  0
  101.5536  111.5830  130.3612 C   0  0  0  0  0
  101.8433  110.9650  129.0355 C   0  0  0  0  0
  103.1449  110.9664  128.5326 C   0  0  0  0  0
  103.4268  110.3704  127.3009 C   0  0  0  0  0
  104.8332  110.4011  126.8041 C   0  0  0  0  0
  102.3951  109.7578  126.5608 C   0  0  0  0  0
  102.6989  109.1204  125.2403 C   0  0  0  0  0
  101.0804  109.7514  127.0760 C   0  0  0  0  0
   99.2314  111.1686  124.8768 C   0  0  0  0  0
   99.1867  111.9343  123.5492 C   0  0  0  0  0
   98.9309  111.0107  122.3549 C   0  0  0  0  0
   97.9609  109.8917  122.7276 C   0  0  0  0  0
   98.4347  109.1117  123.9665 C   0  0  0  0  0
  100.8182  110.3558  128.3099 C   0  0  0  0  0
  102.6088  110.0175  131.7569 O   0  0  0  0  0
   98.4714  109.1553  126.9945 O   0  0  0  0  0
  100.0304  107.5389  126.0240 O   0  0  0  0  0
   99.7418  109.0036  126.2019 S   0  0  0  0  0
   99.5596  109.7610  124.6515 N   0  0  0  0  0
  1  2  1  0  0  0
  2  3  1  0  0  0
  3  4  1  0  0  0
  3  5  1  0  0  0
  3  6  1  0  0  0
  7  6  1  0  0  0
  7  8  1  0  0  0
  9 10  1  0  0  0
 11 10  1  0  0  0
 12 14  1  0  0  0
 13 12  1  0  0  0
 15 25  1  0  0  0
 15 16  1  0  0  0
 16 17  1  0  0  0
 17 18  1  0  0  0
 18 19  1  0  0  0
 19 25  1  0  0  0
 20  8  1  0  0  0
 24 14  1  0  0  0
 24 25  1  0  0  0
  6 21  2  0  0  0
  8  9  2  0  0  0
 10 12  2  0  0  0
 14 20  2  0  0  0
 24 22  2  0  0  0
 24 23  2  0  0  0
M  END
> <rmsd>
0.563382208

$$$$
CHEMBL399346_6PT0


 31 35  0  0  0  0  0  0  0  0999 V2000
  103.1680  112.2198  127.5133 C   0  0  0  0  0
  101.8117  111.9936  127.8543 C   0  0  0  0  0
  101.1189  110.8682  127.3748 C   0  0  0  0  0
  101.8246  109.9551  126.5924 C   0  0  0  0  0
  103.1515  110.1558  126.2843 C   0  0  0  0  0
  103.8440  111.2892  126.6971 C   0  0  0  0  0
  103.4943  109.1717  125.3862 C   0  0  0  0  0
  102.3729  108.4576  125.1580 C   0  0  0  0  0
   99.0679  109.4228  124.1750 C   0  0  0  0  0
   99.2645  110.9141  124.3575 C   0  0  0  0  0
  102.3538  107.9482  123.7724 C   0  0  0  0  0
  104.3316  109.2380  124.1766 C   0  0  0  0  0
  103.2650  109.2372  121.9731 C   0  0  0  0  0
  102.6022  110.5720  122.2966 C   0  0  0  0  0
  104.3159  111.0895  120.9589 C   0  0  0  0  0
  104.4955  109.6106  121.1998 C   0  0  0  0  0
  103.8631  113.4195  128.0336 C   0  0  0  0  0
  105.3219  113.7680  126.0045 C   0  0  0  0  0
  106.7950  113.4452  125.7717 C   0  0  0  0  0
  107.7366  114.4572  126.4413 C   0  0  0  0  0
  107.0304  115.4419  127.3821 C   0  0  0  0  0
  105.9725  114.7515  128.2463 C   0  0  0  0  0
  108.8359  113.7190  127.1795 C   0  0  0  0  0
  101.3280  108.9160  125.8849 N   0  0  0  0  0
  103.6076  108.4358  123.1603 N   0  0  0  0  0
  105.0742  113.9195  127.4388 N   0  0  0  0  0
   99.6550  108.5452  125.6088 S   0  0  0  0  0
   99.5068  107.0675  125.3808 O   0  0  0  0  0
   98.8396  108.9317  126.8110 O   0  0  0  0  0
  103.4942  111.6064  121.9719 O   0  0  0  0  0
  103.3812  114.0123  129.0381 O   0  0  0  0  0
  1 17  1  0  0  0
  2  3  1  0  0  0
  4  5  1  0  0  0
  5  7  1  0  0  0
  6  1  1  0  0  0
  8 24  1  0  0  0
  9 10  1  0  0  0
 11  8  1  0  0  0
 11 25  1  0  0  0
 12 25  1  0  0  0
 12  7  1  0  0  0
 13 25  1  0  0  0
 13 14  1  0  0  0
 14 30  1  0  0  0
 15 30  1  0  0  0
 15 16  1  0  0  0
 16 13  1  0  0  0
 17 26  1  0  0  0
 18 26  1  0  0  0
 18 19  1  0  0  0
 19 20  1  0  0  0
 20 21  1  0  0  0
 20 23  1  0  0  0
 21 22  1  0  0  0
 22 26  1  0  0  0
 24  4  1  0  0  0
 27 24  1  0  0  0
 27  9  1  0  0  0
  1  2  2  0  0  0
  3  4  2  0  0  0
  5  6  2  0  0  0
  7  8  2  0  0  0
 17 31  2  0  0  0
 27 28  2  0  0  0
 27 29  2  0  0  0
M  END
> <rmsd>
0.722530246

$$$$
CHEMBL564543_6PT0


 28 31  0  0  0  0  0  0  0  0999 V2000
   97.3883  104.7337  120.9181 C   0  0  0  0  0
   96.3898  105.8254  121.2384 C   0  0  0  0  0
   97.0509  107.1800  121.0679 C   0  0  0  0  0
   96.0748  108.2958  121.4077 C   0  0  0  0  0
   95.8341  108.3839  122.9108 C   0  0  0  0  0
   97.7542  108.0797  124.4739 C   0  0  0  0  0
   98.8238  108.8351  124.9545 C   0  0  0  0  0
   99.8402  108.3588  125.9139 C   0  0  0  0  0
  100.8310  109.2775  126.5151 C   0  0  0  0  0
  100.4362  110.2982  127.4250 C   0  0  0  0  0
   98.2053  109.3888  128.0814 C   0  0  0  0  0
  101.3841  111.2214  127.8763 C   0  0  0  0  0
  102.7166  111.1386  127.4811 C   0  0  0  0  0
  103.1276  110.1259  126.6199 C   0  0  0  0  0
  104.4687  110.0530  126.2326 C   0  0  0  0  0
  104.8923  109.0532  125.3543 C   0  0  0  0  0
  103.9757  108.1246  124.8568 C   0  0  0  0  0
  102.6333  108.1917  125.2386 C   0  0  0  0  0
  102.1899  109.1865  126.1277 C   0  0  0  0  0
   98.7308  110.0754  124.3430 C   0  0  0  0  0
   99.5336  111.2130  124.4313 C   0  0  0  0  0
   99.1674  112.3338  123.6661 C   0  0  0  0  0
   98.0255  112.2943  122.8381 C   0  0  0  0  0
   97.2381  111.1321  122.7623 C   0  0  0  0  0
   97.6271  110.0345  123.5321 C   0  0  0  0  0
   97.0367  108.8276  123.6049 N   0  0  0  0  0
   99.8780  107.1363  126.2180 O   0  0  0  0  0
   99.1282  110.4543  127.9071 O   0  0  0  0  0
  1  2  1  0  0  0
  2  3  1  0  0  0
  3  4  1  0  0  0
  4  5  1  0  0  0
  5 26  1  0  0  0
  7  8  1  0  0  0
  7 20  1  0  0  0
  8  9  1  0  0  0
 10 28  1  0  0  0
 10 12  1  0  0  0
 11 28  1  0  0  0
 13 14  1  0  0  0
 15 16  1  0  0  0
 17 18  1  0  0  0
 19  9  1  0  0  0
 19 14  1  0  0  0
 21 22  1  0  0  0
 23 24  1  0  0  0
 25 26  1  0  0  0
 25 20  1  0  0  0
 26  6  1  0  0  0
  6  7  2  0  0  0
  8 27  2  0  0  0
  9 10  2  0  0  0
 12 13  2  0  0  0
 14 15  2  0  0  0
 16 17  2  0  0  0
 18 19  2  0  0  0
 20 21  2  0  0  0
 22 23  2  0  0  0
 24 25  2  0  0  0
M  END
> <rmsd>
0.74050951

$$$$
CHEMBL256753_8GUQ


 28 31  0  0  0  0  0  0  0  0999 V2000
  103.3338  110.7235  124.9817 C   0  0  0  0  0
  103.0316  109.8423  126.1860 C   0  0  0  0  0
  103.5431  108.4364  125.8790 C   0  0  0  0  0
  103.7019  110.3581  127.4808 C   0  0  0  0  0
  103.3861  111.8517  127.6568 C   0  0  0  0  0
  101.8926  111.8669  127.9907 C   0  0  0  0  0
  101.5404  110.3878  127.9887 C   0  0  0  0  0
  100.2953  110.0816  128.8036 C   0  0  0  0  0
  102.7946  109.7722  128.5333 C   0  0  0  0  0
  101.5217  109.9041  126.5320 C   0  0  0  0  0
   99.7161  108.3298  125.5841 C   0  0  0  0  0
   99.1327  109.3143  124.6377 C   0  0  0  0  0
   99.8021  110.4925  124.2852 C   0  0  0  0  0
   99.2362  111.3900  123.3786 C   0  0  0  0  0
   97.9902  111.1251  122.8054 C   0  0  0  0  0
   97.3029  109.9431  123.1470 C   0  0  0  0  0
   94.7434  108.3657  124.5394 C   0  0  0  0  0
   93.3798  107.7699  124.7815 C   0  0  0  0  0
   92.7330  107.7905  123.4276 C   0  0  0  0  0
   93.8884  107.7193  122.4530 C   0  0  0  0  0
   97.8863  109.0494  124.0528 C   0  0  0  0  0
  100.8599  108.6059  126.4051 N   0  0  0  0  0
   95.1174  108.0779  123.1582 N   0  0  0  0  0
   99.1828  107.1922  125.6804 O   0  0  0  0  0
   95.8992  109.3406  120.9687 O   0  0  0  0  0
   94.7666  110.6677  122.6981 O   0  0  0  0  0
   97.2955  112.4037  121.5605 Br  0  0  0  0  0
   95.7330  109.5414  122.4496 S   0  0  0  0  0
  1  2  1  0  0  0
  2  3  1  0  0  0
  4  2  1  0  0  0
  4  5  1  0  0  0
  5  6  1  0  0  0
  6  7  1  0  0  0
  7  8  1  0  0  0
  7  9  1  0  0  0
  7 10  1  0  0  0
  9  4  1  0  0  0
 10 22  1  0  0  0
 10  2  1  0  0  0
 11 12  1  0  0  0
 13 14  1  0  0  0
 15 27  1  0  0  0
 15 16  1  0  0  0
 17 23  1  0  0  0
 17 18  1  0  0  0
 18 19  1  0  0  0
 19 20  1  0  0  0
 20 23  1  0  0  0
 21 12  1  0  0  0
 22 11  1  0  0  0
 28 16  1  0  0  0
 28 23  1  0  0  0
 11 24  2  0  0  0
 12 13  2  0  0  0
 14 15  2  0  0  0
 16 21  2  0  0  0
 28 25  2  0  0  0
 28 26  2  0  0  0
M  END
> <rmsd>
0.826668561

$$$$
CHEMBL562489_6PT0


 29 32  0  0  0  0  0  0  0  0999 V2000
  103.5505  110.4869  125.1686 C   0  0  0  0  0
  103.0541  109.8960  124.0073 C   0  0  0  0  0
  101.8977  109.1161  124.0572 C   0  0  0  0  0
  101.2123  108.9155  125.2653 C   0  0  0  0  0
  101.7165  109.5108  126.4467 C   0  0  0  0  0
  102.8925  110.3010  126.3851 C   0  0  0  0  0
  103.3982  110.9017  127.5411 C   0  0  0  0  0
  102.7440  110.7328  128.7633 C   0  0  0  0  0
  101.5768  109.9670  128.8350 C   0  0  0  0  0
  101.0685  109.3584  127.6832 C   0  0  0  0  0
  100.8888  109.7777  130.1419 C   0  0  0  0  0
  101.4224  108.5411  130.8397 C   0  0  0  0  0
  100.0094  108.0494  125.2623 C   0  0  0  0  0
   99.0245  108.0874  124.1585 C   0  0  0  0  0
   98.6454  109.1816  123.3726 C   0  0  0  0  0
   97.4237  107.5194  122.7241 C   0  0  0  0  0
   98.2230  107.0412  123.7334 C   0  0  0  0  0
   98.1457  105.7174  124.1660 C   0  0  0  0  0
   97.2126  104.8768  123.5339 C   0  0  0  0  0
   96.3880  105.3690  122.4998 C   0  0  0  0  0
   96.4863  106.7082  122.0828 C   0  0  0  0  0
   96.9798  109.6913  121.5569 C   0  0  0  0  0
   95.7616  110.3010  122.2235 C   0  0  0  0  0
   95.0469  111.2015  121.2393 C   0  0  0  0  0
   93.8309  111.8102  121.9046 C   0  0  0  0  0
   93.1157  112.7112  120.9205 C   0  0  0  0  0
   99.1383  110.5833  123.5265 C   0  0  0  0  0
   99.8359  107.2299  126.2045 O   0  0  0  0  0
   97.6773  108.8208  122.4953 N   0  0  0  0  0
  2  3  1  0  0  0
  4  5  1  0  0  0
  4 13  1  0  0  0
  6  7  1  0  0  0
  6  1  1  0  0  0
  8  9  1  0  0  0
 10  5  1  0  0  0
 11  9  1  0  0  0
 11 12  1  0  0  0
 13 14  1  0  0  0
 15 29  1  0  0  0
 17 18  1  0  0  0
 17 14  1  0  0  0
 19 20  1  0  0  0
 21 16  1  0  0  0
 22 29  1  0  0  0
 22 23  1  0  0  0
 23 24  1  0  0  0
 24 25  1  0  0  0
 25 26  1  0  0  0
 27 15  1  0  0  0
 29 16  1  0  0  0
  1  2  2  0  0  0
  3  4  2  0  0  0
  5  6  2  0  0  0
  7  8  2  0  0  0
  9 10  2  0  0  0
 13 28  2  0  0  0
 14 15  2  0  0  0
 16 17  2  0  0  0
 18 19  2  0  0  0
 20 21  2  0  0  0
M  END
> <rmsd>
0.525262892

$$$$
CHEMBL1828812_6PT0


 26 29  0  0  0  0  0  0  0  0999 V2000
  100.1499  108.4932  125.2186 C   0  0  0  0  0
   99.3113  109.5228  124.5731 C   0  0  0  0  0
   97.9406  109.4997  124.3949 C   0  0  0  0  0
   96.9709  108.5711  124.7606 C   0  0  0  0  0
   95.3045  110.0072  123.8163 C   0  0  0  0  0
   96.2734  110.9559  123.4445 C   0  0  0  0  0
   97.5985  110.6571  123.7562 C   0  0  0  0  0
   99.7557  110.7199  124.0088 C   0  0  0  0  0
   98.7416  112.7228  122.9094 C   0  0  0  0  0
   98.5397  113.7964  123.9674 C   0  0  0  0  0
   99.7793  113.9208  124.8385 C   0  0  0  0  0
   99.5345  114.8982  125.9734 C   0  0  0  0  0
   98.6703  114.2579  127.0434 C   0  0  0  0  0
  101.5542  108.7634  125.5957 C   0  0  0  0  0
  102.5361  107.8598  125.1670 C   0  0  0  0  0
  103.8820  108.0636  125.4774 C   0  0  0  0  0
  104.2675  109.1728  126.2303 C   0  0  0  0  0
  103.3077  110.0779  126.6858 C   0  0  0  0  0
  103.7037  111.1729  127.4590 C   0  0  0  0  0
  102.7498  112.0689  127.9472 C   0  0  0  0  0
  101.3956  111.8703  127.6696 C   0  0  0  0  0
  100.9915  110.7800  126.8953 C   0  0  0  0  0
  101.9374  109.8777  126.3808 C   0  0  0  0  0
   99.6750  107.3424  125.4158 O   0  0  0  0  0
   95.6689  108.8516  124.4568 N   0  0  0  0  0
   98.6939  111.3981  123.5136 N   0  0  0  0  0
  1  2  1  0  0  0
  1 14  1  0  0  0
  2  3  1  0  0  0
  4 25  1  0  0  0
  5  6  1  0  0  0
  7 26  1  0  0  0
  7  3  1  0  0  0
  9 26  1  0  0  0
  9 10  1  0  0  0
 10 11  1  0  0  0
 11 12  1  0  0  0
 12 13  1  0  0  0
 15 16  1  0  0  0
 17 18  1  0  0  0
 19 20  1  0  0  0
 21 22  1  0  0  0
 23 14  1  0  0  0
 23 18  1  0  0  0
 26  8  1  0  0  0
  1 24  2  0  0  0
  3  4  2  0  0  0
  5 25  2  0  0  0
  6  7  2  0  0  0
  8  2  2  0  0  0
 14 15  2  0  0  0
 16 17  2  0  0  0
 18 19  2  0  0  0
 20 21  2  0  0  0
 22 23  2  0  0  0
M  END
> <rmsd>
0.70269984

$$$$
CHEMBL402734_8GUR


 28 30  0  0  0  0  0  0  0  0999 V2000
  102.7037  109.5909  124.8923 C   0  0  0  0  0
  102.1780  109.8567  126.2629 C   0  0  0  0  0
  102.8892  110.7389  127.0809 C   0  0  0  0  0
  102.4720  110.9809  128.3909 C   0  0  0  0  0
  101.3485  110.3248  128.9077 C   0  0  0  0  0
  100.8730  110.6188  130.3007 C   0  0  0  0  0
  100.6223  109.4568  128.0822 C   0  0  0  0  0
  101.0187  109.2190  126.7594 C   0  0  0  0  0
  100.2098  108.2901  125.9394 C   0  0  0  0  0
   99.5442  109.7699  124.1085 C   0  0  0  0  0
   99.4980  110.9617  124.8221 C   0  0  0  0  0
   99.1278  111.8974  123.8563 C   0  0  0  0  0
   98.9301  113.3787  124.0958 C   0  0  0  0  0
   99.2110  113.7565  125.5420 C   0  0  0  0  0
   99.8706  114.1754  123.2114 C   0  0  0  0  0
   97.4985  113.7664  123.7770 C   0  0  0  0  0
   98.5651  111.8887  121.4061 C   0  0  0  0  0
   99.1005  108.9729  121.7766 C   0  0  0  0  0
   97.7106  108.3655  121.7956 C   0  0  0  0  0
   96.9653  108.7902  120.5472 C   0  0  0  0  0
   97.5753  107.4078  120.6306 C   0  0  0  0  0
   99.9926  111.6840  130.2672 F   0  0  0  0  0
  101.9424  110.9415  131.1182 F   0  0  0  0  0
  100.2281  109.5159  130.8333 F   0  0  0  0  0
   99.8660  107.1842  126.4344 O   0  0  0  0  0
   99.8195  108.5904  124.5892 N   0  0  0  0  0
   98.9613  111.2725  122.6664 N   0  0  0  0  0
   99.2163  109.9844  122.8218 N   0  0  0  0  0
  1  2  1  0  0  0
  3  4  1  0  0  0
  5  7  1  0  0  0
  6  5  1  0  0  0
  6 22  1  0  0  0
  6 23  1  0  0  0
  6 24  1  0  0  0
  8  9  1  0  0  0
  8  2  1  0  0  0
  9 26  1  0  0  0
 10 11  1  0  0  0
 12 27  1  0  0  0
 13 12  1  0  0  0
 13 14  1  0  0  0
 13 15  1  0  0  0
 13 16  1  0  0  0
 17 27  1  0  0  0
 18 28  1  0  0  0
 18 19  1  0  0  0
 19 20  1  0  0  0
 20 21  1  0  0  0
 21 19  1  0  0  0
 27 28  1  0  0  0
 28 10  1  0  0  0
  2  3  2  0  0  0
  4  5  2  0  0  0
  7  8  2  0  0  0
  9 25  2  0  0  0
 10 26  2  0  0  0
 11 12  2  0  0  0
M  END
> <rmsd>
0.488881737

$$$$
CHEMBL592264_8GUQ


 25 26  0  0  0  0  0  0  0  0999 V2000
  101.2451  109.8100  133.4661 C   0  0  0  0  0
   99.8824  110.2882  132.9809 C   0  0  0  0  0
   99.9436  111.6410  132.2670 C   0  0  0  0  0
  100.4216  112.7148  133.2387 C   0  0  0  0  0
   98.5364  112.0082  131.8365 C   0  0  0  0  0
  100.8204  111.5604  131.0398 C   0  0  0  0  0
  101.2202  110.3816  128.7943 C   0  0  0  0  0
  102.3743  111.1034  128.4685 C   0  0  0  0  0
  103.0535  110.8615  127.2726 C   0  0  0  0  0
  104.2768  111.6626  126.9773 C   0  0  0  0  0
  102.5787  109.8816  126.3790 C   0  0  0  0  0
  103.3039  109.6267  125.0938 C   0  0  0  0  0
  101.4159  109.1513  126.7050 C   0  0  0  0  0
   99.2832  109.6298  124.3589 C   0  0  0  0  0
   98.2081  109.5393  123.2907 C   0  0  0  0  0
   98.0927  110.9150  122.6620 C   0  0  0  0  0
   98.8144  111.8623  123.5927 C   0  0  0  0  0
   99.8735  111.0222  124.2640 C   0  0  0  0  0
  100.7504  109.4114  127.9079 C   0  0  0  0  0
  101.8222  112.3184  130.9200 O   0  0  0  0  0
  101.7865  106.8558  125.3937 O   0  0  0  0  0
   99.5393  107.2928  126.2468 O   0  0  0  0  0
  100.5007  110.6076  130.0137 N   0  0  0  0  0
  100.3146  108.6363  124.1060 N   0  0  0  0  0
  100.7542  107.9232  125.6231 S   0  0  0  0  0
  1  2  1  0  0  0
  2  3  1  0  0  0
  3  4  1  0  0  0
  3  5  1  0  0  0
  3  6  1  0  0  0
  6 23  1  0  0  0
  8  9  1  0  0  0
 10  9  1  0  0  0
 11 13  1  0  0  0
 12 11  1  0  0  0
 14 24  1  0  0  0
 14 15  1  0  0  0
 15 16  1  0  0  0
 16 17  1  0  0  0
 17 18  1  0  0  0
 18 14  1  0  0  0
 19  7  1  0  0  0
 23  7  1  0  0  0
 25 13  1  0  0  0
 25 24  1  0  0  0
  6 20  2  0  0  0
  7  8  2  0  0  0
  9 11  2  0  0  0
 13 19  2  0  0  0
 25 21  2  0  0  0
 25 22  2  0  0  0
M  END
> <rmsd>
0.604122281

$$$$
CHEMBL571323_8GUQ


 24 25  0  0  0  0  0  0  0  0999 V2000
  101.8646  110.1523  133.5831 C   0  0  0  0  0
  101.0714  111.4529  133.5653 C   0  0  0  0  0
  100.1101  111.5493  132.3775 C   0  0  0  0  0
   99.0671  110.4417  132.4696 C   0  0  0  0  0
   99.3771  112.8742  132.4729 C   0  0  0  0  0
  100.8659  111.5033  131.0700 C   0  0  0  0  0
  101.2223  110.2954  128.8316 C   0  0  0  0  0
  102.2369  111.1478  128.3808 C   0  0  0  0  0
  102.8373  110.9464  127.1362 C   0  0  0  0  0
  103.9126  111.8874  126.7072 C   0  0  0  0  0
  102.4235  109.8760  126.3195 C   0  0  0  0  0
  103.0673  109.6611  124.9848 C   0  0  0  0  0
  101.4006  109.0149  126.7712 C   0  0  0  0  0
   99.2008  109.2087  124.5165 C   0  0  0  0  0
   99.0077  110.0841  123.2968 C   0  0  0  0  0
   98.2618  111.3373  123.7029 C   0  0  0  0  0
   99.7607  111.3836  123.4951 C   0  0  0  0  0
  100.8122  109.2358  128.0213 C   0  0  0  0  0
  101.7490  112.3745  130.8389 O   0  0  0  0  0
  101.9422  106.6896  125.5766 O   0  0  0  0  0
   99.6960  106.9624  126.5019 O   0  0  0  0  0
  100.5866  110.4765  130.1040 N   0  0  0  0  0
  100.2551  108.2420  124.2600 N   0  0  0  0  0
  100.8200  107.6652  125.7916 S   0  0  0  0  0
  1  2  1  0  0  0
  2  3  1  0  0  0
  3  4  1  0  0  0
  3  5  1  0  0  0
  3  6  1  0  0  0
  6 22  1  0  0  0
  8  9  1  0  0  0
 10  9  1  0  0  0
 11 13  1  0  0  0
 12 11  1  0  0  0
 14 23  1  0  0  0
 14 15  1  0  0  0
 15 16  1  0  0  0
 16 17  1  0  0  0
 17 15  1  0  0  0
 18  7  1  0  0  0
 22  7  1  0  0  0
 24 13  1  0  0  0
 24 23  1  0  0  0
  6 19  2  0  0  0
  7  8  2  0  0  0
  9 11  2  0  0  0
 13 18  2  0  0  0
 24 20  2  0  0  0
 24 21  2  0  0  0
M  END
> <rmsd>
0.575924873

$$$$
CHEMBL1215888_5ZTY


 31 35  0  0  0  0  0  0  0  0999 V2000
  101.6957  110.0032  131.5418 C   0  0  0  0  0
  101.8097  110.0450  130.3422 C   0  0  0  0  0
  101.9452  110.0946  128.9139 C   0  0  0  0  0
  102.5243  111.2096  128.3060 C   0  0  0  0  0
  102.6562  111.2596  126.9170 C   0  0  0  0  0
  102.2097  110.1941  126.1152 C   0  0  0  0  0
  101.6260  109.0636  126.7358 C   0  0  0  0  0
  101.4988  109.0266  128.1331 C   0  0  0  0  0
  101.1824  107.9922  125.9440 C   0  0  0  0  0
  101.3276  108.0532  124.5423 C   0  0  0  0  0
  100.8850  106.9676  123.6316 C   0  0  0  0  0
   99.8029  104.6594  123.3350 C   0  0  0  0  0
  100.9701  104.0449  122.5381 C   0  0  0  0  0
  100.4683  102.8600  121.6980 C   0  0  0  0  0
   99.3768  103.3493  120.7317 C   0  0  0  0  0
   98.2010  103.9469  121.5222 C   0  0  0  0  0
   97.6224  102.8744  122.4591 C   0  0  0  0  0
   98.7069  102.3892  123.4344 C   0  0  0  0  0
   99.8764  101.7939  122.6339 C   0  0  0  0  0
   99.2145  103.5819  124.2618 C   0  0  0  0  0
   98.7044  105.1310  122.3623 C   0  0  0  0  0
  101.9122  109.1950  123.9819 C   0  0  0  0  0
  102.9138  111.3846  124.0608 C   0  0  0  0  0
  101.9181  112.5376  123.9629 C   0  0  0  0  0
  100.8003  112.2277  122.9813 C   0  0  0  0  0
   99.6343  111.5808  123.7034 C   0  0  0  0  0
   98.5594  111.2164  122.7020 C   0  0  0  0  0
  100.6590  106.9839  126.4940 O   0  0  0  0  0
  101.0465  107.0966  122.3867 O   0  0  0  0  0
  100.2750  105.7761  124.1479 N   0  0  0  0  0
  102.3324  110.2347  124.7512 N   0  0  0  0  0
  3  2  1  0  0  0
  4  5  1  0  0  0
  6  7  1  0  0  0
  7  9  1  0  0  0
  8  3  1  0  0  0
  9 10  1  0  0  0
 10 11  1  0  0  0
 11 30  1  0  0  0
 12 30  1  0  0  0
 12 13  1  0  0  0
 14 13  1  0  0  0
 14 15  1  0  0  0
 16 15  1  0  0  0
 16 17  1  0  0  0
 16 21  1  0  0  0
 18 17  1  0  0  0
 18 19  1  0  0  0
 18 20  1  0  0  0
 19 14  1  0  0  0
 20 12  1  0  0  0
 21 12  1  0  0  0
 22 31  1  0  0  0
 23 31  1  0  0  0
 23 24  1  0  0  0
 24 25  1  0  0  0
 25 26  1  0  0  0
 26 27  1  0  0  0
 31  6  1  0  0  0
  3  4  2  0  0  0
  5  6  2  0  0  0
  7  8  2  0  0  0
  9 28  2  0  0  0
 10 22  2  0  0  0
 11 29  2  0  0  0
  1  2  3  0  0  0
M  END
> <rmsd>
0.855456531

$$$$
CHEMBL2381779_5ZTY


 34 39  0  0  0  0  0  0  0  0999 V2000
  102.1497  110.1865  126.2077 C   0  0  0  0  0
  101.9868  109.2506  124.0655 C   0  0  0  0  0
  101.4109  108.0782  124.6012 C   0  0  0  0  0
  101.2227  108.0195  126.0020 C   0  0  0  0  0
  102.0175  110.4442  128.3420 C   0  0  0  0  0
  102.4434  111.1136  127.1915 C   0  0  0  0  0
  102.0952  110.9820  129.7046 C   0  0  0  0  0
  101.6766  110.3289  130.8533 C   0  0  0  0  0
  101.8808  111.1014  132.0041 C   0  0  0  0  0
  102.4521  112.3529  131.7926 C   0  0  0  0  0
  101.5120  110.6170  133.3598 C   0  0  0  0  0
  101.0300  106.9792  123.6829 C   0  0  0  0  0
  100.0244  104.6395  123.3665 C   0  0  0  0  0
   99.4373  103.5505  124.2806 C   0  0  0  0  0
   98.9911  102.3393  123.4448 C   0  0  0  0  0
  100.2024  101.7737  122.6861 C   0  0  0  0  0
  100.7935  102.8513  121.7631 C   0  0  0  0  0
   99.7203  103.3037  120.7590 C   0  0  0  0  0
   98.5030  103.8715  121.5075 C   0  0  0  0  0
   98.9449  105.0742  122.3560 C   0  0  0  0  0
   97.9253  102.7879  122.4320 C   0  0  0  0  0
  101.2338  104.0546  122.6114 C   0  0  0  0  0
  102.9268  111.4906  124.2627 C   0  0  0  0  0
  101.9123  112.6290  124.2015 C   0  0  0  0  0
  100.8335  112.3583  123.1659 C   0  0  0  0  0
   99.6661  111.6299  123.8031 C   0  0  0  0  0
   98.6307  111.3127  122.7456 C   0  0  0  0  0
  102.3474  110.2954  124.8660 N   0  0  0  0  0
  101.6072  109.0883  126.7434 N   0  0  0  0  0
  101.5148  109.2215  128.0523 N   0  0  0  0  0
  100.4378  105.7737  124.1871 N   0  0  0  0  0
  100.7144  107.0109  126.5625 O   0  0  0  0  0
  101.2284  107.1081  122.4435 O   0  0  0  0  0
  102.7031  112.4876  130.1341 S   0  0  0  0  0
  1 28  1  0  0  0
  3  4  1  0  0  0
  3 12  1  0  0  0
  4 29  1  0  0  0
  5  6  1  0  0  0
  5  7  1  0  0  0
  7 34  1  0  0  0
  8  9  1  0  0  0
 10 34  1  0  0  0
 11  9  1  0  0  0
 12 31  1  0  0  0
 13 31  1  0  0  0
 13 14  1  0  0  0
 14 15  1  0  0  0
 15 16  1  0  0  0
 16 17  1  0  0  0
 17 18  1  0  0  0
 17 22  1  0  0  0
 18 19  1  0  0  0
 19 20  1  0  0  0
 19 21  1  0  0  0
 20 13  1  0  0  0
 21 15  1  0  0  0
 22 13  1  0  0  0
 23 28  1  0  0  0
 23 24  1  0  0  0
 24 25  1  0  0  0
 25 26  1  0  0  0
 26 27  1  0  0  0
 28  2  1  0  0  0
 29 30  1  0  0  0
 29  1  1  0  0  0
  2  3  2  0  0  0
  4 32  2  0  0  0
  5 30  2  0  0  0
  6  1  2  0  0  0
  7  8  2  0  0  0
  9 10  2  0  0  0
 12 33  2  0  0  0
M  END
> <rmsd>
0.871024251

$$$$
CHEMBL591795_8GUR


 25 26  0  0  0  0  0  0  0  0999 V2000
  102.8019  111.2468  132.0101 C   0  0  0  0  0
  101.8754  110.3026  131.2554 C   0  0  0  0  0
  100.4257  110.7926  131.2061 C   0  0  0  0  0
   99.5935  109.7732  130.4485 C   0  0  0  0  0
   99.8667  110.8319  132.6241 C   0  0  0  0  0
  100.3158  112.1601  130.5463 C   0  0  0  0  0
  100.7090  111.5153  128.0731 C   0  0  0  0  0
  100.1628  111.6313  126.7951 C   0  0  0  0  0
  100.6664  110.8774  125.7327 C   0  0  0  0  0
  100.0326  111.0355  124.3912 C   0  0  0  0  0
  101.7481  109.9980  125.9404 C   0  0  0  0  0
  102.2776  109.1946  124.7938 C   0  0  0  0  0
  102.3187  109.8936  127.2298 C   0  0  0  0  0
  102.1840  107.3103  129.1052 C   0  0  0  0  0
  100.7891  107.0583  128.5809 C   0  0  0  0  0
  101.0035  106.2846  127.3141 C   0  0  0  0  0
  102.3793  106.6931  126.8441 C   0  0  0  0  0
  101.7932  110.6586  128.2758 C   0  0  0  0  0
  100.2570  113.1881  131.2742 O   0  0  0  0  0
  104.4249  109.3681  128.7798 O   0  0  0  0  0
  104.6224  108.7521  126.4362 O   0  0  0  0  0
  100.0501  106.6540  126.3666 O   0  0  0  0  0
  100.1915  112.3401  129.1245 N   0  0  0  0  0
  103.1215  107.2116  127.9891 N   0  0  0  0  0
  103.6737  108.8138  127.6009 S   0  0  0  0  0
  1  2  1  0  0  0
  2  3  1  0  0  0
  3  4  1  0  0  0
  3  5  1  0  0  0
  3  6  1  0  0  0
  6 23  1  0  0  0
  8  9  1  0  0  0
 10  9  1  0  0  0
 11 13  1  0  0  0
 12 11  1  0  0  0
 14 24  1  0  0  0
 14 15  1  0  0  0
 15 16  1  0  0  0
 16 22  1  0  0  0
 16 17  1  0  0  0
 17 24  1  0  0  0
 18  7  1  0  0  0
 23  7  1  0  0  0
 25 13  1  0  0  0
 25 24  1  0  0  0
  6 19  2  0  0  0
  7  8  2  0  0  0
  9 11  2  0  0  0
 13 18  2  0  0  0
 25 20  2  0  0  0
 25 21  2  0  0  0
M  END
> <rmsd>
0.715746522

$$$$
CHEMBL2206859_6PT0


 27 30  0  0  0  0  0  0  0  0999 V2000
   96.1345  107.6045  120.6211 C   0  0  0  0  0
   95.4921  108.9410  120.3003 C   0  0  0  0  0
   96.0646  110.0292  121.1899 C   0  0  0  0  0
   95.4887  109.9253  122.5924 C   0  0  0  0  0
   96.1274  110.9634  123.5018 C   0  0  0  0  0
   97.9399  109.5345  124.4769 C   0  0  0  0  0
   99.3329  109.5547  124.5475 C   0  0  0  0  0
   99.7414  110.6860  123.8590 C   0  0  0  0  0
   98.6058  111.3109  123.4156 C   0  0  0  0  0
   98.6570  112.4877  122.6667 C   0  0  0  0  0
   99.9252  113.0193  122.3735 C   0  0  0  0  0
  101.0957  112.3704  122.8210 C   0  0  0  0  0
  101.0126  111.1842  123.5708 C   0  0  0  0  0
  100.1696  108.5261  125.1974 C   0  0  0  0  0
  101.5751  108.7803  125.5764 C   0  0  0  0  0
  102.5511  107.8876  125.1205 C   0  0  0  0  0
  103.8961  108.0778  125.4352 C   0  0  0  0  0
  104.2940  109.1618  126.2182 C   0  0  0  0  0
  103.3310  110.0610  126.7094 C   0  0  0  0  0
  101.9593  109.8678  126.3956 C   0  0  0  0  0
  101.0067  110.7542  126.9251 C   0  0  0  0  0
  101.3991  111.8247  127.7303 C   0  0  0  0  0
  102.7491  112.0207  128.0234 C   0  0  0  0  0
  103.7094  111.1427  127.5178 C   0  0  0  0  0
   97.5150  110.6173  123.7835 N   0  0  0  0  0
   99.6762  107.3874  125.4186 O   0  0  0  0  0
  106.0061  109.3483  126.5754 Cl  0  0  0  0  0
  1  2  1  0  0  0
  2  3  1  0  0  0
  3  4  1  0  0  0
  4  5  1  0  0  0
  5 25  1  0  0  0
  7  8  1  0  0  0
  7 14  1  0  0  0
  9 10  1  0  0  0
  9 25  1  0  0  0
 11 12  1  0  0  0
 13  8  1  0  0  0
 14 15  1  0  0  0
 16 17  1  0  0  0
 18 19  1  0  0  0
 18 27  1  0  0  0
 20 21  1  0  0  0
 20 15  1  0  0  0
 22 23  1  0  0  0
 24 19  1  0  0  0
 25  6  1  0  0  0
  6  7  2  0  0  0
  8  9  2  0  0  0
 10 11  2  0  0  0
 12 13  2  0  0  0
 14 26  2  0  0  0
 15 16  2  0  0  0
 17 18  2  0  0  0
 19 20  2  0  0  0
 21 22  2  0  0  0
 23 24  2  0  0  0
M  END
> <rmsd>
0.712911546

$$$$
CHEMBL2152804_5ZTY


 33 37  0  0  0  0  0  0  0  0999 V2000
   97.1832  104.6120  121.0417 C   0  0  0  0  0
   97.3431  106.0255  120.6128 C   0  0  0  0  0
   96.3893  106.6153  119.7776 C   0  0  0  0  0
   96.5381  107.9466  119.3768 C   0  0  0  0  0
   97.6414  108.6879  119.8105 C   0  0  0  0  0
   98.5997  108.0974  120.6418 C   0  0  0  0  0
   99.7629  108.8968  121.1279 C   0  0  0  0  0
   99.6682  108.8055  123.5374 C   0  0  0  0  0
   99.3887  109.3281  124.8028 C   0  0  0  0  0
   99.6581  108.4903  125.9905 C   0  0  0  0  0
  101.0636  110.2643  127.1796 C   0  0  0  0  0
  101.2929  110.8121  128.6073 C   0  0  0  0  0
  100.6937  109.9585  129.7256 C   0  0  0  0  0
  100.6917  112.2041  128.7076 C   0  0  0  0  0
  102.8337  110.8977  128.6999 C   0  0  0  0  0
  103.4112  109.4753  128.7716 C   0  0  0  0  0
  103.1790  108.9185  127.3651 C   0  0  0  0  0
  102.4984  110.0865  126.6612 C   0  0  0  0  0
  102.6232  110.0490  125.1511 C   0  0  0  0  0
  103.1977  111.2567  127.2810 C   0  0  0  0  0
   98.8348  110.6170  124.8990 C   0  0  0  0  0
   98.6243  111.3685  123.7328 C   0  0  0  0  0
   98.0951  112.6666  123.7977 C   0  0  0  0  0
   97.8896  113.4056  122.6313 C   0  0  0  0  0
   98.2096  112.8552  121.3895 C   0  0  0  0  0
   98.7332  111.5634  121.3107 C   0  0  0  0  0
   98.9454  110.8032  122.4743 C   0  0  0  0  0
   98.4463  106.7668  121.0468 C   0  0  0  0  0
   99.4502  109.5307  122.4069 N   0  0  0  0  0
  100.3098  109.0092  127.1552 N   0  0  0  0  0
   99.3255  107.2758  125.9730 O   0  0  0  0  0
   98.5061  111.0882  126.0231 O   0  0  0  0  0
   98.0096  113.5739  120.2590 F   0  0  0  0  0
  1  2  1  0  0  0
  3  4  1  0  0  0
  5  6  1  0  0  0
  7  6  1  0  0  0
  7 29  1  0  0  0
  9 10  1  0  0  0
  9 21  1  0  0  0
 10 30  1  0  0  0
 11 30  1  0  0  0
 11 12  1  0  0  0
 12 13  1  0  0  0
 12 14  1  0  0  0
 15 12  1  0  0  0
 15 16  1  0  0  0
 16 17  1  0  0  0
 17 18  1  0  0  0
 18 19  1  0  0  0
 18 20  1  0  0  0
 18 11  1  0  0  0
 20 15  1  0  0  0
 21 22  1  0  0  0
 23 24  1  0  0  0
 25 33  1  0  0  0
 25 26  1  0  0  0
 27 29  1  0  0  0
 27 22  1  0  0  0
 28  2  1  0  0  0
 29  8  1  0  0  0
  2  3  2  0  0  0
  4  5  2  0  0  0
  6 28  2  0  0  0
  8  9  2  0  0  0
 10 31  2  0  0  0
 21 32  2  0  0  0
 22 23  2  0  0  0
 24 25  2  0  0  0
 26 27  2  0  0  0
M  END
> <rmsd>
0.79313159

$$$$
CHEMBL1095690_5ZTY


 33 38  0  0  0  0  0  0  0  0999 V2000
   96.1211  104.3052  126.7919 O   0  0  0  0  0
   96.9428  104.3977  125.8375 C   0  0  0  0  0
   98.1149  106.2208  127.1043 C   0  0  0  0  0
   98.5539  107.6159  126.6729 C   0  0  0  0  0
  100.2795  108.8944  125.6439 C   0  0  0  0  0
   99.4705  109.7159  124.6667 C   0  0  0  0  0
   99.4864  109.4518  123.2876 C   0  0  0  0  0
   98.7484  110.2497  122.4086 C   0  0  0  0  0
   97.9967  111.3200  122.9006 C   0  0  0  0  0
   97.9859  111.5946  124.2715 C   0  0  0  0  0
   98.7237  110.7966  125.1509 C   0  0  0  0  0
  101.7659  108.9594  125.4222 C   0  0  0  0  0
  102.3510  108.2843  124.3396 C   0  0  0  0  0
  103.7299  108.3510  124.1260 C   0  0  0  0  0
  104.5346  109.0973  124.9902 C   0  0  0  0  0
  103.9611  109.7742  126.0690 C   0  0  0  0  0
  102.5814  109.7104  126.2892 C   0  0  0  0  0
   99.5504  106.7795  124.6689 C   0  0  0  0  0
   99.1435  105.3463  124.9983 C   0  0  0  0  0
   96.7938  103.4842  124.6377 C   0  0  0  0  0
   96.7588  104.3194  123.3414 C   0  0  0  0  0
   96.6469  103.4016  122.1142 C   0  0  0  0  0
   95.3484  102.5863  122.2136 C   0  0  0  0  0
   95.3610  101.7343  123.4925 C   0  0  0  0  0
   96.5658  100.7810  123.4530 C   0  0  0  0  0
   97.8705  101.5864  123.3608 C   0  0  0  0  0
   97.8492  102.4440  122.0853 C   0  0  0  0  0
   97.9834  102.5052  124.5869 C   0  0  0  0  0
   95.4866  102.6609  124.7136 C   0  0  0  0  0
   98.0151  105.3575  125.9304 N   0  0  0  0  0
   99.7980  107.5283  125.9070 N   0  0  0  0  0
  106.2632  109.1752  124.7289 Cl  0  0  0  0  0
  101.9092  110.5674  127.6681 Cl  0  0  0  0  0
  2 30  1  0  0  0
  3 30  1  0  0  0
  3  4  1  0  0  0
  4 31  1  0  0  0
  5 31  1  0  0  0
  5  6  1  0  0  0
  5 12  1  0  0  0
  7  8  1  0  0  0
  9 10  1  0  0  0
 11  6  1  0  0  0
 13 14  1  0  0  0
 15 32  1  0  0  0
 15 16  1  0  0  0
 17 33  1  0  0  0
 17 12  1  0  0  0
 18 31  1  0  0  0
 18 19  1  0  0  0
 19 30  1  0  0  0
 20  2  1  0  0  0
 20 21  1  0  0  0
 22 21  1  0  0  0
 22 23  1  0  0  0
 24 23  1  0  0  0
 24 25  1  0  0  0
 24 29  1  0  0  0
 26 25  1  0  0  0
 26 27  1  0  0  0
 26 28  1  0  0  0
 27 22  1  0  0  0
 28 20  1  0  0  0
 29 20  1  0  0  0
  2  1  2  0  0  0
  6  7  2  0  0  0
  8  9  2  0  0  0
 10 11  2  0  0  0
 12 13  2  0  0  0
 14 15  2  0  0  0
 16 17  2  0  0  0
M  END
> <rmsd>
0.538847506

$$$$
CHEMBL540759_6PT0


 29 32  0  0  0  0  0  0  0  0999 V2000
   94.4054  114.9957  123.8737 C   0  0  0  0  0
   93.8068  113.7776  124.5520 C   0  0  0  0  0
   94.2555  112.5071  123.8523 C   0  0  0  0  0
   95.6949  112.1877  124.2078 C   0  0  0  0  0
   96.1276  110.9275  123.4818 C   0  0  0  0  0
   97.9417  109.5330  124.4727 C   0  0  0  0  0
   99.3343  109.5561  124.5505 C   0  0  0  0  0
  100.1704  108.5263  125.1997 C   0  0  0  0  0
  101.5765  108.7794  125.5777 C   0  0  0  0  0
  102.5506  107.9018  125.0988 C   0  0  0  0  0
  103.8943  108.0893  125.4106 C   0  0  0  0  0
  104.3086  109.1495  126.2188 C   0  0  0  0  0
  106.2846  109.9458  127.5571 C   0  0  0  0  0
  106.1196  109.1548  128.8410 C   0  0  0  0  0
  103.3369  110.0559  126.7189 C   0  0  0  0  0
  103.6973  111.1601  127.5065 C   0  0  0  0  0
  102.7322  112.0347  128.0070 C   0  0  0  0  0
  101.3846  111.8204  127.7258 C   0  0  0  0  0
  101.0028  110.7395  126.9320 C   0  0  0  0  0
  101.9623  109.8581  126.4055 C   0  0  0  0  0
   99.7444  110.6886  123.8650 C   0  0  0  0  0
  101.0163  111.1847  123.5771 C   0  0  0  0  0
  101.1019  112.3673  122.8220 C   0  0  0  0  0
   99.9328  113.0138  122.3676 C   0  0  0  0  0
   98.6638  112.4841  122.6604 C   0  0  0  0  0
   98.6097  111.3124  123.4174 C   0  0  0  0  0
   97.5170  110.6207  123.7897 N   0  0  0  0  0
   99.6764  107.3881  125.4213 O   0  0  0  0  0
  105.6886  109.2442  126.4720 O   0  0  0  0  0
  1  2  1  0  0  0
  2  3  1  0  0  0
  3  4  1  0  0  0
  4  5  1  0  0  0
  5 27  1  0  0  0
  7  8  1  0  0  0
  7 21  1  0  0  0
  8  9  1  0  0  0
 10 11  1  0  0  0
 12 29  1  0  0  0
 12 15  1  0  0  0
 13 29  1  0  0  0
 13 14  1  0  0  0
 16 17  1  0  0  0
 18 19  1  0  0  0
 20  9  1  0  0  0
 20 15  1  0  0  0
 22 23  1  0  0  0
 24 25  1  0  0  0
 26 27  1  0  0  0
 26 21  1  0  0  0
 27  6  1  0  0  0
  6  7  2  0  0  0
  8 28  2  0  0  0
  9 10  2  0  0  0
 11 12  2  0  0  0
 15 16  2  0  0  0
 17 18  2  0  0  0
 19 20  2  0  0  0
 21 22  2  0  0  0
 23 24  2  0  0  0
 25 26  2  0  0  0
M  END
> <rmsd>
0.709941089

$$$$
CHEMBL232411_8GUR


 24 25  0  0  0  0  0  0  0  0999 V2000
   92.1222  114.3821  122.3588 C   0  0  0  0  0
   93.0380  114.3630  123.5683 C   0  0  0  0  0
   94.4257  113.8889  123.1754 C   0  0  0  0  0
   94.4320  112.3868  122.9631 C   0  0  0  0  0
   95.8226  111.9407  122.5673 C   0  0  0  0  0
   95.8316  110.4319  122.3607 C   0  0  0  0  0
   97.2040  109.8637  121.9772 C   0  0  0  0  0
   97.7423  110.5618  120.7340 C   0  0  0  0  0
   96.9815  108.4065  121.5943 C   0  0  0  0  0
   98.1934  109.9956  123.1284 C   0  0  0  0  0
   98.6866  111.2595  123.4936 C   0  0  0  0  0
   99.5915  111.3977  124.5476 C   0  0  0  0  0
  100.0299  110.2747  125.2594 C   0  0  0  0  0
  100.9826  110.4566  126.3739 C   0  0  0  0  0
  100.6221  111.3021  127.4332 C   0  0  0  0  0
  101.4895  111.5040  128.5089 C   0  0  0  0  0
  101.0901  112.3966  129.6276 C   0  0  0  0  0
  102.7312  110.8670  128.5332 C   0  0  0  0  0
  103.1092  110.0342  127.4780 C   0  0  0  0  0
  102.2471  109.8249  126.3967 C   0  0  0  0  0
  102.7244  108.9715  125.2698 C   0  0  0  0  0
   99.5260  109.0056  124.9184 C   0  0  0  0  0
   98.6226  108.8743  123.8605 C   0  0  0  0  0
   99.8980  107.8738  125.6346 O   0  0  0  0  0
  1  2  1  0  0  0
  2  3  1  0  0  0
  3  4  1  0  0  0
  4  5  1  0  0  0
  5  6  1  0  0  0
  6  7  1  0  0  0
  7  8  1  0  0  0
  7  9  1  0  0  0
  7 10  1  0  0  0
 11 12  1  0  0  0
 13 14  1  0  0  0
 13 22  1  0  0  0
 15 16  1  0  0  0
 17 16  1  0  0  0
 18 19  1  0  0  0
 20 14  1  0  0  0
 21 20  1  0  0  0
 22 24  1  0  0  0
 23 10  1  0  0  0
 10 11  2  0  0  0
 12 13  2  0  0  0
 14 15  2  0  0  0
 16 18  2  0  0  0
 19 20  2  0  0  0
 22 23  2  0  0  0
M  END
> <rmsd>
0.633314431

$$$$
CHEMBL575382_5ZTY


 34 39  0  0  0  0  0  0  0  0999 V2000
   94.3957  106.3564  120.5937 C   0  0  0  0  0
   93.8331  107.3261  121.6462 C   0  0  0  0  0
   94.9135  107.6124  122.7008 C   0  0  0  0  0
   96.1554  108.2313  122.0303 C   0  0  0  0  0
   96.7036  107.2628  120.9642 C   0  0  0  0  0
   95.6247  106.9763  119.9082 C   0  0  0  0  0
   95.2173  108.2958  119.2333 C   0  0  0  0  0
   94.6636  109.2730  120.2828 C   0  0  0  0  0
   93.4362  108.6436  120.9610 C   0  0  0  0  0
   95.7445  109.5444  121.3423 C   0  0  0  0  0
   97.8049  107.5418  123.8689 C   0  0  0  0  0
   98.8298  107.9444  124.8448 C   0  0  0  0  0
  100.2660  109.0541  126.0615 C   0  0  0  0  0
   99.3236  109.2203  125.0699 C   0  0  0  0  0
   98.9914  110.4834  124.3502 C   0  0  0  0  0
  100.7944  111.1847  127.2304 C   0  0  0  0  0
  101.9012  111.9657  127.5051 C   0  0  0  0  0
  102.9869  111.3022  126.9463 C   0  0  0  0  0
  102.4767  110.1544  126.3701 C   0  0  0  0  0
  103.2903  109.1549  125.6205 C   0  0  0  0  0
   99.4049  111.5115  127.6600 C   0  0  0  0  0
  101.1285  107.1287  127.4250 C   0  0  0  0  0
  101.7108  107.8888  128.4499 C   0  0  0  0  0
  102.4775  107.2804  129.4466 C   0  0  0  0  0
  102.6612  105.8879  129.4312 C   0  0  0  0  0
  102.0721  105.1230  128.4208 C   0  0  0  0  0
  101.3085  105.7384  127.4260 C   0  0  0  0  0
   97.1803  108.5208  123.0285 N   0  0  0  0  0
   99.4511  107.0723  125.6675 N   0  0  0  0  0
  100.3227  107.7466  126.4053 N   0  0  0  0  0
  101.1451  110.0790  126.5496 N   0  0  0  0  0
   97.4791  106.3273  123.7795 O   0  0  0  0  0
  103.6148  105.0731  130.6596 Cl  0  0  0  0  0
  103.1896  108.2902  130.6935 Cl  0  0  0  0  0
  1  2  1  0  0  0
  2  3  1  0  0  0
  3  4  1  0  0  0
  4  5  1  0  0  0
  4 28  1  0  0  0
  5  6  1  0  0  0
  6  7  1  0  0  0
  6  1  1  0  0  0
  7  8  1  0  0  0
  8  9  1  0  0  0
  8 10  1  0  0  0
  9  2  1  0  0  0
 10  4  1  0  0  0
 11 12  1  0  0  0
 13 31  1  0  0  0
 14 12  1  0  0  0
 15 14  1  0  0  0
 17 18  1  0  0  0
 19 31  1  0  0  0
 20 19  1  0  0  0
 21 16  1  0  0  0
 23 24  1  0  0  0
 24 34  1  0  0  0
 25 26  1  0  0  0
 25 33  1  0  0  0
 27 22  1  0  0  0
 28 11  1  0  0  0
 30 29  1  0  0  0
 30 13  1  0  0  0
 30 22  1  0  0  0
 31 16  1  0  0  0
 11 32  2  0  0  0
 12 29  2  0  0  0
 13 14  2  0  0  0
 16 17  2  0  0  0
 18 19  2  0  0  0
 22 23  2  0  0  0
 24 25  2  0  0  0
 26 27  2  0  0  0
M  END
> <rmsd>
0.578662455

$$$$
CHEMBL391134_8GUR


 24 25  0  0  0  0  0  0  0  0999 V2000
   92.3063  115.6138  125.2847 C   0  0  0  0  0
   93.6465  115.1063  125.7828 C   0  0  0  0  0
   94.5107  114.6594  124.6174 C   0  0  0  0  0
   94.0322  113.3182  124.0857 C   0  0  0  0  0
   94.9068  112.8631  122.9287 C   0  0  0  0  0
   96.2821  112.4009  123.4150 C   0  0  0  0  0
   96.3568  110.9078  123.7936 C   0  0  0  0  0
   95.4131  110.6260  124.9553 C   0  0  0  0  0
   95.9282  110.0666  122.5978 C   0  0  0  0  0
   97.7642  110.5034  124.1992 C   0  0  0  0  0
   98.8226  111.4272  124.2182 C   0  0  0  0  0
  100.1075  111.0330  124.5952 C   0  0  0  0  0
  100.3683  109.7074  124.9682 C   0  0  0  0  0
  101.7486  109.3083  125.3349 C   0  0  0  0  0
  102.3141  108.1939  124.6980 C   0  0  0  0  0
  103.6163  107.7889  124.9880 C   0  0  0  0  0
  104.3736  108.4953  125.9205 C   0  0  0  0  0
  103.8347  109.6076  126.5706 C   0  0  0  0  0
  104.6838  110.3246  127.5664 C   0  0  0  0  0
  102.5177  110.0241  126.2859 C   0  0  0  0  0
  101.9341  111.1897  127.0253 C   0  0  0  0  0
   99.3137  108.7733  124.9494 C   0  0  0  0  0
   98.0299  109.1739  124.5697 C   0  0  0  0  0
   99.5244  107.4500  125.3199 O   0  0  0  0  0
  1  2  1  0  0  0
  2  3  1  0  0  0
  3  4  1  0  0  0
  4  5  1  0  0  0
  5  6  1  0  0  0
  6  7  1  0  0  0
  7  8  1  0  0  0
  7  9  1  0  0  0
  7 10  1  0  0  0
 11 12  1  0  0  0
 13 14  1  0  0  0
 13 22  1  0  0  0
 15 16  1  0  0  0
 17 18  1  0  0  0
 19 18  1  0  0  0
 20 14  1  0  0  0
 21 20  1  0  0  0
 22 24  1  0  0  0
 23 10  1  0  0  0
 10 11  2  0  0  0
 12 13  2  0  0  0
 14 15  2  0  0  0
 16 17  2  0  0  0
 18 20  2  0  0  0
 22 23  2  0  0  0
M  END
> <rmsd>
0.798328042

$$$$
CHEMBL3234695_6PT0


 27 30  0  0  0  0  0  0  0  0999 V2000
   98.7792  106.9484  123.5639 C   0  0  0  0  0
   98.9960  108.4241  123.6229 C   0  0  0  0  0
   99.6022  109.1223  124.6846 C   0  0  0  0  0
  100.1122  108.5741  125.9596 C   0  0  0  0  0
  100.9783  109.3684  126.8495 C   0  0  0  0  0
  100.5598  109.5725  128.1700 C   0  0  0  0  0
  101.3354  110.3243  129.0524 C   0  0  0  0  0
  102.5423  110.8747  128.6230 C   0  0  0  0  0
  102.9856  110.6698  127.3143 C   0  0  0  0  0
  102.2129  109.9063  126.4183 C   0  0  0  0  0
   99.5468  110.4493  124.2963 C   0  0  0  0  0
   99.8677  111.6890  124.8407 C   0  0  0  0  0
   99.4930  112.7181  123.9548 C   0  0  0  0  0
   98.9655  110.4912  123.0948 C   0  0  0  0  0
   97.8816  108.9731  121.4172 C   0  0  0  0  0
   96.4093  109.3324  121.5638 C   0  0  0  0  0
   94.5300  107.9254  121.9401 C   0  0  0  0  0
   93.3125  108.8431  122.1357 C   0  0  0  0  0
   94.2367  110.0264  123.7792 C   0  0  0  0  0
   95.5436  109.2160  123.7811 C   0  0  0  0  0
   99.7692  107.4162  126.3195 O   0  0  0  0  0
   93.7181  110.1386  122.4822 O   0  0  0  0  0
  104.5224  111.3745  126.8373 Cl  0  0  0  0  0
  102.8262  109.5801  124.7946 Cl  0  0  0  0  0
   98.7671  112.0545  122.5498 S   0  0  0  0  0
   98.6099  109.2823  122.6414 N   0  0  0  0  0
   95.7663  108.4576  122.5372 N   0  0  0  0  0
  1  2  1  0  0  0
  3  4  1  0  0  0
  3 11  1  0  0  0
  4  5  1  0  0  0
  6  7  1  0  0  0
  8  9  1  0  0  0
  9 23  1  0  0  0
 10 24  1  0  0  0
 10  5  1  0  0  0
 11 12  1  0  0  0
 13 25  1  0  0  0
 14 25  1  0  0  0
 14 26  1  0  0  0
 15 26  1  0  0  0
 15 16  1  0  0  0
 16 27  1  0  0  0
 17 27  1  0  0  0
 17 18  1  0  0  0
 18 22  1  0  0  0
 19 22  1  0  0  0
 19 20  1  0  0  0
 20 27  1  0  0  0
 26  2  1  0  0  0
  2  3  2  0  0  0
  4 21  2  0  0  0
  5  6  2  0  0  0
  7  8  2  0  0  0
  9 10  2  0  0  0
 12 13  2  0  0  0
 14 11  2  0  0  0
M  END
> <rmsd>
0.569081247

$$$$
CHEMBL482153_8GUT


 33 36  0  0  0  0  0  0  0  0999 V2000
  100.0906  107.3371  121.7044 O   0  0  0  0  0
   99.3918  106.9890  122.6929 C   0  0  0  0  0
   99.9722  106.0896  123.7268 C   0  0  0  0  0
  100.7246  108.3749  126.3234 C   0  0  0  0  0
  101.2992  109.6519  126.8105 C   0  0  0  0  0
  100.5479  110.4419  127.6949 C   0  0  0  0  0
  101.0303  111.6706  128.1474 C   0  0  0  0  0
  102.2738  112.1306  127.7159 C   0  0  0  0  0
  103.0340  111.3609  126.8348 C   0  0  0  0  0
  102.5592  110.1279  126.3762 C   0  0  0  0  0
   99.7452  107.5870  126.9191 C   0  0  0  0  0
   99.1298  107.7380  128.2484 C   0  0  0  0  0
   97.7338  107.8226  128.3297 C   0  0  0  0  0
   97.1035  107.9742  129.5666 C   0  0  0  0  0
   97.8652  108.0340  130.7347 C   0  0  0  0  0
   99.2558  107.9250  130.6683 C   0  0  0  0  0
   99.8956  107.7743  129.4340 C   0  0  0  0  0
   97.6897  108.8082  122.3170 C   0  0  0  0  0
   98.2589  109.9121  123.1441 C   0  0  0  0  0
   97.5632  110.3714  124.2680 C   0  0  0  0  0
   98.1197  111.3657  125.0783 C   0  0  0  0  0
   99.3775  111.8939  124.7728 C   0  0  0  0  0
  100.0811  111.4254  123.6595 C   0  0  0  0  0
   99.5238  110.4331  122.8472 C   0  0  0  0  0
  100.1329  106.8342  124.9654 N   0  0  0  0  0
  100.9402  107.8760  125.0919 N   0  0  0  0  0
   99.3806  106.6394  126.0359 N   0  0  0  0  0
   98.0830  107.5273  122.8837 N   0  0  0  0  0
  102.8788  113.6740  128.2751 Cl  0  0  0  0  0
  103.6048  109.2098  125.3020 Cl  0  0  0  0  0
   97.0762  108.2258  132.2849 Cl  0  0  0  0  0
  101.6416  107.5658  129.4290 Cl  0  0  0  0  0
  101.3059  111.9275  123.3726 F   0  0  0  0  0
  2 28  1  0  0  0
  3  2  1  0  0  0
  3 25  1  0  0  0
  4  5  1  0  0  0
  4 11  1  0  0  0
  6  7  1  0  0  0
  8 29  1  0  0  0
  8  9  1  0  0  0
 10 30  1  0  0  0
 10  5  1  0  0  0
 11 12  1  0  0  0
 13 14  1  0  0  0
 15 31  1  0  0  0
 15 16  1  0  0  0
 17 32  1  0  0  0
 17 12  1  0  0  0
 18 28  1  0  0  0
 18 19  1  0  0  0
 20 21  1  0  0  0
 22 23  1  0  0  0
 23 33  1  0  0  0
 24 19  1  0  0  0
 25 26  1  0  0  0
 25 27  1  0  0  0
  2  1  2  0  0  0
  4 26  2  0  0  0
  5  6  2  0  0  0
  7  8  2  0  0  0
  9 10  2  0  0  0
 11 27  2  0  0  0
 12 13  2  0  0  0
 14 15  2  0  0  0
 16 17  2  0  0  0
 19 20  2  0  0  0
 21 22  2  0  0  0
 23 24  2  0  0  0
M  END
> <rmsd>
0.617998123

$$$$
CHEMBL576087_6PT0


 23 25  0  0  0  0  0  0  0  0999 V2000
   99.7433  107.1581  126.0315 N   0  0  0  0  0
   97.6421  110.6388  121.7155 N   0  0  0  0  0
   99.0606  111.7465  123.3426 N   0  0  0  0  0
   99.6201  108.1532  125.4537 C   0  0  0  0  0
   99.4679  109.3930  124.7351 C   0  0  0  0  0
   98.6621  109.4092  123.5960 C   0  0  0  0  0
   98.4671  110.6056  122.8932 C   0  0  0  0  0
   97.4622  111.8740  120.9618 C   0  0  0  0  0
   98.4831  111.9699  119.8312 C   0  0  0  0  0
   98.3878  110.7859  118.8733 C   0  0  0  0  0
   99.0478  109.5595  119.4944 C   0  0  0  0  0
   98.0702  108.6718  120.2742 C   0  0  0  0  0
   97.0607  109.4277  121.1449 C   0  0  0  0  0
   99.8500  111.7607  124.4488 C   0  0  0  0  0
  100.0836  110.5841  125.1683 C   0  0  0  0  0
  100.9450  110.6373  126.3653 C   0  0  0  0  0
  100.4851  111.3351  127.4891 C   0  0  0  0  0
  101.2622  111.4067  128.6454 C   0  0  0  0  0
  102.5092  110.7837  128.6862 C   0  0  0  0  0
  102.9894  110.0911  127.5719 C   0  0  0  0  0
  102.2136  110.0168  126.3993 C   0  0  0  0  0
  104.5724  109.3371  127.6788 Cl  0  0  0  0  0
  102.8507  109.1927  124.9737 Cl  0  0  0  0  0
  5  4  1  0  0  0
  6  7  1  0  0  0
  7  2  1  0  0  0
  8  2  1  0  0  0
  8  9  1  0  0  0
  9 10  1  0  0  0
 10 11  1  0  0  0
 11 12  1  0  0  0
 12 13  1  0  0  0
 13  2  1  0  0  0
 14  3  1  0  0  0
 15 16  1  0  0  0
 15  5  1  0  0  0
 17 18  1  0  0  0
 19 20  1  0  0  0
 20 22  1  0  0  0
 21 23  1  0  0  0
 21 16  1  0  0  0
  5  6  2  0  0  0
  7  3  2  0  0  0
 14 15  2  0  0  0
 16 17  2  0  0  0
 18 19  2  0  0  0
 20 21  2  0  0  0
  4  1  3  0  0  0
M  END
> <rmsd>
0.307654977

$$$$
CHEMBL3400942_8GUT


 24 26  0  0  0  0  0  0  0  0999 V2000
  102.4748  114.1941  128.0861 C   0  0  0  0  0
  101.9029  113.1987  129.0768 C   0  0  0  0  0
  100.5755  113.7345  129.5892 C   0  0  0  0  0
  102.8560  113.0684  130.2487 C   0  0  0  0  0
  101.7478  111.8608  128.4063 C   0  0  0  0  0
  100.5691  111.1486  128.2321 C   0  0  0  0  0
  101.0144  110.0327  127.5537 C   0  0  0  0  0
  100.4441  107.9500  126.1703 C   0  0  0  0  0
  101.3498  108.1849  124.9889 C   0  0  0  0  0
  102.7923  107.8550  125.3162 C   0  0  0  0  0
  103.6265  108.9101  124.6043 C   0  0  0  0  0
  102.6906  110.0695  124.3074 C   0  0  0  0  0
  100.1739  110.2831  124.0935 C   0  0  0  0  0
   98.9284  109.6410  124.0057 C   0  0  0  0  0
   97.7924  110.3482  123.6026 C   0  0  0  0  0
   97.8913  111.7045  123.2826 C   0  0  0  0  0
   99.1259  112.3531  123.3632 C   0  0  0  0  0
  100.2616  111.6456  123.7666 C   0  0  0  0  0
  102.3449  110.0690  127.3699 N   0  0  0  0  0
  100.1748  108.9395  127.1745 N   0  0  0  0  0
  101.3460  109.5616  124.5151 N   0  0  0  0  0
  102.7507  111.1876  127.8885 O   0  0  0  0  0
   99.8468  106.8451  126.2425 O   0  0  0  0  0
   96.4686  112.5910  122.7799 Cl  0  0  0  0  0
  1  2  1  0  0  0
  2  3  1  0  0  0
  2  4  1  0  0  0
  2  5  1  0  0  0
  5 22  1  0  0  0
  6  7  1  0  0  0
  7 20  1  0  0  0
  9  8  1  0  0  0
  9 10  1  0  0  0
  9 21  1  0  0  0
 10 11  1  0  0  0
 11 12  1  0  0  0
 12 21  1  0  0  0
 14 15  1  0  0  0
 16 17  1  0  0  0
 16 24  1  0  0  0
 18 13  1  0  0  0
 19 22  1  0  0  0
 20  8  1  0  0  0
 21 13  1  0  0  0
  5  6  2  0  0  0
  7 19  2  0  0  0
  8 23  2  0  0  0
 13 14  2  0  0  0
 15 16  2  0  0  0
 17 18  2  0  0  0
M  END
> <rmsd>
0.576883256

$$$$
CHEMBL2381812_5ZTY


 32 36  0  0  0  0  0  0  0  0999 V2000
  102.1456  110.1859  126.2076 C   0  0  0  0  0
  101.9819  109.2493  124.0658 C   0  0  0  0  0
  101.4066  108.0770  124.6023 C   0  0  0  0  0
  101.2212  108.0183  126.0035 C   0  0  0  0  0
  102.0136  110.4467  128.3482 C   0  0  0  0  0
  102.4494  111.1078  127.1921 C   0  0  0  0  0
  102.1766  110.9635  129.7537 C   0  0  0  0  0
  101.9583  112.4658  129.8042 C   0  0  0  0  0
  103.5770  110.6533  130.2442 C   0  0  0  0  0
  101.1750  110.3082  130.6885 C   0  0  0  0  0
  101.0249  106.9777  123.6848 C   0  0  0  0  0
  100.0180  104.6384  123.3701 C   0  0  0  0  0
   98.9385  105.0729  122.3596 C   0  0  0  0  0
   98.4956  103.8701  121.5119 C   0  0  0  0  0
   99.7125  103.3012  120.7635 C   0  0  0  0  0
  100.7857  102.8488  121.7675 C   0  0  0  0  0
  100.1943  101.7720  122.6913 C   0  0  0  0  0
   98.9835  102.3388  123.4500 C   0  0  0  0  0
   99.4306  103.5502  124.2850 C   0  0  0  0  0
   97.9177  102.7873  122.4373 C   0  0  0  0  0
  101.2269  104.0524  122.6150 C   0  0  0  0  0
  102.9251  111.4881  124.2622 C   0  0  0  0  0
  101.9127  112.6281  124.2010 C   0  0  0  0  0
  100.8336  112.3594  123.1652 C   0  0  0  0  0
   99.6649  111.6325  123.8021 C   0  0  0  0  0
   98.6292  111.3173  122.7443 C   0  0  0  0  0
  102.3438  110.2940  124.8659 N   0  0  0  0  0
  101.6043  109.0883  126.7439 N   0  0  0  0  0
  101.5221  109.2180  128.0537 N   0  0  0  0  0
  100.4323  105.7729  124.1899 N   0  0  0  0  0
  100.7167  107.0085  126.5653 O   0  0  0  0  0
  101.2228  107.1059  122.4453 O   0  0  0  0  0
  1 27  1  0  0  0
  3  4  1  0  0  0
  3 11  1  0  0  0
  4 28  1  0  0  0
  5  6  1  0  0  0
  7  5  1  0  0  0
  7  8  1  0  0  0
  7  9  1  0  0  0
  7 10  1  0  0  0
 11 30  1  0  0  0
 12 30  1  0  0  0
 12 13  1  0  0  0
 13 14  1  0  0  0
 14 15  1  0  0  0
 15 16  1  0  0  0
 16 17  1  0  0  0
 16 21  1  0  0  0
 17 18  1  0  0  0
 18 19  1  0  0  0
 18 20  1  0  0  0
 19 12  1  0  0  0
 20 14  1  0  0  0
 21 12  1  0  0  0
 22 27  1  0  0  0
 22 23  1  0  0  0
 23 24  1  0  0  0
 24 25  1  0  0  0
 25 26  1  0  0  0
 27  2  1  0  0  0
 28 29  1  0  0  0
 28  1  1  0  0  0
  2  3  2  0  0  0
  4 31  2  0  0  0
  5 29  2  0  0  0
  6  1  2  0  0  0
 11 32  2  0  0  0
M  END
> <rmsd>
0.87431258

$$$$
CHEMBL3400946_8GUQ


 28 30  0  0  0  0  0  0  0  0999 V2000
  102.5638  109.1476  124.8117 C   0  0  0  0  0
  101.4711  109.0982  125.8702 C   0  0  0  0  0
  102.1492  109.1161  127.2349 C   0  0  0  0  0
  101.3735  110.1037  128.0907 C   0  0  0  0  0
  100.5982  110.9786  127.1272 C   0  0  0  0  0
   99.9511  110.8190  124.6855 C   0  0  0  0  0
   99.5132  110.7253  122.3453 C   0  0  0  0  0
   98.6053  111.7858  122.4396 C   0  0  0  0  0
   98.4011  112.3839  123.6874 C   0  0  0  0  0
   99.0676  111.9001  124.8132 C   0  0  0  0  0
   97.9353  112.3296  121.2117 C   0  0  0  0  0
  100.6155  107.8615  125.7030 C   0  0  0  0  0
   99.2061  106.4439  124.1168 C   0  0  0  0  0
   97.9660  104.6905  124.2052 C   0  0  0  0  0
   98.7474  105.4980  125.0177 C   0  0  0  0  0
   97.2018  103.4746  124.6518 C   0  0  0  0  0
   96.4567  102.8469  123.4873 C   0  0  0  0  0
   96.1940  103.8612  125.7175 C   0  0  0  0  0
   98.1582  102.4455  125.2237 C   0  0  0  0  0
  100.6474  110.3062  125.8402 N   0  0  0  0  0
  100.1527  110.2691  123.4552 N   0  0  0  0  0
  100.0668  107.5483  124.4156 N   0  0  0  0  0
   98.7311  106.2089  122.8819 N   0  0  0  0  0
   97.7400  111.3220  120.2828 F   0  0  0  0  0
   96.7053  112.8759  121.5352 F   0  0  0  0  0
   98.7324  113.3110  120.6527 F   0  0  0  0  0
  100.3748  107.1155  126.6924 O   0  0  0  0  0
   97.9900  105.1469  122.9728 O   0  0  0  0  0
  2  1  1  0  0  0
  2  3  1  0  0  0
  2 12  1  0  0  0
  2 20  1  0  0  0
  3  4  1  0  0  0
  4  5  1  0  0  0
  5 20  1  0  0  0
  7 21  1  0  0  0
  8  9  1  0  0  0
 10  6  1  0  0  0
 11  8  1  0  0  0
 11 24  1  0  0  0
 11 25  1  0  0  0
 11 26  1  0  0  0
 12 22  1  0  0  0
 14 28  1  0  0  0
 15 13  1  0  0  0
 16 14  1  0  0  0
 16 17  1  0  0  0
 16 18  1  0  0  0
 16 19  1  0  0  0
 20  6  1  0  0  0
 22 13  1  0  0  0
 23 28  1  0  0  0
  6 21  2  0  0  0
  7  8  2  0  0  0
  9 10  2  0  0  0
 12 27  2  0  0  0
 13 23  2  0  0  0
 14 15  2  0  0  0
M  END
> <rmsd>
0.700056791

$$$$
CHEMBL188494_6PT0


 25 27  0  0  0  0  0  0  0  0999 V2000
  107.5901  111.5097  125.7491 C   0  0  0  0  0
  107.1632  112.0608  124.4019 C   0  0  0  0  0
  105.7627  112.6496  124.4790 C   0  0  0  0  0
  104.7038  111.5664  124.3516 C   0  0  0  0  0
  104.4291  110.9269  125.7028 C   0  0  0  0  0
  102.2177  109.7853  126.0483 C   0  0  0  0  0
  101.6037  110.8945  126.8379 C   0  0  0  0  0
  101.6170  108.5568  125.7459 C   0  0  0  0  0
  100.2568  108.0894  126.0905 C   0  0  0  0  0
   99.2114  109.0387  126.5837 C   0  0  0  0  0
   98.0882  109.1560  125.6001 C   0  0  0  0  0
   96.9681  108.3314  125.7614 C   0  0  0  0  0
   95.9063  108.3965  124.8556 C   0  0  0  0  0
   95.9596  109.2854  123.7798 C   0  0  0  0  0
   97.0751  110.1091  123.6087 C   0  0  0  0  0
   98.1421  110.0499  124.5112 C   0  0  0  0  0
   99.3123  110.9469  124.2911 C   0  0  0  0  0
  102.5834  107.8439  125.0538 C   0  0  0  0  0
  102.5555  106.5596  124.5095 C   0  0  0  0  0
  103.7131  106.0996  123.8576 C   0  0  0  0  0
  104.8580  106.9188  123.7651 C   0  0  0  0  0
  104.8597  108.2099  124.3210 C   0  0  0  0  0
  103.6959  108.6436  124.9586 C   0  0  0  0  0
  103.4796  109.8295  125.5575 N   0  0  0  0  0
   99.9614  106.8711  125.9603 O   0  0  0  0  0
  1  2  1  0  0  0
  2  3  1  0  0  0
  3  4  1  0  0  0
  4  5  1  0  0  0
  5 24  1  0  0  0
  7  6  1  0  0  0
  8  9  1  0  0  0
  8 18  1  0  0  0
 10  9  1  0  0  0
 10 11  1  0  0  0
 12 13  1  0  0  0
 14 15  1  0  0  0
 16 11  1  0  0  0
 17 16  1  0  0  0
 19 20  1  0  0  0
 21 22  1  0  0  0
 23 24  1  0  0  0
 23 18  1  0  0  0
 24  6  1  0  0  0
  6  8  2  0  0  0
  9 25  2  0  0  0
 11 12  2  0  0  0
 13 14  2  0  0  0
 15 16  2  0  0  0
 18 19  2  0  0  0
 20 21  2  0  0  0
 22 23  2  0  0  0
M  END
> <rmsd>
0.391053021

$$$$
CHEMBL393188_5ZTY


 27 29  0  0  0  0  0  0  0  0999 V2000
  101.7689  110.4169  128.3814 C   0  0  0  0  0
  102.1208  110.5102  125.8035 C   0  0  0  0  0
  100.7151  112.4526  125.0943 C   0  0  0  0  0
   99.2818  112.8144  125.5257 C   0  0  0  0  0
   99.2319  112.7815  127.0599 C   0  0  0  0  0
   97.9318  113.3680  127.6106 C   0  0  0  0  0
   97.7503  114.7968  127.1149 C   0  0  0  0  0
   97.7114  114.8146  125.5922 C   0  0  0  0  0
   99.0100  114.2393  125.0257 C   0  0  0  0  0
   98.2108  111.8531  124.9566 C   0  0  0  0  0
  100.0324  110.1596  124.4117 C   0  0  0  0  0
   99.1459  107.8651  124.1222 C   0  0  0  0  0
   98.5509  107.9991  122.8572 C   0  0  0  0  0
   97.7635  106.9749  122.3279 C   0  0  0  0  0
   97.5742  105.7976  123.0518 C   0  0  0  0  0
   98.1782  105.6438  124.3008 C   0  0  0  0  0
   98.9727  106.6694  124.8405 C   0  0  0  0  0
   99.4973  105.3656  126.9092 C   0  0  0  0  0
  102.7743  111.3880  127.2241 S   0  0  0  0  0
  102.9782  109.2402  125.2185 S   0  0  0  0  0
   98.7486  110.9769  123.4509 S   0  0  0  0  0
  100.9599  111.0095  125.1121 N   0  0  0  0  0
  100.0052  108.8807  124.6684 N   0  0  0  0  0
   99.5975  106.5272  126.0887 O   0  0  0  0  0
  100.0004  104.2656  126.2380 F   0  0  0  0  0
   98.1764  105.1389  127.2520 F   0  0  0  0  0
  100.2327  105.5632  128.0618 F   0  0  0  0  0
  1 19  1  0  0  0
  2 19  1  0  0  0
  2 22  1  0  0  0
  3 22  1  0  0  0
  3  4  1  0  0  0
  4  5  1  0  0  0
  4 10  1  0  0  0
  5  6  1  0  0  0
  6  7  1  0  0  0
  7  8  1  0  0  0
  8  9  1  0  0  0
  9  4  1  0  0  0
 10 21  1  0  0  0
 11 21  1  0  0  0
 11 22  1  0  0  0
 12 23  1  0  0  0
 13 14  1  0  0  0
 15 16  1  0  0  0
 17 24  1  0  0  0
 17 12  1  0  0  0
 18 24  1  0  0  0
 18 25  1  0  0  0
 18 26  1  0  0  0
 18 27  1  0  0  0
  2 20  2  0  0  0
 11 23  2  0  0  0
 12 13  2  0  0  0
 14 15  2  0  0  0
 16 17  2  0  0  0
M  END
> <rmsd>
0.616778135

$$$$
CHEMBL3357338_6PT0


 32 35  0  0  0  0  0  0  0  0999 V2000
  105.2576  113.3062  127.7305 C   0  0  0  0  0
  104.8877  111.8393  127.9319 C   0  0  0  0  0
  106.3597  111.2969  125.9951 C   0  0  0  0  0
  106.6711  112.7887  125.8887 C   0  0  0  0  0
  106.9076  114.8184  127.0267 C   0  0  0  0  0
  107.6661  115.3560  128.2251 C   0  0  0  0  0
  104.0446  110.3199  126.0714 C   0  0  0  0  0
  102.7607  110.1972  126.6135 C   0  0  0  0  0
  101.8311  109.4304  125.9925 C   0  0  0  0  0
  103.3347  108.8751  124.2974 C   0  0  0  0  0
  103.6553  108.1609  123.0345 C   0  0  0  0  0
  100.9396  110.3396  127.6898 C   0  0  0  0  0
   99.9370  110.8173  128.6582 C   0  0  0  0  0
   99.1880  109.9340  129.4646 C   0  0  0  0  0
   98.2464  110.4450  130.3638 C   0  0  0  0  0
   98.0481  111.8233  130.4727 C   0  0  0  0  0
   98.8010  112.7007  129.6899 C   0  0  0  0  0
   99.7441  112.1989  128.7905 C   0  0  0  0  0
   99.3475  109.0001  126.2449 C   0  0  0  0  0
   99.4135  107.6054  125.6311 C   0  0  0  0  0
  100.3627  105.6228  125.8094 C   0  0  0  0  0
   98.6631  109.9861  125.3044 C   0  0  0  0  0
   98.9639  111.3649  123.6079 C   0  0  0  0  0
  105.0764  111.1270  126.6707 N   0  0  0  0  0
  106.6248  113.4059  127.2148 N   0  0  0  0  0
  102.0844  108.7728  124.8355 N   0  0  0  0  0
  104.2940  109.6381  124.9107 N   0  0  0  0  0
  100.6664  109.4930  126.6586 N   0  0  0  0  0
  102.2208  110.7997  127.6891 N   0  0  0  0  0
   99.4571  108.1977  129.4514 Cl  0  0  0  0  0
   99.8881  106.6900  126.5703 O   0  0  0  0  0
   99.3988  110.1471  124.1284 O   0  0  0  0  0
  1  2  1  0  0  0
  1 25  1  0  0  0
  2 24  1  0  0  0
  3 24  1  0  0  0
  3  4  1  0  0  0
  4 25  1  0  0  0
  5 25  1  0  0  0
  5  6  1  0  0  0
  7 27  1  0  0  0
  8  9  1  0  0  0
  8 29  1  0  0  0
  9 28  1  0  0  0
 10 26  1  0  0  0
 11 10  1  0  0  0
 12 13  1  0  0  0
 14 15  1  0  0  0
 14 30  1  0  0  0
 16 17  1  0  0  0
 18 13  1  0  0  0
 19 28  1  0  0  0
 19 20  1  0  0  0
 19 22  1  0  0  0
 20 31  1  0  0  0
 21 31  1  0  0  0
 22 32  1  0  0  0
 23 32  1  0  0  0
 24  7  1  0  0  0
 28 12  1  0  0  0
  7  8  2  0  0  0
  9 26  2  0  0  0
 10 27  2  0  0  0
 12 29  2  0  0  0
 13 14  2  0  0  0
 15 16  2  0  0  0
 17 18  2  0  0  0
M  END
> <rmsd>
0.618995249

$$$$
CHEMBL1828799_5ZTY


 28 31  0  0  0  0  0  0  0  0999 V2000
   98.8504  112.0392  123.8314 C   0  0  0  0  0
   99.7192  110.8296  123.5614 C   0  0  0  0  0
  100.7777  111.1856  122.5353 C   0  0  0  0  0
  101.7062  110.0057  122.2957 C   0  0  0  0  0
  102.8391  109.9805  123.3153 C   0  0  0  0  0
  101.8951  108.2784  124.8928 C   0  0  0  0  0
  101.5448  108.2158  126.2414 C   0  0  0  0  0
  100.9391  107.0452  126.9078 C   0  0  0  0  0
  101.1720  106.7324  128.3335 C   0  0  0  0  0
  102.3282  107.1745  128.9909 C   0  0  0  0  0
  102.5523  106.8457  130.3299 C   0  0  0  0  0
  101.6289  106.0592  131.0367 C   0  0  0  0  0
  101.8651  105.7121  132.4586 C   0  0  0  0  0
  103.0157  106.1673  133.1246 C   0  0  0  0  0
  103.2382  105.8404  134.4653 C   0  0  0  0  0
  102.3126  105.0544  135.1556 C   0  0  0  0  0
  101.1646  104.5952  134.5058 C   0  0  0  0  0
  100.9422  104.9222  133.1651 C   0  0  0  0  0
  100.4804  105.6033  130.3704 C   0  0  0  0  0
  100.2568  105.9328  129.0310 C   0  0  0  0  0
  101.8001  109.4718  126.7690 C   0  0  0  0  0
  101.5693  110.0066  128.0368 C   0  0  0  0  0
  101.9070  111.3546  128.2501 C   0  0  0  0  0
  102.4457  112.1330  127.2038 C   0  0  0  0  0
  102.6474  111.5749  125.9294 C   0  0  0  0  0
  102.3088  110.2329  125.7493 C   0  0  0  0  0
  102.3655  109.5168  124.6133 N   0  0  0  0  0
  100.2141  106.2735  126.2230 O   0  0  0  0  0
  1  2  1  0  0  0
  2  3  1  0  0  0
  3  4  1  0  0  0
  4  5  1  0  0  0
  5 27  1  0  0  0
  7  8  1  0  0  0
  7 21  1  0  0  0
  8  9  1  0  0  0
 10 11  1  0  0  0
 12 13  1  0  0  0
 12 19  1  0  0  0
 14 15  1  0  0  0
 16 17  1  0  0  0
 18 13  1  0  0  0
 20  9  1  0  0  0
 22 23  1  0  0  0
 24 25  1  0  0  0
 26 27  1  0  0  0
 26 21  1  0  0  0
 27  6  1  0  0  0
  6  7  2  0  0  0
  8 28  2  0  0  0
  9 10  2  0  0  0
 11 12  2  0  0  0
 13 14  2  0  0  0
 15 16  2  0  0  0
 17 18  2  0  0  0
 19 20  2  0  0  0
 21 22  2  0  0  0
 23 24  2  0  0  0
 25 26  2  0  0  0
M  END
> <rmsd>
0.687661648

$$$$
CHEMBL4448509_6PT0


 29 32  0  0  0  0  0  0  0  0999 V2000
   96.2733  105.4214  123.4464 C   0  0  0  0  0
   97.2342  105.0571  124.4138 C   0  0  0  0  0
   98.2352  105.9632  124.8061 C   0  0  0  0  0
   98.2429  107.2251  124.2072 C   0  0  0  0  0
   97.3101  107.5722  123.2605 C   0  0  0  0  0
   96.3033  106.6972  122.8566 C   0  0  0  0  0
   97.5837  108.8661  122.8743 C   0  0  0  0  0
   98.6870  109.2590  123.6258 C   0  0  0  0  0
  100.1756  108.2650  125.3904 C   0  0  0  0  0
  101.4577  108.9372  125.0825 C   0  0  0  0  0
  102.2083  109.6314  126.0618 C   0  0  0  0  0
  103.4354  110.2237  125.7035 C   0  0  0  0  0
  103.9055  110.1259  124.3923 C   0  0  0  0  0
  103.1659  109.4435  123.4283 C   0  0  0  0  0
  101.9513  108.8527  123.7731 C   0  0  0  0  0
   99.2620  110.6379  123.6259 C   0  0  0  0  0
   96.7853  109.7087  121.9365 C   0  0  0  0  0
   95.6953  110.4385  122.7008 C   0  0  0  0  0
   93.5350  111.3057  122.2282 C   0  0  0  0  0
   93.2330  112.3623  123.3035 C   0  0  0  0  0
   95.0715  113.5525  122.9060 C   0  0  0  0  0
   95.5644  112.6322  121.7770 C   0  0  0  0  0
   99.0993  108.2450  124.4337 N   0  0  0  0  0
   94.9424  111.2959  121.7950 N   0  0  0  0  0
  100.0419  107.6511  126.4835 O   0  0  0  0  0
   94.4160  112.8160  123.9015 O   0  0  0  0  0
  104.4100  111.1058  126.8693 Cl  0  0  0  0  0
  101.6046  109.8215  127.7104 Cl  0  0  0  0  0
   95.3151  104.5356  123.0837 F   0  0  0  0  0
  1 29  1  0  0  0
  2  3  1  0  0  0
  4  5  1  0  0  0
  5  7  1  0  0  0
  6  1  1  0  0  0
  8 23  1  0  0  0
  9 10  1  0  0  0
 11 12  1  0  0  0
 11 28  1  0  0  0
 12 27  1  0  0  0
 13 14  1  0  0  0
 15 10  1  0  0  0
 16  8  1  0  0  0
 17  7  1  0  0  0
 17 18  1  0  0  0
 18 24  1  0  0  0
 19 24  1  0  0  0
 19 20  1  0  0  0
 20 26  1  0  0  0
 21 26  1  0  0  0
 21 22  1  0  0  0
 22 24  1  0  0  0
 23  9  1  0  0  0
 23  4  1  0  0  0
  1  2  2  0  0  0
  3  4  2  0  0  0
  5  6  2  0  0  0
  7  8  2  0  0  0
  9 25  2  0  0  0
 10 11  2  0  0  0
 12 13  2  0  0  0
 14 15  2  0  0  0
M  END
> <rmsd>
0.723091483

$$$$
CHEMBL3354961_8GUQ


 30 35  0  0  0  0  0  0  0  0999 V2000
   93.4465  105.5014  125.0002 C   0  0  0  0  0
   94.4099  105.6633  123.8362 C   0  0  0  0  0
   94.4912  107.1517  123.4942 C   0  0  0  0  0
   93.9325  104.8116  122.6367 C   0  0  0  0  0
   94.8129  105.1274  121.4173 C   0  0  0  0  0
   96.1634  104.5022  121.7744 C   0  0  0  0  0
   95.8913  103.9029  123.1497 C   0  0  0  0  0
   95.7614  105.0082  124.2026 C   0  0  0  0  0
   97.7196  106.1802  125.2893 C   0  0  0  0  0
   98.8292  107.1364  125.1940 C   0  0  0  0  0
  100.0753  108.7971  124.5676 C   0  0  0  0  0
   99.1219  107.9582  124.1219 C   0  0  0  0  0
   98.2282  108.6063  123.1406 C   0  0  0  0  0
   98.8622  110.0025  122.9363 C   0  0  0  0  0
  100.0419  110.1325  123.9175 C   0  0  0  0  0
   98.7300  110.8499  124.1916 C   0  0  0  0  0
  101.2132  109.2493  126.7467 C   0  0  0  0  0
  100.9002  109.2794  128.1141 C   0  0  0  0  0
  101.6953  109.9977  129.0103 C   0  0  0  0  0
  102.8171  110.6886  128.5488 C   0  0  0  0  0
  103.1517  110.6499  127.1935 C   0  0  0  0  0
  102.3588  109.9337  126.2915 C   0  0  0  0  0
   96.8464  102.7911  123.5347 C   0  0  0  0  0
   94.4714  103.4504  123.0030 C   0  0  0  0  0
   96.8900  105.9342  124.1534 N   0  0  0  0  0
   99.6207  107.4783  126.2352 N   0  0  0  0  0
  100.3782  108.4984  125.8486 N   0  0  0  0  0
   97.5050  105.5765  126.3750 O   0  0  0  0  0
  102.7404  109.8742  124.9921 F   0  0  0  0  0
  103.5882  111.3856  129.4171 F   0  0  0  0  0
  1  2  1  0  0  0
  2  3  1  0  0  0
  2  4  1  0  0  0
  4  5  1  0  0  0
  5  6  1  0  0  0
  6  7  1  0  0  0
  7  8  1  0  0  0
  7 23  1  0  0  0
  7 24  1  0  0  0
  8 25  1  0  0  0
  8  2  1  0  0  0
  9 10  1  0  0  0
 12 10  1  0  0  0
 13 12  1  0  0  0
 14 13  1  0  0  0
 14 15  1  0  0  0
 15 16  1  0  0  0
 15 11  1  0  0  0
 16 14  1  0  0  0
 18 19  1  0  0  0
 20 21  1  0  0  0
 20 30  1  0  0  0
 22 29  1  0  0  0
 22 17  1  0  0  0
 24  4  1  0  0  0
 25  9  1  0  0  0
 27 26  1  0  0  0
 27 11  1  0  0  0
 27 17  1  0  0  0
  9 28  2  0  0  0
 10 26  2  0  0  0
 11 12  2  0  0  0
 17 18  2  0  0  0
 19 20  2  0  0  0
 21 22  2  0  0  0
M  END
> <rmsd>
0.655081332

$$$$
CHEMBL245909_5ZTY


 21 22  0  0  0  0  0  0  0  0999 V2000
   99.5478  110.2718  123.5683 C   0  0  0  0  0
   98.2479  109.8744  124.2435 C   0  0  0  0  0
   97.9887  108.4117  124.0713 C   0  0  0  0  0
   96.9350  108.0171  123.2395 C   0  0  0  0  0
   96.6502  106.6629  123.0538 C   0  0  0  0  0
   97.4186  105.6942  123.7006 C   0  0  0  0  0
   98.4646  106.0806  124.5411 C   0  0  0  0  0
   98.7481  107.4395  124.7552 C   0  0  0  0  0
  100.3674  107.2416  126.6121 C   0  0  0  0  0
   99.2320  106.8175  128.8632 C   0  0  0  0  0
  100.5063  107.3052  129.5764 C   0  0  0  0  0
  100.7924  106.3791  130.7398 C   0  0  0  0  0
  100.2471  108.6937  130.1253 C   0  0  0  0  0
  101.7531  107.3437  128.6753 C   0  0  0  0  0
  102.2262  108.9487  126.8154 C   0  0  0  0  0
  101.4587  111.2561  127.7436 C   0  0  0  0  0
   99.8478  107.8546  125.5846 N   0  0  0  0  0
  101.4523  107.8520  127.3362 N   0  0  0  0  0
   99.5776  105.8152  127.3773 S   0  0  0  0  0
  102.6665  108.9980  125.2367 S   0  0  0  0  0
  102.9102  110.1816  127.9233 S   0  0  0  0  0
  1  2  1  0  0  0
  2  3  1  0  0  0
  4  5  1  0  0  0
  6  7  1  0  0  0
  8 17  1  0  0  0
  8  3  1  0  0  0
  9 19  1  0  0  0
 10 19  1  0  0  0
 10 11  1  0  0  0
 11 12  1  0  0  0
 11 13  1  0  0  0
 11 14  1  0  0  0
 14 18  1  0  0  0
 15 21  1  0  0  0
 16 21  1  0  0  0
 18 15  1  0  0  0
 18  9  1  0  0  0
  3  4  2  0  0  0
  5  6  2  0  0  0
  7  8  2  0  0  0
  9 17  2  0  0  0
 15 20  2  0  0  0
M  END
> <rmsd>
0.734407604

$$$$
CHEMBL1271093_6PT0


 40 43  0  0  0  0  0  0  0  0999 V2000
   94.2092  105.8192  125.8670 C   0  0  0  0  0
   93.7097  105.8508  124.4298 C   0  0  0  0  0
   94.7416  106.3399  123.3950 C   0  0  0  0  0
   94.0747  106.3093  122.0228 C   0  0  0  0  0
   94.4735  105.2930  118.9076 C   0  0  0  0  0
   95.1368  107.8002  123.6367 C   0  0  0  0  0
   96.1461  107.9701  124.7750 C   0  0  0  0  0
   98.8037  109.3405  123.5626 C   0  0  0  0  0
   98.6228  110.3254  122.5910 C   0  0  0  0  0
   99.0401  111.4814  123.2159 C   0  0  0  0  0
   99.0637  112.7869  122.7315 C   0  0  0  0  0
   99.5145  113.7990  123.5970 C   0  0  0  0  0
   99.9175  113.4868  124.9120 C   0  0  0  0  0
   99.8789  112.1598  125.3742 C   0  0  0  0  0
   99.4378  111.1735  124.4898 C   0  0  0  0  0
  101.0090  109.7703  127.0305 C   0  0  0  0  0
  100.8299  110.3554  128.2898 C   0  0  0  0  0
  101.9061  110.9610  128.9441 C   0  0  0  0  0
  103.1665  110.9852  128.3409 C   0  0  0  0  0
  103.3514  110.4029  127.0836 C   0  0  0  0  0
  102.2766  109.7963  126.4261 C   0  0  0  0  0
   96.9712  105.7029  124.4825 C   0  0  0  0  0
   95.9902  105.4460  123.3346 C   0  0  0  0  0
   93.6585  104.9616  121.6539 N   0  0  0  0  0
   97.3311  107.1187  124.6196 N   0  0  0  0  0
   99.3082  109.8546  124.7155 N   0  0  0  0  0
   93.1044  105.0081  120.0144 S   0  0  0  0  0
   98.3500  107.6582  123.3105 S   0  0  0  0  0
   99.6411  109.0262  126.2118 S   0  0  0  0  0
   92.4685  103.6894  119.6768 O   0  0  0  0  0
   92.0850  106.1013  119.8471 O   0  0  0  0  0
   99.5928  106.8156  123.2475 O   0  0  0  0  0
   97.6229  107.5424  121.9990 O   0  0  0  0  0
   99.9903  107.5871  125.9594 O   0  0  0  0  0
   98.4235  109.0893  127.0902 O   0  0  0  0  0
   95.4569  104.3488  119.1342 F   0  0  0  0  0
   94.9935  106.5559  119.1182 F   0  0  0  0  0
   94.0343  105.1925  117.6003 F   0  0  0  0  0
   99.5516  115.0829  123.1684 F   0  0  0  0  0
  102.4719  109.2444  125.2029 F   0  0  0  0  0
  1  2  1  0  0  0
  2  3  1  0  0  0
  3  4  1  0  0  0
  3  6  1  0  0  0
  4 24  1  0  0  0
  5 36  1  0  0  0
  5 37  1  0  0  0
  5 38  1  0  0  0
  6  7  1  0  0  0
  7 25  1  0  0  0
  9 10  1  0  0  0
 11 12  1  0  0  0
 12 39  1  0  0  0
 13 14  1  0  0  0
 15 26  1  0  0  0
 15 10  1  0  0  0
 17 18  1  0  0  0
 19 20  1  0  0  0
 21 40  1  0  0  0
 21 16  1  0  0  0
 22 25  1  0  0  0
 22 23  1  0  0  0
 23  3  1  0  0  0
 26  8  1  0  0  0
 27 24  1  0  0  0
 27  5  1  0  0  0
 28 25  1  0  0  0
 28  8  1  0  0  0
 29 26  1  0  0  0
 29 16  1  0  0  0
  8  9  2  0  0  0
 10 11  2  0  0  0
 12 13  2  0  0  0
 14 15  2  0  0  0
 16 17  2  0  0  0
 18 19  2  0  0  0
 20 21  2  0  0  0
 27 30  2  0  0  0
 27 31  2  0  0  0
 28 32  2  0  0  0
 28 33  2  0  0  0
 29 34  2  0  0  0
 29 35  2  0  0  0
M  END
> <rmsd>
0.48892495

$$$$
CHEMBL3354968_8GUQ


 24 27  0  0  0  0  0  0  0  0999 V2000
   98.1514  102.4544  125.4901 C   0  0  0  0  0
   97.2926  103.6774  125.2296 C   0  0  0  0  0
   96.7856  103.6032  123.8008 C   0  0  0  0  0
   97.6409  106.2218  125.2401 C   0  0  0  0  0
   98.5647  107.3418  125.4566 C   0  0  0  0  0
   99.4979  109.3036  125.3739 C   0  0  0  0  0
   98.3137  108.6805  125.2311 C   0  0  0  0  0
   97.4312  109.3569  124.2608 C   0  0  0  0  0
   98.3052  110.5154  123.7239 C   0  0  0  0  0
   99.6436  110.4875  124.4873 C   0  0  0  0  0
   98.5944  111.5409  124.8072 C   0  0  0  0  0
  101.8636  108.5991  125.7658 C   0  0  0  0  0
  102.7305  107.5529  125.4155 C   0  0  0  0  0
  104.1154  107.7234  125.4827 C   0  0  0  0  0
  104.6487  108.9408  125.9100 C   0  0  0  0  0
  103.7972  109.9846  126.2779 C   0  0  0  0  0
  102.4100  109.8204  126.2116 C   0  0  0  0  0
   96.1023  103.6787  126.1855 C   0  0  0  0  0
   98.1083  104.8773  125.4105 N   0  0  0  0  0
   99.8752  107.1923  125.7504 N   0  0  0  0  0
  100.4423  108.3924  125.6915 N   0  0  0  0  0
   96.4443  106.4458  124.9121 O   0  0  0  0  0
   96.5271  103.7954  127.5115 O   0  0  0  0  0
  101.6126  110.8353  126.6257 F   0  0  0  0  0
  1  2  1  0  0  0
  2  3  1  0  0  0
  2 19  1  0  0  0
  2 18  1  0  0  0
  4  5  1  0  0  0
  7  5  1  0  0  0
  8  7  1  0  0  0
  9  8  1  0  0  0
  9 10  1  0  0  0
 10 11  1  0  0  0
 10  6  1  0  0  0
 11  9  1  0  0  0
 13 14  1  0  0  0
 15 16  1  0  0  0
 17 24  1  0  0  0
 17 12  1  0  0  0
 18 23  1  0  0  0
 19  4  1  0  0  0
 21 20  1  0  0  0
 21  6  1  0  0  0
 21 12  1  0  0  0
  4 22  2  0  0  0
  5 20  2  0  0  0
  6  7  2  0  0  0
 12 13  2  0  0  0
 14 15  2  0  0  0
 16 17  2  0  0  0
M  END
> <rmsd>
0.663910806

$$$$
CHEMBL2206838_6PT0


 27 30  0  0  0  0  0  0  0  0999 V2000
   94.7751  107.2009  121.5580 C   0  0  0  0  0
   94.6744  108.6327  122.0392 C   0  0  0  0  0
   95.8738  109.4175  121.5429 C   0  0  0  0  0
   95.8091  110.8559  122.0331 C   0  0  0  0  0
   96.1193  110.9488  123.5231 C   0  0  0  0  0
   97.9397  109.5357  124.4786 C   0  0  0  0  0
   99.3328  109.5542  124.5459 C   0  0  0  0  0
  100.1693  108.5258  125.1967 C   0  0  0  0  0
  101.5747  108.7803  125.5754 C   0  0  0  0  0
  102.5511  107.8885  125.1185 C   0  0  0  0  0
  103.8961  108.0796  125.4327 C   0  0  0  0  0
  104.2940  109.1633  126.2164 C   0  0  0  0  0
  103.3304  110.0610  126.7083 C   0  0  0  0  0
  103.7087  111.1416  127.5169 C   0  0  0  0  0
  102.7485  112.0192  128.0238 C   0  0  0  0  0
  101.3985  111.8230  127.7314 C   0  0  0  0  0
  101.0060  110.7528  126.9256 C   0  0  0  0  0
  101.9588  109.8672  126.3952 C   0  0  0  0  0
   99.7415  110.6853  123.8575 C   0  0  0  0  0
  101.0127  111.1853  123.5728 C   0  0  0  0  0
  101.0962  112.3756  122.8297 C   0  0  0  0  0
   99.9259  113.0277  122.3866 C   0  0  0  0  0
   98.6577  112.4946  122.6767 C   0  0  0  0  0
   98.6058  111.3115  123.4159 C   0  0  0  0  0
   97.5141  110.6169  123.7857 N   0  0  0  0  0
   99.6758  107.3875  125.4189 O   0  0  0  0  0
  106.3600  109.3702  126.6325 I   0  0  0  0  0
  1  2  1  0  0  0
  2  3  1  0  0  0
  3  4  1  0  0  0
  4  5  1  0  0  0
  5 25  1  0  0  0
  7  8  1  0  0  0
  7 19  1  0  0  0
  8  9  1  0  0  0
 10 11  1  0  0  0
 12 27  1  0  0  0
 12 13  1  0  0  0
 14 15  1  0  0  0
 16 17  1  0  0  0
 18  9  1  0  0  0
 18 13  1  0  0  0
 20 21  1  0  0  0
 22 23  1  0  0  0
 24 25  1  0  0  0
 24 19  1  0  0  0
 25  6  1  0  0  0
  6  7  2  0  0  0
  8 26  2  0  0  0
  9 10  2  0  0  0
 11 12  2  0  0  0
 13 14  2  0  0  0
 15 16  2  0  0  0
 17 18  2  0  0  0
 19 20  2  0  0  0
 21 22  2  0  0  0
 23 24  2  0  0  0
M  END
> <rmsd>
0.712439954

$$$$
CHEMBL4074423_8GUR


 25 26  0  0  0  0  0  0  0  0999 V2000
   99.8434  113.0534  122.3856 C   0  0  0  0  0
  101.1453  112.5851  122.5130 C   0  0  0  0  0
  101.4166  111.3737  123.1542 C   0  0  0  0  0
  100.3470  110.5958  123.7067 C   0  0  0  0  0
   99.0250  111.0823  123.5362 C   0  0  0  0  0
   98.7889  112.3030  122.8894 C   0  0  0  0  0
   97.9503  110.3284  124.0141 C   0  0  0  0  0
   99.4495  108.6756  124.8162 C   0  0  0  0  0
  101.8644  108.8830  124.7068 C   0  0  0  0  0
  102.2064  109.1105  126.1757 C   0  0  0  0  0
  102.4022  110.5863  126.4652 C   0  0  0  0  0
  102.7208  110.7744  127.9328 C   0  0  0  0  0
   97.0397  108.3316  125.0895 C   0  0  0  0  0
   96.6111  107.3813  124.0232 C   0  0  0  0  0
   95.3008  107.0251  121.8466 C   0  0  0  0  0
   96.4878  106.5434  121.0325 C   0  0  0  0  0
   94.5004  105.8341  122.3415 C   0  0  0  0  0
   94.4136  107.8693  120.9565 C   0  0  0  0  0
  102.8527  110.9695  123.1599 C   0  0  0  0  0
   96.7683  110.7531  123.8692 O   0  0  0  0  0
   99.6305  107.5672  125.3989 O   0  0  0  0  0
   97.0352  106.1951  124.0399 O   0  0  0  0  0
   98.1760  109.1340  124.6293 N   0  0  0  0  0
  100.5305  109.4052  124.3858 N   0  0  0  0  0
   95.7523  107.8391  122.9718 N   0  0  0  0  0
  2  3  1  0  0  0
  4  5  1  0  0  0
  5  7  1  0  0  0
  6  1  1  0  0  0
  7 23  1  0  0  0
  8 24  1  0  0  0
  9 24  1  0  0  0
  9 10  1  0  0  0
 10 11  1  0  0  0
 11 12  1  0  0  0
 13 23  1  0  0  0
 13 14  1  0  0  0
 14 25  1  0  0  0
 15 25  1  0  0  0
 15 16  1  0  0  0
 15 17  1  0  0  0
 15 18  1  0  0  0
 19  3  1  0  0  0
 23  8  1  0  0  0
 24  4  1  0  0  0
  1  2  2  0  0  0
  3  4  2  0  0  0
  5  6  2  0  0  0
  7 20  2  0  0  0
  8 21  2  0  0  0
 14 22  2  0  0  0
M  END
> <rmsd>
0.830611408

$$$$
CHEMBL3354529_8GUT


 26 28  0  0  0  0  0  0  0  0999 V2000
   97.3876  110.5412  123.6307 C   0  0  0  0  0
   98.8327  110.0995  123.7623 C   0  0  0  0  0
   99.7195  111.3263  123.8631 C   0  0  0  0  0
   99.2182  109.3265  122.5138 C   0  0  0  0  0
   98.9977  109.2481  124.9905 C   0  0  0  0  0
   98.7400  109.6493  126.2923 C   0  0  0  0  0
   99.0611  108.5082  127.0068 C   0  0  0  0  0
   98.6345  109.3903  129.3566 C   0  0  0  0  0
   98.9534  109.2425  130.8130 C   0  0  0  0  0
   98.1187  108.0763  131.3545 C   0  0  0  0  0
   98.4317  107.8264  132.8214 C   0  0  0  0  0
   99.9245  107.6027  132.9879 C   0  0  0  0  0
  100.6634  108.8193  132.4479 C   0  0  0  0  0
  101.1482  110.2021  130.6563 C   0  0  0  0  0
  101.6816  110.1044  129.2635 C   0  0  0  0  0
  102.4986  109.0319  128.8835 C   0  0  0  0  0
  102.9616  108.9369  127.5675 C   0  0  0  0  0
  102.6146  109.9160  126.6317 C   0  0  0  0  0
  101.8148  110.9965  127.0137 C   0  0  0  0  0
  101.3486  111.0903  128.3280 C   0  0  0  0  0
   99.4781  107.5251  126.1913 N   0  0  0  0  0
   99.0496  108.3762  128.4316 N   0  0  0  0  0
  100.3980  109.0000  131.0190 N   0  0  0  0  0
   99.4229  108.0045  124.9862 O   0  0  0  0  0
   98.0089  110.4100  128.9623 O   0  0  0  0  0
  103.1753  109.7863  124.9793 Cl  0  0  0  0  0
  1  2  1  0  0  0
  2  3  1  0  0  0
  2  4  1  0  0  0
  2  5  1  0  0  0
  5 24  1  0  0  0
  6  7  1  0  0  0
  7 22  1  0  0  0
  9  8  1  0  0  0
  9 10  1  0  0  0
  9 23  1  0  0  0
 10 11  1  0  0  0
 11 12  1  0  0  0
 12 13  1  0  0  0
 13 23  1  0  0  0
 14 23  1  0  0  0
 14 15  1  0  0  0
 16 17  1  0  0  0
 18 19  1  0  0  0
 18 26  1  0  0  0
 20 15  1  0  0  0
 21 24  1  0  0  0
 22  8  1  0  0  0
  5  6  2  0  0  0
  7 21  2  0  0  0
  8 25  2  0  0  0
 15 16  2  0  0  0
 17 18  2  0  0  0
 19 20  2  0  0  0
M  END
> <rmsd>
0.826604426

$$$$
CHEMBL3353836_6PT0


 32 36  0  0  0  0  0  0  0  0999 V2000
   97.3715  109.9642  123.0603 C   0  0  0  0  0
   98.1764  110.4883  122.0437 C   0  0  0  0  0
   99.4201  111.0460  122.3540 C   0  0  0  0  0
   99.8610  111.0817  123.6823 C   0  0  0  0  0
   99.0526  110.5584  124.6978 C   0  0  0  0  0
   97.8095  109.9988  124.3878 C   0  0  0  0  0
  103.3212  109.7676  124.4463 C   0  0  0  0  0
  103.7833  109.6754  123.1332 C   0  0  0  0  0
  104.7636  108.7064  122.8504 C   0  0  0  0  0
  105.2527  107.8541  123.8658 C   0  0  0  0  0
  104.7708  107.9541  125.1834 C   0  0  0  0  0
  103.8080  108.9261  125.4351 C   0  0  0  0  0
  103.1191  109.2634  126.5721 C   0  0  0  0  0
  102.2627  110.2703  126.2417 C   0  0  0  0  0
  101.4133  110.2526  128.4079 C   0  0  0  0  0
   98.9404  109.7193  129.0744 C   0  0  0  0  0
   99.1570  108.3340  129.6005 C   0  0  0  0  0
   99.0279  108.1004  130.9762 C   0  0  0  0  0
   99.2157  106.8175  131.4962 C   0  0  0  0  0
   99.5312  105.7576  130.6428 C   0  0  0  0  0
   99.6562  105.9798  129.2687 C   0  0  0  0  0
   99.4680  107.2612  128.7397 C   0  0  0  0  0
   99.6141  107.4492  127.3184 C   0  0  0  0  0
  101.4212  111.7761  124.0813 S   0  0  0  0  0
  100.2579  110.8482  129.6344 S   0  0  0  0  0
  102.1368  112.1806  122.8227 O   0  0  0  0  0
  101.2299  112.9973  124.9357 O   0  0  0  0  0
  102.3722  110.6047  124.9384 N   0  0  0  0  0
  101.3939  110.7772  127.1464 N   0  0  0  0  0
  102.2886  109.2416  128.7245 N   0  0  0  0  0
  103.1369  108.7403  127.8170 N   0  0  0  0  0
   99.7345  107.5989  126.1768 N   0  0  0  0  0
  2  3  1  0  0  0
  4  5  1  0  0  0
  6  1  1  0  0  0
  8  9  1  0  0  0
 10 11  1  0  0  0
 12 13  1  0  0  0
 12  7  1  0  0  0
 13 31  1  0  0  0
 14 29  1  0  0  0
 14 28  1  0  0  0
 15 30  1  0  0  0
 15 25  1  0  0  0
 16 25  1  0  0  0
 16 17  1  0  0  0
 18 19  1  0  0  0
 20 21  1  0  0  0
 22 23  1  0  0  0
 22 17  1  0  0  0
 24  4  1  0  0  0
 24 28  1  0  0  0
 28  7  1  0  0  0
  1  2  2  0  0  0
  3  4  2  0  0  0
  5  6  2  0  0  0
  7  8  2  0  0  0
  9 10  2  0  0  0
 11 12  2  0  0  0
 13 14  2  0  0  0
 15 29  2  0  0  0
 17 18  2  0  0  0
 19 20  2  0  0  0
 21 22  2  0  0  0
 24 26  2  0  0  0
 24 27  2  0  0  0
 30 31  2  0  0  0
 23 32  3  0  0  0
M  END
> <rmsd>
0.792569578

$$$$
CHEMBL3234681_8GUQ


 25 28  0  0  0  0  0  0  0  0999 V2000
   93.8017  107.1161  124.0930 C   0  0  0  0  0
   95.0665  106.3007  124.2577 C   0  0  0  0  0
   95.4205  105.6775  122.9197 C   0  0  0  0  0
   94.8115  105.2090  125.2809 C   0  0  0  0  0
   97.4881  106.7678  124.9717 C   0  0  0  0  0
   98.4835  107.7534  125.4095 C   0  0  0  0  0
   98.3050  109.1241  125.4864 C   0  0  0  0  0
   99.5490  109.6285  125.7080 C   0  0  0  0  0
  101.8740  108.7186  125.7846 C   0  0  0  0  0
  102.6454  107.6785  125.2437 C   0  0  0  0  0
  104.0404  107.7506  125.2460 C   0  0  0  0  0
  104.6803  108.8627  125.7954 C   0  0  0  0  0
  103.9261  109.8972  126.3528 C   0  0  0  0  0
  102.5293  109.8313  126.3526 C   0  0  0  0  0
   99.6655  110.9034  124.9256 C   0  0  0  0  0
   99.6918  110.5136  123.4410 C   0  0  0  0  0
   98.2800  109.9419  123.1885 C   0  0  0  0  0
   97.5907  110.0572  124.5563 C   0  0  0  0  0
   98.2201  111.3552  125.0266 C   0  0  0  0  0
   96.1404  107.1814  124.7091 N   0  0  0  0  0
  100.4392  108.6150  125.7687 N   0  0  0  0  0
   99.7916  107.4683  125.5962 N   0  0  0  0  0
   97.8250  105.5611  124.8320 O   0  0  0  0  0
  101.8301  110.8321  126.9419 F   0  0  0  0  0
  106.0329  108.9335  125.7975 F   0  0  0  0  0
  1  2  1  0  0  0
  2  3  1  0  0  0
  2  4  1  0  0  0
  2 20  1  0  0  0
  5  6  1  0  0  0
  6  7  1  0  0  0
  8 21  1  0  0  0
 10 11  1  0  0  0
 12 13  1  0  0  0
 12 25  1  0  0  0
 14 24  1  0  0  0
 14  9  1  0  0  0
 15  8  1  0  0  0
 15 16  1  0  0  0
 16 17  1  0  0  0
 18 17  1  0  0  0
 18 19  1  0  0  0
 18  7  1  0  0  0
 19 15  1  0  0  0
 20  5  1  0  0  0
 21 22  1  0  0  0
 21  9  1  0  0  0
  5 23  2  0  0  0
  6 22  2  0  0  0
  7  8  2  0  0  0
  9 10  2  0  0  0
 11 12  2  0  0  0
 13 14  2  0  0  0
M  END
> <rmsd>
0.674363375

$$$$
CHEMBL3354964_8GUQ


 25 29  0  0  0  0  0  0  0  0999 V2000
   95.2122  104.9206  123.6789 C   0  0  0  0  0
   95.3569  104.2160  125.0261 C   0  0  0  0  0
   95.0578  105.6969  124.9657 C   0  0  0  0  0
   93.6416  106.1426  125.2778 C   0  0  0  0  0
   97.5394  106.3540  125.4001 C   0  0  0  0  0
   98.4864  107.4507  125.6388 C   0  0  0  0  0
   99.4134  109.4114  125.6672 C   0  0  0  0  0
   98.2142  108.8051  125.5920 C   0  0  0  0  0
   97.2627  109.5623  124.7536 C   0  0  0  0  0
   98.0378  110.8527  124.3962 C   0  0  0  0  0
   99.4651  110.7158  124.9580 C   0  0  0  0  0
   99.2045  110.5485  123.4697 C   0  0  0  0  0
  101.8062  108.6899  125.7143 C   0  0  0  0  0
  102.4059  109.8519  126.2416 C   0  0  0  0  0
  103.7922  110.0201  126.1679 C   0  0  0  0  0
  104.5902  109.0385  125.5766 C   0  0  0  0  0
  104.0060  107.8765  125.0695 C   0  0  0  0  0
  102.6218  107.7024  125.1416 C   0  0  0  0  0
   93.3283  107.2867  124.5434 O   0  0  0  0  0
   97.9638  105.1683  125.3643 O   0  0  0  0  0
   96.1460  106.6448  125.2159 N   0  0  0  0  0
   99.8214  107.2784  125.7662 N   0  0  0  0  0
  100.3850  108.4810  125.7777 N   0  0  0  0  0
  105.9322  109.2080  125.5068 F   0  0  0  0  0
  101.6662  110.7996  126.8679 F   0  0  0  0  0
  1  2  1  0  0  0
  2  3  1  0  0  0
  3  4  1  0  0  0
  3 21  1  0  0  0
  3  1  1  0  0  0
  4 19  1  0  0  0
  5  6  1  0  0  0
  8  6  1  0  0  0
  9  8  1  0  0  0
 10  9  1  0  0  0
 10 11  1  0  0  0
 11 12  1  0  0  0
 11  7  1  0  0  0
 12 10  1  0  0  0
 14 15  1  0  0  0
 14 25  1  0  0  0
 16 17  1  0  0  0
 16 24  1  0  0  0
 18 13  1  0  0  0
 21  5  1  0  0  0
 23 22  1  0  0  0
 23  7  1  0  0  0
 23 13  1  0  0  0
  5 20  2  0  0  0
  6 22  2  0  0  0
  7  8  2  0  0  0
 13 14  2  0  0  0
 15 16  2  0  0  0
 17 18  2  0  0  0
M  END
> <rmsd>
0.533652723

$$$$
CHEMBL2206835_6PT0


 28 31  0  0  0  0  0  0  0  0999 V2000
   95.6811  112.9892  124.2368 C   0  0  0  0  0
   95.7820  112.2121  122.9416 C   0  0  0  0  0
   95.4084  110.7633  123.1920 C   0  0  0  0  0
   95.5409  109.9501  121.9134 C   0  0  0  0  0
   97.0041  109.7206  121.5513 C   0  0  0  0  0
   98.6339  109.1956  123.3918 C   0  0  0  0  0
   99.1492  110.5903  123.5353 C   0  0  0  0  0
   99.0080  108.0977  124.1748 C   0  0  0  0  0
  100.0046  108.0481  125.2678 C   0  0  0  0  0
  101.2098  108.9107  125.2650 C   0  0  0  0  0
  101.8939  109.0974  124.0565 C   0  0  0  0  0
  103.0503  109.8735  123.9987 C   0  0  0  0  0
  103.5548  110.4783  125.1494 C   0  0  0  0  0
  102.8929  110.3057  126.3774 C   0  0  0  0  0
  103.3834  110.9119  127.5427 C   0  0  0  0  0
  102.7206  110.7495  128.7603 C   0  0  0  0  0
  101.5583  109.9807  128.8259 C   0  0  0  0  0
  101.0577  109.3700  127.6747 C   0  0  0  0  0
  101.7140  109.5152  126.4412 C   0  0  0  0  0
   98.1995  107.0572  123.7498 C   0  0  0  0  0
   98.1272  105.7289  124.1695 C   0  0  0  0  0
   97.1977  104.8908  123.5290 C   0  0  0  0  0
   96.3740  105.3889  122.4971 C   0  0  0  0  0
   96.4684  106.7319  122.0923 C   0  0  0  0  0
   97.3985  107.5425  122.7453 C   0  0  0  0  0
   97.6513  108.8470  122.5265 N   0  0  0  0  0
   99.8389  107.2219  126.2055 O   0  0  0  0  0
  105.1476  111.5315  124.9898 Br  0  0  0  0  0
  1  2  1  0  0  0
  2  3  1  0  0  0
  3  4  1  0  0  0
  4  5  1  0  0  0
  5 26  1  0  0  0
  7  6  1  0  0  0
  8  9  1  0  0  0
  8 20  1  0  0  0
  9 10  1  0  0  0
 11 12  1  0  0  0
 13 28  1  0  0  0
 13 14  1  0  0  0
 15 16  1  0  0  0
 17 18  1  0  0  0
 19 10  1  0  0  0
 19 14  1  0  0  0
 21 22  1  0  0  0
 23 24  1  0  0  0
 25 26  1  0  0  0
 25 20  1  0  0  0
 26  6  1  0  0  0
  6  8  2  0  0  0
  9 27  2  0  0  0
 10 11  2  0  0  0
 12 13  2  0  0  0
 14 15  2  0  0  0
 16 17  2  0  0  0
 18 19  2  0  0  0
 20 21  2  0  0  0
 22 23  2  0  0  0
 24 25  2  0  0  0
M  END
> <rmsd>
0.515089571

$$$$
CHEMBL3966730_8GUQ


 29 31  0  0  0  0  0  0  0  0999 V2000
  102.0209  111.1277  127.8589 C   0  0  0  0  0
  101.3473  109.8078  127.5286 C   0  0  0  0  0
  101.6538  110.0240  126.0598 C   0  0  0  0  0
  102.3214  111.3487  126.3876 C   0  0  0  0  0
  100.4101  110.1127  125.2049 C   0  0  0  0  0
  100.0592  111.3132  124.5695 C   0  0  0  0  0
   98.1356  110.3128  123.5979 C   0  0  0  0  0
   98.4499  109.0931  124.2048 C   0  0  0  0  0
   99.5911  108.9843  125.0119 C   0  0  0  0  0
   99.1198  106.5986  125.5377 C   0  0  0  0  0
   97.9260  106.7111  126.4697 C   0  0  0  0  0
   96.9400  110.4407  122.7516 C   0  0  0  0  0
   95.4931  112.0021  121.2798 C   0  0  0  0  0
   95.3852  111.0482  120.0902 C   0  0  0  0  0
   94.1506  111.6035  121.8999 C   0  0  0  0  0
   95.5114  113.4544  120.8033 C   0  0  0  0  0
   95.5453  114.4339  121.9332 C   0  0  0  0  0
   98.9463  111.3871  123.7937 N   0  0  0  0  0
   96.6411  111.7022  122.1387 N   0  0  0  0  0
   96.6830  115.2691  122.1084 N   0  0  0  0  0
   99.9276  107.7684  125.6229 O   0  0  0  0  0
   96.1866  109.4464  122.5701 O   0  0  0  0  0
   92.6612  110.9284  119.6810 O   0  0  0  0  0
   93.7104  109.0374  120.9767 O   0  0  0  0  0
   94.5662  114.5371  122.7177 O   0  0  0  0  0
   97.1091  105.6095  126.3045 F   0  0  0  0  0
   98.3602  106.7680  127.7809 F   0  0  0  0  0
  102.5668  109.1002  125.5825 F   0  0  0  0  0
   93.7801  110.4847  120.5800 S   0  0  0  0  0
  1  2  1  0  0  0
  2  3  1  0  0  0
  3  4  1  0  0  0
  3  5  1  0  0  0
  3 28  1  0  0  0
  4  1  1  0  0  0
  6 18  1  0  0  0
  7  8  1  0  0  0
  7 12  1  0  0  0
  9 21  1  0  0  0
  9  5  1  0  0  0
 10 21  1  0  0  0
 10 11  1  0  0  0
 11 26  1  0  0  0
 11 27  1  0  0  0
 12 19  1  0  0  0
 13 19  1  0  0  0
 13 14  1  0  0  0
 13 16  1  0  0  0
 14 29  1  0  0  0
 15 13  1  0  0  0
 16 17  1  0  0  0
 17 20  1  0  0  0
 29 15  1  0  0  0
  5  6  2  0  0  0
  7 18  2  0  0  0
  8  9  2  0  0  0
 12 22  2  0  0  0
 17 25  2  0  0  0
 29 23  2  0  0  0
 29 24  2  0  0  0
M  END
> <rmsd>
0.613855183

$$$$
CHEMBL564901_6PT0


 30 33  0  0  0  0  0  0  0  0999 V2000
   93.9122  108.8071  121.0101 C   0  0  0  0  0
   93.7554  110.0378  121.8823 C   0  0  0  0  0
   94.9012  110.1460  122.8763 C   0  0  0  0  0
   96.1352  110.7599  122.2291 C   0  0  0  0  0
   96.9872  109.6995  121.5432 C   0  0  0  0  0
   98.6259  109.1979  123.3986 C   0  0  0  0  0
   99.1500  110.5901  123.5370 C   0  0  0  0  0
   99.0052  108.0985  124.1771 C   0  0  0  0  0
  100.0035  108.0478  125.2685 C   0  0  0  0  0
  101.2090  108.9099  125.2647 C   0  0  0  0  0
  101.8918  109.0953  124.0557 C   0  0  0  0  0
  103.0482  109.8704  123.9957 C   0  0  0  0  0
  103.5580  110.4744  125.1460 C   0  0  0  0  0
  104.7912  111.3124  125.0225 C   0  0  0  0  0
  104.4178  112.7494  124.7113 C   0  0  0  0  0
  105.6757  113.5837  124.5987 C   0  0  0  0  0
  102.8931  110.3056  126.3766 C   0  0  0  0  0
  103.3815  110.9121  127.5449 C   0  0  0  0  0
  102.7163  110.7508  128.7611 C   0  0  0  0  0
  101.5538  109.9828  128.8247 C   0  0  0  0  0
  101.0552  109.3718  127.6728 C   0  0  0  0  0
  101.7134  109.5155  126.4401 C   0  0  0  0  0
   98.2041  107.0553  123.7456 C   0  0  0  0  0
   98.1383  105.7249  124.1596 C   0  0  0  0  0
   97.2150  104.8843  123.5135 C   0  0  0  0  0
   96.3908  105.3822  122.4819 C   0  0  0  0  0
   96.4790  106.7272  122.0828 C   0  0  0  0  0
   97.4039  107.5399  122.7402 C   0  0  0  0  0
   97.6466  108.8461  122.5282 N   0  0  0  0  0
   99.8391  107.2206  126.2056 O   0  0  0  0  0
  1  2  1  0  0  0
  2  3  1  0  0  0
  3  4  1  0  0  0
  4  5  1  0  0  0
  5 29  1  0  0  0
  7  6  1  0  0  0
  8  9  1  0  0  0
  8 23  1  0  0  0
  9 10  1  0  0  0
 11 12  1  0  0  0
 13 17  1  0  0  0
 14 13  1  0  0  0
 14 15  1  0  0  0
 15 16  1  0  0  0
 18 19  1  0  0  0
 20 21  1  0  0  0
 22 10  1  0  0  0
 22 17  1  0  0  0
 24 25  1  0  0  0
 26 27  1  0  0  0
 28 29  1  0  0  0
 28 23  1  0  0  0
 29  6  1  0  0  0
  6  8  2  0  0  0
  9 30  2  0  0  0
 10 11  2  0  0  0
 12 13  2  0  0  0
 17 18  2  0  0  0
 19 20  2  0  0  0
 21 22  2  0  0  0
 23 24  2  0  0  0
 25 26  2  0  0  0
 27 28  2  0  0  0
M  END
> <rmsd>
0.513485789

$$$$
CHEMBL3354965_8GUQ


 26 30  0  0  0  0  0  0  0  0999 V2000
  100.3848  108.4808  125.7782 N   0  0  0  0  0
   99.8213  107.2784  125.7655 N   0  0  0  0  0
   98.0163  105.0063  125.3566 N   0  0  0  0  0
   98.4867  107.4508  125.6380 C   0  0  0  0  0
   98.2142  108.8051  125.5919 C   0  0  0  0  0
   99.4134  109.4115  125.6678 C   0  0  0  0  0
   99.4651  110.7155  124.9580 C   0  0  0  0  0
   98.0382  110.8516  124.3949 C   0  0  0  0  0
   97.2630  109.5613  124.7526 C   0  0  0  0  0
   99.2056  110.5472  123.4696 C   0  0  0  0  0
   97.5411  106.3544  125.3943 C   0  0  0  0  0
   97.1444  103.8723  125.0909 C   0  0  0  0  0
   97.8393  102.5748  125.5115 C   0  0  0  0  0
   97.1751  101.3426  124.8773 C   0  0  0  0  0
   96.1965  102.4689  123.1968 C   0  0  0  0  0
   96.7366  103.8461  123.6126 C   0  0  0  0  0
  101.8060  108.6896  125.7145 C   0  0  0  0  0
  102.6216  107.7019  125.1416 C   0  0  0  0  0
  104.0056  107.8759  125.0694 C   0  0  0  0  0
  104.5901  109.0378  125.5762 C   0  0  0  0  0
  103.7922  110.0196  126.1675 C   0  0  0  0  0
  102.4060  109.8516  126.2416 C   0  0  0  0  0
   96.3159  106.6016  125.2278 O   0  0  0  0  0
   95.9249  101.6642  124.3182 O   0  0  0  0  0
  101.6665  110.7994  126.8680 F   0  0  0  0  0
  105.9320  109.2073  125.5059 F   0  0  0  0  0
  1  2  1  0  0  0
  1 17  1  0  0  0
  4  5  1  0  0  0
  4 11  1  0  0  0
  6  1  1  0  0  0
  7  6  1  0  0  0
  7  8  1  0  0  0
  8  9  1  0  0  0
  8 10  1  0  0  0
  9  5  1  0  0  0
 10  7  1  0  0  0
 11  3  1  0  0  0
 12  3  1  0  0  0
 12 13  1  0  0  0
 13 14  1  0  0  0
 14 24  1  0  0  0
 15 24  1  0  0  0
 15 16  1  0  0  0
 16 12  1  0  0  0
 18 19  1  0  0  0
 20 21  1  0  0  0
 20 26  1  0  0  0
 22 25  1  0  0  0
 22 17  1  0  0  0
  4  2  2  0  0  0
  5  6  2  0  0  0
 11 23  2  0  0  0
 17 18  2  0  0  0
 19 20  2  0  0  0
 21 22  2  0  0  0
M  END
> <rmsd>
0.53368777

$$$$
CHEMBL3354947_8GUQ


 29 33  0  0  0  0  0  0  0  0999 V2000
   94.7186  105.4343  125.1519 C   0  0  0  0  0
   95.7473  105.0182  124.1097 C   0  0  0  0  0
   96.2199  103.6053  124.4442 C   0  0  0  0  0
   97.7211  106.1780  125.2901 C   0  0  0  0  0
   98.8292  107.1360  125.1949 C   0  0  0  0  0
  100.0750  108.7973  124.5686 C   0  0  0  0  0
   99.1216  107.9582  124.1231 C   0  0  0  0  0
   98.2281  108.6062  123.1415 C   0  0  0  0  0
   98.8624  110.0023  122.9367 C   0  0  0  0  0
  100.0419  110.1325  123.9183 C   0  0  0  0  0
   98.7300  110.8503  124.1918 C   0  0  0  0  0
  101.2134  109.2489  126.7476 C   0  0  0  0  0
  100.9012  109.2783  128.1152 C   0  0  0  0  0
  101.6965  109.9962  129.0114 C   0  0  0  0  0
  102.8181  110.6875  128.5497 C   0  0  0  0  0
  103.1520  110.6497  127.1942 C   0  0  0  0  0
  102.3588  109.9339  126.2922 C   0  0  0  0  0
   95.1093  105.0935  122.7362 C   0  0  0  0  0
   94.9114  103.9505  121.9433 C   0  0  0  0  0
   94.3188  104.0708  120.6848 C   0  0  0  0  0
   94.1090  106.4164  120.9683 C   0  0  0  0  0
   94.6979  106.3377  122.2318 C   0  0  0  0  0
   96.8897  105.9319  124.1479 N   0  0  0  0  0
   99.6211  107.4779  126.2359 N   0  0  0  0  0
  100.3782  108.4984  125.8495 N   0  0  0  0  0
   93.9331  105.2910  120.2265 N   0  0  0  0  0
   97.5101  105.5748  126.3767 O   0  0  0  0  0
  102.7399  109.8750  124.9926 F   0  0  0  0  0
  103.5894  111.3841  129.4181 F   0  0  0  0  0
  1  2  1  0  0  0
  2  3  1  0  0  0
  2 23  1  0  0  0
  2 18  1  0  0  0
  4  5  1  0  0  0
  7  5  1  0  0  0
  8  7  1  0  0  0
  9  8  1  0  0  0
  9 10  1  0  0  0
 10 11  1  0  0  0
 10  6  1  0  0  0
 11  9  1  0  0  0
 13 14  1  0  0  0
 15 16  1  0  0  0
 15 29  1  0  0  0
 17 28  1  0  0  0
 17 12  1  0  0  0
 19 20  1  0  0  0
 21 26  1  0  0  0
 22 18  1  0  0  0
 23  4  1  0  0  0
 25 24  1  0  0  0
 25  6  1  0  0  0
 25 12  1  0  0  0
  4 27  2  0  0  0
  5 24  2  0  0  0
  6  7  2  0  0  0
 12 13  2  0  0  0
 14 15  2  0  0  0
 16 17  2  0  0  0
 18 19  2  0  0  0
 20 26  2  0  0  0
 21 22  2  0  0  0
M  END
> <rmsd>
0.655251145

$$$$
CHEMBL3354955_8GUQ


 27 31  0  0  0  0  0  0  0  0999 V2000
   93.4684  105.4455  124.5784 C   0  0  0  0  0
   93.7764  105.9412  123.1871 C   0  0  0  0  0
   95.0327  105.2064  122.7801 C   0  0  0  0  0
   95.8081  104.9480  124.0588 C   0  0  0  0  0
   94.8111  105.1251  125.2026 C   0  0  0  0  0
   96.3552  103.5222  123.9987 C   0  0  0  0  0
   97.7226  106.1747  125.2897 C   0  0  0  0  0
   98.8285  107.1357  125.1946 C   0  0  0  0  0
  100.0741  108.7971  124.5684 C   0  0  0  0  0
   99.1208  107.9579  124.1227 C   0  0  0  0  0
   98.2273  108.6063  123.1416 C   0  0  0  0  0
   98.8616  110.0024  122.9367 C   0  0  0  0  0
  100.0412  110.1324  123.9180 C   0  0  0  0  0
   98.7295  110.8502  124.1920 C   0  0  0  0  0
  101.2125  109.2490  126.7472 C   0  0  0  0  0
  102.3582  109.9333  126.2919 C   0  0  0  0  0
  103.1513  110.6493  127.1939 C   0  0  0  0  0
  102.8172  110.6876  128.5492 C   0  0  0  0  0
  101.6954  109.9969  129.0109 C   0  0  0  0  0
  100.9000  109.2788  128.1148 C   0  0  0  0  0
   96.9379  103.1407  125.2085 O   0  0  0  0  0
   97.5072  105.5828  126.3812 O   0  0  0  0  0
   96.8910  105.9284  124.1476 N   0  0  0  0  0
   99.6204  107.4777  126.2355 N   0  0  0  0  0
  100.3774  108.4984  125.8492 N   0  0  0  0  0
  103.5886  111.3843  129.4176 F   0  0  0  0  0
  102.7395  109.8740  124.9924 F   0  0  0  0  0
  1  2  1  0  0  0
  2  3  1  0  0  0
  3  4  1  0  0  0
  4  5  1  0  0  0
  4  6  1  0  0  0
  4 23  1  0  0  0
  5  1  1  0  0  0
  6 21  1  0  0  0
  7  8  1  0  0  0
 10  8  1  0  0  0
 11 10  1  0  0  0
 12 11  1  0  0  0
 12 13  1  0  0  0
 13 14  1  0  0  0
 13  9  1  0  0  0
 14 12  1  0  0  0
 16 17  1  0  0  0
 16 27  1  0  0  0
 18 19  1  0  0  0
 18 26  1  0  0  0
 20 15  1  0  0  0
 23  7  1  0  0  0
 25 24  1  0  0  0
 25  9  1  0  0  0
 25 15  1  0  0  0
  7 22  2  0  0  0
  8 24  2  0  0  0
  9 10  2  0  0  0
 15 16  2  0  0  0
 17 18  2  0  0  0
 19 20  2  0  0  0
M  END
> <rmsd>
0.655204117

$$$$
CHEMBL2206836_6PT0


 25 28  0  0  0  0  0  0  0  0999 V2000
   98.1133  114.0752  124.8110 C   0  0  0  0  0
   99.1934  113.7835  123.7870 C   0  0  0  0  0
   98.7369  112.6902  122.8327 C   0  0  0  0  0
   99.7500  110.7289  124.0168 C   0  0  0  0  0
   99.3069  109.5294  124.5773 C   0  0  0  0  0
  100.1484  108.5007  125.2219 C   0  0  0  0  0
  101.5550  108.7700  125.5906 C   0  0  0  0  0
  102.5321  107.8723  125.1459 C   0  0  0  0  0
  103.8784  108.0729  125.4474 C   0  0  0  0  0
  104.2783  109.1730  126.2062 C   0  0  0  0  0
  103.3156  110.0776  126.6866 C   0  0  0  0  0
  103.6965  111.1722  127.4751 C   0  0  0  0  0
  102.7377  112.0545  127.9758 C   0  0  0  0  0
  101.3861  111.8487  127.6982 C   0  0  0  0  0
  100.9911  110.7648  126.9123 C   0  0  0  0  0
  101.9421  109.8751  126.3854 C   0  0  0  0  0
   97.9392  109.4879  124.3732 C   0  0  0  0  0
   96.9868  108.5289  124.7173 C   0  0  0  0  0
   95.6485  108.7851  124.3690 C   0  0  0  0  0
   95.2972  109.9754  123.6964 C   0  0  0  0  0
   96.2794  110.9252  123.3635 C   0  0  0  0  0
   97.5986  110.6436  123.7215 C   0  0  0  0  0
   98.6893  111.4000  123.5090 N   0  0  0  0  0
   99.6748  107.3500  125.4233 O   0  0  0  0  0
  106.3464  109.3919  126.6065 I   0  0  0  0  0
  1  2  1  0  0  0
  2  3  1  0  0  0
  3 23  1  0  0  0
  5  6  1  0  0  0
  5 17  1  0  0  0
  6  7  1  0  0  0
  8  9  1  0  0  0
 10 25  1  0  0  0
 10 11  1  0  0  0
 12 13  1  0  0  0
 14 15  1  0  0  0
 16  7  1  0  0  0
 16 11  1  0  0  0
 18 19  1  0  0  0
 20 21  1  0  0  0
 22 23  1  0  0  0
 22 17  1  0  0  0
 23  4  1  0  0  0
  4  5  2  0  0  0
  6 24  2  0  0  0
  7  8  2  0  0  0
  9 10  2  0  0  0
 11 12  2  0  0  0
 13 14  2  0  0  0
 15 16  2  0  0  0
 17 18  2  0  0  0
 19 20  2  0  0  0
 21 22  2  0  0  0
M  END
> <rmsd>
0.697518528

$$$$
CHEMBL2206847_6PT0


 28 31  0  0  0  0  0  0  0  0999 V2000
   95.5475  106.3822  125.4465 C   0  0  0  0  0
   94.6460  107.2604  124.8087 C   0  0  0  0  0
   95.0941  108.4817  124.2761 C   0  0  0  0  0
   96.4507  108.7854  124.4027 C   0  0  0  0  0
   97.3292  107.9300  125.0208 C   0  0  0  0  0
   96.9091  106.7131  125.5589 C   0  0  0  0  0
   98.5845  108.5179  124.9774 C   0  0  0  0  0
   98.3906  109.7370  124.3127 C   0  0  0  0  0
   96.5011  111.0028  123.2394 C   0  0  0  0  0
   96.5696  110.7321  121.7462 C   0  0  0  0  0
   96.0426  111.9237  120.9629 C   0  0  0  0  0
   97.1287  112.9681  120.7538 C   0  0  0  0  0
   97.2641  113.8560  121.9763 C   0  0  0  0  0
   99.4421  110.7487  123.9942 C   0  0  0  0  0
   99.8385  107.9539  125.5344 C   0  0  0  0  0
  101.1097  108.6847  125.4687 C   0  0  0  0  0
  101.9348  108.3608  124.3848 C   0  0  0  0  0
  103.1400  109.0218  124.1738 C   0  0  0  0  0
  103.5389  110.0279  125.0451 C   0  0  0  0  0
  102.7445  110.3712  126.1391 C   0  0  0  0  0
  101.5127  109.6964  126.3937 C   0  0  0  0  0
  100.7748  110.0811  127.5558 C   0  0  0  0  0
  101.2529  111.1076  128.3762 C   0  0  0  0  0
  102.4463  111.7628  128.0913 C   0  0  0  0  0
  103.1911  111.3912  126.9789 C   0  0  0  0  0
   97.0876  109.8890  123.9739 N   0  0  0  0  0
   99.8339  106.8014  126.0442 O   0  0  0  0  0
   99.1523  109.2789  128.1929 Br  0  0  0  0  0
  2  3  1  0  0  0
  4  5  1  0  0  0
  5  7  1  0  0  0
  6  1  1  0  0  0
  7 15  1  0  0  0
  8 26  1  0  0  0
  9 26  1  0  0  0
  9 10  1  0  0  0
 10 11  1  0  0  0
 11 12  1  0  0  0
 12 13  1  0  0  0
 14  8  1  0  0  0
 15 16  1  0  0  0
 17 18  1  0  0  0
 19 20  1  0  0  0
 21 22  1  0  0  0
 21 16  1  0  0  0
 22 28  1  0  0  0
 23 24  1  0  0  0
 25 20  1  0  0  0
 26  4  1  0  0  0
  1  2  2  0  0  0
  3  4  2  0  0  0
  5  6  2  0  0  0
  7  8  2  0  0  0
 15 27  2  0  0  0
 16 17  2  0  0  0
 18 19  2  0  0  0
 20 21  2  0  0  0
 22 23  2  0  0  0
 24 25  2  0  0  0
M  END
> <rmsd>
0.251585186

$$$$
CHEMBL562150_8GUQ


 27 30  0  0  0  0  0  0  0  0999 V2000
   99.5471  104.5705  123.8181 C   0  0  0  0  0
   99.6355  103.3059  123.2798 C   0  0  0  0  0
   98.5525  105.1769  123.0788 C   0  0  0  0  0
   98.0570  106.5732  123.2218 C   0  0  0  0  0
  100.5681  102.2213  123.6912 C   0  0  0  0  0
  102.0209  106.4356  123.2381 C   0  0  0  0  0
  101.4183  107.8445  123.3959 C   0  0  0  0  0
  101.9498  108.4912  124.6304 C   0  0  0  0  0
  102.5948  107.8127  125.6180 C   0  0  0  0  0
  102.9063  106.3520  125.5409 C   0  0  0  0  0
  102.3520  109.8267  126.2554 C   0  0  0  0  0
  101.0342  110.7982  124.3191 C   0  0  0  0  0
   99.5482  110.6573  124.5930 C   0  0  0  0  0
   98.7995  111.7060  123.7982 C   0  0  0  0  0
   98.8404  110.2747  123.3097 C   0  0  0  0  0
  102.3812  111.0657  127.1216 C   0  0  0  0  0
  102.9753  112.2306  126.3521 C   0  0  0  0  0
  103.2252  110.8467  128.3661 C   0  0  0  0  0
  100.9738  111.4220  127.5595 C   0  0  0  0  0
   98.7524  103.1990  122.3142 O   0  0  0  0  0
   99.8359  106.4716  125.6733 O   0  0  0  0  0
  100.6657  104.2409  126.2070 O   0  0  0  0  0
   98.0823  104.3068  122.1643 N   0  0  0  0  0
  102.1064  105.6734  124.5023 N   0  0  0  0  0
  102.8663  108.6327  126.6507 N   0  0  0  0  0
  101.7748  109.7604  125.0269 N   0  0  0  0  0
  100.5255  105.2594  125.1108 S   0  0  0  0  0
  2 20  1  0  0  0
  3  1  1  0  0  0
  4  3  1  0  0  0
  5  2  1  0  0  0
  6 24  1  0  0  0
  6  7  1  0  0  0
  7  8  1  0  0  0
  9 25  1  0  0  0
 10  9  1  0  0  0
 10 24  1  0  0  0
 11 26  1  0  0  0
 12 26  1  0  0  0
 12 13  1  0  0  0
 13 14  1  0  0  0
 14 15  1  0  0  0
 15 13  1  0  0  0
 16 11  1  0  0  0
 16 17  1  0  0  0
 16 18  1  0  0  0
 16 19  1  0  0  0
 20 23  1  0  0  0
 26  8  1  0  0  0
 27  1  1  0  0  0
 27 24  1  0  0  0
  1  2  2  0  0  0
  3 23  2  0  0  0
  8  9  2  0  0  0
 11 25  2  0  0  0
 27 21  2  0  0  0
 27 22  2  0  0  0
M  END
> <rmsd>
0.660157979

$$$$
CHEMBL2204894_6PT0


 28 30  0  0  0  0  0  0  0  0999 V2000
   99.4410  111.3845  123.8066 C   0  0  0  0  0
  100.0923  110.7888  121.7827 C   0  0  0  0  0
  101.0061  109.7071  121.2364 C   0  0  0  0  0
  100.5542  107.2434  121.5828 C   0  0  0  0  0
  100.3867  106.0986  122.5134 C   0  0  0  0  0
  100.4179  106.2173  123.9095 C   0  0  0  0  0
  100.5309  107.6456  126.0331 C   0  0  0  0  0
  100.8915  108.9491  126.6317 C   0  0  0  0  0
  100.1907  109.3687  127.7733 C   0  0  0  0  0
  100.4664  110.5994  128.3718 C   0  0  0  0  0
  101.4536  111.4273  127.8384 C   0  0  0  0  0
  102.1708  111.0199  126.7129 C   0  0  0  0  0
  101.9028  109.7890  126.1044 C   0  0  0  0  0
   99.9945  103.8807  123.1660 C   0  0  0  0  0
  100.1628  104.7645  122.1046 C   0  0  0  0  0
  100.0166  104.3032  120.6809 C   0  0  0  0  0
  100.2255  102.7892  120.5555 C   0  0  0  0  0
   99.4055  102.0193  121.5982 C   0  0  0  0  0
   99.8415  102.3980  123.0180 C   0  0  0  0  0
  100.5767  111.2448  123.0095 O   0  0  0  0  0
  100.3680  107.0900  120.3452 O   0  0  0  0  0
  100.0534  106.7396  126.7685 O   0  0  0  0  0
  100.9277  108.5285  122.0836 N   0  0  0  0  0
  100.6483  107.4417  124.6198 N   0  0  0  0  0
  102.9216  109.3287  124.7472 Cl  0  0  0  0  0
  100.1725  104.7037  124.6149 S   0  0  0  0  0
   99.6063  100.6647  121.4164 F   0  0  0  0  0
   98.0590  102.2966  121.4356 F   0  0  0  0  0
  1 20  1  0  0  0
  2 20  1  0  0  0
  2  3  1  0  0  0
  3 23  1  0  0  0
  4  5  1  0  0  0
  6 24  1  0  0  0
  6 26  1  0  0  0
  7  8  1  0  0  0
  9 10  1  0  0  0
 11 12  1  0  0  0
 13 25  1  0  0  0
 13  8  1  0  0  0
 14 26  1  0  0  0
 15  5  1  0  0  0
 16 15  1  0  0  0
 16 17  1  0  0  0
 17 18  1  0  0  0
 18 27  1  0  0  0
 18 28  1  0  0  0
 18 19  1  0  0  0
 19 14  1  0  0  0
 23  4  1  0  0  0
 24  7  1  0  0  0
  4 21  2  0  0  0
  5  6  2  0  0  0
  7 22  2  0  0  0
  8  9  2  0  0  0
 10 11  2  0  0  0
 12 13  2  0  0  0
 14 15  2  0  0  0
M  END
> <rmsd>
0.716305256

$$$$
CHEMBL3941942_6KPF


 30 33  0  0  0  0  0  0  0  0999 V2000
  102.5316  113.3306  128.6579 C   0  0  0  0  0
  102.1731  112.0332  128.0271 C   0  0  0  0  0
  101.8093  110.5179  126.6425 C   0  0  0  0  0
  101.7292  109.7262  125.3642 C   0  0  0  0  0
  103.1449  109.3617  124.9486 C   0  0  0  0  0
  101.0940  110.5688  124.2506 C   0  0  0  0  0
   99.6491  110.9423  124.5525 C   0  0  0  0  0
   98.7464  110.3191  123.5076 C   0  0  0  0  0
   99.1108  111.7844  123.4150 C   0  0  0  0  0
  100.6917  107.4995  124.5960 C   0  0  0  0  0
   99.8755  106.3281  124.9474 C   0  0  0  0  0
   98.6190  105.1357  126.5719 C   0  0  0  0  0
   98.3160  104.1192  125.6606 C   0  0  0  0  0
   98.8240  104.2262  124.3394 C   0  0  0  0  0
   99.6025  105.3416  123.9975 C   0  0  0  0  0
   99.1222  103.2347  122.0757 C   0  0  0  0  0
  100.4276  102.4535  122.0636 C   0  0  0  0  0
   97.4650  102.9902  126.2035 C   0  0  0  0  0
   96.5467  102.3748  125.1653 C   0  0  0  0  0
   97.8049  101.6422  125.5975 C   0  0  0  0  0
  102.2274  111.8018  126.7028 N   0  0  0  0  0
  101.5391  110.0073  127.8619 N   0  0  0  0  0
  100.9540  108.5027  125.5868 N   0  0  0  0  0
   99.3784  106.2008  126.2056 N   0  0  0  0  0
  101.7713  110.9790  128.6903 O   0  0  0  0  0
  101.1541  107.6217  123.4286 O   0  0  0  0  0
   98.5503  103.2416  123.3805 O   0  0  0  0  0
  100.2004  101.1574  122.4875 F   0  0  0  0  0
  100.9278  102.4286  120.7762 F   0  0  0  0  0
  101.3522  103.0546  122.8970 F   0  0  0  0  0
  1  2  1  0  0  0
  2 25  1  0  0  0
  3 21  1  0  0  0
  4  3  1  0  0  0
  4  5  1  0  0  0
  4  6  1  0  0  0
  4 23  1  0  0  0
  6  7  1  0  0  0
  7  8  1  0  0  0
  8  9  1  0  0  0
  9  7  1  0  0  0
 10 11  1  0  0  0
 12 24  1  0  0  0
 13 14  1  0  0  0
 14 27  1  0  0  0
 15 11  1  0  0  0
 16 27  1  0  0  0
 16 17  1  0  0  0
 17 28  1  0  0  0
 17 29  1  0  0  0
 17 30  1  0  0  0
 18 13  1  0  0  0
 18 19  1  0  0  0
 19 20  1  0  0  0
 20 18  1  0  0  0
 22 25  1  0  0  0
 23 10  1  0  0  0
  2 21  2  0  0  0
  3 22  2  0  0  0
 10 26  2  0  0  0
 11 24  2  0  0  0
 12 13  2  0  0  0
 14 15  2  0  0  0
M  END
> <rmsd>
0.653263986

$$$$
CHEMBL1277592_6KPF


 26 28  0  0  0  0  0  0  0  0999 V2000
   98.8391  110.9210  122.6935 C   0  0  0  0  0
   98.9016  111.6193  124.0353 C   0  0  0  0  0
  100.3422  111.7030  124.4899 C   0  0  0  0  0
  100.4073  112.3476  125.8609 C   0  0  0  0  0
  101.8377  112.3232  126.3960 C   0  0  0  0  0
  102.1829  111.0483  127.1796 C   0  0  0  0  0
  103.5944  111.2016  127.7190 C   0  0  0  0  0
  101.2567  110.9366  128.3886 C   0  0  0  0  0
  102.1237  109.8222  126.2830 C   0  0  0  0  0
  102.9678  109.7337  125.1670 C   0  0  0  0  0
  102.9015  108.6475  124.2917 C   0  0  0  0  0
  101.9445  107.6266  124.5030 C   0  0  0  0  0
  101.1678  107.6653  125.6827 C   0  0  0  0  0
  101.2394  108.7650  126.5385 C   0  0  0  0  0
  100.3775  105.3391  125.3682 C   0  0  0  0  0
  101.5079  104.5086  125.9626 C   0  0  0  0  0
   99.0641  104.6187  125.6131 C   0  0  0  0  0
  100.5823  105.5664  123.8652 C   0  0  0  0  0
  100.6246  104.2752  123.0339 C   0  0  0  0  0
  101.0322  104.5289  121.6017 C   0  0  0  0  0
  101.5158  105.7084  121.1763 C   0  0  0  0  0
  101.8756  105.8703  119.7409 C   0  0  0  0  0
  101.6404  106.8939  122.0991 C   0  0  0  0  0
  101.8026  106.4483  123.5537 C   0  0  0  0  0
  104.1920  108.6038  122.8753 Br  0  0  0  0  0
  100.3228  106.6035  126.0241 O   0  0  0  0  0
  1  2  1  0  0  0
  2  3  1  0  0  0
  3  4  1  0  0  0
  4  5  1  0  0  0
  5  6  1  0  0  0
  6  7  1  0  0  0
  6  8  1  0  0  0
  6  9  1  0  0  0
 10 11  1  0  0  0
 11 25  1  0  0  0
 12 13  1  0  0  0
 13 26  1  0  0  0
 14  9  1  0  0  0
 15 26  1  0  0  0
 15 16  1  0  0  0
 15 17  1  0  0  0
 18 15  1  0  0  0
 18 19  1  0  0  0
 19 20  1  0  0  0
 22 21  1  0  0  0
 23 21  1  0  0  0
 24 23  1  0  0  0
 24 18  1  0  0  0
 24 12  1  0  0  0
  9 10  2  0  0  0
 11 12  2  0  0  0
 13 14  2  0  0  0
 20 21  2  0  0  0
M  END
> <rmsd>
0.787425697

$$$$
CHEMBL2163938_6PT0


 32 37  0  0  0  0  0  0  0  0999 V2000
   98.2834  111.0920  123.4584 C   0  0  0  0  0
   99.1074  110.2830  124.4368 C   0  0  0  0  0
   98.4866  110.3774  125.8215 C   0  0  0  0  0
   99.2735  109.5909  126.8729 C   0  0  0  0  0
   99.1986  108.0756  126.6445 C   0  0  0  0  0
  101.4778  108.1863  125.7498 C   0  0  0  0  0
  102.5309  107.5279  125.1109 C   0  0  0  0  0
  103.8226  108.0565  125.1659 C   0  0  0  0  0
  104.0651  109.2457  125.8582 C   0  0  0  0  0
  103.0136  109.9252  126.4929 C   0  0  0  0  0
  103.2357  111.1262  127.1849 C   0  0  0  0  0
  102.1490  111.7935  127.7912 C   0  0  0  0  0
  102.2956  113.0644  128.5443 C   0  0  0  0  0
  103.8269  114.9231  129.4312 C   0  0  0  0  0
  103.3991  114.7837  130.9054 C   0  0  0  0  0
  103.6752  116.0933  131.6609 C   0  0  0  0  0
  102.8917  117.2373  130.9960 C   0  0  0  0  0
  103.3288  117.3922  129.5301 C   0  0  0  0  0
  102.5571  118.5234  128.8853 C   0  0  0  0  0
  104.8340  117.6972  129.4774 C   0  0  0  0  0
  105.6210  116.5508  130.1318 C   0  0  0  0  0
  107.1030  116.8530  130.0747 C   0  0  0  0  0
  105.1792  116.4043  131.5966 C   0  0  0  0  0
  105.3310  115.2412  129.3801 C   0  0  0  0  0
  103.0520  116.0827  128.7755 C   0  0  0  0  0
  100.8689  111.2369  127.6663 C   0  0  0  0  0
  101.7051  109.3978  126.4251 C   0  0  0  0  0
  100.1935  107.6443  125.7194 O   0  0  0  0  0
  104.4037  111.5988  127.2563 O   0  0  0  0  0
  101.2745  113.6112  129.0450 O   0  0  0  0  0
  103.5820  113.6773  128.7110 N   0  0  0  0  0
  100.6581  110.0729  126.9941 N   0  0  0  0  0
  1  2  1  0  0  0
  2  3  1  0  0  0
  4  3  1  0  0  0
  4  5  1  0  0  0
  4 32  1  0  0  0
  5 28  1  0  0  0
  6 28  1  0  0  0
  6  7  1  0  0  0
  8  9  1  0  0  0
 10 11  1  0  0  0
 11 12  1  0  0  0
 12 13  1  0  0  0
 13 31  1  0  0  0
 14 31  1  0  0  0
 14 15  1  0  0  0
 16 15  1  0  0  0
 16 17  1  0  0  0
 17 18  1  0  0  0
 18 19  1  0  0  0
 18 20  1  0  0  0
 18 25  1  0  0  0
 20 21  1  0  0  0
 21 22  1  0  0  0
 21 23  1  0  0  0
 21 24  1  0  0  0
 23 16  1  0  0  0
 24 14  1  0  0  0
 25 14  1  0  0  0
 26 32  1  0  0  0
 27 10  1  0  0  0
 32 27  1  0  0  0
  7  8  2  0  0  0
  9 10  2  0  0  0
 11 29  2  0  0  0
 12 26  2  0  0  0
 13 30  2  0  0  0
 27  6  2  0  0  0
M  END
> <rmsd>
0.607202172

$$$$
CHEMBL2206833_6PT0


 26 29  0  0  0  0  0  0  0  0999 V2000
   94.8994  110.0895  122.8244 C   0  0  0  0  0
   96.1252  110.7376  122.2102 C   0  0  0  0  0
   96.9949  109.6892  121.5328 C   0  0  0  0  0
   98.6289  109.1944  123.3945 C   0  0  0  0  0
   99.1479  110.5883  123.5339 C   0  0  0  0  0
   99.0095  108.0963  124.1741 C   0  0  0  0  0
  100.0049  108.0487  125.2682 C   0  0  0  0  0
  101.2098  108.9120  125.2658 C   0  0  0  0  0
  101.8930  109.1005  124.0571 C   0  0  0  0  0
  103.0493  109.8766  123.9994 C   0  0  0  0  0
  103.5548  110.4797  125.1505 C   0  0  0  0  0
  102.8940  110.3052  126.3789 C   0  0  0  0  0
  103.3858  110.9095  127.5447 C   0  0  0  0  0
  102.7241  110.7450  128.7627 C   0  0  0  0  0
  101.5618  109.9762  128.8282 C   0  0  0  0  0
  101.0600  109.3675  127.6764 C   0  0  0  0  0
  101.7150  109.5146  126.4424 C   0  0  0  0  0
   98.2121  107.0506  123.7410 C   0  0  0  0  0
   98.1484  105.7203  124.1557 C   0  0  0  0  0
   97.2279  104.8775  123.5084 C   0  0  0  0  0
   96.4042  105.3732  122.4754 C   0  0  0  0  0
   96.4901  106.7183  122.0755 C   0  0  0  0  0
   97.4130  107.5328  122.7336 C   0  0  0  0  0
   97.6529  108.8393  122.5217 N   0  0  0  0  0
   99.8391  107.2228  126.2061 O   0  0  0  0  0
  105.1476  111.5328  124.9913 Br  0  0  0  0  0
  1  2  1  0  0  0
  2  3  1  0  0  0
  3 24  1  0  0  0
  5  4  1  0  0  0
  6  7  1  0  0  0
  6 18  1  0  0  0
  7  8  1  0  0  0
  9 10  1  0  0  0
 11 26  1  0  0  0
 11 12  1  0  0  0
 13 14  1  0  0  0
 15 16  1  0  0  0
 17  8  1  0  0  0
 17 12  1  0  0  0
 19 20  1  0  0  0
 21 22  1  0  0  0
 23 24  1  0  0  0
 23 18  1  0  0  0
 24  4  1  0  0  0
  4  6  2  0  0  0
  7 25  2  0  0  0
  8  9  2  0  0  0
 10 11  2  0  0  0
 12 13  2  0  0  0
 14 15  2  0  0  0
 16 17  2  0  0  0
 18 19  2  0  0  0
 20 21  2  0  0  0
 22 23  2  0  0  0
M  END
> <rmsd>
0.517019808

$$$$
CHEMBL575395_5ZTY


 29 32  0  0  0  0  0  0  0  0999 V2000
  100.3227  107.7466  126.4057 N   0  0  0  0  0
   99.4512  107.0721  125.6678 N   0  0  0  0  0
  101.1450  110.0788  126.5498 N   0  0  0  0  0
   97.1796  108.5187  123.0273 N   0  0  0  0  0
   98.8299  107.9440  124.8448 C   0  0  0  0  0
   99.3237  109.2200  125.0699 C   0  0  0  0  0
  100.2660  109.0539  126.0618 C   0  0  0  0  0
  100.7943  111.1843  127.2310 C   0  0  0  0  0
  101.9011  111.9652  127.5058 C   0  0  0  0  0
  102.9868  111.3020  126.9469 C   0  0  0  0  0
  102.4766  110.1542  126.3703 C   0  0  0  0  0
  103.2902  109.1548  125.6206 C   0  0  0  0  0
   99.4048  111.5110  127.6608 C   0  0  0  0  0
   98.9918  110.4831  124.3502 C   0  0  0  0  0
   97.8051  107.5406  123.8689 C   0  0  0  0  0
   96.1528  108.2309  122.0292 C   0  0  0  0  0
   94.9216  107.6044  122.6628 C   0  0  0  0  0
   94.6204  106.3449  121.8709 C   0  0  0  0  0
   95.4598  106.4200  120.6130 C   0  0  0  0  0
   96.6591  107.2618  120.9800 C   0  0  0  0  0
  101.1285  107.1287  127.4255 C   0  0  0  0  0
  101.7105  107.8889  128.4503 C   0  0  0  0  0
  102.4773  107.2805  129.4471 C   0  0  0  0  0
  102.6611  105.8881  129.4317 C   0  0  0  0  0
  102.0721  105.1231  128.4213 C   0  0  0  0  0
  101.3085  105.7385  127.4265 C   0  0  0  0  0
   97.4806  106.3256  123.7806 O   0  0  0  0  0
  103.6149  105.0734  130.6602 Cl  0  0  0  0  0
  103.1894  108.2904  130.6940 Cl  0  0  0  0  0
  1  2  1  0  0  0
  1 21  1  0  0  0
  3  8  1  0  0  0
  5  6  1  0  0  0
  5 15  1  0  0  0
  7  3  1  0  0  0
  7  1  1  0  0  0
  9 10  1  0  0  0
 11  3  1  0  0  0
 12 11  1  0  0  0
 13  8  1  0  0  0
 14  6  1  0  0  0
 15  4  1  0  0  0
 16  4  1  0  0  0
 16 17  1  0  0  0
 17 18  1  0  0  0
 18 19  1  0  0  0
 19 20  1  0  0  0
 20 16  1  0  0  0
 22 23  1  0  0  0
 23 29  1  0  0  0
 24 25  1  0  0  0
 24 28  1  0  0  0
 26 21  1  0  0  0
  5  2  2  0  0  0
  6  7  2  0  0  0
  8  9  2  0  0  0
 10 11  2  0  0  0
 15 27  2  0  0  0
 21 22  2  0  0  0
 23 24  2  0  0  0
 25 26  2  0  0  0
M  END
> <rmsd>
0.578702152

$$$$
CHEMBL516057_6PT0


 29 32  0  0  0  0  0  0  0  0999 V2000
   98.0901  113.4409  121.7197 C   0  0  0  0  0
   98.2795  112.2830  122.6393 C   0  0  0  0  0
   99.5816  111.8223  122.8501 C   0  0  0  0  0
   99.8186  110.7308  123.6872 C   0  0  0  0  0
   98.7550  110.0863  124.3301 C   0  0  0  0  0
  100.1959  108.3961  125.6358 C   0  0  0  0  0
  101.5056  109.1331  125.4513 C   0  0  0  0  0
  102.1122  109.7629  126.7346 C   0  0  0  0  0
  102.0468  111.2823  126.6568 C   0  0  0  0  0
  101.4394  109.3309  128.0363 C   0  0  0  0  0
  103.5647  109.2303  126.7177 C   0  0  0  0  0
  104.3279  109.8676  125.5464 C   0  0  0  0  0
  103.6973  109.2201  124.3108 C   0  0  0  0  0
  102.6688  108.2784  124.9177 C   0  0  0  0  0
  102.3021  107.1419  123.9764 C   0  0  0  0  0
  103.3637  107.8371  126.1721 C   0  0  0  0  0
   97.4514  110.5407  124.1111 C   0  0  0  0  0
   97.1976  111.6391  123.2792 C   0  0  0  0  0
   93.4269  111.6586  121.5743 C   0  0  0  0  0
   92.8435  111.1898  120.2316 C   0  0  0  0  0
   94.8737  110.9859  119.2624 C   0  0  0  0  0
   95.5758  111.5483  120.5100 C   0  0  0  0  0
   98.9527  108.9444  125.1762 N   0  0  0  0  0
   94.8217  111.2291  121.7267 N   0  0  0  0  0
  100.1821  107.2910  126.2421 O   0  0  0  0  0
   95.4237  113.6039  122.7698 O   0  0  0  0  0
   94.7475  111.8327  124.3026 O   0  0  0  0  0
   93.7075  110.2738  119.6046 O   0  0  0  0  0
   95.5144  112.1265  123.0419 S   0  0  0  0  0
  1  2  1  0  0  0
  3  4  1  0  0  0
  5 23  1  0  0  0
  5 17  1  0  0  0
  7  6  1  0  0  0
  7  8  1  0  0  0
  8  9  1  0  0  0
  8 10  1  0  0  0
 11  8  1  0  0  0
 11 12  1  0  0  0
 12 13  1  0  0  0
 13 14  1  0  0  0
 14 15  1  0  0  0
 14 16  1  0  0  0
 14  7  1  0  0  0
 16 11  1  0  0  0
 18  2  1  0  0  0
 19 24  1  0  0  0
 19 20  1  0  0  0
 20 28  1  0  0  0
 21 28  1  0  0  0
 21 22  1  0  0  0
 22 24  1  0  0  0
 23  6  1  0  0  0
 29 18  1  0  0  0
 29 24  1  0  0  0
  2  3  2  0  0  0
  4  5  2  0  0  0
  6 25  2  0  0  0
 17 18  2  0  0  0
 29 26  2  0  0  0
 29 27  2  0  0  0
M  END
> <rmsd>
0.640185952

$$$$
CHEMBL3093378_6PT0


 34 38  0  0  0  0  0  0  0  0999 V2000
   98.1511  105.6763  124.3441 C   0  0  0  0  0
   98.2130  104.6077  125.3870 C   0  0  0  0  0
   99.5502  104.6554  126.1270 C   0  0  0  0  0
   99.7106  105.9521  126.8514 C   0  0  0  0  0
  100.2442  107.9158  127.3240 C   0  0  0  0  0
  100.7835  109.2962  127.2597 C   0  0  0  0  0
  101.7356  109.7303  126.3003 C   0  0  0  0  0
  102.1430  111.0685  126.2835 C   0  0  0  0  0
  101.6254  111.9832  127.1996 C   0  0  0  0  0
  100.6974  111.5643  128.1508 C   0  0  0  0  0
  100.2803  110.2328  128.1771 C   0  0  0  0  0
   98.3361  108.2128  124.1833 C   0  0  0  0  0
   99.2033  108.1908  123.0624 C   0  0  0  0  0
   99.8170  109.3671  122.5963 C   0  0  0  0  0
   99.5518  110.5507  123.2829 C   0  0  0  0  0
   99.5555  112.5755  124.0100 C   0  0  0  0  0
   98.7087  111.8666  124.8396 C   0  0  0  0  0
   98.7069  110.5723  124.3738 C   0  0  0  0  0
   98.0844  109.4244  124.8526 C   0  0  0  0  0
   98.0730  112.4544  125.9299 C   0  0  0  0  0
   98.3193  113.8192  126.1622 C   0  0  0  0  0
   99.1844  114.5499  125.3180 C   0  0  0  0  0
   99.8180  113.9285  124.2266 C   0  0  0  0  0
  101.0496  112.1404  122.0283 C   0  0  0  0  0
  102.4562  111.8264  122.5101 C   0  0  0  0  0
   98.4889  105.4170  123.1587 O   0  0  0  0  0
   99.0178  106.3062  127.9028 O   0  0  0  0  0
   99.3208  107.5258  128.2286 N   0  0  0  0  0
  100.5240  106.9393  126.4360 N   0  0  0  0  0
   97.8006  107.0073  124.7394 N   0  0  0  0  0
  100.0710  111.7775  123.0464 N   0  0  0  0  0
  102.0238  113.2770  127.1646 F   0  0  0  0  0
  102.7974  112.6606  123.5580 F   0  0  0  0  0
  102.5427  108.5931  124.9850 Br  0  0  0  0  0
  1 30  1  0  0  0
  2  1  1  0  0  0
  2  3  1  0  0  0
  3  4  1  0  0  0
  4 27  1  0  0  0
  5 29  1  0  0  0
  5  6  1  0  0  0
  7  8  1  0  0  0
  7 34  1  0  0  0
  9 10  1  0  0  0
  9 32  1  0  0  0
 11  6  1  0  0  0
 13 14  1  0  0  0
 15 31  1  0  0  0
 17 18  1  0  0  0
 17 20  1  0  0  0
 18 15  1  0  0  0
 19 12  1  0  0  0
 21 22  1  0  0  0
 23 16  1  0  0  0
 24 31  1  0  0  0
 24 25  1  0  0  0
 25 33  1  0  0  0
 27 28  1  0  0  0
 30 12  1  0  0  0
 31 16  1  0  0  0
  1 26  2  0  0  0
  4 29  2  0  0  0
  5 28  2  0  0  0
  6  7  2  0  0  0
  8  9  2  0  0  0
 10 11  2  0  0  0
 12 13  2  0  0  0
 14 15  2  0  0  0
 16 17  2  0  0  0
 18 19  2  0  0  0
 20 21  2  0  0  0
 22 23  2  0  0  0
M  END
> <rmsd>
0.713245213

$$$$
CHEMBL75326_6PT0


 28 31  0  0  0  0  0  0  0  0999 V2000
   99.4303  111.2953  127.8369 C   0  0  0  0  0
  100.5937  110.7003  127.1133 C   0  0  0  0  0
  101.0621  109.4042  127.3034 C   0  0  0  0  0
  100.4496  108.3346  128.1506 C   0  0  0  0  0
   99.2883  107.6683  127.4257 C   0  0  0  0  0
   99.3066  107.5313  125.0834 C   0  0  0  0  0
   99.5988  106.6304  123.8814 C   0  0  0  0  0
   99.4536  104.7542  125.1428 C   0  0  0  0  0
   99.1559  105.5585  126.4114 C   0  0  0  0  0
  102.1597  109.2787  126.4798 C   0  0  0  0  0
  102.9979  108.1907  126.2429 C   0  0  0  0  0
  104.0414  108.3630  125.3169 C   0  0  0  0  0
  104.2177  109.5973  124.6558 C   0  0  0  0  0
  103.3526  110.6759  124.9115 C   0  0  0  0  0
  102.3278  110.4829  125.8408 C   0  0  0  0  0
  101.2290  112.7174  125.7526 C   0  0  0  0  0
   99.9013  113.3287  125.5404 C   0  0  0  0  0
   99.6807  114.6195  126.0383 C   0  0  0  0  0
   98.4432  115.2421  125.8790 C   0  0  0  0  0
   97.4125  114.5811  125.2129 C   0  0  0  0  0
   97.6148  113.3004  124.6938 C   0  0  0  0  0
   98.8633  112.6659  124.8430 C   0  0  0  0  0
   99.7767  106.8788  126.3066 N   0  0  0  0  0
  101.3703  111.3601  126.2116 N   0  0  0  0  0
   98.9093  105.4115  124.0232 O   0  0  0  0  0
  102.2607  113.4111  125.5424 O   0  0  0  0  0
   96.2830  112.5279  123.8473 Cl  0  0  0  0  0
   99.1308  111.0903  124.0914 Cl  0  0  0  0  0
  1  2  1  0  0  0
  3 10  1  0  0  0
  4  3  1  0  0  0
  4  5  1  0  0  0
  5 23  1  0  0  0
  6 23  1  0  0  0
  6  7  1  0  0  0
  7 25  1  0  0  0
  8 25  1  0  0  0
  8  9  1  0  0  0
  9 23  1  0  0  0
 11 12  1  0  0  0
 13 14  1  0  0  0
 15 24  1  0  0  0
 15 10  1  0  0  0
 16 17  1  0  0  0
 18 19  1  0  0  0
 20 21  1  0  0  0
 21 27  1  0  0  0
 22 28  1  0  0  0
 22 17  1  0  0  0
 24 16  1  0  0  0
 24  2  1  0  0  0
  2  3  2  0  0  0
 10 11  2  0  0  0
 12 13  2  0  0  0
 14 15  2  0  0  0
 16 26  2  0  0  0
 17 18  2  0  0  0
 19 20  2  0  0  0
 21 22  2  0  0  0
M  END
> <rmsd>
0.55017513

$$$$
CHEMBL3354406_6PT0


 30 34  0  0  0  0  0  0  0  0999 V2000
   98.9893  107.6674  131.5696 C   0  0  0  0  0
   99.5572  106.5242  131.0031 C   0  0  0  0  0
   99.7718  106.4606  129.6240 C   0  0  0  0  0
   99.4221  107.5383  128.8038 C   0  0  0  0  0
   98.8539  108.6958  129.3750 C   0  0  0  0  0
   98.6383  108.7488  130.7580 C   0  0  0  0  0
   98.4736  109.8765  128.5353 C   0  0  0  0  0
  100.9424  110.5597  127.9223 C   0  0  0  0  0
  102.0083  110.0718  125.9088 C   0  0  0  0  0
  102.9766  109.3983  126.5924 C   0  0  0  0  0
  103.8925  108.9587  125.6741 C   0  0  0  0  0
  105.0730  108.2355  125.8105 C   0  0  0  0  0
  105.7911  107.9506  124.6356 C   0  0  0  0  0
  105.3208  108.3883  123.3775 C   0  0  0  0  0
  104.1240  109.1207  123.2711 C   0  0  0  0  0
  103.4236  109.3991  124.4464 C   0  0  0  0  0
  101.4827  110.7016  123.5330 C   0  0  0  0  0
  100.0112  110.7374  123.5854 C   0  0  0  0  0
   99.2022  111.4725  122.7443 C   0  0  0  0  0
   97.9111  111.1844  123.1510 C   0  0  0  0  0
   98.0183  110.2934  124.2047 C   0  0  0  0  0
   99.6520  107.4293  127.3854 C   0  0  0  0  0
   99.5880  111.2898  128.8323 S   0  0  0  0  0
  100.9890  110.6774  126.5620 N   0  0  0  0  0
  102.2526  110.0796  124.5762 N   0  0  0  0  0
  102.9411  109.2923  127.9382 N   0  0  0  0  0
  101.9221  109.8668  128.5907 N   0  0  0  0  0
   99.8374  107.3415  126.2465 N   0  0  0  0  0
  102.0739  111.2033  122.5390 O   0  0  0  0  0
   99.2861  110.0501  124.4308 O   0  0  0  0  0
  2  3  1  0  0  0
  4  5  1  0  0  0
  4 22  1  0  0  0
  6  1  1  0  0  0
  7  5  1  0  0  0
  7 23  1  0  0  0
  8 23  1  0  0  0
  8 27  1  0  0  0
  9 24  1  0  0  0
 10 11  1  0  0  0
 10 26  1  0  0  0
 12 13  1  0  0  0
 14 15  1  0  0  0
 16 25  1  0  0  0
 16 11  1  0  0  0
 17 18  1  0  0  0
 18 30  1  0  0  0
 19 20  1  0  0  0
 21 30  1  0  0  0
 25 17  1  0  0  0
 25  9  1  0  0  0
  1  2  2  0  0  0
  3  4  2  0  0  0
  5  6  2  0  0  0
  8 24  2  0  0  0
  9 10  2  0  0  0
 11 12  2  0  0  0
 13 14  2  0  0  0
 15 16  2  0  0  0
 17 29  2  0  0  0
 18 19  2  0  0  0
 20 21  2  0  0  0
 26 27  2  0  0  0
 22 28  3  0  0  0
M  END
> <rmsd>
0.487888694

$$$$
CHEMBL570683_6PT0


 29 32  0  0  0  0  0  0  0  0999 V2000
   99.3997  107.1602  125.6985 O   0  0  0  0  0
   98.5215  104.4982  121.6158 O   0  0  0  0  0
   99.1504  107.4995  124.5090 C   0  0  0  0  0
   99.0540  108.9401  124.1772 C   0  0  0  0  0
   98.0316  109.3644  123.3216 C   0  0  0  0  0
   97.8382  110.7204  123.0419 C   0  0  0  0  0
   96.7292  111.1492  122.1577 C   0  0  0  0  0
   95.5017  110.4775  122.2671 C   0  0  0  0  0
   94.4122  110.8410  121.4776 C   0  0  0  0  0
   94.5350  111.8828  120.5615 C   0  0  0  0  0
   95.7469  112.5614  120.4233 C   0  0  0  0  0
   96.8570  112.1992  121.2124 C   0  0  0  0  0
   98.6640  111.6508  123.6785 C   0  0  0  0  0
   99.8890  109.9194  124.7670 C   0  0  0  0  0
  101.2394  110.3760  126.8048 C   0  0  0  0  0
  102.6036  110.1404  127.4481 C   0  0  0  0  0
  103.7154  110.6796  126.5605 C   0  0  0  0  0
  104.2074  109.6087  125.5956 C   0  0  0  0  0
  103.1798  109.2934  124.5174 C   0  0  0  0  0
  101.9734  108.5867  125.1163 C   0  0  0  0  0
   99.1144  106.7760  122.0950 C   0  0  0  0  0
   98.2514  105.8311  121.2594 C   0  0  0  0  0
   97.9832  104.3137  122.9015 C   0  0  0  0  0
   98.8142  105.0837  123.9279 C   0  0  0  0  0
   95.8394  113.8534  119.2358 Cl  0  0  0  0  0
   98.4013  113.0133  120.9420 Cl  0  0  0  0  0
   99.6562  111.2366  124.5082 N   0  0  0  0  0
  100.9999  109.5645  125.6052 N   0  0  0  0  0
   98.9197  106.4843  123.5165 N   0  0  0  0  0
  3  4  1  0  0  0
  3 29  1  0  0  0
  5  6  1  0  0  0
  6  7  1  0  0  0
  8  9  1  0  0  0
 10 11  1  0  0  0
 11 25  1  0  0  0
 12 26  1  0  0  0
 12  7  1  0  0  0
 13 27  1  0  0  0
 14 28  1  0  0  0
 14  4  1  0  0  0
 15 28  1  0  0  0
 15 16  1  0  0  0
 16 17  1  0  0  0
 17 18  1  0  0  0
 18 19  1  0  0  0
 19 20  1  0  0  0
 20 28  1  0  0  0
 21 29  1  0  0  0
 21 22  1  0  0  0
 22  2  1  0  0  0
 23  2  1  0  0  0
 23 24  1  0  0  0
 24 29  1  0  0  0
  3  1  2  0  0  0
  4  5  2  0  0  0
  6 13  2  0  0  0
  7  8  2  0  0  0
  9 10  2  0  0  0
 11 12  2  0  0  0
 14 27  2  0  0  0
M  END
> <rmsd>
0.719331801

$$$$
CHEMBL1760932_6PT0


 28 31  0  0  0  0  0  0  0  0999 V2000
  101.3832  112.0612  122.6222 C   0  0  0  0  0
  100.2707  112.8848  122.3661 C   0  0  0  0  0
   99.0203  112.5897  122.9314 C   0  0  0  0  0
   98.9420  111.4659  123.7517 C   0  0  0  0  0
  101.2360  110.9409  123.4527 C   0  0  0  0  0
   99.5746  109.6965  124.7904 C   0  0  0  0  0
   97.8603  110.9247  124.4044 C   0  0  0  0  0
   96.4526  111.4154  124.3515 C   0  0  0  0  0
   94.8289  111.8653  122.6434 C   0  0  0  0  0
   93.6540  112.1204  123.5953 C   0  0  0  0  0
   92.9376  110.8175  123.9275 C   0  0  0  0  0
   93.9367  109.8069  124.4761 C   0  0  0  0  0
   95.1020  109.6138  123.4989 C   0  0  0  0  0
  100.3979  108.5816  125.3044 C   0  0  0  0  0
  101.8659  108.6688  125.4173 C   0  0  0  0  0
  102.6360  107.6725  124.8045 C   0  0  0  0  0
  104.0284  107.7063  124.8758 C   0  0  0  0  0
  104.6652  108.7351  125.5685 C   0  0  0  0  0
  103.9158  109.7295  126.2013 C   0  0  0  0  0
  102.5092  109.7000  126.1410 C   0  0  0  0  0
  100.0136  110.6982  123.9942 N   0  0  0  0  0
   98.2463  109.7991  125.0477 N   0  0  0  0  0
   95.7793  110.8775  123.1718 N   0  0  0  0  0
   92.3268  110.3111  122.7932 F   0  0  0  0  0
   91.9729  111.0642  124.8850 F   0  0  0  0  0
   99.8254  107.5126  125.6474 O   0  0  0  0  0
  101.5727  110.9159  127.0149 Cl  0  0  0  0  0
  104.7751  110.9902  127.0723 Cl  0  0  0  0  0
  1  2  1  0  0  0
  3  4  1  0  0  0
  4 21  1  0  0  0
  6 14  1  0  0  0
  7 22  1  0  0  0
  8  7  1  0  0  0
  8 23  1  0  0  0
  9 23  1  0  0  0
  9 10  1  0  0  0
 10 11  1  0  0  0
 11 12  1  0  0  0
 11 24  1  0  0  0
 11 25  1  0  0  0
 12 13  1  0  0  0
 13 23  1  0  0  0
 14 15  1  0  0  0
 16 17  1  0  0  0
 18 19  1  0  0  0
 19 28  1  0  0  0
 20 27  1  0  0  0
 20 15  1  0  0  0
 21  5  1  0  0  0
 21  6  1  0  0  0
  2  3  2  0  0  0
  5  1  2  0  0  0
  6 22  2  0  0  0
  7  4  2  0  0  0
 14 26  2  0  0  0
 15 16  2  0  0  0
 17 18  2  0  0  0
 19 20  2  0  0  0
M  END
> <rmsd>
0.658355534

$$$$
CHEMBL550949_6PT0


 27 30  0  0  0  0  0  0  0  0999 V2000
   98.9330  110.7615  119.0224 C   0  0  0  0  0
   99.3233  109.7801  120.1066 C   0  0  0  0  0
   98.3711  109.9187  121.2798 C   0  0  0  0  0
   99.1989  109.2903  123.5669 C   0  0  0  0  0
   99.3974  110.6922  124.0430 C   0  0  0  0  0
   99.3932  108.1302  124.3254 C   0  0  0  0  0
   99.8676  108.0175  125.7229 C   0  0  0  0  0
  100.7535  109.0304  126.3378 C   0  0  0  0  0
  100.4019  109.5291  127.5930 C   0  0  0  0  0
  101.1851  110.4910  128.2239 C   0  0  0  0  0
  102.3477  110.9846  127.6292 C   0  0  0  0  0
  104.1680  112.7033  127.8905 C   0  0  0  0  0
  102.7459  110.4695  126.3654 C   0  0  0  0  0
  103.9277  110.8897  125.7357 C   0  0  0  0  0
  104.3226  110.3569  124.5083 C   0  0  0  0  0
  103.5422  109.3841  123.8881 C   0  0  0  0  0
  102.3647  108.9478  124.4933 C   0  0  0  0  0
  101.9442  109.4822  125.7231 C   0  0  0  0  0
   98.9982  107.0891  123.5026 C   0  0  0  0  0
   98.9617  105.7130  123.7273 C   0  0  0  0  0
   98.5008  104.8923  122.6829 C   0  0  0  0  0
   98.0917  105.4550  121.4551 C   0  0  0  0  0
   98.1402  106.8456  121.2544 C   0  0  0  0  0
   98.6065  107.6371  122.3057 C   0  0  0  0  0
   98.7297  108.9778  122.3350 N   0  0  0  0  0
   99.4919  107.0366  126.4197 O   0  0  0  0  0
  103.0469  111.9650  128.3553 O   0  0  0  0  0
  1  2  1  0  0  0
  2  3  1  0  0  0
  3 25  1  0  0  0
  5  4  1  0  0  0
  6  7  1  0  0  0
  6 19  1  0  0  0
  7  8  1  0  0  0
  9 10  1  0  0  0
 11 27  1  0  0  0
 11 13  1  0  0  0
 12 27  1  0  0  0
 14 15  1  0  0  0
 16 17  1  0  0  0
 18  8  1  0  0  0
 18 13  1  0  0  0
 20 21  1  0  0  0
 22 23  1  0  0  0
 24 25  1  0  0  0
 24 19  1  0  0  0
 25  4  1  0  0  0
  4  6  2  0  0  0
  7 26  2  0  0  0
  8  9  2  0  0  0
 10 11  2  0  0  0
 13 14  2  0  0  0
 15 16  2  0  0  0
 17 18  2  0  0  0
 19 20  2  0  0  0
 21 22  2  0  0  0
 23 24  2  0  0  0
M  END
> <rmsd>
0.619996488

$$$$
CHEMBL1807842_6PT0


 30 33  0  0  0  0  0  0  0  0999 V2000
  102.3662  108.7967  122.8307 C   0  0  0  0  0
  102.2783  109.2872  124.2388 C   0  0  0  0  0
  102.2303  108.4641  125.3592 C   0  0  0  0  0
  102.1422  106.9716  125.3834 C   0  0  0  0  0
  100.7205  106.5092  125.0978 C   0  0  0  0  0
   99.1144  105.5558  126.5694 C   0  0  0  0  0
   97.8107  105.3948  125.7712 C   0  0  0  0  0
   97.7118  107.5285  125.1435 C   0  0  0  0  0
   98.9840  107.9276  125.9099 C   0  0  0  0  0
  102.1970  109.3119  126.4447 C   0  0  0  0  0
  102.1173  109.0376  127.8083 C   0  0  0  0  0
  102.0818  110.1254  128.6990 C   0  0  0  0  0
  101.9632  110.9026  131.0437 C   0  0  0  0  0
  102.1217  111.4507  128.1965 C   0  0  0  0  0
  102.1971  111.6969  126.8147 C   0  0  0  0  0
  102.2386  110.5952  125.9591 C   0  0  0  0  0
  102.3309  111.7546  123.7553 C   0  0  0  0  0
  101.6378  111.7876  122.4512 C   0  0  0  0  0
  102.3379  112.2821  121.3431 C   0  0  0  0  0
  101.7395  112.3250  120.0844 C   0  0  0  0  0
  100.4292  111.8786  119.9212 C   0  0  0  0  0
   99.7064  111.3969  121.0149 C   0  0  0  0  0
  100.2992  111.3568  122.2919 C   0  0  0  0  0
   99.8546  106.7850  126.2388 N   0  0  0  0  0
  102.2783  110.5964  124.6091 N   0  0  0  0  0
   97.8156  106.2241  124.6420 O   0  0  0  0  0
  102.0053  109.8681  130.0704 O   0  0  0  0  0
  102.9986  112.7613  124.1169 O   0  0  0  0  0
   98.0528  110.8666  120.7485 Cl  0  0  0  0  0
   99.3353  110.8421  123.6792 Cl  0  0  0  0  0
  1  2  1  0  0  0
  3 10  1  0  0  0
  4  3  1  0  0  0
  4  5  1  0  0  0
  5 24  1  0  0  0
  6 24  1  0  0  0
  6  7  1  0  0  0
  7 26  1  0  0  0
  8 26  1  0  0  0
  8  9  1  0  0  0
  9 24  1  0  0  0
 11 12  1  0  0  0
 12 27  1  0  0  0
 13 27  1  0  0  0
 14 15  1  0  0  0
 16 25  1  0  0  0
 16 10  1  0  0  0
 17 18  1  0  0  0
 19 20  1  0  0  0
 21 22  1  0  0  0
 22 29  1  0  0  0
 23 30  1  0  0  0
 23 18  1  0  0  0
 25 17  1  0  0  0
 25  2  1  0  0  0
  2  3  2  0  0  0
 10 11  2  0  0  0
 12 14  2  0  0  0
 15 16  2  0  0  0
 17 28  2  0  0  0
 18 19  2  0  0  0
 20 21  2  0  0  0
 22 23  2  0  0  0
M  ISO  1  13  -1
M  END
> <rmsd>
0.402382761

$$$$
CHEMBL396153_8GUS


 22 23  0  0  0  0  0  0  0  0999 V2000
   98.5113  111.0856  123.6055 C   0  0  0  0  0
   98.7380  109.7366  124.2533 C   0  0  0  0  0
   98.2773  107.3381  123.6870 C   0  0  0  0  0
   97.5668  106.4968  122.8221 C   0  0  0  0  0
   97.5559  105.1149  123.0109 C   0  0  0  0  0
   98.2672  104.5529  124.0683 C   0  0  0  0  0
   98.9862  105.3744  124.9361 C   0  0  0  0  0
   98.9916  106.7702  124.7762 C   0  0  0  0  0
  100.1587  107.4124  126.8648 C   0  0  0  0  0
  101.2516  105.6416  128.3662 C   0  0  0  0  0
  101.8732  106.7521  129.2306 C   0  0  0  0  0
  101.6235  106.4320  130.6898 C   0  0  0  0  0
  103.3695  106.7641  128.9929 C   0  0  0  0  0
  101.3088  108.1533  128.9392 C   0  0  0  0  0
  101.7211  109.4050  126.8086 C   0  0  0  0  0
  103.9138  108.4433  125.7678 C   0  0  0  0  0
   98.2296  108.7136  123.4091 O   0  0  0  0  0
   99.8070  107.5987  125.6224 N   0  0  0  0  0
  101.0433  108.3466  127.5130 N   0  0  0  0  0
   99.5464  106.0316  127.8502 S   0  0  0  0  0
  102.0253  110.8351  127.5497 S   0  0  0  0  0
  102.3632  109.1561  125.1505 S   0  0  0  0  0
  1  2  1  0  0  0
  2 17  1  0  0  0
  3 17  1  0  0  0
  4  5  1  0  0  0
  6  7  1  0  0  0
  8 18  1  0  0  0
  8  3  1  0  0  0
  9 20  1  0  0  0
 10 20  1  0  0  0
 10 11  1  0  0  0
 11 12  1  0  0  0
 11 13  1  0  0  0
 11 14  1  0  0  0
 14 19  1  0  0  0
 15 22  1  0  0  0
 16 22  1  0  0  0
 19 15  1  0  0  0
 19  9  1  0  0  0
  3  4  2  0  0  0
  5  6  2  0  0  0
  7  8  2  0  0  0
  9 18  2  0  0  0
 15 21  2  0  0  0
M  END
> <rmsd>
0.653223038

$$$$
CHEMBL2206846_6PT0


 27 30  0  0  0  0  0  0  0  0999 V2000
   92.5150  112.0720  124.0907 C   0  0  0  0  0
   92.3544  110.6996  124.7173 C   0  0  0  0  0
   93.2345  109.6863  124.0076 C   0  0  0  0  0
   94.6846  109.8701  124.4123 C   0  0  0  0  0
   95.5469  108.8617  123.6761 C   0  0  0  0  0
   97.6971  108.1488  124.7182 C   0  0  0  0  0
   98.9936  108.6464  124.8520 C   0  0  0  0  0
  100.1002  107.9654  125.5548 C   0  0  0  0  0
  101.4360  108.5683  125.6479 C   0  0  0  0  0
  102.3671  108.1146  124.7060 C   0  0  0  0  0
  103.6404  108.6683  124.6265 C   0  0  0  0  0
  104.0015  109.6989  125.4855 C   0  0  0  0  0
  103.1006  110.1710  126.4401 C   0  0  0  0  0
  103.5122  111.2123  127.2717 C   0  0  0  0  0
  102.6614  111.7066  128.2528 C   0  0  0  0  0
  101.3968  111.1511  128.4169 C   0  0  0  0  0
  100.9515  110.1069  127.6005 C   0  0  0  0  0
  101.7974  109.6026  126.5650 C   0  0  0  0  0
   99.0072  109.8758  124.2119 C   0  0  0  0  0
  100.0264  110.8096  124.0233 C   0  0  0  0  0
   99.7178  111.9808  123.3100 C   0  0  0  0  0
   98.4171  112.1905  122.8048 C   0  0  0  0  0
   97.4088  111.2321  123.0080 C   0  0  0  0  0
   97.7437  110.0808  123.7230 C   0  0  0  0  0
   96.9471  109.0411  124.0320 N   0  0  0  0  0
   99.9133  106.8193  126.0450 O   0  0  0  0  0
   99.2207  109.4344  128.0836 Br  0  0  0  0  0
  1  2  1  0  0  0
  2  3  1  0  0  0
  3  4  1  0  0  0
  4  5  1  0  0  0
  5 25  1  0  0  0
  7  8  1  0  0  0
  7 19  1  0  0  0
  8  9  1  0  0  0
 10 11  1  0  0  0
 12 13  1  0  0  0
 14 15  1  0  0  0
 16 17  1  0  0  0
 17 27  1  0  0  0
 18  9  1  0  0  0
 18 13  1  0  0  0
 20 21  1  0  0  0
 22 23  1  0  0  0
 24 25  1  0  0  0
 24 19  1  0  0  0
 25  6  1  0  0  0
  6  7  2  0  0  0
  8 26  2  0  0  0
  9 10  2  0  0  0
 11 12  2  0  0  0
 13 14  2  0  0  0
 15 16  2  0  0  0
 17 18  2  0  0  0
 19 20  2  0  0  0
 21 22  2  0  0  0
 23 24  2  0  0  0
M  END
> <rmsd>
0.44884789

$$$$
CHEMBL392416_5ZTY


 23 24  0  0  0  0  0  0  0  0999 V2000
  102.4436  110.2533  127.7218 C   0  0  0  0  0
  101.2753  110.0601  126.7794 C   0  0  0  0  0
  100.2419  109.4276  124.4541 C   0  0  0  0  0
   98.6978  107.9827  123.1008 C   0  0  0  0  0
   97.3819  107.2661  123.4524 C   0  0  0  0  0
   96.7679  106.7494  122.1682 C   0  0  0  0  0
   96.4259  108.2676  124.0683 C   0  0  0  0  0
   97.5431  106.0858  124.4268 C   0  0  0  0  0
   99.8235  107.0155  125.0939 C   0  0  0  0  0
  100.4998  106.1575  127.3003 C   0  0  0  0  0
  101.0601  104.9253  126.9260 C   0  0  0  0  0
  101.3682  103.9609  127.8873 C   0  0  0  0  0
  101.1314  104.2220  129.2372 C   0  0  0  0  0
  100.5950  105.4508  129.6255 C   0  0  0  0  0
  100.2901  106.4310  128.6664 C   0  0  0  0  0
   99.6997  107.7449  129.0916 C   0  0  0  0  0
   98.2978  107.5575  129.6406 C   0  0  0  0  0
  100.5746  108.4432  130.1174 C   0  0  0  0  0
  101.8905  109.5057  125.1637 S   0  0  0  0  0
   99.6185  110.8081  123.8234 S   0  0  0  0  0
   99.2417  105.4242  124.4853 S   0  0  0  0  0
   99.5676  108.1652  124.2671 N   0  0  0  0  0
  100.2269  107.1762  126.3229 N   0  0  0  0  0
  1  2  1  0  0  0
  2 19  1  0  0  0
  3 19  1  0  0  0
  3 22  1  0  0  0
  4 22  1  0  0  0
  4  5  1  0  0  0
  5  6  1  0  0  0
  5  7  1  0  0  0
  5  8  1  0  0  0
  8 21  1  0  0  0
  9 21  1  0  0  0
  9 22  1  0  0  0
 10 23  1  0  0  0
 11 12  1  0  0  0
 13 14  1  0  0  0
 15 10  1  0  0  0
 16 15  1  0  0  0
 16 17  1  0  0  0
 16 18  1  0  0  0
  3 20  2  0  0  0
  9 23  2  0  0  0
 10 11  2  0  0  0
 12 13  2  0  0  0
 14 15  2  0  0  0
M  END
> <rmsd>
0.565494716

$$$$
CHEMBL3353438_5ZTY


 28 30  0  0  0  0  0  0  0  0999 V2000
   99.2439  106.6043  123.8506 C   0  0  0  0  0
   99.6178  106.6922  125.1932 C   0  0  0  0  0
   99.3819  109.0624  125.1509 C   0  0  0  0  0
   98.9999  109.0041  123.7974 C   0  0  0  0  0
   98.9329  107.7703  123.1504 C   0  0  0  0  0
   98.6945  110.1760  123.1194 C   0  0  0  0  0
   98.7622  111.4102  123.7707 C   0  0  0  0  0
   99.1508  111.4374  125.1312 C   0  0  0  0  0
   99.8797  110.3185  127.1929 C   0  0  0  0  0
  101.3270  110.7854  127.3270 C   0  0  0  0  0
  102.3026  109.7203  126.8549 C   0  0  0  0  0
  102.5865  109.8880  125.3715 C   0  0  0  0  0
  103.4750  108.7640  124.8710 C   0  0  0  0  0
  104.9068  108.9793  125.3232 C   0  0  0  0  0
   98.4232  112.6342  123.0040 C   0  0  0  0  0
   97.6624  113.6785  120.8230 C   0  0  0  0  0
   96.2813  114.1872  121.2356 C   0  0  0  0  0
   95.8971  115.4501  120.4533 C   0  0  0  0  0
   96.5083  115.5089  119.0467 C   0  0  0  0  0
   96.7247  114.1125  118.4708 C   0  0  0  0  0
   97.6922  113.2943  119.3374 C   0  0  0  0  0
   95.6071  116.3110  118.1323 C   0  0  0  0  0
   99.6783  107.9039  125.8087 N   0  0  0  0  0
   99.4603  110.2720  125.7887 N   0  0  0  0  0
   98.0369  112.5265  121.6292 N   0  0  0  0  0
   99.2145  112.5380  125.7470 O   0  0  0  0  0
   98.4756  113.7708  123.5485 O   0  0  0  0  0
  105.6961  107.9442  124.8603 F   0  0  0  0  0
  2 23  1  0  0  0
  3  4  1  0  0  0
  4  6  1  0  0  0
  5  1  1  0  0  0
  7  8  1  0  0  0
  7 15  1  0  0  0
  8 24  1  0  0  0
  9 24  1  0  0  0
  9 10  1  0  0  0
 10 11  1  0  0  0
 11 12  1  0  0  0
 12 13  1  0  0  0
 13 14  1  0  0  0
 14 28  1  0  0  0
 15 25  1  0  0  0
 16 25  1  0  0  0
 16 17  1  0  0  0
 17 18  1  0  0  0
 18 19  1  0  0  0
 19 20  1  0  0  0
 19 22  1  0  0  0
 20 21  1  0  0  0
 21 16  1  0  0  0
 24  3  1  0  0  0
  1  2  2  0  0  0
  3 23  2  0  0  0
  4  5  2  0  0  0
  6  7  2  0  0  0
  8 26  2  0  0  0
 15 27  2  0  0  0
M  END
> <rmsd>
0.806798935

$$$$
CHEMBL125061_8GUR


 26 27  0  0  0  0  0  0  0  0999 V2000
   91.3517  112.2277  123.0719 C   0  0  0  0  0
   92.0790  111.5457  121.9284 C   0  0  0  0  0
   92.9669  110.4320  122.4539 C   0  0  0  0  0
   94.2149  111.0094  123.1014 C   0  0  0  0  0
   95.1112  109.8940  123.6144 C   0  0  0  0  0
   95.8106  109.1586  122.4691 C   0  0  0  0  0
   97.1081  109.8294  121.9954 C   0  0  0  0  0
   97.7410  108.9255  120.9522 C   0  0  0  0  0
   96.7769  111.1446  121.2955 C   0  0  0  0  0
   98.0823  110.0097  123.1490 C   0  0  0  0  0
   98.5544  111.2789  123.5239 C   0  0  0  0  0
   99.4446  111.4219  124.5899 C   0  0  0  0  0
   99.8857  110.3001  125.3018 C   0  0  0  0  0
  100.8262  110.4856  126.4252 C   0  0  0  0  0
  100.4280  111.2877  127.5041 C   0  0  0  0  0
  101.2824  111.4986  128.5876 C   0  0  0  0  0
  100.8419  112.3450  129.7266 C   0  0  0  0  0
  102.5504  110.9174  128.5999 C   0  0  0  0  0
  102.9664  110.1281  127.5264 C   0  0  0  0  0
  102.1145  109.9005  126.4325 C   0  0  0  0  0
  102.6099  109.1039  125.2571 C   0  0  0  0  0
  103.1002  107.7300  125.6792 C   0  0  0  0  0
  103.7071  109.8481  124.5192 C   0  0  0  0  0
   99.4019  109.0267  124.9488 C   0  0  0  0  0
   98.5135  108.8893  123.8791 C   0  0  0  0  0
   99.7799  107.8964  125.6641 O   0  0  0  0  0
  1  2  1  0  0  0
  2  3  1  0  0  0
  3  4  1  0  0  0
  4  5  1  0  0  0
  5  6  1  0  0  0
  6  7  1  0  0  0
  7  8  1  0  0  0
  7  9  1  0  0  0
  7 10  1  0  0  0
 11 12  1  0  0  0
 13 14  1  0  0  0
 13 24  1  0  0  0
 15 16  1  0  0  0
 17 16  1  0  0  0
 18 19  1  0  0  0
 20 14  1  0  0  0
 21 20  1  0  0  0
 21 22  1  0  0  0
 21 23  1  0  0  0
 24 26  1  0  0  0
 25 10  1  0  0  0
 10 11  2  0  0  0
 12 13  2  0  0  0
 14 15  2  0  0  0
 16 18  2  0  0  0
 19 20  2  0  0  0
 24 25  2  0  0  0
M  END
> <rmsd>
0.712002575

$$$$
CHEMBL3234035_8GUS


 34 36  0  0  0  0  0  0  0  0999 V2000
   98.3234  112.6044  126.7612 C   0  0  0  0  0
   99.6082  113.0340  127.4430 C   0  0  0  0  0
  100.0065  112.0209  128.5049 C   0  0  0  0  0
  100.6047  110.7741  127.8746 C   0  0  0  0  0
  102.0349  111.0383  127.4387 C   0  0  0  0  0
  102.5795  109.8343  126.6775 C   0  0  0  0  0
  102.4972  109.9900  125.1530 C   0  0  0  0  0
  103.3848  111.1559  124.7240 C   0  0  0  0  0
  103.0802  108.7357  124.5264 C   0  0  0  0  0
  101.0579  110.1511  124.6903 C   0  0  0  0  0
  100.6333  111.2863  123.9851 C   0  0  0  0  0
   99.3058  111.4246  123.5787 C   0  0  0  0  0
   98.3652  110.4190  123.8824 C   0  0  0  0  0
   96.9264  110.5160  123.4508 C   0  0  0  0  0
   96.2214  111.8490  123.8654 C   0  0  0  0  0
   95.3081  112.3590  122.7560 C   0  0  0  0  0
   95.3001  111.6251  121.4243 C   0  0  0  0  0
   96.7858  111.3895  121.1536 C   0  0  0  0  0
   96.6894  110.0956  121.9669 C   0  0  0  0  0
   95.1776  110.1190  121.6999 C   0  0  0  0  0
   94.2473  109.6792  122.8371 C   0  0  0  0  0
   94.8279  109.3503  120.4316 C   0  0  0  0  0
   98.7773  109.2725  124.5855 C   0  0  0  0  0
   98.0452  107.0984  125.6052 C   0  0  0  0  0
   96.9569  106.1324  125.7644 C   0  0  0  0  0
   95.7651  106.3380  125.2151 C   0  0  0  0  0
   94.6732  105.3758  125.3720 C   0  0  0  0  0
  100.1177  109.1520  124.9798 C   0  0  0  0  0
   98.9354  112.5686  122.8825 O   0  0  0  0  0
   94.6123  113.3459  122.9274 O   0  0  0  0  0
   97.8290  108.2738  124.8682 O   0  0  0  0  0
   99.1571  106.8539  126.1442 O   0  0  0  0  0
   93.5604  105.6075  124.8329 O   0  0  0  0  0
   94.8514  104.2104  126.1088 O   0  0  0  0  0
  1  2  1  0  0  0
  2  3  1  0  0  0
  3  4  1  0  0  0
  4  5  1  0  0  0
  5  6  1  0  0  0
  6  7  1  0  0  0
  7  8  1  0  0  0
  7  9  1  0  0  0
  7 10  1  0  0  0
 11 12  1  0  0  0
 12 29  1  0  0  0
 13 23  1  0  0  0
 14 13  1  0  0  0
 14 15  1  0  0  0
 15 16  1  0  0  0
 17 16  1  0  0  0
 17 18  1  0  0  0
 19 18  1  0  0  0
 19 20  1  0  0  0
 19 14  1  0  0  0
 20 21  1  0  0  0
 20 22  1  0  0  0
 20 17  1  0  0  0
 23 31  1  0  0  0
 24 31  1  0  0  0
 24 25  1  0  0  0
 26 27  1  0  0  0
 27 34  1  0  0  0
 28 10  1  0  0  0
 10 11  2  0  0  0
 12 13  2  0  0  0
 16 30  2  0  0  0
 23 28  2  0  0  0
 24 32  2  0  0  0
 25 26  2  0  0  0
 27 33  2  0  0  0
M  END
> <rmsd>
0.714199781

$$$$
CHEMBL432750_6PT0


 33 37  0  0  0  0  0  0  0  0999 V2000
   98.1831  108.3588  124.6403 C   0  0  0  0  0
   97.8836  109.5249  123.9308 C   0  0  0  0  0
   96.1188  108.2738  123.8056 C   0  0  0  0  0
   97.0440  107.5757  124.5472 C   0  0  0  0  0
   96.7680  106.3127  125.0703 C   0  0  0  0  0
   95.5025  105.7597  124.8178 C   0  0  0  0  0
   94.5495  106.4687  124.0598 C   0  0  0  0  0
   94.8467  107.7463  123.5392 C   0  0  0  0  0
   92.6158  107.9743  122.4954 C   0  0  0  0  0
   95.9560  110.5115  122.6656 C   0  0  0  0  0
   95.2201  111.4407  123.6151 C   0  0  0  0  0
   95.4535  113.6571  122.7505 C   0  0  0  0  0
   95.5492  114.4242  124.0760 C   0  0  0  0  0
   93.5596  113.6813  124.8052 C   0  0  0  0  0
   93.3018  112.8522  123.5397 C   0  0  0  0  0
   98.7925  110.6961  123.7457 C   0  0  0  0  0
   99.4363  108.0230  125.3459 C   0  0  0  0  0
  101.8024  108.6543  126.0058 C   0  0  0  0  0
  102.6160  109.9280  126.2558 C   0  0  0  0  0
  104.0044  109.3837  126.3908 C   0  0  0  0  0
  104.0183  108.7116  125.0400 C   0  0  0  0  0
  102.7633  107.8120  125.1307 C   0  0  0  0  0
  102.2219  107.4418  123.7491 C   0  0  0  0  0
  103.1039  106.5245  125.8622 C   0  0  0  0  0
  103.7050  109.9172  124.1401 C   0  0  0  0  0
  102.7326  110.7507  124.9775 C   0  0  0  0  0
  102.1583  110.7270  127.4594 C   0  0  0  0  0
   96.6294  109.4626  123.4216 N   0  0  0  0  0
   94.5556  112.4965  122.8600 N   0  0  0  0  0
  100.5225  108.9517  125.3648 N   0  0  0  0  0
   93.9165  108.4674  122.7839 O   0  0  0  0  0
   94.2703  114.8452  124.4726 O   0  0  0  0  0
   99.5494  106.9135  125.9341 O   0  0  0  0  0
  1 17  1  0  0  0
  2 28  1  0  0  0
  4  5  1  0  0  0
  4  1  1  0  0  0
  6  7  1  0  0  0
  8 31  1  0  0  0
  8  3  1  0  0  0
  9 31  1  0  0  0
 10 28  1  0  0  0
 10 11  1  0  0  0
 11 29  1  0  0  0
 12 29  1  0  0  0
 12 13  1  0  0  0
 13 32  1  0  0  0
 14 32  1  0  0  0
 14 15  1  0  0  0
 15 29  1  0  0  0
 16  2  1  0  0  0
 17 30  1  0  0  0
 18 30  1  0  0  0
 18 19  1  0  0  0
 19 20  1  0  0  0
 19 27  1  0  0  0
 20 21  1  0  0  0
 21 22  1  0  0  0
 21 25  1  0  0  0
 22 23  1  0  0  0
 22 24  1  0  0  0
 22 18  1  0  0  0
 25 26  1  0  0  0
 26 19  1  0  0  0
 28  3  1  0  0  0
  1  2  2  0  0  0
  3  4  2  0  0  0
  5  6  2  0  0  0
  7  8  2  0  0  0
 17 33  2  0  0  0
M  END
> <rmsd>
0.424757063

$$$$
CHEMBL248137_5ZTY


 23 24  0  0  0  0  0  0  0  0999 V2000
  101.9833  109.8319  128.0665 C   0  0  0  0  0
  101.8354  110.3264  126.6417 C   0  0  0  0  0
  100.7192  108.2390  125.5124 C   0  0  0  0  0
   99.9486  109.6645  123.5923 C   0  0  0  0  0
   98.7813  110.6320  123.3771 C   0  0  0  0  0
   99.1057  111.4937  122.1758 C   0  0  0  0  0
   98.6254  111.5463  124.5822 C   0  0  0  0  0
   97.4813  109.8764  123.0818 C   0  0  0  0  0
   98.4399  107.9315  124.5410 C   0  0  0  0  0
   97.3723  105.7162  124.2476 C   0  0  0  0  0
   96.1303  105.9746  124.8503 C   0  0  0  0  0
   95.0930  105.0430  124.7791 C   0  0  0  0  0
   95.2888  103.8318  124.1156 C   0  0  0  0  0
   96.5238  103.5509  123.5296 C   0  0  0  0  0
   97.5737  104.4819  123.5979 C   0  0  0  0  0
   98.9017  104.1673  122.9708 C   0  0  0  0  0
   99.5330  102.9409  123.6043 C   0  0  0  0  0
   98.7699  103.9753  121.4710 C   0  0  0  0  0
  102.3352  109.0225  125.4788 S   0  0  0  0  0
   96.9202  108.8906  124.5105 S   0  0  0  0  0
  100.5108  107.3208  126.3505 O   0  0  0  0  0
   99.6735  108.6554  124.6170 N   0  0  0  0  0
   98.4703  106.6409  124.3551 N   0  0  0  0  0
  1  2  1  0  0  0
  2 19  1  0  0  0
  3 19  1  0  0  0
  3 22  1  0  0  0
  4 22  1  0  0  0
  4  5  1  0  0  0
  5  6  1  0  0  0
  5  7  1  0  0  0
  5  8  1  0  0  0
  8 20  1  0  0  0
  9 20  1  0  0  0
  9 22  1  0  0  0
 10 23  1  0  0  0
 11 12  1  0  0  0
 13 14  1  0  0  0
 15 10  1  0  0  0
 16 15  1  0  0  0
 16 17  1  0  0  0
 16 18  1  0  0  0
  3 21  2  0  0  0
  9 23  2  0  0  0
 10 11  2  0  0  0
 12 13  2  0  0  0
 14 15  2  0  0  0
M  END
> <rmsd>
0.659018099

$$$$
CHEMBL4066866_5ZTY


 27 31  0  0  0  0  0  0  0  0999 V2000
   97.1120  104.7209  124.6413 C   0  0  0  0  0
   98.0556  105.2873  123.5612 C   0  0  0  0  0
   97.3942  105.0956  122.1850 C   0  0  0  0  0
   97.1340  103.6033  121.9195 C   0  0  0  0  0
   96.2075  103.0483  123.0129 C   0  0  0  0  0
   96.8605  103.2257  124.3927 C   0  0  0  0  0
   98.2013  102.4732  124.4207 C   0  0  0  0  0
   99.1360  103.0182  123.3281 C   0  0  0  0  0
   99.3892  104.5132  123.5759 C   0  0  0  0  0
   98.4687  102.8422  121.9549 C   0  0  0  0  0
   98.2917  106.7862  123.7735 C   0  0  0  0  0
   98.9393  107.1848  125.0768 C   0  0  0  0  0
   99.2117  108.6037  125.3684 C   0  0  0  0  0
   98.9509  109.7104  124.5761 C   0  0  0  0  0
   98.3729  109.8269  123.3116 C   0  0  0  0  0
   98.2490  111.1165  122.7652 C   0  0  0  0  0
   98.6990  112.2456  123.4824 C   0  0  0  0  0
   99.2785  112.0992  124.7549 C   0  0  0  0  0
   99.3876  110.8073  125.2718 C   0  0  0  0  0
   99.8079  109.0876  126.5334 C   0  0  0  0  0
  100.4937  111.2976  127.4726 C   0  0  0  0  0
  101.8649  111.8048  127.0398 C   0  0  0  0  0
  102.9034  110.6956  127.0748 C   0  0  0  0  0
  102.9589  109.9856  125.7361 C   0  0  0  0  0
  103.9603  108.8527  125.8064 C   0  0  0  0  0
   99.2564  106.3129  125.9312 O   0  0  0  0  0
   99.9072  110.4347  126.4551 N   0  0  0  0  0
  1  2  1  0  0  0
  2  3  1  0  0  0
  2 11  1  0  0  0
  3  4  1  0  0  0
  4  5  1  0  0  0
  5  6  1  0  0  0
  6  7  1  0  0  0
  6  1  1  0  0  0
  7  8  1  0  0  0
  8  9  1  0  0  0
  8 10  1  0  0  0
  9  2  1  0  0  0
 10  4  1  0  0  0
 11 12  1  0  0  0
 12 13  1  0  0  0
 13 14  1  0  0  0
 15 16  1  0  0  0
 17 18  1  0  0  0
 19 27  1  0  0  0
 19 14  1  0  0  0
 21 27  1  0  0  0
 21 22  1  0  0  0
 22 23  1  0  0  0
 23 24  1  0  0  0
 24 25  1  0  0  0
 27 20  1  0  0  0
 12 26  2  0  0  0
 14 15  2  0  0  0
 16 17  2  0  0  0
 18 19  2  0  0  0
 20 13  2  0  0  0
M  END
> <rmsd>
0.746521294

$$$$
CHEMBL564066_6PT0


 28 31  0  0  0  0  0  0  0  0999 V2000
  103.5485  110.4857  125.1657 C   0  0  0  0  0
  103.0525  109.8917  124.0057 C   0  0  0  0  0
  101.8962  109.1118  124.0570 C   0  0  0  0  0
  101.2105  108.9143  125.2654 C   0  0  0  0  0
  101.7144  109.5119  126.4457 C   0  0  0  0  0
  102.8901  110.3026  126.3823 C   0  0  0  0  0
  103.3941  110.9080  127.5369 C   0  0  0  0  0
  102.7391  110.7417  128.7592 C   0  0  0  0  0
  101.5763  109.9713  128.8319 C   0  0  0  0  0
  101.0661  109.3624  127.6826 C   0  0  0  0  0
  100.8799  109.7996  130.1331 C   0  0  0  0  0
  100.0073  108.0490  125.2640 C   0  0  0  0  0
   99.0181  108.0911  124.1642 C   0  0  0  0  0
   98.6379  109.1874  123.3819 C   0  0  0  0  0
   97.4166  107.5263  122.7296 C   0  0  0  0  0
   98.2173  107.0456  123.7365 C   0  0  0  0  0
   98.1455  105.7190  124.1617 C   0  0  0  0  0
   97.2162  104.8781  123.5247 C   0  0  0  0  0
   96.3908  105.3722  122.4923 C   0  0  0  0  0
   96.4841  106.7139  122.0825 C   0  0  0  0  0
   96.9798  109.7028  121.5587 C   0  0  0  0  0
   95.6032  110.0885  122.0791 C   0  0  0  0  0
   95.7255  111.0565  123.2398 C   0  0  0  0  0
   94.3461  111.3970  123.7610 C   0  0  0  0  0
   94.4706  112.3553  124.9264 C   0  0  0  0  0
   99.1424  110.5855  123.5298 C   0  0  0  0  0
   99.8368  107.2269  126.2046 O   0  0  0  0  0
   97.6654  108.8303  122.5079 N   0  0  0  0  0
  2  3  1  0  0  0
  4  5  1  0  0  0
  4 12  1  0  0  0
  6  7  1  0  0  0
  6  1  1  0  0  0
  8  9  1  0  0  0
 10  5  1  0  0  0
 11  9  1  0  0  0
 12 13  1  0  0  0
 14 28  1  0  0  0
 16 17  1  0  0  0
 16 13  1  0  0  0
 18 19  1  0  0  0
 20 15  1  0  0  0
 21 28  1  0  0  0
 21 22  1  0  0  0
 22 23  1  0  0  0
 23 24  1  0  0  0
 24 25  1  0  0  0
 26 14  1  0  0  0
 28 15  1  0  0  0
  1  2  2  0  0  0
  3  4  2  0  0  0
  5  6  2  0  0  0
  7  8  2  0  0  0
  9 10  2  0  0  0
 12 27  2  0  0  0
 13 14  2  0  0  0
 15 16  2  0  0  0
 17 18  2  0  0  0
 19 20  2  0  0  0
M  END
> <rmsd>
0.521640956

$$$$
CHEMBL4870368_8GUQ


 26 29  0  0  0  0  0  0  0  0999 V2000
   98.9699  104.6864  122.8990 C   0  0  0  0  0
   99.4084  105.4461  124.1328 C   0  0  0  0  0
   98.4949  105.0699  125.2850 C   0  0  0  0  0
  100.8376  105.0552  124.4621 C   0  0  0  0  0
   99.6601  107.9149  124.7922 C   0  0  0  0  0
   99.5189  109.3306  124.3938 C   0  0  0  0  0
   98.7910  109.7995  123.3202 C   0  0  0  0  0
   98.0297  109.1246  122.2090 C   0  0  0  0  0
   97.3370  110.2177  121.3392 C   0  0  0  0  0
   96.1313  110.7758  122.0795 C   0  0  0  0  0
   96.6717  112.0213  122.7564 C   0  0  0  0  0
   98.1492  112.0124  122.4020 C   0  0  0  0  0
   98.8631  111.1594  123.4094 C   0  0  0  0  0
  100.8429  110.4267  126.2235 C   0  0  0  0  0
  102.0838  109.7635  126.2227 C   0  0  0  0  0
  102.9044  109.8137  127.3535 C   0  0  0  0  0
  102.5009  110.5309  128.4827 C   0  0  0  0  0
  101.2814  111.2124  128.4786 C   0  0  0  0  0
  100.4581  111.1650  127.3505 C   0  0  0  0  0
   99.3220  106.8784  123.8609 N   0  0  0  0  0
   99.5936  111.5349  124.4721 N   0  0  0  0  0
   99.9979  110.4157  125.0652 N   0  0  0  0  0
  100.0520  107.6175  125.9524 O   0  0  0  0  0
   98.2181  111.3174  121.1706 O   0  0  0  0  0
  103.2981  110.5761  129.5766 F   0  0  0  0  0
  102.5101  109.0939  125.1233 F   0  0  0  0  0
  1  2  1  0  0  0
  2  3  1  0  0  0
  2  4  1  0  0  0
  2 20  1  0  0  0
  5  6  1  0  0  0
  8  7  1  0  0  0
  8  9  1  0  0  0
  9 10  1  0  0  0
  9 24  1  0  0  0
 10 11  1  0  0  0
 11 12  1  0  0  0
 12 13  1  0  0  0
 12 24  1  0  0  0
 13  7  1  0  0  0
 15 16  1  0  0  0
 15 26  1  0  0  0
 17 18  1  0  0  0
 17 25  1  0  0  0
 19 14  1  0  0  0
 20  5  1  0  0  0
 22 21  1  0  0  0
 22 14  1  0  0  0
 22  6  1  0  0  0
  5 23  2  0  0  0
  6  7  2  0  0  0
 13 21  2  0  0  0
 14 15  2  0  0  0
 16 17  2  0  0  0
 18 19  2  0  0  0
M  END
> <rmsd>
0.432645708

$$$$
CHEMBL4796229_5ZTY


 23 23  0  0  0  0  0  0  0  0999 V2000
   99.1907  109.1950  124.6951 C   0  0  0  0  0
   99.9322  107.1224  124.8747 C   0  0  0  0  0
   99.3883  108.0210  123.9655 C   0  0  0  0  0
  100.3483  105.7302  124.6339 C   0  0  0  0  0
  100.5010  103.7401  123.0171 C   0  0  0  0  0
  102.0075  103.5694  123.1411 C   0  0  0  0  0
  100.1010  103.4843  121.5761 C   0  0  0  0  0
   99.7707  102.7571  123.9318 C   0  0  0  0  0
   99.8048  109.9361  127.0374 C   0  0  0  0  0
  101.0547  110.7891  126.8467 C   0  0  0  0  0
  102.3215  109.9754  127.0502 C   0  0  0  0  0
  102.8037  109.4207  125.7238 C   0  0  0  0  0
  104.0277  108.5600  125.9510 C   0  0  0  0  0
   98.7217  110.5367  124.1434 C   0  0  0  0  0
   97.6625  110.3604  123.0708 C   0  0  0  0  0
   99.9043  111.2726  123.5451 C   0  0  0  0  0
   98.0922  111.4121  125.2121 C   0  0  0  0  0
   99.6535  108.9725  125.9528 N   0  0  0  0  0
  100.0873  107.7286  126.0649 N   0  0  0  0  0
  100.1266  105.1093  123.3610 N   0  0  0  0  0
   99.1388  107.7451  122.0803 Br  0  0  0  0  0
  100.8982  105.0830  125.5656 O   0  0  0  0  0
  100.1059  101.4353  123.6254 O   0  0  0  0  0
  1 18  1  0  0  0
  2  3  1  0  0  0
  2  4  1  0  0  0
  3 21  1  0  0  0
  4 20  1  0  0  0
  5 20  1  0  0  0
  5  6  1  0  0  0
  5  7  1  0  0  0
  5  8  1  0  0  0
  8 23  1  0  0  0
  9 18  1  0  0  0
  9 10  1  0  0  0
 10 11  1  0  0  0
 11 12  1  0  0  0
 12 13  1  0  0  0
 14  1  1  0  0  0
 14 15  1  0  0  0
 14 16  1  0  0  0
 14 17  1  0  0  0
 18 19  1  0  0  0
  2 19  2  0  0  0
  3  1  2  0  0  0
  4 22  2  0  0  0
M  END
> <rmsd>
0.813922584

$$$$
CHEMBL403628_8GUQ


 24 25  0  0  0  0  0  0  0  0999 V2000
   98.6143  113.1558  134.0042 C   0  0  0  0  0
   98.9816  112.2720  132.8312 C   0  0  0  0  0
   99.9151  111.1791  133.3189 C   0  0  0  0  0
   97.7144  111.6477  132.2761 C   0  0  0  0  0
   99.6666  113.1282  131.7699 C   0  0  0  0  0
  101.3986  112.2145  130.1736 C   0  0  0  0  0
  101.7280  111.3834  129.0027 C   0  0  0  0  0
  103.0519  111.2643  128.5663 C   0  0  0  0  0
  103.3585  110.4769  127.4558 C   0  0  0  0  0
  102.3515  109.7956  126.7655 C   0  0  0  0  0
  101.0105  109.9041  127.2006 C   0  0  0  0  0
  100.0348  110.3117  124.1312 C   0  0  0  0  0
   99.5714  111.3199  123.0729 C   0  0  0  0  0
   98.0463  111.4470  123.0210 C   0  0  0  0  0
   97.3769  110.0947  123.2553 C   0  0  0  0  0
   97.8607  109.4327  124.5575 C   0  0  0  0  0
  100.7179  110.7022  128.3134 C   0  0  0  0  0
  100.0411  112.3339  130.6064 N   0  0  0  0  0
   99.0083  110.1265  125.1557 N   0  0  0  0  0
  102.3138  112.8192  130.7969 O   0  0  0  0  0
  100.0841  107.7787  125.8173 O   0  0  0  0  0
   98.5879  108.8350  127.4203 O   0  0  0  0  0
  102.8981  108.7587  125.2509 Br  0  0  0  0  0
   99.6572  109.0995  126.3962 S   0  0  0  0  0
  1  2  1  0  0  0
  2  3  1  0  0  0
  2  4  1  0  0  0
  2  5  1  0  0  0
  5 18  1  0  0  0
  6  7  1  0  0  0
  8  9  1  0  0  0
 10 23  1  0  0  0
 10 11  1  0  0  0
 12 19  1  0  0  0
 12 13  1  0  0  0
 13 14  1  0  0  0
 14 15  1  0  0  0
 15 16  1  0  0  0
 16 19  1  0  0  0
 17  7  1  0  0  0
 18  6  1  0  0  0
 24 11  1  0  0  0
 24 19  1  0  0  0
  6 20  2  0  0  0
  7  8  2  0  0  0
  9 10  2  0  0  0
 11 17  2  0  0  0
 24 21  2  0  0  0
 24 22  2  0  0  0
M  END
> <rmsd>
0.725486875

$$$$
CHEMBL1270885_6PT0


 37 40  0  0  0  0  0  0  0  0999 V2000
   96.0429  110.9990  120.3983 N   0  0  0  0  0
   98.7749  107.6248  120.7279 N   0  0  0  0  0
   99.7246  109.4106  124.4049 N   0  0  0  0  0
   95.7469  112.7048  120.3710 S   0  0  0  0  0
   99.6513  107.6792  122.2293 S   0  0  0  0  0
  100.4787  108.3032  125.5199 S   0  0  0  0  0
   95.4446  113.1684  121.7679 O   0  0  0  0  0
   94.5676  113.0052  119.4881 O   0  0  0  0  0
   99.1831  106.5357  123.0852 O   0  0  0  0  0
  101.1190  107.5164  121.9475 O   0  0  0  0  0
   99.4132  107.4910  126.2012 O   0  0  0  0  0
  101.4150  107.3775  124.7964 O   0  0  0  0  0
   97.1843  113.5714  119.7679 C   0  0  0  0  0
   96.2064  110.5478  119.0225 C   0  0  0  0  0
   97.1590  109.3611  118.9502 C   0  0  0  0  0
   96.5947  108.1532  119.7080 C   0  0  0  0  0
   97.3607  107.9090  121.0038 C   0  0  0  0  0
   99.3942  109.1955  123.1028 C   0  0  0  0  0
   99.2974  110.6553  124.6823 C   0  0  0  0  0
   99.3605  111.3379  125.8989 C   0  0  0  0  0
   98.8340  112.6401  125.9496 C   0  0  0  0  0
   98.2575  113.2237  124.8020 C   0  0  0  0  0
   98.1980  112.5100  123.5926 C   0  0  0  0  0
   98.7301  111.2232  123.5730 C   0  0  0  0  0
   98.7749  110.3125  122.5404 C   0  0  0  0  0
  101.4225  109.1799  126.7186 C   0  0  0  0  0
  102.4992  109.9918  126.3261 C   0  0  0  0  0
  103.2326  110.6921  127.2887 C   0  0  0  0  0
  102.8980  110.5849  128.6414 C   0  0  0  0  0
  101.8278  109.7771  129.0345 C   0  0  0  0  0
  101.0917  109.0767  128.0751 C   0  0  0  0  0
   99.4103  108.5503  119.7680 C   0  0  0  0  0
   98.5578  109.7732  119.4178 C   0  0  0  0  0
   97.3556  113.3134  118.4211 F   0  0  0  0  0
   98.3035  113.1503  120.4598 F   0  0  0  0  0
   97.0159  114.9304  119.9533 F   0  0  0  0  0
  102.8342  110.1127  125.0175 F   0  0  0  0  0
  3 19  1  0  0  0
  4  1  1  0  0  0
  4 13  1  0  0  0
  5  2  1  0  0  0
  5 18  1  0  0  0
  6  3  1  0  0  0
  6 26  1  0  0  0
 13 34  1  0  0  0
 13 35  1  0  0  0
 13 36  1  0  0  0
 14  1  1  0  0  0
 14 15  1  0  0  0
 15 16  1  0  0  0
 16 17  1  0  0  0
 17  2  1  0  0  0
 18  3  1  0  0  0
 20 21  1  0  0  0
 22 23  1  0  0  0
 24 25  1  0  0  0
 24 19  1  0  0  0
 27 28  1  0  0  0
 27 37  1  0  0  0
 29 30  1  0  0  0
 31 26  1  0  0  0
 32  2  1  0  0  0
 32 33  1  0  0  0
 33 15  1  0  0  0
  4  7  2  0  0  0
  4  8  2  0  0  0
  5  9  2  0  0  0
  5 10  2  0  0  0
  6 11  2  0  0  0
  6 12  2  0  0  0
 19 20  2  0  0  0
 21 22  2  0  0  0
 23 24  2  0  0  0
 25 18  2  0  0  0
 26 27  2  0  0  0
 28 29  2  0  0  0
 30 31  2  0  0  0
M  END
> <rmsd>
0.810375929

$$$$
CHEMBL5204014_8GUR


 24 25  0  0  0  0  0  0  0  0999 V2000
   94.7284  110.9253  123.7099 C   0  0  0  0  0
   95.3229  108.4493  122.0363 C   0  0  0  0  0
   97.5782  110.0104  123.3356 C   0  0  0  0  0
   97.8903  108.8762  124.0880 C   0  0  0  0  0
   99.1205  108.7809  124.7436 C   0  0  0  0  0
  100.0500  109.8323  124.6578 C   0  0  0  0  0
   99.7231  110.9822  123.9087 C   0  0  0  0  0
   98.4896  111.0656  123.2576 C   0  0  0  0  0
  101.3663  109.7067  125.3709 C   0  0  0  0  0
  101.4917  110.7449  126.4946 C   0  0  0  0  0
  102.8793  110.8228  127.1353 C   0  0  0  0  0
  103.4579  109.4566  127.5214 C   0  0  0  0  0
  103.7472  108.5273  126.3311 C   0  0  0  0  0
  103.8899  109.2744  125.0019 C   0  0  0  0  0
  102.5409  109.6705  124.3802 C   0  0  0  0  0
   96.0936  111.2079  120.9715 C   0  0  0  0  0
   94.7770  111.2868  120.2191 C   0  0  0  0  0
   93.8895  112.3600  120.8189 C   0  0  0  0  0
   92.5594  112.3820  120.0905 C   0  0  0  0  0
   91.6399  113.4252  120.6997 C   0  0  0  0  0
   91.0842  112.9337  122.0232 C   0  0  0  0  0
   95.9353  110.1494  122.5136 Si  0  0  0  0  0
  100.6140  112.0446  123.8075 O   0  0  0  0  0
   99.4103  107.6378  125.4799 O   0  0  0  0  0
  1 22  1  0  0  0
  4  5  1  0  0  0
  5 24  1  0  0  0
  6  7  1  0  0  0
  7 23  1  0  0  0
  8  3  1  0  0  0
  9  6  1  0  0  0
  9 10  1  0  0  0
 10 11  1  0  0  0
 11 12  1  0  0  0
 12 13  1  0  0  0
 13 14  1  0  0  0
 14 15  1  0  0  0
 15  9  1  0  0  0
 16 17  1  0  0  0
 17 18  1  0  0  0
 18 19  1  0  0  0
 19 20  1  0  0  0
 20 21  1  0  0  0
 22  2  1  0  0  0
 22  3  1  0  0  0
 22 16  1  0  0  0
  3  4  2  0  0  0
  5  6  2  0  0  0
  7  8  2  0  0  0
M  END
> <rmsd>
0.907079756

$$$$
CHEMBL3650101_5ZTY


 29 30  0  0  0  0  0  0  0  0999 V2000
  102.0665  112.7802  128.4992 C   0  0  0  0  0
  101.7323  111.3805  128.9798 C   0  0  0  0  0
  102.3579  110.3424  128.0658 C   0  0  0  0  0
  101.5851  110.2513  126.7604 C   0  0  0  0  0
  103.8020  108.3797  124.5921 C   0  0  0  0  0
  105.1001  108.3487  123.8320 C   0  0  0  0  0
  104.8554  108.7844  122.4009 C   0  0  0  0  0
  106.1197  109.2833  124.4595 C   0  0  0  0  0
  105.6808  106.9466  123.8291 C   0  0  0  0  0
  101.5649  108.1257  125.4801 C   0  0  0  0  0
   99.5929  106.6590  125.4709 C   0  0  0  0  0
   99.6631  106.0898  124.1087 C   0  0  0  0  0
   99.8327  104.7025  123.9986 C   0  0  0  0  0
   99.9954  104.0992  122.7513 C   0  0  0  0  0
  100.0011  104.8792  121.5960 C   0  0  0  0  0
   99.8129  106.2589  121.6862 C   0  0  0  0  0
   99.6181  106.8774  122.9264 C   0  0  0  0  0
   98.6397  110.3266  123.6435 C   0  0  0  0  0
   97.9314  110.6135  122.3311 C   0  0  0  0  0
   97.8894  111.0215  124.7594 C   0  0  0  0  0
  100.0538  110.8811  123.5950 C   0  0  0  0  0
  102.1902  109.2546  125.8879 N   0  0  0  0  0
  103.4141  109.4087  125.3839 N   0  0  0  0  0
  100.3692  107.7967  125.8803 N   0  0  0  0  0
   98.6559  108.8903  123.9116 N   0  0  0  0  0
  102.5686  107.2286  124.4598 S   0  0  0  0  0
   98.8017  106.1411  126.3027 O   0  0  0  0  0
   99.3791  108.2561  122.9203 O   0  0  0  0  0
  100.2185  102.3673  122.6396 Cl  0  0  0  0  0
  1  2  1  0  0  0
  2  3  1  0  0  0
  3  4  1  0  0  0
  4 22  1  0  0  0
  5 26  1  0  0  0
  6  5  1  0  0  0
  6  7  1  0  0  0
  6  8  1  0  0  0
  6  9  1  0  0  0
 10 26  1  0  0  0
 10 22  1  0  0  0
 11 24  1  0  0  0
 11 12  1  0  0  0
 13 14  1  0  0  0
 14 29  1  0  0  0
 15 16  1  0  0  0
 17 28  1  0  0  0
 17 12  1  0  0  0
 18 25  1  0  0  0
 18 19  1  0  0  0
 18 20  1  0  0  0
 18 21  1  0  0  0
 22 23  1  0  0  0
 25 28  1  0  0  0
  5 23  2  0  0  0
 10 24  2  0  0  0
 11 27  2  0  0  0
 12 13  2  0  0  0
 14 15  2  0  0  0
 16 17  2  0  0  0
M  END
> <rmsd>
0.801345706

$$$$
CHEMBL3979953_8GUR


 22 24  0  0  0  0  0  0  0  0999 V2000
  100.4723  110.9004  127.5519 C   0  0  0  0  0
  101.8250  110.4156  127.0463 C   0  0  0  0  0
  102.5992  109.9008  128.2483 C   0  0  0  0  0
  102.5692  111.6019  126.4604 C   0  0  0  0  0
  102.9024  108.6721  125.5532 C   0  0  0  0  0
  100.4432  108.8871  125.5149 C   0  0  0  0  0
   99.5616  109.7727  124.7306 C   0  0  0  0  0
   97.4444  110.1199  123.6748 C   0  0  0  0  0
   97.8757  111.3842  123.1931 C   0  0  0  0  0
   99.1564  111.8294  123.5481 C   0  0  0  0  0
  100.0011  111.0291  124.3111 C   0  0  0  0  0
   97.0112  112.2682  122.3335 C   0  0  0  0  0
   96.8890  111.6684  120.9414 C   0  0  0  0  0
   97.7899  112.8583  121.1657 C   0  0  0  0  0
   95.0012  110.3825  123.2308 C   0  0  0  0  0
   93.8120  109.4755  122.9980 C   0  0  0  0  0
   92.9562  109.4493  124.2471 C   0  0  0  0  0
   92.5433  110.2990  123.0642 C   0  0  0  0  0
  101.7025  109.3501  126.0303 N   0  0  0  0  0
   98.3089  109.3577  124.3995 N   0  0  0  0  0
  100.1039  107.6880  125.7047 O   0  0  0  0  0
   96.1651  109.5955  123.4400 O   0  0  0  0  0
  1  2  1  0  0  0
  2  3  1  0  0  0
  2  4  1  0  0  0
  2 19  1  0  0  0
  5 19  1  0  0  0
  6  7  1  0  0  0
  8 20  1  0  0  0
  8 22  1  0  0  0
  9 10  1  0  0  0
 11  7  1  0  0  0
 12  9  1  0  0  0
 12 13  1  0  0  0
 13 14  1  0  0  0
 14 12  1  0  0  0
 15 22  1  0  0  0
 15 16  1  0  0  0
 16 17  1  0  0  0
 17 18  1  0  0  0
 18 16  1  0  0  0
 19  6  1  0  0  0
  6 21  2  0  0  0
  7 20  2  0  0  0
  8  9  2  0  0  0
 10 11  2  0  0  0
M  END
> <rmsd>
0.597045362

$$$$
CHEMBL480541_8GUT


 33 36  0  0  0  0  0  0  0  0999 V2000
   99.7427  107.3821  121.7389 O   0  0  0  0  0
   99.1688  107.0242  122.8016 C   0  0  0  0  0
   99.8769  106.1307  123.7581 C   0  0  0  0  0
  100.7330  108.3538  126.3769 C   0  0  0  0  0
  101.3231  109.6164  126.8823 C   0  0  0  0  0
  100.6146  110.3639  127.8359 C   0  0  0  0  0
  101.1230  111.5668  128.3274 C   0  0  0  0  0
  102.3497  112.0427  127.8663 C   0  0  0  0  0
  103.0663  111.3161  126.9149 C   0  0  0  0  0
  102.5639  110.1101  126.4153 C   0  0  0  0  0
   99.8142  107.5206  127.0057 C   0  0  0  0  0
   99.2904  107.6036  128.3794 C   0  0  0  0  0
   97.9022  107.6521  128.5603 C   0  0  0  0  0
   97.3568  107.7368  129.8432 C   0  0  0  0  0
   98.1969  107.7658  130.9577 C   0  0  0  0  0
   99.5814  107.6926  130.7908 C   0  0  0  0  0
  100.1363  107.6080  129.5100 C   0  0  0  0  0
   97.3658  108.7762  122.5818 C   0  0  0  0  0
   98.0742  109.9307  123.2082 C   0  0  0  0  0
   99.1269  110.5554  122.5305 C   0  0  0  0  0
   99.8289  111.6004  123.1383 C   0  0  0  0  0
   99.4842  112.0174  124.4272 C   0  0  0  0  0
   98.4393  111.3879  125.1105 C   0  0  0  0  0
   97.7372  110.3425  124.5032 C   0  0  0  0  0
  100.0935  106.8447  125.0061 N   0  0  0  0  0
  100.8814  107.9034  125.1169 N   0  0  0  0  0
   99.4172  106.5936  126.1150 N   0  0  0  0  0
   97.8767  107.5324  123.1379 N   0  0  0  0  0
  102.9883  113.5529  128.4774 Cl  0  0  0  0  0
  103.5565  109.2416  125.2531 Cl  0  0  0  0  0
   97.5143  107.8738  132.5654 Cl  0  0  0  0  0
  101.8814  107.4398  129.3760 Cl  0  0  0  0  0
  100.3568  113.3328  125.1815 Cl  0  0  0  0  0
  2 28  1  0  0  0
  3  2  1  0  0  0
  3 25  1  0  0  0
  4  5  1  0  0  0
  4 11  1  0  0  0
  6  7  1  0  0  0
  8 29  1  0  0  0
  8  9  1  0  0  0
 10 30  1  0  0  0
 10  5  1  0  0  0
 11 12  1  0  0  0
 13 14  1  0  0  0
 15 31  1  0  0  0
 15 16  1  0  0  0
 17 32  1  0  0  0
 17 12  1  0  0  0
 18 28  1  0  0  0
 18 19  1  0  0  0
 20 21  1  0  0  0
 22 33  1  0  0  0
 22 23  1  0  0  0
 24 19  1  0  0  0
 25 26  1  0  0  0
 25 27  1  0  0  0
  2  1  2  0  0  0
  4 26  2  0  0  0
  5  6  2  0  0  0
  7  8  2  0  0  0
  9 10  2  0  0  0
 11 27  2  0  0  0
 12 13  2  0  0  0
 14 15  2  0  0  0
 16 17  2  0  0  0
 19 20  2  0  0  0
 21 22  2  0  0  0
 23 24  2  0  0  0
M  END
> <rmsd>
0.612589717

$$$$
CHEMBL1223775_5ZTY


 30 33  0  0  0  0  0  0  0  0999 V2000
  101.0860  109.2957  127.1102 C   0  0  0  0  0
  100.6748  110.2216  128.2657 C   0  0  0  0  0
  101.9378  111.0691  128.5214 C   0  0  0  0  0
  102.4939  111.2654  127.1183 C   0  0  0  0  0
  102.5205  109.7707  126.8115 C   0  0  0  0  0
  103.3702  109.2070  127.9530 C   0  0  0  0  0
  102.9513  110.0885  129.1415 C   0  0  0  0  0
  103.0565  109.3852  125.4386 C   0  0  0  0  0
  101.5713  112.0931  126.2183 C   0  0  0  0  0
  103.8719  111.9386  127.1069 C   0  0  0  0  0
   99.4628  108.4237  125.3815 C   0  0  0  0  0
   98.4439  109.9445  123.5588 C   0  0  0  0  0
   97.4775  109.5859  122.3985 C   0  0  0  0  0
   97.2863  108.1109  122.5864 C   0  0  0  0  0
   96.5089  107.2393  121.6536 C   0  0  0  0  0
   95.2529  106.7012  122.3212 C   0  0  0  0  0
   95.5881  105.5305  123.2257 C   0  0  0  0  0
   94.3247  105.0336  123.8953 C   0  0  0  0  0
   96.1629  110.3247  122.3680 C   0  0  0  0  0
   95.9197  111.2258  121.3256 C   0  0  0  0  0
   94.7092  111.9226  121.2643 C   0  0  0  0  0
   93.7347  111.7201  122.2458 C   0  0  0  0  0
   93.9694  110.8204  123.2892 C   0  0  0  0  0
   95.1792  110.1235  123.3514 C   0  0  0  0  0
   97.9229  111.0068  124.5240 C   0  0  0  0  0
   99.7631  110.4098  122.9669 C   0  0  0  0  0
  100.1971  109.4965  125.9735 N   0  0  0  0  0
   98.6222  108.6668  124.2450 N   0  0  0  0  0
   97.9319  107.6430  123.5971 N   0  0  0  0  0
   99.5547  107.2585  125.8544 O   0  0  0  0  0
  1  2  1  0  0  0
  1 27  1  0  0  0
  3  2  1  0  0  0
  3  4  1  0  0  0
  4  5  1  0  0  0
  4  9  1  0  0  0
  4 10  1  0  0  0
  5  6  1  0  0  0
  5  8  1  0  0  0
  5  1  1  0  0  0
  6  7  1  0  0  0
  7  3  1  0  0  0
 11 28  1  0  0  0
 12 28  1  0  0  0
 12 13  1  0  0  0
 12 25  1  0  0  0
 12 26  1  0  0  0
 13 14  1  0  0  0
 13 19  1  0  0  0
 15 14  1  0  0  0
 15 16  1  0  0  0
 16 17  1  0  0  0
 17 18  1  0  0  0
 20 21  1  0  0  0
 22 23  1  0  0  0
 24 19  1  0  0  0
 27 11  1  0  0  0
 28 29  1  0  0  0
 11 30  2  0  0  0
 14 29  2  0  0  0
 19 20  2  0  0  0
 21 22  2  0  0  0
 23 24  2  0  0  0
M  END
> <rmsd>
0.536598861

$$$$
CHEMBL2387742_8GUR


 21 22  0  0  0  0  0  0  0  0999 V2000
  103.0497  109.5389  125.2010 C   0  0  0  0  0
  101.8524  110.0555  125.4602 C   0  0  0  0  0
  101.4751  110.3587  126.8731 C   0  0  0  0  0
  100.8749  110.2506  124.3410 C   0  0  0  0  0
  100.5019  111.7409  124.1899 C   0  0  0  0  0
   99.0880  112.0450  124.6878 C   0  0  0  0  0
   98.1155  111.1350  123.9983 C   0  0  0  0  0
   96.8834  111.6894  123.3726 C   0  0  0  0  0
   98.4002  109.8342  123.8827 C   0  0  0  0  0
   99.6688  109.2923  124.4880 C   0  0  0  0  0
   99.9775  107.9094  123.9838 C   0  0  0  0  0
   99.9455  106.8290  124.8829 C   0  0  0  0  0
  100.2343  105.5363  124.4379 C   0  0  0  0  0
  100.5526  105.3071  123.0970 C   0  0  0  0  0
  100.8776  103.9303  122.6327 C   0  0  0  0  0
  102.3653  103.6695  122.7721 C   0  0  0  0  0
  102.6780  102.2669  122.2961 C   0  0  0  0  0
  100.5915  106.3759  122.1982 C   0  0  0  0  0
  100.3045  107.6729  122.6319 C   0  0  0  0  0
   99.6307  107.0316  126.2218 O   0  0  0  0  0
  100.3472  108.7172  121.7154 O   0  0  0  0  0
  3  2  1  0  0  0
  4  2  1  0  0  0
  4  5  1  0  0  0
  5  6  1  0  0  0
  6  7  1  0  0  0
  8  7  1  0  0  0
 10  9  1  0  0  0
 10 11  1  0  0  0
 10  4  1  0  0  0
 12 20  1  0  0  0
 12 13  1  0  0  0
 14 18  1  0  0  0
 15 14  1  0  0  0
 15 16  1  0  0  0
 16 17  1  0  0  0
 19 21  1  0  0  0
 19 11  1  0  0  0
  1  2  2  0  0  0
  7  9  2  0  0  0
 11 12  2  0  0  0
 13 14  2  0  0  0
 18 19  2  0  0  0
M  END
> <rmsd>
0.447951496

$$$$
CHEMBL3967364_8GUT


 28 31  0  0  0  0  0  0  0  0999 V2000
  102.0275  111.1323  127.8591 C   0  0  0  0  0
  101.3511  109.8132  127.5309 C   0  0  0  0  0
  101.6569  110.0270  126.0618 C   0  0  0  0  0
  102.3273  111.3506  126.3874 C   0  0  0  0  0
  100.4130  110.1175  125.2081 C   0  0  0  0  0
   99.5943  108.9904  125.0096 C   0  0  0  0  0
   98.1184  110.2521  123.6183 C   0  0  0  0  0
   98.9214  111.3854  123.7756 C   0  0  0  0  0
  100.0634  111.3152  124.5702 C   0  0  0  0  0
   96.9119  110.2757  122.7641 C   0  0  0  0  0
   95.3845  111.5712  121.2255 C   0  0  0  0  0
   94.8441  112.9883  121.1991 C   0  0  0  0  0
   95.6351  113.7832  122.2292 C   0  0  0  0  0
   96.3791  112.7681  123.0801 C   0  0  0  0  0
   95.7567  112.6754  124.4396 C   0  0  0  0  0
   99.1590  106.5886  125.4234 C   0  0  0  0  0
   99.4464  105.9950  124.0566 C   0  0  0  0  0
  100.4109  104.8379  124.2099 C   0  0  0  0  0
   98.9328  104.5718  124.0182 C   0  0  0  0  0
   98.4824  109.0903  124.2270 N   0  0  0  0  0
   96.2657  111.5014  122.3746 N   0  0  0  0  0
   96.5178  113.0313  125.5871 N   0  0  0  0  0
   96.4374  109.1787  122.3621 O   0  0  0  0  0
   94.5662  112.2860  124.5761 O   0  0  0  0  0
   99.9230  107.7729  125.6159 O   0  0  0  0  0
   93.5046  112.9832  121.5395 F   0  0  0  0  0
   95.0086  113.5388  119.9427 F   0  0  0  0  0
  102.5673  109.1006  125.5846 F   0  0  0  0  0
  1  2  1  0  0  0
  2  3  1  0  0  0
  3  4  1  0  0  0
  3  5  1  0  0  0
  3 28  1  0  0  0
  4  1  1  0  0  0
  5  6  1  0  0  0
  6 25  1  0  0  0
  7 20  1  0  0  0
  7 10  1  0  0  0
  8  9  1  0  0  0
 10 21  1  0  0  0
 11 21  1  0  0  0
 11 12  1  0  0  0
 12 13  1  0  0  0
 12 26  1  0  0  0
 12 27  1  0  0  0
 13 14  1  0  0  0
 14 15  1  0  0  0
 14 21  1  0  0  0
 15 22  1  0  0  0
 16 25  1  0  0  0
 16 17  1  0  0  0
 17 18  1  0  0  0
 18 19  1  0  0  0
 19 17  1  0  0  0
  6 20  2  0  0  0
  7  8  2  0  0  0
  9  5  2  0  0  0
 10 23  2  0  0  0
 15 24  2  0  0  0
M  END
> <rmsd>
0.619704843

$$$$
CHEMBL3906383_5ZTY


 28 31  0  0  0  0  0  0  0  0999 V2000
   99.6535  110.4677  124.2114 C   0  0  0  0  0
   99.5991  108.1157  125.1204 C   0  0  0  0  0
   98.4852  107.6703  124.2523 C   0  0  0  0  0
   97.2612  107.8744  122.2117 C   0  0  0  0  0
   96.4322  106.7925  122.5794 C   0  0  0  0  0
   96.6382  106.1804  123.8179 C   0  0  0  0  0
   97.6599  106.6168  124.6587 C   0  0  0  0  0
   95.1015  106.2746  120.2636 C   0  0  0  0  0
   94.0196  105.2672  120.3504 C   0  0  0  0  0
   94.3773  105.2382  121.7876 C   0  0  0  0  0
   95.8379  109.1740  120.6870 C   0  0  0  0  0
   95.9453  109.8466  119.3352 C   0  0  0  0  0
   95.9833  111.3478  119.5304 C   0  0  0  0  0
   94.6999  110.6732  119.0956 C   0  0  0  0  0
  101.6097  109.5937  125.5055 C   0  0  0  0  0
  102.6935  108.6011  125.1359 C   0  0  0  0  0
  102.6915  109.9983  124.5243 C   0  0  0  0  0
  101.6557  110.2506  126.8893 C   0  0  0  0  0
  100.3054  109.3518  124.8857 N   0  0  0  0  0
   98.2671  108.2581  123.0440 N   0  0  0  0  0
   95.4457  106.2491  121.6970 N   0  0  0  0  0
   99.9491  107.3778  126.0826 O   0  0  0  0  0
   97.0830  108.5795  121.0213 O   0  0  0  0  0
   94.3062  104.0902  119.6856 F   0  0  0  0  0
   92.7623  105.7854  120.1046 F   0  0  0  0  0
  100.9475  109.4809  127.7927 F   0  0  0  0  0
  101.0815  111.5064  126.8225 F   0  0  0  0  0
  102.9597  110.3785  127.3387 F   0  0  0  0  0
  1 19  1  0  0  0
  2  3  1  0  0  0
  4 20  1  0  0  0
  4 23  1  0  0  0
  5  6  1  0  0  0
  5 21  1  0  0  0
  7  3  1  0  0  0
  8 21  1  0  0  0
  8  9  1  0  0  0
  9 10  1  0  0  0
  9 24  1  0  0  0
  9 25  1  0  0  0
 10 21  1  0  0  0
 11 23  1  0  0  0
 11 12  1  0  0  0
 12 13  1  0  0  0
 13 14  1  0  0  0
 14 12  1  0  0  0
 15 19  1  0  0  0
 15 16  1  0  0  0
 15 18  1  0  0  0
 16 17  1  0  0  0
 17 15  1  0  0  0
 18 26  1  0  0  0
 18 27  1  0  0  0
 18 28  1  0  0  0
 19  2  1  0  0  0
  2 22  2  0  0  0
  3 20  2  0  0  0
  4  5  2  0  0  0
  6  7  2  0  0  0
M  END
> <rmsd>
0.443691075

$$$$
CHEMBL1909856_5ZTY


 29 32  0  0  0  0  0  0  0  0999 V2000
   98.9046  110.5201  124.3834 C   0  0  0  0  0
   99.2844  109.2547  125.0747 C   0  0  0  0  0
   98.8154  107.9724  124.8372 C   0  0  0  0  0
   97.7860  107.5657  123.8686 C   0  0  0  0  0
   96.4486  105.7005  122.7991 C   0  0  0  0  0
   96.0184  104.2785  123.1849 C   0  0  0  0  0
   95.5583  103.4304  121.9910 C   0  0  0  0  0
   94.9485  104.3001  120.8954 C   0  0  0  0  0
   95.9715  105.3044  120.3468 C   0  0  0  0  0
   97.0182  105.7410  121.3810 C   0  0  0  0  0
  101.1430  107.1702  127.3929 C   0  0  0  0  0
  101.3898  105.7911  127.3511 C   0  0  0  0  0
  102.1618  105.1790  128.3415 C   0  0  0  0  0
  102.6917  105.9360  129.3899 C   0  0  0  0  0
  102.4392  107.3166  129.4486 C   0  0  0  0  0
  101.6642  107.9217  128.4563 C   0  0  0  0  0
  100.2461  109.0943  126.0487 C   0  0  0  0  0
  100.6815  111.2558  127.1526 C   0  0  0  0  0
  101.7790  112.0483  127.4473 C   0  0  0  0  0
  102.9042  111.3807  126.9840 C   0  0  0  0  0
  102.4372  110.2076  126.4327 C   0  0  0  0  0
   97.2132  108.4273  123.1480 O   0  0  0  0  0
   97.4351  106.1843  123.7529 N   0  0  0  0  0
   99.4631  107.1017  125.6401 N   0  0  0  0  0
  100.3299  107.7837  126.3770 N   0  0  0  0  0
  101.0998  110.1322  126.5472 N   0  0  0  0  0
  103.6590  105.1260  130.6109 Cl  0  0  0  0  0
  103.0752  108.3153  130.7447 Cl  0  0  0  0  0
  103.4470  109.0184  125.6262 Cl  0  0  0  0  0
  1  2  1  0  0  0
  2  3  1  0  0  0
  3  4  1  0  0  0
  4 23  1  0  0  0
  5 23  1  0  0  0
  5  6  1  0  0  0
  6  7  1  0  0  0
  7  8  1  0  0  0
  8  9  1  0  0  0
  9 10  1  0  0  0
 10  5  1  0  0  0
 12 13  1  0  0  0
 14 27  1  0  0  0
 14 15  1  0  0  0
 15 28  1  0  0  0
 16 11  1  0  0  0
 17 26  1  0  0  0
 19 20  1  0  0  0
 21 29  1  0  0  0
 21 26  1  0  0  0
 25 24  1  0  0  0
 25 11  1  0  0  0
 25 17  1  0  0  0
 26 18  1  0  0  0
  3 24  2  0  0  0
  4 22  2  0  0  0
 11 12  2  0  0  0
 13 14  2  0  0  0
 15 16  2  0  0  0
 17  2  2  0  0  0
 18 19  2  0  0  0
 20 21  2  0  0  0
M  END
> <rmsd>
0.660237253

$$$$
CHEMBL1909957_8GUQ


 31 34  0  0  0  0  0  0  0  0999 V2000
   99.6681  110.9318  123.8225 C   0  0  0  0  0
   98.6376  110.3120  124.7469 C   0  0  0  0  0
   99.1687  109.0512  125.3494 C   0  0  0  0  0
   98.7226  107.7543  125.1463 C   0  0  0  0  0
   97.6035  107.3207  124.2963 C   0  0  0  0  0
   96.1768  105.4210  123.4116 C   0  0  0  0  0
   94.8400  105.7647  124.0941 C   0  0  0  0  0
   94.2022  104.5878  124.8410 C   0  0  0  0  0
   95.2698  103.7365  125.5179 C   0  0  0  0  0
   96.2215  103.1098  124.4910 C   0  0  0  0  0
   96.3382  103.9149  123.1872 C   0  0  0  0  0
  101.3616  107.0047  127.3993 C   0  0  0  0  0
  101.6154  105.6276  127.3311 C   0  0  0  0  0
  102.5261  105.0301  128.2058 C   0  0  0  0  0
  103.1912  105.7998  129.1641 C   0  0  0  0  0
  102.9358  107.1783  129.2491 C   0  0  0  0  0
  102.0220  107.7687  128.3725 C   0  0  0  0  0
  100.2324  108.9136  126.2184 C   0  0  0  0  0
  102.3831  110.1594  126.3278 C   0  0  0  0  0
  103.1694  109.2533  125.4426 C   0  0  0  0  0
  102.8767  111.3192  126.8944 C   0  0  0  0  0
  101.8208  111.8784  127.6041 C   0  0  0  0  0
  100.7464  111.0282  127.4222 C   0  0  0  0  0
   99.3968  111.2355  128.0203 C   0  0  0  0  0
   96.9241  108.1676  123.6552 O   0  0  0  0  0
   97.2926  105.9286  124.1997 N   0  0  0  0  0
   99.4892  106.8981  125.8545 N   0  0  0  0  0
  100.4057  107.6024  126.5048 N   0  0  0  0  0
  101.0906  109.9784  126.6553 N   0  0  0  0  0
  104.3294  105.0079  130.2411 Cl  0  0  0  0  0
  103.7383  108.1930  130.4356 Cl  0  0  0  0  0
  1  2  1  0  0  0
  2  3  1  0  0  0
  3  4  1  0  0  0
  4  5  1  0  0  0
  5 26  1  0  0  0
  6 26  1  0  0  0
  6  7  1  0  0  0
  7  8  1  0  0  0
  8  9  1  0  0  0
  9 10  1  0  0  0
 10 11  1  0  0  0
 11  6  1  0  0  0
 13 14  1  0  0  0
 15 30  1  0  0  0
 15 16  1  0  0  0
 16 31  1  0  0  0
 17 12  1  0  0  0
 18 29  1  0  0  0
 20 19  1  0  0  0
 21 22  1  0  0  0
 23 29  1  0  0  0
 24 23  1  0  0  0
 28 27  1  0  0  0
 28 12  1  0  0  0
 28 18  1  0  0  0
 29 19  1  0  0  0
  4 27  2  0  0  0
  5 25  2  0  0  0
 12 13  2  0  0  0
 14 15  2  0  0  0
 16 17  2  0  0  0
 18  3  2  0  0  0
 19 21  2  0  0  0
 22 23  2  0  0  0
M  END
> <rmsd>
0.433578521

$$$$
CHEMBL429797_8GUR


 26 28  0  0  0  0  0  0  0  0999 V2000
   99.2621  110.7702  124.0583 C   0  0  0  0  0
   98.4943  110.8755  122.7544 C   0  0  0  0  0
   99.1527  110.0353  121.6703 C   0  0  0  0  0
  100.2967  110.7893  121.0029 C   0  0  0  0  0
  101.5692  110.7061  121.8287 C   0  0  0  0  0
  102.2039  109.3257  121.6874 C   0  0  0  0  0
  103.3277  109.0867  122.7002 C   0  0  0  0  0
  103.9030  107.7048  122.4438 C   0  0  0  0  0
  104.4520  110.0906  122.4544 C   0  0  0  0  0
  102.7863  109.1467  124.1196 C   0  0  0  0  0
  101.7798  108.2559  124.5176 C   0  0  0  0  0
  101.2396  108.2966  125.8045 C   0  0  0  0  0
  101.7048  109.2558  126.7405 C   0  0  0  0  0
  102.7229  110.1561  126.3354 C   0  0  0  0  0
  103.2471  110.0940  125.0436 C   0  0  0  0  0
  102.7596  111.2138  128.4158 C   0  0  0  0  0
  101.7536  110.3729  128.9109 C   0  0  0  0  0
  101.2823  110.5105  130.2255 C   0  0  0  0  0
  100.2799  109.6681  130.7077 C   0  0  0  0  0
   99.7410  108.6826  129.8809 C   0  0  0  0  0
  100.2043  108.5388  128.5716 C   0  0  0  0  0
  101.2133  109.3755  128.0641 C   0  0  0  0  0
  100.2451  107.3785  126.1216 O   0  0  0  0  0
  103.1955  111.0741  127.1706 O   0  0  0  0  0
  103.2617  112.1114  129.1446 O   0  0  0  0  0
   98.7438  107.8445  130.3596 O   0  0  0  0  0
  1  2  1  0  0  0
  2  3  1  0  0  0
  3  4  1  0  0  0
  4  5  1  0  0  0
  5  6  1  0  0  0
  6  7  1  0  0  0
  7  8  1  0  0  0
  7  9  1  0  0  0
  7 10  1  0  0  0
 11 12  1  0  0  0
 12 23  1  0  0  0
 13 14  1  0  0  0
 14 24  1  0  0  0
 15 10  1  0  0  0
 16 24  1  0  0  0
 16 17  1  0  0  0
 18 19  1  0  0  0
 20 26  1  0  0  0
 20 21  1  0  0  0
 22 17  1  0  0  0
 22 13  1  0  0  0
 10 11  2  0  0  0
 12 13  2  0  0  0
 14 15  2  0  0  0
 16 25  2  0  0  0
 17 18  2  0  0  0
 19 20  2  0  0  0
 21 22  2  0  0  0
M  END
> <rmsd>
0.570622325

$$$$
CHEMBL4647926_8GUS


 32 33  0  0  0  0  0  0  0  0999 V2000
   98.2148  107.7271  125.2553 C   0  0  0  0  0
   98.1303  108.6216  124.1864 C   0  0  0  0  0
   99.2925  109.1416  123.6073 C   0  0  0  0  0
  100.5526  108.7682  124.1067 C   0  0  0  0  0
  100.6264  107.8655  125.1803 C   0  0  0  0  0
   99.4668  107.3446  125.7594 C   0  0  0  0  0
   98.4617  105.8869  127.4864 C   0  0  0  0  0
  103.0029  109.1487  124.1145 C   0  0  0  0  0
  103.4080  110.4188  124.8545 C   0  0  0  0  0
  102.4568  110.7371  125.9989 C   0  0  0  0  0
  102.6226  109.7394  127.1287 C   0  0  0  0  0
  101.5477  109.9798  128.1713 C   0  0  0  0  0
  101.6155  108.9194  129.2549 C   0  0  0  0  0
  102.7920  109.1806  130.1814 C   0  0  0  0  0
  102.8622  108.1151  131.2601 C   0  0  0  0  0
  101.7833  108.3468  132.3055 C   0  0  0  0  0
  101.8589  107.2789  133.3891 C   0  0  0  0  0
  102.9674  107.5079  134.3730 C   0  0  0  0  0
  104.2394  106.6717  136.3961 C   0  0  0  0  0
  105.5790  106.3539  135.7586 C   0  0  0  0  0
  106.6290  106.2444  136.8438 C   0  0  0  0  0
  106.0430  104.9912  136.2295 C   0  0  0  0  0
   99.1657  110.1294  122.4906 C   0  0  0  0  0
   99.4721  111.5401  122.9730 C   0  0  0  0  0
   98.3436  112.0680  123.8441 C   0  0  0  0  0
   98.7577  113.3662  124.5117 C   0  0  0  0  0
   99.7123  113.0853  125.6572 C   0  0  0  0  0
  100.1297  114.3908  126.2996 C   0  0  0  0  0
   99.5868  106.4556  126.8309 O   0  0  0  0  0
  101.7131  109.3027  123.5322 O   0  0  0  0  0
  103.7030  108.5308  134.2982 O   0  0  0  0  0
  103.1739  106.5487  135.4117 N   0  0  0  0  0
  2  3  1  0  0  0
  4  5  1  0  0  0
  4 30  1  0  0  0
  6 29  1  0  0  0
  6  1  1  0  0  0
  7 29  1  0  0  0
  8 30  1  0  0  0
  8  9  1  0  0  0
  9 10  1  0  0  0
 10 11  1  0  0  0
 11 12  1  0  0  0
 12 13  1  0  0  0
 13 14  1  0  0  0
 14 15  1  0  0  0
 15 16  1  0  0  0
 16 17  1  0  0  0
 17 18  1  0  0  0
 18 32  1  0  0  0
 19 32  1  0  0  0
 19 20  1  0  0  0
 20 21  1  0  0  0
 21 22  1  0  0  0
 22 20  1  0  0  0
 23  3  1  0  0  0
 23 24  1  0  0  0
 24 25  1  0  0  0
 25 26  1  0  0  0
 26 27  1  0  0  0
 27 28  1  0  0  0
  1  2  2  0  0  0
  3  4  2  0  0  0
  5  6  2  0  0  0
 18 31  2  0  0  0
M  END
> <rmsd>
0.953952849

$$$$
CHEMBL4089341_6PT0


 23 25  0  0  0  0  0  0  0  0999 V2000
   95.3147  111.8474  121.3862 C   0  0  0  0  0
   95.7674  110.5201  121.9647 C   0  0  0  0  0
   95.4160  110.4353  123.4423 C   0  0  0  0  0
   96.3248  111.3275  124.2797 C   0  0  0  0  0
   98.0872  109.6416  124.8542 C   0  0  0  0  0
   99.4643  109.5015  124.6814 C   0  0  0  0  0
   99.8853  110.6217  123.9825 C   0  0  0  0  0
  101.1392  110.9883  123.4926 C   0  0  0  0  0
  101.2377  112.2023  122.7906 C   0  0  0  0  0
  100.0968  113.0075  122.5869 C   0  0  0  0  0
   98.8421  112.6061  123.0783 C   0  0  0  0  0
   98.7759  111.3980  123.7742 C   0  0  0  0  0
  100.2654  108.3413  125.1202 C   0  0  0  0  0
  101.7234  108.4258  125.3390 C   0  0  0  0  0
  102.5402  107.4094  124.8244 C   0  0  0  0  0
  103.9233  107.4449  125.0118 C   0  0  0  0  0
  104.5035  108.4942  125.7251 C   0  0  0  0  0
  103.6994  109.5019  126.2608 C   0  0  0  0  0
  102.3056  109.4747  126.0839 C   0  0  0  0  0
  102.0125  111.5549  127.3990 C   0  0  0  0  0
   97.6867  110.8085  124.2963 N   0  0  0  0  0
   99.6858  107.2367  125.3018 O   0  0  0  0  0
  101.4928  110.4632  126.6524 O   0  0  0  0  0
  1  2  1  0  0  0
  2  3  1  0  0  0
  3  4  1  0  0  0
  4 21  1  0  0  0
  6  7  1  0  0  0
  6 13  1  0  0  0
  8  9  1  0  0  0
 10 11  1  0  0  0
 12 21  1  0  0  0
 12  7  1  0  0  0
 13 14  1  0  0  0
 15 16  1  0  0  0
 17 18  1  0  0  0
 19 23  1  0  0  0
 19 14  1  0  0  0
 20 23  1  0  0  0
 21  5  1  0  0  0
  5  6  2  0  0  0
  7  8  2  0  0  0
  9 10  2  0  0  0
 11 12  2  0  0  0
 13 22  2  0  0  0
 14 15  2  0  0  0
 16 17  2  0  0  0
 18 19  2  0  0  0
M  END
> <rmsd>
0.868939638

$$$$
CHEMBL3409151_8GUS


 25 27  0  0  0  0  0  0  0  0999 V2000
  103.7600  107.8118  125.9004 C   0  0  0  0  0
  102.4827  107.3541  125.5993 C   0  0  0  0  0
  101.3648  108.1973  125.7027 C   0  0  0  0  0
  101.5409  109.5540  126.1082 C   0  0  0  0  0
  102.8534  109.9975  126.4343 C   0  0  0  0  0
  103.9429  109.1234  126.3198 C   0  0  0  0  0
  103.0600  111.3137  126.8785 C   0  0  0  0  0
  101.9661  112.1887  127.0019 C   0  0  0  0  0
  100.6992  111.7180  126.6534 C   0  0  0  0  0
   99.1175  110.1184  125.8423 C   0  0  0  0  0
   98.6970  110.8455  124.5669 C   0  0  0  0  0
   99.4180  110.2966  123.3468 C   0  0  0  0  0
   98.7433  109.0270  122.8661 C   0  0  0  0  0
  102.0937  113.5901  127.4764 C   0  0  0  0  0
  103.5334  115.4872  128.3450 C   0  0  0  0  0
  103.0459  115.5764  129.7806 C   0  0  0  0  0
  104.0923  116.3719  130.5251 C   0  0  0  0  0
  105.3885  116.0824  129.8069 C   0  0  0  0  0
  105.0089  115.8476  128.3593 C   0  0  0  0  0
   99.8657  106.3370  125.0257 C   0  0  0  0  0
  104.2264  111.7004  127.1681 O   0  0  0  0  0
  101.0652  114.3176  127.5539 O   0  0  0  0  0
  100.0927  107.6843  125.4194 O   0  0  0  0  0
  100.4948  110.4483  126.2071 N   0  0  0  0  0
  103.3667  114.1306  127.8454 N   0  0  0  0  0
  2  3  1  0  0  0
  3 23  1  0  0  0
  4  5  1  0  0  0
  5  7  1  0  0  0
  6  1  1  0  0  0
  7  8  1  0  0  0
  8 14  1  0  0  0
  9 24  1  0  0  0
 10 24  1  0  0  0
 10 11  1  0  0  0
 11 12  1  0  0  0
 12 13  1  0  0  0
 14 25  1  0  0  0
 15 25  1  0  0  0
 15 16  1  0  0  0
 16 17  1  0  0  0
 17 18  1  0  0  0
 18 19  1  0  0  0
 19 15  1  0  0  0
 20 23  1  0  0  0
 24  4  1  0  0  0
  1  2  2  0  0  0
  3  4  2  0  0  0
  5  6  2  0  0  0
  7 21  2  0  0  0
  8  9  2  0  0  0
 14 22  2  0  0  0
M  END
> <rmsd>
0.842861235

$$$$
CHEMBL240100_8GUR


 33 33  0  0  0  0  0  0  0  0999 V2000
   94.3195  117.2404  122.7193 C   0  0  0  0  0
   95.5287  117.1590  121.8068 C   0  0  0  0  0
   95.5377  115.8385  121.0497 C   0  0  0  0  0
   95.9043  114.6746  121.9586 C   0  0  0  0  0
   97.3824  114.7139  122.3058 C   0  0  0  0  0
   97.7559  113.4998  123.1517 C   0  0  0  0  0
   98.2992  112.3087  122.3372 C   0  0  0  0  0
   97.2460  111.8429  121.3398 C   0  0  0  0  0
   99.5376  112.7572  121.5697 C   0  0  0  0  0
   98.6690  111.1390  123.2330 C   0  0  0  0  0
   99.2291  109.9781  122.6702 C   0  0  0  0  0
   99.5728  108.8894  123.4745 C   0  0  0  0  0
   99.3631  108.9395  124.8603 C   0  0  0  0  0
  100.4588  106.7462  125.2544 C   0  0  0  0  0
  101.9412  107.0342  125.4071 C   0  0  0  0  0
  102.5313  107.4865  124.1085 C   0  0  0  0  0
  102.9801  108.7323  123.9063 C   0  0  0  0  0
  102.8997  109.8184  124.9354 C   0  0  0  0  0
  103.8712  109.5802  126.0500 C   0  0  0  0  0
  103.8413  110.2775  127.1929 C   0  0  0  0  0
  102.8354  111.3559  127.4781 C   0  0  0  0  0
  101.4347  110.7792  127.6467 C   0  0  0  0  0
  101.1552  110.3786  129.0889 C   0  0  0  0  0
  101.8468  109.1093  129.4587 C   0  0  0  0  0
  102.1141  106.5906  129.0660 C   0  0  0  0  0
  101.6023  106.1359  130.4201 C   0  0  0  0  0
  103.6350  106.5949  129.0558 C   0  0  0  0  0
   98.7962  110.0838  125.4267 C   0  0  0  0  0
   98.4540  111.1741  124.6229 C   0  0  0  0  0
   99.7018  107.8685  125.6936 O   0  0  0  0  0
  102.6530  109.1055  130.4261 O   0  0  0  0  0
  104.1042  106.7649  127.7539 O   0  0  0  0  0
  101.5729  107.9059  128.7299 N   0  0  0  0  0
  1  2  1  0  0  0
  2  3  1  0  0  0
  3  4  1  0  0  0
  4  5  1  0  0  0
  5  6  1  0  0  0
  6  7  1  0  0  0
  7  8  1  0  0  0
  7  9  1  0  0  0
  7 10  1  0  0  0
 11 12  1  0  0  0
 13 30  1  0  0  0
 13 28  1  0  0  0
 14 30  1  0  0  0
 14 15  1  0  0  0
 15 16  1  0  0  0
 18 17  1  0  0  0
 18 19  1  0  0  0
 21 20  1  0  0  0
 21 22  1  0  0  0
 22 23  1  0  0  0
 23 24  1  0  0  0
 24 33  1  0  0  0
 25 33  1  0  0  0
 25 26  1  0  0  0
 25 27  1  0  0  0
 27 32  1  0  0  0
 29 10  1  0  0  0
 10 11  2  0  0  0
 12 13  2  0  0  0
 16 17  2  0  0  0
 19 20  2  0  0  0
 24 31  2  0  0  0
 28 29  2  0  0  0
M  END
> <rmsd>
0.859389722

$$$$
CHEMBL2387179_5ZTY


 27 29  0  0  0  0  0  0  0  0999 V2000
   94.7627  115.2309  121.2655 C   0  0  0  0  0
   94.6498  114.6927  119.9798 C   0  0  0  0  0
   94.4347  113.3213  119.8121 C   0  0  0  0  0
   94.3319  112.4878  120.9301 C   0  0  0  0  0
   94.4417  113.0257  122.2177 C   0  0  0  0  0
   94.6598  114.3977  122.3837 C   0  0  0  0  0
   94.3480  112.1362  123.4107 C   0  0  0  0  0
   96.7797  111.9685  124.1190 C   0  0  0  0  0
   98.0370  111.1835  124.2132 C   0  0  0  0  0
   98.1547  109.8508  123.7618 C   0  0  0  0  0
   99.4325  107.7902  123.4197 C   0  0  0  0  0
   98.7946  106.8391  124.4232 C   0  0  0  0  0
   98.6013  106.5713  126.6042 C   0  0  0  0  0
  100.4506  109.7812  124.4352 C   0  0  0  0  0
  100.3655  111.1129  124.8875 C   0  0  0  0  0
   99.1577  111.7915  124.7789 C   0  0  0  0  0
  101.5084  111.8065  125.5577 C   0  0  0  0  0
  101.5496  111.3847  127.0193 C   0  0  0  0  0
  102.8440  110.6557  127.3816 C   0  0  0  0  0
  103.2822  109.5888  126.3752 C   0  0  0  0  0
  102.1420  108.6838  125.9346 C   0  0  0  0  0
  101.7618  109.0387  124.5049 C   0  0  0  0  0
   95.5857  111.3877  123.5839 N   0  0  0  0  0
   99.3448  109.1777  123.8877 N   0  0  0  0  0
   96.7609  113.1640  124.5232 O   0  0  0  0  0
   97.1631  109.2725  123.2359 O   0  0  0  0  0
   99.5395  106.8139  125.6021 O   0  0  0  0  0
  2  3  1  0  0  0
  4  5  1  0  0  0
  6  1  1  0  0  0
  7  5  1  0  0  0
  7 23  1  0  0  0
  8  9  1  0  0  0
  9 10  1  0  0  0
 10 24  1  0  0  0
 11 24  1  0  0  0
 11 12  1  0  0  0
 12 27  1  0  0  0
 13 27  1  0  0  0
 15 16  1  0  0  0
 17 15  1  0  0  0
 17 18  1  0  0  0
 18 19  1  0  0  0
 19 20  1  0  0  0
 20 21  1  0  0  0
 21 22  1  0  0  0
 22 14  1  0  0  0
 23  8  1  0  0  0
 24 14  1  0  0  0
  1  2  2  0  0  0
  3  4  2  0  0  0
  5  6  2  0  0  0
  8 25  2  0  0  0
 10 26  2  0  0  0
 14 15  2  0  0  0
 16  9  2  0  0  0
M  END
> <rmsd>
0.681661546

$$$$
CHEMBL3114519_5ZTY


 28 31  0  0  0  0  0  0  0  0999 V2000
   96.1051  109.9820  122.3691 C   0  0  0  0  0
   95.0670  109.5134  121.5489 C   0  0  0  0  0
   94.6979  108.1522  121.5670 C   0  0  0  0  0
   95.3566  107.2224  122.4045 C   0  0  0  0  0
   94.9465  105.7913  122.4001 C   0  0  0  0  0
   95.5767  104.8464  123.2271 C   0  0  0  0  0
   95.1811  103.5061  123.2130 C   0  0  0  0  0
   94.1479  103.0919  122.3700 C   0  0  0  0  0
   93.5108  104.0183  121.5418 C   0  0  0  0  0
   93.9079  105.3583  121.5573 C   0  0  0  0  0
   96.3917  107.7315  123.2119 C   0  0  0  0  0
   98.0007  108.0277  124.5742 C   0  0  0  0  0
   96.7418  109.0535  123.1893 C   0  0  0  0  0
   98.4527  110.5141  124.2842 C   0  0  0  0  0
   99.6123  110.6524  123.3158 C   0  0  0  0  0
   99.0459  107.7275  125.5706 C   0  0  0  0  0
  100.9300  108.5083  127.0575 C   0  0  0  0  0
  101.6199  109.7866  127.3965 C   0  0  0  0  0
  102.6133  110.3294  126.5595 C   0  0  0  0  0
  103.2189  111.5436  126.8989 C   0  0  0  0  0
  102.8381  112.2206  128.0606 C   0  0  0  0  0
  101.8469  111.6863  128.8874 C   0  0  0  0  0
  101.2377  110.4736  128.5540 C   0  0  0  0  0
   97.1775  107.0651  124.0815 N   0  0  0  0  0
   97.7516  109.2573  124.0477 N   0  0  0  0  0
   99.8631  108.7689  126.1054 N   0  0  0  0  0
   99.2143  106.5374  125.9514 O   0  0  0  0  0
  103.1191  109.5187  125.0847 Cl  0  0  0  0  0
  2  3  1  0  0  0
  4  5  1  0  0  0
  4 11  1  0  0  0
  6  7  1  0  0  0
  8  9  1  0  0  0
 10  5  1  0  0  0
 11 24  1  0  0  0
 12 25  1  0  0  0
 12 16  1  0  0  0
 13  1  1  0  0  0
 14 25  1  0  0  0
 14 15  1  0  0  0
 16 26  1  0  0  0
 17 26  1  0  0  0
 17 18  1  0  0  0
 19 20  1  0  0  0
 19 28  1  0  0  0
 21 22  1  0  0  0
 23 18  1  0  0  0
 25 13  1  0  0  0
  1  2  2  0  0  0
  3  4  2  0  0  0
  5  6  2  0  0  0
  7  8  2  0  0  0
  9 10  2  0  0  0
 12 24  2  0  0  0
 13 11  2  0  0  0
 16 27  2  0  0  0
 18 19  2  0  0  0
 20 21  2  0  0  0
 22 23  2  0  0  0
M  END
> <rmsd>
0.642742991

$$$$
CHEMBL3647327_8GUR


 31 33  0  0  0  0  0  0  0  0999 V2000
  104.0230  109.8495  125.6283 C   0  0  0  0  0
  102.6026  109.3922  125.8811 C   0  0  0  0  0
  101.9193  110.3629  126.8247 C   0  0  0  0  0
  100.4885  109.9205  127.0914 C   0  0  0  0  0
  100.0688  107.4984  127.4798 C   0  0  0  0  0
   99.2872  106.0581  125.6390 C   0  0  0  0  0
   99.0367  105.9875  124.1785 C   0  0  0  0  0
   98.3793  104.8569  123.6684 C   0  0  0  0  0
   98.0912  104.7356  122.3041 C   0  0  0  0  0
   98.4984  105.7460  121.4281 C   0  0  0  0  0
   99.1595  106.8732  121.9144 C   0  0  0  0  0
   99.4358  107.0100  123.2848 C   0  0  0  0  0
  100.4842  109.2413  122.9325 C   0  0  0  0  0
   99.2847  110.1406  122.6844 C   0  0  0  0  0
   98.8899  110.8462  123.9668 C   0  0  0  0  0
   97.4311  103.4949  121.7766 C   0  0  0  0  0
  100.6607  107.4492  129.8516 C   0  0  0  0  0
  100.9495  107.2479  131.1960 C   0  0  0  0  0
  101.3733  108.3633  131.9332 C   0  0  0  0  0
  101.2038  109.7804  130.0149 C   0  0  0  0  0
  100.7824  108.6902  129.2510 C   0  0  0  0  0
  100.4597  108.7208  127.9274 N   0  0  0  0  0
   99.7215  107.2889  126.2412 N   0  0  0  0  0
  101.4891  109.5884  131.3357 N   0  0  0  0  0
   99.0856  105.0337  126.3472 O   0  0  0  0  0
  100.1195  108.1386  123.7573 O   0  0  0  0  0
   99.6110  111.0900  121.7177 O   0  0  0  0  0
   96.5826  102.9572  122.7291 F   0  0  0  0  0
   96.6926  103.7856  120.6425 F   0  0  0  0  0
   98.4003  102.5623  121.4576 F   0  0  0  0  0
  100.1270  106.3319  128.7169 S   0  0  0  0  0
  1  2  1  0  0  0
  2  3  1  0  0  0
  3  4  1  0  0  0
  4 22  1  0  0  0
  5 31  1  0  0  0
  6 23  1  0  0  0
  6  7  1  0  0  0
  8  9  1  0  0  0
 10 11  1  0  0  0
 12 26  1  0  0  0
 12  7  1  0  0  0
 13 26  1  0  0  0
 13 14  1  0  0  0
 14 15  1  0  0  0
 14 27  1  0  0  0
 16  9  1  0  0  0
 16 28  1  0  0  0
 16 29  1  0  0  0
 16 30  1  0  0  0
 17 31  1  0  0  0
 18 19  1  0  0  0
 20 24  1  0  0  0
 21 22  1  0  0  0
 21 17  1  0  0  0
 22  5  1  0  0  0
  5 23  2  0  0  0
  6 25  2  0  0  0
  7  8  2  0  0  0
  9 10  2  0  0  0
 11 12  2  0  0  0
 17 18  2  0  0  0
 19 24  2  0  0  0
 20 21  2  0  0  0
M  END
> <rmsd>
0.691193998

$$$$
CHEMBL4581598_8GUR


 23 25  0  0  0  0  0  0  0  0999 V2000
   99.1397  111.7518  122.5773 C   0  0  0  0  0
   97.7729  111.7581  122.9359 C   0  0  0  0  0
   97.2759  110.7480  123.7830 C   0  0  0  0  0
   98.1547  109.7718  124.2404 C   0  0  0  0  0
   99.4973  109.7636  123.8903 C   0  0  0  0  0
  100.0094  110.7566  123.0509 C   0  0  0  0  0
   99.4329  107.9431  125.1995 C   0  0  0  0  0
  101.6461  108.5262  124.2232 C   0  0  0  0  0
  102.4590  109.4703  125.0962 C   0  0  0  0  0
  102.3709  109.0551  126.5552 C   0  0  0  0  0
  103.1045  110.0515  127.4341 C   0  0  0  0  0
  102.2859  111.3193  127.5916 C   0  0  0  0  0
   96.8825  112.8244  122.4180 C   0  0  0  0  0
   95.4227  112.8958  122.7564 C   0  0  0  0  0
   94.6577  111.6768  122.2151 C   0  0  0  0  0
   93.4268  111.3141  123.0535 C   0  0  0  0  0
   92.7659  112.5662  123.6209 C   0  0  0  0  0
   93.7084  113.3178  124.5716 C   0  0  0  0  0
   95.1964  113.1205  124.2523 C   0  0  0  0  0
  100.2151  108.7383  124.4274 N   0  0  0  0  0
   99.8606  106.9264  125.8081 O   0  0  0  0  0
   97.3561  113.7142  121.6617 O   0  0  0  0  0
   97.8267  108.4686  125.2522 S   0  0  0  0  0
  2  3  1  0  0  0
  2 13  1  0  0  0
  4  5  1  0  0  0
  4 23  1  0  0  0
  5 20  1  0  0  0
  6  1  1  0  0  0
  7 23  1  0  0  0
  8 20  1  0  0  0
  8  9  1  0  0  0
  9 10  1  0  0  0
 10 11  1  0  0  0
 11 12  1  0  0  0
 14 13  1  0  0  0
 14 15  1  0  0  0
 15 16  1  0  0  0
 16 17  1  0  0  0
 17 18  1  0  0  0
 18 19  1  0  0  0
 19 14  1  0  0  0
 20  7  1  0  0  0
  1  2  2  0  0  0
  3  4  2  0  0  0
  5  6  2  0  0  0
  7 21  2  0  0  0
 13 22  2  0  0  0
M  END
> <rmsd>
0.673860073

$$$$
CHEMBL3409150_8GUS


 24 25  0  0  0  0  0  0  0  0999 V2000
  103.8699  107.9473  125.3517 C   0  0  0  0  0
  102.5749  107.4520  125.2554 C   0  0  0  0  0
  101.4842  108.1607  125.7843 C   0  0  0  0  0
  101.7040  109.4174  126.4237 C   0  0  0  0  0
  103.0387  109.9007  126.5253 C   0  0  0  0  0
  104.1001  109.1619  125.9853 C   0  0  0  0  0
  103.2967  111.1205  127.1720 C   0  0  0  0  0
  102.2327  111.8595  127.7193 C   0  0  0  0  0
  100.9382  111.3545  127.5860 C   0  0  0  0  0
   99.2714  109.8006  126.8694 C   0  0  0  0  0
   98.5355  110.6439  125.8345 C   0  0  0  0  0
   98.9861  110.2884  124.4306 C   0  0  0  0  0
   98.2499  111.1534  123.4302 C   0  0  0  0  0
  102.4177  113.1527  128.4257 C   0  0  0  0  0
  104.0130  114.9797  129.2760 C   0  0  0  0  0
  105.5071  115.2214  129.2463 C   0  0  0  0  0
  103.5596  114.9194  130.7232 C   0  0  0  0  0
  103.3209  116.1303  128.5684 C   0  0  0  0  0
   99.9284  106.3698  125.0487 C   0  0  0  0  0
  104.4830  111.5433  127.2591 O   0  0  0  0  0
  101.4099  113.7615  128.8803 O   0  0  0  0  0
  100.1985  107.6143  125.6813 O   0  0  0  0  0
  100.6811  110.1784  126.9513 N   0  0  0  0  0
  103.7254  113.7178  128.5988 N   0  0  0  0  0
  2  3  1  0  0  0
  3 22  1  0  0  0
  4  5  1  0  0  0
  5  7  1  0  0  0
  6  1  1  0  0  0
  7  8  1  0  0  0
  8 14  1  0  0  0
  9 23  1  0  0  0
 10 23  1  0  0  0
 10 11  1  0  0  0
 11 12  1  0  0  0
 12 13  1  0  0  0
 14 24  1  0  0  0
 15 24  1  0  0  0
 15 16  1  0  0  0
 15 17  1  0  0  0
 15 18  1  0  0  0
 19 22  1  0  0  0
 23  4  1  0  0  0
  1  2  2  0  0  0
  3  4  2  0  0  0
  5  6  2  0  0  0
  7 20  2  0  0  0
  8  9  2  0  0  0
 14 21  2  0  0  0
M  END
> <rmsd>
0.65579474

$$$$
CHEMBL4516360_6PT0


 27 30  0  0  0  0  0  0  0  0999 V2000
   91.7349  110.3302  123.2999 C   0  0  0  0  0
   93.1766  109.9636  123.5806 C   0  0  0  0  0
   94.0261  110.2863  122.3658 C   0  0  0  0  0
   95.4790  109.9329  122.6266 C   0  0  0  0  0
   96.1197  110.9659  123.5398 C   0  0  0  0  0
   97.9387  109.5380  124.4871 C   0  0  0  0  0
   99.3312  109.5534  124.5478 C   0  0  0  0  0
   99.7388  110.6817  123.8547 C   0  0  0  0  0
   98.6027  111.3121  123.4162 C   0  0  0  0  0
   98.6666  112.4924  122.6668 C   0  0  0  0  0
   99.9364  113.0142  122.3669 C   0  0  0  0  0
  101.1024  112.3562  122.8104 C   0  0  0  0  0
  101.0121  111.1716  123.5610 C   0  0  0  0  0
  100.1684  108.5241  125.1962 C   0  0  0  0  0
  101.5725  108.7789  125.5795 C   0  0  0  0  0
  102.5523  107.8812  125.1348 C   0  0  0  0  0
  103.8971  108.0718  125.4582 C   0  0  0  0  0
  104.2826  109.1609  126.2403 C   0  0  0  0  0
  103.3236  110.0590  126.7115 C   0  0  0  0  0
  103.7187  111.1358  127.5102 C   0  0  0  0  0
  102.7650  112.0268  128.0083 C   0  0  0  0  0
  101.4121  111.8419  127.7140 C   0  0  0  0  0
  101.0087  110.7695  126.9148 C   0  0  0  0  0
  101.9548  109.8716  126.3936 C   0  0  0  0  0
   97.5110  110.6199  123.7941 N   0  0  0  0  0
   97.5480  113.1208  122.2296 F   0  0  0  0  0
   99.6760  107.3842  125.4132 O   0  0  0  0  0
  1  2  1  0  0  0
  2  3  1  0  0  0
  3  4  1  0  0  0
  4  5  1  0  0  0
  5 25  1  0  0  0
  7  8  1  0  0  0
  7 14  1  0  0  0
  9 10  1  0  0  0
  9 25  1  0  0  0
 10 26  1  0  0  0
 11 12  1  0  0  0
 13  8  1  0  0  0
 14 15  1  0  0  0
 16 17  1  0  0  0
 18 19  1  0  0  0
 20 21  1  0  0  0
 22 23  1  0  0  0
 24 15  1  0  0  0
 24 19  1  0  0  0
 25  6  1  0  0  0
  6  7  2  0  0  0
  8  9  2  0  0  0
 10 11  2  0  0  0
 12 13  2  0  0  0
 14 27  2  0  0  0
 15 16  2  0  0  0
 17 18  2  0  0  0
 19 20  2  0  0  0
 21 22  2  0  0  0
 23 24  2  0  0  0
M  END
> <rmsd>
0.717735112

$$$$
CHEMBL3409149_5ZTY


 30 34  0  0  0  0  0  0  0  0999 V2000
  103.7201  108.1406  125.0840 C   0  0  0  0  0
  102.4576  107.5592  125.0850 C   0  0  0  0  0
  101.3636  108.1977  125.6907 C   0  0  0  0  0
  101.5454  109.4701  126.3105 C   0  0  0  0  0
  102.8477  110.0439  126.3088 C   0  0  0  0  0
  103.9137  109.3736  125.6940 C   0  0  0  0  0
  103.0689  111.2856  126.9268 C   0  0  0  0  0
  102.0007  111.9565  127.5484 C   0  0  0  0  0
  100.7379  111.3624  127.5176 C   0  0  0  0  0
   99.1348  109.6857  126.9461 C   0  0  0  0  0
   98.2394  110.4837  126.0003 C   0  0  0  0  0
   98.5023  110.1307  124.5454 C   0  0  0  0  0
   99.6090  111.0002  123.9809 C   0  0  0  0  0
  102.1485  113.2671  128.2305 C   0  0  0  0  0
  103.6677  115.2093  128.9433 C   0  0  0  0  0
  105.1573  115.5646  128.7974 C   0  0  0  0  0
  105.4488  116.9173  129.4683 C   0  0  0  0  0
  105.0857  116.8317  130.9595 C   0  0  0  0  0
  103.5969  116.4844  131.1181 C   0  0  0  0  0
  103.3206  115.1319  130.4429 C   0  0  0  0  0
  102.7470  117.5725  130.4412 C   0  0  0  0  0
  103.1023  117.6671  128.9480 C   0  0  0  0  0
  104.5941  118.0075  128.8021 C   0  0  0  0  0
  102.8264  116.3138  128.2744 C   0  0  0  0  0
   99.8797  106.3058  125.0686 C   0  0  0  0  0
  104.2265  111.7893  126.9216 O   0  0  0  0  0
  101.1388  113.8104  128.7579 O   0  0  0  0  0
  100.1122  107.5684  125.6798 O   0  0  0  0  0
  100.5151  110.1653  126.9099 N   0  0  0  0  0
  103.4228  113.9231  128.2980 N   0  0  0  0  0
  2  3  1  0  0  0
  3 28  1  0  0  0
  4  5  1  0  0  0
  5  7  1  0  0  0
  6  1  1  0  0  0
  7  8  1  0  0  0
  8 14  1  0  0  0
  9 29  1  0  0  0
 10 29  1  0  0  0
 10 11  1  0  0  0
 11 12  1  0  0  0
 12 13  1  0  0  0
 14 30  1  0  0  0
 15 30  1  0  0  0
 15 16  1  0  0  0
 16 17  1  0  0  0
 17 18  1  0  0  0
 18 19  1  0  0  0
 19 20  1  0  0  0
 19 21  1  0  0  0
 20 15  1  0  0  0
 21 22  1  0  0  0
 22 23  1  0  0  0
 22 24  1  0  0  0
 23 17  1  0  0  0
 24 15  1  0  0  0
 25 28  1  0  0  0
 29  4  1  0  0  0
  1  2  2  0  0  0
  3  4  2  0  0  0
  5  6  2  0  0  0
  7 26  2  0  0  0
  8  9  2  0  0  0
 14 27  2  0  0  0
M  END
> <rmsd>
0.5395118

$$$$
CHEMBL4863350_8GUR


 26 28  0  0  0  0  0  0  0  0999 V2000
  101.5090  110.7362  127.2562 C   0  0  0  0  0
  102.6564  109.8399  126.8312 C   0  0  0  0  0
  102.8902  109.9453  125.3322 C   0  0  0  0  0
  102.0002  108.9767  124.5609 C   0  0  0  0  0
  100.6044  109.4993  124.4123 C   0  0  0  0  0
  100.3656  110.6512  123.6603 C   0  0  0  0  0
   99.0615  111.1259  123.5192 C   0  0  0  0  0
   98.7766  112.2850  122.7845 C   0  0  0  0  0
   97.4552  112.7245  122.6702 C   0  0  0  0  0
   96.3989  112.0125  123.2674 C   0  0  0  0  0
   96.7010  110.8650  124.0224 C   0  0  0  0  0
   98.0167  110.4143  124.1442 C   0  0  0  0  0
   99.5120  108.8405  125.0010 C   0  0  0  0  0
   94.9678  112.5266  123.1956 C   0  0  0  0  0
   94.7712  113.4634  121.9745 C   0  0  0  0  0
   93.7219  114.5416  122.2358 C   0  0  0  0  0
   94.1417  115.4515  123.3965 C   0  0  0  0  0
   94.9897  114.7375  124.4564 C   0  0  0  0  0
   94.6563  113.2484  124.5214 C   0  0  0  0  0
   93.9695  111.3650  123.0795 C   0  0  0  0  0
   94.1750  110.5258  121.8209 C   0  0  0  0  0
   93.2210  109.3457  121.8112 C   0  0  0  0  0
   93.6921  108.2790  122.7816 C   0  0  0  0  0
   98.2787  109.3174  124.8487 O   0  0  0  0  0
   99.6893  107.7944  125.6803 O   0  0  0  0  0
   99.7932  113.0078  122.1700 O   0  0  0  0  0
  1  2  1  0  0  0
  2  3  1  0  0  0
  3  4  1  0  0  0
  4  5  1  0  0  0
  6  7  1  0  0  0
  8  9  1  0  0  0
  8 26  1  0  0  0
 10 11  1  0  0  0
 12 24  1  0  0  0
 12  7  1  0  0  0
 13 24  1  0  0  0
 13  5  1  0  0  0
 14 10  1  0  0  0
 14 15  1  0  0  0
 14 20  1  0  0  0
 15 16  1  0  0  0
 16 17  1  0  0  0
 17 18  1  0  0  0
 18 19  1  0  0  0
 19 14  1  0  0  0
 20 21  1  0  0  0
 21 22  1  0  0  0
 22 23  1  0  0  0
  5  6  2  0  0  0
  7  8  2  0  0  0
  9 10  2  0  0  0
 11 12  2  0  0  0
 13 25  2  0  0  0
M  END
> <rmsd>
0.698565543

$$$$
CHEMBL4213900_5ZTY


 29 29  0  0  0  0  0  0  0  0999 V2000
  103.1809  106.7433  126.7365 C   0  0  0  0  0
  103.1729  105.9251  127.7954 C   0  0  0  0  0
  102.5696  106.2911  129.1208 C   0  0  0  0  0
  103.4298  107.2754  129.8594 C   0  0  0  0  0
  104.5773  106.9460  130.4637 C   0  0  0  0  0
  105.1195  105.5500  130.4705 C   0  0  0  0  0
  106.4209  105.4890  131.2557 C   0  0  0  0  0
  106.1668  105.5834  132.7583 C   0  0  0  0  0
  105.6290  104.3162  133.3538 C   0  0  0  0  0
  104.7628  103.2186  135.5799 C   0  0  0  0  0
  105.2506  101.8593  135.1186 C   0  0  0  0  0
  103.8378  102.3125  134.7912 C   0  0  0  0  0
  102.5807  108.1113  126.7679 C   0  0  0  0  0
  102.7256  108.7522  125.4261 C   0  0  0  0  0
  102.2669  109.9805  125.1438 C   0  0  0  0  0
  101.5505  110.8885  126.1091 C   0  0  0  0  0
  100.2580  110.2976  126.5882 C   0  0  0  0  0
   99.0641  110.6667  126.1070 C   0  0  0  0  0
   98.8865  111.6989  125.0307 C   0  0  0  0  0
   99.3384  111.1659  123.6798 C   0  0  0  0  0
   98.3383  110.1555  123.1435 C   0  0  0  0  0
   98.9418  109.3876  121.9788 C   0  0  0  0  0
   99.9537  108.3636  122.4713 C   0  0  0  0  0
  102.4312  111.2843  127.2802 C   0  0  0  0  0
  105.4745  103.2858  132.6423 O   0  0  0  0  0
  105.3024  104.3060  134.7530 N   0  0  0  0  0
   99.2702  107.2720  123.1426 N   0  0  0  0  0
   99.4983  107.0355  124.3282 N   0  0  0  0  0
   99.7240  106.7981  125.5137 N   0  0  0  0  0
  3  2  1  0  0  0
  3  4  1  0  0  0
  6  5  1  0  0  0
  6  7  1  0  0  0
  7  8  1  0  0  0
  8  9  1  0  0  0
  9 26  1  0  0  0
 10 26  1  0  0  0
 10 11  1  0  0  0
 11 12  1  0  0  0
 12 10  1  0  0  0
 13  1  1  0  0  0
 13 14  1  0  0  0
 16 15  1  0  0  0
 16 17  1  0  0  0
 16 24  1  0  0  0
 19 18  1  0  0  0
 19 20  1  0  0  0
 20 21  1  0  0  0
 21 22  1  0  0  0
 22 23  1  0  0  0
 23 27  1  0  0  0
  1  2  2  0  0  0
  4  5  2  0  0  0
  9 25  2  0  0  0
 14 15  2  0  0  0
 17 18  2  0  0  0
 27 28  2  0  0  0
 28 29  2  0  0  0
M  CHG  2  28   1  29  -1
M  END
> <rmsd>
0.635566175

$$$$
CHEMBL562549_6PT0


 30 33  0  0  0  0  0  0  0  0999 V2000
   95.7155  113.0258  124.2733 C   0  0  0  0  0
   95.7993  112.2472  122.9778 C   0  0  0  0  0
   95.4143  110.8021  123.2318 C   0  0  0  0  0
   95.5296  109.9870  121.9526 C   0  0  0  0  0
   96.9879  109.7440  121.5796 C   0  0  0  0  0
   98.6269  109.2054  123.4079 C   0  0  0  0  0
   99.1563  110.5953  123.5458 C   0  0  0  0  0
   98.9972  108.1045  124.1887 C   0  0  0  0  0
  100.0020  108.0463  125.2737 C   0  0  0  0  0
  101.2100  108.9054  125.2658 C   0  0  0  0  0
  101.8926  109.0779  124.0589 C   0  0  0  0  0
  103.0499  109.8473  123.9946 C   0  0  0  0  0
  103.5722  110.4681  125.1299 C   0  0  0  0  0
  105.4714  111.9044  125.9503 C   0  0  0  0  0
  106.6726  112.5882  125.3333 C   0  0  0  0  0
  102.8995  110.3083  126.3723 C   0  0  0  0  0
  103.3663  110.9154  127.5484 C   0  0  0  0  0
  102.6918  110.7610  128.7597 C   0  0  0  0  0
  101.5303  109.9948  128.8169 C   0  0  0  0  0
  101.0448  109.3809  127.6631 C   0  0  0  0  0
  101.7144  109.5190  126.4354 C   0  0  0  0  0
   98.1759  107.0711  123.7705 C   0  0  0  0  0
   98.0950  105.7436  124.1914 C   0  0  0  0  0
   97.1532  104.9137  123.5584 C   0  0  0  0  0
   96.3260  105.4186  122.5326 C   0  0  0  0  0
   96.4292  106.7606  122.1265 C   0  0  0  0  0
   97.3716  107.5631  122.7719 C   0  0  0  0  0
   97.6345  108.8651  122.5504 N   0  0  0  0  0
   99.8415  107.2159  126.2086 O   0  0  0  0  0
  104.7468  111.2178  124.9396 O   0  0  0  0  0
  1  2  1  0  0  0
  2  3  1  0  0  0
  3  4  1  0  0  0
  4  5  1  0  0  0
  5 28  1  0  0  0
  7  6  1  0  0  0
  8  9  1  0  0  0
  8 22  1  0  0  0
  9 10  1  0  0  0
 11 12  1  0  0  0
 13 30  1  0  0  0
 13 16  1  0  0  0
 14 30  1  0  0  0
 14 15  1  0  0  0
 17 18  1  0  0  0
 19 20  1  0  0  0
 21 10  1  0  0  0
 21 16  1  0  0  0
 23 24  1  0  0  0
 25 26  1  0  0  0
 27 28  1  0  0  0
 27 22  1  0  0  0
 28  6  1  0  0  0
  6  8  2  0  0  0
  9 29  2  0  0  0
 10 11  2  0  0  0
 12 13  2  0  0  0
 16 17  2  0  0  0
 18 19  2  0  0  0
 20 21  2  0  0  0
 22 23  2  0  0  0
 24 25  2  0  0  0
 26 27  2  0  0  0
M  END
> <rmsd>
0.504744709

$$$$
CHEMBL2112290_6PT0


 34 38  0  0  0  0  0  0  0  0999 V2000
   98.2901  108.3310  124.5362 C   0  0  0  0  0
   97.9735  109.4973  123.8346 C   0  0  0  0  0
   96.3544  108.1083  123.4551 C   0  0  0  0  0
   97.2443  107.4592  124.2798 C   0  0  0  0  0
   97.0230  106.1552  124.7223 C   0  0  0  0  0
   95.8512  105.5081  124.2989 C   0  0  0  0  0
   94.9351  106.1661  123.4543 C   0  0  0  0  0
   95.1759  107.4862  123.0171 C   0  0  0  0  0
   93.0760  107.5670  121.7126 C   0  0  0  0  0
   96.1291  110.3713  122.3773 C   0  0  0  0  0
   95.2271  111.2135  123.2631 C   0  0  0  0  0
   94.5713  112.3154  122.4478 C   0  0  0  0  0
   95.1283  113.8651  120.7816 C   0  0  0  0  0
   95.9924  115.0794  120.4311 C   0  0  0  0  0
   96.3488  115.5674  122.6136 C   0  0  0  0  0
   95.5034  114.3789  123.0792 C   0  0  0  0  0
   98.7914  110.7471  123.7973 C   0  0  0  0  0
   99.4772  108.0713  125.3758 C   0  0  0  0  0
  101.7021  108.8690  126.3059 C   0  0  0  0  0
  102.7994  108.2631  125.4174 C   0  0  0  0  0
  104.0441  108.6503  126.1544 C   0  0  0  0  0
  103.7590  110.1310  126.1355 C   0  0  0  0  0
  102.3610  110.1810  126.7938 C   0  0  0  0  0
  101.5980  111.4560  126.4314 C   0  0  0  0  0
  102.5015  110.1344  128.3062 C   0  0  0  0  0
  103.6085  110.3549  124.6226 C   0  0  0  0  0
  102.9476  109.0657  124.1297 C   0  0  0  0  0
  102.6760  106.7688  125.1960 C   0  0  0  0  0
   96.7983  109.3517  123.1759 N   0  0  0  0  0
   95.5545  113.3186  122.0701 N   0  0  0  0  0
  100.4611  109.0901  125.5642 N   0  0  0  0  0
   94.2814  108.1577  122.1778 O   0  0  0  0  0
   95.8287  116.0780  121.4094 O   0  0  0  0  0
   99.6187  106.9503  125.9350 O   0  0  0  0  0
  1 18  1  0  0  0
  2 29  1  0  0  0
  4  5  1  0  0  0
  4  1  1  0  0  0
  6  7  1  0  0  0
  8 32  1  0  0  0
  8  3  1  0  0  0
  9 32  1  0  0  0
 10 29  1  0  0  0
 10 11  1  0  0  0
 11 12  1  0  0  0
 12 30  1  0  0  0
 13 30  1  0  0  0
 13 14  1  0  0  0
 14 33  1  0  0  0
 15 33  1  0  0  0
 15 16  1  0  0  0
 16 30  1  0  0  0
 17  2  1  0  0  0
 18 31  1  0  0  0
 19 31  1  0  0  0
 19 20  1  0  0  0
 20 21  1  0  0  0
 20 28  1  0  0  0
 21 22  1  0  0  0
 22 23  1  0  0  0
 22 26  1  0  0  0
 23 24  1  0  0  0
 23 25  1  0  0  0
 23 19  1  0  0  0
 26 27  1  0  0  0
 27 20  1  0  0  0
 29  3  1  0  0  0
  1  2  2  0  0  0
  3  4  2  0  0  0
  5  6  2  0  0  0
  7  8  2  0  0  0
 18 34  2  0  0  0
M  END
> <rmsd>
0.398474783

$$$$
CHEMBL556101_6PT0


 26 29  0  0  0  0  0  0  0  0999 V2000
  102.8137  110.6608  127.9219 C   0  0  0  0  0
  101.6636  110.2585  128.5979 C   0  0  0  0  0
  100.7132  109.4358  127.9734 C   0  0  0  0  0
  100.9181  109.0146  126.6431 C   0  0  0  0  0
  102.0940  109.4095  125.9609 C   0  0  0  0  0
  103.0362  110.2427  126.6118 C   0  0  0  0  0
  104.1990  110.6434  125.9477 C   0  0  0  0  0
  104.4422  110.2175  124.6398 C   0  0  0  0  0
  103.5254  109.3866  123.9921 C   0  0  0  0  0
  102.3603  108.9829  124.6487 C   0  0  0  0  0
   99.9047  108.1533  125.9926 C   0  0  0  0  0
   99.1994  108.5700  124.7641 C   0  0  0  0  0
   98.4470  107.7305  123.9422 C   0  0  0  0  0
   98.3246  109.7287  123.0948 C   0  0  0  0  0
   99.1040  109.8396  124.2160 C   0  0  0  0  0
   99.6128  111.0690  124.6363 C   0  0  0  0  0
   99.3144  112.2011  123.8583 C   0  0  0  0  0
   98.5181  112.0847  122.6991 C   0  0  0  0  0
   98.0082  110.8351  122.3050 C   0  0  0  0  0
   97.0580  107.9421  121.8773 C   0  0  0  0  0
   95.6102  108.0408  122.3187 C   0  0  0  0  0
   94.7118  107.5115  121.2214 C   0  0  0  0  0
   99.2747  109.4280  129.9923 C   0  0  0  0  0
   99.6320  107.0362  126.5086 O   0  0  0  0  0
   99.5549  109.0393  128.6544 O   0  0  0  0  0
   97.9322  108.4544  122.9215 N   0  0  0  0  0
  2  3  1  0  0  0
  3 25  1  0  0  0
  4  5  1  0  0  0
  4 11  1  0  0  0
  6  7  1  0  0  0
  6  1  1  0  0  0
  8  9  1  0  0  0
 10  5  1  0  0  0
 11 12  1  0  0  0
 13 26  1  0  0  0
 15 16  1  0  0  0
 15 12  1  0  0  0
 17 18  1  0  0  0
 19 14  1  0  0  0
 20 26  1  0  0  0
 20 21  1  0  0  0
 21 22  1  0  0  0
 23 25  1  0  0  0
 26 14  1  0  0  0
  1  2  2  0  0  0
  3  4  2  0  0  0
  5  6  2  0  0  0
  7  8  2  0  0  0
  9 10  2  0  0  0
 11 24  2  0  0  0
 12 13  2  0  0  0
 14 15  2  0  0  0
 16 17  2  0  0  0
 18 19  2  0  0  0
M  END
> <rmsd>
0.699220061

$$$$
CHEMBL4780771_8GUT


 27 29  0  0  0  0  0  0  0  0999 V2000
  103.7849  109.1561  126.3473 C   0  0  0  0  0
  102.5944  109.7810  126.7384 C   0  0  0  0  0
  101.3059  108.0975  125.6423 C   0  0  0  0  0
  102.4820  107.4361  125.2255 C   0  0  0  0  0
  103.7167  107.9868  125.5925 C   0  0  0  0  0
  102.4681  106.1960  124.4125 C   0  0  0  0  0
  101.1740  104.4273  123.1391 C   0  0  0  0  0
   99.7474  103.8977  123.1423 C   0  0  0  0  0
   99.6701  102.3754  122.9915 C   0  0  0  0  0
  100.6555  101.7588  121.9940 C   0  0  0  0  0
  100.8132  102.5802  120.7222 C   0  0  0  0  0
  101.9628  103.5660  120.8908 C   0  0  0  0  0
  101.5601  104.7897  121.7077 C   0  0  0  0  0
   98.8332  108.2677  125.6161 C   0  0  0  0  0
   98.5959  109.3701  124.6409 C   0  0  0  0  0
   98.2143  109.0752  123.3272 C   0  0  0  0  0
   98.0099  110.1096  122.4088 C   0  0  0  0  0
   98.1896  111.4393  122.8024 C   0  0  0  0  0
   98.5744  111.7349  124.1138 C   0  0  0  0  0
   98.7785  110.7008  125.0323 C   0  0  0  0  0
  102.6073  111.0340  127.5439 C   0  0  0  0  0
  101.4012  109.2398  126.3805 N   0  0  0  0  0
  101.2351  105.6177  123.9729 N   0  0  0  0  0
  103.5589  105.6427  124.1013 O   0  0  0  0  0
  100.0459  107.5888  125.3092 O   0  0  0  0  0
   97.9919  112.4412  121.9127 F   0  0  0  0  0
  105.5047  109.8550  126.8127 Br  0  0  0  0  0
  1 27  1  0  0  0
  2 22  1  0  0  0
  3  4  1  0  0  0
  3 25  1  0  0  0
  4  6  1  0  0  0
  5  1  1  0  0  0
  6 23  1  0  0  0
  7 23  1  0  0  0
  7  8  1  0  0  0
  8  9  1  0  0  0
  9 10  1  0  0  0
 10 11  1  0  0  0
 11 12  1  0  0  0
 12 13  1  0  0  0
 13  7  1  0  0  0
 14 25  1  0  0  0
 14 15  1  0  0  0
 16 17  1  0  0  0
 18 19  1  0  0  0
 18 26  1  0  0  0
 20 15  1  0  0  0
 21  2  1  0  0  0
  1  2  2  0  0  0
  3 22  2  0  0  0
  4  5  2  0  0  0
  6 24  2  0  0  0
 15 16  2  0  0  0
 17 18  2  0  0  0
 19 20  2  0  0  0
M  END
> <rmsd>
0.942888141

$$$$
CHEMBL3647323_6KPF


 32 35  0  0  0  0  0  0  0  0999 V2000
   98.9944  111.2888  123.4854 C   0  0  0  0  0
   98.4817  110.3275  124.5007 C   0  0  0  0  0
   97.6803  108.4091  125.8003 C   0  0  0  0  0
   97.3137  106.0109  125.5819 C   0  0  0  0  0
   98.5192  105.5347  124.8625 C   0  0  0  0  0
   98.3494  104.7059  123.7445 C   0  0  0  0  0
   99.4508  104.2278  123.0244 C   0  0  0  0  0
   99.2444  103.3901  121.7964 C   0  0  0  0  0
  100.7397  104.6091  123.4132 C   0  0  0  0  0
  100.9258  105.4207  124.5323 C   0  0  0  0  0
   99.8258  105.8822  125.2728 C   0  0  0  0  0
  101.2687  107.2349  126.7832 C   0  0  0  0  0
  101.3818  108.6468  126.2250 C   0  0  0  0  0
  101.7214  108.6074  124.7463 C   0  0  0  0  0
  103.1581  109.0360  124.6635 C   0  0  0  0  0
  103.3611  109.8613  125.9084 C   0  0  0  0  0
  101.8373  110.5258  127.5476 C   0  0  0  0  0
   97.3725  109.5970  127.9591 C   0  0  0  0  0
   98.5622  109.1752  128.8014 C   0  0  0  0  0
   99.0038  110.3459  129.6551 C   0  0  0  0  0
   98.1770  109.2353  130.2648 C   0  0  0  0  0
   98.1742  110.6134  125.8283 C   0  0  0  0  0
   98.3346  111.9748  126.4233 C   0  0  0  0  0
   98.1848  108.6965  124.2131 S   0  0  0  0  0
   97.2875  107.2634  126.2805 N   0  0  0  0  0
  102.4446  109.3625  126.9251 N   0  0  0  0  0
   97.7186  109.5430  126.5418 N   0  0  0  0  0
   96.2908  105.2764  125.6214 O   0  0  0  0  0
  100.0172  106.6615  126.4215 O   0  0  0  0  0
  100.3378  102.5692  121.5802 F   0  0  0  0  0
   98.1195  102.5967  121.9396 F   0  0  0  0  0
   99.0775  104.2169  120.7014 F   0  0  0  0  0
  1  2  1  0  0  0
  2 24  1  0  0  0
  3 24  1  0  0  0
  3 27  1  0  0  0
  4 25  1  0  0  0
  4  5  1  0  0  0
  6  7  1  0  0  0
  8  7  1  0  0  0
  8 30  1  0  0  0
  8 31  1  0  0  0
  8 32  1  0  0  0
  9 10  1  0  0  0
 11 29  1  0  0  0
 11  5  1  0  0  0
 12 29  1  0  0  0
 13 12  1  0  0  0
 13 14  1  0  0  0
 13 26  1  0  0  0
 14 15  1  0  0  0
 15 16  1  0  0  0
 16 26  1  0  0  0
 17 26  1  0  0  0
 18 27  1  0  0  0
 18 19  1  0  0  0
 19 20  1  0  0  0
 20 21  1  0  0  0
 21 19  1  0  0  0
 23 22  1  0  0  0
 27 22  1  0  0  0
  3 25  2  0  0  0
  4 28  2  0  0  0
  5  6  2  0  0  0
  7  9  2  0  0  0
 10 11  2  0  0  0
 22  2  2  0  0  0
M  END
> <rmsd>
0.489195436

$$$$
CHEMBL565042_6PT0


 28 31  0  0  0  0  0  0  0  0999 V2000
   97.1875  107.9179  120.9272 C   0  0  0  0  0
   97.2755  109.4319  120.8940 C   0  0  0  0  0
   95.9096  110.0527  121.1466 C   0  0  0  0  0
   95.4780  109.9000  122.6004 C   0  0  0  0  0
   96.1272  110.9551  123.4883 C   0  0  0  0  0
   97.9399  109.5331  124.4727 C   0  0  0  0  0
   99.3325  109.5565  124.5470 C   0  0  0  0  0
  100.1698  108.5290  125.1982 C   0  0  0  0  0
  101.5770  108.7829  125.5719 C   0  0  0  0  0
  101.9655  109.8656  126.3929 C   0  0  0  0  0
  101.0044  110.7393  126.9293 C   0  0  0  0  0
  101.3826  111.8055  127.7439 C   0  0  0  0  0
  102.7281  112.0094  128.0410 C   0  0  0  0  0
  103.6949  111.1443  127.5276 C   0  0  0  0  0
  103.3414  110.0645  126.7036 C   0  0  0  0  0
  104.3139  109.1604  126.1955 C   0  0  0  0  0
  106.3631  110.3304  127.0721 C   0  0  0  0  0
  103.8913  108.0814  125.4164 C   0  0  0  0  0
  102.5469  107.8920  125.1106 C   0  0  0  0  0
   99.7404  110.6888  123.8596 C   0  0  0  0  0
  101.0111  111.1892  123.5737 C   0  0  0  0  0
  101.0937  112.3749  122.8230 C   0  0  0  0  0
   99.9229  113.0209  122.3723 C   0  0  0  0  0
   98.6552  112.4871  122.6630 C   0  0  0  0  0
   98.6046  111.3112  123.4133 C   0  0  0  0  0
   97.5145  110.6139  123.7766 N   0  0  0  0  0
   99.6757  107.3918  125.4245 O   0  0  0  0  0
  105.6982  109.2553  126.4238 O   0  0  0  0  0
  1  2  1  0  0  0
  2  3  1  0  0  0
  3  4  1  0  0  0
  4  5  1  0  0  0
  5 26  1  0  0  0
  7  8  1  0  0  0
  7 20  1  0  0  0
  8  9  1  0  0  0
  9 10  1  0  0  0
 11 12  1  0  0  0
 13 14  1  0  0  0
 15 16  1  0  0  0
 15 10  1  0  0  0
 16 28  1  0  0  0
 17 28  1  0  0  0
 18 19  1  0  0  0
 21 22  1  0  0  0
 23 24  1  0  0  0
 25 26  1  0  0  0
 25 20  1  0  0  0
 26  6  1  0  0  0
  6  7  2  0  0  0
  8 27  2  0  0  0
 10 11  2  0  0  0
 12 13  2  0  0  0
 14 15  2  0  0  0
 16 18  2  0  0  0
 19  9  2  0  0  0
 20 21  2  0  0  0
 22 23  2  0  0  0
 24 25  2  0  0  0
M  END
> <rmsd>
0.708370149

$$$$
CHEMBL4129909_5ZTY


 27 30  0  0  0  0  0  0  0  0999 V2000
   97.0746  104.4559  122.5676 C   0  0  0  0  0
   95.9767  103.8798  123.4864 C   0  0  0  0  0
   94.7787  104.8457  123.5505 C   0  0  0  0  0
   94.2057  105.0683  122.1419 C   0  0  0  0  0
   95.2978  105.6618  121.2378 C   0  0  0  0  0
   96.4994  104.7010  121.1602 C   0  0  0  0  0
   96.0260  103.3561  120.5844 C   0  0  0  0  0
   94.9374  102.7501  121.4880 C   0  0  0  0  0
   95.5052  102.5380  122.9025 C   0  0  0  0  0
   93.7474  103.7201  121.5630 C   0  0  0  0  0
   98.4048  105.7256  124.3187 C   0  0  0  0  0
   98.8883  107.0105  124.8445 C   0  0  0  0  0
   99.8242  109.3921  125.8825 C   0  0  0  0  0
   99.0617  109.4160  124.7072 C   0  0  0  0  0
   98.5933  108.2055  124.1873 C   0  0  0  0  0
   98.7637  110.7139  124.0144 C   0  0  0  0  0
   97.2686  110.9622  123.9318 C   0  0  0  0  0
   99.3777  110.7466  122.6267 C   0  0  0  0  0
  101.1889  110.6312  127.6180 C   0  0  0  0  0
  102.6481  110.7877  127.2127 C   0  0  0  0  0
  103.2132  109.4951  126.6478 C   0  0  0  0  0
  103.0764  109.4787  125.1378 C   0  0  0  0  0
   97.6313  105.6881  123.1152 N   0  0  0  0  0
   99.6299  107.0482  125.9834 N   0  0  0  0  0
  100.0821  108.1989  126.4847 N   0  0  0  0  0
  100.3279  110.6081  126.4444 N   0  0  0  0  0
   98.6768  104.6565  124.9298 O   0  0  0  0  0
  1  2  1  0  0  0
  1 23  1  0  0  0
  2  3  1  0  0  0
  3  4  1  0  0  0
  4  5  1  0  0  0
  5  6  1  0  0  0
  6  7  1  0  0  0
  6  1  1  0  0  0
  7  8  1  0  0  0
  8  9  1  0  0  0
  8 10  1  0  0  0
  9  2  1  0  0  0
 10  4  1  0  0  0
 11 12  1  0  0  0
 13 14  1  0  0  0
 13 26  1  0  0  0
 15 12  1  0  0  0
 16 14  1  0  0  0
 16 17  1  0  0  0
 16 18  1  0  0  0
 19 26  1  0  0  0
 19 20  1  0  0  0
 20 21  1  0  0  0
 21 22  1  0  0  0
 23 11  1  0  0  0
 24 25  1  0  0  0
 11 27  2  0  0  0
 12 24  2  0  0  0
 13 25  2  0  0  0
 14 15  2  0  0  0
M  END
> <rmsd>
0.662032425

$$$$
CHEMBL4856531_8GUT


 27 29  0  0  0  0  0  0  0  0999 V2000
   96.0604  109.7660  123.8105 C   0  0  0  0  0
   97.5022  110.1277  123.9713 C   0  0  0  0  0
   98.4837  109.1231  123.9795 C   0  0  0  0  0
   99.8400  109.4956  124.0949 C   0  0  0  0  0
   99.2265  111.7830  124.2875 C   0  0  0  0  0
   97.8787  111.4677  124.1351 C   0  0  0  0  0
  101.5711  111.2133  124.4317 C   0  0  0  0  0
  101.9480  111.2250  125.8795 C   0  0  0  0  0
  101.5373  112.2885  126.6923 C   0  0  0  0  0
  101.8674  112.3043  128.0504 C   0  0  0  0  0
  102.6087  111.2556  128.6014 C   0  0  0  0  0
  103.0207  110.1915  127.7944 C   0  0  0  0  0
  102.6922  110.1722  126.4352 C   0  0  0  0  0
   98.6467  106.6330  124.5011 C   0  0  0  0  0
   98.3243  105.2536  124.0303 C   0  0  0  0  0
   97.5272  104.5132  125.1004 C   0  0  0  0  0
   96.7583  103.3250  124.5305 C   0  0  0  0  0
   97.6829  102.2634  123.9476 C   0  0  0  0  0
   98.1482  102.6979  122.5650 C   0  0  0  0  0
   99.4633  103.4827  122.5900 C   0  0  0  0  0
   99.6105  104.4904  123.7340 C   0  0  0  0  0
  100.7447  108.6205  124.0078 O   0  0  0  0  0
   99.3575  106.8047  125.5296 O   0  0  0  0  0
  100.1774  110.8109  124.2666 N   0  0  0  0  0
   98.0886  107.7521  123.8051 N   0  0  0  0  0
   96.5995  112.8917  124.1631 Br  0  0  0  0  0
  103.1068  109.1353  125.6659 F   0  0  0  0  0
  1  2  1  0  0  0
  3  4  1  0  0  0
  3 25  1  0  0  0
  4 24  1  0  0  0
  6 26  1  0  0  0
  6  2  1  0  0  0
  7 24  1  0  0  0
  7  8  1  0  0  0
  9 10  1  0  0  0
 11 12  1  0  0  0
 13 27  1  0  0  0
 13  8  1  0  0  0
 15 14  1  0  0  0
 15 16  1  0  0  0
 16 17  1  0  0  0
 17 18  1  0  0  0
 18 19  1  0  0  0
 19 20  1  0  0  0
 20 21  1  0  0  0
 21 15  1  0  0  0
 24  5  1  0  0  0
 25 14  1  0  0  0
  2  3  2  0  0  0
  4 22  2  0  0  0
  5  6  2  0  0  0
  8  9  2  0  0  0
 10 11  2  0  0  0
 12 13  2  0  0  0
 14 23  2  0  0  0
M  END
> <rmsd>
0.665632308

$$$$
CHEMBL3650109_8GUR


 30 31  0  0  0  0  0  0  0  0999 V2000
   99.1370  111.3267  123.2152 C   0  0  0  0  0
   98.9740  110.2444  124.2603 C   0  0  0  0  0
   97.5167  109.8317  124.3408 C   0  0  0  0  0
   97.3373  108.7361  125.3799 C   0  0  0  0  0
   98.0395  105.7468  123.4734 C   0  0  0  0  0
   97.5949  104.8267  122.3685 C   0  0  0  0  0
   96.5869  105.5107  121.4611 C   0  0  0  0  0
   96.9502  103.5932  122.9690 C   0  0  0  0  0
   98.7822  104.4025  121.5240 C   0  0  0  0  0
   99.0167  106.8570  125.3832 C   0  0  0  0  0
   99.5205  108.3326  127.2819 C   0  0  0  0  0
  100.5483  109.3699  127.5370 C   0  0  0  0  0
  100.3825  110.2120  128.6475 C   0  0  0  0  0
  101.3149  111.2107  128.9488 C   0  0  0  0  0
  101.0907  112.1300  130.1140 C   0  0  0  0  0
  102.4121  111.3960  128.1037 C   0  0  0  0  0
  102.5875  110.5752  126.9903 C   0  0  0  0  0
  101.6670  109.5574  126.6901 C   0  0  0  0  0
  102.8419  110.1591  124.0066 C   0  0  0  0  0
  104.1456  108.6407  125.2810 C   0  0  0  0  0
   97.9003  107.4775  124.9047 N   0  0  0  0  0
   97.3569  106.8504  123.8611 N   0  0  0  0  0
   99.7706  107.2588  126.3682 N   0  0  0  0  0
  102.8620  108.8400  124.6230 N   0  0  0  0  0
   99.3796  105.4934  124.4712 S   0  0  0  0  0
   98.4449  108.3445  127.9416 O   0  0  0  0  0
  101.8336  108.7381  125.5528 O   0  0  0  0  0
  102.3006  112.5770  130.6164 F   0  0  0  0  0
  100.3440  113.2175  129.7006 F   0  0  0  0  0
  100.4101  111.4721  131.1241 F   0  0  0  0  0
  1  2  1  0  0  0
  2  3  1  0  0  0
  3  4  1  0  0  0
  4 21  1  0  0  0
  5 25  1  0  0  0
  6  5  1  0  0  0
  6  7  1  0  0  0
  6  8  1  0  0  0
  6  9  1  0  0  0
 10 25  1  0  0  0
 10 21  1  0  0  0
 11 23  1  0  0  0
 11 12  1  0  0  0
 13 14  1  0  0  0
 15 14  1  0  0  0
 15 28  1  0  0  0
 15 29  1  0  0  0
 15 30  1  0  0  0
 16 17  1  0  0  0
 18 27  1  0  0  0
 18 12  1  0  0  0
 19 24  1  0  0  0
 20 24  1  0  0  0
 21 22  1  0  0  0
 24 27  1  0  0  0
  5 22  2  0  0  0
 10 23  2  0  0  0
 11 26  2  0  0  0
 12 13  2  0  0  0
 14 16  2  0  0  0
 17 18  2  0  0  0
M  END
> <rmsd>
0.642053246

$$$$
CHEMBL3650085_8GUR


 33 35  0  0  0  0  0  0  0  0999 V2000
  102.2088  111.2699  127.0115 C   0  0  0  0  0
  103.7263  109.4911  126.0958 C   0  0  0  0  0
  105.0365  110.1352  126.4971 C   0  0  0  0  0
  105.1937  111.4639  125.7832 C   0  0  0  0  0
  106.2269  109.2601  126.1359 C   0  0  0  0  0
  105.0667  110.3683  127.9960 C   0  0  0  0  0
  103.5934  108.3149  125.3618 C   0  0  0  0  0
  102.2233  108.1774  125.2216 C   0  0  0  0  0
  100.2803  106.8899  124.4504 C   0  0  0  0  0
   99.6776  106.5527  123.1400 C   0  0  0  0  0
   98.4064  105.9577  123.1160 C   0  0  0  0  0
   97.7797  105.6307  121.9084 C   0  0  0  0  0
   96.4398  104.9534  121.9176 C   0  0  0  0  0
   98.4444  105.8813  120.7045 C   0  0  0  0  0
   99.7058  106.4752  120.7086 C   0  0  0  0  0
  100.3303  106.8211  121.9158 C   0  0  0  0  0
  103.5556  108.2863  121.0359 C   0  0  0  0  0
  104.3067  108.5241  119.7440 C   0  0  0  0  0
  104.3761  107.3474  121.9045 C   0  0  0  0  0
  103.3786  109.6177  121.7465 C   0  0  0  0  0
  100.1665  109.5749  125.7099 C   0  0  0  0  0
   99.9370  110.4299  124.4768 C   0  0  0  0  0
   98.6197  111.1619  124.6321 C   0  0  0  0  0
   98.7009  109.9350  123.7557 C   0  0  0  0  0
  102.4992  110.0080  126.3386 N   0  0  0  0  0
  101.6752  107.1979  124.5583 N   0  0  0  0  0
  102.2546  107.6966  120.7223 N   0  0  0  0  0
  101.5799  109.2140  125.8118 N   0  0  0  0  0
   99.5761  106.8279  125.4963 O   0  0  0  0  0
  101.5838  107.4384  121.9021 O   0  0  0  0  0
   96.6025  103.6197  122.2448 F   0  0  0  0  0
   95.8356  105.0413  120.6752 F   0  0  0  0  0
   95.6143  105.5520  122.8530 F   0  0  0  0  0
  1 25  1  0  0  0
  3  2  1  0  0  0
  3  4  1  0  0  0
  3  5  1  0  0  0
  3  6  1  0  0  0
  7  8  1  0  0  0
  8 28  1  0  0  0
  9 26  1  0  0  0
  9 10  1  0  0  0
 11 12  1  0  0  0
 13 12  1  0  0  0
 13 31  1  0  0  0
 13 32  1  0  0  0
 13 33  1  0  0  0
 14 15  1  0  0  0
 16 30  1  0  0  0
 16 10  1  0  0  0
 17 27  1  0  0  0
 17 18  1  0  0  0
 17 19  1  0  0  0
 17 20  1  0  0  0
 21 28  1  0  0  0
 21 22  1  0  0  0
 22 23  1  0  0  0
 23 24  1  0  0  0
 24 22  1  0  0  0
 25  2  1  0  0  0
 27 30  1  0  0  0
 28 25  1  0  0  0
  2  7  2  0  0  0
  8 26  2  0  0  0
  9 29  2  0  0  0
 10 11  2  0  0  0
 12 14  2  0  0  0
 15 16  2  0  0  0
M  END
> <rmsd>
0.614162862

$$$$
CHEMBL2112289_8GUS


 30 33  0  0  0  0  0  0  0  0999 V2000
   96.9335  114.1508  122.0415 C   0  0  0  0  0
   96.3148  113.1489  121.0848 C   0  0  0  0  0
   95.1747  112.4017  121.7605 C   0  0  0  0  0
   95.6971  111.3913  122.7701 C   0  0  0  0  0
   96.2989  110.1917  122.0561 C   0  0  0  0  0
   97.9734  109.4444  123.7774 C   0  0  0  0  0
   98.8064  110.6839  123.7286 C   0  0  0  0  0
   98.2250  108.3208  124.5691 C   0  0  0  0  0
   99.3301  108.1151  125.5273 C   0  0  0  0  0
  101.3937  109.0104  126.6989 C   0  0  0  0  0
  100.9819  109.3591  128.1506 C   0  0  0  0  0
  101.2295  108.1538  129.0420 C   0  0  0  0  0
   99.5227  109.7834  128.3240 C   0  0  0  0  0
  101.9642  110.4954  128.5199 C   0  0  0  0  0
  101.5777  111.7627  127.7413 C   0  0  0  0  0
  101.9523  111.4276  126.2960 C   0  0  0  0  0
  102.5157  110.0167  126.4244 C   0  0  0  0  0
  103.4377  109.6193  125.2894 C   0  0  0  0  0
  103.1987  110.0855  127.7551 C   0  0  0  0  0
   97.2114  107.4277  124.2629 C   0  0  0  0  0
   96.9589  106.1442  124.7466 C   0  0  0  0  0
   95.8402  105.4612  124.2433 C   0  0  0  0  0
   95.0070  106.0638  123.2801 C   0  0  0  0  0
   95.2788  107.3637  122.8021 C   0  0  0  0  0
   93.3159  107.3521  121.2972 C   0  0  0  0  0
   96.4028  108.0228  123.3218 C   0  0  0  0  0
   96.8600  109.2573  123.0257 N   0  0  0  0  0
  100.3087  109.1374  125.7273 N   0  0  0  0  0
   99.4107  107.0349  126.1726 O   0  0  0  0  0
   94.4642  107.9815  121.8480 O   0  0  0  0  0
  1  2  1  0  0  0
  2  3  1  0  0  0
  3  4  1  0  0  0
  4  5  1  0  0  0
  5 27  1  0  0  0
  7  6  1  0  0  0
  8  9  1  0  0  0
  8 20  1  0  0  0
  9 28  1  0  0  0
 10 28  1  0  0  0
 10 11  1  0  0  0
 11 12  1  0  0  0
 11 13  1  0  0  0
 14 11  1  0  0  0
 14 15  1  0  0  0
 15 16  1  0  0  0
 16 17  1  0  0  0
 17 18  1  0  0  0
 17 19  1  0  0  0
 17 10  1  0  0  0
 19 14  1  0  0  0
 21 22  1  0  0  0
 23 24  1  0  0  0
 24 30  1  0  0  0
 25 30  1  0  0  0
 26 27  1  0  0  0
 26 20  1  0  0  0
 27  6  1  0  0  0
  6  8  2  0  0  0
  9 29  2  0  0  0
 20 21  2  0  0  0
 22 23  2  0  0  0
 24 26  2  0  0  0
M  END
> <rmsd>
0.57113868

$$$$
CHEMBL3890640_8GUQ


 28 31  0  0  0  0  0  0  0  0999 V2000
  102.0236  111.1284  127.8601 C   0  0  0  0  0
  101.3499  109.8089  127.5286 C   0  0  0  0  0
  101.6571  110.0261  126.0601 C   0  0  0  0  0
  102.3250  111.3502  126.3891 C   0  0  0  0  0
  100.4139  110.1167  125.2052 C   0  0  0  0  0
   99.5927  108.9912  125.0106 C   0  0  0  0  0
   98.1152  110.2529  123.6190 C   0  0  0  0  0
   98.9221  111.3843  123.7731 C   0  0  0  0  0
  100.0656  111.3135  124.5658 C   0  0  0  0  0
   96.9074  110.2687  122.7621 C   0  0  0  0  0
   96.4460  112.7488  123.0762 C   0  0  0  0  0
   94.9673  112.9415  120.8555 C   0  0  0  0  0
   95.2845  111.5013  121.2541 C   0  0  0  0  0
   94.0208  110.7855  121.6174 C   0  0  0  0  0
   99.1066  106.6133  125.4992 C   0  0  0  0  0
   97.8838  106.7392  126.3891 C   0  0  0  0  0
   97.2511  105.3744  126.5561 C   0  0  0  0  0
   98.1111  105.9503  127.6612 C   0  0  0  0  0
   98.4805  109.0916  124.2286 N   0  0  0  0  0
   96.2337  111.4865  122.3782 N   0  0  0  0  0
   93.2468  111.2030  122.7381 N   0  0  0  0  0
   96.4593  109.1635  122.3518 O   0  0  0  0  0
   94.4107  114.5163  122.9820 O   0  0  0  0  0
   96.4428  115.0559  121.6739 O   0  0  0  0  0
   93.6412  109.8040  120.9279 O   0  0  0  0  0
   99.9211  107.7734  125.6165 O   0  0  0  0  0
   95.5473  113.9585  122.1739 S   0  0  0  0  0
  102.5694  109.1019  125.5823 F   0  0  0  0  0
  1  2  1  0  0  0
  2  3  1  0  0  0
  3  4  1  0  0  0
  3  5  1  0  0  0
  3 28  1  0  0  0
  4  1  1  0  0  0
  5  6  1  0  0  0
  6 26  1  0  0  0
  7 19  1  0  0  0
  7 10  1  0  0  0
  8  9  1  0  0  0
 10 20  1  0  0  0
 11 20  1  0  0  0
 11 27  1  0  0  0
 12 13  1  0  0  0
 13 14  1  0  0  0
 13 20  1  0  0  0
 14 21  1  0  0  0
 15 26  1  0  0  0
 15 16  1  0  0  0
 16 17  1  0  0  0
 17 18  1  0  0  0
 18 16  1  0  0  0
 27 12  1  0  0  0
  6 19  2  0  0  0
  7  8  2  0  0  0
  9  5  2  0  0  0
 10 22  2  0  0  0
 14 25  2  0  0  0
 27 23  2  0  0  0
 27 24  2  0  0  0
M  END
> <rmsd>
0.619048715

$$$$
CHEMBL3907722_8GUT


 25 27  0  0  0  0  0  0  0  0999 V2000
  102.5683  111.6023  126.4580 C   0  0  0  0  0
  101.8233  110.4169  127.0448 C   0  0  0  0  0
  100.4704  110.9027  127.5486 C   0  0  0  0  0
  102.5964  109.9031  128.2478 C   0  0  0  0  0
  102.9012  108.6717  125.5540 C   0  0  0  0  0
  100.4421  108.8866  125.5145 C   0  0  0  0  0
   99.5601  109.7716  124.7300 C   0  0  0  0  0
   97.4468  110.1254  123.6775 C   0  0  0  0  0
   97.8749  111.3859  123.2049 C   0  0  0  0  0
   99.1554  111.8301  123.5437 C   0  0  0  0  0
  100.0000  111.0294  124.3088 C   0  0  0  0  0
   95.9419  112.0233  121.4013 C   0  0  0  0  0
   96.0017  113.3943  120.8451 C   0  0  0  0  0
   97.1532  113.5467  121.7646 C   0  0  0  0  0
   95.0021  110.3923  123.7636 C   0  0  0  0  0
   93.7633  109.5810  123.4463 C   0  0  0  0  0
   93.1780  110.0545  122.1322 C   0  0  0  0  0
   92.5606  110.5007  123.4404 C   0  0  0  0  0
  101.7012  109.3503  126.0297 N   0  0  0  0  0
   98.3068  109.3559  124.3991 N   0  0  0  0  0
   97.0806  112.1850  122.3233 N   0  0  0  0  0
  100.1033  107.6875  125.7048 O   0  0  0  0  0
   96.1606  109.6358  123.4448 O   0  0  0  0  0
   94.9146  114.1759  121.1870 F   0  0  0  0  0
   96.3523  113.4339  119.5092 F   0  0  0  0  0
  1  2  1  0  0  0
  2  3  1  0  0  0
  2  4  1  0  0  0
  2 19  1  0  0  0
  5 19  1  0  0  0
  6  7  1  0  0  0
  8 20  1  0  0  0
  8 23  1  0  0  0
  9 10  1  0  0  0
  9 21  1  0  0  0
 11  7  1  0  0  0
 12 21  1  0  0  0
 12 13  1  0  0  0
 13 14  1  0  0  0
 13 24  1  0  0  0
 13 25  1  0  0  0
 14 21  1  0  0  0
 15 23  1  0  0  0
 15 16  1  0  0  0
 16 17  1  0  0  0
 17 18  1  0  0  0
 18 16  1  0  0  0
 19  6  1  0  0  0
  6 22  2  0  0  0
  7 20  2  0  0  0
  8  9  2  0  0  0
 10 11  2  0  0  0
M  END
> <rmsd>
0.597093165

$$$$
CHEMBL4084719_5ZTY


 25 26  0  0  0  0  0  0  0  0999 V2000
  106.0305  109.9625  124.5490 C   0  0  0  0  0
  105.8244  110.1525  125.9159 C   0  0  0  0  0
  104.6424  109.7085  126.5130 C   0  0  0  0  0
  103.6477  109.0686  125.7501 C   0  0  0  0  0
  103.8655  108.8770  124.3700 C   0  0  0  0  0
  105.0556  109.3270  123.7779 C   0  0  0  0  0
  102.8773  108.2369  123.6167 C   0  0  0  0  0
  101.5371  107.9929  125.5653 C   0  0  0  0  0
  102.2401  108.8376  127.7563 C   0  0  0  0  0
  101.2639  109.9846  127.9843 C   0  0  0  0  0
  101.9196  111.3193  127.6719 C   0  0  0  0  0
  100.9438  112.4575  127.9091 C   0  0  0  0  0
  100.7824  112.7161  129.3952 C   0  0  0  0  0
  100.6809  107.1727  123.4209 C   0  0  0  0  0
   99.7753  108.2123  122.8530 C   0  0  0  0  0
   98.0660  110.0321  123.2776 C   0  0  0  0  0
   98.9688  111.2499  123.1501 C   0  0  0  0  0
   99.4802  111.6765  124.5132 C   0  0  0  0  0
  100.4297  112.8443  124.3520 C   0  0  0  0  0
  103.0475  108.0576  122.3774 O   0  0  0  0  0
  100.4751  107.5743  126.1090 O   0  0  0  0  0
   99.8770  108.5325  121.6389 O   0  0  0  0  0
  101.7307  107.8064  124.2226 N   0  0  0  0  0
  102.4839  108.6300  126.3237 N   0  0  0  0  0
   98.8354  108.8712  123.7040 N   0  0  0  0  0
  2  3  1  0  0  0
  4  5  1  0  0  0
  5  7  1  0  0  0
  6  1  1  0  0  0
  7 23  1  0  0  0
  8 24  1  0  0  0
  9 24  1  0  0  0
  9 10  1  0  0  0
 10 11  1  0  0  0
 11 12  1  0  0  0
 12 13  1  0  0  0
 14 23  1  0  0  0
 14 15  1  0  0  0
 15 25  1  0  0  0
 16 25  1  0  0  0
 16 17  1  0  0  0
 17 18  1  0  0  0
 18 19  1  0  0  0
 23  8  1  0  0  0
 24  4  1  0  0  0
  1  2  2  0  0  0
  3  4  2  0  0  0
  5  6  2  0  0  0
  7 20  2  0  0  0
  8 21  2  0  0  0
 15 22  2  0  0  0
M  END
> <rmsd>
0.745888948

$$$$
CHEMBL3354966_8GUQ


 27 31  0  0  0  0  0  0  0  0999 V2000
   95.4992  105.8889  122.4124 C   0  0  0  0  0
   94.7971  106.3615  121.1395 C   0  0  0  0  0
   93.2013  107.5375  122.2196 C   0  0  0  0  0
   93.7148  107.2041  123.6204 C   0  0  0  0  0
   94.4950  105.8892  123.5665 C   0  0  0  0  0
   95.1823  105.6004  124.8957 C   0  0  0  0  0
   97.5406  106.3571  125.3891 C   0  0  0  0  0
   98.4865  107.4513  125.6410 C   0  0  0  0  0
   99.4133  109.4119  125.6708 C   0  0  0  0  0
   98.2139  108.8055  125.5952 C   0  0  0  0  0
   97.2635  109.5613  124.7540 C   0  0  0  0  0
   98.0389  110.8508  124.3950 C   0  0  0  0  0
   99.4652  110.7151  124.9592 C   0  0  0  0  0
   99.2068  110.5447  123.4709 C   0  0  0  0  0
  101.8058  108.6902  125.7154 C   0  0  0  0  0
  102.4061  109.8521  126.2426 C   0  0  0  0  0
  103.7921  110.0205  126.1673 C   0  0  0  0  0
  104.5897  109.0394  125.5745 C   0  0  0  0  0
  104.0051  107.8776  125.0674 C   0  0  0  0  0
  102.6211  107.7032  125.1410 C   0  0  0  0  0
   94.2833  107.6575  121.3285 O   0  0  0  0  0
   97.9597  105.1698  125.3260 O   0  0  0  0  0
   96.1512  106.6400  125.2159 N   0  0  0  0  0
   99.8214  107.2786  125.7666 N   0  0  0  0  0
  100.3848  108.4812  125.7802 N   0  0  0  0  0
  105.9315  109.2094  125.5030 F   0  0  0  0  0
  101.6669  110.7993  126.8702 F   0  0  0  0  0
  1  2  1  0  0  0
  2 21  1  0  0  0
  3 21  1  0  0  0
  3  4  1  0  0  0
  4  5  1  0  0  0
  5  6  1  0  0  0
  5  1  1  0  0  0
  6 23  1  0  0  0
  7  8  1  0  0  0
 10  8  1  0  0  0
 11 10  1  0  0  0
 12 11  1  0  0  0
 12 13  1  0  0  0
 13 14  1  0  0  0
 13  9  1  0  0  0
 14 12  1  0  0  0
 16 17  1  0  0  0
 16 27  1  0  0  0
 18 19  1  0  0  0
 18 26  1  0  0  0
 20 15  1  0  0  0
 23  7  1  0  0  0
 25 24  1  0  0  0
 25  9  1  0  0  0
 25 15  1  0  0  0
  7 22  2  0  0  0
  8 24  2  0  0  0
  9 10  2  0  0  0
 15 16  2  0  0  0
 17 18  2  0  0  0
 19 20  2  0  0  0
M  END
> <rmsd>
0.532874763

$$$$
CHEMBL3357365_8GUT


 26 29  0  0  0  0  0  0  0  0999 V2000
  106.2458  109.0687  125.8605 O   0  0  0  0  0
  105.4778  107.2992  127.3506 O   0  0  0  0  0
  105.1723  108.6784  126.8372 S   0  0  0  0  0
  103.6253  108.6488  126.0048 C   0  0  0  0  0
  103.3912  109.5293  124.9222 C   0  0  0  0  0
  102.1537  109.5336  124.2539 C   0  0  0  0  0
  101.1842  108.6398  124.7045 C   0  0  0  0  0
  101.4047  107.7885  125.7479 C   0  0  0  0  0
  102.6174  107.7605  126.4299 C   0  0  0  0  0
   99.4293  107.4848  125.0546 C   0  0  0  0  0
   99.2593  109.1840  123.1892 C   0  0  0  0  0
   98.5150  110.3709  123.7713 C   0  0  0  0  0
   99.2773  111.6408  123.4551 C   0  0  0  0  0
   98.0566  111.2678  122.6414 C   0  0  0  0  0
   98.0393  106.9342  124.9208 C   0  0  0  0  0
   97.9664  105.6412  124.1037 C   0  0  0  0  0
   98.7567  104.5305  124.7724 C   0  0  0  0  0
   98.4864  105.8549  122.6930 C   0  0  0  0  0
   96.5172  105.2122  124.0189 C   0  0  0  0  0
  105.1971  109.8246  128.2110 C   0  0  0  0  0
  103.9655  109.6861  129.0774 C   0  0  0  0  0
  104.6076  111.1647  127.8319 C   0  0  0  0  0
  102.2754  110.8605  127.9341 C   0  0  0  0  0
  100.3099  107.0434  125.9919 N   0  0  0  0  0
   99.9384  108.4518  124.2504 N   0  0  0  0  0
  103.4758  111.0171  128.7390 N   0  0  0  0  0
  3  4  1  0  0  0
  3 20  1  0  0  0
  5  6  1  0  0  0
  7  8  1  0  0  0
  8 24  1  0  0  0
  9  4  1  0  0  0
 10 25  1  0  0  0
 11 25  1  0  0  0
 11 12  1  0  0  0
 12 13  1  0  0  0
 13 14  1  0  0  0
 14 12  1  0  0  0
 15 10  1  0  0  0
 15 16  1  0  0  0
 16 17  1  0  0  0
 16 18  1  0  0  0
 16 19  1  0  0  0
 20 21  1  0  0  0
 21 26  1  0  0  0
 22 26  1  0  0  0
 22 20  1  0  0  0
 23 26  1  0  0  0
 25  7  1  0  0  0
  3  1  2  0  0  0
  3  2  2  0  0  0
  4  5  2  0  0  0
  6  7  2  0  0  0
  8  9  2  0  0  0
 10 24  2  0  0  0
M  END
> <rmsd>
0.756785989

$$$$
CHEMBL3354949_8GUQ


 29 33  0  0  0  0  0  0  0  0999 V2000
   94.7256  105.4171  125.1528 C   0  0  0  0  0
   95.7574  105.0048  124.1080 C   0  0  0  0  0
   96.2296  103.5943  124.4305 C   0  0  0  0  0
   97.7228  106.1756  125.2887 C   0  0  0  0  0
   98.8291  107.1360  125.1941 C   0  0  0  0  0
  100.0746  108.7972  124.5677 C   0  0  0  0  0
   99.1214  107.9582  124.1222 C   0  0  0  0  0
   98.2284  108.6058  123.1400 C   0  0  0  0  0
   98.8631  110.0017  122.9349 C   0  0  0  0  0
  100.0421  110.1322  123.9169 C   0  0  0  0  0
   98.7303  110.8503  124.1895 C   0  0  0  0  0
  101.2135  109.2490  126.7465 C   0  0  0  0  0
  100.9012  109.2787  128.1141 C   0  0  0  0  0
  101.6969  109.9966  129.0102 C   0  0  0  0  0
  102.8185  110.6873  128.5483 C   0  0  0  0  0
  103.1525  110.6491  127.1929 C   0  0  0  0  0
  102.3591  109.9334  126.2911 C   0  0  0  0  0
   95.1630  105.0188  122.7177 C   0  0  0  0  0
   93.2853  105.3202  121.2800 C   0  0  0  0  0
   94.0684  105.0488  120.1573 C   0  0  0  0  0
   95.4220  104.7579  120.3258 C   0  0  0  0  0
   95.9752  104.7417  121.6066 C   0  0  0  0  0
   96.8888  105.9315  124.1481 N   0  0  0  0  0
   99.6212  107.4778  126.2350 N   0  0  0  0  0
  100.3780  108.4985  125.8486 N   0  0  0  0  0
   93.8416  105.2999  122.5211 N   0  0  0  0  0
   97.5169  105.5672  126.3734 O   0  0  0  0  0
  102.7401  109.8741  124.9914 F   0  0  0  0  0
  103.5901  111.3840  129.4166 F   0  0  0  0  0
  1  2  1  0  0  0
  2  3  1  0  0  0
  2 23  1  0  0  0
  2 18  1  0  0  0
  4  5  1  0  0  0
  7  5  1  0  0  0
  8  7  1  0  0  0
  9  8  1  0  0  0
  9 10  1  0  0  0
 10 11  1  0  0  0
 10  6  1  0  0  0
 11  9  1  0  0  0
 13 14  1  0  0  0
 15 16  1  0  0  0
 15 29  1  0  0  0
 17 28  1  0  0  0
 17 12  1  0  0  0
 19 26  1  0  0  0
 20 21  1  0  0  0
 22 18  1  0  0  0
 23  4  1  0  0  0
 25 24  1  0  0  0
 25  6  1  0  0  0
 25 12  1  0  0  0
  4 27  2  0  0  0
  5 24  2  0  0  0
  6  7  2  0  0  0
 12 13  2  0  0  0
 14 15  2  0  0  0
 16 17  2  0  0  0
 18 26  2  0  0  0
 19 20  2  0  0  0
 21 22  2  0  0  0
M  END
> <rmsd>
0.655475795

$$$$
CHEMBL3354951_8GUQ


 25 28  0  0  0  0  0  0  0  0999 V2000
   95.1511  105.0075  122.7332 C   0  0  0  0  0
   95.7589  105.0008  124.1221 C   0  0  0  0  0
   96.2216  103.5890  124.4328 C   0  0  0  0  0
   97.7212  106.1768  125.2898 C   0  0  0  0  0
   98.8285  107.1361  125.1940 C   0  0  0  0  0
  100.0746  108.7970  124.5676 C   0  0  0  0  0
   99.1209  107.9582  124.1220 C   0  0  0  0  0
   98.2271  108.6072  123.1416 C   0  0  0  0  0
   98.8617  110.0031  122.9368 C   0  0  0  0  0
  100.0419  110.1324  123.9175 C   0  0  0  0  0
   98.7306  110.8508  124.1922 C   0  0  0  0  0
  101.2131  109.2489  126.7465 C   0  0  0  0  0
  100.9002  109.2791  128.1140 C   0  0  0  0  0
  101.6954  109.9973  129.0101 C   0  0  0  0  0
  102.8173  110.6880  128.5484 C   0  0  0  0  0
  103.1518  110.6493  127.1931 C   0  0  0  0  0
  102.3587  109.9331  126.2912 C   0  0  0  0  0
   94.7027  105.4213  125.1374 C   0  0  0  0  0
   96.8951  105.9200  124.1462 N   0  0  0  0  0
   99.6204  107.4781  126.2350 N   0  0  0  0  0
  100.3778  108.4983  125.8484 N   0  0  0  0  0
   97.5066  105.5803  126.3795 O   0  0  0  0  0
  102.7402  109.8736  124.9918 F   0  0  0  0  0
  103.5884  111.3850  129.4168 F   0  0  0  0  0
   94.2904  106.7234  124.9096 F   0  0  0  0  0
  1  2  1  0  0  0
  2  3  1  0  0  0
  2 19  1  0  0  0
  2 18  1  0  0  0
  4  5  1  0  0  0
  7  5  1  0  0  0
  8  7  1  0  0  0
  9  8  1  0  0  0
  9 10  1  0  0  0
 10 11  1  0  0  0
 10  6  1  0  0  0
 11  9  1  0  0  0
 13 14  1  0  0  0
 15 16  1  0  0  0
 15 24  1  0  0  0
 17 23  1  0  0  0
 17 12  1  0  0  0
 18 25  1  0  0  0
 19  4  1  0  0  0
 21 20  1  0  0  0
 21  6  1  0  0  0
 21 12  1  0  0  0
  4 22  2  0  0  0
  5 20  2  0  0  0
  6  7  2  0  0  0
 12 13  2  0  0  0
 14 15  2  0  0  0
 16 17  2  0  0  0
M  END
> <rmsd>
0.655204237

$$$$
CHEMBL3910469_6KPF


 26 28  0  0  0  0  0  0  0  0999 V2000
  101.2742  110.7191  127.9414 C   0  0  0  0  0
  101.9659  109.4425  127.4970 C   0  0  0  0  0
  100.4023  108.8538  125.6597 C   0  0  0  0  0
   99.6565  109.6670  124.6801 C   0  0  0  0  0
   97.7351  109.9229  123.2873 C   0  0  0  0  0
   98.1915  111.1790  122.8574 C   0  0  0  0  0
   99.3968  111.6713  123.3623 C   0  0  0  0  0
  100.1320  110.9189  124.2766 C   0  0  0  0  0
   96.1891  111.8607  121.1579 C   0  0  0  0  0
   96.3204  113.1742  120.4848 C   0  0  0  0  0
   97.5833  113.2663  121.2549 C   0  0  0  0  0
   96.0255  108.1499  123.2075 C   0  0  0  0  0
   94.7057  107.8859  122.5141 C   0  0  0  0  0
   93.5715  108.2103  123.4637 C   0  0  0  0  0
   93.9818  106.7706  123.2379 C   0  0  0  0  0
  102.8814  109.2697  125.1375 C   0  0  0  0  0
  104.0362  108.4332  125.6644 C   0  0  0  0  0
  102.5354  108.7359  123.7533 C   0  0  0  0  0
  103.3508  110.7062  124.9957 C   0  0  0  0  0
  101.7369  109.2065  126.0718 N   0  0  0  0  0
   98.4746  109.2083  124.1828 N   0  0  0  0  0
   97.4462  111.9592  121.9204 N   0  0  0  0  0
   99.8443  107.8499  126.1789 O   0  0  0  0  0
   96.5305  109.4124  122.7995 O   0  0  0  0  0
   96.5118  113.0783  119.1196 F   0  0  0  0  0
   95.3662  114.0935  120.8772 F   0  0  0  0  0
  1  2  1  0  0  0
  2 20  1  0  0  0
  3  4  1  0  0  0
  5 21  1  0  0  0
  5 24  1  0  0  0
  6  7  1  0  0  0
  6 22  1  0  0  0
  8  4  1  0  0  0
  9 22  1  0  0  0
  9 10  1  0  0  0
 10 11  1  0  0  0
 10 25  1  0  0  0
 10 26  1  0  0  0
 11 22  1  0  0  0
 12 24  1  0  0  0
 12 13  1  0  0  0
 13 14  1  0  0  0
 14 15  1  0  0  0
 15 13  1  0  0  0
 16 20  1  0  0  0
 16 17  1  0  0  0
 16 18  1  0  0  0
 16 19  1  0  0  0
 20  3  1  0  0  0
  3 23  2  0  0  0
  4 21  2  0  0  0
  5  6  2  0  0  0
  7  8  2  0  0  0
M  END
> <rmsd>
0.714468658

$$$$
CHEMBL4438072_6PT0


 27 30  0  0  0  0  0  0  0  0999 V2000
   97.3003  113.3515  119.5576 C   0  0  0  0  0
   96.3210  113.1447  120.6976 C   0  0  0  0  0
   96.0130  111.6650  120.8732 C   0  0  0  0  0
   97.1853  110.9267  121.5005 C   0  0  0  0  0
   97.2936  111.2626  122.9794 C   0  0  0  0  0
   98.4564  109.6481  124.4799 C   0  0  0  0  0
   99.7670  109.3151  124.8178 C   0  0  0  0  0
  100.5938  110.1280  124.0493 C   0  0  0  0  0
   99.7620  110.9260  123.3029 C   0  0  0  0  0
  100.2561  111.8807  122.4120 C   0  0  0  0  0
  101.6498  111.9956  122.2816 C   0  0  0  0  0
  102.5091  111.1598  123.0229 C   0  0  0  0  0
  101.9860  110.2077  123.9142 C   0  0  0  0  0
  100.1352  108.2956  125.8194 C   0  0  0  0  0
  101.2788  108.4580  126.7475 C   0  0  0  0  0
  102.0711  107.3314  127.0122 C   0  0  0  0  0
  103.1730  107.4112  127.8649 C   0  0  0  0  0
  103.4985  108.6209  128.4770 C   0  0  0  0  0
  102.7173  109.7540  128.2481 C   0  0  0  0  0
  103.0431  110.9547  128.8852 C   0  0  0  0  0
  102.2541  112.0902  128.6884 C   0  0  0  0  0
  101.1331  112.0283  127.8583 C   0  0  0  0  0
  100.8021  110.8327  127.2162 C   0  0  0  0  0
  101.5913  109.6837  127.3881 C   0  0  0  0  0
   98.4733  110.6323  123.5544 N   0  0  0  0  0
  102.8244  109.3780  124.5786 F   0  0  0  0  0
   99.4365  107.2488  125.8943 O   0  0  0  0  0
  1  2  1  0  0  0
  2  3  1  0  0  0
  3  4  1  0  0  0
  4  5  1  0  0  0
  5 25  1  0  0  0
  7  8  1  0  0  0
  7 14  1  0  0  0
  9 10  1  0  0  0
  9 25  1  0  0  0
 11 12  1  0  0  0
 13 26  1  0  0  0
 13  8  1  0  0  0
 14 15  1  0  0  0
 16 17  1  0  0  0
 18 19  1  0  0  0
 20 21  1  0  0  0
 22 23  1  0  0  0
 24 15  1  0  0  0
 24 19  1  0  0  0
 25  6  1  0  0  0
  6  7  2  0  0  0
  8  9  2  0  0  0
 10 11  2  0  0  0
 12 13  2  0  0  0
 14 27  2  0  0  0
 15 16  2  0  0  0
 17 18  2  0  0  0
 19 20  2  0  0  0
 21 22  2  0  0  0
 23 24  2  0  0  0
M  END
> <rmsd>
0.729990363

$$$$
CHEMBL4103902_5ZTY


 29 33  0  0  0  0  0  0  0  0999 V2000
   99.1819  110.4576  131.9102 C   0  0  0  0  0
  100.5256  109.9235  131.3856 C   0  0  0  0  0
  100.5957  108.4073  131.6535 C   0  0  0  0  0
  100.4849  108.1331  133.1614 C   0  0  0  0  0
   99.1423  108.6774  133.6750 C   0  0  0  0  0
   99.0572  110.1908  133.4195 C   0  0  0  0  0
  100.2102  110.8927  134.1548 C   0  0  0  0  0
  101.5591  110.3615  133.6440 C   0  0  0  0  0
  101.6691  110.6340  132.1357 C   0  0  0  0  0
  101.6345  108.8459  133.8927 C   0  0  0  0  0
  101.7267  109.8326  129.1226 C   0  0  0  0  0
  101.6906  110.1473  127.6871 C   0  0  0  0  0
  102.6505  109.8598  126.7337 C   0  0  0  0  0
  103.8842  109.2172  126.8335 C   0  0  0  0  0
  104.6320  109.0559  125.6534 C   0  0  0  0  0
  104.1363  109.5290  124.4193 C   0  0  0  0  0
  102.8869  110.1704  124.3491 C   0  0  0  0  0
  102.1696  110.3205  125.5369 C   0  0  0  0  0
  100.6443  110.7802  127.0168 C   0  0  0  0  0
  100.0910  111.4246  124.6666 C   0  0  0  0  0
   99.3808  110.2972  123.9342 C   0  0  0  0  0
   98.3436  109.6534  124.8388 C   0  0  0  0  0
   97.9874  108.2647  124.3338 C   0  0  0  0  0
   99.1273  107.2876  124.5840 C   0  0  0  0  0
  100.6687  106.8478  126.1007 C   0  0  0  0  0
  100.6146  110.1904  129.9533 N   0  0  0  0  0
  100.9596  110.8841  125.7045 N   0  0  0  0  0
  102.7293  109.2493  129.6167 O   0  0  0  0  0
   99.3048  107.0980  125.9553 O   0  0  0  0  0
  1  2  1  0  0  0
  2  3  1  0  0  0
  2 26  1  0  0  0
  3  4  1  0  0  0
  4  5  1  0  0  0
  5  6  1  0  0  0
  6  7  1  0  0  0
  6  1  1  0  0  0
  7  8  1  0  0  0
  8  9  1  0  0  0
  8 10  1  0  0  0
  9  2  1  0  0  0
 10  4  1  0  0  0
 11 12  1  0  0  0
 12 13  1  0  0  0
 14 15  1  0  0  0
 16 17  1  0  0  0
 18 27  1  0  0  0
 18 13  1  0  0  0
 20 27  1  0  0  0
 20 21  1  0  0  0
 21 22  1  0  0  0
 22 23  1  0  0  0
 23 24  1  0  0  0
 24 29  1  0  0  0
 25 29  1  0  0  0
 26 11  1  0  0  0
 27 19  1  0  0  0
 11 28  2  0  0  0
 13 14  2  0  0  0
 15 16  2  0  0  0
 17 18  2  0  0  0
 19 12  2  0  0  0
M  END
> <rmsd>
0.722029686

$$$$
CHEMBL3586105_6KPF


 24 26  0  0  0  0  0  0  0  0999 V2000
   97.3570  115.4270  124.2429 C   0  0  0  0  0
   96.4350  114.9230  123.1483 C   0  0  0  0  0
   96.7121  113.4597  122.8548 C   0  0  0  0  0
   96.1420  112.5802  123.9565 C   0  0  0  0  0
   96.4711  111.1174  123.6951 C   0  0  0  0  0
   97.9119  110.8252  123.9594 C   0  0  0  0  0
   98.7421  110.4403  122.9066 C   0  0  0  0  0
  100.0883  110.1447  123.1358 C   0  0  0  0  0
  100.6152  110.2017  124.4462 C   0  0  0  0  0
   99.7809  110.6582  125.4933 C   0  0  0  0  0
   98.4352  110.9403  125.2493 C   0  0  0  0  0
  101.6828  110.8318  127.0662 C   0  0  0  0  0
  102.3632  109.7129  126.2585 C   0  0  0  0  0
  102.0742  109.8711  124.7405 C   0  0  0  0  0
  102.5672  108.6500  124.0061 C   0  0  0  0  0
  102.3307  107.4264  124.4902 C   0  0  0  0  0
  101.5943  107.2583  125.7876 C   0  0  0  0  0
  102.0333  108.3031  126.8237 C   0  0  0  0  0
  102.8568  106.2316  123.7740 C   0  0  0  0  0
  102.2819  112.1781  126.6878 C   0  0  0  0  0
  101.8937  110.6470  128.5604 C   0  0  0  0  0
  100.2843  110.8400  126.7868 O   0  0  0  0  0
  100.2187  107.3531  125.5721 O   0  0  0  0  0
  100.8886  109.8037  122.0519 O   0  0  0  0  0
  1  2  1  0  0  0
  2  3  1  0  0  0
  3  4  1  0  0  0
  4  5  1  0  0  0
  5  6  1  0  0  0
  7  8  1  0  0  0
  8 24  1  0  0  0
  9 10  1  0  0  0
 10 22  1  0  0  0
 11  6  1  0  0  0
 12 22  1  0  0  0
 12 20  1  0  0  0
 12 21  1  0  0  0
 13 12  1  0  0  0
 13 14  1  0  0  0
 14 15  1  0  0  0
 14  9  1  0  0  0
 17 16  1  0  0  0
 17 18  1  0  0  0
 17 23  1  0  0  0
 18 13  1  0  0  0
 19 16  1  0  0  0
  6  7  2  0  0  0
  8  9  2  0  0  0
 10 11  2  0  0  0
 15 16  2  0  0  0
M  END
> <rmsd>
0.676832259

$$$$
CHEMBL4519883_6PT0


 27 30  0  0  0  0  0  0  0  0999 V2000
   93.6763  110.4602  122.1005 C   0  0  0  0  0
   94.5146  109.3145  121.5751 C   0  0  0  0  0
   95.0199  108.4837  122.7394 C   0  0  0  0  0
   95.9040  107.3496  122.2423 C   0  0  0  0  0
   97.2494  107.8714  121.7509 C   0  0  0  0  0
   98.5456  107.6803  123.8869 C   0  0  0  0  0
   99.2468  108.5349  124.7378 C   0  0  0  0  0
   99.1326  109.8050  124.1950 C   0  0  0  0  0
   98.3954  109.6802  123.0475 C   0  0  0  0  0
   98.0771  110.7825  122.2530 C   0  0  0  0  0
   98.5396  112.0426  122.6709 C   0  0  0  0  0
   99.2917  112.1740  123.8581 C   0  0  0  0  0
   99.5918  111.0450  124.6399 C   0  0  0  0  0
   99.9221  108.1304  125.9872 C   0  0  0  0  0
  100.9517  108.9713  126.6323 C   0  0  0  0  0
  100.7880  109.2944  127.9859 C   0  0  0  0  0
  101.7222  110.0927  128.6490 C   0  0  0  0  0
  102.8412  110.5742  127.9691 C   0  0  0  0  0
  103.0369  110.2512  126.6255 C   0  0  0  0  0
  104.1710  110.7236  125.9591 C   0  0  0  0  0
  104.3903  110.3860  124.6214 C   0  0  0  0  0
  103.4791  109.5708  123.9459 C   0  0  0  0  0
  102.3417  109.0960  124.6037 C   0  0  0  0  0
  102.0976  109.4365  125.9444 C   0  0  0  0  0
   98.0355  108.3991  122.8588 N   0  0  0  0  0
   99.7249  113.3964  124.2484 F   0  0  0  0  0
   99.5960  107.0421  126.5330 O   0  0  0  0  0
  1  2  1  0  0  0
  2  3  1  0  0  0
  3  4  1  0  0  0
  4  5  1  0  0  0
  5 25  1  0  0  0
  7  8  1  0  0  0
  7 14  1  0  0  0
  9 10  1  0  0  0
  9 25  1  0  0  0
 11 12  1  0  0  0
 12 26  1  0  0  0
 13  8  1  0  0  0
 14 15  1  0  0  0
 16 17  1  0  0  0
 18 19  1  0  0  0
 20 21  1  0  0  0
 22 23  1  0  0  0
 24 15  1  0  0  0
 24 19  1  0  0  0
 25  6  1  0  0  0
  6  7  2  0  0  0
  8  9  2  0  0  0
 10 11  2  0  0  0
 12 13  2  0  0  0
 14 27  2  0  0  0
 15 16  2  0  0  0
 17 18  2  0  0  0
 19 20  2  0  0  0
 21 22  2  0  0  0
 23 24  2  0  0  0
M  END
> <rmsd>
0.74011755

$$$$
CHEMBL3900956_8GUR


 24 26  0  0  0  0  0  0  0  0999 V2000
  102.5160  108.8404  125.5996 C   0  0  0  0  0
  101.4177  108.0618  127.7028 C   0  0  0  0  0
  100.5207  107.0819  127.0512 C   0  0  0  0  0
  100.0655  105.9628  127.7567 C   0  0  0  0  0
   99.1900  105.0706  127.1391 C   0  0  0  0  0
   98.7525  105.3014  125.8291 C   0  0  0  0  0
   97.8432  104.3134  125.1532 C   0  0  0  0  0
   96.6266  104.0146  126.0159 C   0  0  0  0  0
   96.5025  104.9601  124.8450 C   0  0  0  0  0
   99.2439  106.4256  125.1427 C   0  0  0  0  0
   99.2962  107.8024  123.0868 C   0  0  0  0  0
   98.3685  108.9839  123.3250 C   0  0  0  0  0
   98.7451  110.1154  122.3976 C   0  0  0  0  0
   98.6460  111.3390  123.2570 C   0  0  0  0  0
   98.1858  110.8078  124.5928 C   0  0  0  0  0
  102.3701  110.4189  127.5966 C   0  0  0  0  0
  102.7839  111.4754  126.5798 C   0  0  0  0  0
  101.1572  110.9593  128.3372 C   0  0  0  0  0
  103.5132  110.2404  128.5801 C   0  0  0  0  0
  102.0471  109.1262  126.9545 N   0  0  0  0  0
  100.1002  107.2783  125.7723 N   0  0  0  0  0
  101.6111  107.9777  128.9470 O   0  0  0  0  0
   98.8587  106.6632  123.8189 O   0  0  0  0  0
   98.4797  109.4385  124.6479 O   0  0  0  0  0
  1 20  1  0  0  0
  2  3  1  0  0  0
  3 21  1  0  0  0
  4  5  1  0  0  0
  6 10  1  0  0  0
  7  6  1  0  0  0
  7  8  1  0  0  0
  8  9  1  0  0  0
  9  7  1  0  0  0
 10 23  1  0  0  0
 11 23  1  0  0  0
 11 12  1  0  0  0
 12 13  1  0  0  0
 12 24  1  0  0  0
 13 14  1  0  0  0
 14 15  1  0  0  0
 15 24  1  0  0  0
 16 20  1  0  0  0
 16 17  1  0  0  0
 16 18  1  0  0  0
 16 19  1  0  0  0
 20  2  1  0  0  0
  2 22  2  0  0  0
  3  4  2  0  0  0
  5  6  2  0  0  0
 10 21  2  0  0  0
M  END
> <rmsd>
0.699492157

$$$$
CHEMBL4439977_6PT0


 29 32  0  0  0  0  0  0  0  0999 V2000
   96.2743  105.4219  123.4468 C   0  0  0  0  0
   97.2349  105.0572  124.4143 C   0  0  0  0  0
   98.2360  105.9632  124.8064 C   0  0  0  0  0
   98.2439  107.2250  124.2071 C   0  0  0  0  0
   97.3112  107.5719  123.2602 C   0  0  0  0  0
   96.3043  106.6974  122.8565 C   0  0  0  0  0
   97.5848  108.8658  122.8739 C   0  0  0  0  0
   98.6879  109.2589  123.6255 C   0  0  0  0  0
  100.1762  108.2651  125.3906 C   0  0  0  0  0
  101.4584  108.9372  125.0828 C   0  0  0  0  0
  102.2088  109.6315  126.0620 C   0  0  0  0  0
  103.4360  110.2238  125.7039 C   0  0  0  0  0
  103.9062  110.1261  124.3927 C   0  0  0  0  0
  103.1669  109.4437  123.4287 C   0  0  0  0  0
  101.9522  108.8528  123.7734 C   0  0  0  0  0
   99.2626  110.6379  123.6260 C   0  0  0  0  0
   96.7860  109.7084  121.9363 C   0  0  0  0  0
   95.6897  110.4298  122.6995 C   0  0  0  0  0
   93.5249  111.2824  122.2203 C   0  0  0  0  0
   93.2099  112.3324  123.2983 C   0  0  0  0  0
   95.0409  113.5382  122.9137 C   0  0  0  0  0
   95.5462  112.6261  121.7836 C   0  0  0  0  0
   99.1002  108.2449  124.4336 N   0  0  0  0  0
   94.9343  111.2850  121.7935 N   0  0  0  0  0
  100.0425  107.6513  126.4837 O   0  0  0  0  0
   94.3866  112.7928  123.9034 O   0  0  0  0  0
  104.4105  111.1061  126.8699 Cl  0  0  0  0  0
  101.6050  109.8217  127.7107 Cl  0  0  0  0  0
   94.9258  104.1767  122.9369 Br  0  0  0  0  0
  1 29  1  0  0  0
  2  3  1  0  0  0
  4  5  1  0  0  0
  5  7  1  0  0  0
  6  1  1  0  0  0
  8 23  1  0  0  0
  9 10  1  0  0  0
 11 12  1  0  0  0
 11 28  1  0  0  0
 12 27  1  0  0  0
 13 14  1  0  0  0
 15 10  1  0  0  0
 16  8  1  0  0  0
 17  7  1  0  0  0
 17 18  1  0  0  0
 18 24  1  0  0  0
 19 24  1  0  0  0
 19 20  1  0  0  0
 20 26  1  0  0  0
 21 26  1  0  0  0
 21 22  1  0  0  0
 22 24  1  0  0  0
 23  9  1  0  0  0
 23  4  1  0  0  0
  1  2  2  0  0  0
  3  4  2  0  0  0
  5  6  2  0  0  0
  7  8  2  0  0  0
  9 25  2  0  0  0
 10 11  2  0  0  0
 12 13  2  0  0  0
 14 15  2  0  0  0
M  END
> <rmsd>
0.723040342

$$$$
CHEMBL4777097_5ZTY


 23 23  0  0  0  0  0  0  0  0999 V2000
   99.2270  109.2154  124.6874 C   0  0  0  0  0
   99.7380  107.1125  124.9044 C   0  0  0  0  0
   99.1264  107.9961  124.0287 C   0  0  0  0  0
   99.9070  105.6737  124.6785 C   0  0  0  0  0
   99.5171  103.6591  123.1338 C   0  0  0  0  0
   98.8795  103.4279  121.7770 C   0  0  0  0  0
  100.9775  103.2548  123.0446 C   0  0  0  0  0
   98.8193  102.7940  124.1802 C   0  0  0  0  0
  100.2421  110.0421  126.8430 C   0  0  0  0  0
  101.5924  110.6678  126.5113 C   0  0  0  0  0
  102.7253  109.6711  126.6860 C   0  0  0  0  0
  103.0455  109.0134  125.3558 C   0  0  0  0  0
  104.0710  107.9140  125.5509 C   0  0  0  0  0
   98.7400  110.5473  124.1548 C   0  0  0  0  0
   99.9254  111.4215  123.7953 C   0  0  0  0  0
   97.8871  110.3715  122.9084 C   0  0  0  0  0
   97.8953  111.2561  125.1973 C   0  0  0  0  0
   99.8727  109.0282  125.8616 N   0  0  0  0  0
  100.1821  107.7522  126.0014 N   0  0  0  0  0
   99.4095  105.0773  123.4731 N   0  0  0  0  0
  100.4907  104.9700  125.5465 O   0  0  0  0  0
   97.4815  103.1694  124.3267 O   0  0  0  0  0
  103.5069  106.8606  126.2471 F   0  0  0  0  0
  1 18  1  0  0  0
  2  3  1  0  0  0
  2  4  1  0  0  0
  4 20  1  0  0  0
  5 20  1  0  0  0
  5  6  1  0  0  0
  5  7  1  0  0  0
  5  8  1  0  0  0
  8 22  1  0  0  0
  9 18  1  0  0  0
  9 10  1  0  0  0
 10 11  1  0  0  0
 11 12  1  0  0  0
 12 13  1  0  0  0
 13 23  1  0  0  0
 14  1  1  0  0  0
 14 15  1  0  0  0
 14 16  1  0  0  0
 14 17  1  0  0  0
 18 19  1  0  0  0
  2 19  2  0  0  0
  3  1  2  0  0  0
  4 21  2  0  0  0
M  END
> <rmsd>
0.792708457

$$$$
CHEMBL3686312_8GUR


 37 40  0  0  0  0  0  0  0  0999 V2000
  102.8500  106.7010  121.3652 C   0  0  0  0  0
  103.5115  108.5748  122.5915 C   0  0  0  0  0
  103.9330  108.7703  124.0264 C   0  0  0  0  0
  103.7797  107.4047  124.6448 C   0  0  0  0  0
  102.8676  106.6302  123.7115 C   0  0  0  0  0
  101.5923  106.2655  124.4499 C   0  0  0  0  0
   99.4793  105.8577  123.1950 C   0  0  0  0  0
   99.0331  105.3501  121.9702 C   0  0  0  0  0
   97.8008  105.7365  121.4414 C   0  0  0  0  0
   96.9826  106.6328  122.1378 C   0  0  0  0  0
   95.6859  107.0978  121.5403 C   0  0  0  0  0
   97.4126  107.1330  123.3718 C   0  0  0  0  0
   98.6437  106.7486  123.9184 C   0  0  0  0  0
   98.9712  107.2297  125.2722 C   0  0  0  0  0
   99.2851  109.6274  124.8347 C   0  0  0  0  0
  100.0348  111.2004  123.0913 C   0  0  0  0  0
  100.4254  111.9191  121.8270 C   0  0  0  0  0
   99.2198  112.0219  120.9151 C   0  0  0  0  0
  101.5244  111.1610  121.1047 C   0  0  0  0  0
  100.9351  113.3194  122.1223 C   0  0  0  0  0
   99.6411  111.7975  124.2906 C   0  0  0  0  0
   98.8493  111.3396  126.5898 C   0  0  0  0  0
  100.0570  111.5458  127.5038 C   0  0  0  0  0
  100.8008  110.2502  127.7509 C   0  0  0  0  0
  102.2437  110.6273  127.6080 C   0  0  0  0  0
  102.2092  112.1271  127.4391 C   0  0  0  0  0
  102.5591  107.4750  122.5597 N   0  0  0  0  0
   98.9800  108.6253  125.6117 N   0  0  0  0  0
   99.2493  110.9156  125.2507 N   0  0  0  0  0
  103.0570  109.6475  124.6390 F   0  0  0  0  0
   94.7878  107.4387  122.5372 F   0  0  0  0  0
   95.9197  108.2057  120.7470 F   0  0  0  0  0
   95.1246  106.0969  120.7655 F   0  0  0  0  0
  100.7564  105.4671  123.6218 O   0  0  0  0  0
   99.1774  106.3843  126.1825 O   0  0  0  0  0
  100.9419  112.4897  126.9602 O   0  0  0  0  0
   99.8366  109.5300  123.2442 S   0  0  0  0  0
  1 27  1  0  0  0
  2 27  1  0  0  0
  2  3  1  0  0  0
  3 30  1  0  0  0
  3  4  1  0  0  0
  4  5  1  0  0  0
  5  6  1  0  0  0
  5 27  1  0  0  0
  6 34  1  0  0  0
  7 34  1  0  0  0
  8  9  1  0  0  0
 10 12  1  0  0  0
 11 10  1  0  0  0
 11 31  1  0  0  0
 11 32  1  0  0  0
 11 33  1  0  0  0
 13 14  1  0  0  0
 13  7  1  0  0  0
 14 28  1  0  0  0
 15 37  1  0  0  0
 16 37  1  0  0  0
 17 16  1  0  0  0
 17 18  1  0  0  0
 17 19  1  0  0  0
 17 20  1  0  0  0
 21 29  1  0  0  0
 22 29  1  0  0  0
 23 22  1  0  0  0
 23 24  1  0  0  0
 23 36  1  0  0  0
 24 25  1  0  0  0
 25 26  1  0  0  0
 26 36  1  0  0  0
 29 15  1  0  0  0
  7  8  2  0  0  0
  9 10  2  0  0  0
 12 13  2  0  0  0
 14 35  2  0  0  0
 15 28  2  0  0  0
 16 21  2  0  0  0
M  END
> <rmsd>
0.738829315

$$$$
CHEMBL3960116_5ZTY


 30 33  0  0  0  0  0  0  0  0999 V2000
  102.9748  109.5339  124.7737 C   0  0  0  0  0
  102.9095  108.5680  125.9479 C   0  0  0  0  0
  101.6571  108.7396  126.8302 C   0  0  0  0  0
  101.4772  110.1852  127.3347 C   0  0  0  0  0
  102.7055  110.7680  128.0170 C   0  0  0  0  0
  100.4352  108.3479  126.0221 C   0  0  0  0  0
   98.6643  109.2307  124.1895 C   0  0  0  0  0
   98.8066  110.6319  123.7285 C   0  0  0  0  0
   99.9494  110.6601  124.6702 C   0  0  0  0  0
  102.8613  107.6500  128.8656 C   0  0  0  0  0
  102.7284  106.7865  130.0485 C   0  0  0  0  0
  103.7174  105.8259  131.9962 C   0  0  0  0  0
  102.5106  105.1779  132.3155 C   0  0  0  0  0
  101.4192  105.3259  131.4512 C   0  0  0  0  0
  101.5215  106.1349  130.3207 C   0  0  0  0  0
  102.4088  104.2680  133.5080 C   0  0  0  0  0
  101.1801  104.5977  134.3420 C   0  0  0  0  0
  102.5418  105.0708  134.7923 C   0  0  0  0  0
  106.0753  106.2969  132.5395 C   0  0  0  0  0
  107.0958  105.8939  133.5830 C   0  0  0  0  0
  108.4826  106.2108  133.0650 C   0  0  0  0  0
  107.9668  104.7881  133.0250 C   0  0  0  0  0
   99.9773  107.1761  126.1091 O   0  0  0  0  0
  103.9659  108.2088  128.6257 O   0  0  0  0  0
  104.8374  105.6589  132.8153 O   0  0  0  0  0
   99.8037  109.2645  125.1221 N   0  0  0  0  0
  101.7414  107.8355  127.9849 N   0  0  0  0  0
  103.7886  106.6117  130.8844 N   0  0  0  0  0
   97.7591  111.4494  124.1083 F   0  0  0  0  0
   99.1827  110.7426  122.4040 F   0  0  0  0  0
  1  2  1  0  0  0
  2  3  1  0  0  0
  3  4  1  0  0  0
  3  6  1  0  0  0
  3 27  1  0  0  0
  4  5  1  0  0  0
  6 26  1  0  0  0
  7 26  1  0  0  0
  7  8  1  0  0  0
  8  9  1  0  0  0
  8 29  1  0  0  0
  8 30  1  0  0  0
  9 26  1  0  0  0
 10 11  1  0  0  0
 12 28  1  0  0  0
 12 25  1  0  0  0
 13 14  1  0  0  0
 15 11  1  0  0  0
 16 13  1  0  0  0
 16 17  1  0  0  0
 17 18  1  0  0  0
 18 16  1  0  0  0
 19 25  1  0  0  0
 19 20  1  0  0  0
 20 21  1  0  0  0
 21 22  1  0  0  0
 22 20  1  0  0  0
 27 10  1  0  0  0
  6 23  2  0  0  0
 10 24  2  0  0  0
 11 28  2  0  0  0
 12 13  2  0  0  0
 14 15  2  0  0  0
M  END
> <rmsd>
0.539747775

$$$$
CHEMBL3940907_8GUQ


 32 34  0  0  0  0  0  0  0  0999 V2000
   97.2510  118.4512  122.7548 C   0  0  0  0  0
   97.4578  117.2292  121.9339 C   0  0  0  0  0
   97.2505  115.3175  121.1501 C   0  0  0  0  0
   96.7866  113.9083  120.9078 C   0  0  0  0  0
   95.2648  113.6677  121.0238 C   0  0  0  0  0
   94.7477  113.9049  122.4322 C   0  0  0  0  0
   94.9408  112.2394  120.6262 C   0  0  0  0  0
   94.5217  114.5894  120.0733 C   0  0  0  0  0
   97.8279  112.9170  123.0549 C   0  0  0  0  0
   98.6047  111.8197  123.6511 C   0  0  0  0  0
   99.8003  109.7878  123.3721 C   0  0  0  0  0
  100.0636  109.7013  124.7477 C   0  0  0  0  0
   99.6120  110.7569  125.5829 C   0  0  0  0  0
   98.8620  111.7943  125.0244 C   0  0  0  0  0
  101.1070  110.4755  127.5598 C   0  0  0  0  0
  102.1472  111.5435  127.2531 C   0  0  0  0  0
  100.9319  110.3016  129.0652 C   0  0  0  0  0
  100.8155  108.4971  125.2680 C   0  0  0  0  0
  100.1215  107.7549  126.3777 C   0  0  0  0  0
  100.5834  107.2203  124.5034 C   0  0  0  0  0
   98.3983  117.1121  120.9791 N   0  0  0  0  0
   98.2676  115.8921  120.4809 N   0  0  0  0  0
   97.5944  112.9292  121.6403 N   0  0  0  0  0
   99.0901  110.8263  122.8610 N   0  0  0  0  0
   96.7501  116.1328  122.0483 O   0  0  0  0  0
   97.3842  113.8444  123.7850 O   0  0  0  0  0
   99.8628  110.8216  126.9602 O   0  0  0  0  0
   99.9480  106.6027  125.5932 O   0  0  0  0  0
  102.1339  109.9267  129.6382 F   0  0  0  0  0
  100.4998  111.4843  129.6399 F   0  0  0  0  0
   99.9958  109.3136  129.3077 F   0  0  0  0  0
  102.1595  108.7172  125.5078 F   0  0  0  0  0
  1  2  1  0  0  0
  2 25  1  0  0  0
  3 25  1  0  0  0
  4  3  1  0  0  0
  4  5  1  0  0  0
  4 23  1  0  0  0
  5  6  1  0  0  0
  5  7  1  0  0  0
  5  8  1  0  0  0
  9 10  1  0  0  0
 11 24  1  0  0  0
 12 13  1  0  0  0
 13 27  1  0  0  0
 14 10  1  0  0  0
 15 27  1  0  0  0
 15 16  1  0  0  0
 15 17  1  0  0  0
 17 29  1  0  0  0
 17 30  1  0  0  0
 17 31  1  0  0  0
 18 12  1  0  0  0
 18 19  1  0  0  0
 18 32  1  0  0  0
 19 28  1  0  0  0
 20 28  1  0  0  0
 20 18  1  0  0  0
 21 22  1  0  0  0
 23  9  1  0  0  0
  2 21  2  0  0  0
  3 22  2  0  0  0
  9 26  2  0  0  0
 10 24  2  0  0  0
 11 12  2  0  0  0
 13 14  2  0  0  0
M  END
> <rmsd>
0.710421026

$$$$
CHEMBL5192105_8GUR


 25 26  0  0  0  0  0  0  0  0999 V2000
   99.9535  107.9145  123.9781 C   0  0  0  0  0
  100.2525  107.6748  122.6205 C   0  0  0  0  0
  100.5300  106.3770  122.1843 C   0  0  0  0  0
  100.5233  105.3130  123.0884 C   0  0  0  0  0
  100.2179  105.5430  124.4314 C   0  0  0  0  0
   99.9388  106.8363  124.8797 C   0  0  0  0  0
   99.3087  102.9475  121.6060 C   0  0  0  0  0
   98.1046  102.9279  122.5311 C   0  0  0  0  0
   97.4219  104.2823  122.5367 C   0  0  0  0  0
   96.2658  104.2612  123.5132 C   0  0  0  0  0
  101.2431  102.4751  123.9263 C   0  0  0  0  0
  102.2680  103.6030  121.2978 C   0  0  0  0  0
   99.6570  109.2987  124.4853 C   0  0  0  0  0
   98.3887  109.8520  123.8896 C   0  0  0  0  0
   98.1150  111.1549  124.0082 C   0  0  0  0  0
   99.1014  112.0588  124.6861 C   0  0  0  0  0
  100.5093  111.7390  124.1813 C   0  0  0  0  0
  100.8707  110.2466  124.3376 C   0  0  0  0  0
  101.8442  110.0473  125.4594 C   0  0  0  0  0
  103.0394  109.5239  125.2039 C   0  0  0  0  0
  101.4660  110.3567  126.8709 C   0  0  0  0  0
   96.8823  111.7182  123.3922 C   0  0  0  0  0
   99.6474  107.0407  126.2236 O   0  0  0  0  0
  100.2740  108.7166  121.7003 O   0  0  0  0  0
  100.8301  103.5971  122.4895 Si  0  0  0  0  0
  2  3  1  0  0  0
  2 24  1  0  0  0
  4  5  1  0  0  0
  6 23  1  0  0  0
  6  1  1  0  0  0
  7  8  1  0  0  0
  8  9  1  0  0  0
  9 10  1  0  0  0
 13  1  1  0  0  0
 13 14  1  0  0  0
 16 15  1  0  0  0
 16 17  1  0  0  0
 17 18  1  0  0  0
 18 19  1  0  0  0
 18 13  1  0  0  0
 21 19  1  0  0  0
 22 15  1  0  0  0
 25  4  1  0  0  0
 25  7  1  0  0  0
 25 11  1  0  0  0
 25 12  1  0  0  0
  1  2  2  0  0  0
  3  4  2  0  0  0
  5  6  2  0  0  0
 14 15  2  0  0  0
 19 20  2  0  0  0
M  END
> <rmsd>
0.444066674

$$$$
CHEMBL4872695_5ZTY


 31 37  0  0  0  0  0  0  0  0999 V2000
  100.1400  106.3701  123.4481 C   0  0  0  0  0
  101.2017  107.0846  124.2601 C   0  0  0  0  0
  100.4076  107.8033  125.3379 C   0  0  0  0  0
   99.9569  109.1288  124.7826 C   0  0  0  0  0
   98.8909  109.1650  123.9247 C   0  0  0  0  0
   98.1512  107.9109  123.5343 C   0  0  0  0  0
   98.8506  106.6845  124.1898 C   0  0  0  0  0
   98.5264  110.4976  123.8683 C   0  0  0  0  0
  101.1600  110.7687  126.2355 C   0  0  0  0  0
  102.4635  110.2361  126.2758 C   0  0  0  0  0
  103.3575  110.6471  127.2693 C   0  0  0  0  0
  102.9657  111.5895  128.2227 C   0  0  0  0  0
  101.6828  112.1384  128.1751 C   0  0  0  0  0
  100.7863  111.7324  127.1835 C   0  0  0  0  0
   97.3796  111.0733  123.1531 C   0  0  0  0  0
   95.3893  110.7118  121.5891 C   0  0  0  0  0
   94.7112  109.5893  120.8201 C   0  0  0  0  0
   94.0141  110.3618  119.7157 C   0  0  0  0  0
   92.9413  111.3012  120.3663 C   0  0  0  0  0
   93.5809  112.2059  121.4748 C   0  0  0  0  0
   94.3010  111.3121  122.4683 C   0  0  0  0  0
   94.7704  112.9333  120.8677 C   0  0  0  0  0
   95.7286  111.7924  120.5339 C   0  0  0  0  0
   95.1712  111.2203  119.2332 C   0  0  0  0  0
   99.2436  107.0185  125.5109 O   0  0  0  0  0
   97.1383  112.3062  123.2567 O   0  0  0  0  0
   99.3480  111.2128  124.6720 N   0  0  0  0  0
  100.2183  110.3754  125.2253 N   0  0  0  0  0
   96.5464  110.2383  122.3404 N   0  0  0  0  0
  103.8352  111.9822  129.1840 F   0  0  0  0  0
  102.8931  109.3681  125.3285 F   0  0  0  0  0
  1  2  1  0  0  0
  2  3  1  0  0  0
  3  4  1  0  0  0
  3 25  1  0  0  0
  5  8  1  0  0  0
  6  5  1  0  0  0
  6  7  1  0  0  0
  7 25  1  0  0  0
  7  1  1  0  0  0
  8 15  1  0  0  0
 10 11  1  0  0  0
 10 31  1  0  0  0
 12 13  1  0  0  0
 12 30  1  0  0  0
 14  9  1  0  0  0
 15 29  1  0  0  0
 16 29  1  0  0  0
 16 17  1  0  0  0
 17 18  1  0  0  0
 18 19  1  0  0  0
 19 20  1  0  0  0
 20 21  1  0  0  0
 20 22  1  0  0  0
 21 16  1  0  0  0
 22 23  1  0  0  0
 23 24  1  0  0  0
 23 16  1  0  0  0
 24 18  1  0  0  0
 28 27  1  0  0  0
 28  9  1  0  0  0
 28  4  1  0  0  0
  4  5  2  0  0  0
  8 27  2  0  0  0
  9 10  2  0  0  0
 11 12  2  0  0  0
 13 14  2  0  0  0
 15 26  2  0  0  0
M  END
> <rmsd>
0.704518259

$$$$
CHEMBL3234696_6PT0


 26 29  0  0  0  0  0  0  0  0999 V2000
  105.9311  109.3743  127.5011 C   0  0  0  0  0
  104.8796  110.4346  127.7661 C   0  0  0  0  0
  104.3673  111.0109  126.4547 C   0  0  0  0  0
  102.3212  109.5716  126.1108 C   0  0  0  0  0
  101.5958  110.0042  127.3424 C   0  0  0  0  0
  101.8341  108.6765  125.1569 C   0  0  0  0  0
  100.5593  107.9327  125.2030 C   0  0  0  0  0
   99.8159  107.5809  123.9781 C   0  0  0  0  0
   99.0595  106.3990  123.8443 C   0  0  0  0  0
   98.5221  106.5250  122.5795 C   0  0  0  0  0
   97.6526  105.7846  121.7881 C   0  0  0  0  0
   97.4035  106.4639  120.5789 C   0  0  0  0  0
   98.9271  107.6778  122.0512 C   0  0  0  0  0
  100.2058  109.7327  122.6675 C   0  0  0  0  0
   99.1212  110.7473  122.9954 C   0  0  0  0  0
   98.9372  110.8638  124.4959 C   0  0  0  0  0
  102.8226  108.6005  124.1889 C   0  0  0  0  0
  102.9091  107.8338  123.0265 C   0  0  0  0  0
  104.0665  107.9664  122.2399 C   0  0  0  0  0
  105.1020  108.8423  122.6292 C   0  0  0  0  0
  104.9964  109.5933  123.8130 C   0  0  0  0  0
  103.8362  109.4441  124.5744 C   0  0  0  0  0
  103.5415  110.0372  125.7459 N   0  0  0  0  0
   99.7208  108.3711  122.8698 N   0  0  0  0  0
  100.0995  107.5715  126.3192 O   0  0  0  0  0
   98.2580  107.9510  120.5482 S   0  0  0  0  0
  1  2  1  0  0  0
  2  3  1  0  0  0
  3 23  1  0  0  0
  5  4  1  0  0  0
  6  7  1  0  0  0
  6 17  1  0  0  0
  7  8  1  0  0  0
  9 10  1  0  0  0
 10 11  1  0  0  0
 12 26  1  0  0  0
 13 26  1  0  0  0
 13 24  1  0  0  0
 14 24  1  0  0  0
 14 15  1  0  0  0
 15 16  1  0  0  0
 18 19  1  0  0  0
 20 21  1  0  0  0
 22 23  1  0  0  0
 22 17  1  0  0  0
 23  4  1  0  0  0
 24  8  1  0  0  0
  4  6  2  0  0  0
  7 25  2  0  0  0
  8  9  2  0  0  0
 11 12  2  0  0  0
 13 10  2  0  0  0
 17 18  2  0  0  0
 19 20  2  0  0  0
 21 22  2  0  0  0
M  END
> <rmsd>
0.508906484

$$$$
CHEMBL3650113_8GUR


 35 36  0  0  0  0  0  0  0  0999 V2000
  104.5184  109.6300  124.1061 C   0  0  0  0  0
  103.0081  109.7180  123.9849 C   0  0  0  0  0
  102.3513  108.4719  124.5588 C   0  0  0  0  0
  102.4489  108.4364  126.0812 C   0  0  0  0  0
  101.3857  111.5596  127.5411 C   0  0  0  0  0
  101.8085  112.8772  128.1325 C   0  0  0  0  0
  101.5019  112.8871  129.6171 C   0  0  0  0  0
  101.0579  114.0142  127.4643 C   0  0  0  0  0
  103.2974  113.1121  127.9425 C   0  0  0  0  0
  100.2848  109.5660  126.7381 C   0  0  0  0  0
   99.7191  107.2900  125.9988 C   0  0  0  0  0
   99.0744  106.6783  124.8151 C   0  0  0  0  0
   99.0482  105.2785  124.7136 C   0  0  0  0  0
   98.4682  104.6407  123.6103 C   0  0  0  0  0
   98.3968  103.1425  123.5535 C   0  0  0  0  0
   97.8780  105.4153  122.6065 C   0  0  0  0  0
   97.9054  106.8078  122.6852 C   0  0  0  0  0
   98.5076  107.4520  123.7769 C   0  0  0  0  0
   98.0993  110.9181  122.8315 C   0  0  0  0  0
   98.7396  111.6282  123.9822 C   0  0  0  0  0
  100.2161  111.8410  123.7098 C   0  0  0  0  0
   97.5516  111.6964  121.7103 C   0  0  0  0  0
  101.6467  109.4981  126.6788 N   0  0  0  0  0
  102.2468  110.5958  127.1374 N   0  0  0  0  0
   99.4392  108.6462  126.3653 N   0  0  0  0  0
   98.0444  109.6222  122.8019 N   0  0  0  0  0
   97.1237  113.8410  120.6913 N   0  0  0  0  0
   99.7869  111.0511  127.3457 S   0  0  0  0  0
  100.4441  106.5809  126.7496 O   0  0  0  0  0
   98.5578  108.8483  123.8216 O   0  0  0  0  0
   97.0092  111.1051  120.7367 O   0  0  0  0  0
   97.6322  113.0890  121.7266 O   0  0  0  0  0
   97.2483  102.7158  124.1933 F   0  0  0  0  0
   99.4974  102.5838  124.1795 F   0  0  0  0  0
   98.3698  102.7087  122.2393 F   0  0  0  0  0
  1  2  1  0  0  0
  2  3  1  0  0  0
  3  4  1  0  0  0
  4 23  1  0  0  0
  5 28  1  0  0  0
  6  5  1  0  0  0
  6  7  1  0  0  0
  6  8  1  0  0  0
  6  9  1  0  0  0
 10 28  1  0  0  0
 10 23  1  0  0  0
 11 25  1  0  0  0
 11 12  1  0  0  0
 13 14  1  0  0  0
 15 14  1  0  0  0
 15 33  1  0  0  0
 15 34  1  0  0  0
 15 35  1  0  0  0
 16 17  1  0  0  0
 18 30  1  0  0  0
 18 12  1  0  0  0
 19 22  1  0  0  0
 20 19  1  0  0  0
 20 21  1  0  0  0
 22 32  1  0  0  0
 23 24  1  0  0  0
 27 32  1  0  0  0
 30 26  1  0  0  0
  5 24  2  0  0  0
 10 25  2  0  0  0
 11 29  2  0  0  0
 12 13  2  0  0  0
 14 16  2  0  0  0
 17 18  2  0  0  0
 19 26  2  0  0  0
 22 31  2  0  0  0
M  END
> <rmsd>
0.859438002

$$$$
CHEMBL3696823_5ZTY


 21 22  0  0  0  0  0  0  0  0999 V2000
  102.7747  110.0515  124.6419 C   0  0  0  0  0
  102.9930  109.7315  126.1122 C   0  0  0  0  0
  101.8039  108.9707  126.6905 C   0  0  0  0  0
  100.5370  109.8232  126.8287 C   0  0  0  0  0
  100.7863  111.1699  127.5349 C   0  0  0  0  0
  102.0570  111.9249  127.1105 C   0  0  0  0  0
  103.2657  110.9977  126.9289 C   0  0  0  0  0
  102.3952  112.9011  128.2166 C   0  0  0  0  0
  101.8194  112.7398  125.8526 C   0  0  0  0  0
   99.2021  108.7827  125.0397 C   0  0  0  0  0
   98.4626  108.8665  123.8513 C   0  0  0  0  0
   98.3050  110.1182  123.2303 C   0  0  0  0  0
   98.8707  111.2358  123.8434 C   0  0  0  0  0
   97.8484  109.4285  120.8555 C   0  0  0  0  0
   96.7451  111.4534  121.7893 C   0  0  0  0  0
  104.2116  108.8395  126.2139 C   0  0  0  0  0
   99.7687  109.9101  125.5748 N   0  0  0  0  0
   99.5785  111.0968  124.9914 N   0  0  0  0  0
   97.5732  110.2774  122.0033 N   0  0  0  0  0
   99.3313  107.6670  125.6162 O   0  0  0  0  0
   97.6804  107.4177  123.2166 Cl  0  0  0  0  0
  1  2  1  0  0  0
  2  3  1  0  0  0
  2 16  1  0  0  0
  3  4  1  0  0  0
  4  5  1  0  0  0
  4 17  1  0  0  0
  5  6  1  0  0  0
  6  7  1  0  0  0
  6  8  1  0  0  0
  6  9  1  0  0  0
  7  2  1  0  0  0
 10 11  1  0  0  0
 11 21  1  0  0  0
 12 13  1  0  0  0
 12 19  1  0  0  0
 14 19  1  0  0  0
 15 19  1  0  0  0
 17 10  1  0  0  0
 17 18  1  0  0  0
 10 20  2  0  0  0
 11 12  2  0  0  0
 13 18  2  0  0  0
M  END
> <rmsd>
0.806123018

$$$$
CHEMBL3896334_8GUQ


 29 32  0  0  0  0  0  0  0  0999 V2000
   98.7841  110.8968  124.4221 C   0  0  0  0  0
  100.0631  110.2856  123.8780 C   0  0  0  0  0
   99.8031  108.0208  124.9933 C   0  0  0  0  0
   98.8399  107.5010  123.9970 C   0  0  0  0  0
   97.9875  107.5097  121.7668 C   0  0  0  0  0
   97.0580  106.5007  122.0983 C   0  0  0  0  0
   97.0263  106.0229  123.4108 C   0  0  0  0  0
   97.9119  106.5214  124.3640 C   0  0  0  0  0
   96.1037  105.7748  119.6568 C   0  0  0  0  0
   94.9720  104.8193  119.6622 C   0  0  0  0  0
   95.0859  104.9368  121.1346 C   0  0  0  0  0
   96.9036  108.6836  119.8840 C   0  0  0  0  0
   96.5392  109.9748  120.5942 C   0  0  0  0  0
   95.6477  110.7997  119.6908 C   0  0  0  0  0
   97.1159  111.1456  119.8268 C   0  0  0  0  0
  101.7789  109.4990  125.5272 C   0  0  0  0  0
  102.9890  109.7894  124.6619 C   0  0  0  0  0
  102.8620  108.4492  125.3784 C   0  0  0  0  0
  101.6770  110.2584  126.8540 C   0  0  0  0  0
  100.5510  109.2372  124.7722 N   0  0  0  0  0
   98.8557  107.9558  122.7143 N   0  0  0  0  0
   96.2038  105.8967  121.1229 N   0  0  0  0  0
   99.9799  107.3723  126.0612 O   0  0  0  0  0
   98.0415  108.0874  120.4959 O   0  0  0  0  0
   93.8003  105.3484  119.1558 F   0  0  0  0  0
   95.3034  103.5669  119.1814 F   0  0  0  0  0
  100.8507  109.5689  127.7215 F   0  0  0  0  0
  102.9219  110.4029  127.4442 F   0  0  0  0  0
  101.1427  111.5131  126.6273 F   0  0  0  0  0
  1  2  1  0  0  0
  2 20  1  0  0  0
  3  4  1  0  0  0
  5 21  1  0  0  0
  5 24  1  0  0  0
  6  7  1  0  0  0
  6 22  1  0  0  0
  8  4  1  0  0  0
  9 22  1  0  0  0
  9 10  1  0  0  0
 10 11  1  0  0  0
 10 25  1  0  0  0
 10 26  1  0  0  0
 11 22  1  0  0  0
 12 24  1  0  0  0
 12 13  1  0  0  0
 13 14  1  0  0  0
 14 15  1  0  0  0
 15 13  1  0  0  0
 16 20  1  0  0  0
 16 17  1  0  0  0
 16 19  1  0  0  0
 17 18  1  0  0  0
 18 16  1  0  0  0
 19 27  1  0  0  0
 19 28  1  0  0  0
 19 29  1  0  0  0
 20  3  1  0  0  0
  3 23  2  0  0  0
  4 21  2  0  0  0
  5  6  2  0  0  0
  7  8  2  0  0  0
M  END
> <rmsd>
0.307332426

$$$$
CHEMBL1338358_6PT0


 25 28  0  0  0  0  0  0  0  0999 V2000
   99.8898  107.3531  125.5515 O   0  0  0  0  0
  100.4263  108.4779  125.3594 C   0  0  0  0  0
  101.8694  108.6315  125.6414 C   0  0  0  0  0
  102.8544  107.6849  125.4211 C   0  0  0  0  0
  104.0399  108.2144  125.8683 C   0  0  0  0  0
  102.5237  109.7092  126.2470 C   0  0  0  0  0
  101.8676  110.9347  126.7932 C   0  0  0  0  0
  104.8595  110.3209  126.9592 C   0  0  0  0  0
  105.6675  111.0083  125.8690 C   0  0  0  0  0
  104.8335  112.0698  125.1781 C   0  0  0  0  0
  105.2382  107.5034  125.7864 C   0  0  0  0  0
  105.1962  106.2164  125.2215 C   0  0  0  0  0
  103.9777  105.6745  124.7593 C   0  0  0  0  0
  102.7844  106.4118  124.8561 C   0  0  0  0  0
   99.6035  109.5877  124.8338 C   0  0  0  0  0
   98.2063  109.5374  124.9516 C   0  0  0  0  0
   97.4151  110.5658  124.4343 C   0  0  0  0  0
   98.0237  111.6602  123.7791 C   0  0  0  0  0
   99.4129  111.7062  123.6481 C   0  0  0  0  0
  100.1970  110.6730  124.1691 C   0  0  0  0  0
   97.2324  112.6894  123.2615 C   0  0  0  0  0
   95.8410  112.6338  123.3929 C   0  0  0  0  0
   95.2385  111.5499  124.0407 C   0  0  0  0  0
   96.0242  110.5163  124.5609 C   0  0  0  0  0
  103.8469  109.4460  126.3760 N   0  0  0  0  0
  2  3  1  0  0  0
  2 15  1  0  0  0
  3  4  1  0  0  0
  5 25  1  0  0  0
  5 11  1  0  0  0
  7  6  1  0  0  0
  8 25  1  0  0  0
  8  9  1  0  0  0
  9 10  1  0  0  0
 12 13  1  0  0  0
 14  4  1  0  0  0
 16 17  1  0  0  0
 18 19  1  0  0  0
 18 21  1  0  0  0
 20 15  1  0  0  0
 22 23  1  0  0  0
 24 17  1  0  0  0
 25  6  1  0  0  0
  2  1  2  0  0  0
  4  5  2  0  0  0
  6  3  2  0  0  0
 11 12  2  0  0  0
 13 14  2  0  0  0
 15 16  2  0  0  0
 17 18  2  0  0  0
 19 20  2  0  0  0
 21 22  2  0  0  0
 23 24  2  0  0  0
M  END
> <rmsd>
0.661854506

$$$$
CHEMBL3354942_8GUQ


 29 33  0  0  0  0  0  0  0  0999 V2000
   93.9383  106.1523  124.3725 C   0  0  0  0  0
   95.2678  105.4552  124.5944 C   0  0  0  0  0
   95.1224  104.5463  125.8092 C   0  0  0  0  0
   95.6076  104.6494  123.3536 C   0  0  0  0  0
   94.8728  103.4911  123.0418 C   0  0  0  0  0
   95.1524  102.7596  121.8842 C   0  0  0  0  0
   96.1631  103.1820  121.0179 C   0  0  0  0  0
   96.8914  104.3382  121.3061 C   0  0  0  0  0
   96.6119  105.0698  122.4634 C   0  0  0  0  0
   97.6408  106.2223  125.2374 C   0  0  0  0  0
   98.5642  107.3417  125.4582 C   0  0  0  0  0
   99.4973  109.3036  125.3750 C   0  0  0  0  0
   98.3131  108.6802  125.2321 C   0  0  0  0  0
   97.4318  109.3563  124.2600 C   0  0  0  0  0
   98.3060  110.5142  123.7231 C   0  0  0  0  0
   99.6435  110.4870  124.4877 C   0  0  0  0  0
   98.5939  111.5404  124.8060 C   0  0  0  0  0
  101.8630  108.5996  125.7661 C   0  0  0  0  0
  102.4093  109.8208  126.2121 C   0  0  0  0  0
  103.7963  109.9858  126.2774 C   0  0  0  0  0
  104.6479  108.9431  125.9062 C   0  0  0  0  0
  104.1149  107.7247  125.4819 C   0  0  0  0  0
  102.7301  107.5536  125.4158 C   0  0  0  0  0
   96.2770  106.4798  124.8744 N   0  0  0  0  0
   99.8749  107.1923  125.7512 N   0  0  0  0  0
  100.4419  108.3925  125.6927 N   0  0  0  0  0
   98.0544  105.0387  125.3687 O   0  0  0  0  0
  105.9904  109.1098  125.9700 F   0  0  0  0  0
  101.6116  110.8351  126.6278 F   0  0  0  0  0
  1  2  1  0  0  0
  2  3  1  0  0  0
  2  4  1  0  0  0
  2 24  1  0  0  0
  5  6  1  0  0  0
  7  8  1  0  0  0
  9  4  1  0  0  0
 10 11  1  0  0  0
 13 11  1  0  0  0
 14 13  1  0  0  0
 15 14  1  0  0  0
 15 16  1  0  0  0
 16 17  1  0  0  0
 16 12  1  0  0  0
 17 15  1  0  0  0
 19 20  1  0  0  0
 19 29  1  0  0  0
 21 22  1  0  0  0
 21 28  1  0  0  0
 23 18  1  0  0  0
 24 10  1  0  0  0
 26 25  1  0  0  0
 26 12  1  0  0  0
 26 18  1  0  0  0
  4  5  2  0  0  0
  6  7  2  0  0  0
  8  9  2  0  0  0
 10 27  2  0  0  0
 11 25  2  0  0  0
 12 13  2  0  0  0
 18 19  2  0  0  0
 20 21  2  0  0  0
 22 23  2  0  0  0
M  END
> <rmsd>
0.663045347

$$$$
CHEMBL5184521_8GUR


 20 21  0  0  0  0  0  0  0  0999 V2000
  101.2293  102.9637  123.8951 C   0  0  0  0  0
  101.3026  104.0542  122.8361 C   0  0  0  0  0
  100.8529  105.4020  123.3226 C   0  0  0  0  0
  100.4086  105.6198  124.6352 C   0  0  0  0  0
   99.9993  106.8906  125.0459 C   0  0  0  0  0
  100.0289  107.9674  124.1438 C   0  0  0  0  0
  100.4759  107.7485  122.8245 C   0  0  0  0  0
  100.8827  106.4726  122.4257 C   0  0  0  0  0
   99.5916  109.3300  124.6108 C   0  0  0  0  0
   98.3350  109.7742  123.8987 C   0  0  0  0  0
   98.1507  111.0269  123.4560 C   0  0  0  0  0
   99.2327  112.0695  123.5490 C   0  0  0  0  0
  100.1970  111.7824  124.6944 C   0  0  0  0  0
  100.7358  110.3608  124.5613 C   0  0  0  0  0
  101.7815  110.0833  125.6045 C   0  0  0  0  0
  101.4909  110.1025  126.9063 C   0  0  0  0  0
  103.1662  109.7470  125.1719 C   0  0  0  0  0
   96.8855  111.3638  122.7476 C   0  0  0  0  0
  100.5205  108.7902  121.9048 O   0  0  0  0  0
   99.5657  107.0745  126.3539 O   0  0  0  0  0
  1  2  1  0  0  0
  2  3  1  0  0  0
  4  5  1  0  0  0
  5 20  1  0  0  0
  6  7  1  0  0  0
  7 19  1  0  0  0
  8  3  1  0  0  0
  9  6  1  0  0  0
  9 10  1  0  0  0
 12 11  1  0  0  0
 12 13  1  0  0  0
 13 14  1  0  0  0
 14 15  1  0  0  0
 14  9  1  0  0  0
 17 15  1  0  0  0
 18 11  1  0  0  0
  3  4  2  0  0  0
  5  6  2  0  0  0
  7  8  2  0  0  0
 10 11  2  0  0  0
 15 16  2  0  0  0
M  END
> <rmsd>
0.555919051

$$$$
CHEMBL4439452_6PT0


 32 37  0  0  0  0  0  0  0  0999 V2000
   99.1359  110.5117  123.5739 C   0  0  0  0  0
   98.7360  109.0943  123.3217 C   0  0  0  0  0
   99.1418  108.0381  124.0251 C   0  0  0  0  0
   98.3766  106.8220  123.5914 C   0  0  0  0  0
   99.2181  105.5783  123.4472 C   0  0  0  0  0
   99.5724  105.0899  122.2578 C   0  0  0  0  0
   99.1944  105.7717  121.0128 C   0  0  0  0  0
   98.3859  106.8301  121.0285 C   0  0  0  0  0
   97.6900  107.2839  122.2874 C   0  0  0  0  0
   97.4401  109.5466  121.1652 C   0  0  0  0  0
   98.1736  109.0189  119.9222 C   0  0  0  0  0
   95.9222  109.5118  120.9450 C   0  0  0  0  0
   95.6514  111.8306  121.5013 C   0  0  0  0  0
   95.1886  113.1908  120.9750 C   0  0  0  0  0
   95.4432  112.5670  118.8167 C   0  0  0  0  0
   95.9231  111.1654  119.1998 C   0  0  0  0  0
  100.0438  108.0667  125.1985 C   0  0  0  0  0
  101.2557  108.9228  125.2359 C   0  0  0  0  0
  101.9740  109.1183  124.0458 C   0  0  0  0  0
  103.1365  109.8901  124.0247 C   0  0  0  0  0
  103.6063  110.4795  125.1975 C   0  0  0  0  0
  102.9154  110.3005  126.3965 C   0  0  0  0  0
  103.3940  110.9028  127.5635 C   0  0  0  0  0
  102.7066  110.7422  128.7687 C   0  0  0  0  0
  101.5367  109.9809  128.8114 C   0  0  0  0  0
  101.0517  109.3749  127.6496 C   0  0  0  0  0
  101.7327  109.5180  126.4295 C   0  0  0  0  0
   97.7917  108.7302  122.3247 N   0  0  0  0  0
   95.3629  110.7941  120.5035 N   0  0  0  0  0
   98.2081  107.5868  119.8689 O   0  0  0  0  0
   95.8705  113.4961  119.7829 O   0  0  0  0  0
   99.7998  107.2925  126.1629 O   0  0  0  0  0
  1  2  1  0  0  0
  3 17  1  0  0  0
  4  3  1  0  0  0
  4  5  1  0  0  0
  6  7  1  0  0  0
  8 30  1  0  0  0
  9  8  1  0  0  0
  9 28  1  0  0  0
  9  4  1  0  0  0
 10 28  1  0  0  0
 10 11  1  0  0  0
 10 12  1  0  0  0
 11 30  1  0  0  0
 12 29  1  0  0  0
 13 29  1  0  0  0
 13 14  1  0  0  0
 14 31  1  0  0  0
 15 31  1  0  0  0
 15 16  1  0  0  0
 16 29  1  0  0  0
 17 18  1  0  0  0
 19 20  1  0  0  0
 21 22  1  0  0  0
 23 24  1  0  0  0
 25 26  1  0  0  0
 27 18  1  0  0  0
 27 22  1  0  0  0
 28  2  1  0  0  0
  2  3  2  0  0  0
  5  6  2  0  0  0
  7  8  2  0  0  0
 17 32  2  0  0  0
 18 19  2  0  0  0
 20 21  2  0  0  0
 22 23  2  0  0  0
 24 25  2  0  0  0
 26 27  2  0  0  0
M  END
> <rmsd>
0.520621479

$$$$
CHEMBL3354959_8GUQ


 27 31  0  0  0  0  0  0  0  0999 V2000
  100.3778  108.4987  125.8500 N   0  0  0  0  0
   99.6216  107.4775  126.2362 N   0  0  0  0  0
   96.8928  105.9221  124.1553 N   0  0  0  0  0
   98.8289  107.1359  125.1957 C   0  0  0  0  0
   99.1208  107.9582  124.1238 C   0  0  0  0  0
  100.0740  108.7974  124.5693 C   0  0  0  0  0
  100.0418  110.1323  123.9182 C   0  0  0  0  0
   98.8629  110.0016  122.9361 C   0  0  0  0  0
   98.2282  108.6057  123.1414 C   0  0  0  0  0
   98.7301  110.8505  124.1904 C   0  0  0  0  0
   97.7274  106.1696  125.2896 C   0  0  0  0  0
   95.8426  104.9106  124.1546 C   0  0  0  0  0
   96.3629  103.5693  123.6468 C   0  0  0  0  0
   96.8743  103.6697  122.2038 C   0  0  0  0  0
   97.7511  102.4672  121.8246 C   0  0  0  0  0
   98.1970  101.8319  123.9282 C   0  0  0  0  0
   97.3832  102.9437  124.6063 C   0  0  0  0  0
  101.2136  109.2489  126.7477 C   0  0  0  0  0
  100.9018  109.2785  128.1154 C   0  0  0  0  0
  101.6978  109.9962  129.0114 C   0  0  0  0  0
  102.8194  110.6868  128.5492 C   0  0  0  0  0
  103.1528  110.6488  127.1937 C   0  0  0  0  0
  102.3591  109.9332  126.2919 C   0  0  0  0  0
   97.5221  105.5610  126.3743 O   0  0  0  0  0
   97.5866  101.4083  122.7346 O   0  0  0  0  0
  102.7397  109.8741  124.9922 F   0  0  0  0  0
  103.5913  111.3833  129.4174 F   0  0  0  0  0
  1  2  1  0  0  0
  1 18  1  0  0  0
  4  5  1  0  0  0
  4 11  1  0  0  0
  6  1  1  0  0  0
  7  6  1  0  0  0
  7  8  1  0  0  0
  8  9  1  0  0  0
  8 10  1  0  0  0
  9  5  1  0  0  0
 10  7  1  0  0  0
 11  3  1  0  0  0
 12  3  1  0  0  0
 12 13  1  0  0  0
 13 14  1  0  0  0
 14 15  1  0  0  0
 15 25  1  0  0  0
 16 25  1  0  0  0
 16 17  1  0  0  0
 17 13  1  0  0  0
 19 20  1  0  0  0
 21 22  1  0  0  0
 21 27  1  0  0  0
 23 26  1  0  0  0
 23 18  1  0  0  0
  4  2  2  0  0  0
  5  6  2  0  0  0
 11 24  2  0  0  0
 18 19  2  0  0  0
 20 21  2  0  0  0
 22 23  2  0  0  0
M  END
> <rmsd>
0.655718446

$$$$
CHEMBL3926267_5ZTY


 34 38  0  0  0  0  0  0  0  0999 V2000
   97.1865  106.1815  120.0597 C   0  0  0  0  0
   96.8051  107.4229  119.2809 C   0  0  0  0  0
   96.9472  107.4875  120.7874 C   0  0  0  0  0
   98.2831  108.1109  121.1345 C   0  0  0  0  0
   98.4510  109.9570  122.7577 C   0  0  0  0  0
   98.2595  111.3128  123.0666 C   0  0  0  0  0
   98.6183  111.7754  124.3340 C   0  0  0  0  0
   99.1620  110.8989  125.2713 C   0  0  0  0  0
   99.3533  109.5573  124.9316 C   0  0  0  0  0
   99.8851  108.5942  125.9130 C   0  0  0  0  0
  100.5241  108.3367  128.3053 C   0  0  0  0  0
  101.5161  107.2362  128.5003 C   0  0  0  0  0
  102.6826  107.4715  129.2366 C   0  0  0  0  0
  103.6199  106.4488  129.4117 C   0  0  0  0  0
  103.3929  105.1887  128.8498 C   0  0  0  0  0
  102.2283  104.9512  128.1131 C   0  0  0  0  0
  101.2912  105.9740  127.9382 C   0  0  0  0  0
  101.9095  109.8364  126.7909 C   0  0  0  0  0
  102.4048  110.6042  128.0056 C   0  0  0  0  0
  101.6776  111.3311  126.8832 C   0  0  0  0  0
  102.9615  109.3560  125.7815 C   0  0  0  0  0
   97.3236  113.6442  122.0810 C   0  0  0  0  0
   96.8122  113.6288  120.6906 C   0  0  0  0  0
   97.1871  112.1963  120.7352 C   0  0  0  0  0
   98.0932  109.4694  121.4991 O   0  0  0  0  0
   99.5911  107.3755  125.7800 O   0  0  0  0  0
   98.9827  109.1218  123.6955 N   0  0  0  0  0
  100.7142  109.0057  127.0166 N   0  0  0  0  0
   97.6946  112.2196  122.1182 N   0  0  0  0  0
  103.2935  108.0409  126.0484 F   0  0  0  0  0
  104.1099  110.1279  125.8492 F   0  0  0  0  0
  102.4486  109.4381  124.5007 F   0  0  0  0  0
   95.4496  113.8399  120.5998 F   0  0  0  0  0
   97.5773  114.3724  119.8132 F   0  0  0  0  0
  1  2  1  0  0  0
  2  3  1  0  0  0
  3  4  1  0  0  0
  3  1  1  0  0  0
  4 25  1  0  0  0
  5 25  1  0  0  0
  5  6  1  0  0  0
  6 29  1  0  0  0
  7  8  1  0  0  0
  9 27  1  0  0  0
  9 10  1  0  0  0
 10 28  1  0  0  0
 11 28  1  0  0  0
 11 12  1  0  0  0
 13 14  1  0  0  0
 15 16  1  0  0  0
 17 12  1  0  0  0
 18 28  1  0  0  0
 18 19  1  0  0  0
 18 21  1  0  0  0
 19 20  1  0  0  0
 20 18  1  0  0  0
 21 30  1  0  0  0
 21 31  1  0  0  0
 21 32  1  0  0  0
 22 29  1  0  0  0
 22 23  1  0  0  0
 23 24  1  0  0  0
 23 33  1  0  0  0
 23 34  1  0  0  0
 24 29  1  0  0  0
  5 27  2  0  0  0
  6  7  2  0  0  0
  8  9  2  0  0  0
 10 26  2  0  0  0
 12 13  2  0  0  0
 14 15  2  0  0  0
 16 17  2  0  0  0
M  END
> <rmsd>
0.490746051

$$$$
CHEMBL5186682_8GUS


 28 30  0  0  0  0  0  0  0  0999 V2000
  100.7548  110.1719  121.4980 C   0  0  0  0  0
   99.4935  109.9622  122.3281 C   0  0  0  0  0
   98.7418  108.7303  121.8108 C   0  0  0  0  0
   98.6952  111.2698  122.4830 C   0  0  0  0  0
   97.3091  110.9313  123.0469 C   0  0  0  0  0
   97.2366  110.0643  124.0895 C   0  0  0  0  0
   98.5523  109.4540  124.5981 C   0  0  0  0  0
   98.7107  109.4721  126.0969 C   0  0  0  0  0
   99.1782  108.3077  126.7328 C   0  0  0  0  0
   99.3962  108.2971  128.1119 C   0  0  0  0  0
   99.1432  109.4380  128.8746 C   0  0  0  0  0
   98.6918  110.6028  128.2527 C   0  0  0  0  0
   98.4699  110.6281  126.8737 C   0  0  0  0  0
  101.2257  110.3034  130.9131 C   0  0  0  0  0
  102.2627  109.7476  129.9523 C   0  0  0  0  0
  102.1731  110.4705  128.6215 C   0  0  0  0  0
  102.8760  109.6640  127.5516 C   0  0  0  0  0
  102.6207  110.2994  126.2012 C   0  0  0  0  0
  103.2548  109.4548  125.1170 C   0  0  0  0  0
   99.6622  107.7108  131.3241 C   0  0  0  0  0
   98.2566  110.3912  131.6174 C   0  0  0  0  0
   99.7931  110.0350  123.8359 C   0  0  0  0  0
   99.5309  111.5446  123.7382 C   0  0  0  0  0
   96.0750  111.5508  122.4855 C   0  0  0  0  0
   98.0168  111.8064  126.2935 O   0  0  0  0  0
   99.4402  107.1564  125.9986 O   0  0  0  0  0
   95.8698  111.0953  121.1835 O   0  0  0  0  0
   99.5671  109.4583  130.6687 Si  0  0  0  0  0
  1  2  1  0  0  0
  2  3  1  0  0  0
  2  4  1  0  0  0
  4  5  1  0  0  0
  4 23  1  0  0  0
  7  6  1  0  0  0
  7  8  1  0  0  0
  7 22  1  0  0  0
  9 10  1  0  0  0
  9 26  1  0  0  0
 11 12  1  0  0  0
 13 25  1  0  0  0
 13  8  1  0  0  0
 14 15  1  0  0  0
 15 16  1  0  0  0
 16 17  1  0  0  0
 17 18  1  0  0  0
 18 19  1  0  0  0
 22 23  1  0  0  0
 22  2  1  0  0  0
 24  5  1  0  0  0
 24 27  1  0  0  0
 28 11  1  0  0  0
 28 14  1  0  0  0
 28 20  1  0  0  0
 28 21  1  0  0  0
  5  6  2  0  0  0
  8  9  2  0  0  0
 10 11  2  0  0  0
 12 13  2  0  0  0
M  END
> <rmsd>
0.743846357

$$$$
CHEMBL5091640_5ZTY


 36 39  0  0  0  0  0  0  0  0999 V2000
  104.0601  112.1541  126.2075 C   0  0  0  0  0
  104.8060  113.3330  126.1074 C   0  0  0  0  0
  104.5141  114.4150  126.9426 C   0  0  0  0  0
  103.4789  114.3163  127.8777 C   0  0  0  0  0
  102.7363  113.1361  127.9751 C   0  0  0  0  0
  103.0170  112.0393  127.1411 C   0  0  0  0  0
  102.2193  110.7830  127.2342 C   0  0  0  0  0
  102.1927  109.7427  126.3119 C   0  0  0  0  0
  101.3015  108.8168  126.8336 C   0  0  0  0  0
  101.1298  111.1921  129.4744 C   0  0  0  0  0
  102.1269  110.7563  130.5363 C   0  0  0  0  0
  101.9545  111.5764  131.8107 C   0  0  0  0  0
  100.7549  111.1025  132.6252 C   0  0  0  0  0
   99.4726  111.7705  132.1504 C   0  0  0  0  0
  100.8746  107.5419  126.2325 C   0  0  0  0  0
  100.9226  105.9731  124.2363 C   0  0  0  0  0
   99.6171  106.3551  123.6121 C   0  0  0  0  0
   98.4595  105.6716  124.0005 C   0  0  0  0  0
   97.2169  106.0291  123.4704 C   0  0  0  0  0
   97.1263  107.0693  122.5436 C   0  0  0  0  0
   98.2774  107.7577  122.1508 C   0  0  0  0  0
   99.5256  107.4173  122.6929 C   0  0  0  0  0
   99.9327  110.3434  122.8457 C   0  0  0  0  0
   99.2317  110.0734  124.0329 C   0  0  0  0  0
   98.3934  111.0442  124.5937 C   0  0  0  0  0
   98.2665  112.2960  123.9814 C   0  0  0  0  0
   98.9824  112.5793  122.8150 C   0  0  0  0  0
   99.8202  111.6079  122.2567 C   0  0  0  0  0
  102.9262  109.6518  125.0129 C   0  0  0  0  0
  100.8229  109.2734  128.0057 N   0  0  0  0  0
  101.3738  110.4538  128.2417 N   0  0  0  0  0
  101.4568  107.0884  125.0080 N   0  0  0  0  0
  100.7058  108.1191  122.2782 N   0  0  0  0  0
  100.8483  109.3912  122.2796 N   0  0  0  0  0
   99.4930  113.1290  132.4702 O   0  0  0  0  0
   99.9824  106.8568  126.7993 O   0  0  0  0  0
  2  3  1  0  0  0
  4  5  1  0  0  0
  6  7  1  0  0  0
  6  1  1  0  0  0
  8  9  1  0  0  0
  9 15  1  0  0  0
 10 31  1  0  0  0
 10 11  1  0  0  0
 11 12  1  0  0  0
 12 13  1  0  0  0
 13 14  1  0  0  0
 14 35  1  0  0  0
 15 32  1  0  0  0
 16 32  1  0  0  0
 16 17  1  0  0  0
 18 19  1  0  0  0
 20 21  1  0  0  0
 22 33  1  0  0  0
 22 17  1  0  0  0
 23 34  1  0  0  0
 24 25  1  0  0  0
 26 27  1  0  0  0
 28 23  1  0  0  0
 29  8  1  0  0  0
 31 30  1  0  0  0
 31  7  1  0  0  0
  1  2  2  0  0  0
  3  4  2  0  0  0
  5  6  2  0  0  0
  7  8  2  0  0  0
  9 30  2  0  0  0
 15 36  2  0  0  0
 17 18  2  0  0  0
 19 20  2  0  0  0
 21 22  2  0  0  0
 23 24  2  0  0  0
 25 26  2  0  0  0
 27 28  2  0  0  0
 33 34  2  0  0  0
M  END
> <rmsd>
0.737844169

$$$$
CHEMBL5195978_8GUR


 22 23  0  0  0  0  0  0  0  0999 V2000
   94.7126  109.0222  123.1954 C   0  0  0  0  0
   96.2678  109.6526  120.6571 C   0  0  0  0  0
   97.5819  110.0293  123.3516 C   0  0  0  0  0
   97.8879  108.8711  124.0687 C   0  0  0  0  0
   99.1074  108.7590  124.7412 C   0  0  0  0  0
  100.0410  109.8098  124.6942 C   0  0  0  0  0
   99.7310  110.9727  123.9549 C   0  0  0  0  0
   98.5081  111.0719  123.2869 C   0  0  0  0  0
  101.3446  109.6577  125.4299 C   0  0  0  0  0
  101.4961  110.7345  126.5027 C   0  0  0  0  0
  102.4857  110.3311  127.5912 C   0  0  0  0  0
  103.8941  110.1276  127.0467 C   0  0  0  0  0
  103.9894  108.7611  126.3831 C   0  0  0  0  0
  103.6831  108.7958  124.8828 C   0  0  0  0  0
  102.5255  109.7068  124.4647 C   0  0  0  0  0
   95.3603  111.9156  122.4781 C   0  0  0  0  0
   95.1375  112.3472  123.9162 C   0  0  0  0  0
   94.6227  113.7741  123.9675 C   0  0  0  0  0
   93.1592  113.8233  123.5706 C   0  0  0  0  0
   95.9888  110.1553  122.4330 Si  0  0  0  0  0
  100.6292  112.0309  123.8770 O   0  0  0  0  0
   99.3842  107.5976  125.4535 O   0  0  0  0  0
  1 20  1  0  0  0
  4  5  1  0  0  0
  5 22  1  0  0  0
  6  7  1  0  0  0
  7 21  1  0  0  0
  8  3  1  0  0  0
  9  6  1  0  0  0
  9 10  1  0  0  0
 10 11  1  0  0  0
 11 12  1  0  0  0
 12 13  1  0  0  0
 13 14  1  0  0  0
 14 15  1  0  0  0
 15  9  1  0  0  0
 16 17  1  0  0  0
 17 18  1  0  0  0
 18 19  1  0  0  0
 20  2  1  0  0  0
 20  3  1  0  0  0
 20 16  1  0  0  0
  3  4  2  0  0  0
  5  6  2  0  0  0
  7  8  2  0  0  0
M  END
> <rmsd>
0.909574807

$$$$
CHEMBL5282889_6PT0


 25 27  0  0  0  0  0  0  0  0999 V2000
   93.1832  105.7888  125.0396 C   0  0  0  0  0
   93.5867  106.1830  123.6348 C   0  0  0  0  0
   95.0581  105.8913  123.4331 C   0  0  0  0  0
   95.4655  106.2936  122.0289 C   0  0  0  0  0
   96.9498  106.0371  121.8156 C   0  0  0  0  0
   98.5481  106.6677  123.6365 C   0  0  0  0  0
   99.1815  107.8084  124.1086 C   0  0  0  0  0
   98.7410  108.8574  123.3090 C   0  0  0  0  0
   97.8728  108.3057  122.3850 C   0  0  0  0  0
   97.1505  109.0639  121.3217 C   0  0  0  0  0
  100.0973  107.8869  125.2668 C   0  0  0  0  0
  101.2716  108.7916  125.2675 C   0  0  0  0  0
  101.9911  108.9546  124.0734 C   0  0  0  0  0
  103.1200  109.7734  124.0199 C   0  0  0  0  0
  103.5536  110.4433  125.1631 C   0  0  0  0  0
  102.8602  110.2977  126.3652 C   0  0  0  0  0
  103.3015  110.9803  127.5022 C   0  0  0  0  0
  102.6104  110.8534  128.7093 C   0  0  0  0  0
  101.4737  110.0454  128.7838 C   0  0  0  0  0
  101.0261  109.3589  127.6522 C   0  0  0  0  0
  101.7119  109.4676  126.4313 C   0  0  0  0  0
   98.7167  105.2861  124.1788 C   0  0  0  0  0
   97.7569  106.9770  122.5896 N   0  0  0  0  0
   99.1196  110.7250  123.5099 Br  0  0  0  0  0
   99.8927  107.1342  126.2571 O   0  0  0  0  0
  1  2  1  0  0  0
  2  3  1  0  0  0
  3  4  1  0  0  0
  4  5  1  0  0  0
  5 23  1  0  0  0
  7  8  1  0  0  0
  7 11  1  0  0  0
  8 24  1  0  0  0
  9 23  1  0  0  0
 10  9  1  0  0  0
 11 12  1  0  0  0
 13 14  1  0  0  0
 15 16  1  0  0  0
 17 18  1  0  0  0
 19 20  1  0  0  0
 21 12  1  0  0  0
 21 16  1  0  0  0
 22  6  1  0  0  0
 23  6  1  0  0  0
  6  7  2  0  0  0
  8  9  2  0  0  0
 11 25  2  0  0  0
 12 13  2  0  0  0
 14 15  2  0  0  0
 16 17  2  0  0  0
 18 19  2  0  0  0
 20 21  2  0  0  0
M  END
> <rmsd>
0.467439085

$$$$
CHEMBL5193683_8GUS


 25 26  0  0  0  0  0  0  0  0999 V2000
   92.3806  105.1815  118.8708 C   0  0  0  0  0
   91.8531  106.3245  119.7173 C   0  0  0  0  0
   91.9897  105.9973  121.1967 C   0  0  0  0  0
   93.4358  106.1023  121.6566 C   0  0  0  0  0
   93.8524  107.5594  121.7662 C   0  0  0  0  0
   95.2915  107.6646  122.2389 C   0  0  0  0  0
   94.8174  105.8859  124.6961 C   0  0  0  0  0
   94.3343  108.8873  124.8749 C   0  0  0  0  0
   97.1542  107.8336  124.6151 C   0  0  0  0  0
   97.8442  106.8517  125.3262 C   0  0  0  0  0
   99.1710  107.0594  125.7086 C   0  0  0  0  0
   99.8246  108.2603  125.3781 C   0  0  0  0  0
   99.1266  109.2565  124.6591 C   0  0  0  0  0
   97.7930  109.0290  124.2840 C   0  0  0  0  0
   99.1262  111.4987  123.6041 C   0  0  0  0  0
  101.2498  108.4549  125.8188 C   0  0  0  0  0
  102.1946  108.6700  124.6311 C   0  0  0  0  0
  103.6302  108.9120  125.0693 C   0  0  0  0  0
  103.8750  110.4057  125.2319 C   0  0  0  0  0
  103.3064  110.9406  126.5407 C   0  0  0  0  0
  101.7871  110.8521  126.5801 C   0  0  0  0  0
  101.3585  109.4477  126.9870 C   0  0  0  0  0
   95.4040  107.5615  124.1085 Si  0  0  0  0  0
   99.7677  110.4552  124.3246 O   0  0  0  0  0
   99.8341  106.0650  126.4187 O   0  0  0  0  0
  1  2  1  0  0  0
  2  3  1  0  0  0
  3  4  1  0  0  0
  4  5  1  0  0  0
  5  6  1  0  0  0
  6 23  1  0  0  0
 10 11  1  0  0  0
 11 25  1  0  0  0
 12 13  1  0  0  0
 13 24  1  0  0  0
 14  9  1  0  0  0
 15 24  1  0  0  0
 16 12  1  0  0  0
 16 17  1  0  0  0
 17 18  1  0  0  0
 18 19  1  0  0  0
 19 20  1  0  0  0
 20 21  1  0  0  0
 21 22  1  0  0  0
 22 16  1  0  0  0
 23  7  1  0  0  0
 23  8  1  0  0  0
 23  9  1  0  0  0
  9 10  2  0  0  0
 11 12  2  0  0  0
 13 14  2  0  0  0
M  END
> <rmsd>
0.787155032

$$$$
CHEMBL4850004_8GUR


 23 25  0  0  0  0  0  0  0  0999 V2000
   98.3470  110.4835  123.1298 C   0  0  0  0  0
   99.6198  111.2658  123.3915 C   0  0  0  0  0
  100.4626  111.3506  122.1283 C   0  0  0  0  0
  101.1132  110.0084  121.7856 C   0  0  0  0  0
  102.4360  109.7496  122.5229 C   0  0  0  0  0
  103.4304  110.8723  122.2039 C   0  0  0  0  0
  104.6886  110.2131  121.6845 C   0  0  0  0  0
  104.2313  108.9016  121.1000 C   0  0  0  0  0
  103.0570  108.4778  121.9544 C   0  0  0  0  0
  102.2078  109.5663  124.0137 C   0  0  0  0  0
  101.3774  108.5263  124.4682 C   0  0  0  0  0
  101.1360  108.3419  125.8320 C   0  0  0  0  0
  101.7282  109.2044  126.7647 C   0  0  0  0  0
  101.5138  109.0580  128.1356 C   0  0  0  0  0
  102.1260  109.9383  129.0279 C   0  0  0  0  0
  102.9414  110.9615  128.5148 C   0  0  0  0  0
  102.5630  110.2525  126.3237 C   0  0  0  0  0
  102.7960  110.4260  124.9580 C   0  0  0  0  0
  101.8809  109.7912  130.4939 C   0  0  0  0  0
  100.6639  110.5981  130.9042 C   0  0  0  0  0
  103.5045  111.7781  129.2916 O   0  0  0  0  0
  103.1272  111.0766  127.2017 O   0  0  0  0  0
  100.3091  107.3035  126.2454 O   0  0  0  0  0
  1  2  1  0  0  0
  2  3  1  0  0  0
  3  4  1  0  0  0
  4  5  1  0  0  0
  5  6  1  0  0  0
  5 10  1  0  0  0
  6  7  1  0  0  0
  7  8  1  0  0  0
  8  9  1  0  0  0
  9  5  1  0  0  0
 11 12  1  0  0  0
 12 23  1  0  0  0
 13 14  1  0  0  0
 15 16  1  0  0  0
 16 22  1  0  0  0
 17 22  1  0  0  0
 17 13  1  0  0  0
 18 10  1  0  0  0
 19 15  1  0  0  0
 19 20  1  0  0  0
 10 11  2  0  0  0
 12 13  2  0  0  0
 14 15  2  0  0  0
 16 21  2  0  0  0
 17 18  2  0  0  0
M  END
> <rmsd>
0.715935349

$$$$
