CHEMBL384897_6PT0


 32 35  0  0  0  0  0  0  0  0999 V2000
  139.7060  118.7684   97.2264 C   0  0  0  0  0
  138.7853  119.0400   98.2369 C   0  0  0  0  0
  137.8826  120.0947   98.0965 C   0  0  0  0  0
  137.8760  120.8980   96.9452 C   0  0  0  0  0
  138.8132  120.6240   95.9174 C   0  0  0  0  0
  139.7269  119.5492   96.0707 C   0  0  0  0  0
  140.6512  119.2610   95.0625 C   0  0  0  0  0
  140.6769  120.0256   93.8942 C   0  0  0  0  0
  139.7767  121.0801   93.7280 C   0  0  0  0  0
  138.8502  121.3758   94.7313 C   0  0  0  0  0
  136.9108  122.0266   96.8648 C   0  0  0  0  0
  135.5492  121.9334   97.4297 C   0  0  0  0  0
  134.6628  122.9886   97.5444 C   0  0  0  0  0
  133.6786  121.1999   98.3107 C   0  0  0  0  0
  134.9331  120.7851   97.9027 C   0  0  0  0  0
  132.6341  120.3125   98.8704 C   0  0  0  0  0
  131.3477  120.3902   98.3172 C   0  0  0  0  0
  130.3205  119.5632   98.7706 C   0  0  0  0  0
  130.5672  118.6417   99.7858 C   0  0  0  0  0
  131.8383  118.5556  100.3541 C   0  0  0  0  0
  132.8835  119.3886   99.9222 C   0  0  0  0  0
  134.2296  119.2596  100.5987 C   0  0  0  0  0
  132.3682  123.3480   98.4109 C   0  0  0  0  0
  132.2984  123.5956   99.9107 C   0  0  0  0  0
  133.4237  124.5114  100.3517 C   0  0  0  0  0
  133.3640  124.6946  101.8528 C   0  0  0  0  0
  134.4982  125.5941  102.2961 C   0  0  0  0  0
  137.2615  123.1047   96.3126 O   0  0  0  0  0
  133.5222  122.5211   98.0782 N   0  0  0  0  0
  134.1198  118.5503  101.7835 F   0  0  0  0  0
  134.7416  120.5103  100.8962 F   0  0  0  0  0
  135.1055  118.5866   99.7674 F   0  0  0  0  0
  2  3  1  0  0  0
  4  5  1  0  0  0
  4 11  1  0  0  0
  6  7  1  0  0  0
  6  1  1  0  0  0
  8  9  1  0  0  0
 10  5  1  0  0  0
 11 12  1  0  0  0
 13 29  1  0  0  0
 14 16  1  0  0  0
 15 12  1  0  0  0
 17 18  1  0  0  0
 19 20  1  0  0  0
 21 16  1  0  0  0
 22 21  1  0  0  0
 22 30  1  0  0  0
 22 31  1  0  0  0
 22 32  1  0  0  0
 23 29  1  0  0  0
 23 24  1  0  0  0
 24 25  1  0  0  0
 25 26  1  0  0  0
 26 27  1  0  0  0
 29 14  1  0  0  0
  1  2  2  0  0  0
  3  4  2  0  0  0
  5  6  2  0  0  0
  7  8  2  0  0  0
  9 10  2  0  0  0
 11 28  2  0  0  0
 12 13  2  0  0  0
 14 15  2  0  0  0
 16 17  2  0  0  0
 18 19  2  0  0  0
 20 21  2  0  0  0
M  END
> <rmsd>
0.650439024

$$$$
CHEMBL604120_5ZTY


 26 30  0  0  0  0  0  0  0  0999 V2000
  132.7974  124.5182  100.2539 C   0  0  0  0  0
  132.3044  123.6542   99.1097 C   0  0  0  0  0
  133.3410  122.6415   98.7442 C   0  0  0  0  0
  135.1587  121.8165   98.0295 C   0  0  0  0  0
  136.5123  121.6922   97.4792 C   0  0  0  0  0
  138.4245  120.1451   96.7553 C   0  0  0  0  0
  138.5394  120.7065   95.3246 C   0  0  0  0  0
  139.9408  120.4268   94.7598 C   0  0  0  0  0
  140.1780  118.9085   94.7295 C   0  0  0  0  0
  140.0713  118.3320   96.1505 C   0  0  0  0  0
  141.1278  118.9983   97.0464 C   0  0  0  0  0
  140.8963  120.5171   97.0904 C   0  0  0  0  0
  140.9940  121.0867   95.6654 C   0  0  0  0  0
  139.4940  120.7968   97.6534 C   0  0  0  0  0
  138.6709  118.6273   96.7131 C   0  0  0  0  0
  134.3464  120.7656   98.4023 C   0  0  0  0  0
  132.0684  120.5358   99.3433 C   0  0  0  0  0
  132.1209  119.1311   99.3511 C   0  0  0  0  0
  131.0416  118.3789   99.8232 C   0  0  0  0  0
  129.8953  119.0224  100.2945 C   0  0  0  0  0
  129.8288  120.4174  100.2936 C   0  0  0  0  0
  130.9090  121.1680   99.8211 C   0  0  0  0  0
  134.5390  122.9942   98.2369 N   0  0  0  0  0
  137.0901  120.3934   97.2927 N   0  0  0  0  0
  133.1930  121.2975   98.8538 N   0  0  0  0  0
  137.1598  122.7299   97.1734 O   0  0  0  0  0
  1  2  1  0  0  0
  2  3  1  0  0  0
  4 23  1  0  0  0
  4  5  1  0  0  0
  5 24  1  0  0  0
  6 24  1  0  0  0
  6  7  1  0  0  0
  8  7  1  0  0  0
  8  9  1  0  0  0
 10  9  1  0  0  0
 10 11  1  0  0  0
 10 15  1  0  0  0
 12 11  1  0  0  0
 12 13  1  0  0  0
 12 14  1  0  0  0
 13  8  1  0  0  0
 14  6  1  0  0  0
 15  6  1  0  0  0
 16 25  1  0  0  0
 18 19  1  0  0  0
 20 21  1  0  0  0
 22 17  1  0  0  0
 25 17  1  0  0  0
 25  3  1  0  0  0
  3 23  2  0  0  0
  4 16  2  0  0  0
  5 26  2  0  0  0
 17 18  2  0  0  0
 19 20  2  0  0  0
 21 22  2  0  0  0
M  END
> <rmsd>
0.684313357

$$$$
CHEMBL220352_6PT0


 30 33  0  0  0  0  0  0  0  0999 V2000
  138.6998  119.7444   94.1906 C   0  0  0  0  0
  138.1761  120.9423   93.7040 C   0  0  0  0  0
  137.5679  121.8474   94.5760 C   0  0  0  0  0
  137.4652  121.5681   95.9454 C   0  0  0  0  0
  138.0156  120.3649   96.4479 C   0  0  0  0  0
  138.6271  119.4506   95.5531 C   0  0  0  0  0
  139.1765  118.2582   96.0325 C   0  0  0  0  0
  139.1383  117.9673   97.3981 C   0  0  0  0  0
  138.5555  118.8698   98.2904 C   0  0  0  0  0
  138.0006  120.0624   97.8194 C   0  0  0  0  0
  136.7961  122.5641   96.8090 C   0  0  0  0  0
  135.6719  122.1964   97.6890 C   0  0  0  0  0
  135.1021  123.0183   98.6412 C   0  0  0  0  0
  134.0116  121.1266   98.6493 C   0  0  0  0  0
  134.9848  120.9937   97.6733 C   0  0  0  0  0
  133.0158  120.0789   98.9936 C   0  0  0  0  0
  131.7069  120.4674   99.3161 C   0  0  0  0  0
  130.7288  119.5184   99.6181 C   0  0  0  0  0
  131.0465  118.1610   99.6008 C   0  0  0  0  0
  132.3428  117.7535   99.2836 C   0  0  0  0  0
  133.3305  118.6963   98.9739 C   0  0  0  0  0
  134.7117  118.1922   98.7018 C   0  0  0  0  0
  135.5097  118.1324   99.9905 C   0  0  0  0  0
  133.2654  122.8838  100.2991 C   0  0  0  0  0
  132.1115  123.7126   99.7449 C   0  0  0  0  0
  132.5951  125.0425   99.1885 C   0  0  0  0  0
  132.9823  125.9805  100.3160 C   0  0  0  0  0
  133.4818  127.2863   99.7358 C   0  0  0  0  0
  137.1686  123.7673   96.7563 O   0  0  0  0  0
  134.0877  122.3517   99.2186 N   0  0  0  0  0
  2  3  1  0  0  0
  4  5  1  0  0  0
  4 11  1  0  0  0
  6  7  1  0  0  0
  6  1  1  0  0  0
  8  9  1  0  0  0
 10  5  1  0  0  0
 11 12  1  0  0  0
 13 30  1  0  0  0
 14 16  1  0  0  0
 15 12  1  0  0  0
 17 18  1  0  0  0
 19 20  1  0  0  0
 21 16  1  0  0  0
 22 21  1  0  0  0
 22 23  1  0  0  0
 24 30  1  0  0  0
 24 25  1  0  0  0
 25 26  1  0  0  0
 26 27  1  0  0  0
 27 28  1  0  0  0
 30 14  1  0  0  0
  1  2  2  0  0  0
  3  4  2  0  0  0
  5  6  2  0  0  0
  7  8  2  0  0  0
  9 10  2  0  0  0
 11 29  2  0  0  0
 12 13  2  0  0  0
 14 15  2  0  0  0
 16 17  2  0  0  0
 18 19  2  0  0  0
 20 21  2  0  0  0
M  END
> <rmsd>
0.619708955

$$$$
CHEMBL385994_6PT0


 30 33  0  0  0  0  0  0  0  0999 V2000
  139.5021  118.6407   96.4905 C   0  0  0  0  0
  139.8897  119.6950   97.3175 C   0  0  0  0  0
  139.0346  120.7806   97.5171 C   0  0  0  0  0
  137.7762  120.8278   96.9020 C   0  0  0  0  0
  137.3876  119.7714   96.0435 C   0  0  0  0  0
  138.2619  118.6715   95.8511 C   0  0  0  0  0
  137.8944  117.6203   95.0064 C   0  0  0  0  0
  136.6689  117.6538   94.3369 C   0  0  0  0  0
  135.8085  118.7411   94.5048 C   0  0  0  0  0
  136.1670  119.7949   95.3492 C   0  0  0  0  0
  136.9180  122.0023   97.1674 C   0  0  0  0  0
  135.5326  121.8594   97.6518 C   0  0  0  0  0
  134.6223  122.8897   97.7787 C   0  0  0  0  0
  133.6599  121.0576   98.4767 C   0  0  0  0  0
  134.9422  120.6902   98.1017 C   0  0  0  0  0
  132.6534  120.1053   99.0090 C   0  0  0  0  0
  131.3286  120.4951   99.2513 C   0  0  0  0  0
  130.3946  119.5800   99.7429 C   0  0  0  0  0
  130.7755  118.2602   99.9949 C   0  0  0  0  0
  132.0894  117.8487   99.7563 C   0  0  0  0  0
  133.0221  118.7748   99.2627 C   0  0  0  0  0
  133.7529  116.0191   99.7987 C   0  0  0  0  0
  132.3071  123.1946   98.5859 C   0  0  0  0  0
  132.3271  123.6376  100.0451 C   0  0  0  0  0
  133.4084  124.6764  100.2982 C   0  0  0  0  0
  133.0137  126.0114   99.6957 C   0  0  0  0  0
  134.1162  127.0197   99.9395 C   0  0  0  0  0
  137.4011  123.1574   97.0191 O   0  0  0  0  0
  132.4413  116.5213  100.0154 O   0  0  0  0  0
  133.4799  122.3854   98.2759 N   0  0  0  0  0
  2  3  1  0  0  0
  4  5  1  0  0  0
  4 11  1  0  0  0
  6  7  1  0  0  0
  6  1  1  0  0  0
  8  9  1  0  0  0
 10  5  1  0  0  0
 11 12  1  0  0  0
 13 30  1  0  0  0
 14 16  1  0  0  0
 15 12  1  0  0  0
 17 18  1  0  0  0
 19 20  1  0  0  0
 20 29  1  0  0  0
 21 16  1  0  0  0
 22 29  1  0  0  0
 23 30  1  0  0  0
 23 24  1  0  0  0
 24 25  1  0  0  0
 25 26  1  0  0  0
 26 27  1  0  0  0
 30 14  1  0  0  0
  1  2  2  0  0  0
  3  4  2  0  0  0
  5  6  2  0  0  0
  7  8  2  0  0  0
  9 10  2  0  0  0
 11 28  2  0  0  0
 12 13  2  0  0  0
 14 15  2  0  0  0
 16 17  2  0  0  0
 18 19  2  0  0  0
 20 21  2  0  0  0
M  END
> <rmsd>
0.410231799

$$$$
CHEMBL2163952_6PT0


 35 41  0  0  0  0  0  0  0  0999 V2000
  138.8784  119.6008   93.4925 C   0  0  0  0  0
  139.1405  119.6100   94.9831 C   0  0  0  0  0
  140.4016  120.4373   95.2816 C   0  0  0  0  0
  140.6789  120.4471   96.7941 C   0  0  0  0  0
  140.8764  119.0031   97.2828 C   0  0  0  0  0
  139.6136  118.1757   96.9939 C   0  0  0  0  0
  139.8125  116.7564   97.4805 C   0  0  0  0  0
  139.3466  118.1706   95.4805 C   0  0  0  0  0
  138.4146  118.8078   97.7196 C   0  0  0  0  0
  138.2025  120.2516   97.2330 C   0  0  0  0  0
  136.5602  122.1566   97.7434 C   0  0  0  0  0
  135.3844  122.6177   98.5201 C   0  0  0  0  0
  134.7983  121.7327   99.4340 C   0  0  0  0  0
  133.1750  123.3423  100.0649 C   0  0  0  0  0
  132.0795  123.7090  100.8657 C   0  0  0  0  0
  131.4808  124.9609  100.7080 C   0  0  0  0  0
  131.9906  125.8675   99.7753 C   0  0  0  0  0
  133.1012  125.5259   98.9986 C   0  0  0  0  0
  133.7043  124.2662   99.1374 C   0  0  0  0  0
  134.8188  123.9019   98.3657 C   0  0  0  0  0
  132.3819  121.7014  102.2407 C   0  0  0  0  0
  133.1133  121.0704  101.0489 C   0  0  0  0  0
  132.2138  120.1602  100.2649 C   0  0  0  0  0
  131.0872  120.6526   99.5881 C   0  0  0  0  0
  130.2747  119.7854   98.8523 C   0  0  0  0  0
  130.5853  118.4241   98.7869 C   0  0  0  0  0
  131.7087  117.9302   99.4564 C   0  0  0  0  0
  132.5218  118.7973  100.1925 C   0  0  0  0  0
  139.4776  121.0666   97.5257 C   0  0  0  0  0
  137.9401  120.2301   95.7146 C   0  0  0  0  0
  137.0600  120.8252   97.9374 N   0  0  0  0  0
  133.7201  122.0913  100.1820 N   0  0  0  0  0
  137.1240  122.9228   96.9153 O   0  0  0  0  0
  135.3047  124.7234   97.5395 O   0  0  0  0  0
  131.5963  122.8160  101.8226 O   0  0  0  0  0
  2  1  1  0  0  0
  2  3  1  0  0  0
  4  3  1  0  0  0
  4  5  1  0  0  0
  5  6  1  0  0  0
  6  7  1  0  0  0
  6  8  1  0  0  0
  6  9  1  0  0  0
  8  2  1  0  0  0
  9 10  1  0  0  0
 10 31  1  0  0  0
 10 29  1  0  0  0
 10 30  1  0  0  0
 11 12  1  0  0  0
 13 32  1  0  0  0
 15 16  1  0  0  0
 15 35  1  0  0  0
 17 18  1  0  0  0
 19 20  1  0  0  0
 19 14  1  0  0  0
 20 12  1  0  0  0
 21 35  1  0  0  0
 21 22  1  0  0  0
 22 23  1  0  0  0
 22 32  1  0  0  0
 24 25  1  0  0  0
 26 27  1  0  0  0
 28 23  1  0  0  0
 29  4  1  0  0  0
 30  2  1  0  0  0
 31 11  1  0  0  0
 32 14  1  0  0  0
 11 33  2  0  0  0
 12 13  2  0  0  0
 14 15  2  0  0  0
 16 17  2  0  0  0
 18 19  2  0  0  0
 20 34  2  0  0  0
 23 24  2  0  0  0
 25 26  2  0  0  0
 27 28  2  0  0  0
M  END
> <rmsd>
0.343213558

$$$$
CHEMBL2163931_6PT0


 26 28  0  0  0  0  0  0  0  0999 V2000
  132.0695  125.4244  100.2444 C   0  0  0  0  0
  132.5399  123.9863  100.1386 C   0  0  0  0  0
  132.1661  123.4025   98.7816 C   0  0  0  0  0
  130.6627  123.1040   98.7161 C   0  0  0  0  0
  131.1852  120.7994   99.3508 C   0  0  0  0  0
  130.7226  119.5429   99.7484 C   0  0  0  0  0
  131.5439  118.4208   99.6120 C   0  0  0  0  0
  132.8283  118.5515   99.0758 C   0  0  0  0  0
  133.3101  119.8108   98.6856 C   0  0  0  0  0
  134.5964  119.9646   98.1446 C   0  0  0  0  0
  135.0518  121.2514   97.7814 C   0  0  0  0  0
  136.3925  121.5015   97.1955 C   0  0  0  0  0
  138.6136  120.6157   96.3461 C   0  0  0  0  0
  139.4726  119.3829   96.5605 C   0  0  0  0  0
  138.4723  120.9322   94.8581 C   0  0  0  0  0
  137.7095  119.8410   94.1044 C   0  0  0  0  0
  137.5105  120.1783   92.6292 C   0  0  0  0  0
  136.6779  121.4353   92.4524 C   0  0  0  0  0
  138.8368  120.3131   91.9029 C   0  0  0  0  0
  134.2029  122.3465   97.9948 C   0  0  0  0  0
  132.4883  120.9475   98.8463 C   0  0  0  0  0
  130.3550  121.9163   99.4425 O   0  0  0  0  0
  135.3328  118.9519   97.9878 O   0  0  0  0  0
  136.7303  122.6793   96.8929 O   0  0  0  0  0
  137.3098  120.4262   96.9687 N   0  0  0  0  0
  132.9578  122.1922   98.5206 N   0  0  0  0  0
  1  2  1  0  0  0
  3  2  1  0  0  0
  3  4  1  0  0  0
  3 26  1  0  0  0
  4 22  1  0  0  0
  5 22  1  0  0  0
  5  6  1  0  0  0
  7  8  1  0  0  0
  9 10  1  0  0  0
 10 11  1  0  0  0
 11 12  1  0  0  0
 12 25  1  0  0  0
 13 25  1  0  0  0
 13 14  1  0  0  0
 13 15  1  0  0  0
 15 16  1  0  0  0
 16 17  1  0  0  0
 17 18  1  0  0  0
 17 19  1  0  0  0
 20 26  1  0  0  0
 21  9  1  0  0  0
 26 21  1  0  0  0
  6  7  2  0  0  0
  8  9  2  0  0  0
 10 23  2  0  0  0
 11 20  2  0  0  0
 12 24  2  0  0  0
 21  5  2  0  0  0
M  END
> <rmsd>
0.636132956

$$$$
CHEMBL1223588_5ZTY


 29 32  0  0  0  0  0  0  0  0999 V2000
  134.0830  123.9910  101.9762 C   0  0  0  0  0
  133.3193  125.1571  101.3768 C   0  0  0  0  0
  133.0737  124.9228   99.8975 C   0  0  0  0  0
  131.9695  123.8969   99.7005 C   0  0  0  0  0
  131.7955  123.5714   98.2253 C   0  0  0  0  0
  132.8555  122.6292   97.7538 C   0  0  0  0  0
  136.2375  121.9492   96.9210 C   0  0  0  0  0
  138.3683  120.7677   96.2232 C   0  0  0  0  0
  139.1226  120.6900   97.5610 C   0  0  0  0  0
  139.9808  119.4172   97.4168 C   0  0  0  0  0
  138.9808  118.2569   97.5671 C   0  0  0  0  0
  138.2004  118.2806   96.2446 C   0  0  0  0  0
  138.8270  119.4791   95.5168 C   0  0  0  0  0
  138.5676  119.4803   94.0185 C   0  0  0  0  0
  140.2915  119.3890   95.9249 C   0  0  0  0  0
  140.9973  118.1017   95.4814 C   0  0  0  0  0
  141.1537  120.5725   95.4695 C   0  0  0  0  0
  133.9899  120.7352   96.9096 C   0  0  0  0  0
  132.5979  121.2116   97.3394 C   0  0  0  0  0
  132.0768  120.3861   98.4787 C   0  0  0  0  0
  130.8632  119.7072   98.3240 C   0  0  0  0  0
  130.3511  118.9326   99.3693 C   0  0  0  0  0
  131.0517  118.8332  100.5749 C   0  0  0  0  0
  132.2653  119.5075  100.7364 C   0  0  0  0  0
  132.7781  120.2818   99.6919 C   0  0  0  0  0
  134.0887  122.9753   97.6270 N   0  0  0  0  0
  134.8267  121.8997   97.1389 N   0  0  0  0  0
  136.9244  120.7939   96.4338 N   0  0  0  0  0
  136.8723  123.0121   97.1588 O   0  0  0  0  0
  1  2  1  0  0  0
  2  3  1  0  0  0
  3  4  1  0  0  0
  4  5  1  0  0  0
  5  6  1  0  0  0
  7 28  1  0  0  0
  8 28  1  0  0  0
  8  9  1  0  0  0
 10  9  1  0  0  0
 10 11  1  0  0  0
 11 12  1  0  0  0
 12 13  1  0  0  0
 13 14  1  0  0  0
 13 15  1  0  0  0
 13  8  1  0  0  0
 15 16  1  0  0  0
 15 17  1  0  0  0
 15 10  1  0  0  0
 18 27  1  0  0  0
 18 19  1  0  0  0
 19 20  1  0  0  0
 19  6  1  0  0  0
 21 22  1  0  0  0
 23 24  1  0  0  0
 25 20  1  0  0  0
 27 26  1  0  0  0
 27  7  1  0  0  0
  6 26  2  0  0  0
  7 29  2  0  0  0
 20 21  2  0  0  0
 22 23  2  0  0  0
 24 25  2  0  0  0
M  END
> <rmsd>
0.345499068

$$$$
CHEMBL2179763_5ZTY


 30 32  0  0  0  0  0  0  0  0999 V2000
  141.7626  117.3010   97.3478 C   0  0  0  0  0
  141.6233  118.6631   96.6926 C   0  0  0  0  0
  142.6195  119.6360   97.2968 C   0  0  0  0  0
  140.2236  119.1791   96.8156 C   0  0  0  0  0
  139.4802  119.4143   95.6543 C   0  0  0  0  0
  138.1706  119.8954   95.7419 C   0  0  0  0  0
  137.5945  120.1502   96.9907 C   0  0  0  0  0
  136.1799  120.6460   97.0489 C   0  0  0  0  0
  135.0171  118.8577   98.4688 C   0  0  0  0  0
  133.8472  117.9458   98.6019 C   0  0  0  0  0
  132.6482  118.7192   99.0372 C   0  0  0  0  0
  131.8303  119.3394   98.0853 C   0  0  0  0  0
  130.7295  120.0979   98.4952 C   0  0  0  0  0
  130.4481  120.2423   99.8571 C   0  0  0  0  0
  131.2686  119.6305  100.8096 C   0  0  0  0  0
  132.3699  118.8723  100.4005 C   0  0  0  0  0
  136.3165  123.0341   97.8952 C   0  0  0  0  0
  136.0253  124.0158   98.9809 C   0  0  0  0  0
  134.5837  123.9619   99.3647 C   0  0  0  0  0
  134.1648  123.1035  100.3888 C   0  0  0  0  0
  132.8096  123.0166  100.7202 C   0  0  0  0  0
  131.8697  123.7832  100.0247 C   0  0  0  0  0
  132.2849  124.6360   98.9973 C   0  0  0  0  0
  133.6404  124.7231   98.6648 C   0  0  0  0  0
  138.3356  119.9072   98.1564 C   0  0  0  0  0
  139.6445  119.4261   98.0702 C   0  0  0  0  0
  135.2311  119.5514   97.2346 N   0  0  0  0  0
  135.9948  121.6554   98.0837 N   0  0  0  0  0
  135.7607  119.0631   99.4647 O   0  0  0  0  0
  136.8393  123.4296   96.8197 O   0  0  0  0  0
  1  2  1  0  0  0
  2  3  1  0  0  0
  2  4  1  0  0  0
  5  6  1  0  0  0
  7 25  1  0  0  0
  8  7  1  0  0  0
  8 27  1  0  0  0
  8 28  1  0  0  0
 10  9  1  0  0  0
 10 11  1  0  0  0
 12 13  1  0  0  0
 14 15  1  0  0  0
 16 11  1  0  0  0
 18 17  1  0  0  0
 18 19  1  0  0  0
 20 21  1  0  0  0
 22 23  1  0  0  0
 24 19  1  0  0  0
 26  4  1  0  0  0
 27  9  1  0  0  0
 28 17  1  0  0  0
  4  5  2  0  0  0
  6  7  2  0  0  0
  9 29  2  0  0  0
 11 12  2  0  0  0
 13 14  2  0  0  0
 15 16  2  0  0  0
 17 30  2  0  0  0
 19 20  2  0  0  0
 21 22  2  0  0  0
 23 24  2  0  0  0
 25 26  2  0  0  0
M  END
> <rmsd>
0.438388735

$$$$
CHEMBL466047_8GUT


 29 32  0  0  0  0  0  0  0  0999 V2000
  141.7471  118.3218   95.2429 C   0  0  0  0  0
  140.5313  118.6624   96.0782 C   0  0  0  0  0
  139.3665  119.0230   95.1598 C   0  0  0  0  0
  138.1410  119.4005   95.9872 C   0  0  0  0  0
  138.4688  120.5727   96.9085 C   0  0  0  0  0
  136.6749  122.1849   97.6518 C   0  0  0  0  0
  135.4805  122.4915   98.4797 C   0  0  0  0  0
  134.9002  123.7580   98.3633 C   0  0  0  0  0
  133.7831  124.0939   99.1150 C   0  0  0  0  0
  133.2050  125.3584   99.0031 C   0  0  0  0  0
  132.0840  125.6767   99.7703 C   0  0  0  0  0
  131.5579  124.7205  100.6414 C   0  0  0  0  0
  133.2295  123.1492   99.9991 C   0  0  0  0  0
  133.1936  120.9207  101.0180 C   0  0  0  0  0
  132.1695  120.1016  100.3031 C   0  0  0  0  0
  132.5469  118.9259   99.6446 C   0  0  0  0  0
  131.5923  118.1706   98.9570 C   0  0  0  0  0
  130.2594  118.5918   98.9236 C   0  0  0  0  0
  129.8814  119.7690   99.5764 C   0  0  0  0  0
  130.8360  120.5242  100.2642 C   0  0  0  0  0
  134.9023  121.5637   99.3793 C   0  0  0  0  0
  139.6324  120.2108   97.8278 C   0  0  0  0  0
  140.8584  119.8335   97.0008 C   0  0  0  0  0
  137.3019  120.9008   97.7095 N   0  0  0  0  0
  132.1342  123.4920  100.7376 N   0  0  0  0  0
  133.7918  121.9051  100.1114 N   0  0  0  0  0
  137.1441  123.0692   96.8831 O   0  0  0  0  0
  135.4091  120.4154   99.5149 O   0  0  0  0  0
  129.3346  117.8600   98.2574 F   0  0  0  0  0
  2  1  1  0  0  0
  2  3  1  0  0  0
  3  4  1  0  0  0
  4  5  1  0  0  0
  5 24  1  0  0  0
  5 22  1  0  0  0
  6  7  1  0  0  0
  8  9  1  0  0  0
 10 11  1  0  0  0
 12 25  1  0  0  0
 13 26  1  0  0  0
 13  9  1  0  0  0
 14 26  1  0  0  0
 14 15  1  0  0  0
 16 17  1  0  0  0
 18 29  1  0  0  0
 18 19  1  0  0  0
 20 15  1  0  0  0
 21  7  1  0  0  0
 22 23  1  0  0  0
 23  2  1  0  0  0
 24  6  1  0  0  0
 26 21  1  0  0  0
  6 27  2  0  0  0
  7  8  2  0  0  0
  9 10  2  0  0  0
 11 12  2  0  0  0
 13 25  2  0  0  0
 15 16  2  0  0  0
 17 18  2  0  0  0
 19 20  2  0  0  0
 21 28  2  0  0  0
M  END
> <rmsd>
0.348705858

$$$$
CHEMBL512063_8GUT


 29 32  0  0  0  0  0  0  0  0999 V2000
  141.7471  118.3218   95.2429 C   0  0  0  0  0
  140.5313  118.6624   96.0782 C   0  0  0  0  0
  139.3665  119.0230   95.1598 C   0  0  0  0  0
  138.1410  119.4005   95.9872 C   0  0  0  0  0
  138.4688  120.5727   96.9085 C   0  0  0  0  0
  136.6749  122.1849   97.6518 C   0  0  0  0  0
  135.4805  122.4915   98.4797 C   0  0  0  0  0
  134.9002  123.7580   98.3633 C   0  0  0  0  0
  133.7831  124.0939   99.1150 C   0  0  0  0  0
  133.2050  125.3584   99.0031 C   0  0  0  0  0
  132.0840  125.6767   99.7703 C   0  0  0  0  0
  131.5579  124.7205  100.6414 C   0  0  0  0  0
  133.2295  123.1492   99.9991 C   0  0  0  0  0
  133.1936  120.9207  101.0180 C   0  0  0  0  0
  132.1695  120.1016  100.3031 C   0  0  0  0  0
  132.5469  118.9259   99.6446 C   0  0  0  0  0
  131.5923  118.1706   98.9570 C   0  0  0  0  0
  130.2594  118.5918   98.9236 C   0  0  0  0  0
  129.8814  119.7690   99.5764 C   0  0  0  0  0
  130.8360  120.5242  100.2642 C   0  0  0  0  0
  134.9023  121.5637   99.3793 C   0  0  0  0  0
  139.6324  120.2108   97.8278 C   0  0  0  0  0
  140.8584  119.8335   97.0008 C   0  0  0  0  0
  137.3019  120.9008   97.7095 N   0  0  0  0  0
  132.1342  123.4920  100.7376 N   0  0  0  0  0
  133.7918  121.9051  100.1114 N   0  0  0  0  0
  137.1441  123.0692   96.8831 O   0  0  0  0  0
  135.4091  120.4154   99.5149 O   0  0  0  0  0
  129.3346  117.8600   98.2574 F   0  0  0  0  0
  2  1  1  0  0  0
  2  3  1  0  0  0
  3  4  1  0  0  0
  4  5  1  0  0  0
  5 24  1  0  0  0
  5 22  1  0  0  0
  6  7  1  0  0  0
  8  9  1  0  0  0
 10 11  1  0  0  0
 12 25  1  0  0  0
 13 26  1  0  0  0
 13  9  1  0  0  0
 14 26  1  0  0  0
 14 15  1  0  0  0
 16 17  1  0  0  0
 18 29  1  0  0  0
 18 19  1  0  0  0
 20 15  1  0  0  0
 21  7  1  0  0  0
 22 23  1  0  0  0
 23  2  1  0  0  0
 24  6  1  0  0  0
 26 21  1  0  0  0
  6 27  2  0  0  0
  7  8  2  0  0  0
  9 10  2  0  0  0
 11 12  2  0  0  0
 13 25  2  0  0  0
 15 16  2  0  0  0
 17 18  2  0  0  0
 19 20  2  0  0  0
 21 28  2  0  0  0
M  END
> <rmsd>
0.348705858

$$$$
CHEMBL466651_8GUT


 29 32  0  0  0  0  0  0  0  0999 V2000
  139.2181  116.7832   97.7096 C   0  0  0  0  0
  139.3983  118.1163   97.0155 C   0  0  0  0  0
  139.6683  119.1985   98.0558 C   0  0  0  0  0
  139.8369  120.5565   97.3748 C   0  0  0  0  0
  138.6082  120.9142   96.5351 C   0  0  0  0  0
  138.2943  119.8039   95.5294 C   0  0  0  0  0
  138.1378  118.4519   96.2251 C   0  0  0  0  0
  136.7879  122.4183   97.4388 C   0  0  0  0  0
  135.6157  122.6302   98.3255 C   0  0  0  0  0
  134.9755  123.8726   98.2941 C   0  0  0  0  0
  133.8749  124.1195   99.1023 C   0  0  0  0  0
  133.3988  123.1084   99.9579 C   0  0  0  0  0
  131.6844  124.5671  100.7383 C   0  0  0  0  0
  132.1331  125.5878   99.8975 C   0  0  0  0  0
  133.2368  125.3595   99.0749 C   0  0  0  0  0
  135.1156  121.6345   99.1992 C   0  0  0  0  0
  133.5027  120.8345  100.8653 C   0  0  0  0  0
  132.4974  119.9970  100.1452 C   0  0  0  0  0
  132.9095  118.8656   99.4321 C   0  0  0  0  0
  131.9718  118.0939   98.7395 C   0  0  0  0  0
  130.6209  118.4544   98.7560 C   0  0  0  0  0
  130.2080  119.5875   99.4634 C   0  0  0  0  0
  131.1457  120.3591  100.1560 C   0  0  0  0  0
  137.4594  121.1568   97.3964 N   0  0  0  0  0
  132.3186  123.3636  100.7519 N   0  0  0  0  0
  134.0203  121.8881   99.9876 N   0  0  0  0  0
  137.1966  123.3627   96.7082 O   0  0  0  0  0
  135.6792  120.5063   99.2598 O   0  0  0  0  0
  129.7125  117.7068   98.0849 F   0  0  0  0  0
  1  2  1  0  0  0
  2  3  1  0  0  0
  3  4  1  0  0  0
  4  5  1  0  0  0
  5  6  1  0  0  0
  5 24  1  0  0  0
  6  7  1  0  0  0
  7  2  1  0  0  0
  8  9  1  0  0  0
 10 11  1  0  0  0
 12 25  1  0  0  0
 12 26  1  0  0  0
 13 14  1  0  0  0
 15 11  1  0  0  0
 16  9  1  0  0  0
 17 26  1  0  0  0
 17 18  1  0  0  0
 19 20  1  0  0  0
 21 22  1  0  0  0
 21 29  1  0  0  0
 23 18  1  0  0  0
 24  8  1  0  0  0
 26 16  1  0  0  0
  8 27  2  0  0  0
  9 10  2  0  0  0
 11 12  2  0  0  0
 13 25  2  0  0  0
 14 15  2  0  0  0
 16 28  2  0  0  0
 18 19  2  0  0  0
 20 21  2  0  0  0
 22 23  2  0  0  0
M  END
> <rmsd>
0.341879398

$$$$
CHEMBL2381799_8GUT


 33 36  0  0  0  0  0  0  0  0999 V2000
  131.7416  123.6204   98.5659 C   0  0  0  0  0
  132.3120  124.6272   99.5546 C   0  0  0  0  0
  132.1263  124.1307  100.9789 C   0  0  0  0  0
  132.7059  125.1261  101.9675 C   0  0  0  0  0
  131.7884  126.3260  102.1105 C   0  0  0  0  0
  133.8253  122.4775   97.9779 C   0  0  0  0  0
  134.6427  121.3290   97.8947 C   0  0  0  0  0
  134.1115  120.1089   98.3745 C   0  0  0  0  0
  132.1031  121.2187   98.9470 C   0  0  0  0  0
  130.8723  120.9327   99.5071 C   0  0  0  0  0
  130.9794  119.5582   99.7599 C   0  0  0  0  0
  129.9096  118.7307  100.3738 C   0  0  0  0  0
  128.7101  119.3677  100.7341 C   0  0  0  0  0
  127.6608  118.6553  101.3162 C   0  0  0  0  0
  127.7943  117.2880  101.5484 C   0  0  0  0  0
  128.9758  116.6346  101.1986 C   0  0  0  0  0
  130.0351  117.3376  100.6144 C   0  0  0  0  0
  136.0011  121.4520   97.3147 C   0  0  0  0  0
  138.1924  120.3809   96.6288 C   0  0  0  0  0
  138.9540  119.1111   96.9867 C   0  0  0  0  0
  140.4624  119.2782   96.8293 C   0  0  0  0  0
  140.8665  119.5547   95.3862 C   0  0  0  0  0
  140.6060  121.0175   95.0552 C   0  0  0  0  0
  139.2139  121.2637   94.4656 C   0  0  0  0  0
  138.0737  120.4712   95.1114 C   0  0  0  0  0
  132.5677  122.4187   98.5080 N   0  0  0  0  0
  132.8536  120.1160   98.8816 N   0  0  0  0  0
  132.1889  119.0883   99.3721 N   0  0  0  0  0
  136.8631  120.3137   97.2163 N   0  0  0  0  0
  134.7731  119.0362   98.3389 O   0  0  0  0  0
  136.4046  122.5756   96.9057 O   0  0  0  0  0
  131.4718  116.4052  100.2164 Cl  0  0  0  0  0
  126.4808  116.3909  102.2781 Cl  0  0  0  0  0
  1  2  1  0  0  0
  1 26  1  0  0  0
  2  3  1  0  0  0
  3  4  1  0  0  0
  4  5  1  0  0  0
  7  8  1  0  0  0
  7 18  1  0  0  0
  8 27  1  0  0  0
  9 26  1  0  0  0
 10 11  1  0  0  0
 11 12  1  0  0  0
 13 14  1  0  0  0
 15 16  1  0  0  0
 15 33  1  0  0  0
 17 32  1  0  0  0
 17 12  1  0  0  0
 18 29  1  0  0  0
 19 29  1  0  0  0
 19 20  1  0  0  0
 20 21  1  0  0  0
 21 22  1  0  0  0
 22 23  1  0  0  0
 23 24  1  0  0  0
 24 25  1  0  0  0
 25 19  1  0  0  0
 26  6  1  0  0  0
 27  9  1  0  0  0
 27 28  1  0  0  0
  6  7  2  0  0  0
  8 30  2  0  0  0
  9 10  2  0  0  0
 11 28  2  0  0  0
 12 13  2  0  0  0
 14 15  2  0  0  0
 16 17  2  0  0  0
 18 31  2  0  0  0
M  END
> <rmsd>
0.90910244

$$$$
CHEMBL2381785_5ZTY


 31 34  0  0  0  0  0  0  0  0999 V2000
  132.8813  123.1654  100.6785 C   0  0  0  0  0
  131.6083  123.8764  100.2298 C   0  0  0  0  0
  131.8477  124.7013   98.9710 C   0  0  0  0  0
  132.6810  125.9386   99.2676 C   0  0  0  0  0
  131.8464  126.9784   99.9912 C   0  0  0  0  0
  134.3891  122.2813   98.9847 C   0  0  0  0  0
  134.8095  121.2958   98.0652 C   0  0  0  0  0
  134.0232  120.1255   97.9512 C   0  0  0  0  0
  132.5436  120.9711   99.5923 C   0  0  0  0  0
  131.3919  120.5950  100.2595 C   0  0  0  0  0
  131.1362  119.3390   99.6980 C   0  0  0  0  0
  130.0021  118.4675  100.0497 C   0  0  0  0  0
  129.0665  118.8686  101.0152 C   0  0  0  0  0
  127.9916  118.0380  101.3453 C   0  0  0  0  0
  127.8447  116.8007  100.7125 C   0  0  0  0  0
  128.7723  116.3938   99.7498 C   0  0  0  0  0
  129.8473  117.2244   99.4195 C   0  0  0  0  0
  136.0410  121.5279   97.2738 C   0  0  0  0  0
  137.7186  120.7226   95.5503 C   0  0  0  0  0
  137.6673  119.7998   94.3290 C   0  0  0  0  0
  139.0191  119.6226   93.6528 C   0  0  0  0  0
  139.7241  118.4048   94.2366 C   0  0  0  0  0
  140.3748  118.7035   95.5838 C   0  0  0  0  0
  139.3535  119.0883   96.6465 C   0  0  0  0  0
  138.9455  120.5433   96.4569 C   0  0  0  0  0
  133.2601  122.1200   99.7335 N   0  0  0  0  0
  132.9180  120.0202   98.7306 N   0  0  0  0  0
  132.0717  119.0096   98.7757 N   0  0  0  0  0
  136.4954  120.5597   96.3226 N   0  0  0  0  0
  134.3275  119.1954   97.1563 O   0  0  0  0  0
  136.6949  122.5946   97.4372 O   0  0  0  0  0
  1  2  1  0  0  0
  1 26  1  0  0  0
  2  3  1  0  0  0
  3  4  1  0  0  0
  4  5  1  0  0  0
  7  8  1  0  0  0
  7 18  1  0  0  0
  8 27  1  0  0  0
  9 26  1  0  0  0
 10 11  1  0  0  0
 11 12  1  0  0  0
 13 14  1  0  0  0
 15 16  1  0  0  0
 17 12  1  0  0  0
 18 29  1  0  0  0
 19 29  1  0  0  0
 19 20  1  0  0  0
 20 21  1  0  0  0
 21 22  1  0  0  0
 22 23  1  0  0  0
 23 24  1  0  0  0
 24 25  1  0  0  0
 25 19  1  0  0  0
 26  6  1  0  0  0
 27  9  1  0  0  0
 27 28  1  0  0  0
  6  7  2  0  0  0
  8 30  2  0  0  0
  9 10  2  0  0  0
 11 28  2  0  0  0
 12 13  2  0  0  0
 14 15  2  0  0  0
 16 17  2  0  0  0
 18 31  2  0  0  0
M  END
> <rmsd>
0.692362785

$$$$
CHEMBL2381673_5ZTY


 30 33  0  0  0  0  0  0  0  0999 V2000
  131.8753  123.5260   98.7952 C   0  0  0  0  0
  131.7192  123.9115  100.2630 C   0  0  0  0  0
  133.0549  124.3150  100.8757 C   0  0  0  0  0
  133.5191  125.6669  100.3555 C   0  0  0  0  0
  132.7053  126.7834  100.9819 C   0  0  0  0  0
  133.8761  122.3233   98.1068 C   0  0  0  0  0
  134.6429  121.1501   97.9358 C   0  0  0  0  0
  134.0687  119.9243   98.3465 C   0  0  0  0  0
  132.1171  121.0770   99.0256 C   0  0  0  0  0
  130.8772  120.8069   99.5771 C   0  0  0  0  0
  130.9369  119.4190   99.7314 C   0  0  0  0  0
  129.8663  118.5845  100.2866 C   0  0  0  0  0
  128.8366  116.8371  100.9422 C   0  0  0  0  0
  127.9805  117.9025  101.1637 C   0  0  0  0  0
  128.6456  119.0395  100.7392 C   0  0  0  0  0
  135.9964  121.2549   97.3409 C   0  0  0  0  0
  138.1495  120.1464   96.5931 C   0  0  0  0  0
  138.5605  118.7510   96.1403 C   0  0  0  0  0
  139.6890  118.8585   95.1249 C   0  0  0  0  0
  141.0811  118.7966   95.7608 C   0  0  0  0  0
  141.2400  119.5530   97.0833 C   0  0  0  0  0
  140.5191  120.8932   97.0982 C   0  0  0  0  0
  139.1091  120.7055   97.6436 C   0  0  0  0  0
  132.6277  122.2835   98.6556 N   0  0  0  0  0
  132.8198  119.9493   98.8751 N   0  0  0  0  0
  132.1175  118.9175   99.3017 N   0  0  0  0  0
  136.8039  120.0898   97.1436 N   0  0  0  0  0
  134.6844  118.8302   98.2298 O   0  0  0  0  0
  129.9514  117.2856  100.4179 O   0  0  0  0  0
  136.4415  122.3856   97.0006 O   0  0  0  0  0
  1  2  1  0  0  0
  1 24  1  0  0  0
  2  3  1  0  0  0
  3  4  1  0  0  0
  4  5  1  0  0  0
  7  8  1  0  0  0
  7 16  1  0  0  0
  8 25  1  0  0  0
  9 24  1  0  0  0
 10 11  1  0  0  0
 11 12  1  0  0  0
 12 29  1  0  0  0
 13 29  1  0  0  0
 14 15  1  0  0  0
 16 27  1  0  0  0
 17 27  1  0  0  0
 17 18  1  0  0  0
 18 19  1  0  0  0
 19 20  1  0  0  0
 20 21  1  0  0  0
 21 22  1  0  0  0
 22 23  1  0  0  0
 23 17  1  0  0  0
 24  6  1  0  0  0
 25  9  1  0  0  0
 25 26  1  0  0  0
  6  7  2  0  0  0
  8 28  2  0  0  0
  9 10  2  0  0  0
 11 26  2  0  0  0
 13 14  2  0  0  0
 15 12  2  0  0  0
 16 30  2  0  0  0
M  END
> <rmsd>
0.735660911

$$$$
CHEMBL2170528_5ZTY


 34 38  0  0  0  0  0  0  0  0999 V2000
  133.8048  127.7644  100.5044 C   0  0  0  0  0
  134.3949  126.4700   99.9778 C   0  0  0  0  0
  133.6683  125.2739  100.5738 C   0  0  0  0  0
  132.2889  125.0936   99.9513 C   0  0  0  0  0
  132.3877  124.5846   98.5160 C   0  0  0  0  0
  134.1492  123.0238   98.0360 C   0  0  0  0  0
  134.7188  121.7514   97.9569 C   0  0  0  0  0
  136.1177  121.6329   97.4733 C   0  0  0  0  0
  138.1290  120.1356   96.9245 C   0  0  0  0  0
  138.4387  118.6298   96.9773 C   0  0  0  0  0
  139.8760  118.3661   96.4984 C   0  0  0  0  0
  140.8591  119.1238   97.4053 C   0  0  0  0  0
  140.5640  120.6315   97.3550 C   0  0  0  0  0
  140.7086  121.1288   95.9072 C   0  0  0  0  0
  139.7294  120.3769   94.9904 C   0  0  0  0  0
  140.0293  118.8708   95.0546 C   0  0  0  0  0
  138.2914  120.6250   95.4722 C   0  0  0  0  0
  139.1254  120.8794   97.8351 C   0  0  0  0  0
  133.9358  120.6430   98.3372 C   0  0  0  0  0
  132.6103  120.8324   98.7813 C   0  0  0  0  0
  131.7848  119.6618   99.1709 C   0  0  0  0  0
  132.2510  118.7590  100.1380 C   0  0  0  0  0
  131.4811  117.6495  100.4983 C   0  0  0  0  0
  130.2379  117.4337   99.8948 C   0  0  0  0  0
  129.4250  116.2427  100.2669 C   0  0  0  0  0
  129.7821  115.0669   99.3774 C   0  0  0  0  0
  129.7718  118.3239   98.9221 C   0  0  0  0  0
  130.5418  119.4333   98.5618 C   0  0  0  0  0
  132.0918  122.1472   98.8414 C   0  0  0  0  0
  130.6914  122.3848   99.3291 C   0  0  0  0  0
  132.8787  123.2088   98.4773 N   0  0  0  0  0
  136.7607  120.3535   97.3840 N   0  0  0  0  0
  136.7495  122.6729   97.1384 O   0  0  0  0  0
  134.4086  119.4754   98.2654 O   0  0  0  0  0
  1  2  1  0  0  0
  2  3  1  0  0  0
  3  4  1  0  0  0
  4  5  1  0  0  0
  5 31  1  0  0  0
  7  8  1  0  0  0
  7 19  1  0  0  0
  8 32  1  0  0  0
  9 32  1  0  0  0
  9 10  1  0  0  0
 11 10  1  0  0  0
 11 12  1  0  0  0
 13 12  1  0  0  0
 13 14  1  0  0  0
 13 18  1  0  0  0
 15 14  1  0  0  0
 15 16  1  0  0  0
 15 17  1  0  0  0
 16 11  1  0  0  0
 17  9  1  0  0  0
 18  9  1  0  0  0
 19 20  1  0  0  0
 20 21  1  0  0  0
 22 23  1  0  0  0
 24 27  1  0  0  0
 25 24  1  0  0  0
 25 26  1  0  0  0
 28 21  1  0  0  0
 29 31  1  0  0  0
 30 29  1  0  0  0
 31  6  1  0  0  0
  6  7  2  0  0  0
  8 33  2  0  0  0
 19 34  2  0  0  0
 20 29  2  0  0  0
 21 22  2  0  0  0
 23 24  2  0  0  0
 27 28  2  0  0  0
M  END
> <rmsd>
0.77602613

$$$$
CHEMBL381689_5ZTY


 34 38  0  0  0  0  0  0  0  0999 V2000
  134.2964  121.7685   99.5197 N   0  0  0  0  0
  135.3741  122.1739   98.8733 N   0  0  0  0  0
  136.6391  120.6555   95.6736 N   0  0  0  0  0
  135.5050  121.3922   97.7858 C   0  0  0  0  0
  134.4806  120.4612   97.7184 C   0  0  0  0  0
  133.7278  120.7385   98.8504 C   0  0  0  0  0
  132.4991  120.0045   99.2392 C   0  0  0  0  0
  131.9260  119.0863   98.3465 C   0  0  0  0  0
  130.7727  118.3750   98.6906 C   0  0  0  0  0
  130.1785  118.5770   99.9476 C   0  0  0  0  0
  130.7479  119.4850  100.8437 C   0  0  0  0  0
  131.9003  120.1915  100.4924 C   0  0  0  0  0
  130.2006  117.4133   97.7067 C   0  0  0  0  0
  136.5887  121.5335   96.8082 C   0  0  0  0  0
  137.6274  120.6366   94.5835 C   0  0  0  0  0
  139.0984  120.6180   95.0273 C   0  0  0  0  0
  139.9136  120.0520   93.8754 C   0  0  0  0  0
  139.8891  121.1961   92.8559 C   0  0  0  0  0
  139.0538  122.2845   93.5507 C   0  0  0  0  0
  139.4897  122.0662   94.9784 C   0  0  0  0  0
  137.5722  121.8379   93.6093 C   0  0  0  0  0
  136.7042  122.9981   94.0833 C   0  0  0  0  0
  137.0489  121.3889   92.2521 C   0  0  0  0  0
  139.3945  119.9284   96.3480 C   0  0  0  0  0
  133.7999  122.4395  100.7141 C   0  0  0  0  0
  133.0352  123.6623  100.3358 C   0  0  0  0  0
  133.6958  124.8896  100.2132 C   0  0  0  0  0
  132.9855  126.0317   99.8308 C   0  0  0  0  0
  131.6151  125.9466   99.5656 C   0  0  0  0  0
  130.9555  124.7189   99.6797 C   0  0  0  0  0
  131.6656  123.5770  100.0620 C   0  0  0  0  0
  130.8604  127.1603   99.1590 C   0  0  0  0  0
  128.7284  117.7109  100.4316 Cl  0  0  0  0  0
  137.4617  122.4254   96.9762 O   0  0  0  0  0
  1  2  1  0  0  0
  4  5  1  0  0  0
  4 14  1  0  0  0
  6  7  1  0  0  0
  6  1  1  0  0  0
  8  9  1  0  0  0
 10 11  1  0  0  0
 10 33  1  0  0  0
 12  7  1  0  0  0
 13  9  1  0  0  0
 14  3  1  0  0  0
 15  3  1  0  0  0
 15 16  1  0  0  0
 16 17  1  0  0  0
 16 24  1  0  0  0
 17 18  1  0  0  0
 18 19  1  0  0  0
 19 20  1  0  0  0
 19 21  1  0  0  0
 20 16  1  0  0  0
 21 22  1  0  0  0
 21 23  1  0  0  0
 21 15  1  0  0  0
 25  1  1  0  0  0
 25 26  1  0  0  0
 27 28  1  0  0  0
 29 30  1  0  0  0
 31 26  1  0  0  0
 32 29  1  0  0  0
  4  2  2  0  0  0
  5  6  2  0  0  0
  7  8  2  0  0  0
  9 10  2  0  0  0
 11 12  2  0  0  0
 14 34  2  0  0  0
 26 27  2  0  0  0
 28 29  2  0  0  0
 30 31  2  0  0  0
M  END
> <rmsd>
0.674987495

$$$$
CHEMBL1223591_8GUR


 29 31  0  0  0  0  0  0  0  0999 V2000
  133.7895  126.1204  101.5535 C   0  0  0  0  0
  133.2799  124.7793  101.0706 C   0  0  0  0  0
  133.0322  124.8413   99.5751 C   0  0  0  0  0
  132.5340  123.4990   99.0634 C   0  0  0  0  0
  133.6446  122.5015   98.9969 C   0  0  0  0  0
  136.7353  121.4059   97.6390 C   0  0  0  0  0
  138.8201  119.9691   97.1627 C   0  0  0  0  0
  138.5583  119.8689   95.6661 C   0  0  0  0  0
  139.8086  121.0979   97.4219 C   0  0  0  0  0
  139.4147  118.6641   97.6524 C   0  0  0  0  0
  140.6289  118.1972   97.1162 C   0  0  0  0  0
  141.1875  116.9950   97.5587 C   0  0  0  0  0
  140.5403  116.2441   98.5423 C   0  0  0  0  0
  139.3344  116.6944   99.0841 C   0  0  0  0  0
  138.7751  117.8965   98.6422 C   0  0  0  0  0
  135.0330  120.6250   99.3759 C   0  0  0  0  0
  133.7130  121.2570   99.8291 C   0  0  0  0  0
  132.5474  120.3386   99.5882 C   0  0  0  0  0
  131.7634  119.9724  100.6882 C   0  0  0  0  0
  130.6670  119.1215  100.5257 C   0  0  0  0  0
  130.3465  118.6291   99.2586 C   0  0  0  0  0
  131.1223  118.9867   98.1534 C   0  0  0  0  0
  132.2207  119.8376   98.3100 C   0  0  0  0  0
  134.6570  122.6395   98.2142 N   0  0  0  0  0
  135.5262  121.5637   98.3831 N   0  0  0  0  0
  137.5622  120.2549   97.8585 N   0  0  0  0  0
  137.0675  122.2791   96.7924 O   0  0  0  0  0
  141.0820  115.0790   98.9709 F   0  0  0  0  0
  132.9570  120.1674   97.2199 F   0  0  0  0  0
  1  2  1  0  0  0
  2  3  1  0  0  0
  3  4  1  0  0  0
  4  5  1  0  0  0
  6 26  1  0  0  0
  7 26  1  0  0  0
  7  8  1  0  0  0
  7  9  1  0  0  0
  7 10  1  0  0  0
 11 12  1  0  0  0
 13 28  1  0  0  0
 13 14  1  0  0  0
 15 10  1  0  0  0
 16 25  1  0  0  0
 16 17  1  0  0  0
 17 18  1  0  0  0
 17  5  1  0  0  0
 19 20  1  0  0  0
 21 22  1  0  0  0
 23 29  1  0  0  0
 23 18  1  0  0  0
 25 24  1  0  0  0
 25  6  1  0  0  0
  5 24  2  0  0  0
  6 27  2  0  0  0
 10 11  2  0  0  0
 12 13  2  0  0  0
 14 15  2  0  0  0
 18 19  2  0  0  0
 20 21  2  0  0  0
 22 23  2  0  0  0
M  END
> <rmsd>
0.6548962

$$$$
CHEMBL261381_5ZTY


 28 31  0  0  0  0  0  0  0  0999 V2000
  135.1030  119.2768   97.6965 C   0  0  0  0  0
  134.8072  120.6930   98.0609 C   0  0  0  0  0
  135.5208  121.8301   97.7136 C   0  0  0  0  0
  136.7809  121.8988   96.9568 C   0  0  0  0  0
  138.7934  119.4735   95.0635 C   0  0  0  0  0
  138.8635  118.2579   95.9926 C   0  0  0  0  0
  140.0105  118.4296   96.9760 C   0  0  0  0  0
  139.8254  119.7243   97.7516 C   0  0  0  0  0
  139.7318  120.9006   96.7758 C   0  0  0  0  0
  132.8998  123.4337   99.4790 C   0  0  0  0  0
  132.2678  123.0676  100.6759 C   0  0  0  0  0
  131.4544  123.9785  101.3536 C   0  0  0  0  0
  131.2725  125.2696  100.8509 C   0  0  0  0  0
  131.9188  125.6524   99.6634 C   0  0  0  0  0
  132.7322  124.7362   98.9899 C   0  0  0  0  0
  133.7017  121.1701   98.7399 C   0  0  0  0  0
  131.2864  120.7112   99.0446 C   0  0  0  0  0
  130.5055  119.6719   99.5102 C   0  0  0  0  0
  131.3746  118.6715   99.9146 C   0  0  0  0  0
  132.6532  119.1379   99.6807 C   0  0  0  0  0
  137.3050  123.0207   96.7221 O   0  0  0  0  0
  137.4116  120.7050   96.4871 N   0  0  0  0  0
  138.6400  120.7339   95.8032 N   0  0  0  0  0
  134.8750  122.9218   98.1736 N   0  0  0  0  0
  133.7750  122.5217   98.7962 N   0  0  0  0  0
  132.5824  120.3778   99.1677 N   0  0  0  0  0
  130.2402  126.3811  101.7350 Cl  0  0  0  0  0
  131.7368  127.2665   98.9969 Cl  0  0  0  0  0
  1  2  1  0  0  0
  2  3  1  0  0  0
  3  4  1  0  0  0
  4 22  1  0  0  0
  5 23  1  0  0  0
  5  6  1  0  0  0
  6  7  1  0  0  0
  7  8  1  0  0  0
  8  9  1  0  0  0
  9 23  1  0  0  0
 11 12  1  0  0  0
 13 27  1  0  0  0
 13 14  1  0  0  0
 14 28  1  0  0  0
 15 10  1  0  0  0
 16 26  1  0  0  0
 18 19  1  0  0  0
 20 26  1  0  0  0
 22 23  1  0  0  0
 25 24  1  0  0  0
 25 10  1  0  0  0
 25 16  1  0  0  0
 26 17  1  0  0  0
  3 24  2  0  0  0
  4 21  2  0  0  0
 10 11  2  0  0  0
 12 13  2  0  0  0
 14 15  2  0  0  0
 16  2  2  0  0  0
 17 18  2  0  0  0
 19 20  2  0  0  0
M  END
> <rmsd>
0.631528497

$$$$
CHEMBL1215991_5ZTY


 30 33  0  0  0  0  0  0  0  0999 V2000
  135.0720  126.0205  100.7990 C   0  0  0  0  0
  133.6979  125.6583  100.2776 C   0  0  0  0  0
  133.3002  124.2942  100.8086 C   0  0  0  0  0
  131.9360  123.8894  100.2711 C   0  0  0  0  0
  132.0066  123.5213   98.7914 C   0  0  0  0  0
  134.0028  122.4249   98.0176 C   0  0  0  0  0
  134.8233  121.3173   97.7740 C   0  0  0  0  0
  136.1537  121.5461   97.1572 C   0  0  0  0  0
  138.3656  120.6378   96.3068 C   0  0  0  0  0
  139.4433  120.9979   97.3591 C   0  0  0  0  0
  140.0673  122.3349   96.9959 C   0  0  0  0  0
  138.9355  121.0890   98.7989 C   0  0  0  0  0
  140.4842  119.8676   97.1814 C   0  0  0  0  0
  139.8970  118.5572   97.7287 C   0  0  0  0  0
  138.8082  118.1977   96.7153 C   0  0  0  0  0
  138.9115  119.3376   95.7082 C   0  0  0  0  0
  138.3476  119.0018   94.3423 C   0  0  0  0  0
  140.3858  119.5990   95.7001 C   0  0  0  0  0
  134.3485  120.0377   98.1305 C   0  0  0  0  0
  133.0749  119.9052   98.7064 C   0  0  0  0  0
  132.5727  118.6428   99.0587 C   0  0  0  0  0
  131.3017  118.5186   99.6223 C   0  0  0  0  0
  130.5186  119.6532   99.8374 C   0  0  0  0  0
  131.0066  120.9151   99.4929 C   0  0  0  0  0
  132.2867  121.0602   98.9291 C   0  0  0  0  0
  132.7762  122.2947   98.5894 N   0  0  0  0  0
  137.0277  120.4515   96.8667 N   0  0  0  0  0
  136.5208  122.7222   96.8838 O   0  0  0  0  0
  135.0559  119.0108   97.9354 O   0  0  0  0  0
  130.6347  116.7978  100.0943 Br  0  0  0  0  0
  1  2  1  0  0  0
  2  3  1  0  0  0
  3  4  1  0  0  0
  4  5  1  0  0  0
  5 26  1  0  0  0
  7  8  1  0  0  0
  7 19  1  0  0  0
  8 27  1  0  0  0
  9 27  1  0  0  0
  9 10  1  0  0  0
 10 11  1  0  0  0
 10 12  1  0  0  0
 13 10  1  0  0  0
 13 14  1  0  0  0
 14 15  1  0  0  0
 15 16  1  0  0  0
 16 17  1  0  0  0
 16 18  1  0  0  0
 16  9  1  0  0  0
 18 13  1  0  0  0
 19 20  1  0  0  0
 21 22  1  0  0  0
 22 30  1  0  0  0
 23 24  1  0  0  0
 25 26  1  0  0  0
 25 20  1  0  0  0
 26  6  1  0  0  0
  6  7  2  0  0  0
  8 28  2  0  0  0
 19 29  2  0  0  0
 20 21  2  0  0  0
 22 23  2  0  0  0
 24 25  2  0  0  0
M  END
> <rmsd>
0.506010056

$$$$
CHEMBL261382_5ZTY


 30 33  0  0  0  0  0  0  0  0999 V2000
  133.1353  121.0525   98.2457 N   0  0  0  0  0
  134.3399  120.7030   97.8167 N   0  0  0  0  0
  131.8128  123.1312   98.4592 N   0  0  0  0  0
  137.0387  120.5714   96.7191 N   0  0  0  0  0
  134.9887  121.8225   97.4317 C   0  0  0  0  0
  134.1713  122.9236   97.6372 C   0  0  0  0  0
  133.0088  122.3948   98.1568 C   0  0  0  0  0
  130.5940  122.9528   97.9162 C   0  0  0  0  0
  129.6848  123.8525   98.4390 C   0  0  0  0  0
  130.3904  124.6211   99.3563 C   0  0  0  0  0
  131.6890  124.1492   99.3305 C   0  0  0  0  0
  132.7879  124.6677  100.1942 C   0  0  0  0  0
  130.2726  121.9558   96.8550 C   0  0  0  0  0
  134.4415  124.3494   97.2942 C   0  0  0  0  0
  136.3504  121.8150   96.8766 C   0  0  0  0  0
  138.3988  120.4823   96.2088 C   0  0  0  0  0
  139.3966  120.9978   97.2610 C   0  0  0  0  0
  139.9593  119.8588   98.1076 C   0  0  0  0  0
  140.7171  118.8433   97.2417 C   0  0  0  0  0
  140.1681  118.7234   95.8132 C   0  0  0  0  0
  138.6764  119.0402   95.7632 C   0  0  0  0  0
  132.1918  120.1265   98.8125 C   0  0  0  0  0
  131.4750  120.4876   99.9643 C   0  0  0  0  0
  130.5660  119.6019  100.5457 C   0  0  0  0  0
  130.3647  118.3414   99.9826 C   0  0  0  0  0
  131.0683  117.9689   98.8359 C   0  0  0  0  0
  131.9825  118.8489   98.2481 C   0  0  0  0  0
  136.9071  122.8947   96.5389 O   0  0  0  0  0
  132.7880  118.3331   96.7744 Cl  0  0  0  0  0
  129.2245  117.2304  100.7090 Cl  0  0  0  0  0
  1  2  1  0  0  0
  1 22  1  0  0  0
  3  8  1  0  0  0
  5  6  1  0  0  0
  5 15  1  0  0  0
  7  3  1  0  0  0
  7  1  1  0  0  0
  9 10  1  0  0  0
 11  3  1  0  0  0
 12 11  1  0  0  0
 13  8  1  0  0  0
 14  6  1  0  0  0
 15  4  1  0  0  0
 16  4  1  0  0  0
 16 17  1  0  0  0
 17 18  1  0  0  0
 18 19  1  0  0  0
 19 20  1  0  0  0
 20 21  1  0  0  0
 21 16  1  0  0  0
 23 24  1  0  0  0
 25 26  1  0  0  0
 25 30  1  0  0  0
 27 29  1  0  0  0
 27 22  1  0  0  0
  5  2  2  0  0  0
  6  7  2  0  0  0
  8  9  2  0  0  0
 10 11  2  0  0  0
 15 28  2  0  0  0
 22 23  2  0  0  0
 24 25  2  0  0  0
 26 27  2  0  0  0
M  END
> <rmsd>
0.512390673

$$$$
CHEMBL467029_8GUQ


 26 27  0  0  0  0  0  0  0  0999 V2000
  136.3112  124.6103   97.5666 C   0  0  0  0  0
  137.2909  121.2226   97.1673 C   0  0  0  0  0
  138.3119  120.1824   96.7873 C   0  0  0  0  0
  137.6390  118.8628   96.4512 C   0  0  0  0  0
  139.2659  119.9669   97.9457 C   0  0  0  0  0
  139.1083  120.6304   95.5745 C   0  0  0  0  0
  136.1360  120.9841   97.9086 C   0  0  0  0  0
  135.6067  122.2499   98.0555 C   0  0  0  0  0
  133.4651  123.5533   98.5040 C   0  0  0  0  0
  132.3412  123.8345   99.4687 C   0  0  0  0  0
  131.8100  125.2472   99.2805 C   0  0  0  0  0
  132.8354  123.7147  100.9016 C   0  0  0  0  0
  131.6268  121.0183   99.2751 C   0  0  0  0  0
  131.9609  120.3374   98.0983 C   0  0  0  0  0
  132.4892  119.0450   98.1616 C   0  0  0  0  0
  132.6872  118.4315   99.4017 C   0  0  0  0  0
  132.3559  119.1095  100.5788 C   0  0  0  0  0
  131.8280  120.4024  100.5155 C   0  0  0  0  0
  136.4169  123.1633   97.4874 N   0  0  0  0  0
  137.4543  122.5465   96.9538 N   0  0  0  0  0
  134.4276  122.5374   98.8147 N   0  0  0  0  0
  133.4789  124.1099   97.3716 O   0  0  0  0  0
  129.9465  122.8443  100.2419 O   0  0  0  0  0
  130.4024  122.8988   97.8436 O   0  0  0  0  0
  131.0131  122.6633   99.1976 S   0  0  0  0  0
  133.3531  116.8152   99.4810 Cl  0  0  0  0  0
  1 19  1  0  0  0
  2  7  1  0  0  0
  3  2  1  0  0  0
  3  4  1  0  0  0
  3  5  1  0  0  0
  3  6  1  0  0  0
  8 21  1  0  0  0
  8 19  1  0  0  0
 10  9  1  0  0  0
 10 11  1  0  0  0
 10 12  1  0  0  0
 10 25  1  0  0  0
 14 15  1  0  0  0
 16 26  1  0  0  0
 16 17  1  0  0  0
 18 13  1  0  0  0
 19 20  1  0  0  0
 21  9  1  0  0  0
 25 13  1  0  0  0
  2 20  2  0  0  0
  7  8  2  0  0  0
  9 22  2  0  0  0
 13 14  2  0  0  0
 15 16  2  0  0  0
 17 18  2  0  0  0
 25 23  2  0  0  0
 25 24  2  0  0  0
M  END
> <rmsd>
0.750909269

$$$$
CHEMBL4458732_5ZTY


 33 39  0  0  0  0  0  0  0  0999 V2000
  130.4835  116.9624  100.0572 C   0  0  0  0  0
  130.9153  118.3788   99.9336 C   0  0  0  0  0
  130.0740  119.4061  100.3649 C   0  0  0  0  0
  130.4817  120.7379  100.2480 C   0  0  0  0  0
  131.7350  121.0627   99.6989 C   0  0  0  0  0
  132.5679  120.0163   99.2703 C   0  0  0  0  0
  132.1629  118.6837   99.3860 C   0  0  0  0  0
  132.1516  122.4897   99.5824 C   0  0  0  0  0
  131.2795  123.5073  100.0199 C   0  0  0  0  0
  131.6564  124.8549   99.9171 C   0  0  0  0  0
  132.9138  125.1974   99.3739 C   0  0  0  0  0
  133.2754  126.5442   99.2781 C   0  0  0  0  0
  132.3887  127.5280   99.7203 C   0  0  0  0  0
  131.1519  127.1505  100.2526 C   0  0  0  0  0
  133.7453  124.1590   98.9538 C   0  0  0  0  0
  135.0093  124.2382   98.3955 C   0  0  0  0  0
  135.3198  122.8951   98.1927 C   0  0  0  0  0
  136.5701  122.3947   97.6129 C   0  0  0  0  0
  137.9592  120.3618   96.8983 C   0  0  0  0  0
  139.1960  120.7184   97.7458 C   0  0  0  0  0
  140.4479  120.0476   97.1589 C   0  0  0  0  0
  140.2518  118.5231   97.1642 C   0  0  0  0  0
  139.0235  118.1490   96.3192 C   0  0  0  0  0
  137.7778  118.8342   96.9050 C   0  0  0  0  0
  139.2366  118.6336   94.8761 C   0  0  0  0  0
  139.4267  120.1589   94.8574 C   0  0  0  0  0
  140.6503  120.5282   95.7123 C   0  0  0  0  0
  138.1756  120.8296   95.4459 C   0  0  0  0  0
  130.8136  125.8348  100.3397 N   0  0  0  0  0
  134.3159  122.0893   98.6004 N   0  0  0  0  0
  133.3603  122.8741   99.0631 N   0  0  0  0  0
  136.7631  120.9829   97.4591 N   0  0  0  0  0
  137.4662  123.2060   97.2538 O   0  0  0  0  0
  1  2  1  0  0  0
  3  4  1  0  0  0
  5  6  1  0  0  0
  5  8  1  0  0  0
  7  2  1  0  0  0
  9 10  1  0  0  0
 10 29  1  0  0  0
 11 12  1  0  0  0
 11 15  1  0  0  0
 13 14  1  0  0  0
 16 17  1  0  0  0
 17 18  1  0  0  0
 18 32  1  0  0  0
 19 32  1  0  0  0
 19 20  1  0  0  0
 20 21  1  0  0  0
 21 22  1  0  0  0
 22 23  1  0  0  0
 23 24  1  0  0  0
 23 25  1  0  0  0
 24 19  1  0  0  0
 25 26  1  0  0  0
 26 27  1  0  0  0
 26 28  1  0  0  0
 27 21  1  0  0  0
 28 19  1  0  0  0
 31 30  1  0  0  0
 31  8  1  0  0  0
 31 15  1  0  0  0
  2  3  2  0  0  0
  4  5  2  0  0  0
  6  7  2  0  0  0
  8  9  2  0  0  0
 10 11  2  0  0  0
 12 13  2  0  0  0
 14 29  2  0  0  0
 15 16  2  0  0  0
 17 30  2  0  0  0
 18 33  2  0  0  0
M  END
> <rmsd>
0.566781044

$$$$
CHEMBL3975486_6KPF


 31 34  0  0  0  0  0  0  0  0999 V2000
  130.8755  118.4322   97.0356 C   0  0  0  0  0
  131.5192  119.1042   98.1949 C   0  0  0  0  0
  132.6266  120.4091   99.3855 C   0  0  0  0  0
  133.4350  121.5889   99.8570 C   0  0  0  0  0
  134.2116  121.2256  101.1202 C   0  0  0  0  0
  132.4618  122.7271  100.1679 C   0  0  0  0  0
  133.1672  124.0131  100.5780 C   0  0  0  0  0
  132.1339  125.1037  100.7655 C   0  0  0  0  0
  132.9622  125.0577   99.5001 C   0  0  0  0  0
  135.4180  121.2134   98.2613 C   0  0  0  0  0
  136.2789  121.7660   97.2055 C   0  0  0  0  0
  136.8475  123.5813   95.7829 C   0  0  0  0  0
  137.9015  122.8515   95.2166 C   0  0  0  0  0
  138.1182  121.5274   95.6405 C   0  0  0  0  0
  137.3044  120.9952   96.6495 C   0  0  0  0  0
  139.4366  119.3932   95.2957 C   0  0  0  0  0
  139.7118  119.1052   96.7655 C   0  0  0  0  0
  138.4095  118.4452   94.6726 C   0  0  0  0  0
  138.7199  123.4547   94.1090 C   0  0  0  0  0
  139.2368  124.8312   94.4991 C   0  0  0  0  0
  140.1599  123.6377   94.5608 C   0  0  0  0  0
  132.2807  120.2087   98.0946 N   0  0  0  0  0
  132.0797  119.4926  100.2119 N   0  0  0  0  0
  134.3651  122.0180   98.8094 N   0  0  0  0  0
  136.0731  123.0329   96.7553 N   0  0  0  0  0
  131.4094  118.6986   99.4343 O   0  0  0  0  0
  135.6034  120.0374   98.6789 O   0  0  0  0  0
  139.1474  120.7742   95.0487 O   0  0  0  0  0
  137.2224  118.4564   95.3815 F   0  0  0  0  0
  138.1608  118.8260   93.3668 F   0  0  0  0  0
  138.9173  117.1592   94.6707 F   0  0  0  0  0
  1  2  1  0  0  0
  2 26  1  0  0  0
  3 22  1  0  0  0
  4  3  1  0  0  0
  4  5  1  0  0  0
  4  6  1  0  0  0
  4 24  1  0  0  0
  6  7  1  0  0  0
  7  8  1  0  0  0
  8  9  1  0  0  0
  9  7  1  0  0  0
 10 11  1  0  0  0
 12 25  1  0  0  0
 13 14  1  0  0  0
 14 28  1  0  0  0
 15 11  1  0  0  0
 16 28  1  0  0  0
 16 17  1  0  0  0
 16 18  1  0  0  0
 18 29  1  0  0  0
 18 30  1  0  0  0
 18 31  1  0  0  0
 19 13  1  0  0  0
 19 20  1  0  0  0
 20 21  1  0  0  0
 21 19  1  0  0  0
 23 26  1  0  0  0
 24 10  1  0  0  0
  2 22  2  0  0  0
  3 23  2  0  0  0
 10 27  2  0  0  0
 11 25  2  0  0  0
 12 13  2  0  0  0
 14 15  2  0  0  0
M  END
> <rmsd>
0.755209744

$$$$
CHEMBL3966497_5ZTY


 29 31  0  0  0  0  0  0  0  0999 V2000
  138.8280  120.1773   97.2453 C   0  0  0  0  0
  137.6915  121.1355   97.2317 C   0  0  0  0  0
  136.0068  122.2390   97.7524 C   0  0  0  0  0
  134.8365  122.8032   98.4899 C   0  0  0  0  0
  135.3291  123.6171   99.6846 C   0  0  0  0  0
  134.3191  124.6576  100.1718 C   0  0  0  0  0
  133.9505  125.6407   99.0754 C   0  0  0  0  0
  133.0728  124.0164  100.7543 C   0  0  0  0  0
  133.1358  120.9725   98.0549 C   0  0  0  0  0
  132.3089  119.8783   98.5846 C   0  0  0  0  0
  131.5933  118.5870  100.4541 C   0  0  0  0  0
  130.7723  117.8108   99.6259 C   0  0  0  0  0
  130.7219  118.0879   98.2598 C   0  0  0  0  0
  131.4910  119.1257   97.7326 C   0  0  0  0  0
  131.7035  118.3009  101.9203 C   0  0  0  0  0
  132.6630  117.1865  102.1987 C   0  0  0  0  0
  132.3661  115.8654  101.8314 C   0  0  0  0  0
  133.2797  114.8411  102.0965 C   0  0  0  0  0
  134.4921  115.1323  102.7285 C   0  0  0  0  0
  134.7914  116.4476  103.0955 C   0  0  0  0  0
  133.8781  117.4727  102.8308 C   0  0  0  0  0
  136.8183  121.2791   98.2456 N   0  0  0  0  0
  136.3717  122.6496   96.5231 N   0  0  0  0  0
  133.9634  121.7281   98.9439 N   0  0  0  0  0
  132.3409  119.5881   99.9151 N   0  0  0  0  0
  137.4195  121.9399   96.2353 O   0  0  0  0  0
  133.1140  121.2466   96.8237 O   0  0  0  0  0
  130.4517  118.0300  102.4790 O   0  0  0  0  0
  135.3769  114.1396  102.9858 F   0  0  0  0  0
  1  2  1  0  0  0
  2 26  1  0  0  0
  3 22  1  0  0  0
  4  3  1  0  0  0
  4  5  1  0  0  0
  4 24  1  0  0  0
  5  6  1  0  0  0
  6  7  1  0  0  0
  6  8  1  0  0  0
  9 10  1  0  0  0
 11 25  1  0  0  0
 12 13  1  0  0  0
 14 10  1  0  0  0
 15 11  1  0  0  0
 15 16  1  0  0  0
 15 28  1  0  0  0
 17 18  1  0  0  0
 19 20  1  0  0  0
 19 29  1  0  0  0
 21 16  1  0  0  0
 23 26  1  0  0  0
 24  9  1  0  0  0
  2 22  2  0  0  0
  3 23  2  0  0  0
  9 27  2  0  0  0
 10 25  2  0  0  0
 11 12  2  0  0  0
 13 14  2  0  0  0
 16 17  2  0  0  0
 18 19  2  0  0  0
 20 21  2  0  0  0
M  END
> <rmsd>
0.899876177

$$$$
CHEMBL2152807_5ZTY


 27 30  0  0  0  0  0  0  0  0999 V2000
  132.9849  124.7513   99.7134 C   0  0  0  0  0
  132.4316  123.5419   99.7667 C   0  0  0  0  0
  134.2421  122.4848   98.5475 C   0  0  0  0  0
  134.8892  121.3815   97.9795 C   0  0  0  0  0
  136.1878  121.6001   97.2938 C   0  0  0  0  0
  138.2205  120.6573   96.0911 C   0  0  0  0  0
  138.5834  119.4841   95.1500 C   0  0  0  0  0
  138.8438  120.0275   93.7546 C   0  0  0  0  0
  137.5139  118.3961   95.0389 C   0  0  0  0  0
  139.8996  118.9472   95.7587 C   0  0  0  0  0
  139.5872  118.2439   97.0888 C   0  0  0  0  0
  139.2113  119.3929   98.0265 C   0  0  0  0  0
  139.3582  120.6120   97.1229 C   0  0  0  0  0
  139.5784  121.9093   97.8758 C   0  0  0  0  0
  140.5280  120.2166   96.2759 C   0  0  0  0  0
  134.2776  120.1163   98.0871 C   0  0  0  0  0
  133.0466  119.9949   98.7497 C   0  0  0  0  0
  132.4159  118.7461   98.8680 C   0  0  0  0  0
  131.1903  118.6297   99.5258 C   0  0  0  0  0
  130.5817  119.7593  100.0728 C   0  0  0  0  0
  131.1980  121.0073   99.9637 C   0  0  0  0  0
  132.4351  121.1460   99.3055 C   0  0  0  0  0
  133.0472  122.3691   99.1968 N   0  0  0  0  0
  136.9070  120.5068   96.7174 N   0  0  0  0  0
  136.6586  122.7678   97.2087 O   0  0  0  0  0
  134.8256  119.0919   97.5938 O   0  0  0  0  0
  129.3892  119.6467  100.7060 F   0  0  0  0  0
  2 23  1  0  0  0
  4  5  1  0  0  0
  4 16  1  0  0  0
  5 24  1  0  0  0
  6 24  1  0  0  0
  6  7  1  0  0  0
  7  8  1  0  0  0
  7  9  1  0  0  0
 10  7  1  0  0  0
 10 11  1  0  0  0
 11 12  1  0  0  0
 12 13  1  0  0  0
 13 14  1  0  0  0
 13 15  1  0  0  0
 13  6  1  0  0  0
 15 10  1  0  0  0
 16 17  1  0  0  0
 18 19  1  0  0  0
 20 27  1  0  0  0
 20 21  1  0  0  0
 22 23  1  0  0  0
 22 17  1  0  0  0
 23  3  1  0  0  0
  1  2  2  0  0  0
  3  4  2  0  0  0
  5 25  2  0  0  0
 16 26  2  0  0  0
 17 18  2  0  0  0
 19 20  2  0  0  0
 21 22  2  0  0  0
M  END
> <rmsd>
0.452165067

$$$$
CHEMBL410912_5ZTY


 28 31  0  0  0  0  0  0  0  0999 V2000
  134.6327  119.0409   97.7815 C   0  0  0  0  0
  134.4129  120.3305   98.4988 C   0  0  0  0  0
  135.1783  121.4851   98.4297 C   0  0  0  0  0
  136.4265  121.6882   97.6767 C   0  0  0  0  0
  138.2400  120.7566   96.1714 C   0  0  0  0  0
  138.3383  119.6264   95.1378 C   0  0  0  0  0
  139.7919  119.3175   94.7920 C   0  0  0  0  0
  140.5696  118.8383   96.0257 C   0  0  0  0  0
  140.0375  119.4097   97.3471 C   0  0  0  0  0
  139.4299  120.7957   97.1466 C   0  0  0  0  0
  132.6781  122.6939  100.6319 C   0  0  0  0  0
  132.2096  122.0804  101.8041 C   0  0  0  0  0
  131.4524  122.8035  102.7290 C   0  0  0  0  0
  131.1651  124.1499  102.4951 C   0  0  0  0  0
  131.6397  124.7748  101.3394 C   0  0  0  0  0
  132.3993  124.0552  100.4119 C   0  0  0  0  0
  133.3467  120.6679   99.3124 C   0  0  0  0  0
  130.9328  120.2593   99.7028 C   0  0  0  0  0
  130.1113  119.1688   99.9079 C   0  0  0  0  0
  130.9268  118.0492   99.8971 C   0  0  0  0  0
  132.2153  118.4990   99.6860 C   0  0  0  0  0
  136.9961  122.8123   97.7127 O   0  0  0  0  0
  136.9913  120.6232   96.9071 N   0  0  0  0  0
  134.5992  122.4511   99.1727 N   0  0  0  0  0
  133.4906  121.9562   99.7045 N   0  0  0  0  0
  132.2037  119.8387   99.5820 N   0  0  0  0  0
  130.4298  124.8510  103.3908 F   0  0  0  0  0
  132.8430  124.6805   99.2935 F   0  0  0  0  0
  1  2  1  0  0  0
  2  3  1  0  0  0
  3  4  1  0  0  0
  4 23  1  0  0  0
  5 23  1  0  0  0
  5  6  1  0  0  0
  6  7  1  0  0  0
  7  8  1  0  0  0
  8  9  1  0  0  0
  9 10  1  0  0  0
 10  5  1  0  0  0
 12 13  1  0  0  0
 14 27  1  0  0  0
 14 15  1  0  0  0
 16 28  1  0  0  0
 16 11  1  0  0  0
 17 26  1  0  0  0
 19 20  1  0  0  0
 21 26  1  0  0  0
 25 24  1  0  0  0
 25 11  1  0  0  0
 25 17  1  0  0  0
 26 18  1  0  0  0
  3 24  2  0  0  0
  4 22  2  0  0  0
 11 12  2  0  0  0
 13 14  2  0  0  0
 15 16  2  0  0  0
 17  2  2  0  0  0
 18 19  2  0  0  0
 20 21  2  0  0  0
M  END
> <rmsd>
0.553248465

$$$$
CHEMBL2316282_5ZTY


 25 27  0  0  0  0  0  0  0  0999 V2000
  133.7740  125.8894  102.2452 C   0  0  0  0  0
  132.5408  125.2584  101.6345 C   0  0  0  0  0
  132.8813  124.7102  100.2652 C   0  0  0  0  0
  131.6488  124.0700   99.6566 C   0  0  0  0  0
  131.9765  123.4807   98.2914 C   0  0  0  0  0
  134.1254  122.3887   98.0045 C   0  0  0  0  0
  135.0006  121.2856   98.0894 C   0  0  0  0  0
  136.3995  121.4576   97.6249 C   0  0  0  0  0
  138.7082  120.4884   97.2218 C   0  0  0  0  0
  138.7275  120.5045   95.6843 C   0  0  0  0  0
  140.0599  119.9947   95.1436 C   0  0  0  0  0
  140.3121  118.5394   95.5617 C   0  0  0  0  0
  139.6474  118.1585   96.8915 C   0  0  0  0  0
  139.5549  119.3600   97.8291 C   0  0  0  0  0
  134.5058  120.0630   98.6112 C   0  0  0  0  0
  133.1636  119.9976   99.0194 C   0  0  0  0  0
  132.4668  118.8916   99.5481 C   0  0  0  0  0
  133.0646  117.5468   99.7825 C   0  0  0  0  0
  131.1268  119.1516   99.8441 C   0  0  0  0  0
  132.3662  121.1215   98.9081 C   0  0  0  0  0
  132.8303  122.3044   98.4189 N   0  0  0  0  0
  137.3370  120.3785   97.6972 N   0  0  0  0  0
  136.7703  122.5723   97.1638 O   0  0  0  0  0
  135.2487  119.0490   98.7065 O   0  0  0  0  0
  130.8153  120.7652   99.4449 S   0  0  0  0  0
  1  2  1  0  0  0
  2  3  1  0  0  0
  3  4  1  0  0  0
  4  5  1  0  0  0
  5 21  1  0  0  0
  7  8  1  0  0  0
  7 15  1  0  0  0
  8 22  1  0  0  0
  9 22  1  0  0  0
  9 10  1  0  0  0
 10 11  1  0  0  0
 11 12  1  0  0  0
 12 13  1  0  0  0
 13 14  1  0  0  0
 14  9  1  0  0  0
 15 16  1  0  0  0
 16 17  1  0  0  0
 18 17  1  0  0  0
 19 25  1  0  0  0
 20 25  1  0  0  0
 20 21  1  0  0  0
 21  6  1  0  0  0
  6  7  2  0  0  0
  8 23  2  0  0  0
 15 24  2  0  0  0
 17 19  2  0  0  0
 20 16  2  0  0  0
M  END
> <rmsd>
0.659736574

$$$$
CHEMBL220180_6PT0


 29 32  0  0  0  0  0  0  0  0999 V2000
  134.3046  127.1616  100.6994 C   0  0  0  0  0
  133.5176  125.9037  100.9998 C   0  0  0  0  0
  133.2967  125.1296   99.7180 C   0  0  0  0  0
  132.5161  123.8653  100.0193 C   0  0  0  0  0
  132.3053  123.0537   98.7499 C   0  0  0  0  0
  134.6403  122.8265   97.9328 C   0  0  0  0  0
  135.5209  121.7988   97.6548 C   0  0  0  0  0
  136.8756  121.9726   97.0911 C   0  0  0  0  0
  137.8237  120.8355   96.9462 C   0  0  0  0  0
  137.8310  119.8312   97.9273 C   0  0  0  0  0
  138.7191  118.7574   97.8562 C   0  0  0  0  0
  139.6243  118.6672   96.8003 C   0  0  0  0  0
  139.6441  119.6495   95.8101 C   0  0  0  0  0
  140.5522  119.5418   94.7530 C   0  0  0  0  0
  140.5762  120.5100   93.7469 C   0  0  0  0  0
  139.6906  121.5886   93.7924 C   0  0  0  0  0
  138.7802  121.7042   94.8459 C   0  0  0  0  0
  138.7451  120.7455   95.8723 C   0  0  0  0  0
  134.8985  120.5964   97.9489 C   0  0  0  0  0
  133.6416  120.9465   98.4128 C   0  0  0  0  0
  132.6152  119.9808   98.8855 C   0  0  0  0  0
  131.7943  120.3418   99.9651 C   0  0  0  0  0
  130.8345  119.4597  100.4649 C   0  0  0  0  0
  130.6828  118.1979   99.8913 C   0  0  0  0  0
  131.4892  117.8199   98.8169 C   0  0  0  0  0
  132.4547  118.6960   98.3097 C   0  0  0  0  0
  133.2530  118.2394   97.1350 C   0  0  0  0  0
  133.5035  122.2920   98.4128 N   0  0  0  0  0
  137.2348  123.1279   96.7348 O   0  0  0  0  0
  1  2  1  0  0  0
  2  3  1  0  0  0
  3  4  1  0  0  0
  4  5  1  0  0  0
  5 28  1  0  0  0
  7  8  1  0  0  0
  7 19  1  0  0  0
  8  9  1  0  0  0
 10 11  1  0  0  0
 12 13  1  0  0  0
 14 15  1  0  0  0
 16 17  1  0  0  0
 18  9  1  0  0  0
 18 13  1  0  0  0
 20 21  1  0  0  0
 20 28  1  0  0  0
 22 23  1  0  0  0
 24 25  1  0  0  0
 26 21  1  0  0  0
 27 26  1  0  0  0
 28  6  1  0  0  0
  6  7  2  0  0  0
  8 29  2  0  0  0
  9 10  2  0  0  0
 11 12  2  0  0  0
 13 14  2  0  0  0
 15 16  2  0  0  0
 17 18  2  0  0  0
 19 20  2  0  0  0
 21 22  2  0  0  0
 23 24  2  0  0  0
 25 26  2  0  0  0
M  END
> <rmsd>
0.421941578

$$$$
CHEMBL118028_6KPF


 29 33  0  0  0  0  0  0  0  0999 V2000
  139.8604  120.8833   93.7994 C   0  0  0  0  0
  139.5549  120.3359   95.1498 C   0  0  0  0  0
  140.2533  119.2765   95.5934 C   0  0  0  0  0
  140.0071  118.6469   96.9404 C   0  0  0  0  0
  138.5888  118.9462   97.4338 C   0  0  0  0  0
  138.3507  120.4642   97.3735 C   0  0  0  0  0
  138.3567  120.8748   95.8962 C   0  0  0  0  0
  137.0789  120.8919   98.0829 C   0  0  0  0  0
  136.4109  119.9843   98.9319 C   0  0  0  0  0
  135.2197  120.3544   99.5581 C   0  0  0  0  0
  134.6803  121.6384   99.3860 C   0  0  0  0  0
  135.3994  122.5673   98.6191 C   0  0  0  0  0
  136.5870  122.2090   97.9778 C   0  0  0  0  0
  133.4065  122.0297  100.1235 C   0  0  0  0  0
  134.3167  124.0029  101.5744 C   0  0  0  0  0
  133.1634  124.6417  100.8497 C   0  0  0  0  0
  132.3566  120.9383   99.9577 C   0  0  0  0  0
  131.9280  120.5786   98.6668 C   0  0  0  0  0
  130.9677  119.5799   98.4849 C   0  0  0  0  0
  130.4214  118.9269   99.5915 C   0  0  0  0  0
  130.8347  119.2724  100.8796 C   0  0  0  0  0
  131.7952  120.2711  101.0611 C   0  0  0  0  0
  138.2690  118.3515   98.8132 C   0  0  0  0  0
  138.3548  116.8373   98.7573 C   0  0  0  0  0
  139.2372  118.8554   99.8766 C   0  0  0  0  0
  137.2696  123.1732   97.2452 O   0  0  0  0  0
  136.9380  118.7117   99.1783 O   0  0  0  0  0
  133.8498  122.2901  101.8872 S   0  0  0  0  0
  132.6825  123.5889   99.4491 S   0  0  0  0  0
  1  2  1  0  0  0
  4  3  1  0  0  0
  5  4  1  0  0  0
  5  6  1  0  0  0
  6  7  1  0  0  0
  6  8  1  0  0  0
  7  2  1  0  0  0
  9 10  1  0  0  0
  9 27  1  0  0  0
 11 12  1  0  0  0
 13 26  1  0  0  0
 13  8  1  0  0  0
 14 11  1  0  0  0
 14 28  1  0  0  0
 14 17  1  0  0  0
 14 29  1  0  0  0
 15 28  1  0  0  0
 15 16  1  0  0  0
 16 29  1  0  0  0
 18 19  1  0  0  0
 20 21  1  0  0  0
 22 17  1  0  0  0
 23 27  1  0  0  0
 23 24  1  0  0  0
 23 25  1  0  0  0
 23  5  1  0  0  0
  2  3  2  0  0  0
  8  9  2  0  0  0
 10 11  2  0  0  0
 12 13  2  0  0  0
 17 18  2  0  0  0
 19 20  2  0  0  0
 21 22  2  0  0  0
M  END
> <rmsd>
0.617224276

$$$$
CHEMBL220304_6PT0


 29 32  0  0  0  0  0  0  0  0999 V2000
  132.1130  127.1739  100.3923 C   0  0  0  0  0
  133.4062  126.4602  100.0458 C   0  0  0  0  0
  133.2142  124.9555  100.1072 C   0  0  0  0  0
  132.4461  124.4684   98.8899 C   0  0  0  0  0
  132.2735  122.9547   98.9501 C   0  0  0  0  0
  134.6326  122.7637   98.1225 C   0  0  0  0  0
  135.5385  121.7527   97.8745 C   0  0  0  0  0
  134.9453  120.5467   98.2022 C   0  0  0  0  0
  133.6710  120.8760   98.6367 C   0  0  0  0  0
  132.6755  119.8692   99.0890 C   0  0  0  0  0
  131.4078  120.2448   99.5589 C   0  0  0  0  0
  130.4879  119.2811   99.9814 C   0  0  0  0  0
  130.8264  117.9269   99.9391 C   0  0  0  0  0
  132.0846  117.5377   99.4747 C   0  0  0  0  0
  133.0027  118.5035   99.0527 C   0  0  0  0  0
  136.9172  121.9512   97.3814 C   0  0  0  0  0
  137.7897  120.8111   96.9918 C   0  0  0  0  0
  139.1936  120.8248   97.1916 C   0  0  0  0  0
  139.8400  121.9004   97.8230 C   0  0  0  0  0
  141.2236  121.8864   98.0178 C   0  0  0  0  0
  141.9805  120.7946   97.5879 C   0  0  0  0  0
  141.3562  119.7118   96.9653 C   0  0  0  0  0
  139.9725  119.7173   96.7673 C   0  0  0  0  0
  139.3626  118.6222   96.1553 C   0  0  0  0  0
  137.9831  118.6105   95.9582 C   0  0  0  0  0
  137.2076  119.6946   96.3710 C   0  0  0  0  0
  133.4904  122.2192   98.5892 N   0  0  0  0  0
  129.2684  119.6609  100.4318 F   0  0  0  0  0
  137.3551  123.1294   97.2797 O   0  0  0  0  0
  1  2  1  0  0  0
  2  3  1  0  0  0
  3  4  1  0  0  0
  4  5  1  0  0  0
  5 27  1  0  0  0
  7  8  1  0  0  0
  7 16  1  0  0  0
  9 10  1  0  0  0
  9 27  1  0  0  0
 11 12  1  0  0  0
 12 28  1  0  0  0
 13 14  1  0  0  0
 15 10  1  0  0  0
 16 17  1  0  0  0
 17 18  1  0  0  0
 19 20  1  0  0  0
 21 22  1  0  0  0
 23 24  1  0  0  0
 23 18  1  0  0  0
 25 26  1  0  0  0
 27  6  1  0  0  0
  6  7  2  0  0  0
  8  9  2  0  0  0
 10 11  2  0  0  0
 12 13  2  0  0  0
 14 15  2  0  0  0
 16 29  2  0  0  0
 18 19  2  0  0  0
 20 21  2  0  0  0
 22 23  2  0  0  0
 24 25  2  0  0  0
 26 17  2  0  0  0
M  END
> <rmsd>
0.488964081

$$$$
CHEMBL3639461_8GUR


 32 34  0  0  0  0  0  0  0  0999 V2000
  131.7528  124.3189  100.7111 C   0  0  0  0  0
  132.6540  124.1672   99.5003 C   0  0  0  0  0
  134.1007  123.9858   99.9330 C   0  0  0  0  0
  134.3361  122.5959  100.5144 C   0  0  0  0  0
  135.1194  121.3988   98.4614 C   0  0  0  0  0
  137.1555  122.0330   97.2792 C   0  0  0  0  0
  137.8393  120.7381   97.0466 C   0  0  0  0  0
  137.9230  119.8160   98.1004 C   0  0  0  0  0
  138.5621  118.5823   97.9344 C   0  0  0  0  0
  139.1643  118.2845   96.7076 C   0  0  0  0  0
  139.0962  119.1938   95.6516 C   0  0  0  0  0
  138.4349  120.4232   95.8062 C   0  0  0  0  0
  139.0034  121.1219   93.4886 C   0  0  0  0  0
  140.2897  121.9346   93.4024 C   0  0  0  0  0
  140.8728  121.7826   92.0137 C   0  0  0  0  0
  141.3041  121.4412   94.4164 C   0  0  0  0  0
  138.6744  117.6293   99.0883 C   0  0  0  0  0
  133.3268  119.7566   98.3724 C   0  0  0  0  0
  131.3717  118.6372   99.0317 C   0  0  0  0  0
  131.2316  119.5123  100.1266 C   0  0  0  0  0
  132.1751  120.5308  100.3323 C   0  0  0  0  0
  133.2360  120.6416   99.4308 C   0  0  0  0  0
  134.2295  121.5703   99.4776 N   0  0  0  0  0
  136.1481  122.1798   98.2902 N   0  0  0  0  0
  132.4189  118.7709   98.1671 N   0  0  0  0  0
  137.5204  123.0561   96.6415 O   0  0  0  0  0
  138.3491  121.3260   94.7383 O   0  0  0  0  0
  140.0154  123.2821   93.6373 O   0  0  0  0  0
  139.8034  117.9348   99.8251 F   0  0  0  0  0
  137.5607  117.7290   99.9045 F   0  0  0  0  0
  138.7711  116.3258   98.6322 F   0  0  0  0  0
  134.6803  120.1033   97.4434 S   0  0  0  0  0
  1  2  1  0  0  0
  2  3  1  0  0  0
  3  4  1  0  0  0
  4 23  1  0  0  0
  5 32  1  0  0  0
  6 24  1  0  0  0
  6  7  1  0  0  0
  8  9  1  0  0  0
 10 11  1  0  0  0
 12 27  1  0  0  0
 12  7  1  0  0  0
 13 27  1  0  0  0
 13 14  1  0  0  0
 14 15  1  0  0  0
 14 16  1  0  0  0
 14 28  1  0  0  0
 17  9  1  0  0  0
 17 29  1  0  0  0
 17 30  1  0  0  0
 17 31  1  0  0  0
 18 32  1  0  0  0
 19 25  1  0  0  0
 20 21  1  0  0  0
 22 23  1  0  0  0
 22 18  1  0  0  0
 23  5  1  0  0  0
  5 24  2  0  0  0
  6 26  2  0  0  0
  7  8  2  0  0  0
  9 10  2  0  0  0
 11 12  2  0  0  0
 18 25  2  0  0  0
 19 20  2  0  0  0
 21 22  2  0  0  0
M  END
> <rmsd>
0.813986182

$$$$
CHEMBL1223647_5ZTY


 26 28  0  0  0  0  0  0  0  0999 V2000
  133.2133  127.3709  101.6028 C   0  0  0  0  0
  132.3031  126.1755  101.4172 C   0  0  0  0  0
  132.6707  125.4564  100.1369 C   0  0  0  0  0
  131.7629  124.2547   99.9537 C   0  0  0  0  0
  132.1286  123.5002   98.6856 C   0  0  0  0  0
  133.3954  122.7291   98.8661 C   0  0  0  0  0
  136.7673  122.1042   97.9542 C   0  0  0  0  0
  139.0901  121.1002   97.8156 C   0  0  0  0  0
  140.0348  120.3974   98.7952 C   0  0  0  0  0
  141.3383  119.9456   98.1528 C   0  0  0  0  0
  141.1895  118.5144   97.6525 C   0  0  0  0  0
  140.4439  118.4404   96.3234 C   0  0  0  0  0
  139.0116  118.9472   96.4354 C   0  0  0  0  0
  139.0077  120.4701   96.4171 C   0  0  0  0  0
  135.0493  121.2191   99.6249 C   0  0  0  0  0
  133.5903  121.6233   99.8621 C   0  0  0  0  0
  132.6633  120.4717   99.6084 C   0  0  0  0  0
  131.8208  120.0414  100.6394 C   0  0  0  0  0
  130.9459  118.9704  100.4334 C   0  0  0  0  0
  130.9104  118.3241   99.1945 C   0  0  0  0  0
  131.7500  118.7478   98.1604 C   0  0  0  0  0
  132.6250  119.8184   98.3652 C   0  0  0  0  0
  134.4468  122.9655   98.1641 N   0  0  0  0  0
  135.4713  122.1063   98.5551 N   0  0  0  0  0
  137.7631  121.1832   98.4084 N   0  0  0  0  0
  137.0298  122.9167   97.0266 O   0  0  0  0  0
  1  2  1  0  0  0
  2  3  1  0  0  0
  3  4  1  0  0  0
  4  5  1  0  0  0
  5  6  1  0  0  0
  7 25  1  0  0  0
  8 25  1  0  0  0
  8  9  1  0  0  0
  9 10  1  0  0  0
 10 11  1  0  0  0
 11 12  1  0  0  0
 12 13  1  0  0  0
 13 14  1  0  0  0
 14  8  1  0  0  0
 15 24  1  0  0  0
 15 16  1  0  0  0
 16 17  1  0  0  0
 16  6  1  0  0  0
 18 19  1  0  0  0
 20 21  1  0  0  0
 22 17  1  0  0  0
 24 23  1  0  0  0
 24  7  1  0  0  0
  6 23  2  0  0  0
  7 26  2  0  0  0
 17 18  2  0  0  0
 19 20  2  0  0  0
 21 22  2  0  0  0
M  END
> <rmsd>
0.546921968

$$$$
CHEMBL467896_8GUT


 29 32  0  0  0  0  0  0  0  0999 V2000
  130.9453  117.4082  101.6909 F   0  0  0  0  0
  131.0408  118.3802  100.7523 C   0  0  0  0  0
  131.7161  118.1305   99.5537 C   0  0  0  0  0
  131.8146  119.1338   98.5850 C   0  0  0  0  0
  131.2349  120.3871   98.8119 C   0  0  0  0  0
  131.3605  121.4662   97.7869 C   0  0  0  0  0
  133.7532  121.8668   97.4229 C   0  0  0  0  0
  134.9430  122.6002   97.6484 C   0  0  0  0  0
  134.8862  123.7254   98.4762 C   0  0  0  0  0
  133.6881  124.1117   99.0603 C   0  0  0  0  0
  133.6286  125.2362   99.8832 C   0  0  0  0  0
  132.4133  125.6090  100.4583 C   0  0  0  0  0
  131.2720  124.8473  100.1985 C   0  0  0  0  0
  132.5223  123.3612   98.8186 C   0  0  0  0  0
  136.2511  122.2317   97.0493 C   0  0  0  0  0
  137.6445  120.6673   95.6218 C   0  0  0  0  0
  138.5203  120.0376   96.7020 C   0  0  0  0  0
  139.9757  120.0713   96.2588 C   0  0  0  0  0
  140.4081  118.8063   95.5111 C   0  0  0  0  0
  139.3778  118.2278   94.5362 C   0  0  0  0  0
  138.6405  119.2949   93.7402 C   0  0  0  0  0
  137.3695  119.6939   94.4796 C   0  0  0  0  0
  130.5641  120.6367  100.0143 C   0  0  0  0  0
  130.4655  119.6335  100.9831 C   0  0  0  0  0
  132.5753  122.2543   98.0133 N   0  0  0  0  0
  131.3484  123.7531   99.3937 N   0  0  0  0  0
  136.3771  121.0853   96.2012 N   0  0  0  0  0
  133.7695  120.8513   96.6730 O   0  0  0  0  0
  137.2677  122.9402   97.2889 O   0  0  0  0  0
  2  1  1  0  0  0
  3  4  1  0  0  0
  5 23  1  0  0  0
  6  5  1  0  0  0
  6 25  1  0  0  0
  7  8  1  0  0  0
  8 15  1  0  0  0
  9 10  1  0  0  0
 11 12  1  0  0  0
 13 26  1  0  0  0
 14 25  1  0  0  0
 14 10  1  0  0  0
 15 27  1  0  0  0
 16 27  1  0  0  0
 16 17  1  0  0  0
 17 18  1  0  0  0
 18 19  1  0  0  0
 19 20  1  0  0  0
 20 21  1  0  0  0
 21 22  1  0  0  0
 22 16  1  0  0  0
 24  2  1  0  0  0
 25  7  1  0  0  0
  2  3  2  0  0  0
  4  5  2  0  0  0
  7 28  2  0  0  0
  8  9  2  0  0  0
 10 11  2  0  0  0
 12 13  2  0  0  0
 14 26  2  0  0  0
 15 29  2  0  0  0
 23 24  2  0  0  0
M  END
> <rmsd>
0.521447957

$$$$
CHEMBL1223592_5ZTY


 26 28  0  0  0  0  0  0  0  0999 V2000
  133.5790  126.9710   99.6097 C   0  0  0  0  0
  133.7041  125.4912   99.9028 C   0  0  0  0  0
  132.3675  124.8141   99.6656 C   0  0  0  0  0
  132.4702  123.3212   99.9354 C   0  0  0  0  0
  133.0632  122.5983   98.7689 C   0  0  0  0  0
  135.8104  121.9087   96.6311 C   0  0  0  0  0
  137.2558  120.8780   94.7763 C   0  0  0  0  0
  137.0312  119.8787   93.6558 C   0  0  0  0  0
  137.6362  122.2058   94.1271 C   0  0  0  0  0
  138.3351  120.3451   95.7016 C   0  0  0  0  0
  138.1012  119.1685   96.4348 C   0  0  0  0  0
  139.0773  118.6596   97.2958 C   0  0  0  0  0
  140.2999  119.3202   97.4344 C   0  0  0  0  0
  140.5474  120.4895   96.7118 C   0  0  0  0  0
  139.5717  120.9989   95.8507 C   0  0  0  0  0
  133.3735  121.1899   96.8969 C   0  0  0  0  0
  132.3224  121.5960   97.9354 C   0  0  0  0  0
  131.8942  120.4107   98.7469 C   0  0  0  0  0
  132.7807  119.6238   99.5052 C   0  0  0  0  0
  132.1685  118.5736  100.1763 C   0  0  0  0  0
  130.5666  120.0078   98.7937 C   0  0  0  0  0
  134.2802  122.7707   98.3870 N   0  0  0  0  0
  134.5396  121.9656   97.2806 N   0  0  0  0  0
  135.9983  121.0404   95.5053 N   0  0  0  0  0
  136.7615  122.6201   97.0538 O   0  0  0  0  0
  130.5350  118.6631   99.7970 S   0  0  0  0  0
  1  2  1  0  0  0
  2  3  1  0  0  0
  3  4  1  0  0  0
  4  5  1  0  0  0
  6 24  1  0  0  0
  7 24  1  0  0  0
  7  8  1  0  0  0
  7  9  1  0  0  0
  7 10  1  0  0  0
 11 12  1  0  0  0
 13 14  1  0  0  0
 15 10  1  0  0  0
 16 23  1  0  0  0
 16 17  1  0  0  0
 17 18  1  0  0  0
 17  5  1  0  0  0
 18 19  1  0  0  0
 20 26  1  0  0  0
 21 26  1  0  0  0
 23 22  1  0  0  0
 23  6  1  0  0  0
  5 22  2  0  0  0
  6 25  2  0  0  0
 10 11  2  0  0  0
 12 13  2  0  0  0
 14 15  2  0  0  0
 19 20  2  0  0  0
 21 18  2  0  0  0
M  END
> <rmsd>
0.365772247

$$$$
CHEMBL218202_6PT0


 30 33  0  0  0  0  0  0  0  0999 V2000
  139.4856  118.6344   96.3722 C   0  0  0  0  0
  139.9045  119.6634   97.2157 C   0  0  0  0  0
  139.0636  120.7486   97.4692 C   0  0  0  0  0
  137.7887  120.8216   96.8915 C   0  0  0  0  0
  137.3689  119.7923   96.0144 C   0  0  0  0  0
  138.2282  118.6913   95.7693 C   0  0  0  0  0
  137.8283  117.6646   94.9090 C   0  0  0  0  0
  136.5852  117.7247   94.2750 C   0  0  0  0  0
  135.7397  118.8147   94.4930 C   0  0  0  0  0
  136.1307  119.8437   95.3532 C   0  0  0  0  0
  136.9443  121.9908   97.2211 C   0  0  0  0  0
  135.5670  121.8365   97.7248 C   0  0  0  0  0
  134.6597  122.8624   97.8999 C   0  0  0  0  0
  133.6975  121.0033   98.5256 C   0  0  0  0  0
  134.9759  120.6514   98.1273 C   0  0  0  0  0
  132.6787  120.0402   99.0217 C   0  0  0  0  0
  131.7094  120.4722   99.9392 C   0  0  0  0  0
  130.7533  119.5905  100.4449 C   0  0  0  0  0
  130.7541  118.2568  100.0408 C   0  0  0  0  0
  131.7092  117.8071   99.1289 C   0  0  0  0  0
  132.6759  118.6855   98.6100 C   0  0  0  0  0
  133.6712  116.8860   97.2226 C   0  0  0  0  0
  132.3220  123.1177   98.6730 C   0  0  0  0  0
  132.3750  123.7042  100.0797 C   0  0  0  0  0
  133.3818  124.8399  100.1743 C   0  0  0  0  0
  132.8557  126.0758   99.4699 C   0  0  0  0  0
  133.8851  127.1823   99.5578 C   0  0  0  0  0
  137.4328  123.1478   97.1118 O   0  0  0  0  0
  133.6199  118.2305   97.6802 O   0  0  0  0  0
  133.5225  122.3393   98.3908 N   0  0  0  0  0
  2  3  1  0  0  0
  4  5  1  0  0  0
  4 11  1  0  0  0
  6  7  1  0  0  0
  6  1  1  0  0  0
  8  9  1  0  0  0
 10  5  1  0  0  0
 11 12  1  0  0  0
 13 30  1  0  0  0
 14 16  1  0  0  0
 15 12  1  0  0  0
 17 18  1  0  0  0
 19 20  1  0  0  0
 21 29  1  0  0  0
 21 16  1  0  0  0
 22 29  1  0  0  0
 23 30  1  0  0  0
 23 24  1  0  0  0
 24 25  1  0  0  0
 25 26  1  0  0  0
 26 27  1  0  0  0
 30 14  1  0  0  0
  1  2  2  0  0  0
  3  4  2  0  0  0
  5  6  2  0  0  0
  7  8  2  0  0  0
  9 10  2  0  0  0
 11 28  2  0  0  0
 12 13  2  0  0  0
 14 15  2  0  0  0
 16 17  2  0  0  0
 18 19  2  0  0  0
 20 21  2  0  0  0
M  END
> <rmsd>
0.42276895

$$$$
CHEMBL3422784_8GUT


 29 32  0  0  0  0  0  0  0  0999 V2000
  133.3635  125.3581   99.1708 C   0  0  0  0  0
  132.3199  125.6926  100.0366 C   0  0  0  0  0
  131.7899  124.7295  100.8979 C   0  0  0  0  0
  132.3014  123.4290  100.8936 C   0  0  0  0  0
  133.3501  123.0733  100.0252 C   0  0  0  0  0
  133.8782  124.0587   99.1642 C   0  0  0  0  0
  134.9187  123.7306   98.3068 C   0  0  0  0  0
  135.4499  122.4389   98.2908 C   0  0  0  0  0
  134.9032  121.4729   99.1683 C   0  0  0  0  0
  133.3025  120.7659  100.8826 C   0  0  0  0  0
  132.2217  120.0101  100.1807 C   0  0  0  0  0
  132.5339  118.8611   99.4454 C   0  0  0  0  0
  131.5262  118.1647   98.7715 C   0  0  0  0  0
  130.2048  118.6180   98.8291 C   0  0  0  0  0
  129.8913  119.7684   99.5594 C   0  0  0  0  0
  130.8992  120.4646  100.2333 C   0  0  0  0  0
  136.5639  122.1474   97.3527 C   0  0  0  0  0
  138.2329  120.5066   96.3749 C   0  0  0  0  0
  139.5347  121.0968   96.9422 C   0  0  0  0  0
  140.7481  120.2752   96.5192 C   0  0  0  0  0
  140.6606  118.8449   97.0661 C   0  0  0  0  0
  139.2230  118.3140   97.1729 C   0  0  0  0  0
  138.2941  118.9869   96.1632 C   0  0  0  0  0
  141.4917  117.9217   96.1990 C   0  0  0  0  0
  135.3736  120.3014   99.1872 O   0  0  0  0  0
  137.0239  123.0707   96.6255 O   0  0  0  0  0
  133.8650  121.8005  100.0061 N   0  0  0  0  0
  137.1193  120.8318   97.2538 N   0  0  0  0  0
  129.2285  117.9434   98.1762 F   0  0  0  0  0
  2  3  1  0  0  0
  4  5  1  0  0  0
  6  7  1  0  0  0
  6  1  1  0  0  0
  8  9  1  0  0  0
  8 17  1  0  0  0
  9 27  1  0  0  0
 10 27  1  0  0  0
 10 11  1  0  0  0
 12 13  1  0  0  0
 14 15  1  0  0  0
 14 29  1  0  0  0
 16 11  1  0  0  0
 17 28  1  0  0  0
 18 28  1  0  0  0
 18 19  1  0  0  0
 19 20  1  0  0  0
 20 21  1  0  0  0
 21 22  1  0  0  0
 21 24  1  0  0  0
 22 23  1  0  0  0
 23 18  1  0  0  0
 27  5  1  0  0  0
  1  2  2  0  0  0
  3  4  2  0  0  0
  5  6  2  0  0  0
  7  8  2  0  0  0
  9 25  2  0  0  0
 11 12  2  0  0  0
 13 14  2  0  0  0
 15 16  2  0  0  0
 17 26  2  0  0  0
M  END
> <rmsd>
0.398639888

$$$$
CHEMBL4782654_5ZTY


 32 35  0  0  0  0  0  0  0  0999 V2000
  134.0270  124.4608   98.5619 C   0  0  0  0  0
  133.3945  123.6663   99.5464 C   0  0  0  0  0
  133.1925  121.5756  100.8248 C   0  0  0  0  0
  132.1908  120.6694  100.1851 C   0  0  0  0  0
  130.8992  121.1317   99.9074 C   0  0  0  0  0
  129.9695  120.2879   99.2924 C   0  0  0  0  0
  130.3304  118.9809   98.9515 C   0  0  0  0  0
  131.6211  118.5179   99.2245 C   0  0  0  0  0
  132.5508  119.3620   99.8396 C   0  0  0  0  0
  134.9516  121.8901   99.1541 C   0  0  0  0  0
  135.5943  122.6422   98.1503 C   0  0  0  0  0
  135.1133  123.9204   97.8739 C   0  0  0  0  0
  136.7596  122.1431   97.3764 C   0  0  0  0  0
  138.4275  120.3026   96.8696 C   0  0  0  0  0
  138.4487  118.7744   96.9751 C   0  0  0  0  0
  139.3023  118.0930   95.8904 C   0  0  0  0  0
  140.2238  119.0432   95.1162 C   0  0  0  0  0
  141.3625  119.6241   95.9610 C   0  0  0  0  0
  140.9520  120.0603   97.3703 C   0  0  0  0  0
  139.7120  120.9606   97.4057 C   0  0  0  0  0
  132.1836  124.1823  100.2698 C   0  0  0  0  0
  133.5977  125.8412   98.2164 C   0  0  0  0  0
  133.6817  126.2893   96.8875 C   0  0  0  0  0
  133.3128  127.5949   96.5516 C   0  0  0  0  0
  132.8644  128.4708   97.5429 C   0  0  0  0  0
  132.7888  128.0423   98.8700 C   0  0  0  0  0
  133.1580  126.7365   99.2050 C   0  0  0  0  0
  133.8647  122.4033   99.8162 N   0  0  0  0  0
  137.2717  120.8226   97.5840 N   0  0  0  0  0
  129.4298  118.1633   98.3557 F   0  0  0  0  0
  135.3765  120.7383   99.4489 O   0  0  0  0  0
  137.3025  122.8904   96.5164 O   0  0  0  0  0
  1 22  1  0  0  0
  2 28  1  0  0  0
  3 28  1  0  0  0
  3  4  1  0  0  0
  5  6  1  0  0  0
  7  8  1  0  0  0
  7 30  1  0  0  0
  9  4  1  0  0  0
 10 11  1  0  0  0
 11 13  1  0  0  0
 12  1  1  0  0  0
 13 29  1  0  0  0
 14 29  1  0  0  0
 14 15  1  0  0  0
 15 16  1  0  0  0
 16 17  1  0  0  0
 17 18  1  0  0  0
 18 19  1  0  0  0
 19 20  1  0  0  0
 20 14  1  0  0  0
 21  2  1  0  0  0
 23 24  1  0  0  0
 25 26  1  0  0  0
 27 22  1  0  0  0
 28 10  1  0  0  0
  1  2  2  0  0  0
  4  5  2  0  0  0
  6  7  2  0  0  0
  8  9  2  0  0  0
 10 31  2  0  0  0
 11 12  2  0  0  0
 13 32  2  0  0  0
 22 23  2  0  0  0
 24 25  2  0  0  0
 26 27  2  0  0  0
M  END
> <rmsd>
0.75890702

$$$$
CHEMBL598463_5ZTY


 27 29  0  0  0  0  0  0  0  0999 V2000
  132.7401  123.6623   99.9529 C   0  0  0  0  0
  133.5254  122.8597   98.9710 C   0  0  0  0  0
  135.0615  122.3419   97.5866 C   0  0  0  0  0
  136.2420  122.4532   96.7125 C   0  0  0  0  0
  137.8478  121.4027   95.0747 C   0  0  0  0  0
  138.0610  120.0797   94.4154 C   0  0  0  0  0
  137.4098  119.8338   93.2010 C   0  0  0  0  0
  137.5535  118.6038   92.5570 C   0  0  0  0  0
  138.3459  117.6070   93.1269 C   0  0  0  0  0
  138.9948  117.8400   94.3412 C   0  0  0  0  0
  138.8644  119.0727   95.0008 C   0  0  0  0  0
  139.5703  119.2877   96.3178 C   0  0  0  0  0
  134.2529  121.2350   97.7786 C   0  0  0  0  0
  134.3829  119.9141   97.0905 C   0  0  0  0  0
  132.2109  120.7234   99.1443 C   0  0  0  0  0
  130.9680  121.2755   99.4938 C   0  0  0  0  0
  129.9347  120.4620   99.9672 C   0  0  0  0  0
  130.1331  119.0855  100.0963 C   0  0  0  0  0
  131.3645  118.5232   99.7519 C   0  0  0  0  0
  132.3968  119.3379   99.2789 C   0  0  0  0  0
  134.6071  123.3626   98.3405 N   0  0  0  0  0
  136.6753  121.3387   95.9318 N   0  0  0  0  0
  133.2780  121.5643   98.6548 N   0  0  0  0  0
  136.8730  123.5435   96.6592 O   0  0  0  0  0
  140.3804  120.4061   96.2388 F   0  0  0  0  0
  138.6368  119.4707   97.3215 F   0  0  0  0  0
  140.3598  118.1972   96.6440 F   0  0  0  0  0
  1  2  1  0  0  0
  3 21  1  0  0  0
  3  4  1  0  0  0
  4 22  1  0  0  0
  5 22  1  0  0  0
  5  6  1  0  0  0
  7  8  1  0  0  0
  9 10  1  0  0  0
 11  6  1  0  0  0
 12 11  1  0  0  0
 12 25  1  0  0  0
 12 26  1  0  0  0
 12 27  1  0  0  0
 13 23  1  0  0  0
 14 13  1  0  0  0
 16 17  1  0  0  0
 18 19  1  0  0  0
 20 15  1  0  0  0
 23 15  1  0  0  0
 23  2  1  0  0  0
  2 21  2  0  0  0
  3 13  2  0  0  0
  4 24  2  0  0  0
  6  7  2  0  0  0
  8  9  2  0  0  0
 10 11  2  0  0  0
 15 16  2  0  0  0
 17 18  2  0  0  0
 19 20  2  0  0  0
M  END
> <rmsd>
0.687430918

$$$$
CHEMBL1223778_5ZTY


 29 32  0  0  0  0  0  0  0  0999 V2000
  134.9583  126.2187  101.0476 C   0  0  0  0  0
  134.0649  125.0009  100.9491 C   0  0  0  0  0
  132.6911  125.4189  100.4611 C   0  0  0  0  0
  131.7863  124.2063  100.3110 C   0  0  0  0  0
  131.9747  123.5421   98.9531 C   0  0  0  0  0
  135.2733  122.3466   98.2830 C   0  0  0  0  0
  136.5409  122.4549   97.5539 C   0  0  0  0  0
  138.8999  121.6112   97.1741 C   0  0  0  0  0
  139.7336  122.7897   97.7044 C   0  0  0  0  0
  141.0294  122.1184   98.2018 C   0  0  0  0  0
  140.6254  121.4213   99.5131 C   0  0  0  0  0
  139.7921  120.2209   99.0407 C   0  0  0  0  0
  139.7909  120.4034   97.5159 C   0  0  0  0  0
  139.4220  119.1396   96.7553 C   0  0  0  0  0
  141.1885  120.9440   97.2434 C   0  0  0  0  0
  141.4309  121.3816   95.7938 C   0  0  0  0  0
  142.3259  119.9944   97.6388 C   0  0  0  0  0
  134.9978  121.3246   99.3423 C   0  0  0  0  0
  133.5589  121.6572   99.7525 C   0  0  0  0  0
  132.6444  120.4995   99.4869 C   0  0  0  0  0
  131.9549  119.9185  100.5567 C   0  0  0  0  0
  131.0942  118.8391  100.3360 C   0  0  0  0  0
  130.9197  118.3362   99.0433 C   0  0  0  0  0
  131.6059  118.9123   97.9703 C   0  0  0  0  0
  132.4666  119.9915   98.1900 C   0  0  0  0  0
  133.2231  122.7939   98.9088 N   0  0  0  0  0
  134.2790  123.1370   98.0702 N   0  0  0  0  0
  137.6030  121.5424   97.8398 N   0  0  0  0  0
  136.6895  123.3494   96.6776 O   0  0  0  0  0
  1  2  1  0  0  0
  2  3  1  0  0  0
  3  4  1  0  0  0
  4  5  1  0  0  0
  5 26  1  0  0  0
  6  7  1  0  0  0
  7 28  1  0  0  0
  8 28  1  0  0  0
  8  9  1  0  0  0
 10  9  1  0  0  0
 10 11  1  0  0  0
 11 12  1  0  0  0
 12 13  1  0  0  0
 13 14  1  0  0  0
 13 15  1  0  0  0
 13  8  1  0  0  0
 15 16  1  0  0  0
 15 17  1  0  0  0
 15 10  1  0  0  0
 18  6  1  0  0  0
 18 19  1  0  0  0
 19 20  1  0  0  0
 19 26  1  0  0  0
 21 22  1  0  0  0
 23 24  1  0  0  0
 25 20  1  0  0  0
 26 27  1  0  0  0
  6 27  2  0  0  0
  7 29  2  0  0  0
 20 21  2  0  0  0
 22 23  2  0  0  0
 24 25  2  0  0  0
M  END
> <rmsd>
0.495063692

$$$$
CHEMBL219243_6PT0


 29 32  0  0  0  0  0  0  0  0999 V2000
  139.6026  118.6845   96.9316 C   0  0  0  0  0
  138.6980  118.8365   97.9808 C   0  0  0  0  0
  137.8157  119.9174   97.9935 C   0  0  0  0  0
  137.8138  120.8672   96.9597 C   0  0  0  0  0
  138.7347  120.7145   95.8924 C   0  0  0  0  0
  139.6279  119.6119   95.8898 C   0  0  0  0  0
  140.5354  119.4424   94.8404 C   0  0  0  0  0
  140.5648  120.3548   93.7836 C   0  0  0  0  0
  139.6849  121.4389   93.7704 C   0  0  0  0  0
  138.7751  121.6162   94.8158 C   0  0  0  0  0
  136.8725  122.0161   97.0432 C   0  0  0  0  0
  135.5172  121.8814   97.6162 C   0  0  0  0  0
  134.6497  122.9298   97.8533 C   0  0  0  0  0
  133.6365  121.0844   98.4322 C   0  0  0  0  0
  134.8867  120.7007   97.9741 C   0  0  0  0  0
  132.6098  120.1308   98.9223 C   0  0  0  0  0
  131.3045  120.5475   99.2234 C   0  0  0  0  0
  130.3496  119.6323   99.6755 C   0  0  0  0  0
  130.6902  118.2866   99.8286 C   0  0  0  0  0
  131.9849  117.8570   99.5286 C   0  0  0  0  0
  132.9380  118.7740   99.0768 C   0  0  0  0  0
  132.3491  116.4254   99.6889 C   0  0  0  0  0
  132.3790  123.2549   98.7714 C   0  0  0  0  0
  132.4636  123.5667  100.2618 C   0  0  0  0  0
  133.5968  124.5343  100.5660 C   0  0  0  0  0
  133.2422  125.9321  100.0956 C   0  0  0  0  0
  134.3948  126.8691  100.3873 C   0  0  0  0  0
  137.2386  123.1483   96.6255 O   0  0  0  0  0
  133.5059  122.4303   98.3516 N   0  0  0  0  0
  2  3  1  0  0  0
  4  5  1  0  0  0
  4 11  1  0  0  0
  6  7  1  0  0  0
  6  1  1  0  0  0
  8  9  1  0  0  0
 10  5  1  0  0  0
 11 12  1  0  0  0
 13 29  1  0  0  0
 14 16  1  0  0  0
 15 12  1  0  0  0
 17 18  1  0  0  0
 19 20  1  0  0  0
 21 16  1  0  0  0
 22 20  1  0  0  0
 23 29  1  0  0  0
 23 24  1  0  0  0
 24 25  1  0  0  0
 25 26  1  0  0  0
 26 27  1  0  0  0
 29 14  1  0  0  0
  1  2  2  0  0  0
  3  4  2  0  0  0
  5  6  2  0  0  0
  7  8  2  0  0  0
  9 10  2  0  0  0
 11 28  2  0  0  0
 12 13  2  0  0  0
 14 15  2  0  0  0
 16 17  2  0  0  0
 18 19  2  0  0  0
 20 21  2  0  0  0
M  END
> <rmsd>
0.466807842

$$$$
CHEMBL513298_5ZTY


 24 26  0  0  0  0  0  0  0  0999 V2000
  131.2970  118.9553   99.9176 C   0  0  0  0  0
  130.5421  120.1301   99.9306 C   0  0  0  0  0
  132.3721  121.3702   99.0422 C   0  0  0  0  0
  133.1555  120.2009   99.0143 C   0  0  0  0  0
  132.6128  118.9939   99.4551 C   0  0  0  0  0
  134.4606  120.2601   98.5458 C   0  0  0  0  0
  134.9997  121.4696   98.1000 C   0  0  0  0  0
  134.1876  122.6281   98.1393 C   0  0  0  0  0
  132.0779  123.7714   98.6592 C   0  0  0  0  0
  132.4539  124.6420   99.8549 C   0  0  0  0  0
  132.0007  124.0194  101.1658 C   0  0  0  0  0
  130.5005  124.1700  101.3323 C   0  0  0  0  0
  136.3982  121.4810   97.6051 C   0  0  0  0  0
  138.5220  120.1948   97.0941 C   0  0  0  0  0
  138.5348  120.2915   95.5684 C   0  0  0  0  0
  139.9689  120.2921   95.0216 C   0  0  0  0  0
  140.9605  119.5157   95.8992 C   0  0  0  0  0
  140.2708  118.3703   96.6346 C   0  0  0  0  0
  139.1738  118.8907   97.5738 C   0  0  0  0  0
  131.0875  121.2987   99.4975 N   0  0  0  0  0
  132.9006  122.5589   98.6135 N   0  0  0  0  0
  137.1570  120.2666   97.5925 N   0  0  0  0  0
  134.6462  123.7332   97.7355 O   0  0  0  0  0
  136.9291  122.5506   97.1984 O   0  0  0  0  0
  2 20  1  0  0  0
  3  4  1  0  0  0
  4  6  1  0  0  0
  5  1  1  0  0  0
  7  8  1  0  0  0
  7 13  1  0  0  0
  8 21  1  0  0  0
  9 21  1  0  0  0
  9 10  1  0  0  0
 10 11  1  0  0  0
 11 12  1  0  0  0
 13 22  1  0  0  0
 14 22  1  0  0  0
 14 15  1  0  0  0
 15 16  1  0  0  0
 16 17  1  0  0  0
 17 18  1  0  0  0
 18 19  1  0  0  0
 19 14  1  0  0  0
 21  3  1  0  0  0
  1  2  2  0  0  0
  3 20  2  0  0  0
  4  5  2  0  0  0
  6  7  2  0  0  0
  8 23  2  0  0  0
 13 24  2  0  0  0
M  END
> <rmsd>
0.732613385

$$$$
CHEMBL3780550_5ZTY


 32 36  0  0  0  0  0  0  0  0999 V2000
  131.0544  118.8229   99.8984 C   0  0  0  0  0
  130.2657  119.9769   99.9135 C   0  0  0  0  0
  130.7787  121.1877   99.4416 C   0  0  0  0  0
  132.0928  121.2659   98.9459 C   0  0  0  0  0
  132.8805  120.0956   98.9305 C   0  0  0  0  0
  132.3652  118.8866   99.4039 C   0  0  0  0  0
  134.1768  120.1500   98.4390 C   0  0  0  0  0
  134.7054  121.3482   97.9557 C   0  0  0  0  0
  133.8922  122.5049   97.9797 C   0  0  0  0  0
  131.8118  123.6773   98.5105 C   0  0  0  0  0
  131.7471  124.2702   99.9162 C   0  0  0  0  0
  133.0837  124.8558  100.3399 C   0  0  0  0  0
  133.9141  123.8047  101.0505 C   0  0  0  0  0
  135.2686  124.3825  101.3998 C   0  0  0  0  0
  136.0971  121.3504   97.4422 C   0  0  0  0  0
  138.2336  120.0060   96.9786 C   0  0  0  0  0
  138.3256  120.3770   95.4857 C   0  0  0  0  0
  139.7734  120.2247   94.9932 C   0  0  0  0  0
  140.6891  121.1451   95.8172 C   0  0  0  0  0
  140.6156  120.7674   97.3060 C   0  0  0  0  0
  139.1672  120.9193   97.7967 C   0  0  0  0  0
  141.0558  119.3051   97.4807 C   0  0  0  0  0
  140.1369  118.3796   96.6672 C   0  0  0  0  0
  140.2185  118.7656   95.1815 C   0  0  0  0  0
  138.6884  118.5471   97.1553 C   0  0  0  0  0
  130.4784  117.5405  100.4113 C   0  0  0  0  0
  130.4314  116.4868   99.3197 C   0  0  0  0  0
  131.2661  117.0245  101.6017 C   0  0  0  0  0
  134.3427  123.5997   97.5396 O   0  0  0  0  0
  136.6181  122.4111   97.0014 O   0  0  0  0  0
  132.6150  122.4484   98.4814 N   0  0  0  0  0
  136.8578  120.1333   97.4499 N   0  0  0  0  0
  2  3  1  0  0  0
  4  5  1  0  0  0
  5  7  1  0  0  0
  6  1  1  0  0  0
  8  9  1  0  0  0
  8 15  1  0  0  0
  9 31  1  0  0  0
 10 31  1  0  0  0
 10 11  1  0  0  0
 11 12  1  0  0  0
 12 13  1  0  0  0
 13 14  1  0  0  0
 15 32  1  0  0  0
 16 32  1  0  0  0
 16 17  1  0  0  0
 17 18  1  0  0  0
 18 19  1  0  0  0
 19 20  1  0  0  0
 20 21  1  0  0  0
 20 22  1  0  0  0
 21 16  1  0  0  0
 22 23  1  0  0  0
 23 24  1  0  0  0
 23 25  1  0  0  0
 24 18  1  0  0  0
 25 16  1  0  0  0
 26  1  1  0  0  0
 26 27  1  0  0  0
 26 28  1  0  0  0
 31  4  1  0  0  0
  1  2  2  0  0  0
  3  4  2  0  0  0
  5  6  2  0  0  0
  7  8  2  0  0  0
  9 29  2  0  0  0
 15 30  2  0  0  0
M  END
> <rmsd>
0.677951038

$$$$
CHEMBL220413_6PT0


 30 33  0  0  0  0  0  0  0  0999 V2000
  139.5054  118.6425   96.4815 C   0  0  0  0  0
  139.8921  119.6934   97.3134 C   0  0  0  0  0
  139.0369  120.7780   97.5168 C   0  0  0  0  0
  137.7790  120.8277   96.9009 C   0  0  0  0  0
  137.3911  119.7750   96.0377 C   0  0  0  0  0
  138.2657  118.6762   95.8411 C   0  0  0  0  0
  137.8992  117.6287   94.9913 C   0  0  0  0  0
  136.6743  117.6651   94.3208 C   0  0  0  0  0
  135.8134  118.7514   94.4931 C   0  0  0  0  0
  136.1710  119.8014   95.3426 C   0  0  0  0  0
  136.9211  122.0019   97.1691 C   0  0  0  0  0
  135.5348  121.8580   97.6510 C   0  0  0  0  0
  134.6235  122.8879   97.7739 C   0  0  0  0  0
  133.6616  121.0564   98.4746 C   0  0  0  0  0
  134.9450  120.6892   98.1027 C   0  0  0  0  0
  132.6548  120.1056   99.0094 C   0  0  0  0  0
  131.3244  120.4910   99.2273 C   0  0  0  0  0
  130.3884  119.5788   99.7219 C   0  0  0  0  0
  130.7664  118.2634  100.0041 C   0  0  0  0  0
  132.0946  117.8678   99.7843 C   0  0  0  0  0
  133.0285  118.7820   99.2900 C   0  0  0  0  0
  130.1057  116.0207  100.8112 C   0  0  0  0  0
  132.3074  123.1928   98.5783 C   0  0  0  0  0
  132.3238  123.6335  100.0381 C   0  0  0  0  0
  133.4054  124.6710  100.2958 C   0  0  0  0  0
  133.0136  126.0073   99.6944 C   0  0  0  0  0
  134.1164  127.0141   99.9427 C   0  0  0  0  0
  137.4047  123.1570   97.0245 O   0  0  0  0  0
  129.8080  117.3745  100.4983 O   0  0  0  0  0
  133.4806  122.3836   98.2699 N   0  0  0  0  0
  2  3  1  0  0  0
  4  5  1  0  0  0
  4 11  1  0  0  0
  6  7  1  0  0  0
  6  1  1  0  0  0
  8  9  1  0  0  0
 10  5  1  0  0  0
 11 12  1  0  0  0
 13 30  1  0  0  0
 14 16  1  0  0  0
 15 12  1  0  0  0
 17 18  1  0  0  0
 19 20  1  0  0  0
 19 29  1  0  0  0
 21 16  1  0  0  0
 22 29  1  0  0  0
 23 30  1  0  0  0
 23 24  1  0  0  0
 24 25  1  0  0  0
 25 26  1  0  0  0
 26 27  1  0  0  0
 30 14  1  0  0  0
  1  2  2  0  0  0
  3  4  2  0  0  0
  5  6  2  0  0  0
  7  8  2  0  0  0
  9 10  2  0  0  0
 11 28  2  0  0  0
 12 13  2  0  0  0
 14 15  2  0  0  0
 16 17  2  0  0  0
 18 19  2  0  0  0
 20 21  2  0  0  0
M  END
> <rmsd>
0.409971923

$$$$
CHEMBL216857_6PT0


 29 32  0  0  0  0  0  0  0  0999 V2000
  134.5965  125.4620  101.4871 C   0  0  0  0  0
  133.4566  126.0461  100.6738 C   0  0  0  0  0
  133.1867  125.1885   99.4510 C   0  0  0  0  0
  132.4480  123.9207   99.8452 C   0  0  0  0  0
  132.2533  123.0199   98.6351 C   0  0  0  0  0
  134.5999  122.7959   97.8609 C   0  0  0  0  0
  135.5339  121.7887   97.7217 C   0  0  0  0  0
  136.9194  121.9771   97.2441 C   0  0  0  0  0
  137.8286  120.8293   96.9824 C   0  0  0  0  0
  137.2898  119.6459   96.4530 C   0  0  0  0  0
  138.1014  118.5490   96.1614 C   0  0  0  0  0
  139.4745  118.6143   96.3907 C   0  0  0  0  0
  140.0418  119.7763   96.9141 C   0  0  0  0  0
  141.4193  119.8246   97.1461 C   0  0  0  0  0
  142.0009  120.9757   97.6816 C   0  0  0  0  0
  141.2072  122.0823   97.9900 C   0  0  0  0  0
  139.8296  122.0427   97.7604 C   0  0  0  0  0
  139.2258  120.8974   97.2149 C   0  0  0  0  0
  134.9610  120.6002   98.1422 C   0  0  0  0  0
  133.6696  120.9322   98.5189 C   0  0  0  0  0
  132.6650  119.9569   99.0251 C   0  0  0  0  0
  131.2961  120.2597   98.9554 C   0  0  0  0  0
  130.3349  119.3525   99.4062 C   0  0  0  0  0
  130.7303  118.1229   99.9328 C   0  0  0  0  0
  132.0864  117.8021  100.0080 C   0  0  0  0  0
  133.0530  118.7066   99.5570 C   0  0  0  0  0
  133.4667  122.2608   98.3496 N   0  0  0  0  0
  137.3316  123.1521   97.0445 O   0  0  0  0  0
  134.3601  118.3601   99.6639 F   0  0  0  0  0
  1  2  1  0  0  0
  2  3  1  0  0  0
  3  4  1  0  0  0
  4  5  1  0  0  0
  5 27  1  0  0  0
  7  8  1  0  0  0
  7 19  1  0  0  0
  8  9  1  0  0  0
 10 11  1  0  0  0
 12 13  1  0  0  0
 14 15  1  0  0  0
 16 17  1  0  0  0
 18  9  1  0  0  0
 18 13  1  0  0  0
 20 21  1  0  0  0
 20 27  1  0  0  0
 22 23  1  0  0  0
 24 25  1  0  0  0
 26 29  1  0  0  0
 26 21  1  0  0  0
 27  6  1  0  0  0
  6  7  2  0  0  0
  8 28  2  0  0  0
  9 10  2  0  0  0
 11 12  2  0  0  0
 13 14  2  0  0  0
 15 16  2  0  0  0
 17 18  2  0  0  0
 19 20  2  0  0  0
 21 22  2  0  0  0
 23 24  2  0  0  0
 25 26  2  0  0  0
M  END
> <rmsd>
0.396585524

$$$$
CHEMBL1223716_5ZTY


 29 31  0  0  0  0  0  0  0  0999 V2000
  131.7148  126.2878   98.9756 C   0  0  0  0  0
  132.1104  125.6379  100.2882 C   0  0  0  0  0
  133.2292  124.6360  100.0674 C   0  0  0  0  0
  132.6870  123.3680   99.4297 C   0  0  0  0  0
  133.7905  122.3901   99.2040 C   0  0  0  0  0
  136.8707  121.5598   97.6342 C   0  0  0  0  0
  139.0700  120.3675   97.0169 C   0  0  0  0  0
  138.8252  120.4871   95.5175 C   0  0  0  0  0
  139.6549  118.9931   97.2846 C   0  0  0  0  0
  140.0588  121.4185   97.4879 C   0  0  0  0  0
  141.2672  121.6106   96.7940 C   0  0  0  0  0
  142.2012  122.5517   97.2359 C   0  0  0  0  0
  141.9441  123.3060   98.3828 C   0  0  0  0  0
  140.7552  123.1166   99.0907 C   0  0  0  0  0
  139.8213  122.1755   98.6492 C   0  0  0  0  0
  135.2381  120.5121   99.3410 C   0  0  0  0  0
  136.2265  120.4189  100.4907 C   0  0  0  0  0
  135.1455  119.1555   98.6459 C   0  0  0  0  0
  133.8921  121.0592   99.8868 C   0  0  0  0  0
  132.6735  120.2053   99.6391 C   0  0  0  0  0
  132.0415  119.5995  100.7305 C   0  0  0  0  0
  130.9080  118.8045  100.5365 C   0  0  0  0  0
  130.4002  118.6123   99.2484 C   0  0  0  0  0
  131.0250  119.2154   98.1533 C   0  0  0  0  0
  132.1582  120.0103   98.3462 C   0  0  0  0  0
  134.7647  122.6191   98.3944 N   0  0  0  0  0
  135.6577  121.5478   98.3995 N   0  0  0  0  0
  137.7917  120.4629   97.7263 N   0  0  0  0  0
  137.1263  122.5425   96.8867 O   0  0  0  0  0
  1  2  1  0  0  0
  2  3  1  0  0  0
  3  4  1  0  0  0
  4  5  1  0  0  0
  6 28  1  0  0  0
  7 28  1  0  0  0
  7  8  1  0  0  0
  7  9  1  0  0  0
  7 10  1  0  0  0
 11 12  1  0  0  0
 13 14  1  0  0  0
 15 10  1  0  0  0
 16 27  1  0  0  0
 16 17  1  0  0  0
 16 18  1  0  0  0
 16 19  1  0  0  0
 19 20  1  0  0  0
 19  5  1  0  0  0
 21 22  1  0  0  0
 23 24  1  0  0  0
 25 20  1  0  0  0
 27 26  1  0  0  0
 27  6  1  0  0  0
  5 26  2  0  0  0
  6 29  2  0  0  0
 10 11  2  0  0  0
 12 13  2  0  0  0
 14 15  2  0  0  0
 20 21  2  0  0  0
 22 23  2  0  0  0
 24 25  2  0  0  0
M  END
> <rmsd>
0.463307381

$$$$
CHEMBL385653_6PT0


 29 32  0  0  0  0  0  0  0  0999 V2000
  139.5699  118.6451   96.6679 C   0  0  0  0  0
  139.9205  119.7572   97.4336 C   0  0  0  0  0
  139.0449  120.8393   97.5408 C   0  0  0  0  0
  137.8019  120.8256   96.8933 C   0  0  0  0  0
  137.4509  119.7094   96.0966 C   0  0  0  0  0
  138.3461  118.6141   95.9977 C   0  0  0  0  0
  138.0160  117.5045   95.2144 C   0  0  0  0  0
  136.8077  117.4744   94.5144 C   0  0  0  0  0
  135.9270  118.5558   94.5901 C   0  0  0  0  0
  136.2481  119.6678   95.3726 C   0  0  0  0  0
  136.9206  122.0013   97.0588 C   0  0  0  0  0
  135.5252  121.8687   97.5169 C   0  0  0  0  0
  134.5960  122.8896   97.5464 C   0  0  0  0  0
  133.6443  121.0955   98.3500 C   0  0  0  0  0
  134.9416  120.7244   98.0348 C   0  0  0  0  0
  132.6392  120.1677   98.9268 C   0  0  0  0  0
  133.0266  118.8732   99.3101 C   0  0  0  0  0
  132.0949  117.9796   99.8460 C   0  0  0  0  0
  130.7632  118.3706  100.0022 C   0  0  0  0  0
  130.3637  119.6533   99.6204 C   0  0  0  0  0
  131.2972  120.5449   99.0846 C   0  0  0  0  0
  129.7716  117.4218  100.5721 C   0  0  0  0  0
  132.2565  123.2111   98.2738 C   0  0  0  0  0
  132.2298  123.7451   99.6982 C   0  0  0  0  0
  133.2509  124.8572   99.8693 C   0  0  0  0  0
  133.2372  125.3744  101.2963 C   0  0  0  0  0
  132.0215  126.2514  101.5305 C   0  0  0  0  0
  137.3907  123.1514   96.8453 O   0  0  0  0  0
  133.4487  122.4022   98.0493 N   0  0  0  0  0
  2  3  1  0  0  0
  4  5  1  0  0  0
  4 11  1  0  0  0
  6  7  1  0  0  0
  6  1  1  0  0  0
  8  9  1  0  0  0
 10  5  1  0  0  0
 11 12  1  0  0  0
 13 29  1  0  0  0
 14 16  1  0  0  0
 15 12  1  0  0  0
 17 18  1  0  0  0
 19 20  1  0  0  0
 21 16  1  0  0  0
 22 19  1  0  0  0
 23 29  1  0  0  0
 23 24  1  0  0  0
 24 25  1  0  0  0
 25 26  1  0  0  0
 26 27  1  0  0  0
 29 14  1  0  0  0
  1  2  2  0  0  0
  3  4  2  0  0  0
  5  6  2  0  0  0
  7  8  2  0  0  0
  9 10  2  0  0  0
 11 28  2  0  0  0
 12 13  2  0  0  0
 14 15  2  0  0  0
 16 17  2  0  0  0
 18 19  2  0  0  0
 20 21  2  0  0  0
M  END
> <rmsd>
0.424741358

$$$$
CHEMBL1223648_5ZTY


 27 29  0  0  0  0  0  0  0  0999 V2000
  133.0950  127.6159   99.1070 C   0  0  0  0  0
  132.6529  126.3745   99.8520 C   0  0  0  0  0
  132.1223  125.3542   98.8628 C   0  0  0  0  0
  131.6882  124.0877   99.5858 C   0  0  0  0  0
  132.8881  123.2800  100.0647 C   0  0  0  0  0
  133.5891  122.6275   98.9185 C   0  0  0  0  0
  136.5023  122.2078   96.9369 C   0  0  0  0  0
  138.1575  121.3435   95.2181 C   0  0  0  0  0
  138.1438  120.7887   93.7891 C   0  0  0  0  0
  137.2869  119.5362   93.6307 C   0  0  0  0  0
  138.1170  118.2510   93.6238 C   0  0  0  0  0
  138.9222  118.0310   94.9027 C   0  0  0  0  0
  138.0833  118.3329   96.1362 C   0  0  0  0  0
  138.6815  119.4747   96.9544 C   0  0  0  0  0
  139.1931  120.6605   96.1226 C   0  0  0  0  0
  134.1137  121.3082   97.0278 C   0  0  0  0  0
  132.9741  121.6049   98.0084 C   0  0  0  0  0
  132.5677  120.3670   98.7518 C   0  0  0  0  0
  131.2407  119.9315   98.6674 C   0  0  0  0  0
  130.8323  118.7808   99.3482 C   0  0  0  0  0
  131.7505  118.0592  100.1165 C   0  0  0  0  0
  133.0780  118.4875  100.2046 C   0  0  0  0  0
  133.4874  119.6379   99.5244 C   0  0  0  0  0
  134.8078  122.9043   98.6144 N   0  0  0  0  0
  135.1917  122.1578   97.5028 N   0  0  0  0  0
  136.8227  121.3905   95.8081 N   0  0  0  0  0
  137.3725  122.9716   97.4357 O   0  0  0  0  0
  1  2  1  0  0  0
  2  3  1  0  0  0
  3  4  1  0  0  0
  4  5  1  0  0  0
  5  6  1  0  0  0
  7 26  1  0  0  0
  8 26  1  0  0  0
  8  9  1  0  0  0
  9 10  1  0  0  0
 10 11  1  0  0  0
 11 12  1  0  0  0
 12 13  1  0  0  0
 13 14  1  0  0  0
 14 15  1  0  0  0
 15  8  1  0  0  0
 16 25  1  0  0  0
 16 17  1  0  0  0
 17 18  1  0  0  0
 17  6  1  0  0  0
 19 20  1  0  0  0
 21 22  1  0  0  0
 23 18  1  0  0  0
 25 24  1  0  0  0
 25  7  1  0  0  0
  6 24  2  0  0  0
  7 27  2  0  0  0
 18 19  2  0  0  0
 20 21  2  0  0  0
 22 23  2  0  0  0
M  END
> <rmsd>
0.621699452

$$$$
CHEMBL237010_5ZTY


 32 36  0  0  0  0  0  0  0  0999 V2000
  133.0590  125.2716  100.1082 C   0  0  0  0  0
  132.1803  124.1421   99.6157 C   0  0  0  0  0
  131.5434  124.5347   98.2964 C   0  0  0  0  0
  130.7027  123.3903   97.7544 C   0  0  0  0  0
  131.5382  122.4423   96.8974 C   0  0  0  0  0
  133.7872  121.9355   97.5823 C   0  0  0  0  0
  134.7615  121.2463   98.3144 C   0  0  0  0  0
  136.1851  121.6210   98.1222 C   0  0  0  0  0
  138.6625  121.1718   98.7059 C   0  0  0  0  0
  139.0544  122.6459   98.7399 C   0  0  0  0  0
  139.2221  120.3979   97.4959 C   0  0  0  0  0
  140.7642  120.4211   97.5432 C   0  0  0  0  0
  141.3512  119.6331   96.3612 C   0  0  0  0  0
  140.8682  118.1765   96.4358 C   0  0  0  0  0
  139.3337  118.1303   96.3775 C   0  0  0  0  0
  138.8568  118.7630   95.0607 C   0  0  0  0  0
  139.3336  120.2214   94.9753 C   0  0  0  0  0
  140.8683  120.2597   95.0437 C   0  0  0  0  0
  138.7560  121.0121   96.1587 C   0  0  0  0  0
  138.7601  118.9266   97.5600 C   0  0  0  0  0
  134.3436  120.2281   99.1965 C   0  0  0  0  0
  132.9769  119.9292   99.3151 C   0  0  0  0  0
  132.5348  118.9128  100.1766 C   0  0  0  0  0
  131.1751  118.6151  100.2813 C   0  0  0  0  0
  130.2439  119.3279   99.5254 C   0  0  0  0  0
  130.6699  120.3417   98.6656 C   0  0  0  0  0
  132.0349  120.6591   98.5506 C   0  0  0  0  0
  132.4631  121.6552   97.7118 N   0  0  0  0  0
  137.2204  120.9895   98.8890 N   0  0  0  0  0
  136.4820  122.5162   97.2846 O   0  0  0  0  0
  135.1862  119.5787   99.8757 O   0  0  0  0  0
  128.5398  118.9523   99.6560 Cl  0  0  0  0  0
  1  2  1  0  0  0
  2  3  1  0  0  0
  3  4  1  0  0  0
  4  5  1  0  0  0
  5 28  1  0  0  0
  7  8  1  0  0  0
  7 21  1  0  0  0
  8 29  1  0  0  0
  9 29  1  0  0  0
  9 10  1  0  0  0
  9 11  1  0  0  0
 11 12  1  0  0  0
 13 12  1  0  0  0
 13 14  1  0  0  0
 15 14  1  0  0  0
 15 16  1  0  0  0
 15 20  1  0  0  0
 17 16  1  0  0  0
 17 18  1  0  0  0
 17 19  1  0  0  0
 18 13  1  0  0  0
 19 11  1  0  0  0
 20 11  1  0  0  0
 21 22  1  0  0  0
 23 24  1  0  0  0
 25 32  1  0  0  0
 25 26  1  0  0  0
 27 28  1  0  0  0
 27 22  1  0  0  0
 28  6  1  0  0  0
  6  7  2  0  0  0
  8 30  2  0  0  0
 21 31  2  0  0  0
 22 23  2  0  0  0
 24 25  2  0  0  0
 26 27  2  0  0  0
M  END
> <rmsd>
0.604510367

$$$$
CHEMBL4781952_8GUT


 27 29  0  0  0  0  0  0  0  0999 V2000
  133.8548  123.5100   99.6271 C   0  0  0  0  0
  133.4389  122.3771  100.3405 C   0  0  0  0  0
  133.5549  119.9691  100.8133 C   0  0  0  0  0
  132.4947  119.2463  100.0480 C   0  0  0  0  0
  132.8425  118.1919   99.1961 C   0  0  0  0  0
  131.8542  117.5268   98.4643 C   0  0  0  0  0
  130.5166  117.9167   98.5808 C   0  0  0  0  0
  130.1673  118.9727   99.4281 C   0  0  0  0  0
  131.1556  119.6378  100.1599 C   0  0  0  0  0
  134.9956  121.0217   99.1348 C   0  0  0  0  0
  135.4312  122.1435   98.3945 C   0  0  0  0  0
  134.8443  123.3814   98.6610 C   0  0  0  0  0
  136.4844  122.0697   97.3506 C   0  0  0  0  0
  138.1257  120.6909   95.9868 C   0  0  0  0  0
  138.2675  119.2608   95.4592 C   0  0  0  0  0
  138.1293  118.1420   96.5025 C   0  0  0  0  0
  138.7918  118.4000   97.8576 C   0  0  0  0  0
  140.1256  119.1201   97.7480 C   0  0  0  0  0
  139.8919  120.6194   97.8519 C   0  0  0  0  0
  139.4579  121.2286   96.5202 C   0  0  0  0  0
  132.3824  122.5229  101.3946 C   0  0  0  0  0
  134.0076  121.1553  100.0787 N   0  0  0  0  0
  137.0470  120.8129   96.9621 N   0  0  0  0  0
  129.5592  117.2723   97.8719 F   0  0  0  0  0
  135.5204  119.8908   98.9354 O   0  0  0  0  0
  136.8833  123.1280   96.7907 O   0  0  0  0  0
  133.1632  125.1006   99.9145 Cl  0  0  0  0  0
  1 27  1  0  0  0
  2 22  1  0  0  0
  3 22  1  0  0  0
  3  4  1  0  0  0
  5  6  1  0  0  0
  7  8  1  0  0  0
  7 24  1  0  0  0
  9  4  1  0  0  0
 10 11  1  0  0  0
 11 13  1  0  0  0
 12  1  1  0  0  0
 13 23  1  0  0  0
 14 23  1  0  0  0
 14 15  1  0  0  0
 15 16  1  0  0  0
 16 17  1  0  0  0
 17 18  1  0  0  0
 18 19  1  0  0  0
 19 20  1  0  0  0
 20 14  1  0  0  0
 21  2  1  0  0  0
 22 10  1  0  0  0
  1  2  2  0  0  0
  4  5  2  0  0  0
  6  7  2  0  0  0
  8  9  2  0  0  0
 10 25  2  0  0  0
 11 12  2  0  0  0
 13 26  2  0  0  0
M  END
> <rmsd>
0.587318897

$$$$
CHEMBL517388_5ZTY


 29 32  0  0  0  0  0  0  0  0999 V2000
  136.4873  123.5578   99.7841 C   0  0  0  0  0
  135.7361  122.3714   99.2742 C   0  0  0  0  0
  136.1207  121.5750   98.2080 C   0  0  0  0  0
  135.1322  120.6145   98.0858 C   0  0  0  0  0
  134.1920  120.8395   99.0808 C   0  0  0  0  0
  133.8473  122.5531  100.9007 C   0  0  0  0  0
  132.9684  123.6407  100.3793 C   0  0  0  0  0
  131.7404  123.3306   99.7825 C   0  0  0  0  0
  130.9264  124.3527   99.2854 C   0  0  0  0  0
  131.3394  125.6855   99.3829 C   0  0  0  0  0
  132.5686  125.9962   99.9733 C   0  0  0  0  0
  133.3826  124.9745  100.4709 C   0  0  0  0  0
  132.9553  120.0493   99.3068 C   0  0  0  0  0
  132.3707  119.9812  100.5800 C   0  0  0  0  0
  131.2107  119.2312  100.7929 C   0  0  0  0  0
  130.6242  118.5382   99.7323 C   0  0  0  0  0
  131.2006  118.5920   98.4613 C   0  0  0  0  0
  132.3613  119.3416   98.2513 C   0  0  0  0  0
  137.3061  121.7630   97.3440 C   0  0  0  0  0
  138.1228  120.6241   96.8721 C   0  0  0  0  0
  138.0663  119.3795   97.5182 C   0  0  0  0  0
  138.8711  118.3206   97.0898 C   0  0  0  0  0
  139.7452  118.4989   96.0143 C   0  0  0  0  0
  139.8167  119.7365   95.3700 C   0  0  0  0  0
  139.0118  120.7956   95.7999 C   0  0  0  0  0
  134.5800  121.9168   99.8083 N   0  0  0  0  0
  135.0585  119.6177   97.0686 N   0  0  0  0  0
  130.3205  126.9647   98.7581 Cl  0  0  0  0  0
  137.6402  122.9348   97.0200 O   0  0  0  0  0
  1  2  1  0  0  0
  3  4  1  0  0  0
  3 19  1  0  0  0
  4 27  1  0  0  0
  5 26  1  0  0  0
  5 13  1  0  0  0
  6 26  1  0  0  0
  6  7  1  0  0  0
  8  9  1  0  0  0
 10 11  1  0  0  0
 10 28  1  0  0  0
 12  7  1  0  0  0
 14 15  1  0  0  0
 16 17  1  0  0  0
 18 13  1  0  0  0
 19 20  1  0  0  0
 21 22  1  0  0  0
 23 24  1  0  0  0
 25 20  1  0  0  0
 26  2  1  0  0  0
  2  3  2  0  0  0
  4  5  2  0  0  0
  7  8  2  0  0  0
  9 10  2  0  0  0
 11 12  2  0  0  0
 13 14  2  0  0  0
 15 16  2  0  0  0
 17 18  2  0  0  0
 19 29  2  0  0  0
 20 21  2  0  0  0
 22 23  2  0  0  0
 24 25  2  0  0  0
M  END
> <rmsd>
0.604203463

$$$$
CHEMBL2381810_8GUR


 28 30  0  0  0  0  0  0  0  0999 V2000
  132.5041  123.0147  100.5578 C   0  0  0  0  0
  131.9468  124.1275   99.6818 C   0  0  0  0  0
  133.0573  125.0678   99.2445 C   0  0  0  0  0
  132.5154  126.1237   98.2985 C   0  0  0  0  0
  132.2814  125.5292   96.9223 C   0  0  0  0  0
  134.2795  122.1385   99.1131 C   0  0  0  0  0
  134.8712  121.1194   98.3359 C   0  0  0  0  0
  134.1865  119.8856   98.2403 C   0  0  0  0  0
  132.4734  120.7393   99.6306 C   0  0  0  0  0
  131.2712  120.3349  100.1812 C   0  0  0  0  0
  131.1728  119.0158   99.7183 C   0  0  0  0  0
  129.9963  118.1038   99.9481 C   0  0  0  0  0
  130.4045  116.6489   99.7961 C   0  0  0  0  0
  129.4318  118.2933  101.3455 C   0  0  0  0  0
  128.9135  118.4150   98.9339 C   0  0  0  0  0
  136.1660  121.3851   97.6655 C   0  0  0  0  0
  138.0839  120.5814   96.2142 C   0  0  0  0  0
  139.2075  120.5608   97.2639 C   0  0  0  0  0
  140.5357  120.1404   96.6423 C   0  0  0  0  0
  140.4584  118.7192   96.0674 C   0  0  0  0  0
  139.0516  118.3215   95.6004 C   0  0  0  0  0
  138.2683  119.5348   95.1051 C   0  0  0  0  0
  133.0833  121.9493   99.7452 N   0  0  0  0  0
  133.0098  119.7555   98.9023 N   0  0  0  0  0
  132.2283  118.6936   98.9310 N   0  0  0  0  0
  136.7971  120.3810   96.8642 N   0  0  0  0  0
  134.6422  118.9233   97.5650 O   0  0  0  0  0
  136.7170  122.5124   97.7988 O   0  0  0  0  0
  1  2  1  0  0  0
  1 23  1  0  0  0
  2  3  1  0  0  0
  3  4  1  0  0  0
  4  5  1  0  0  0
  7  8  1  0  0  0
  7 16  1  0  0  0
  8 24  1  0  0  0
  9 23  1  0  0  0
 10 11  1  0  0  0
 12 11  1  0  0  0
 12 13  1  0  0  0
 12 14  1  0  0  0
 12 15  1  0  0  0
 16 26  1  0  0  0
 17 26  1  0  0  0
 17 18  1  0  0  0
 18 19  1  0  0  0
 19 20  1  0  0  0
 20 21  1  0  0  0
 21 22  1  0  0  0
 22 17  1  0  0  0
 23  6  1  0  0  0
 24  9  1  0  0  0
 24 25  1  0  0  0
  6  7  2  0  0  0
  8 27  2  0  0  0
  9 10  2  0  0  0
 11 25  2  0  0  0
 16 28  2  0  0  0
M  END
> <rmsd>
0.671298385

$$$$
CHEMBL511253_5ZTY


 28 31  0  0  0  0  0  0  0  0999 V2000
  136.9917  123.1411   96.5494 O   0  0  0  0  0
  135.4006  120.2969   99.0689 O   0  0  0  0  0
  136.5439  122.1954   97.2551 C   0  0  0  0  0
  138.1993  120.5862   96.2024 C   0  0  0  0  0
  138.2480  119.0769   95.9267 C   0  0  0  0  0
  139.6473  118.5786   95.5524 C   0  0  0  0  0
  140.5977  118.4355   96.7554 C   0  0  0  0  0
  140.0652  119.0377   98.0609 C   0  0  0  0  0
  140.0063  120.5686   98.0520 C   0  0  0  0  0
  139.5141  121.1805   96.7351 C   0  0  0  0  0
  135.4490  122.4578   98.2233 C   0  0  0  0  0
  134.9109  123.7467   98.2832 C   0  0  0  0  0
  133.8869  124.0430   99.1717 C   0  0  0  0  0
  133.3510  125.3292   99.2354 C   0  0  0  0  0
  132.3236  125.6065  100.1376 C   0  0  0  0  0
  131.8477  124.5878  100.9659 C   0  0  0  0  0
  133.3854  123.0353  100.0165 C   0  0  0  0  0
  133.3628  120.7224  100.8263 C   0  0  0  0  0
  132.2435  120.0039  100.1469 C   0  0  0  0  0
  132.5098  118.8836   99.3515 C   0  0  0  0  0
  131.4647  118.2238   98.6980 C   0  0  0  0  0
  130.1520  118.6853   98.8357 C   0  0  0  0  0
  129.8846  119.8075   99.6258 C   0  0  0  0  0
  130.9297  120.4672  100.2794 C   0  0  0  0  0
  134.9263  121.4667   99.0887 C   0  0  0  0  0
  137.0944  120.8830   97.1033 N   0  0  0  0  0
  132.3818  123.3389  100.8901 N   0  0  0  0  0
  133.9067  121.7699   99.9573 N   0  0  0  0  0
  3 26  1  0  0  0
  3 11  1  0  0  0
  4 26  1  0  0  0
  4  5  1  0  0  0
  5  6  1  0  0  0
  6  7  1  0  0  0
  7  8  1  0  0  0
  8  9  1  0  0  0
  9 10  1  0  0  0
 10  4  1  0  0  0
 12 13  1  0  0  0
 14 15  1  0  0  0
 16 27  1  0  0  0
 17 28  1  0  0  0
 17 13  1  0  0  0
 18 28  1  0  0  0
 18 19  1  0  0  0
 20 21  1  0  0  0
 22 23  1  0  0  0
 24 19  1  0  0  0
 25 11  1  0  0  0
 28 25  1  0  0  0
  3  1  2  0  0  0
 11 12  2  0  0  0
 13 14  2  0  0  0
 15 16  2  0  0  0
 17 27  2  0  0  0
 19 20  2  0  0  0
 21 22  2  0  0  0
 23 24  2  0  0  0
 25  2  2  0  0  0
M  END
> <rmsd>
0.435817868

$$$$
CHEMBL1224688_5ZTY


 26 28  0  0  0  0  0  0  0  0999 V2000
  133.1666  127.6888   99.3365 C   0  0  0  0  0
  132.6750  126.4620  100.0746 C   0  0  0  0  0
  132.0349  125.5027   99.0893 C   0  0  0  0  0
  131.5488  124.2508   99.8045 C   0  0  0  0  0
  132.7116  123.3546  100.2121 C   0  0  0  0  0
  133.3167  122.6843   99.0223 C   0  0  0  0  0
  136.1028  122.1321   96.8956 C   0  0  0  0  0
  137.6176  121.2116   95.0860 C   0  0  0  0  0
  138.3773  120.0207   95.6474 C   0  0  0  0  0
  139.5100  119.6372   94.6851 C   0  0  0  0  0
  140.6940  118.9443   95.3742 C   0  0  0  0  0
  140.2408  118.1652   96.6055 C   0  0  0  0  0
  139.6104  119.0942   97.6521 C   0  0  0  0  0
  138.9185  120.3222   97.0447 C   0  0  0  0  0
  133.6690  121.3780   97.0834 C   0  0  0  0  0
  132.5953  121.7267   98.1196 C   0  0  0  0  0
  132.1376  120.5019   98.8549 C   0  0  0  0  0
  130.7817  120.1585   98.8196 C   0  0  0  0  0
  130.3249  119.0226   99.4949 C   0  0  0  0  0
  131.2234  118.2241  100.2083 C   0  0  0  0  0
  132.5795  118.5603  100.2470 C   0  0  0  0  0
  133.0372  119.6956   99.5724 C   0  0  0  0  0
  134.5365  122.8876   98.6691 N   0  0  0  0  0
  134.8209  122.1439   97.5260 N   0  0  0  0  0
  136.3165  121.3340   95.7282 N   0  0  0  0  0
  137.0397  122.8316   97.3671 O   0  0  0  0  0
  1  2  1  0  0  0
  2  3  1  0  0  0
  3  4  1  0  0  0
  4  5  1  0  0  0
  5  6  1  0  0  0
  7 25  1  0  0  0
  8 25  1  0  0  0
  8  9  1  0  0  0
  9 10  1  0  0  0
 10 11  1  0  0  0
 11 12  1  0  0  0
 12 13  1  0  0  0
 13 14  1  0  0  0
 14  9  1  0  0  0
 15 24  1  0  0  0
 15 16  1  0  0  0
 16 17  1  0  0  0
 16  6  1  0  0  0
 18 19  1  0  0  0
 20 21  1  0  0  0
 22 17  1  0  0  0
 24 23  1  0  0  0
 24  7  1  0  0  0
  6 23  2  0  0  0
  7 26  2  0  0  0
 17 18  2  0  0  0
 19 20  2  0  0  0
 21 22  2  0  0  0
M  END
> <rmsd>
0.566137016

$$$$
CHEMBL1760938_6PT0


 29 32  0  0  0  0  0  0  0  0999 V2000
  135.9048  120.4215   99.5492 O   0  0  0  0  0
  138.6966  124.6311   92.5483 O   0  0  0  0  0
  135.8221  121.3705   98.7233 C   0  0  0  0  0
  133.7157  122.2390   99.8400 C   0  0  0  0  0
  132.7810  121.1070   99.5304 C   0  0  0  0  0
  132.6250  120.0722  100.4575 C   0  0  0  0  0
  131.7700  119.0100  100.1586 C   0  0  0  0  0
  131.0857  118.9891   98.9421 C   0  0  0  0  0
  131.2693  120.0387   98.0387 C   0  0  0  0  0
  132.9821  123.5761   99.9628 C   0  0  0  0  0
  136.8118  121.5037   97.6441 C   0  0  0  0  0
  137.8542  122.2508   95.9232 C   0  0  0  0  0
  139.4338  122.9100   94.0530 C   0  0  0  0  0
  139.2232  123.3281   92.5980 C   0  0  0  0  0
  137.3726  124.5418   93.0124 C   0  0  0  0  0
  137.3680  124.2610   94.5151 C   0  0  0  0  0
  139.6210  120.5299   95.7681 C   0  0  0  0  0
  140.0940  119.3614   96.3825 C   0  0  0  0  0
  139.4276  118.8557   97.5137 C   0  0  0  0  0
  138.2984  119.5115   98.0269 C   0  0  0  0  0
  137.8790  120.6706   97.3745 C   0  0  0  0  0
  134.7636  122.3260   98.8285 N   0  0  0  0  0
  132.1051  121.0666   98.3477 N   0  0  0  0  0
  136.7913  122.5003   96.7283 N   0  0  0  0  0
  138.1819  123.0773   94.7915 N   0  0  0  0  0
  138.5274  121.1388   96.2970 N   0  0  0  0  0
  132.4104  123.9317   98.7534 F   0  0  0  0  0
  133.8786  124.5577  100.3419 F   0  0  0  0  0
  131.9930  123.4832  100.9259 F   0  0  0  0  0
  3 22  1  0  0  0
  3 11  1  0  0  0
  4 22  1  0  0  0
  4  5  1  0  0  0
  4 10  1  0  0  0
  5 23  1  0  0  0
  6  7  1  0  0  0
  8  9  1  0  0  0
 10 27  1  0  0  0
 10 28  1  0  0  0
 10 29  1  0  0  0
 11 24  1  0  0  0
 12 25  1  0  0  0
 12 26  1  0  0  0
 13 25  1  0  0  0
 13 14  1  0  0  0
 14  2  1  0  0  0
 15  2  1  0  0  0
 15 16  1  0  0  0
 16 25  1  0  0  0
 18 19  1  0  0  0
 20 21  1  0  0  0
 21 26  1  0  0  0
 26 17  1  0  0  0
  3  1  2  0  0  0
  5  6  2  0  0  0
  7  8  2  0  0  0
  9 23  2  0  0  0
 12 24  2  0  0  0
 17 18  2  0  0  0
 19 20  2  0  0  0
 21 11  2  0  0  0
M  END
> <rmsd>
0.736283839

$$$$
CHEMBL1224687_5ZTY


 30 34  0  0  0  0  0  0  0  0999 V2000
  134.4842  126.8418  100.6670 C   0  0  0  0  0
  133.2580  125.9659  100.5230 C   0  0  0  0  0
  133.6739  124.5074  100.5484 C   0  0  0  0  0
  132.4601  123.6049  100.3855 C   0  0  0  0  0
  131.9302  123.6270   98.9564 C   0  0  0  0  0
  132.7833  122.8026   98.0475 C   0  0  0  0  0
  135.8443  122.2509   96.3399 C   0  0  0  0  0
  137.6990  121.1618   94.9994 C   0  0  0  0  0
  138.5468  120.2666   95.9016 C   0  0  0  0  0
  139.9697  120.1920   95.3214 C   0  0  0  0  0
  140.8560  119.2917   96.1983 C   0  0  0  0  0
  140.2496  117.8803   96.2503 C   0  0  0  0  0
  138.8305  117.9402   96.8378 C   0  0  0  0  0
  138.8931  118.5279   98.2571 C   0  0  0  0  0
  139.4982  119.9407   98.2163 C   0  0  0  0  0
  140.9136  119.8695   97.6214 C   0  0  0  0  0
  138.6241  120.8411   97.3296 C   0  0  0  0  0
  137.9569  118.8434   95.9532 C   0  0  0  0  0
  133.5464  121.1530   96.5364 C   0  0  0  0  0
  132.3245  121.5437   97.3751 C   0  0  0  0  0
  131.9913  120.4711   98.3698 C   0  0  0  0  0
  130.7187  119.8904   98.3392 C   0  0  0  0  0
  130.3791  118.8893   99.2542 C   0  0  0  0  0
  131.3121  118.4636  100.2042 C   0  0  0  0  0
  132.5858  119.0380  100.2398 C   0  0  0  0  0
  132.9263  120.0389   99.3256 C   0  0  0  0  0
  133.9838  123.1371   97.7257 N   0  0  0  0  0
  134.5064  122.2000   96.8376 N   0  0  0  0  0
  136.3149  121.2317   95.4544 N   0  0  0  0  0
  136.6055  123.1957   96.6826 O   0  0  0  0  0
  1  2  1  0  0  0
  2  3  1  0  0  0
  3  4  1  0  0  0
  4  5  1  0  0  0
  5  6  1  0  0  0
  7 29  1  0  0  0
  8 29  1  0  0  0
  9  8  1  0  0  0
  9 10  1  0  0  0
 11 10  1  0  0  0
 11 12  1  0  0  0
 13 12  1  0  0  0
 13 14  1  0  0  0
 13 18  1  0  0  0
 15 14  1  0  0  0
 15 16  1  0  0  0
 15 17  1  0  0  0
 16 11  1  0  0  0
 17  9  1  0  0  0
 18  9  1  0  0  0
 19 28  1  0  0  0
 19 20  1  0  0  0
 20 21  1  0  0  0
 20  6  1  0  0  0
 22 23  1  0  0  0
 24 25  1  0  0  0
 26 21  1  0  0  0
 28 27  1  0  0  0
 28  7  1  0  0  0
  6 27  2  0  0  0
  7 30  2  0  0  0
 21 22  2  0  0  0
 23 24  2  0  0  0
 25 26  2  0  0  0
M  END
> <rmsd>
0.415249288

$$$$
CHEMBL598252_5ZTY


 25 29  0  0  0  0  0  0  0  0999 V2000
  139.5601  119.9602   98.0164 C   0  0  0  0  0
  139.5326  118.5255   97.3914 C   0  0  0  0  0
  140.6630  118.4118   96.3885 C   0  0  0  0  0
  140.2674  119.4349   95.3295 C   0  0  0  0  0
  140.6953  120.7673   95.9461 C   0  0  0  0  0
  139.5599  121.0673   96.9054 C   0  0  0  0  0
  138.3979  120.8428   95.9510 C   0  0  0  0  0
  138.7128  119.4596   95.3678 C   0  0  0  0  0
  138.3539  118.4342   96.4471 C   0  0  0  0  0
  136.5573  122.1123   97.1560 C   0  0  0  0  0
  135.2721  122.1023   97.8754 C   0  0  0  0  0
  134.4588  121.0137   98.1387 C   0  0  0  0  0
  132.2602  120.6581   99.2947 C   0  0  0  0  0
  130.9751  121.2168   99.3865 C   0  0  0  0  0
  129.8985  120.4549   99.8487 C   0  0  0  0  0
  130.0951  119.1242  100.2247 C   0  0  0  0  0
  131.3680  118.5559  100.1383 C   0  0  0  0  0
  132.4438  119.3190   99.6759 C   0  0  0  0  0
  133.5595  122.7825   98.9471 C   0  0  0  0  0
  132.6411  123.7046   99.6760 C   0  0  0  0  0
  134.6963  119.6048   97.6990 C   0  0  0  0  0
  137.0998  120.9029   96.6204 N   0  0  0  0  0
  133.3723  121.4455   98.8165 N   0  0  0  0  0
  134.7092  123.2144   98.3885 N   0  0  0  0  0
  137.1789  123.1998   97.0132 O   0  0  0  0  0
  1  2  1  0  0  0
  2  3  1  0  0  0
  3  4  1  0  0  0
  4  5  1  0  0  0
  5  6  1  0  0  0
  6  7  1  0  0  0
  6  1  1  0  0  0
  7  8  1  0  0  0
  7 22  1  0  0  0
  8  9  1  0  0  0
  8  4  1  0  0  0
  9  2  1  0  0  0
 10 11  1  0  0  0
 11 24  1  0  0  0
 12 23  1  0  0  0
 14 15  1  0  0  0
 16 17  1  0  0  0
 18 13  1  0  0  0
 20 19  1  0  0  0
 21 12  1  0  0  0
 22 10  1  0  0  0
 23 13  1  0  0  0
 23 19  1  0  0  0
 10 25  2  0  0  0
 11 12  2  0  0  0
 13 14  2  0  0  0
 15 16  2  0  0  0
 17 18  2  0  0  0
 19 24  2  0  0  0
M  END
> <rmsd>
0.590319633

$$$$
CHEMBL235040_5ZTY


 31 35  0  0  0  0  0  0  0  0999 V2000
  133.1221  123.1635  102.3550 C   0  0  0  0  0
  133.8173  123.6585  101.1009 C   0  0  0  0  0
  133.0134  124.7731  100.4475 C   0  0  0  0  0
  131.7406  124.2426   99.7985 C   0  0  0  0  0
  132.0093  123.6832   98.4035 C   0  0  0  0  0
  133.9858  122.3678   97.9873 C   0  0  0  0  0
  134.7423  121.1886   98.0004 C   0  0  0  0  0
  136.1286  121.2324   97.4721 C   0  0  0  0  0
  138.3213  119.9992   96.9641 C   0  0  0  0  0
  139.2233  120.9526   97.7720 C   0  0  0  0  0
  140.6688  120.8752   97.2556 C   0  0  0  0  0
  141.1834  119.4353   97.4128 C   0  0  0  0  0
  140.2959  118.4719   96.6086 C   0  0  0  0  0
  140.8050  117.0557   96.7702 C   0  0  0  0  0
  140.3332  118.8683   95.1244 C   0  0  0  0  0
  139.8133  120.3046   94.9556 C   0  0  0  0  0
  139.8521  120.6914   93.4928 C   0  0  0  0  0
  140.6976  121.2646   95.7682 C   0  0  0  0  0
  138.3685  120.3828   95.4722 C   0  0  0  0  0
  138.8499  118.5635   97.1232 C   0  0  0  0  0
  134.1501  120.0164   98.5175 C   0  0  0  0  0
  132.8300  120.0596   98.9920 C   0  0  0  0  0
  132.1998  118.9178   99.5034 C   0  0  0  0  0
  130.8844  118.9898   99.9604 C   0  0  0  0  0
  130.2069  120.2076   99.9007 C   0  0  0  0  0
  132.1135  121.2757   98.9522 C   0  0  0  0  0
  132.7128  122.4044   98.4639 N   0  0  0  0  0
  136.9495  120.0558   97.4597 N   0  0  0  0  0
  130.8266  121.3110   99.4039 N   0  0  0  0  0
  136.5905  122.3200   97.0286 O   0  0  0  0  0
  134.7926  118.9309   98.5551 O   0  0  0  0  0
  1  2  1  0  0  0
  2  3  1  0  0  0
  3  4  1  0  0  0
  4  5  1  0  0  0
  5 27  1  0  0  0
  7  8  1  0  0  0
  7 21  1  0  0  0
  8 28  1  0  0  0
  9 28  1  0  0  0
  9 10  1  0  0  0
 11 10  1  0  0  0
 11 12  1  0  0  0
 12 13  1  0  0  0
 13 14  1  0  0  0
 13 15  1  0  0  0
 13 20  1  0  0  0
 15 16  1  0  0  0
 16 17  1  0  0  0
 16 18  1  0  0  0
 16 19  1  0  0  0
 18 11  1  0  0  0
 19  9  1  0  0  0
 20  9  1  0  0  0
 21 22  1  0  0  0
 23 24  1  0  0  0
 25 29  1  0  0  0
 26 27  1  0  0  0
 26 22  1  0  0  0
 27  6  1  0  0  0
  6  7  2  0  0  0
  8 30  2  0  0  0
 21 31  2  0  0  0
 22 23  2  0  0  0
 24 25  2  0  0  0
 26 29  2  0  0  0
M  END
> <rmsd>
0.759654105

$$$$
CHEMBL1223590_8GUR


 29 31  0  0  0  0  0  0  0  0999 V2000
  133.3806  126.5072  101.5571 C   0  0  0  0  0
  132.4777  125.4462  100.9646 C   0  0  0  0  0
  133.2498  124.6423   99.9404 C   0  0  0  0  0
  132.3438  123.5764   99.3464 C   0  0  0  0  0
  133.0421  122.7311   98.3230 C   0  0  0  0  0
  135.9107  121.8850   96.4074 C   0  0  0  0  0
  137.4767  120.6713   94.7613 C   0  0  0  0  0
  137.9125  121.9613   94.0766 C   0  0  0  0  0
  137.2926  119.6144   93.6880 C   0  0  0  0  0
  138.5363  120.1947   95.7382 C   0  0  0  0  0
  138.1945  119.7624   97.0321 C   0  0  0  0  0
  139.1757  119.2949   97.9105 C   0  0  0  0  0
  140.5107  119.2446   97.5035 C   0  0  0  0  0
  140.8640  119.6551   96.2162 C   0  0  0  0  0
  139.8829  120.1230   95.3378 C   0  0  0  0  0
  133.4908  121.1082   96.6601 C   0  0  0  0  0
  132.3777  121.6039   97.5897 C   0  0  0  0  0
  131.9335  120.5157   98.5220 C   0  0  0  0  0
  132.8332  119.8852   99.3980 C   0  0  0  0  0
  132.3888  118.8735  100.2540 C   0  0  0  0  0
  131.0460  118.4860  100.2393 C   0  0  0  0  0
  130.1476  119.1095   99.3686 C   0  0  0  0  0
  130.5910  120.1215   98.5120 C   0  0  0  0  0
  134.2682  122.9058   97.9658 N   0  0  0  0  0
  134.6080  121.9758   96.9863 N   0  0  0  0  0
  136.1834  120.8831   95.4170 N   0  0  0  0  0
  136.8158  122.6817   96.7755 O   0  0  0  0  0
  141.4617  118.7919   98.3549 F   0  0  0  0  0
  128.8466  118.7329   99.3547 F   0  0  0  0  0
  1  2  1  0  0  0
  2  3  1  0  0  0
  3  4  1  0  0  0
  4  5  1  0  0  0
  6 26  1  0  0  0
  7 26  1  0  0  0
  7  8  1  0  0  0
  7  9  1  0  0  0
  7 10  1  0  0  0
 11 12  1  0  0  0
 13 28  1  0  0  0
 13 14  1  0  0  0
 15 10  1  0  0  0
 16 25  1  0  0  0
 16 17  1  0  0  0
 17 18  1  0  0  0
 17  5  1  0  0  0
 19 20  1  0  0  0
 21 22  1  0  0  0
 22 29  1  0  0  0
 23 18  1  0  0  0
 25 24  1  0  0  0
 25  6  1  0  0  0
  5 24  2  0  0  0
  6 27  2  0  0  0
 10 11  2  0  0  0
 12 13  2  0  0  0
 14 15  2  0  0  0
 18 19  2  0  0  0
 20 21  2  0  0  0
 22 23  2  0  0  0
M  END
> <rmsd>
0.457324088

$$$$
CHEMBL1224629_5ZTY


 29 33  0  0  0  0  0  0  0  0999 V2000
  135.0996  126.4677  101.0551 C   0  0  0  0  0
  134.4961  125.4460  100.1154 C   0  0  0  0  0
  132.9979  125.6648  100.0247 C   0  0  0  0  0
  132.3552  124.6441   99.0985 C   0  0  0  0  0
  132.1787  123.3037   99.8041 C   0  0  0  0  0
  133.3006  122.3422   99.5385 C   0  0  0  0  0
  136.3372  121.4637   97.9192 C   0  0  0  0  0
  138.4187  120.1546   97.1929 C   0  0  0  0  0
  139.0387  118.7842   97.5155 C   0  0  0  0  0
  140.3395  118.5891   96.7190 C   0  0  0  0  0
  140.0298  118.6705   95.2155 C   0  0  0  0  0
  139.4164  120.0392   94.8795 C   0  0  0  0  0
  140.4099  121.1484   95.2631 C   0  0  0  0  0
  140.7272  121.0763   96.7659 C   0  0  0  0  0
  141.3329  119.7014   97.0910 C   0  0  0  0  0
  139.4287  121.2568   97.5677 C   0  0  0  0  0
  138.1189  120.2205   95.6826 C   0  0  0  0  0
  134.7149  120.4463   99.6100 C   0  0  0  0  0
  133.4073  120.9958  100.1906 C   0  0  0  0  0
  132.2492  120.1097   99.8375 C   0  0  0  0  0
  131.9184  119.8291   98.5011 C   0  0  0  0  0
  130.8342  118.9983   98.2047 C   0  0  0  0  0
  130.0761  118.4432   99.2395 C   0  0  0  0  0
  130.4021  118.7184  100.5706 C   0  0  0  0  0
  131.4865  119.5493  100.8683 C   0  0  0  0  0
  134.2754  122.5848   98.7312 N   0  0  0  0  0
  135.1533  121.5039   98.7175 N   0  0  0  0  0
  137.1879  120.3105   97.9623 N   0  0  0  0  0
  136.6271  122.4433   97.1804 O   0  0  0  0  0
  1  2  1  0  0  0
  2  3  1  0  0  0
  3  4  1  0  0  0
  4  5  1  0  0  0
  5  6  1  0  0  0
  7 28  1  0  0  0
  8 28  1  0  0  0
  8  9  1  0  0  0
 10  9  1  0  0  0
 10 11  1  0  0  0
 12 11  1  0  0  0
 12 13  1  0  0  0
 12 17  1  0  0  0
 14 13  1  0  0  0
 14 15  1  0  0  0
 14 16  1  0  0  0
 15 10  1  0  0  0
 16  8  1  0  0  0
 17  8  1  0  0  0
 18 27  1  0  0  0
 18 19  1  0  0  0
 19 20  1  0  0  0
 19  6  1  0  0  0
 21 22  1  0  0  0
 23 24  1  0  0  0
 25 20  1  0  0  0
 27 26  1  0  0  0
 27  7  1  0  0  0
  6 26  2  0  0  0
  7 29  2  0  0  0
 20 21  2  0  0  0
 22 23  2  0  0  0
 24 25  2  0  0  0
M  END
> <rmsd>
0.600290596

$$$$
CHEMBL3354407_6PT0


 30 34  0  0  0  0  0  0  0  0999 V2000
  138.5131  118.3122   96.7792 C   0  0  0  0  0
  137.5431  118.8946   95.9606 C   0  0  0  0  0
  137.3061  120.2698   96.0278 C   0  0  0  0  0
  138.0350  121.0700   96.9135 C   0  0  0  0  0
  139.0115  120.4829   97.7452 C   0  0  0  0  0
  139.2451  119.1040   97.6674 C   0  0  0  0  0
  139.8069  121.3005   98.7172 C   0  0  0  0  0
  137.8056  121.8699  100.3281 C   0  0  0  0  0
  135.5363  122.0023   99.8217 C   0  0  0  0  0
  135.5531  123.3321  100.1163 C   0  0  0  0  0
  134.2972  123.8191   99.8672 C   0  0  0  0  0
  133.7702  125.1047   99.9360 C   0  0  0  0  0
  132.4331  125.2733   99.5357 C   0  0  0  0  0
  131.6752  124.1765   99.0700 C   0  0  0  0  0
  132.2388  122.8892   99.0021 C   0  0  0  0  0
  133.5596  122.7305   99.4262 C   0  0  0  0  0
  133.9583  120.2856   98.9398 C   0  0  0  0  0
  132.6767  119.6595   99.3000 C   0  0  0  0  0
  131.7922  120.0904  100.2695 C   0  0  0  0  0
  130.7812  119.1444  100.2164 C   0  0  0  0  0
  137.7612  122.4841   96.9507 C   0  0  0  0  0
  139.3251  120.9350  100.4384 S   0  0  0  0  0
  136.6562  121.2498   99.9245 N   0  0  0  0  0
  134.3148  121.5975   99.4057 N   0  0  0  0  0
  131.0805  118.2279   99.2745 N   0  0  0  0  0
  136.6882  123.9484  100.5109 N   0  0  0  0  0
  137.8029  123.2128  100.6169 N   0  0  0  0  0
  137.5398  123.6196   96.9821 N   0  0  0  0  0
  134.7752  119.6353   98.2344 O   0  0  0  0  0
  132.2189  118.5642   98.7502 O   0  0  0  0  0
  2  3  1  0  0  0
  4  5  1  0  0  0
  4 21  1  0  0  0
  6  1  1  0  0  0
  7  5  1  0  0  0
  7 22  1  0  0  0
  8 22  1  0  0  0
  8 27  1  0  0  0
  9 23  1  0  0  0
 10 11  1  0  0  0
 10 26  1  0  0  0
 12 13  1  0  0  0
 14 15  1  0  0  0
 16 24  1  0  0  0
 16 11  1  0  0  0
 17 18  1  0  0  0
 18 30  1  0  0  0
 19 20  1  0  0  0
 24 17  1  0  0  0
 24  9  1  0  0  0
 25 30  1  0  0  0
  1  2  2  0  0  0
  3  4  2  0  0  0
  5  6  2  0  0  0
  8 23  2  0  0  0
  9 10  2  0  0  0
 11 12  2  0  0  0
 13 14  2  0  0  0
 15 16  2  0  0  0
 17 29  2  0  0  0
 18 19  2  0  0  0
 20 25  2  0  0  0
 26 27  2  0  0  0
 21 28  3  0  0  0
M  END
> <rmsd>
0.671833098

$$$$
CHEMBL219970_6PT0


 30 33  0  0  0  0  0  0  0  0999 V2000
  133.7231  129.1348   97.2668 C   0  0  0  0  0
  133.3299  128.1998   98.3907 C   0  0  0  0  0
  133.0076  126.8348   97.8214 C   0  0  0  0  0
  132.6175  125.8991   98.9455 C   0  0  0  0  0
  132.3055  124.5287   98.3754 C   0  0  0  0  0
  131.9497  123.5563   99.4895 C   0  0  0  0  0
  133.1793  123.1689  100.3052 C   0  0  0  0  0
  135.2686  122.8547   99.0312 C   0  0  0  0  0
  135.8800  121.8619   98.2905 C   0  0  0  0  0
  137.1651  122.0079   97.5761 C   0  0  0  0  0
  137.8409  120.8565   96.9204 C   0  0  0  0  0
  137.7641  119.5922   97.5260 C   0  0  0  0  0
  138.4039  118.4839   96.9698 C   0  0  0  0  0
  139.1395  118.6183   95.7938 C   0  0  0  0  0
  139.2373  119.8612   95.1679 C   0  0  0  0  0
  139.9721  119.9794   93.9849 C   0  0  0  0  0
  140.0691  121.2138   93.3391 C   0  0  0  0  0
  139.4296  122.3346   93.8724 C   0  0  0  0  0
  138.6936  122.2255   95.0550 C   0  0  0  0  0
  138.5901  120.9947   95.7246 C   0  0  0  0  0
  135.0662  120.7405   98.3028 C   0  0  0  0  0
  133.9748  121.0969   99.0783 C   0  0  0  0  0
  132.8555  120.1768   99.3969 C   0  0  0  0  0
  131.9439  120.4610  100.4246 C   0  0  0  0  0
  130.9064  119.5733  100.7230 C   0  0  0  0  0
  130.7733  118.3865   99.9987 C   0  0  0  0  0
  131.6790  118.0871   98.9784 C   0  0  0  0  0
  132.7157  118.9766   98.6816 C   0  0  0  0  0
  134.1055  122.3766   99.5042 N   0  0  0  0  0
  137.7044  123.1472   97.5363 O   0  0  0  0  0
  1  2  1  0  0  0
  2  3  1  0  0  0
  3  4  1  0  0  0
  4  5  1  0  0  0
  5  6  1  0  0  0
  6  7  1  0  0  0
  7 29  1  0  0  0
  9 10  1  0  0  0
  9 21  1  0  0  0
 10 11  1  0  0  0
 12 13  1  0  0  0
 14 15  1  0  0  0
 16 17  1  0  0  0
 18 19  1  0  0  0
 20 11  1  0  0  0
 20 15  1  0  0  0
 22 23  1  0  0  0
 22 29  1  0  0  0
 24 25  1  0  0  0
 26 27  1  0  0  0
 28 23  1  0  0  0
 29  8  1  0  0  0
  8  9  2  0  0  0
 10 30  2  0  0  0
 11 12  2  0  0  0
 13 14  2  0  0  0
 15 16  2  0  0  0
 17 18  2  0  0  0
 19 20  2  0  0  0
 21 22  2  0  0  0
 23 24  2  0  0  0
 25 26  2  0  0  0
 27 28  2  0  0  0
M  END
> <rmsd>
0.677932501

$$$$
CHEMBL2087089_5ZTY


 31 36  0  0  0  0  0  0  0  0999 V2000
  140.0360  119.4222   96.6693 C   0  0  0  0  0
  139.2476  118.3587   96.5420 C   0  0  0  0  0
  138.2392  118.2812   95.4407 C   0  0  0  0  0
  137.0972  120.4877   95.1554 C   0  0  0  0  0
  135.9426  121.1083   95.6261 C   0  0  0  0  0
  135.4970  122.4951   95.2811 C   0  0  0  0  0
  135.2285  123.2897   96.5140 C   0  0  0  0  0
  133.5284  123.8564   98.3473 C   0  0  0  0  0
  132.0161  123.6595   98.5504 C   0  0  0  0  0
  131.5936  124.1749   99.9357 C   0  0  0  0  0
  132.3625  123.4026  101.0199 C   0  0  0  0  0
  133.8754  123.6002  100.8324 C   0  0  0  0  0
  134.2086  125.0986  100.9298 C   0  0  0  0  0
  133.4453  125.8799   99.8475 C   0  0  0  0  0
  131.9341  125.6702  100.0424 C   0  0  0  0  0
  133.8548  125.3576   98.4602 C   0  0  0  0  0
  134.2823  123.0803   99.4451 C   0  0  0  0  0
  135.3017  120.1885   96.4352 C   0  0  0  0  0
  134.1252  120.2803   97.1754 C   0  0  0  0  0
  133.7429  119.1714   97.9546 C   0  0  0  0  0
  132.5237  119.2499   98.7723 C   0  0  0  0  0
  132.0338  118.2538   99.5924 C   0  0  0  0  0
  130.8860  118.7863  100.1517 C   0  0  0  0  0
  130.7523  120.0649   99.6386 C   0  0  0  0  0
  134.5461  118.0053   97.9609 C   0  0  0  0  0
  135.7278  117.9393   97.1990 C   0  0  0  0  0
  136.0749  119.0612   96.4445 C   0  0  0  0  0
  137.1592  119.2338   95.6653 N   0  0  0  0  0
  133.8946  123.3496   97.0290 N   0  0  0  0  0
  136.1807  123.8457   97.1221 O   0  0  0  0  0
  131.7476  120.3034   98.8203 O   0  0  0  0  0
  3  2  1  0  0  0
  3 28  1  0  0  0
  5 18  1  0  0  0
  6  5  1  0  0  0
  6  7  1  0  0  0
  7 29  1  0  0  0
  8 29  1  0  0  0
  8  9  1  0  0  0
 10  9  1  0  0  0
 10 11  1  0  0  0
 12 11  1  0  0  0
 12 13  1  0  0  0
 12 17  1  0  0  0
 14 13  1  0  0  0
 14 15  1  0  0  0
 14 16  1  0  0  0
 15 10  1  0  0  0
 16  8  1  0  0  0
 17  8  1  0  0  0
 19 20  1  0  0  0
 20 21  1  0  0  0
 21 31  1  0  0  0
 22 23  1  0  0  0
 24 31  1  0  0  0
 25 26  1  0  0  0
 27 28  1  0  0  0
 27 18  1  0  0  0
 28  4  1  0  0  0
  1  2  2  0  0  0
  4  5  2  0  0  0
  7 30  2  0  0  0
 18 19  2  0  0  0
 20 25  2  0  0  0
 21 22  2  0  0  0
 23 24  2  0  0  0
 26 27  2  0  0  0
M  END
> <rmsd>
0.637062728

$$$$
CHEMBL3353835_6PT0


 33 37  0  0  0  0  0  0  0  0999 V2000
  132.8051  118.2560   98.8162 C   0  0  0  0  0
  132.0965  118.1263  100.0100 C   0  0  0  0  0
  131.2092  119.1283  100.4069 C   0  0  0  0  0
  131.0134  120.2738   99.6176 C   0  0  0  0  0
  131.7470  120.4055   98.4128 C   0  0  0  0  0
  132.6328  119.3917   98.0249 C   0  0  0  0  0
  131.6714  121.6331   97.5595 C   0  0  0  0  0
  133.0624  123.4048   98.7149 C   0  0  0  0  0
  132.1643  123.8480   99.6856 C   0  0  0  0  0
  132.6113  124.8271  100.5921 C   0  0  0  0  0
  133.9280  125.3348  100.5177 C   0  0  0  0  0
  134.8231  124.8732   99.5356 C   0  0  0  0  0
  134.3517  123.9099   98.6495 C   0  0  0  0  0
  134.9528  123.2401   97.6145 C   0  0  0  0  0
  134.0308  122.3773   97.1024 C   0  0  0  0  0
  135.6159  121.5864   95.5933 C   0  0  0  0  0
  136.4627  119.1011   95.3910 C   0  0  0  0  0
  137.7351  119.3252   96.1494 C   0  0  0  0  0
  137.6495  119.5612   97.5266 C   0  0  0  0  0
  138.8055  119.7734   98.2814 C   0  0  0  0  0
  140.0576  119.7439   97.6639 C   0  0  0  0  0
  140.1546  119.4964   96.2923 C   0  0  0  0  0
  139.0020  119.2828   95.5288 C   0  0  0  0  0
  139.1482  119.0079   94.1221 C   0  0  0  0  0
  132.8542  122.4628   97.7596 N   0  0  0  0  0
  134.3427  121.5374   96.0885 N   0  0  0  0  0
  136.5321  122.4631   96.1228 N   0  0  0  0  0
  136.2125  123.2864   97.1301 N   0  0  0  0  0
  139.2649  118.7875   92.9919 N   0  0  0  0  0
  130.0675  121.2679  100.0541 N   0  0  0  0  0
  136.0974  120.4898   94.2653 S   0  0  0  0  0
  129.6826  121.2839  101.2421 O   0  0  0  0  0
  129.4657  122.1185   99.1556 O   0  0  0  0  0
  2  3  1  0  0  0
  4  5  1  0  0  0
  4 30  1  0  0  0
  6  1  1  0  0  0
  7  5  1  0  0  0
  7 25  1  0  0  0
  9 10  1  0  0  0
 11 12  1  0  0  0
 13 14  1  0  0  0
 13  8  1  0  0  0
 14 28  1  0  0  0
 15 26  1  0  0  0
 15 25  1  0  0  0
 16 27  1  0  0  0
 16 31  1  0  0  0
 17 31  1  0  0  0
 17 18  1  0  0  0
 19 20  1  0  0  0
 21 22  1  0  0  0
 23 24  1  0  0  0
 23 18  1  0  0  0
 25  8  1  0  0  0
 30 33  1  0  0  0
  1  2  2  0  0  0
  3  4  2  0  0  0
  5  6  2  0  0  0
  8  9  2  0  0  0
 10 11  2  0  0  0
 12 13  2  0  0  0
 14 15  2  0  0  0
 16 26  2  0  0  0
 18 19  2  0  0  0
 20 21  2  0  0  0
 22 23  2  0  0  0
 27 28  2  0  0  0
 30 32  2  0  0  0
 24 29  3  0  0  0
M  CHG  2  30   1  33  -1
M  END
> <rmsd>
0.547747135

$$$$
CHEMBL525528_5ZTY


 30 34  0  0  0  0  0  0  0  0999 V2000
  130.9530  123.9679  102.7283 C   0  0  0  0  0
  131.1916  124.4805  101.3242 C   0  0  0  0  0
  132.6384  124.2386  100.9376 C   0  0  0  0  0
  132.8911  124.6921   99.5078 C   0  0  0  0  0
  132.2522  123.7383   98.5022 C   0  0  0  0  0
  134.1892  122.3681   98.0233 C   0  0  0  0  0
  134.8982  121.1614   97.9828 C   0  0  0  0  0
  136.2801  121.1721   97.4404 C   0  0  0  0  0
  138.4170  119.8752   96.8576 C   0  0  0  0  0
  138.4632  120.3135   95.3808 C   0  0  0  0  0
  139.8977  120.1992   94.8420 C   0  0  0  0  0
  140.8274  121.0918   95.6807 C   0  0  0  0  0
  140.7997  120.6472   97.1526 C   0  0  0  0  0
  141.2589  119.1835   97.2490 C   0  0  0  0  0
  140.3264  118.2852   96.4205 C   0  0  0  0  0
  140.3622  118.7381   94.9520 C   0  0  0  0  0
  138.8907  118.4149   96.9558 C   0  0  0  0  0
  139.3644  120.7611   97.6897 C   0  0  0  0  0
  134.2652  119.9943   98.4592 C   0  0  0  0  0
  132.9528  120.0678   98.9531 C   0  0  0  0  0
  132.2979  118.9216   99.4305 C   0  0  0  0  0
  130.9926  119.0034   99.9190 C   0  0  0  0  0
  130.3283  120.2303   99.9351 C   0  0  0  0  0
  130.9678  121.3780   99.4632 C   0  0  0  0  0
  132.2827  121.3149   98.9685 C   0  0  0  0  0
  132.9205  122.4372   98.5114 N   0  0  0  0  0
  137.0539  119.9659   97.3720 N   0  0  0  0  0
  136.7799  122.2575   97.0343 O   0  0  0  0  0
  134.8657  118.8843   98.4449 O   0  0  0  0  0
  129.0622  120.3083  100.4097 F   0  0  0  0  0
  1  2  1  0  0  0
  2  3  1  0  0  0
  3  4  1  0  0  0
  4  5  1  0  0  0
  5 26  1  0  0  0
  7  8  1  0  0  0
  7 19  1  0  0  0
  8 27  1  0  0  0
  9 27  1  0  0  0
  9 10  1  0  0  0
 11 10  1  0  0  0
 11 12  1  0  0  0
 13 12  1  0  0  0
 13 14  1  0  0  0
 13 18  1  0  0  0
 15 14  1  0  0  0
 15 16  1  0  0  0
 15 17  1  0  0  0
 16 11  1  0  0  0
 17  9  1  0  0  0
 18  9  1  0  0  0
 19 20  1  0  0  0
 21 22  1  0  0  0
 23 30  1  0  0  0
 23 24  1  0  0  0
 25 26  1  0  0  0
 25 20  1  0  0  0
 26  6  1  0  0  0
  6  7  2  0  0  0
  8 28  2  0  0  0
 19 29  2  0  0  0
 20 21  2  0  0  0
 22 23  2  0  0  0
 24 25  2  0  0  0
M  END
> <rmsd>
0.842007458

$$$$
CHEMBL1224630_5ZTY


 29 33  0  0  0  0  0  0  0  0999 V2000
  134.0593  127.0792  100.2019 C   0  0  0  0  0
  132.8903  126.1419   99.9859 C   0  0  0  0  0
  133.3144  124.7226  100.3124 C   0  0  0  0  0
  132.1612  123.7569  100.0844 C   0  0  0  0  0
  131.8953  123.5390   98.5995 C   0  0  0  0  0
  132.9065  122.6193   97.9954 C   0  0  0  0  0
  136.2243  121.9439   96.9325 C   0  0  0  0  0
  138.2863  120.7782   96.0296 C   0  0  0  0  0
  138.6168  119.6229   95.0665 C   0  0  0  0  0
  140.1154  119.6833   94.7270 C   0  0  0  0  0
  140.9525  119.5412   96.0107 C   0  0  0  0  0
  140.6337  118.1914   96.6732 C   0  0  0  0  0
  139.1386  118.1189   97.0225 C   0  0  0  0  0
  138.3108  118.2698   95.7364 C   0  0  0  0  0
  138.7887  119.2622   97.9883 C   0  0  0  0  0
  139.0980  120.6208   97.3319 C   0  0  0  0  0
  140.5947  120.6779   96.9846 C   0  0  0  0  0
  133.9455  120.7897   96.9180 C   0  0  0  0  0
  132.5889  121.2565   97.4571 C   0  0  0  0  0
  132.0915  120.3351   98.5315 C   0  0  0  0  0
  132.8416  120.0885   99.6938 C   0  0  0  0  0
  132.3506  119.2257  100.6776 C   0  0  0  0  0
  131.1102  118.6047  100.5061 C   0  0  0  0  0
  130.3610  118.8459   99.3509 C   0  0  0  0  0
  130.8513  119.7089   98.3661 C   0  0  0  0  0
  134.1412  122.9473   97.8395 N   0  0  0  0  0
  134.8245  121.9070   97.2145 N   0  0  0  0  0
  136.8545  120.8255   96.3026 N   0  0  0  0  0
  136.8996  122.9632   97.2400 O   0  0  0  0  0
  1  2  1  0  0  0
  2  3  1  0  0  0
  3  4  1  0  0  0
  4  5  1  0  0  0
  5  6  1  0  0  0
  7 28  1  0  0  0
  8 28  1  0  0  0
  8  9  1  0  0  0
  9 10  1  0  0  0
 11 10  1  0  0  0
 11 12  1  0  0  0
 13 12  1  0  0  0
 13 14  1  0  0  0
 13 15  1  0  0  0
 14  9  1  0  0  0
 16 15  1  0  0  0
 16 17  1  0  0  0
 16  8  1  0  0  0
 17 11  1  0  0  0
 18 27  1  0  0  0
 18 19  1  0  0  0
 19 20  1  0  0  0
 19  6  1  0  0  0
 21 22  1  0  0  0
 23 24  1  0  0  0
 25 20  1  0  0  0
 27 26  1  0  0  0
 27  7  1  0  0  0
  6 26  2  0  0  0
  7 29  2  0  0  0
 20 21  2  0  0  0
 22 23  2  0  0  0
 24 25  2  0  0  0
M  END
> <rmsd>
0.305520475

$$$$
CHEMBL1224690_6PT0


 29 32  0  0  0  0  0  0  0  0999 V2000
  138.6310  120.1183   97.1712 C   0  0  0  0  0
  139.1472  120.9275   96.1470 C   0  0  0  0  0
  140.3526  120.6059   95.5185 C   0  0  0  0  0
  141.0623  119.4681   95.9046 C   0  0  0  0  0
  140.5686  118.6484   96.9207 C   0  0  0  0  0
  139.3466  118.9696   97.5618 C   0  0  0  0  0
  138.8682  118.1320   98.5805 C   0  0  0  0  0
  139.5892  116.9954   98.9574 C   0  0  0  0  0
  140.7938  116.6850   98.3205 C   0  0  0  0  0
  141.2829  117.5097   97.3040 C   0  0  0  0  0
  136.5377  121.5633   97.5525 C   0  0  0  0  0
  134.8761  120.8373   99.3523 C   0  0  0  0  0
  133.5477  121.4620   99.7927 C   0  0  0  0  0
  133.4489  122.6674   98.9071 C   0  0  0  0  0
  132.3210  123.6461   98.9422 C   0  0  0  0  0
  132.7909  125.0081   99.4368 C   0  0  0  0  0
  133.0841  124.9861  100.9330 C   0  0  0  0  0
  131.8042  124.8866  101.7491 C   0  0  0  0  0
  131.0670  126.2123  101.7422 C   0  0  0  0  0
  132.4069  120.5123   99.5762 C   0  0  0  0  0
  132.1184  119.9866   98.3055 C   0  0  0  0  0
  131.0481  119.1037   98.1368 C   0  0  0  0  0
  130.2617  118.7411   99.2340 C   0  0  0  0  0
  130.5457  119.2609  100.5002 C   0  0  0  0  0
  131.6160  120.1442  100.6702 C   0  0  0  0  0
  137.3910  120.4420   97.8234 N   0  0  0  0  0
  135.3331  121.7305   98.3021 N   0  0  0  0  0
  134.4434  122.7830   98.0985 N   0  0  0  0  0
  136.8365  122.4025   96.6609 O   0  0  0  0  0
  1 26  1  0  0  0
  2  3  1  0  0  0
  4  5  1  0  0  0
  6  7  1  0  0  0
  6  1  1  0  0  0
  8  9  1  0  0  0
 10  5  1  0  0  0
 11 27  1  0  0  0
 12 27  1  0  0  0
 12 13  1  0  0  0
 13 14  1  0  0  0
 13 20  1  0  0  0
 15 14  1  0  0  0
 15 16  1  0  0  0
 16 17  1  0  0  0
 17 18  1  0  0  0
 18 19  1  0  0  0
 21 22  1  0  0  0
 23 24  1  0  0  0
 25 20  1  0  0  0
 26 11  1  0  0  0
 27 28  1  0  0  0
  1  2  2  0  0  0
  3  4  2  0  0  0
  5  6  2  0  0  0
  7  8  2  0  0  0
  9 10  2  0  0  0
 11 29  2  0  0  0
 14 28  2  0  0  0
 20 21  2  0  0  0
 22 23  2  0  0  0
 24 25  2  0  0  0
M  END
> <rmsd>
0.722777307

$$$$
CHEMBL502276_5ZTY


 32 36  0  0  0  0  0  0  0  0999 V2000
  134.3532  125.7095   98.8795 C   0  0  0  0  0
  133.6225  125.7971  100.2056 C   0  0  0  0  0
  133.1893  124.4159  100.6714 C   0  0  0  0  0
  131.8507  124.0196  100.0610 C   0  0  0  0  0
  132.0105  123.5073   98.6327 C   0  0  0  0  0
  133.9788  122.2216   98.1249 C   0  0  0  0  0
  134.7380  121.0480   98.0504 C   0  0  0  0  0
  136.1213  121.1348   97.5187 C   0  0  0  0  0
  138.3141  119.9490   96.9077 C   0  0  0  0  0
  139.2182  120.8440   97.7777 C   0  0  0  0  0
  140.6603  120.8088   97.2481 C   0  0  0  0  0
  140.6789  121.3055   95.7930 C   0  0  0  0  0
  139.7928  120.4050   94.9163 C   0  0  0  0  0
  140.3175  118.9616   94.9791 C   0  0  0  0  0
  140.2911  118.4563   96.4306 C   0  0  0  0  0
  141.1799  119.3630   97.2972 C   0  0  0  0  0
  138.8479  118.5072   96.9587 C   0  0  0  0  0
  138.3512  120.4405   95.4475 C   0  0  0  0  0
  134.1525  119.8407   98.4851 C   0  0  0  0  0
  132.8344  119.8426   98.9695 C   0  0  0  0  0
  132.2239  118.6532   99.3961 C   0  0  0  0  0
  130.9092  118.6553   99.8685 C   0  0  0  0  0
  130.1923  119.8583   99.9136 C   0  0  0  0  0
  130.7887  121.0479   99.4934 C   0  0  0  0  0
  132.1128  121.0593   99.0216 C   0  0  0  0  0
  130.2943  117.3655  100.3139 C   0  0  0  0  0
  129.9076  117.4212  101.7806 C   0  0  0  0  0
  129.0842  117.0151   99.4672 C   0  0  0  0  0
  132.7083  122.2228   98.6085 N   0  0  0  0  0
  136.9452  119.9648   97.4144 N   0  0  0  0  0
  136.5777  122.2536   97.1542 O   0  0  0  0  0
  134.7998  118.7581   98.4404 O   0  0  0  0  0
  1  2  1  0  0  0
  2  3  1  0  0  0
  3  4  1  0  0  0
  4  5  1  0  0  0
  5 29  1  0  0  0
  7  8  1  0  0  0
  7 19  1  0  0  0
  8 30  1  0  0  0
  9 30  1  0  0  0
  9 10  1  0  0  0
 10 11  1  0  0  0
 11 12  1  0  0  0
 12 13  1  0  0  0
 13 14  1  0  0  0
 13 18  1  0  0  0
 14 15  1  0  0  0
 15 16  1  0  0  0
 15 17  1  0  0  0
 16 11  1  0  0  0
 17  9  1  0  0  0
 18  9  1  0  0  0
 19 20  1  0  0  0
 21 22  1  0  0  0
 23 24  1  0  0  0
 25 29  1  0  0  0
 25 20  1  0  0  0
 26 22  1  0  0  0
 26 27  1  0  0  0
 26 28  1  0  0  0
 29  6  1  0  0  0
  6  7  2  0  0  0
  8 31  2  0  0  0
 19 32  2  0  0  0
 20 21  2  0  0  0
 22 23  2  0  0  0
 24 25  2  0  0  0
M  END
> <rmsd>
0.692651689

$$$$
CHEMBL3353431_5ZTY


 29 31  0  0  0  0  0  0  0  0999 V2000
  131.5595  118.6875   99.8247 C   0  0  0  0  0
  130.7606  119.8301   99.9061 C   0  0  0  0  0
  132.5451  121.1903   99.1064 C   0  0  0  0  0
  133.3736  120.0561   99.0136 C   0  0  0  0  0
  132.8753  118.8044   99.3749 C   0  0  0  0  0
  134.6796  120.1951   98.5639 C   0  0  0  0  0
  135.1757  121.4509   98.2038 C   0  0  0  0  0
  134.3188  122.5725   98.3076 C   0  0  0  0  0
  132.1651  123.5969   98.8658 C   0  0  0  0  0
  132.3188  124.2280  100.2413 C   0  0  0  0  0
  131.5038  125.5074  100.3323 C   0  0  0  0  0
  132.1573  126.6084   99.5677 C   0  0  0  0  0
  134.1002  128.1051   99.2621 C   0  0  0  0  0
  133.5229  129.4452   99.6778 C   0  0  0  0  0
  136.5780  121.5483   97.7292 C   0  0  0  0  0
  138.7559  120.3783   97.1637 C   0  0  0  0  0
  139.4589  119.0875   97.6061 C   0  0  0  0  0
  140.5726  118.7007   96.6381 C   0  0  0  0  0
  140.0104  118.4139   95.2400 C   0  0  0  0  0
  138.7822  119.2651   94.8844 C   0  0  0  0  0
  138.7756  120.5930   95.6403 C   0  0  0  0  0
  141.0996  118.6176   94.2070 C   0  0  0  0  0
  131.2627  121.0433   99.5497 N   0  0  0  0  0
  133.0291  122.4216   98.7526 N   0  0  0  0  0
  137.3850  120.3679   97.6529 N   0  0  0  0  0
  134.7396  123.7199   97.9892 O   0  0  0  0  0
  131.5516  127.1301   98.5932 O   0  0  0  0  0
  133.4300  127.0497   99.9400 O   0  0  0  0  0
  137.0693  122.6609   97.3950 O   0  0  0  0  0
  2 23  1  0  0  0
  3  4  1  0  0  0
  4  6  1  0  0  0
  5  1  1  0  0  0
  7  8  1  0  0  0
  7 15  1  0  0  0
  8 24  1  0  0  0
  9 24  1  0  0  0
  9 10  1  0  0  0
 10 11  1  0  0  0
 11 12  1  0  0  0
 12 28  1  0  0  0
 13 28  1  0  0  0
 13 14  1  0  0  0
 15 25  1  0  0  0
 16 25  1  0  0  0
 16 17  1  0  0  0
 17 18  1  0  0  0
 18 19  1  0  0  0
 19 20  1  0  0  0
 19 22  1  0  0  0
 20 21  1  0  0  0
 21 16  1  0  0  0
 24  3  1  0  0  0
  1  2  2  0  0  0
  3 23  2  0  0  0
  4  5  2  0  0  0
  6  7  2  0  0  0
  8 26  2  0  0  0
 12 27  2  0  0  0
 15 29  2  0  0  0
M  END
> <rmsd>
0.731487215

$$$$
CHEMBL3353428_5ZTY


 27 29  0  0  0  0  0  0  0  0999 V2000
  131.3768  118.2966   99.5004 C   0  0  0  0  0
  130.5911  119.4104   99.8045 C   0  0  0  0  0
  132.2654  120.8794   98.9590 C   0  0  0  0  0
  133.0780  119.7752   98.6396 C   0  0  0  0  0
  132.6288  118.4835   98.9136 C   0  0  0  0  0
  134.3189  119.9829   98.0539 C   0  0  0  0  0
  134.7640  121.2779   97.7763 C   0  0  0  0  0
  133.9240  122.3680   98.1064 C   0  0  0  0  0
  131.8556  123.2961   99.0417 C   0  0  0  0  0
  131.9521  123.6103  100.5304 C   0  0  0  0  0
  133.2675  124.2963  100.8703 C   0  0  0  0  0
  133.1437  125.8072  100.7493 C   0  0  0  0  0
  133.2360  126.2434   99.2995 C   0  0  0  0  0
  136.0971  121.4480   97.1481 C   0  0  0  0  0
  138.2180  120.3833   96.2531 C   0  0  0  0  0
  139.2184  120.8843   97.3080 C   0  0  0  0  0
  140.6273  120.3741   97.0233 C   0  0  0  0  0
  140.6805  118.8426   97.0873 C   0  0  0  0  0
  139.3797  118.1624   96.6342 C   0  0  0  0  0
  138.6034  119.0279   95.6424 C   0  0  0  0  0
  141.8442  118.3431   96.2558 C   0  0  0  0  0
  131.0452  120.6635   99.5310 N   0  0  0  0  0
  132.7025  122.1510   98.6945 N   0  0  0  0  0
  136.8873  120.2951   96.8365 N   0  0  0  0  0
  134.2966  123.5480   97.8562 O   0  0  0  0  0
  133.1144  127.6297   99.2229 O   0  0  0  0  0
  136.5423  122.5978   96.8823 O   0  0  0  0  0
  2 22  1  0  0  0
  3  4  1  0  0  0
  4  6  1  0  0  0
  5  1  1  0  0  0
  7  8  1  0  0  0
  7 14  1  0  0  0
  8 23  1  0  0  0
  9 23  1  0  0  0
  9 10  1  0  0  0
 10 11  1  0  0  0
 11 12  1  0  0  0
 12 13  1  0  0  0
 13 26  1  0  0  0
 14 24  1  0  0  0
 15 24  1  0  0  0
 15 16  1  0  0  0
 16 17  1  0  0  0
 17 18  1  0  0  0
 18 19  1  0  0  0
 18 21  1  0  0  0
 19 20  1  0  0  0
 20 15  1  0  0  0
 23  3  1  0  0  0
  1  2  2  0  0  0
  3 22  2  0  0  0
  4  5  2  0  0  0
  6  7  2  0  0  0
  8 25  2  0  0  0
 14 27  2  0  0  0
M  END
> <rmsd>
0.534660876

$$$$
CHEMBL3353432_5ZTY


 29 31  0  0  0  0  0  0  0  0999 V2000
  131.3091  118.5287   99.4422 C   0  0  0  0  0
  130.7737  119.5730  100.1992 C   0  0  0  0  0
  132.6190  120.9768   99.6522 C   0  0  0  0  0
  133.1836  119.9414   98.8837 C   0  0  0  0  0
  132.5232  118.7172   98.7809 C   0  0  0  0  0
  134.3937  120.1486   98.2363 C   0  0  0  0  0
  135.0551  121.3746   98.3451 C   0  0  0  0  0
  134.4643  122.3956   99.1269 C   0  0  0  0  0
  132.6635  123.2605  100.5474 C   0  0  0  0  0
  131.5475  123.9540   99.7716 C   0  0  0  0  0
  132.0977  124.7874   98.6213 C   0  0  0  0  0
  132.7905  126.0476   99.1326 C   0  0  0  0  0
  131.8343  127.1171   99.5697 C   0  0  0  0  0
  131.5107  129.3576  100.5332 C   0  0  0  0  0
  136.3474  121.5463   97.6369 C   0  0  0  0  0
  138.1621  120.5455   96.1749 C   0  0  0  0  0
  139.3125  120.5001   97.1935 C   0  0  0  0  0
  140.6035  120.0023   96.5480 C   0  0  0  0  0
  140.4484  118.5808   95.9866 C   0  0  0  0  0
  139.0024  118.2168   95.6278 C   0  0  0  0  0
  138.2424  119.4370   95.1145 C   0  0  0  0  0
  140.9911  117.5710   96.9768 C   0  0  0  0  0
  131.4310  120.7608  100.2882 N   0  0  0  0  0
  133.2622  122.1824   99.7547 N   0  0  0  0  0
  136.8850  120.4641   96.8686 N   0  0  0  0  0
  135.0458  123.5096   99.2519 O   0  0  0  0  0
  130.5865  126.9586   99.4575 O   0  0  0  0  0
  132.3515  128.2993  100.0991 O   0  0  0  0  0
  136.9766  122.6376   97.7001 O   0  0  0  0  0
  2 23  1  0  0  0
  3  4  1  0  0  0
  4  6  1  0  0  0
  5  1  1  0  0  0
  7  8  1  0  0  0
  7 15  1  0  0  0
  8 24  1  0  0  0
  9 24  1  0  0  0
  9 10  1  0  0  0
 10 11  1  0  0  0
 11 12  1  0  0  0
 12 13  1  0  0  0
 13 28  1  0  0  0
 14 28  1  0  0  0
 15 25  1  0  0  0
 16 25  1  0  0  0
 16 17  1  0  0  0
 17 18  1  0  0  0
 18 19  1  0  0  0
 19 20  1  0  0  0
 19 22  1  0  0  0
 20 21  1  0  0  0
 21 16  1  0  0  0
 24  3  1  0  0  0
  1  2  2  0  0  0
  3 23  2  0  0  0
  4  5  2  0  0  0
  6  7  2  0  0  0
  8 26  2  0  0  0
 13 27  2  0  0  0
 15 29  2  0  0  0
M  END
> <rmsd>
0.654964089

$$$$
CHEMBL497304_8GUT


 29 32  0  0  0  0  0  0  0  0999 V2000
  130.1488  124.8773  101.3238 C   0  0  0  0  0
  131.3910  124.6721  100.5346 C   0  0  0  0  0
  131.8431  125.6738   99.6752 C   0  0  0  0  0
  133.0103  125.4674   98.9403 C   0  0  0  0  0
  133.7171  124.2648   99.0670 C   0  0  0  0  0
  134.8943  124.0264   98.3409 C   0  0  0  0  0
  135.5725  122.7994   98.4996 C   0  0  0  0  0
  136.8180  122.4662   97.7671 C   0  0  0  0  0
  138.6417  120.7780   97.2595 C   0  0  0  0  0
  139.2941  119.5986   97.9963 C   0  0  0  0  0
  138.8499  118.2578   97.4167 C   0  0  0  0  0
  139.2501  118.1288   95.9406 C   0  0  0  0  0
  139.2849  119.4697   95.1944 C   0  0  0  0  0
  138.2961  120.4645   95.7943 C   0  0  0  0  0
  135.0423  121.8522   99.3840 C   0  0  0  0  0
  133.4067  121.0435  100.9706 C   0  0  0  0  0
  132.5262  120.0986  100.2223 C   0  0  0  0  0
  131.1491  120.3346  100.1466 C   0  0  0  0  0
  130.3282  119.4636   99.4239 C   0  0  0  0  0
  130.8841  118.3582   98.7724 C   0  0  0  0  0
  132.2611  118.1251   98.8413 C   0  0  0  0  0
  133.0821  118.9960   99.5640 C   0  0  0  0  0
  133.2276  123.2740   99.9461 C   0  0  0  0  0
  135.3353  124.9086   97.5533 O   0  0  0  0  0
  137.3355  123.2928   96.9672 O   0  0  0  0  0
  137.4422  121.1937   97.9716 N   0  0  0  0  0
  133.9006  122.0924  100.0839 N   0  0  0  0  0
  132.0839  123.5083  100.6515 N   0  0  0  0  0
  130.0888  117.5145   98.0723 F   0  0  0  0  0
  1  2  1  0  0  0
  2 28  1  0  0  0
  3  4  1  0  0  0
  5  6  1  0  0  0
  6  7  1  0  0  0
  7  8  1  0  0  0
  8 26  1  0  0  0
  9 26  1  0  0  0
  9 10  1  0  0  0
 10 11  1  0  0  0
 11 12  1  0  0  0
 12 13  1  0  0  0
 13 14  1  0  0  0
 14  9  1  0  0  0
 15 27  1  0  0  0
 16 27  1  0  0  0
 16 17  1  0  0  0
 18 19  1  0  0  0
 20 29  1  0  0  0
 20 21  1  0  0  0
 22 17  1  0  0  0
 23  5  1  0  0  0
 27 23  1  0  0  0
  2  3  2  0  0  0
  4  5  2  0  0  0
  6 24  2  0  0  0
  7 15  2  0  0  0
  8 25  2  0  0  0
 17 18  2  0  0  0
 19 20  2  0  0  0
 21 22  2  0  0  0
 23 28  2  0  0  0
M  END
> <rmsd>
0.349367917

$$$$
CHEMBL3354952_8GUQ


 25 28  0  0  0  0  0  0  0  0999 V2000
  139.4856  120.8939   97.4152 C   0  0  0  0  0
  138.5015  120.3625   96.3891 C   0  0  0  0  0
  138.7634  118.8795   96.2072 C   0  0  0  0  0
  138.7191  121.0862   95.0628 C   0  0  0  0  0
  136.5278  121.8139   97.1599 C   0  0  0  0  0
  135.1380  121.8613   97.6295 C   0  0  0  0  0
  133.2920  122.5108   98.5767 C   0  0  0  0  0
  134.4444  122.9749   98.0593 C   0  0  0  0  0
  134.9015  124.2145   98.7168 C   0  0  0  0  0
  133.8569  124.4362   99.8365 C   0  0  0  0  0
  132.7906  123.3309   99.7102 C   0  0  0  0  0
  132.4860  124.7520   99.2625 C   0  0  0  0  0
  132.3025  120.2607   99.0288 C   0  0  0  0  0
  130.9450  120.6160   99.1687 C   0  0  0  0  0
  130.0366  119.7083   99.7217 C   0  0  0  0  0
  130.4657  118.4452  100.1345 C   0  0  0  0  0
  131.8040  118.0788   99.9819 C   0  0  0  0  0
  132.7160  118.9809   99.4287 C   0  0  0  0  0
  137.7975  120.6585   94.1036 O   0  0  0  0  0
  137.1804  122.8826   97.0124 O   0  0  0  0  0
  137.1315  120.5473   96.8657 N   0  0  0  0  0
  134.3867  120.7648   97.8730 N   0  0  0  0  0
  133.2632  121.1660   98.4582 N   0  0  0  0  0
  129.5811  117.5712  100.6711 F   0  0  0  0  0
  130.4856  121.8142   98.7318 F   0  0  0  0  0
  1  2  1  0  0  0
  2  3  1  0  0  0
  2  4  1  0  0  0
  2 21  1  0  0  0
  4 19  1  0  0  0
  5  6  1  0  0  0
  8  6  1  0  0  0
  9  8  1  0  0  0
 10  9  1  0  0  0
 10 11  1  0  0  0
 11 12  1  0  0  0
 11  7  1  0  0  0
 12 10  1  0  0  0
 14 15  1  0  0  0
 14 25  1  0  0  0
 16 17  1  0  0  0
 16 24  1  0  0  0
 18 13  1  0  0  0
 21  5  1  0  0  0
 23 22  1  0  0  0
 23  7  1  0  0  0
 23 13  1  0  0  0
  5 20  2  0  0  0
  6 22  2  0  0  0
  7  8  2  0  0  0
 13 14  2  0  0  0
 15 16  2  0  0  0
 17 18  2  0  0  0
M  END
> <rmsd>
0.400333375

$$$$
CHEMBL3354971_8GUQ


 25 28  0  0  0  0  0  0  0  0999 V2000
  139.4814  120.9923   97.2394 C   0  0  0  0  0
  138.4728  120.3220   96.3236 C   0  0  0  0  0
  138.7367  118.8328   96.3565 C   0  0  0  0  0
  136.5223  121.8124   97.1405 C   0  0  0  0  0
  135.1310  121.8623   97.6102 C   0  0  0  0  0
  133.3023  122.5107   98.5919 C   0  0  0  0  0
  134.4448  122.9727   98.0591 C   0  0  0  0  0
  134.8912  124.2382   98.6732 C   0  0  0  0  0
  133.8399  124.4867   99.7837 C   0  0  0  0  0
  132.7966  123.3543   99.7062 C   0  0  0  0  0
  132.4597  124.7493   99.2055 C   0  0  0  0  0
  132.3103  120.2537   99.0429 C   0  0  0  0  0
  132.7113  118.9453   99.3504 C   0  0  0  0  0
  131.8062  118.0322   99.8963 C   0  0  0  0  0
  130.4898  118.4163  100.1446 C   0  0  0  0  0
  130.0731  119.7103   99.8306 C   0  0  0  0  0
  130.9718  120.6289   99.2782 C   0  0  0  0  0
  138.6535  120.7859   94.8800 C   0  0  0  0  0
  137.1061  120.5481   96.7916 N   0  0  0  0  0
  134.3786  120.7664   97.8602 N   0  0  0  0  0
  133.2669  121.1651   98.4722 N   0  0  0  0  0
  137.1997  122.8727   97.0706 O   0  0  0  0  0
  138.4398  122.1566   94.7413 O   0  0  0  0  0
  130.5107  121.8512   98.9192 F   0  0  0  0  0
  132.2139  116.7787  100.2073 F   0  0  0  0  0
  1  2  1  0  0  0
  2  3  1  0  0  0
  2 19  1  0  0  0
  2 18  1  0  0  0
  4  5  1  0  0  0
  7  5  1  0  0  0
  8  7  1  0  0  0
  9  8  1  0  0  0
  9 10  1  0  0  0
 10 11  1  0  0  0
 10  6  1  0  0  0
 11  9  1  0  0  0
 13 14  1  0  0  0
 14 25  1  0  0  0
 15 16  1  0  0  0
 17 24  1  0  0  0
 17 12  1  0  0  0
 18 23  1  0  0  0
 19  4  1  0  0  0
 21 20  1  0  0  0
 21  6  1  0  0  0
 21 12  1  0  0  0
  4 22  2  0  0  0
  5 20  2  0  0  0
  6  7  2  0  0  0
 12 13  2  0  0  0
 14 15  2  0  0  0
 16 17  2  0  0  0
M  END
> <rmsd>
0.402674079

$$$$
CHEMBL3353842_6PT0


 30 34  0  0  0  0  0  0  0  0999 V2000
  133.3765  125.1828   98.7904 C   0  0  0  0  0
  134.5214  124.6992   99.6524 C   0  0  0  0  0
  134.0417  123.4030  100.2612 C   0  0  0  0  0
  133.0975  122.8040   99.2380 C   0  0  0  0  0
  132.6292  123.9403   98.3441 C   0  0  0  0  0
  131.9406  122.1246   99.9057 C   0  0  0  0  0
  130.7505  119.9416  100.3038 C   0  0  0  0  0
  129.8086  120.3226  101.2624 C   0  0  0  0  0
  128.9313  119.3380  101.7526 C   0  0  0  0  0
  129.0063  118.0070  101.2868 C   0  0  0  0  0
  129.9600  117.6359  100.3229 C   0  0  0  0  0
  130.8135  118.6308   99.8570 C   0  0  0  0  0
  131.8312  118.6065   98.9421 C   0  0  0  0  0
  132.3388  119.8692   98.8655 C   0  0  0  0  0
  133.8703  119.1414   97.2655 C   0  0  0  0  0
  136.4609  119.1650   97.4368 C   0  0  0  0  0
  137.8076  119.6352   96.9893 C   0  0  0  0  0
  138.7779  118.6745   96.6839 C   0  0  0  0  0
  140.0551  119.0651   96.2735 C   0  0  0  0  0
  140.3717  120.4215   96.1716 C   0  0  0  0  0
  139.4126  121.3883   96.4840 C   0  0  0  0  0
  138.1316  121.0058   96.8959 C   0  0  0  0  0
  137.1773  122.0337   97.2261 C   0  0  0  0  0
  131.1844  122.7961  100.6602 O   0  0  0  0  0
  131.6909  120.7207   99.6992 N   0  0  0  0  0
  133.3611  120.1569   98.0253 N   0  0  0  0  0
  133.3459  117.8759   97.3614 N   0  0  0  0  0
  132.3313  117.6011   98.1915 N   0  0  0  0  0
  136.4098  122.8585   97.4901 N   0  0  0  0  0
  135.2193  119.4649   96.1420 S   0  0  0  0  0
  1  2  1  0  0  0
  2  3  1  0  0  0
  3  4  1  0  0  0
  4  5  1  0  0  0
  4  6  1  0  0  0
  5  1  1  0  0  0
  6 25  1  0  0  0
  8  9  1  0  0  0
 10 11  1  0  0  0
 12 13  1  0  0  0
 12  7  1  0  0  0
 13 28  1  0  0  0
 14 26  1  0  0  0
 14 25  1  0  0  0
 15 27  1  0  0  0
 15 30  1  0  0  0
 16 30  1  0  0  0
 16 17  1  0  0  0
 18 19  1  0  0  0
 20 21  1  0  0  0
 22 23  1  0  0  0
 22 17  1  0  0  0
 25  7  1  0  0  0
  6 24  2  0  0  0
  7  8  2  0  0  0
  9 10  2  0  0  0
 11 12  2  0  0  0
 13 14  2  0  0  0
 15 26  2  0  0  0
 17 18  2  0  0  0
 19 20  2  0  0  0
 21 22  2  0  0  0
 27 28  2  0  0  0
 23 29  3  0  0  0
M  END
> <rmsd>
0.614917517

$$$$
CHEMBL235732_5ZTY


 32 36  0  0  0  0  0  0  0  0999 V2000
  130.9503  125.9756  101.5645 C   0  0  0  0  0
  131.2039  124.4968  101.3413 C   0  0  0  0  0
  132.6497  124.2615  100.9315 C   0  0  0  0  0
  132.8976  124.6938   99.4912 C   0  0  0  0  0
  132.2474  123.7308   98.5023 C   0  0  0  0  0
  134.1864  122.3627   98.0246 C   0  0  0  0  0
  134.8968  121.1569   97.9845 C   0  0  0  0  0
  136.2786  121.1690   97.4421 C   0  0  0  0  0
  138.4165  119.8743   96.8591 C   0  0  0  0  0
  139.3639  120.7606   97.6914 C   0  0  0  0  0
  140.7991  120.6487   97.1537 C   0  0  0  0  0
  141.2598  119.1853   97.2486 C   0  0  0  0  0
  140.3269  118.2883   96.4196 C   0  0  0  0  0
  140.7831  116.8485   96.5199 C   0  0  0  0  0
  140.3624  118.7405   94.9513 C   0  0  0  0  0
  139.8963  120.2010   94.8447 C   0  0  0  0  0
  139.9330  120.6428   93.3975 C   0  0  0  0  0
  140.8260  121.0944   95.6822 C   0  0  0  0  0
  138.4616  120.3138   95.3826 C   0  0  0  0  0
  138.8915  118.4145   96.9558 C   0  0  0  0  0
  134.2650  119.9891   98.4609 C   0  0  0  0  0
  132.9524  120.0613   98.9541 C   0  0  0  0  0
  132.2983  118.9140   99.4294 C   0  0  0  0  0
  130.9923  118.9938   99.9158 C   0  0  0  0  0
  130.3260  120.2196   99.9317 C   0  0  0  0  0
  130.9650  121.3687   99.4622 C   0  0  0  0  0
  132.2809  121.3076   98.9697 C   0  0  0  0  0
  132.9177  122.4308   98.5132 N   0  0  0  0  0
  137.0537  119.9636   97.3742 N   0  0  0  0  0
  136.7772  122.2548   97.0358 O   0  0  0  0  0
  134.8668  118.8797   98.4469 O   0  0  0  0  0
  130.1900  117.5547  100.5053 Cl  0  0  0  0  0
  1  2  1  0  0  0
  2  3  1  0  0  0
  3  4  1  0  0  0
  4  5  1  0  0  0
  5 28  1  0  0  0
  7  8  1  0  0  0
  7 21  1  0  0  0
  8 29  1  0  0  0
  9 29  1  0  0  0
  9 10  1  0  0  0
 11 10  1  0  0  0
 11 12  1  0  0  0
 12 13  1  0  0  0
 13 14  1  0  0  0
 13 15  1  0  0  0
 13 20  1  0  0  0
 15 16  1  0  0  0
 16 17  1  0  0  0
 16 18  1  0  0  0
 16 19  1  0  0  0
 18 11  1  0  0  0
 19  9  1  0  0  0
 20  9  1  0  0  0
 21 22  1  0  0  0
 23 24  1  0  0  0
 24 32  1  0  0  0
 25 26  1  0  0  0
 27 28  1  0  0  0
 27 22  1  0  0  0
 28  6  1  0  0  0
  6  7  2  0  0  0
  8 30  2  0  0  0
 21 31  2  0  0  0
 22 23  2  0  0  0
 24 25  2  0  0  0
 26 27  2  0  0  0
M  END
> <rmsd>
0.839217424

$$$$
CHEMBL575193_5ZTY


 30 33  0  0  0  0  0  0  0  0999 V2000
  135.5656  124.3432   98.3352 C   0  0  0  0  0
  134.8520  123.0344   98.2792 C   0  0  0  0  0
  135.1562  121.9334   97.4944 C   0  0  0  0  0
  136.2993  121.7777   96.5819 C   0  0  0  0  0
  137.5813  120.3061   94.9631 C   0  0  0  0  0
  138.7858  119.9532   95.7683 C   0  0  0  0  0
  139.7896  120.9049   95.9793 C   0  0  0  0  0
  140.9118  120.5805   96.7474 C   0  0  0  0  0
  141.0306  119.3047   97.3072 C   0  0  0  0  0
  140.0270  118.3534   97.1001 C   0  0  0  0  0
  138.9045  118.6776   96.3321 C   0  0  0  0  0
  132.2406  120.6307   99.0298 C   0  0  0  0  0
  131.6619  119.6658   98.1947 C   0  0  0  0  0
  130.6321  118.8482   98.6663 C   0  0  0  0  0
  130.1759  118.9774   99.9811 C   0  0  0  0  0
  130.7639  119.9281  100.8321 C   0  0  0  0  0
  131.7955  120.7412  100.3551 C   0  0  0  0  0
  133.6816  122.6869   98.9270 C   0  0  0  0  0
  133.3689  124.4742  100.6065 C   0  0  0  0  0
  132.3142  125.1743  101.1587 C   0  0  0  0  0
  131.1578  124.6697  100.5861 C   0  0  0  0  0
  131.5502  123.6809   99.7057 C   0  0  0  0  0
  137.1437  122.7052   96.4547 O   0  0  0  0  0
  136.4450  120.5657   95.8368 N   0  0  0  0  0
  134.2198  120.9796   97.6772 N   0  0  0  0  0
  133.3282  121.4354   98.5461 N   0  0  0  0  0
  132.8887  123.5659   99.7407 N   0  0  0  0  0
  142.4354  118.8989   98.2689 Cl  0  0  0  0  0
  128.8775  117.9308  100.5304 Cl  0  0  0  0  0
  130.2379  120.1252  102.4954 Cl  0  0  0  0  0
  1  2  1  0  0  0
  2  3  1  0  0  0
  3  4  1  0  0  0
  4 24  1  0  0  0
  5 24  1  0  0  0
  5  6  1  0  0  0
  7  8  1  0  0  0
  9 28  1  0  0  0
  9 10  1  0  0  0
 11  6  1  0  0  0
 13 14  1  0  0  0
 15 29  1  0  0  0
 15 16  1  0  0  0
 16 30  1  0  0  0
 17 12  1  0  0  0
 18 27  1  0  0  0
 20 21  1  0  0  0
 22 27  1  0  0  0
 26 25  1  0  0  0
 26 12  1  0  0  0
 26 18  1  0  0  0
 27 19  1  0  0  0
  3 25  2  0  0  0
  4 23  2  0  0  0
  6  7  2  0  0  0
  8  9  2  0  0  0
 10 11  2  0  0  0
 12 13  2  0  0  0
 14 15  2  0  0  0
 16 17  2  0  0  0
 18  2  2  0  0  0
 19 20  2  0  0  0
 21 22  2  0  0  0
M  END
> <rmsd>
0.801935732

$$$$
CHEMBL3116288_5ZTY


 27 30  0  0  0  0  0  0  0  0999 V2000
  140.6567  119.8287   96.2321 C   0  0  0  0  0
  140.3499  120.5599   97.5468 C   0  0  0  0  0
  139.1415  121.4801   97.4045 C   0  0  0  0  0
  137.8790  120.6774   97.0549 C   0  0  0  0  0
  138.1583  119.4651   96.1520 C   0  0  0  0  0
  139.4304  119.6507   95.3273 C   0  0  0  0  0
  136.8533  121.5804   96.3934 C   0  0  0  0  0
  135.0304  122.6060   97.6778 C   0  0  0  0  0
  133.1498  123.1776   98.6068 C   0  0  0  0  0
  134.4779  123.4935   98.5731 C   0  0  0  0  0
  135.0240  124.5104   99.3480 C   0  0  0  0  0
  134.1475  125.2305  100.1917 C   0  0  0  0  0
  132.7686  124.8969  100.2247 C   0  0  0  0  0
  132.2518  123.8588   99.4262 C   0  0  0  0  0
  131.6443  121.4857   97.5296 C   0  0  0  0  0
  131.4259  120.4218   98.5506 C   0  0  0  0  0
  132.0620  119.1816   98.4227 C   0  0  0  0  0
  131.8708  118.1940   99.3944 C   0  0  0  0  0
  131.0479  118.4473  100.4966 C   0  0  0  0  0
  130.4169  119.6882  100.6280 C   0  0  0  0  0
  130.6074  120.6757   99.6566 C   0  0  0  0  0
  136.3771  122.5415   97.3237 O   0  0  0  0  0
  135.8549  126.6058  100.9825 O   0  0  0  0  0
  133.8034  126.9648  101.8702 O   0  0  0  0  0
  134.0609  121.7916   97.1934 N   0  0  0  0  0
  132.9164  122.1548   97.7631 N   0  0  0  0  0
  134.6478  126.2885  101.0194 N   0  0  0  0  0
  1  2  1  0  0  0
  2  3  1  0  0  0
  3  4  1  0  0  0
  4  5  1  0  0  0
  4  7  1  0  0  0
  5  6  1  0  0  0
  6  1  1  0  0  0
  7 22  1  0  0  0
  8 22  1  0  0  0
 10 11  1  0  0  0
 10  8  1  0  0  0
 12 13  1  0  0  0
 12 27  1  0  0  0
 14  9  1  0  0  0
 15 26  1  0  0  0
 15 16  1  0  0  0
 17 18  1  0  0  0
 19 20  1  0  0  0
 21 16  1  0  0  0
 26 25  1  0  0  0
 26  9  1  0  0  0
 27 24  1  0  0  0
  8 25  2  0  0  0
  9 10  2  0  0  0
 11 12  2  0  0  0
 13 14  2  0  0  0
 16 17  2  0  0  0
 18 19  2  0  0  0
 20 21  2  0  0  0
 27 23  2  0  0  0
M  CHG  2  27   1  24  -1
M  END
> <rmsd>
0.713421643

$$$$
CHEMBL3353440_8GUT


 30 33  0  0  0  0  0  0  0  0999 V2000
  132.0133  125.6684   99.5707 C   0  0  0  0  0
  131.4650  124.7414  100.4594 C   0  0  0  0  0
  133.1950  123.1799   99.9649 C   0  0  0  0  0
  133.7710  124.0966   99.0654 C   0  0  0  0  0
  133.1746  125.3421   98.8703 C   0  0  0  0  0
  134.9281  123.7519   98.3814 C   0  0  0  0  0
  135.5267  122.5045   98.5809 C   0  0  0  0  0
  134.9249  121.6046   99.4933 C   0  0  0  0  0
  133.1541  120.9974  101.0788 C   0  0  0  0  0
  132.1780  120.1291  100.3551 C   0  0  0  0  0
  132.6059  118.9358   99.7626 C   0  0  0  0  0
  131.6967  118.1337   99.0661 C   0  0  0  0  0
  130.3590  118.5257   98.9582 C   0  0  0  0  0
  129.9305  119.7204   99.5449 C   0  0  0  0  0
  130.8397  120.5223  100.2413 C   0  0  0  0  0
  136.7638  122.1874   97.8227 C   0  0  0  0  0
  138.6115  120.5572   97.2269 C   0  0  0  0  0
  138.2534  120.2645   95.7700 C   0  0  0  0  0
  139.5062  119.9508   94.9413 C   0  0  0  0  0
  140.6292  119.2925   95.7543 C   0  0  0  0  0
  140.0738  118.4684   96.9124 C   0  0  0  0  0
  139.2778  119.3439   97.8901 C   0  0  0  0  0
  141.4659  118.4135   94.8492 C   0  0  0  0  0
  132.0601  123.5311  100.6367 N   0  0  0  0  0
  133.7751  121.9541  100.1581 N   0  0  0  0  0
  137.4187  120.9237   97.9750 N   0  0  0  0  0
  135.4460  120.4740   99.7022 O   0  0  0  0  0
  137.2475  123.0451   97.0330 O   0  0  0  0  0
  129.4782  117.7488   98.2835 F   0  0  0  0  0
  131.1834  127.3644   99.3179 Br  0  0  0  0  0
  1 30  1  0  0  0
  2 24  1  0  0  0
  3  4  1  0  0  0
  4  6  1  0  0  0
  5  1  1  0  0  0
  7  8  1  0  0  0
  7 16  1  0  0  0
  8 25  1  0  0  0
  9 25  1  0  0  0
  9 10  1  0  0  0
 11 12  1  0  0  0
 13 14  1  0  0  0
 13 29  1  0  0  0
 15 10  1  0  0  0
 16 26  1  0  0  0
 17 26  1  0  0  0
 17 18  1  0  0  0
 18 19  1  0  0  0
 19 20  1  0  0  0
 20 21  1  0  0  0
 20 23  1  0  0  0
 21 22  1  0  0  0
 22 17  1  0  0  0
 25  3  1  0  0  0
  1  2  2  0  0  0
  3 24  2  0  0  0
  4  5  2  0  0  0
  6  7  2  0  0  0
  8 27  2  0  0  0
 10 11  2  0  0  0
 12 13  2  0  0  0
 14 15  2  0  0  0
 16 28  2  0  0  0
M  END
> <rmsd>
0.334276766

$$$$
CHEMBL3421694_5ZTY


 24 26  0  0  0  0  0  0  0  0999 V2000
  132.7682  122.3243   98.6311 N   0  0  0  0  0
  135.7997  119.5697   98.4093 N   0  0  0  0  0
  136.7704  120.3676   97.9684 N   0  0  0  0  0
  134.0258  122.6673   98.2081 C   0  0  0  0  0
  134.9942  121.6811   98.1659 C   0  0  0  0  0
  134.7004  120.3391   98.5468 C   0  0  0  0  0
  133.4271  119.9918   98.9683 C   0  0  0  0  0
  132.4463  121.0273   99.0050 C   0  0  0  0  0
  131.1464  120.6955   99.4258 C   0  0  0  0  0
  130.8288  119.3862   99.7993 C   0  0  0  0  0
  131.8029  118.3850   99.7585 C   0  0  0  0  0
  133.1020  118.6847   99.3433 C   0  0  0  0  0
  136.3150  121.6331   97.8075 C   0  0  0  0  0
  138.1120  119.9006   97.6578 C   0  0  0  0  0
  138.1621  119.3904   96.2277 C   0  0  0  0  0
  139.5723  118.9444   95.8727 C   0  0  0  0  0
  140.4950  120.1363   95.6664 C   0  0  0  0  0
  140.1914  120.8199   94.3465 C   0  0  0  0  0
  131.7722  123.3929   98.6730 C   0  0  0  0  0
  131.6445  123.9633  100.0822 C   0  0  0  0  0
  132.8710  124.7811  100.4683 C   0  0  0  0  0
  132.9161  126.1029   99.7171 C   0  0  0  0  0
  131.8897  127.0675  100.2804 C   0  0  0  0  0
  137.0082  122.5985   97.3892 O   0  0  0  0  0
  1  4  1  0  0  0
  3  2  1  0  0  0
  3 13  1  0  0  0
  5  6  1  0  0  0
  6  7  1  0  0  0
  8  9  1  0  0  0
  8  1  1  0  0  0
 10 11  1  0  0  0
 12  7  1  0  0  0
 13  5  1  0  0  0
 14  3  1  0  0  0
 14 15  1  0  0  0
 15 16  1  0  0  0
 16 17  1  0  0  0
 17 18  1  0  0  0
 19  1  1  0  0  0
 19 20  1  0  0  0
 20 21  1  0  0  0
 21 22  1  0  0  0
 22 23  1  0  0  0
  4  5  2  0  0  0
  6  2  2  0  0  0
  7  8  2  0  0  0
  9 10  2  0  0  0
 11 12  2  0  0  0
 13 24  2  0  0  0
M  END
> <rmsd>
0.592718422

$$$$
CHEMBL2336573_5ZTY


 30 32  0  0  0  0  0  0  0  0999 V2000
  141.0344  122.0759   94.1747 C   0  0  0  0  0
  141.3360  120.6120   94.4390 C   0  0  0  0  0
  139.8182  118.9131   93.4449 C   0  0  0  0  0
  138.6693  119.4220   92.5936 C   0  0  0  0  0
  139.2643  119.9011   95.7079 C   0  0  0  0  0
  138.1093  119.1070   95.8056 C   0  0  0  0  0
  137.3044  119.1575   96.9465 C   0  0  0  0  0
  137.6398  120.0071   98.0057 C   0  0  0  0  0
  138.7962  120.7887   97.9262 C   0  0  0  0  0
  139.6007  120.7381   96.7852 C   0  0  0  0  0
  136.7861  120.0582   99.2425 C   0  0  0  0  0
  134.7040  120.4168   98.0704 C   0  0  0  0  0
  133.4326  119.9049   98.6548 C   0  0  0  0  0
  133.1122  118.5489   98.5357 C   0  0  0  0  0
  131.9159  118.0622   99.0717 C   0  0  0  0  0
  131.0368  118.9321   99.7245 C   0  0  0  0  0
  131.3528  120.2891   99.8400 C   0  0  0  0  0
  132.5486  120.7756   99.3041 C   0  0  0  0  0
  134.5732  123.5589   99.1523 C   0  0  0  0  0
  133.7957  124.0464   98.0954 C   0  0  0  0  0
  132.6528  124.8071   98.3590 C   0  0  0  0  0
  132.2831  125.0784   99.6798 C   0  0  0  0  0
  133.0557  124.5884  100.7370 C   0  0  0  0  0
  134.1986  123.8277  100.4734 C   0  0  0  0  0
  131.0675  125.8856   99.9600 C   0  0  0  0  0
  140.0961  119.8492   94.5284 N   0  0  0  0  0
  135.5849  120.9013   99.1280 N   0  0  0  0  0
  135.9850  122.5693   98.8283 S   0  0  0  0  0
  136.4107  122.7603   97.3978 O   0  0  0  0  0
  137.1052  123.0029   99.7328 O   0  0  0  0  0
  1  2  1  0  0  0
  2 26  1  0  0  0
  3 26  1  0  0  0
  3  4  1  0  0  0
  6  7  1  0  0  0
  8  9  1  0  0  0
 10  5  1  0  0  0
 11  8  1  0  0  0
 11 27  1  0  0  0
 12 27  1  0  0  0
 12 13  1  0  0  0
 14 15  1  0  0  0
 16 17  1  0  0  0
 18 13  1  0  0  0
 20 21  1  0  0  0
 22 23  1  0  0  0
 24 19  1  0  0  0
 25 22  1  0  0  0
 26  5  1  0  0  0
 28 27  1  0  0  0
 28 19  1  0  0  0
  5  6  2  0  0  0
  7  8  2  0  0  0
  9 10  2  0  0  0
 13 14  2  0  0  0
 15 16  2  0  0  0
 17 18  2  0  0  0
 19 20  2  0  0  0
 21 22  2  0  0  0
 23 24  2  0  0  0
 28 29  2  0  0  0
 28 30  2  0  0  0
M  END
> <rmsd>
0.737370908

$$$$
CHEMBL3353427_5ZTY


 26 28  0  0  0  0  0  0  0  0999 V2000
  131.2133  118.6753   99.7221 C   0  0  0  0  0
  130.4437  119.8364   99.8220 C   0  0  0  0  0
  132.1974  121.1358   98.8671 C   0  0  0  0  0
  132.9950  119.9815   98.7523 C   0  0  0  0  0
  132.4978  118.7515   99.1827 C   0  0  0  0  0
  134.2691  120.0788   98.2103 C   0  0  0  0  0
  134.7626  121.3118   97.7760 C   0  0  0  0  0
  133.9368  122.4542   97.9026 C   0  0  0  0  0
  131.8501  123.5474   98.5812 C   0  0  0  0  0
  131.8745  124.0721  100.0108 C   0  0  0  0  0
  133.2174  124.7077  100.3258 C   0  0  0  0  0
  133.2378  125.2086  101.7575 C   0  0  0  0  0
  136.1298  121.3642   97.2025 C   0  0  0  0  0
  138.2625  120.1430   96.5812 C   0  0  0  0  0
  139.2300  120.7593   97.6051 C   0  0  0  0  0
  140.6579  120.2042   97.5132 C   0  0  0  0  0
  140.9935  119.7688   96.0899 C   0  0  0  0  0
  140.0557  118.6544   95.6057 C   0  0  0  0  0
  138.6590  118.7099   96.2394 C   0  0  0  0  0
  142.4290  119.2935   96.0197 C   0  0  0  0  0
  130.9445  121.0281   99.3977 N   0  0  0  0  0
  132.6816  122.3473   98.4484 N   0  0  0  0  0
  136.9042  120.1638   97.1024 N   0  0  0  0  0
  134.3537  123.5797   97.5101 O   0  0  0  0  0
  132.4036  126.3195  101.8864 O   0  0  0  0  0
  136.6178  122.4549   96.7986 O   0  0  0  0  0
  2 21  1  0  0  0
  3  4  1  0  0  0
  4  6  1  0  0  0
  5  1  1  0  0  0
  7  8  1  0  0  0
  7 13  1  0  0  0
  8 22  1  0  0  0
  9 22  1  0  0  0
  9 10  1  0  0  0
 10 11  1  0  0  0
 11 12  1  0  0  0
 12 25  1  0  0  0
 13 23  1  0  0  0
 14 23  1  0  0  0
 14 15  1  0  0  0
 15 16  1  0  0  0
 16 17  1  0  0  0
 17 18  1  0  0  0
 17 20  1  0  0  0
 18 19  1  0  0  0
 19 14  1  0  0  0
 22  3  1  0  0  0
  1  2  2  0  0  0
  3 21  2  0  0  0
  4  5  2  0  0  0
  6  7  2  0  0  0
  8 24  2  0  0  0
 13 26  2  0  0  0
M  END
> <rmsd>
0.667785883

$$$$
CHEMBL2019090_8GUT


 30 32  0  0  0  0  0  0  0  0999 V2000
  132.1314  123.0455  102.6751 C   0  0  0  0  0
  131.8056  122.9256  101.1980 C   0  0  0  0  0
  133.0564  122.6696  100.4013 C   0  0  0  0  0
  133.5699  123.6937   99.5896 C   0  0  0  0  0
  132.9108  125.0286   99.4884 C   0  0  0  0  0
  134.7308  123.4697   98.8616 C   0  0  0  0  0
  135.3923  122.2425   98.9226 C   0  0  0  0  0
  136.6312  122.0671   98.1227 C   0  0  0  0  0
  138.5643  120.5416   97.3762 C   0  0  0  0  0
  139.6597  121.4695   97.8545 C   0  0  0  0  0
  138.2753  120.7066   95.8696 C   0  0  0  0  0
  139.4264  120.2097   94.9938 C   0  0  0  0  0
  139.7374  118.7529   95.3086 C   0  0  0  0  0
  140.1141  118.6123   96.7770 C   0  0  0  0  0
  138.9589  119.0837   97.6600 C   0  0  0  0  0
  134.8472  121.2274   99.7398 C   0  0  0  0  0
  133.1242  120.3581  101.2442 C   0  0  0  0  0
  132.2130  119.5155  100.4124 C   0  0  0  0  0
  132.7201  118.4145   99.7131 C   0  0  0  0  0
  131.8718  117.6371   98.9190 C   0  0  0  0  0
  130.5153  117.9611   98.8205 C   0  0  0  0  0
  130.0074  119.0633   99.5149 C   0  0  0  0  0
  130.8558  119.8406  100.3089 C   0  0  0  0  0
  137.0656  123.0294   97.4312 O   0  0  0  0  0
  140.0226  121.4422   99.0608 O   0  0  0  0  0
  140.2637  122.3730   96.9867 O   0  0  0  0  0
  135.4238  120.1074   99.8241 O   0  0  0  0  0
  137.3389  120.8184   98.1238 N   0  0  0  0  0
  133.6918  121.4513  100.4472 N   0  0  0  0  0
  129.6933  117.2080   98.0513 F   0  0  0  0  0
  1  2  1  0  0  0
  2  3  1  0  0  0
  4  6  1  0  0  0
  5  4  1  0  0  0
  7  8  1  0  0  0
  7 16  1  0  0  0
  8 28  1  0  0  0
  9 28  1  0  0  0
  9 10  1  0  0  0
  9 11  1  0  0  0
 10 26  1  0  0  0
 11 12  1  0  0  0
 12 13  1  0  0  0
 13 14  1  0  0  0
 14 15  1  0  0  0
 15  9  1  0  0  0
 16 29  1  0  0  0
 17 29  1  0  0  0
 17 18  1  0  0  0
 19 20  1  0  0  0
 21 30  1  0  0  0
 21 22  1  0  0  0
 23 18  1  0  0  0
 29  3  1  0  0  0
  3  4  2  0  0  0
  6  7  2  0  0  0
  8 24  2  0  0  0
 10 25  2  0  0  0
 16 27  2  0  0  0
 18 19  2  0  0  0
 20 21  2  0  0  0
 22 23  2  0  0  0
M  END
> <rmsd>
0.501114309

$$$$
CHEMBL3421696_8GUR


 23 26  0  0  0  0  0  0  0  0999 V2000
  132.3592  126.1617   99.4139 C   0  0  0  0  0
  133.8566  126.1335   99.6525 C   0  0  0  0  0
  131.8597  124.7941   98.9752 C   0  0  0  0  0
  131.5752  123.8977  100.1737 C   0  0  0  0  0
  132.8506  123.2604  100.7167 C   0  0  0  0  0
  134.5457  122.6238   99.1305 C   0  0  0  0  0
  135.0923  121.7212   98.2370 C   0  0  0  0  0
  134.4818  120.4557   97.9973 C   0  0  0  0  0
  133.3225  120.0978   98.6659 C   0  0  0  0  0
  132.7067  118.8583   98.4683 C   0  0  0  0  0
  131.5449  118.5402   99.1747 C   0  0  0  0  0
  130.9985  119.4554  100.0782 C   0  0  0  0  0
  131.6087  120.6968  100.2811 C   0  0  0  0  0
  132.7767  121.0471   99.5810 C   0  0  0  0  0
  137.2838  120.1067   95.8402 C   0  0  0  0  0
  138.3302  119.2919   96.5764 C   0  0  0  0  0
  139.5366  119.1121   95.6797 C   0  0  0  0  0
  139.5654  120.1423   96.7882 C   0  0  0  0  0
  136.1999  121.7030   97.4319 C   0  0  0  0  0
  133.3892  122.2774   99.7781 N   0  0  0  0  0
  135.2087  119.7552   97.1029 N   0  0  0  0  0
  136.2408  120.5255   96.7637 N   0  0  0  0  0
  137.0553  122.6217   97.3224 O   0  0  0  0  0
  1  2  1  0  0  0
  1  3  1  0  0  0
  3  4  1  0  0  0
  4  5  1  0  0  0
  5 20  1  0  0  0
  7  8  1  0  0  0
  8  9  1  0  0  0
 10 11  1  0  0  0
 12 13  1  0  0  0
 14 20  1  0  0  0
 14  9  1  0  0  0
 15 22  1  0  0  0
 15 16  1  0  0  0
 16 17  1  0  0  0
 17 18  1  0  0  0
 18 16  1  0  0  0
 19  7  1  0  0  0
 20  6  1  0  0  0
 22 21  1  0  0  0
 22 19  1  0  0  0
  6  7  2  0  0  0
  8 21  2  0  0  0
  9 10  2  0  0  0
 11 12  2  0  0  0
 13 14  2  0  0  0
 19 23  2  0  0  0
M  END
> <rmsd>
0.64737618

$$$$
CHEMBL376700_8GUQ


 32 36  0  0  0  0  0  0  0  0999 V2000
  129.0853  123.0573   99.6860 C   0  0  0  0  0
  130.2319  122.3731   99.2804 C   0  0  0  0  0
  131.5123  122.9148   99.4800 C   0  0  0  0  0
  131.6144  124.1891  100.0849 C   0  0  0  0  0
  130.4608  124.8708  100.4879 C   0  0  0  0  0
  129.2008  124.3044  100.2967 C   0  0  0  0  0
  132.9204  124.8764  100.2639 C   0  0  0  0  0
  133.5085  125.1307   98.8939 C   0  0  0  0  0
  134.4786  124.0249   98.5186 C   0  0  0  0  0
  133.9433  122.6171   98.6028 C   0  0  0  0  0
  132.7073  122.1299   99.0440 C   0  0  0  0  0
  134.6643  121.4810   98.2567 C   0  0  0  0  0
  136.0379  121.4172   97.7291 C   0  0  0  0  0
  138.0295  120.6089   95.6354 C   0  0  0  0  0
  139.3725  120.2863   94.9699 C   0  0  0  0  0
  140.4550  119.9172   95.9886 C   0  0  0  0  0
  140.2828  120.7155   97.2771 C   0  0  0  0  0
  138.8906  120.4962   97.8920 C   0  0  0  0  0
  131.7521  119.8329   99.3744 C   0  0  0  0  0
  131.1694  118.9926   98.4171 C   0  0  0  0  0
  130.1968  118.0626   98.7918 C   0  0  0  0  0
  129.8062  117.9609  100.1286 C   0  0  0  0  0
  130.3982  118.7787  101.0940 C   0  0  0  0  0
  131.3725  119.7118  100.7269 C   0  0  0  0  0
  127.7662  125.1660  100.8081 Cl  0  0  0  0  0
  132.1252  120.6766  101.9870 Cl  0  0  0  0  0
  128.5858  116.7978  100.5975 Cl  0  0  0  0  0
  132.7514  120.7742   98.9617 N   0  0  0  0  0
  133.9204  120.3843   98.4824 N   0  0  0  0  0
  136.6209  120.1356   97.4402 N   0  0  0  0  0
  137.9218  119.9396   96.9342 N   0  0  0  0  0
  136.6956  122.4744   97.5318 O   0  0  0  0  0
  2  3  1  0  0  0
  3 11  1  0  0  0
  4  5  1  0  0  0
  6 25  1  0  0  0
  6  1  1  0  0  0
  7  4  1  0  0  0
  7  8  1  0  0  0
  8  9  1  0  0  0
  9 10  1  0  0  0
 11 28  1  0  0  0
 12 13  1  0  0  0
 12 10  1  0  0  0
 13 30  1  0  0  0
 14 31  1  0  0  0
 14 15  1  0  0  0
 15 16  1  0  0  0
 16 17  1  0  0  0
 17 18  1  0  0  0
 18 31  1  0  0  0
 20 21  1  0  0  0
 22 23  1  0  0  0
 22 27  1  0  0  0
 24 26  1  0  0  0
 24 19  1  0  0  0
 28 29  1  0  0  0
 28 19  1  0  0  0
 30 31  1  0  0  0
  1  2  2  0  0  0
  3  4  2  0  0  0
  5  6  2  0  0  0
 10 11  2  0  0  0
 12 29  2  0  0  0
 13 32  2  0  0  0
 19 20  2  0  0  0
 21 22  2  0  0  0
 23 24  2  0  0  0
M  END
> <rmsd>
0.891665816

$$$$
CHEMBL3650107_8GUR


 34 35  0  0  0  0  0  0  0  0999 V2000
  131.8642  114.3859  100.7046 C   0  0  0  0  0
  132.4809  115.4751   99.8528 C   0  0  0  0  0
  133.2898  116.4079  100.7332 C   0  0  0  0  0
  133.8952  117.5273   99.8947 C   0  0  0  0  0
  130.9181  119.5890   99.5018 C   0  0  0  0  0
  129.4485  119.7668   99.7718 C   0  0  0  0  0
  128.6573  119.3377   98.5520 C   0  0  0  0  0
  129.0072  118.9291  100.9595 C   0  0  0  0  0
  129.1384  121.2212  100.0761 C   0  0  0  0  0
  133.2107  119.6072   98.7294 C   0  0  0  0  0
  134.8161  120.9045   97.4058 C   0  0  0  0  0
  136.2524  121.1496   97.1941 C   0  0  0  0  0
  137.0835  120.0393   96.9939 C   0  0  0  0  0
  138.4365  120.1985   96.6706 C   0  0  0  0  0
  139.3280  119.0024   96.5036 C   0  0  0  0  0
  138.9656  121.4886   96.5589 C   0  0  0  0  0
  138.1557  122.6039   96.7771 C   0  0  0  0  0
  136.8081  122.4533   97.1198 C   0  0  0  0  0
  134.2976  124.8030   98.5882 C   0  0  0  0  0
  133.1060  124.7513   99.5085 C   0  0  0  0  0
  133.2612  123.6457  100.5389 C   0  0  0  0  0
  132.9409  126.0677  100.2484 C   0  0  0  0  0
  131.8556  124.4858   98.6947 C   0  0  0  0  0
  132.9138  118.5502   99.5223 N   0  0  0  0  0
  131.6468  118.5347   99.9419 N   0  0  0  0  0
  134.4044  119.8187   98.2508 N   0  0  0  0  0
  135.0486  123.6188   98.3200 N   0  0  0  0  0
  131.8550  120.5938   98.5161 S   0  0  0  0  0
  133.9678  121.6150   96.8009 O   0  0  0  0  0
  136.0823  123.6145   97.4097 O   0  0  0  0  0
  134.5917  125.8738   97.9891 O   0  0  0  0  0
  140.0145  118.7764   97.6821 F   0  0  0  0  0
  138.5843  117.8763   96.1927 F   0  0  0  0  0
  140.2384  119.2254   95.4854 F   0  0  0  0  0
  1  2  1  0  0  0
  2  3  1  0  0  0
  3  4  1  0  0  0
  4 24  1  0  0  0
  5 28  1  0  0  0
  6  5  1  0  0  0
  6  7  1  0  0  0
  6  8  1  0  0  0
  6  9  1  0  0  0
 10 28  1  0  0  0
 10 24  1  0  0  0
 11 26  1  0  0  0
 11 12  1  0  0  0
 13 14  1  0  0  0
 15 14  1  0  0  0
 15 32  1  0  0  0
 15 33  1  0  0  0
 15 34  1  0  0  0
 16 17  1  0  0  0
 18 30  1  0  0  0
 18 12  1  0  0  0
 20 19  1  0  0  0
 20 21  1  0  0  0
 20 22  1  0  0  0
 20 23  1  0  0  0
 24 25  1  0  0  0
 27 30  1  0  0  0
 27 19  1  0  0  0
  5 25  2  0  0  0
 10 26  2  0  0  0
 11 29  2  0  0  0
 12 13  2  0  0  0
 14 16  2  0  0  0
 17 18  2  0  0  0
 19 31  2  0  0  0
M  END
> <rmsd>
0.748593509

$$$$
CHEMBL3353437_5ZTY


 27 29  0  0  0  0  0  0  0  0999 V2000
  131.3885  118.7452   99.4909 C   0  0  0  0  0
  130.8535  119.8578  100.1440 C   0  0  0  0  0
  132.7183  121.1912   99.4968 C   0  0  0  0  0
  133.2820  120.0868   98.8304 C   0  0  0  0  0
  132.6118  118.8635   98.8302 C   0  0  0  0  0
  134.4999  120.2267   98.1790 C   0  0  0  0  0
  135.1681  121.4542   98.1808 C   0  0  0  0  0
  134.5763  122.5461   98.8594 C   0  0  0  0  0
  132.7704  123.5397  100.1844 C   0  0  0  0  0
  131.8680  124.3051   99.2288 C   0  0  0  0  0
  131.1946  125.4588   99.9488 C   0  0  0  0  0
  130.0765  124.9452  100.8394 C   0  0  0  0  0
  129.4202  126.1006  101.5705 C   0  0  0  0  0
  136.4669  121.5536   97.4708 C   0  0  0  0  0
  138.2845  120.4146   96.1176 C   0  0  0  0  0
  139.4265  120.4494   97.1460 C   0  0  0  0  0
  140.7183  119.8872   96.5575 C   0  0  0  0  0
  140.5555  118.4233   96.1211 C   0  0  0  0  0
  139.1094  118.0406   95.7831 C   0  0  0  0  0
  138.3638  119.2171   95.1587 C   0  0  0  0  0
  141.0819  117.4996   97.2003 C   0  0  0  0  0
  131.5206  121.0434  100.1343 N   0  0  0  0  0
  133.3721  122.3946   99.5005 N   0  0  0  0  0
  137.0015  120.4041   96.8047 N   0  0  0  0  0
  135.1571  123.6673   98.8780 O   0  0  0  0  0
  137.1049  122.6413   97.4440 O   0  0  0  0  0
  130.2997  126.6389  102.4922 F   0  0  0  0  0
  2 22  1  0  0  0
  3  4  1  0  0  0
  4  6  1  0  0  0
  5  1  1  0  0  0
  7  8  1  0  0  0
  7 14  1  0  0  0
  8 23  1  0  0  0
  9 23  1  0  0  0
  9 10  1  0  0  0
 10 11  1  0  0  0
 11 12  1  0  0  0
 12 13  1  0  0  0
 13 27  1  0  0  0
 14 24  1  0  0  0
 15 24  1  0  0  0
 15 16  1  0  0  0
 16 17  1  0  0  0
 17 18  1  0  0  0
 18 19  1  0  0  0
 18 21  1  0  0  0
 19 20  1  0  0  0
 20 15  1  0  0  0
 23  3  1  0  0  0
  1  2  2  0  0  0
  3 22  2  0  0  0
  4  5  2  0  0  0
  6  7  2  0  0  0
  8 25  2  0  0  0
 14 26  2  0  0  0
M  END
> <rmsd>
0.771225572

$$$$
CHEMBL2316298_5ZTY


 27 29  0  0  0  0  0  0  0  0999 V2000
  133.7170  126.9113  100.0092 C   0  0  0  0  0
  132.3293  126.3066   99.9081 C   0  0  0  0  0
  132.1705  125.1703  100.9071 C   0  0  0  0  0
  132.9328  123.9315  100.4629 C   0  0  0  0  0
  132.2129  123.2521   99.3075 C   0  0  0  0  0
  134.1508  122.2539   98.2209 C   0  0  0  0  0
  134.9110  121.1554   97.7463 C   0  0  0  0  0
  136.1999  121.4259   97.0653 C   0  0  0  0  0
  138.2900  120.5633   95.9102 C   0  0  0  0  0
  139.3581  120.9746   96.9325 C   0  0  0  0  0
  139.4210  120.0019   98.1070 C   0  0  0  0  0
  140.4125  118.8568   97.8884 C   0  0  0  0  0
  140.3906  118.2249   96.4942 C   0  0  0  0  0
  138.9898  118.1066   95.9129 C   0  0  0  0  0
  138.6849  119.3438   95.0751 C   0  0  0  0  0
  134.4063  119.8441   97.9443 C   0  0  0  0  0
  133.1820  119.7173   98.5959 C   0  0  0  0  0
  132.4039  118.6322   98.9520 C   0  0  0  0  0
  132.7055  117.1953   98.7060 C   0  0  0  0  0
  130.3089  121.2155  100.2400 C   0  0  0  0  0
  132.4879  120.8078   99.0338 C   0  0  0  0  0
  132.9551  122.0792   98.8644 N   0  0  0  0  0
  136.9909  120.3552   96.5401 N   0  0  0  0  0
  131.2890  119.0746   99.5799 N   0  0  0  0  0
  131.3449  120.4008   99.6273 N   0  0  0  0  0
  136.6036  122.6152   96.9437 O   0  0  0  0  0
  135.0299  118.8214   97.5522 O   0  0  0  0  0
  1  2  1  0  0  0
  2  3  1  0  0  0
  3  4  1  0  0  0
  4  5  1  0  0  0
  5 22  1  0  0  0
  7  8  1  0  0  0
  7 16  1  0  0  0
  8 23  1  0  0  0
  9 23  1  0  0  0
  9 10  1  0  0  0
 10 11  1  0  0  0
 11 12  1  0  0  0
 12 13  1  0  0  0
 13 14  1  0  0  0
 14 15  1  0  0  0
 15  9  1  0  0  0
 16 17  1  0  0  0
 17 18  1  0  0  0
 19 18  1  0  0  0
 20 25  1  0  0  0
 21 22  1  0  0  0
 22  6  1  0  0  0
 25 24  1  0  0  0
 25 21  1  0  0  0
  6  7  2  0  0  0
  8 26  2  0  0  0
 16 27  2  0  0  0
 18 24  2  0  0  0
 21 17  2  0  0  0
M  END
> <rmsd>
0.649091244

$$$$
CHEMBL3925284_5ZTY


 22 23  0  0  0  0  0  0  0  0999 V2000
  140.1042  119.3566   97.3424 C   0  0  0  0  0
  138.8564  119.0374   96.5332 C   0  0  0  0  0
  139.1027  119.3876   95.0770 C   0  0  0  0  0
  138.5617  117.5456   96.6187 C   0  0  0  0  0
  137.6231  121.2197   97.1069 C   0  0  0  0  0
  136.4150  121.8601   97.6477 C   0  0  0  0  0
  135.2365  123.8441   98.2079 C   0  0  0  0  0
  134.1446  123.1065   98.6715 C   0  0  0  0  0
  134.1907  121.6940   98.6131 C   0  0  0  0  0
  135.3448  121.0839   98.1020 C   0  0  0  0  0
  133.0775  120.8248   99.0664 C   0  0  0  0  0
  133.3564  119.5908   99.6767 C   0  0  0  0  0
  132.3188  118.7450  100.0778 C   0  0  0  0  0
  130.9902  119.1188   99.8633 C   0  0  0  0  0
  130.6998  120.3370   99.2448 C   0  0  0  0  0
  131.7384  121.1823   98.8443 C   0  0  0  0  0
  138.2721  117.1672   97.9322 O   0  0  0  0  0
  138.5802  121.9336   96.7013 O   0  0  0  0  0
  137.7099  119.7887   97.0428 N   0  0  0  0  0
  136.3324  123.2162   97.7080 N   0  0  0  0  0
  132.6850  117.2151  100.8445 Cl  0  0  0  0  0
  132.8056  124.0016   99.3778 Cl  0  0  0  0  0
  1  2  1  0  0  0
  2  3  1  0  0  0
  2  4  1  0  0  0
  2 19  1  0  0  0
  4 17  1  0  0  0
  5  6  1  0  0  0
  7 20  1  0  0  0
  8  9  1  0  0  0
  8 22  1  0  0  0
  9 11  1  0  0  0
 10  6  1  0  0  0
 12 13  1  0  0  0
 13 21  1  0  0  0
 14 15  1  0  0  0
 16 11  1  0  0  0
 19  5  1  0  0  0
  5 18  2  0  0  0
  6 20  2  0  0  0
  7  8  2  0  0  0
  9 10  2  0  0  0
 11 12  2  0  0  0
 13 14  2  0  0  0
 15 16  2  0  0  0
M  END
> <rmsd>
0.666673422

$$$$
CHEMBL1223776_5ZTY


 29 33  0  0  0  0  0  0  0  0999 V2000
  134.2555  126.9010  100.1760 C   0  0  0  0  0
  133.0194  126.0697   99.9065 C   0  0  0  0  0
  133.2781  124.6329  100.3181 C   0  0  0  0  0
  132.0579  123.7702  100.0359 C   0  0  0  0  0
  131.8846  123.5151   98.5441 C   0  0  0  0  0
  134.8306  121.9253   97.2992 C   0  0  0  0  0
  136.2611  121.9643   96.9794 C   0  0  0  0  0
  138.2982  120.7967   96.0248 C   0  0  0  0  0
  139.1384  120.6307   97.3079 C   0  0  0  0  0
  138.8393  119.2700   97.9648 C   0  0  0  0  0
  139.1637  118.1301   96.9861 C   0  0  0  0  0
  140.6508  118.1993   96.6036 C   0  0  0  0  0
  140.9591  119.5511   95.9403 C   0  0  0  0  0
  140.6271  120.6845   96.9271 C   0  0  0  0  0
  140.0938  119.7019   94.6764 C   0  0  0  0  0
  138.6031  119.6449   95.0492 C   0  0  0  0  0
  138.3076  118.2897   95.7196 C   0  0  0  0  0
  133.9303  120.7707   96.9869 C   0  0  0  0  0
  132.5775  121.2576   97.5185 C   0  0  0  0  0
  132.0577  120.3388   98.5829 C   0  0  0  0  0
  132.7740  120.1184   99.7703 C   0  0  0  0  0
  132.2649  119.2598  100.7487 C   0  0  0  0  0
  131.0397  118.6182  100.5461 C   0  0  0  0  0
  130.3236  118.8348   99.3651 C   0  0  0  0  0
  130.8320  119.6935   98.3859 C   0  0  0  0  0
  132.8820  122.5683   98.0667 N   0  0  0  0  0
  134.2225  122.8973   97.8851 N   0  0  0  0  0
  136.8731  120.8472   96.3303 N   0  0  0  0  0
  136.9459  122.9804   97.2773 O   0  0  0  0  0
  1  2  1  0  0  0
  2  3  1  0  0  0
  3  4  1  0  0  0
  4  5  1  0  0  0
  5 26  1  0  0  0
  6  7  1  0  0  0
  7 28  1  0  0  0
  8 28  1  0  0  0
  8  9  1  0  0  0
  9 10  1  0  0  0
 11 10  1  0  0  0
 11 12  1  0  0  0
 13 12  1  0  0  0
 13 14  1  0  0  0
 13 15  1  0  0  0
 14  9  1  0  0  0
 16 15  1  0  0  0
 16 17  1  0  0  0
 16  8  1  0  0  0
 17 11  1  0  0  0
 18  6  1  0  0  0
 18 19  1  0  0  0
 19 20  1  0  0  0
 19 26  1  0  0  0
 21 22  1  0  0  0
 23 24  1  0  0  0
 25 20  1  0  0  0
 26 27  1  0  0  0
  6 27  2  0  0  0
  7 29  2  0  0  0
 20 21  2  0  0  0
 22 23  2  0  0  0
 24 25  2  0  0  0
M  END
> <rmsd>
0.315590143

$$$$
CHEMBL374292_6PT0


 29 32  0  0  0  0  0  0  0  0999 V2000
  134.5167  125.4990  101.5133 C   0  0  0  0  0
  133.4053  126.0806  100.6599 C   0  0  0  0  0
  133.1697  125.2135   99.4367 C   0  0  0  0  0
  132.4137  123.9523   99.8188 C   0  0  0  0  0
  132.2498  123.0431   98.6104 C   0  0  0  0  0
  134.6092  122.8083   97.8845 C   0  0  0  0  0
  135.5336  121.7933   97.7356 C   0  0  0  0  0
  136.9221  121.9743   97.2638 C   0  0  0  0  0
  137.8184  120.8211   96.9817 C   0  0  0  0  0
  137.2668  119.6546   96.4286 C   0  0  0  0  0
  138.0661  118.5542   96.1167 C   0  0  0  0  0
  139.4394  118.5991   96.3493 C   0  0  0  0  0
  140.0193  119.7439   96.8960 C   0  0  0  0  0
  141.3969  119.7717   97.1310 C   0  0  0  0  0
  141.9910  120.9053   97.6897 C   0  0  0  0  0
  141.2095  122.0149   98.0184 C   0  0  0  0  0
  139.8319  121.9957   97.7861 C   0  0  0  0  0
  139.2158  120.8685   97.2175 C   0  0  0  0  0
  134.9466  120.6042   98.1354 C   0  0  0  0  0
  133.6575  120.9466   98.5119 C   0  0  0  0  0
  132.6575  119.9682   99.0102 C   0  0  0  0  0
  132.9915  118.6056   99.0781 C   0  0  0  0  0
  132.0677  117.6672   99.5467 C   0  0  0  0  0
  130.7977  118.0816   99.9537 C   0  0  0  0  0
  130.4527  119.4336   99.8926 C   0  0  0  0  0
  131.3783  120.3699   99.4237 C   0  0  0  0  0
  133.4689  122.2799   98.3638 N   0  0  0  0  0
  137.3485  123.1478   97.0867 O   0  0  0  0  0
  129.9015  117.1734  100.4079 F   0  0  0  0  0
  1  2  1  0  0  0
  2  3  1  0  0  0
  3  4  1  0  0  0
  4  5  1  0  0  0
  5 27  1  0  0  0
  7  8  1  0  0  0
  7 19  1  0  0  0
  8  9  1  0  0  0
 10 11  1  0  0  0
 12 13  1  0  0  0
 14 15  1  0  0  0
 16 17  1  0  0  0
 18  9  1  0  0  0
 18 13  1  0  0  0
 20 21  1  0  0  0
 20 27  1  0  0  0
 22 23  1  0  0  0
 24 29  1  0  0  0
 24 25  1  0  0  0
 26 21  1  0  0  0
 27  6  1  0  0  0
  6  7  2  0  0  0
  8 28  2  0  0  0
  9 10  2  0  0  0
 11 12  2  0  0  0
 13 14  2  0  0  0
 15 16  2  0  0  0
 17 18  2  0  0  0
 19 20  2  0  0  0
 21 22  2  0  0  0
 23 24  2  0  0  0
 25 26  2  0  0  0
M  END
> <rmsd>
0.414209336

$$$$
CHEMBL216836_6PT0


 27 30  0  0  0  0  0  0  0  0999 V2000
  139.4561  118.6545   96.5122 C   0  0  0  0  0
  139.8692  119.7081   97.3278 C   0  0  0  0  0
  139.0389  120.8142   97.5188 C   0  0  0  0  0
  137.7802  120.8830   96.9066 C   0  0  0  0  0
  137.3658  119.8272   96.0596 C   0  0  0  0  0
  138.2152  118.7066   95.8756 C   0  0  0  0  0
  137.8225  117.6558   95.0419 C   0  0  0  0  0
  136.5962  117.7100   94.3752 C   0  0  0  0  0
  135.7602  118.8174   94.5350 C   0  0  0  0  0
  136.1440  119.8709   95.3684 C   0  0  0  0  0
  136.9495  122.0797   97.1609 C   0  0  0  0  0
  135.5623  121.9737   97.6499 C   0  0  0  0  0
  134.6743  123.0251   97.7608 C   0  0  0  0  0
  133.6750  121.2257   98.4912 C   0  0  0  0  0
  134.9484  120.8248   98.1203 C   0  0  0  0  0
  132.6494  120.3049   99.0430 C   0  0  0  0  0
  131.3285  120.7237   99.2625 C   0  0  0  0  0
  130.3749  119.8386   99.7733 C   0  0  0  0  0
  130.7324  118.5210  100.0678 C   0  0  0  0  0
  132.0426  118.0891   99.8501 C   0  0  0  0  0
  132.9945  118.9761   99.3393 C   0  0  0  0  0
  132.3678  123.3922   98.5672 C   0  0  0  0  0
  132.4014  123.8586  100.0184 C   0  0  0  0  0
  133.4876  124.8985  100.2450 C   0  0  0  0  0
  133.0828  126.2289   99.6389 C   0  0  0  0  0
  137.4581  123.2217   96.9978 O   0  0  0  0  0
  133.5225  122.5534   98.2680 N   0  0  0  0  0
  2  3  1  0  0  0
  4  5  1  0  0  0
  4 11  1  0  0  0
  6  7  1  0  0  0
  6  1  1  0  0  0
  8  9  1  0  0  0
 10  5  1  0  0  0
 11 12  1  0  0  0
 13 27  1  0  0  0
 14 16  1  0  0  0
 15 12  1  0  0  0
 17 18  1  0  0  0
 19 20  1  0  0  0
 21 16  1  0  0  0
 22 27  1  0  0  0
 22 23  1  0  0  0
 23 24  1  0  0  0
 24 25  1  0  0  0
 27 14  1  0  0  0
  1  2  2  0  0  0
  3  4  2  0  0  0
  5  6  2  0  0  0
  7  8  2  0  0  0
  9 10  2  0  0  0
 11 26  2  0  0  0
 12 13  2  0  0  0
 14 15  2  0  0  0
 16 17  2  0  0  0
 18 19  2  0  0  0
 20 21  2  0  0  0
M  END
> <rmsd>
0.477560401

$$$$
CHEMBL2316280_5ZTY


 26 28  0  0  0  0  0  0  0  0999 V2000
  132.6687  126.7626  100.9341 C   0  0  0  0  0
  133.5018  125.6406  100.3442 C   0  0  0  0  0
  133.0152  124.2929  100.8550 C   0  0  0  0  0
  131.7018  123.8890  100.1962 C   0  0  0  0  0
  131.9108  123.4942   98.7377 C   0  0  0  0  0
  133.9236  122.2656   98.1042 C   0  0  0  0  0
  134.6871  121.0758   97.9714 C   0  0  0  0  0
  136.0497  121.1674   97.3945 C   0  0  0  0  0
  138.2124  120.0423   96.7009 C   0  0  0  0  0
  139.1653  120.6414   97.7512 C   0  0  0  0  0
  140.5912  120.0809   97.7118 C   0  0  0  0  0
  141.3287  120.3521   96.3975 C   0  0  0  0  0
  140.5437  119.9764   95.1365 C   0  0  0  0  0
  139.8006  118.6396   95.2463 C   0  0  0  0  0
  138.6291  118.6404   96.2449 C   0  0  0  0  0
  134.1121  119.8475   98.3969 C   0  0  0  0  0
  132.8221  119.8907   98.9200 C   0  0  0  0  0
  131.9508  118.9451   99.4152 C   0  0  0  0  0
  132.1883  117.4806   99.5350 C   0  0  0  0  0
  132.1367  121.0600   99.0243 C   0  0  0  0  0
  132.6632  122.2502   98.6343 N   0  0  0  0  0
  136.8584  119.9977   97.2314 N   0  0  0  0  0
  130.8046  119.5637   99.7873 N   0  0  0  0  0
  136.5016  122.2906   97.0386 O   0  0  0  0  0
  134.7300  118.7525   98.3101 O   0  0  0  0  0
  130.9509  120.8390   99.5376 O   0  0  0  0  0
  1  2  1  0  0  0
  2  3  1  0  0  0
  3  4  1  0  0  0
  4  5  1  0  0  0
  5 21  1  0  0  0
  7  8  1  0  0  0
  7 16  1  0  0  0
  8 22  1  0  0  0
  9 22  1  0  0  0
  9 10  1  0  0  0
 10 11  1  0  0  0
 11 12  1  0  0  0
 12 13  1  0  0  0
 13 14  1  0  0  0
 14 15  1  0  0  0
 15  9  1  0  0  0
 16 17  1  0  0  0
 17 18  1  0  0  0
 19 18  1  0  0  0
 20 26  1  0  0  0
 20 21  1  0  0  0
 21  6  1  0  0  0
 23 26  1  0  0  0
  6  7  2  0  0  0
  8 24  2  0  0  0
 16 25  2  0  0  0
 18 23  2  0  0  0
 20 17  2  0  0  0
M  END
> <rmsd>
0.756624043

$$$$
CHEMBL426706_6PT0


 30 33  0  0  0  0  0  0  0  0999 V2000
  139.4419  118.5894   96.4169 C   0  0  0  0  0
  138.0692  118.5502   96.1799 C   0  0  0  0  0
  137.2791  119.6670   96.4545 C   0  0  0  0  0
  137.8395  120.8447   96.9743 C   0  0  0  0  0
  139.2363  120.8862   97.2145 C   0  0  0  0  0
  140.0303  119.7449   96.9310 C   0  0  0  0  0
  141.4072  119.7671   97.1708 C   0  0  0  0  0
  142.0097  120.9116   97.6973 C   0  0  0  0  0
  141.2376  122.0379   97.9885 C   0  0  0  0  0
  139.8608  122.0245   97.7511 C   0  0  0  0  0
  136.9530  122.0142   97.2171 C   0  0  0  0  0
  135.5603  121.8603   97.6866 C   0  0  0  0  0
  134.6460  122.8889   97.8044 C   0  0  0  0  0
  133.6760  121.0556   98.4866 C   0  0  0  0  0
  134.9628  120.6898   98.1251 C   0  0  0  0  0
  132.6644  120.1037   99.0104 C   0  0  0  0  0
  133.0372  118.7808   99.2986 C   0  0  0  0  0
  132.0993  117.8653   99.7840 C   0  0  0  0  0
  130.7748  118.2629   99.9881 C   0  0  0  0  0
  130.3897  119.5742   99.6947 C   0  0  0  0  0
  131.3298  120.4872   99.2093 C   0  0  0  0  0
  129.7706  117.2844  100.4897 C   0  0  0  0  0
  129.1132  116.5661   99.3266 C   0  0  0  0  0
  132.3221  123.1919   98.5872 C   0  0  0  0  0
  132.3246  123.6244  100.0491 C   0  0  0  0  0
  133.3947  124.6751  100.3188 C   0  0  0  0  0
  133.0197  126.0181   99.7112 C   0  0  0  0  0
  131.9262  126.6816  100.5268 C   0  0  0  0  0
  137.3911  123.1778   97.0069 O   0  0  0  0  0
  133.4976  122.3835   98.2863 N   0  0  0  0  0
  2  3  1  0  0  0
  4  5  1  0  0  0
  4 11  1  0  0  0
  6  7  1  0  0  0
  6  1  1  0  0  0
  8  9  1  0  0  0
 10  5  1  0  0  0
 11 12  1  0  0  0
 13 30  1  0  0  0
 14 16  1  0  0  0
 15 12  1  0  0  0
 17 18  1  0  0  0
 19 20  1  0  0  0
 21 16  1  0  0  0
 22 19  1  0  0  0
 22 23  1  0  0  0
 24 30  1  0  0  0
 24 25  1  0  0  0
 25 26  1  0  0  0
 26 27  1  0  0  0
 27 28  1  0  0  0
 30 14  1  0  0  0
  1  2  2  0  0  0
  3  4  2  0  0  0
  5  6  2  0  0  0
  7  8  2  0  0  0
  9 10  2  0  0  0
 11 29  2  0  0  0
 12 13  2  0  0  0
 14 15  2  0  0  0
 16 17  2  0  0  0
 18 19  2  0  0  0
 20 21  2  0  0  0
M  END
> <rmsd>
0.404801607

$$$$
CHEMBL3896366_8GUT


 33 36  0  0  0  0  0  0  0  0999 V2000
  131.0053  117.4304   99.9060 C   0  0  0  0  0
  131.7356  118.6664   99.5201 C   0  0  0  0  0
  132.7558  120.4840   99.5749 C   0  0  0  0  0
  133.3462  121.7903  100.0360 C   0  0  0  0  0
  133.8960  121.6502  101.4535 C   0  0  0  0  0
  132.2302  122.8362  100.0246 C   0  0  0  0  0
  132.7217  124.2298  100.3932 C   0  0  0  0  0
  131.5671  125.2035  100.2868 C   0  0  0  0  0
  132.6007  125.1343   99.1840 C   0  0  0  0  0
  135.6266  121.4826   98.8848 C   0  0  0  0  0
  136.6235  122.0228   97.9491 C   0  0  0  0  0
  137.2891  123.7453   96.4534 C   0  0  0  0  0
  138.4834  123.0745   96.1537 C   0  0  0  0  0
  138.7524  121.8540   96.8001 C   0  0  0  0  0
  137.8111  121.3292   97.6966 C   0  0  0  0  0
  140.2876  119.9208   97.1155 C   0  0  0  0  0
  139.5589  118.8114   96.3706 C   0  0  0  0  0
  141.7973  119.7075   97.0653 C   0  0  0  0  0
  139.4907  123.6902   95.2146 C   0  0  0  0  0
  139.7786  122.8574   93.9976 C   0  0  0  0  0
  138.9402  124.6664   94.2109 C   0  0  0  0  0
  132.1584  119.5940  100.3983 N   0  0  0  0  0
  132.6694  120.1214   98.2780 N   0  0  0  0  0
  134.4163  122.2122   99.1287 N   0  0  0  0  0
  136.3959  123.2110   97.3269 N   0  0  0  0  0
  132.0390  118.9871   98.2884 O   0  0  0  0  0
  135.8345  120.3826   99.4665 O   0  0  0  0  0
  139.9576  121.1849   96.5473 O   0  0  0  0  0
  139.2472  123.8252   93.1280 O   0  0  0  0  0
  142.1208  118.4927   97.6424 F   0  0  0  0  0
  142.4267  120.7168   97.7701 F   0  0  0  0  0
  142.2428  119.7253   95.7549 F   0  0  0  0  0
  140.6386  124.1501   95.8333 F   0  0  0  0  0
  1  2  1  0  0  0
  2 26  1  0  0  0
  3 22  1  0  0  0
  4  3  1  0  0  0
  4  5  1  0  0  0
  4  6  1  0  0  0
  4 24  1  0  0  0
  6  7  1  0  0  0
  7  8  1  0  0  0
  8  9  1  0  0  0
  9  7  1  0  0  0
 10 11  1  0  0  0
 12 25  1  0  0  0
 13 14  1  0  0  0
 14 28  1  0  0  0
 15 11  1  0  0  0
 16 28  1  0  0  0
 16 17  1  0  0  0
 16 18  1  0  0  0
 18 30  1  0  0  0
 18 31  1  0  0  0
 18 32  1  0  0  0
 19 13  1  0  0  0
 19 20  1  0  0  0
 19 33  1  0  0  0
 20 29  1  0  0  0
 21 29  1  0  0  0
 21 19  1  0  0  0
 23 26  1  0  0  0
 24 10  1  0  0  0
  2 22  2  0  0  0
  3 23  2  0  0  0
 10 27  2  0  0  0
 11 25  2  0  0  0
 12 13  2  0  0  0
 14 15  2  0  0  0
M  END
> <rmsd>
0.765629768

$$$$
CHEMBL2420252_5ZTY


 32 36  0  0  0  0  0  0  0  0999 V2000
  130.2968  120.2031  102.1910 C   0  0  0  0  0
  130.9018  119.8741  100.8698 C   0  0  0  0  0
  131.9202  120.6921  100.3727 C   0  0  0  0  0
  132.5086  120.4271   99.1285 C   0  0  0  0  0
  133.6137  121.2646   98.6175 C   0  0  0  0  0
  134.6972  120.7628   97.9135 C   0  0  0  0  0
  135.5096  121.8737   97.7586 C   0  0  0  0  0
  136.8069  121.8865   97.0757 C   0  0  0  0  0
  138.6379  120.6052   95.8703 C   0  0  0  0  0
  138.7836  119.4038   94.9066 C   0  0  0  0  0
  137.5341  118.5320   94.7740 C   0  0  0  0  0
  139.1442  119.9174   93.5226 C   0  0  0  0  0
  139.9779  118.6245   95.5042 C   0  0  0  0  0
  139.5377  117.9663   96.8212 C   0  0  0  0  0
  139.3793  119.1475   97.7812 C   0  0  0  0  0
  139.7467  120.3354   96.8990 C   0  0  0  0  0
  140.1968  121.5572   97.6747 C   0  0  0  0  0
  140.8266  119.7483   96.0437 C   0  0  0  0  0
  132.8864  123.5294   99.4393 C   0  0  0  0  0
  131.5060  123.4494   99.1980 C   0  0  0  0  0
  130.6362  124.3966   99.7453 C   0  0  0  0  0
  131.1411  125.4399  100.5255 C   0  0  0  0  0
  132.5163  125.5396  100.7531 C   0  0  0  0  0
  133.3861  124.5917  100.2060 C   0  0  0  0  0
  132.0880  119.3064   98.4000 C   0  0  0  0  0
  131.0723  118.4833   98.8921 C   0  0  0  0  0
  130.4723  118.7638  100.1230 C   0  0  0  0  0
  137.4615  122.9607   96.9941 O   0  0  0  0  0
  137.3185  120.6838   96.4973 N   0  0  0  0  0
  134.9530  122.9600   98.3251 N   0  0  0  0  0
  133.7953  122.5894   98.8440 N   0  0  0  0  0
  129.1968  117.7025  100.7008 Cl  0  0  0  0  0
  1  2  1  0  0  0
  3  4  1  0  0  0
  4  5  1  0  0  0
  6  7  1  0  0  0
  7  8  1  0  0  0
  8 29  1  0  0  0
  9 29  1  0  0  0
  9 10  1  0  0  0
 10 11  1  0  0  0
 10 12  1  0  0  0
 13 10  1  0  0  0
 13 14  1  0  0  0
 14 15  1  0  0  0
 15 16  1  0  0  0
 16 17  1  0  0  0
 16 18  1  0  0  0
 16  9  1  0  0  0
 18 13  1  0  0  0
 20 21  1  0  0  0
 22 23  1  0  0  0
 24 19  1  0  0  0
 25 26  1  0  0  0
 27 32  1  0  0  0
 27  2  1  0  0  0
 31 30  1  0  0  0
 31 19  1  0  0  0
 31  5  1  0  0  0
  2  3  2  0  0  0
  4 25  2  0  0  0
  5  6  2  0  0  0
  7 30  2  0  0  0
  8 28  2  0  0  0
 19 20  2  0  0  0
 21 22  2  0  0  0
 23 24  2  0  0  0
 26 27  2  0  0  0
M  END
> <rmsd>
0.649254501

$$$$
CHEMBL1216001_5ZTY


 34 38  0  0  0  0  0  0  0  0999 V2000
  132.6572  126.9578   99.9756 C   0  0  0  0  0
  133.3609  125.8390   99.2312 C   0  0  0  0  0
  132.3826  124.7212   98.9048 C   0  0  0  0  0
  132.0380  123.9042  100.1442 C   0  0  0  0  0
  133.2108  123.0287  100.5754 C   0  0  0  0  0
  134.5474  122.0404   98.8362 C   0  0  0  0  0
  134.8661  121.0580   97.8911 C   0  0  0  0  0
  136.0893  121.2378   97.0699 C   0  0  0  0  0
  137.6684  120.3970   95.2692 C   0  0  0  0  0
  138.9449  119.8827   95.9796 C   0  0  0  0  0
  139.9546  121.0143   96.0715 C   0  0  0  0  0
  138.7227  119.3321   97.3890 C   0  0  0  0  0
  139.4618  118.7964   95.0073 C   0  0  0  0  0
  138.5230  117.5816   95.0712 C   0  0  0  0  0
  137.2420  118.0785   94.3976 C   0  0  0  0  0
  137.6063  119.5105   94.0214 C   0  0  0  0  0
  136.7642  120.0821   92.8987 C   0  0  0  0  0
  139.0556  119.3702   93.6722 C   0  0  0  0  0
  134.0103  119.9436   97.7655 C   0  0  0  0  0
  132.8756  119.8434   98.5862 C   0  0  0  0  0
  132.0156  118.7389   98.4918 C   0  0  0  0  0
  130.8897  118.6342   99.3175 C   0  0  0  0  0
  129.9891  117.4748   99.2155 C   0  0  0  0  0
  130.1378  116.4102   98.3489 C   0  0  0  0  0
  129.0638  115.5800   98.6165 C   0  0  0  0  0
  128.3348  116.1893   99.6231 C   0  0  0  0  0
  130.6246  119.6437  100.2480 C   0  0  0  0  0
  131.4714  120.7483  100.3518 C   0  0  0  0  0
  132.6016  120.8665   99.5247 C   0  0  0  0  0
  133.4393  121.9474   99.6185 N   0  0  0  0  0
  136.4527  120.2785   96.0729 N   0  0  0  0  0
  136.8194  122.2512   97.2507 O   0  0  0  0  0
  134.2563  119.0337   96.9260 O   0  0  0  0  0
  128.9185  117.3159   99.9528 O   0  0  0  0  0
  1  2  1  0  0  0
  2  3  1  0  0  0
  3  4  1  0  0  0
  4  5  1  0  0  0
  5 30  1  0  0  0
  7  8  1  0  0  0
  7 19  1  0  0  0
  8 31  1  0  0  0
  9 31  1  0  0  0
  9 10  1  0  0  0
 10 11  1  0  0  0
 10 12  1  0  0  0
 13 10  1  0  0  0
 13 14  1  0  0  0
 14 15  1  0  0  0
 15 16  1  0  0  0
 16 17  1  0  0  0
 16 18  1  0  0  0
 16  9  1  0  0  0
 18 13  1  0  0  0
 19 20  1  0  0  0
 21 22  1  0  0  0
 22 23  1  0  0  0
 23 34  1  0  0  0
 24 25  1  0  0  0
 26 34  1  0  0  0
 27 28  1  0  0  0
 29 30  1  0  0  0
 29 20  1  0  0  0
 30  6  1  0  0  0
  6  7  2  0  0  0
  8 32  2  0  0  0
 19 33  2  0  0  0
 20 21  2  0  0  0
 22 27  2  0  0  0
 23 24  2  0  0  0
 25 26  2  0  0  0
 28 29  2  0  0  0
M  END
> <rmsd>
0.60833478

$$$$
CHEMBL2152806_5ZTY


 29 32  0  0  0  0  0  0  0  0999 V2000
  132.7665  125.2615  100.0323 C   0  0  0  0  0
  131.5055  123.7285   99.0706 C   0  0  0  0  0
  131.4282  122.6544   97.9945 C   0  0  0  0  0
  133.7434  121.9677   97.8237 C   0  0  0  0  0
  134.7981  121.0562   97.9518 C   0  0  0  0  0
  136.1586  121.4888   97.5460 C   0  0  0  0  0
  138.6413  120.9932   97.3189 C   0  0  0  0  0
  139.5683  119.7991   96.9899 C   0  0  0  0  0
  138.8877  118.4300   97.0226 C   0  0  0  0  0
  140.1580  119.9949   95.6031 C   0  0  0  0  0
  140.6819  119.9226   98.0553 C   0  0  0  0  0
  140.1037  119.5499   99.4295 C   0  0  0  0  0
  139.1755  120.7204   99.7615 C   0  0  0  0  0
  139.3342  121.6181   98.5395 C   0  0  0  0  0
  138.9730  123.0678   98.7947 C   0  0  0  0  0
  140.7813  121.4193   98.2099 C   0  0  0  0  0
  134.5177  119.7718   98.4627 C   0  0  0  0  0
  133.2014  119.4390   98.8207 C   0  0  0  0  0
  132.8928  118.1658   99.3251 C   0  0  0  0  0
  131.5813  117.8424   99.6769 C   0  0  0  0  0
  130.5648  118.7867   99.5286 C   0  0  0  0  0
  130.8578  120.0571   99.0291 C   0  0  0  0  0
  132.1733  120.4009   98.6693 C   0  0  0  0  0
  132.5944  124.5681   98.8353 O   0  0  0  0  0
  136.3387  122.6632   97.1208 O   0  0  0  0  0
  135.4375  118.9186   98.6012 O   0  0  0  0  0
  132.4708  121.6466   98.1840 N   0  0  0  0  0
  137.2679  120.5891   97.6195 N   0  0  0  0  0
  129.2928  118.4712   99.8705 F   0  0  0  0  0
  1 24  1  0  0  0
  2 24  1  0  0  0
  2  3  1  0  0  0
  3 27  1  0  0  0
  5  6  1  0  0  0
  5 17  1  0  0  0
  6 28  1  0  0  0
  7 28  1  0  0  0
  7  8  1  0  0  0
  8  9  1  0  0  0
  8 10  1  0  0  0
 11  8  1  0  0  0
 11 12  1  0  0  0
 12 13  1  0  0  0
 13 14  1  0  0  0
 14 15  1  0  0  0
 14 16  1  0  0  0
 14  7  1  0  0  0
 16 11  1  0  0  0
 17 18  1  0  0  0
 19 20  1  0  0  0
 21 29  1  0  0  0
 21 22  1  0  0  0
 23 27  1  0  0  0
 23 18  1  0  0  0
 27  4  1  0  0  0
  4  5  2  0  0  0
  6 25  2  0  0  0
 17 26  2  0  0  0
 18 19  2  0  0  0
 20 21  2  0  0  0
 22 23  2  0  0  0
M  END
> <rmsd>
0.680136979

$$$$
CHEMBL4756103_8GUT


 26 28  0  0  0  0  0  0  0  0999 V2000
  134.1208  124.8284   98.5435 C   0  0  0  0  0
  133.3659  124.1931   99.5259 C   0  0  0  0  0
  134.6780  122.2136   99.3182 C   0  0  0  0  0
  135.4697  122.8196   98.3162 C   0  0  0  0  0
  135.1710  124.1374   97.9427 C   0  0  0  0  0
  136.5925  122.1245   97.6409 C   0  0  0  0  0
  137.9949  120.0034   97.3386 C   0  0  0  0  0
  137.7285  119.8168   95.8385 C   0  0  0  0  0
  138.9439  119.4156   94.9993 C   0  0  0  0  0
  139.7958  118.3441   95.6639 C   0  0  0  0  0
  140.8977  119.0041   96.4831 C   0  0  0  0  0
  140.3900  119.5232   97.8248 C   0  0  0  0  0
  139.3505  120.6245   97.6608 C   0  0  0  0  0
  134.1124  120.2141  100.6701 C   0  0  0  0  0
  132.8728  119.7178  100.0064 C   0  0  0  0  0
  132.9370  118.6417   99.1138 C   0  0  0  0  0
  131.7764  118.1886   98.4794 C   0  0  0  0  0
  130.5511  118.8122   98.7350 C   0  0  0  0  0
  130.4864  119.8895   99.6241 C   0  0  0  0  0
  131.6468  120.3426  100.2587 C   0  0  0  0  0
  132.2407  124.9109  100.1788 C   0  0  0  0  0
  133.6577  122.9172   99.8879 N   0  0  0  0  0
  136.9153  120.7641   97.9591 N   0  0  0  0  0
  137.2700  122.7386   96.7712 O   0  0  0  0  0
  134.9340  120.9023   99.7335 O   0  0  0  0  0
  129.4269  118.3732   98.1202 F   0  0  0  0  0
  2 22  1  0  0  0
  3  4  1  0  0  0
  3 25  1  0  0  0
  4  6  1  0  0  0
  5  1  1  0  0  0
  6 23  1  0  0  0
  7 23  1  0  0  0
  7  8  1  0  0  0
  8  9  1  0  0  0
  9 10  1  0  0  0
 10 11  1  0  0  0
 11 12  1  0  0  0
 12 13  1  0  0  0
 13  7  1  0  0  0
 14 25  1  0  0  0
 14 15  1  0  0  0
 16 17  1  0  0  0
 18 19  1  0  0  0
 18 26  1  0  0  0
 20 15  1  0  0  0
 21  2  1  0  0  0
  1  2  2  0  0  0
  3 22  2  0  0  0
  4  5  2  0  0  0
  6 24  2  0  0  0
 15 16  2  0  0  0
 17 18  2  0  0  0
 19 20  2  0  0  0
M  END
> <rmsd>
0.611732244

$$$$
CHEMBL2022360_5ZTY


 27 30  0  0  0  0  0  0  0  0999 V2000
  131.9781  125.7059   99.5352 C   0  0  0  0  0
  131.4226  124.7834  100.4245 C   0  0  0  0  0
  132.0422  123.5478  100.6294 C   0  0  0  0  0
  133.2266  123.2168   99.9449 C   0  0  0  0  0
  133.7782  124.1611   99.0532 C   0  0  0  0  0
  133.1552  125.3956   98.8504 C   0  0  0  0  0
  134.9504  123.8577   98.3758 C   0  0  0  0  0
  135.5907  122.6318   98.5709 C   0  0  0  0  0
  135.0160  121.7058   99.4733 C   0  0  0  0  0
  133.2647  121.0117  101.0393 C   0  0  0  0  0
  132.3605  120.0848  100.2941 C   0  0  0  0  0
  132.8697  118.9065   99.7366 C   0  0  0  0  0
  132.0283  118.0485   99.0218 C   0  0  0  0  0
  130.6769  118.3689   98.8605 C   0  0  0  0  0
  130.1671  119.5478   99.4130 C   0  0  0  0  0
  131.0084  120.4057  100.1277 C   0  0  0  0  0
  136.8428  122.3637   97.8181 C   0  0  0  0  0
  138.7470  120.7989   97.2184 C   0  0  0  0  0
  138.3905  120.5141   95.7501 C   0  0  0  0  0
  139.4202  119.5955   95.0997 C   0  0  0  0  0
  139.4737  118.2313   95.8016 C   0  0  0  0  0
  139.0973  118.2906   97.2882 C   0  0  0  0  0
  139.4787  119.6350   97.9035 C   0  0  0  0  0
  135.5790  120.5946   99.6794 O   0  0  0  0  0
  137.3009  123.2433   97.0374 O   0  0  0  0  0
  133.8488  122.0071  100.1322 N   0  0  0  0  0
  137.5404  121.1224   97.9654 N   0  0  0  0  0
  2  3  1  0  0  0
  4  5  1  0  0  0
  5  7  1  0  0  0
  6  1  1  0  0  0
  8  9  1  0  0  0
  8 17  1  0  0  0
  9 26  1  0  0  0
 10 26  1  0  0  0
 10 11  1  0  0  0
 12 13  1  0  0  0
 14 15  1  0  0  0
 16 11  1  0  0  0
 17 27  1  0  0  0
 18 27  1  0  0  0
 18 19  1  0  0  0
 19 20  1  0  0  0
 20 21  1  0  0  0
 21 22  1  0  0  0
 22 23  1  0  0  0
 23 18  1  0  0  0
 26  4  1  0  0  0
  1  2  2  0  0  0
  3  4  2  0  0  0
  5  6  2  0  0  0
  7  8  2  0  0  0
  9 24  2  0  0  0
 11 12  2  0  0  0
 13 14  2  0  0  0
 15 16  2  0  0  0
 17 25  2  0  0  0
M  END
> <rmsd>
0.278878719

$$$$
CHEMBL3235056_8GUQ


 27 29  0  0  0  0  0  0  0  0999 V2000
  128.7455  117.2890   98.3780 C   0  0  0  0  0
  130.2050  117.3163   97.9668 C   0  0  0  0  0
  130.2819  117.5643   96.4682 C   0  0  0  0  0
  130.8230  115.9640   98.2627 C   0  0  0  0  0
  130.9285  118.3791   98.7503 C   0  0  0  0  0
  131.5983  119.4812   98.2381 C   0  0  0  0  0
  132.0685  120.0825   99.3886 C   0  0  0  0  0
  133.4340  121.8664  100.5776 C   0  0  0  0  0
  134.2411  123.1260  100.4733 C   0  0  0  0  0
  133.3475  124.3284  100.7206 C   0  0  0  0  0
  133.1631  125.0223   99.3764 C   0  0  0  0  0
  134.2061  124.4417   98.4387 C   0  0  0  0  0
  135.8432  122.5161   98.5749 C   0  0  0  0  0
  136.4354  121.4857   99.3190 C   0  0  0  0  0
  137.4561  120.7256   98.7504 C   0  0  0  0  0
  137.8952  120.9994   97.4502 C   0  0  0  0  0
  138.9677  120.1596   96.8176 C   0  0  0  0  0
  137.2614  122.0174   96.7268 C   0  0  0  0  0
  132.8629  121.2711   99.4044 N   0  0  0  0  0
  134.7801  123.3065   99.1341 N   0  0  0  0  0
  136.2644  122.7454   97.2986 N   0  0  0  0  0
  131.7056  119.3951  100.4859 N   0  0  0  0  0
  133.2435  121.3568  101.7133 O   0  0  0  0  0
  131.0170  118.3793  100.0619 O   0  0  0  0  0
  138.3981  119.0207   96.2766 F   0  0  0  0  0
  139.9058  119.7888   97.7654 F   0  0  0  0  0
  139.6105  120.8646   95.8153 F   0  0  0  0  0
  1  2  1  0  0  0
  2  3  1  0  0  0
  2  4  1  0  0  0
  2  5  1  0  0  0
  5 24  1  0  0  0
  6  7  1  0  0  0
  7 19  1  0  0  0
  9  8  1  0  0  0
  9 10  1  0  0  0
  9 20  1  0  0  0
 10 11  1  0  0  0
 11 12  1  0  0  0
 12 20  1  0  0  0
 13 21  1  0  0  0
 14 15  1  0  0  0
 16 18  1  0  0  0
 17 16  1  0  0  0
 17 25  1  0  0  0
 17 26  1  0  0  0
 17 27  1  0  0  0
 19  8  1  0  0  0
 20 13  1  0  0  0
 22 24  1  0  0  0
  5  6  2  0  0  0
  7 22  2  0  0  0
  8 23  2  0  0  0
 13 14  2  0  0  0
 15 16  2  0  0  0
 18 21  2  0  0  0
M  END
> <rmsd>
0.578362048

$$$$
CHEMBL3909299_6KPF


 32 35  0  0  0  0  0  0  0  0999 V2000
  131.0301  119.0113   97.2047 C   0  0  0  0  0
  131.7294  119.5263   98.4117 C   0  0  0  0  0
  132.9538  120.6205   99.6974 C   0  0  0  0  0
  133.8851  121.6685  100.2588 C   0  0  0  0  0
  134.6732  121.0934  101.4268 C   0  0  0  0  0
  133.0743  122.8500  100.7924 C   0  0  0  0  0
  132.3145  123.5862   99.6969 C   0  0  0  0  0
  132.7507  125.0366   99.6843 C   0  0  0  0  0
  131.4397  124.6471  100.3310 C   0  0  0  0  0
  135.7583  121.3184   98.5301 C   0  0  0  0  0
  136.6327  121.9179   97.5123 C   0  0  0  0  0
  137.3990  123.8515   96.3656 C   0  0  0  0  0
  138.2744  123.0813   95.5830 C   0  0  0  0  0
  138.3201  121.6923   95.7828 C   0  0  0  0  0
  137.4930  121.1160   96.7564 C   0  0  0  0  0
  139.2608  119.4846   94.9760 C   0  0  0  0  0
  139.5137  118.8743   96.3490 C   0  0  0  0  0
  138.0753  118.8550   94.2410 C   0  0  0  0  0
  139.1643  123.7163   94.5448 C   0  0  0  0  0
  138.4222  124.7349   93.6979 C   0  0  0  0  0
  139.2781  125.8423   94.2827 C   0  0  0  0  0
  140.0136  124.8262   95.1356 C   0  0  0  0  0
  132.6028  120.5499   98.3941 N   0  0  0  0  0
  132.3082  119.7073  100.4529 N   0  0  0  0  0
  134.8202  122.1434   99.2352 N   0  0  0  0  0
  136.6066  123.2608   97.2979 N   0  0  0  0  0
  131.5667  119.0455   99.6179 O   0  0  0  0  0
  135.8255  120.0821   98.7730 O   0  0  0  0  0
  139.1999  120.9155   95.0084 O   0  0  0  0  0
  138.3333  117.5157   94.0165 F   0  0  0  0  0
  136.9124  118.9693   94.9798 F   0  0  0  0  0
  137.9014  119.4829   93.0216 F   0  0  0  0  0
  1  2  1  0  0  0
  2 27  1  0  0  0
  3 23  1  0  0  0
  4  3  1  0  0  0
  4  5  1  0  0  0
  4  6  1  0  0  0
  4 25  1  0  0  0
  6  7  1  0  0  0
  7  8  1  0  0  0
  8  9  1  0  0  0
  9  7  1  0  0  0
 10 11  1  0  0  0
 12 26  1  0  0  0
 13 14  1  0  0  0
 14 29  1  0  0  0
 15 11  1  0  0  0
 16 29  1  0  0  0
 16 17  1  0  0  0
 16 18  1  0  0  0
 18 30  1  0  0  0
 18 31  1  0  0  0
 18 32  1  0  0  0
 19 13  1  0  0  0
 19 20  1  0  0  0
 20 21  1  0  0  0
 21 22  1  0  0  0
 22 19  1  0  0  0
 24 27  1  0  0  0
 25 10  1  0  0  0
  2 23  2  0  0  0
  3 24  2  0  0  0
 10 28  2  0  0  0
 11 26  2  0  0  0
 12 13  2  0  0  0
 14 15  2  0  0  0
M  END
> <rmsd>
0.739663661

$$$$
CHEMBL3400948_8GUQ


 31 33  0  0  0  0  0  0  0  0999 V2000
  134.9455  124.2373   98.8592 N   0  0  0  0  0
  132.6697  123.1259   97.8881 N   0  0  0  0  0
  131.3826  121.4545   99.1987 N   0  0  0  0  0
  131.5492  119.0033   99.1263 N   0  0  0  0  0
  137.1034  122.8021   97.4170 N   0  0  0  0  0
  134.7549  124.3953   97.4195 C   0  0  0  0  0
  133.6876  123.4344   96.8836 C   0  0  0  0  0
  132.0180  124.2140   98.6119 C   0  0  0  0  0
  132.7399  124.4569   99.9358 C   0  0  0  0  0
  134.1185  125.0821   99.7180 C   0  0  0  0  0
  132.3903  121.7588   98.2252 C   0  0  0  0  0
  131.0007  120.1361   99.6041 C   0  0  0  0  0
  130.0170  118.4832  100.5432 C   0  0  0  0  0
  130.0073  119.8672  100.5258 C   0  0  0  0  0
  129.1403  117.6186  101.3899 C   0  0  0  0  0
  135.6994  123.1451   99.4254 C   0  0  0  0  0
  136.6718  122.3587   98.6305 C   0  0  0  0  0
  138.0067  122.1084   96.6740 C   0  0  0  0  0
  138.5350  120.9030   97.1500 C   0  0  0  0  0
  138.1086  120.4283   98.3957 C   0  0  0  0  0
  137.1794  121.1556   99.1400 C   0  0  0  0  0
  139.5234  120.1373   96.3200 C   0  0  0  0  0
  133.0318  120.8307   97.6619 O   0  0  0  0  0
  130.9315  118.0270   99.7192 O   0  0  0  0  0
  135.5300  122.8484  100.6403 O   0  0  0  0  0
  129.1448  116.3234  100.9045 F   0  0  0  0  0
  127.8448  118.1032  101.3716 F   0  0  0  0  0
  129.6098  117.6179  102.6897 F   0  0  0  0  0
  139.9908  119.0267   97.0020 F   0  0  0  0  0
  140.5968  120.9518   96.0087 F   0  0  0  0  0
  138.9169  119.7212   95.1489 F   0  0  0  0  0
  1 16  1  0  0  0
  2 11  1  0  0  0
  3 12  1  0  0  0
  4 24  1  0  0  0
  6  1  1  0  0  0
  6  7  1  0  0  0
  7  2  1  0  0  0
  8  2  1  0  0  0
  8  9  1  0  0  0
  9 10  1  0  0  0
 10  1  1  0  0  0
 11  3  1  0  0  0
 13 24  1  0  0  0
 14 12  1  0  0  0
 15 13  1  0  0  0
 15 26  1  0  0  0
 15 27  1  0  0  0
 15 28  1  0  0  0
 16 17  1  0  0  0
 18  5  1  0  0  0
 19 20  1  0  0  0
 21 17  1  0  0  0
 22 19  1  0  0  0
 22 29  1  0  0  0
 22 30  1  0  0  0
 22 31  1  0  0  0
 11 23  2  0  0  0
 12  4  2  0  0  0
 13 14  2  0  0  0
 16 25  2  0  0  0
 17  5  2  0  0  0
 18 19  2  0  0  0
 20 21  2  0  0  0
M  END
> <rmsd>
0.711667538

$$$$
CHEMBL4753891_8GUT


 27 29  0  0  0  0  0  0  0  0999 V2000
  133.8081  123.4721   99.6621 C   0  0  0  0  0
  133.3767  122.3445  100.3744 C   0  0  0  0  0
  133.4580  119.9344  100.8444 C   0  0  0  0  0
  132.3831  119.2318  100.0807 C   0  0  0  0  0
  131.0502  119.6399  100.2053 C   0  0  0  0  0
  130.0481  118.9938   99.4752 C   0  0  0  0  0
  130.3775  117.9404   98.6170 C   0  0  0  0  0
  131.7090  117.5340   98.4876 C   0  0  0  0  0
  132.7110  118.1801   99.2178 C   0  0  0  0  0
  134.9148  120.9685   99.1681 C   0  0  0  0  0
  135.3668  122.0847   98.4295 C   0  0  0  0  0
  134.7963  123.3303   98.6965 C   0  0  0  0  0
  136.4203  121.9982   97.3868 C   0  0  0  0  0
  138.0583  120.6062   96.0346 C   0  0  0  0  0
  138.1472  119.1671   95.5235 C   0  0  0  0  0
  138.6264  118.1761   96.5788 C   0  0  0  0  0
  140.1386  118.2750   96.7124 C   0  0  0  0  0
  140.5840  119.2541   97.8016 C   0  0  0  0  0
  139.7451  120.5282   97.9238 C   0  0  0  0  0
  139.3900  121.1455   96.5737 C   0  0  0  0  0
  132.3226  122.5042  101.4284 C   0  0  0  0  0
  133.9281  121.1151  100.1116 N   0  0  0  0  0
  136.9859  120.7374   97.0148 N   0  0  0  0  0
  129.4067  117.3145   97.9097 F   0  0  0  0  0
  135.4225  119.8302   98.9667 O   0  0  0  0  0
  136.8181  123.0499   96.8135 O   0  0  0  0  0
  133.0832  125.2180   99.9699 Br  0  0  0  0  0
  1 27  1  0  0  0
  2 22  1  0  0  0
  3 22  1  0  0  0
  3  4  1  0  0  0
  5  6  1  0  0  0
  7  8  1  0  0  0
  7 24  1  0  0  0
  9  4  1  0  0  0
 10 11  1  0  0  0
 11 13  1  0  0  0
 12  1  1  0  0  0
 13 23  1  0  0  0
 14 23  1  0  0  0
 14 15  1  0  0  0
 15 16  1  0  0  0
 16 17  1  0  0  0
 17 18  1  0  0  0
 18 19  1  0  0  0
 19 20  1  0  0  0
 20 14  1  0  0  0
 21  2  1  0  0  0
 22 10  1  0  0  0
  1  2  2  0  0  0
  4  5  2  0  0  0
  6  7  2  0  0  0
  8  9  2  0  0  0
 10 25  2  0  0  0
 11 12  2  0  0  0
 13 26  2  0  0  0
M  END
> <rmsd>
0.607419729

$$$$
CHEMBL3421695_5ZTY


 25 27  0  0  0  0  0  0  0  0999 V2000
  133.4103  122.2315   99.8801 N   0  0  0  0  0
  134.7314  120.0741   96.6509 N   0  0  0  0  0
  135.7452  120.8553   96.2824 N   0  0  0  0  0
  134.4826  122.6382   99.1297 C   0  0  0  0  0
  134.8642  121.8564   98.0549 C   0  0  0  0  0
  134.1679  120.6560   97.7293 C   0  0  0  0  0
  133.0872  120.2425   98.4913 C   0  0  0  0  0
  132.7127  121.0665   99.5943 C   0  0  0  0  0
  131.6213  120.6629  100.3835 C   0  0  0  0  0
  130.9236  119.4874  100.0904 C   0  0  0  0  0
  131.3036  118.6934   99.0049 C   0  0  0  0  0
  132.3847  119.0683   98.2044 C   0  0  0  0  0
  135.8491  121.9257   97.1059 C   0  0  0  0  0
  136.6250  120.5545   95.1617 C   0  0  0  0  0
  137.6014  119.4502   95.5331 C   0  0  0  0  0
  138.6461  119.9710   96.5054 C   0  0  0  0  0
  139.6205  118.8683   96.8885 C   0  0  0  0  0
  140.7252  118.7241   95.8532 C   0  0  0  0  0
  140.2690  117.8509   94.7000 C   0  0  0  0  0
  133.0280  123.0860  101.0023 C   0  0  0  0  0
  131.8824  124.0106  100.6146 C   0  0  0  0  0
  132.3753  125.1138   99.6931 C   0  0  0  0  0
  131.2274  126.0229   99.2932 C   0  0  0  0  0
  130.8563  126.9437  100.4405 C   0  0  0  0  0
  136.7205  122.8299   97.0028 O   0  0  0  0  0
  1  4  1  0  0  0
  3  2  1  0  0  0
  3 13  1  0  0  0
  5  6  1  0  0  0
  6  7  1  0  0  0
  8  9  1  0  0  0
  8  1  1  0  0  0
 10 11  1  0  0  0
 12  7  1  0  0  0
 13  5  1  0  0  0
 14  3  1  0  0  0
 14 15  1  0  0  0
 15 16  1  0  0  0
 16 17  1  0  0  0
 17 18  1  0  0  0
 18 19  1  0  0  0
 20  1  1  0  0  0
 20 21  1  0  0  0
 21 22  1  0  0  0
 22 23  1  0  0  0
 23 24  1  0  0  0
  4  5  2  0  0  0
  6  2  2  0  0  0
  7  8  2  0  0  0
  9 10  2  0  0  0
 11 12  2  0  0  0
 13 25  2  0  0  0
M  END
> <rmsd>
0.708520949

$$$$
CHEMBL3234706_8GUQ


 27 29  0  0  0  0  0  0  0  0999 V2000
  129.0840  117.2658  100.9385 C   0  0  0  0  0
  130.5186  116.9945  100.5298 C   0  0  0  0  0
  130.5398  115.8791   99.5040 C   0  0  0  0  0
  131.2931  116.5370  101.7531 C   0  0  0  0  0
  131.1239  118.2450   99.9488 C   0  0  0  0  0
  130.7157  118.8767   98.7831 C   0  0  0  0  0
  131.5700  119.9574   98.7331 C   0  0  0  0  0
  132.2625  122.1936   97.7137 C   0  0  0  0  0
  133.0596  122.6312   98.9105 C   0  0  0  0  0
  132.3508  123.7699   99.6223 C   0  0  0  0  0
  133.1295  125.0359   99.2878 C   0  0  0  0  0
  134.4826  124.5843   98.7695 C   0  0  0  0  0
  135.4362  122.3638   98.0098 C   0  0  0  0  0
  135.3036  120.9741   97.8929 C   0  0  0  0  0
  136.3781  120.2178   97.4251 C   0  0  0  0  0
  137.5810  120.8432   97.0827 C   0  0  0  0  0
  138.7334  120.0307   96.5698 C   0  0  0  0  0
  137.6674  122.2362   97.1893 C   0  0  0  0  0
  131.5430  120.9552   97.7069 N   0  0  0  0  0
  134.3496  123.1653   98.5051 N   0  0  0  0  0
  136.6092  122.9567   97.6472 N   0  0  0  0  0
  132.4213  119.9572   99.7753 N   0  0  0  0  0
  132.1787  122.9528   96.7125 O   0  0  0  0  0
  132.1171  118.9147  100.4873 O   0  0  0  0  0
  138.4698  119.6253   95.2748 F   0  0  0  0  0
  138.9060  118.9136   97.3645 F   0  0  0  0  0
  139.9037  120.7732   96.5825 F   0  0  0  0  0
  1  2  1  0  0  0
  2  3  1  0  0  0
  2  4  1  0  0  0
  2  5  1  0  0  0
  5 24  1  0  0  0
  6  7  1  0  0  0
  7 19  1  0  0  0
  9  8  1  0  0  0
  9 10  1  0  0  0
  9 20  1  0  0  0
 10 11  1  0  0  0
 11 12  1  0  0  0
 12 20  1  0  0  0
 13 21  1  0  0  0
 14 15  1  0  0  0
 16 18  1  0  0  0
 17 16  1  0  0  0
 17 25  1  0  0  0
 17 26  1  0  0  0
 17 27  1  0  0  0
 19  8  1  0  0  0
 20 13  1  0  0  0
 22 24  1  0  0  0
  5  6  2  0  0  0
  7 22  2  0  0  0
  8 23  2  0  0  0
 13 14  2  0  0  0
 15 16  2  0  0  0
 18 21  2  0  0  0
M  END
> <rmsd>
0.481006235

$$$$
CHEMBL3354962_8GUQ


 24 27  0  0  0  0  0  0  0  0999 V2000
  138.8624  120.7682   95.4061 C   0  0  0  0  0
  138.5763  120.2625   96.8084 C   0  0  0  0  0
  139.4701  120.9791   97.8042 C   0  0  0  0  0
  138.8824  118.7809   96.8611 C   0  0  0  0  0
  136.5150  121.7409   97.2021 C   0  0  0  0  0
  135.0922  121.8080   97.5578 C   0  0  0  0  0
  133.1725  122.5211   98.2720 C   0  0  0  0  0
  134.3442  122.9511   97.7681 C   0  0  0  0  0
  134.7368  124.2631   98.3207 C   0  0  0  0  0
  133.5257  124.6682   99.1942 C   0  0  0  0  0
  132.5308  123.4927   99.1946 C   0  0  0  0  0
  133.4034  123.7630  100.4097 C   0  0  0  0  0
  132.2054  120.3292   98.9852 C   0  0  0  0  0
  130.8315  120.6459   98.9666 C   0  0  0  0  0
  129.9088  119.7991   99.5885 C   0  0  0  0  0
  130.3405  118.6346  100.2270 C   0  0  0  0  0
  131.6969  118.3042  100.2332 C   0  0  0  0  0
  132.6230  119.1457   99.6125 C   0  0  0  0  0
  137.1701  120.4668   97.1469 N   0  0  0  0  0
  134.3536  120.7322   97.9100 N   0  0  0  0  0
  133.1814  121.1736   98.3514 N   0  0  0  0  0
  137.1508  122.7984   96.9434 O   0  0  0  0  0
  129.4420  117.8193  100.8291 F   0  0  0  0  0
  130.3737  121.7409   98.3116 F   0  0  0  0  0
  1  2  1  0  0  0
  2  3  1  0  0  0
  2  4  1  0  0  0
  2 19  1  0  0  0
  5  6  1  0  0  0
  8  6  1  0  0  0
  9  8  1  0  0  0
 10  9  1  0  0  0
 10 11  1  0  0  0
 11 12  1  0  0  0
 11  7  1  0  0  0
 12 10  1  0  0  0
 14 15  1  0  0  0
 14 24  1  0  0  0
 16 17  1  0  0  0
 16 23  1  0  0  0
 18 13  1  0  0  0
 19  5  1  0  0  0
 21 20  1  0  0  0
 21  7  1  0  0  0
 21 13  1  0  0  0
  5 22  2  0  0  0
  6 20  2  0  0  0
  7  8  2  0  0  0
 13 14  2  0  0  0
 15 16  2  0  0  0
 17 18  2  0  0  0
M  END
> <rmsd>
0.532564104

$$$$
CHEMBL2163573_6PT0


 24 27  0  0  0  0  0  0  0  0999 V2000
  132.7597  124.5553   99.5233 C   0  0  0  0  0
  131.9343  123.3458   99.1023 C   0  0  0  0  0
  130.7848  123.1957  100.1001 C   0  0  0  0  0
  130.8725  120.7860   99.7262 C   0  0  0  0  0
  130.2923  119.5359   99.9520 C   0  0  0  0  0
  131.0416  118.3729   99.7659 C   0  0  0  0  0
  132.3708  118.4563   99.3454 C   0  0  0  0  0
  132.9621  119.7053   99.0990 C   0  0  0  0  0
  134.2851  119.8007   98.6425 C   0  0  0  0  0
  134.8310  121.0678   98.3520 C   0  0  0  0  0
  136.2138  121.2593   97.8464 C   0  0  0  0  0
  138.4368  120.2805   97.1218 C   0  0  0  0  0
  138.3891  120.5810   95.6232 C   0  0  0  0  0
  139.8045  120.6990   95.0646 C   0  0  0  0  0
  140.5782  119.4076   95.3162 C   0  0  0  0  0
  140.6250  119.1046   96.8115 C   0  0  0  0  0
  139.2092  118.9876   97.3695 C   0  0  0  0  0
  134.0262  122.1994   98.5350 C   0  0  0  0  0
  132.2051  120.8850   99.2879 C   0  0  0  0  0
  130.1295  121.9452   99.9318 O   0  0  0  0  0
  134.9696  118.7521   98.4858 O   0  0  0  0  0
  136.6296  122.4242   97.5957 O   0  0  0  0  0
  137.0858  120.1423   97.6437 N   0  0  0  0  0
  132.7517  122.1143   99.0160 N   0  0  0  0  0
  2  1  1  0  0  0
  2  3  1  0  0  0
  2 24  1  0  0  0
  3 20  1  0  0  0
  4 20  1  0  0  0
  4  5  1  0  0  0
  6  7  1  0  0  0
  8  9  1  0  0  0
  9 10  1  0  0  0
 10 11  1  0  0  0
 11 23  1  0  0  0
 12 23  1  0  0  0
 12 13  1  0  0  0
 13 14  1  0  0  0
 14 15  1  0  0  0
 15 16  1  0  0  0
 16 17  1  0  0  0
 17 12  1  0  0  0
 18 24  1  0  0  0
 19  8  1  0  0  0
 24 19  1  0  0  0
  5  6  2  0  0  0
  7  8  2  0  0  0
  9 21  2  0  0  0
 10 18  2  0  0  0
 11 22  2  0  0  0
 19  4  2  0  0  0
M  END
> <rmsd>
0.589666903

$$$$
CHEMBL500925_5ZTY


 31 35  0  0  0  0  0  0  0  0999 V2000
  135.3316  126.0566  100.1267 C   0  0  0  0  0
  133.9064  125.7083   99.7536 C   0  0  0  0  0
  133.4797  124.4595  100.5021 C   0  0  0  0  0
  132.0587  124.0712  100.1223 C   0  0  0  0  0
  131.9898  123.4997   98.7076 C   0  0  0  0  0
  133.8925  122.1931   98.1702 C   0  0  0  0  0
  134.6699  121.0379   98.0986 C   0  0  0  0  0
  136.0527  121.1482   97.5694 C   0  0  0  0  0
  138.2492  119.9933   96.9155 C   0  0  0  0  0
  138.2891  120.5467   95.4777 C   0  0  0  0  0
  139.7321  120.5377   94.9494 C   0  0  0  0  0
  140.6144  121.4011   95.8666 C   0  0  0  0  0
  140.5932  120.8417   97.2988 C   0  0  0  0  0
  141.1151  119.3960   97.2864 C   0  0  0  0  0
  140.2302  118.5261   96.3792 C   0  0  0  0  0
  140.2593  119.0939   94.9510 C   0  0  0  0  0
  138.7855  118.5517   96.9058 C   0  0  0  0  0
  139.1496  120.8515   97.8254 C   0  0  0  0  0
  134.1098  119.8303   98.5473 C   0  0  0  0  0
  132.7867  119.8073   99.0184 C   0  0  0  0  0
  132.2336  118.5987   99.4551 C   0  0  0  0  0
  130.9217  118.5379   99.9009 C   0  0  0  0  0
  130.1288  119.6791   99.9069 C   0  0  0  0  0
  130.6478  120.9140   99.4682 C   0  0  0  0  0
  129.6991  122.0706   99.4160 C   0  0  0  0  0
  132.0139  121.0035   99.0428 C   0  0  0  0  0
  132.6183  122.1827   98.6450 N   0  0  0  0  0
  136.8792  119.9851   97.4192 N   0  0  0  0  0
  136.5048  122.2808   97.2441 O   0  0  0  0  0
  134.7853  118.7640   98.5254 O   0  0  0  0  0
  128.4669  119.5116  100.4625 Cl  0  0  0  0  0
  1  2  1  0  0  0
  2  3  1  0  0  0
  3  4  1  0  0  0
  4  5  1  0  0  0
  5 27  1  0  0  0
  7  8  1  0  0  0
  7 19  1  0  0  0
  8 28  1  0  0  0
  9 28  1  0  0  0
  9 10  1  0  0  0
 11 10  1  0  0  0
 11 12  1  0  0  0
 13 12  1  0  0  0
 13 14  1  0  0  0
 13 18  1  0  0  0
 15 14  1  0  0  0
 15 16  1  0  0  0
 15 17  1  0  0  0
 16 11  1  0  0  0
 17  9  1  0  0  0
 18  9  1  0  0  0
 19 20  1  0  0  0
 21 22  1  0  0  0
 23 31  1  0  0  0
 23 24  1  0  0  0
 25 24  1  0  0  0
 26 27  1  0  0  0
 26 20  1  0  0  0
 27  6  1  0  0  0
  6  7  2  0  0  0
  8 29  2  0  0  0
 19 30  2  0  0  0
 20 21  2  0  0  0
 22 23  2  0  0  0
 24 26  2  0  0  0
M  END
> <rmsd>
0.65694952

$$$$
CHEMBL3647321_8GUR


 32 34  0  0  0  0  0  0  0  0999 V2000
  132.8883  124.5159  100.2836 C   0  0  0  0  0
  133.5034  124.1081   98.9582 C   0  0  0  0  0
  133.1002  122.6888   98.6020 C   0  0  0  0  0
  133.8783  121.6897   99.4439 C   0  0  0  0  0
  134.3180  119.4335   98.4945 C   0  0  0  0  0
  136.5103  118.9002   97.5041 C   0  0  0  0  0
  137.8134  119.4612   97.0761 C   0  0  0  0  0
  138.8708  118.5761   96.8148 C   0  0  0  0  0
  140.1274  119.0437   96.4120 C   0  0  0  0  0
  140.3400  120.4214   96.3012 C   0  0  0  0  0
  139.2984  121.3154   96.5478 C   0  0  0  0  0
  138.0293  120.8503   96.9244 C   0  0  0  0  0
  136.4497  123.5102   95.7014 C   0  0  0  0  0
  136.5571  125.0118   95.5421 C   0  0  0  0  0
  137.0835  122.8515   94.4886 C   0  0  0  0  0
  134.9785  123.1380   95.7717 C   0  0  0  0  0
  141.2583  118.0812   96.1932 C   0  0  0  0  0
  132.1417  118.4431   99.0082 C   0  0  0  0  0
  130.9729  117.7265   99.2356 C   0  0  0  0  0
  129.9250  118.3999   99.8804 C   0  0  0  0  0
  131.2194  120.4039  100.0383 C   0  0  0  0  0
  132.2811  119.7650   99.3942 C   0  0  0  0  0
  133.4898  120.3235   99.1024 N   0  0  0  0  0
  135.5297  119.7455   98.1295 N   0  0  0  0  0
  137.1449  123.1174   96.9284 N   0  0  0  0  0
  130.0688  119.7050  100.2634 N   0  0  0  0  0
  136.2917  117.6673   97.3498 O   0  0  0  0  0
  136.9855  121.7587   97.1325 O   0  0  0  0  0
  141.9145  117.8676   97.3910 F   0  0  0  0  0
  142.1558  118.5913   95.2707 F   0  0  0  0  0
  140.7779  116.8727   95.7189 F   0  0  0  0  0
  133.5643  117.9226   98.2838 S   0  0  0  0  0
  1  2  1  0  0  0
  2  3  1  0  0  0
  3  4  1  0  0  0
  4 23  1  0  0  0
  5 32  1  0  0  0
  6 24  1  0  0  0
  6  7  1  0  0  0
  8  9  1  0  0  0
 10 11  1  0  0  0
 12 28  1  0  0  0
 12  7  1  0  0  0
 13 25  1  0  0  0
 13 14  1  0  0  0
 13 15  1  0  0  0
 13 16  1  0  0  0
 17  9  1  0  0  0
 17 29  1  0  0  0
 17 30  1  0  0  0
 17 31  1  0  0  0
 18 32  1  0  0  0
 19 20  1  0  0  0
 21 26  1  0  0  0
 22 23  1  0  0  0
 22 18  1  0  0  0
 23  5  1  0  0  0
 25 28  1  0  0  0
  5 24  2  0  0  0
  6 27  2  0  0  0
  7  8  2  0  0  0
  9 10  2  0  0  0
 11 12  2  0  0  0
 18 19  2  0  0  0
 20 26  2  0  0  0
 21 22  2  0  0  0
M  END
> <rmsd>
0.40369916

$$$$
CHEMBL4788749_5ZTY


 26 27  0  0  0  0  0  0  0  0999 V2000
  133.6727  120.9932   98.6453 C   0  0  0  0  0
  135.6136  121.5772   97.8588 C   0  0  0  0  0
  134.9014  120.4644   98.2769 C   0  0  0  0  0
  136.9953  121.5650   97.3676 C   0  0  0  0  0
  139.0922  120.1848   96.8231 C   0  0  0  0  0
  139.2050  120.6463   95.3815 C   0  0  0  0  0
  139.4841  118.7206   96.8822 C   0  0  0  0  0
  140.0458  121.0041   97.6889 C   0  0  0  0  0
  132.6482  123.2946   98.7626 C   0  0  0  0  0
  132.8236  123.7854  100.1900 C   0  0  0  0  0
  131.7287  124.7739  100.5474 C   0  0  0  0  0
  131.9916  126.1157   99.8904 C   0  0  0  0  0
  130.8840  127.0814  100.2549 C   0  0  0  0  0
  132.5246  120.2035   99.1666 C   0  0  0  0  0
  131.2243  120.7271   99.0949 C   0  0  0  0  0
  130.1290  119.9973   99.5618 C   0  0  0  0  0
  130.3196  118.7273  100.1060 C   0  0  0  0  0
  131.6047  118.1884  100.1832 C   0  0  0  0  0
  132.7046  118.9147   99.7161 C   0  0  0  0  0
  133.6901  122.3311   98.4386 N   0  0  0  0  0
  134.8703  122.6931   97.9704 N   0  0  0  0  0
  137.7132  120.3260   97.2881 N   0  0  0  0  0
  137.5437  122.6453   97.0189 O   0  0  0  0  0
  139.9357  120.6414   99.0337 O   0  0  0  0  0
  133.9377  118.3602   99.8240 F   0  0  0  0  0
  129.2588  118.0180  100.5599 F   0  0  0  0  0
  1 20  1  0  0  0
  1 14  1  0  0  0
  2  3  1  0  0  0
  2  4  1  0  0  0
  4 22  1  0  0  0
  5 22  1  0  0  0
  5  6  1  0  0  0
  5  7  1  0  0  0
  5  8  1  0  0  0
  8 24  1  0  0  0
  9 20  1  0  0  0
  9 10  1  0  0  0
 10 11  1  0  0  0
 11 12  1  0  0  0
 12 13  1  0  0  0
 15 16  1  0  0  0
 17 18  1  0  0  0
 17 26  1  0  0  0
 19 25  1  0  0  0
 19 14  1  0  0  0
 20 21  1  0  0  0
  2 21  2  0  0  0
  3  1  2  0  0  0
  4 23  2  0  0  0
 14 15  2  0  0  0
 16 17  2  0  0  0
 18 19  2  0  0  0
M  END
> <rmsd>
0.585587621

$$$$
CHEMBL250767_5ZTY


 29 32  0  0  0  0  0  0  0  0999 V2000
  133.1393  125.4915   99.0862 C   0  0  0  0  0
  132.3650  124.7993  100.0193 C   0  0  0  0  0
  132.6893  123.4717  100.3344 C   0  0  0  0  0
  133.7790  122.8286   99.7226 C   0  0  0  0  0
  134.5569  123.5414   98.7800 C   0  0  0  0  0
  134.2269  124.8696   98.4707 C   0  0  0  0  0
  135.6500  122.9089   98.1661 C   0  0  0  0  0
  135.9595  121.5726   98.4967 C   0  0  0  0  0
  135.1550  120.9153   99.4354 C   0  0  0  0  0
  133.3097  120.7527  100.9810 C   0  0  0  0  0
  132.2372  119.9890  100.2770 C   0  0  0  0  0
  130.9660  120.5517  100.1167 C   0  0  0  0  0
  129.9686  119.8464   99.4367 C   0  0  0  0  0
  130.2422  118.5793   98.9124 C   0  0  0  0  0
  131.5136  118.0180   99.0668 C   0  0  0  0  0
  132.5112  118.7233   99.7467 C   0  0  0  0  0
  137.0949  120.8279   97.8955 C   0  0  0  0  0
  139.1021  120.8593   96.2475 C   0  0  0  0  0
  138.7263  119.7228   95.2877 C   0  0  0  0  0
  138.6608  118.3661   95.9843 C   0  0  0  0  0
  139.9553  118.0924   96.7393 C   0  0  0  0  0
  140.1533  119.1516   97.8160 C   0  0  0  0  0
  140.2725  120.5371   97.1859 C   0  0  0  0  0
  130.4390  124.8189  101.5708 C   0  0  0  0  0
  136.3455  123.5418   97.3244 O   0  0  0  0  0
  137.3009  119.6341   98.2425 O   0  0  0  0  0
  131.2822  125.4501  100.6167 O   0  0  0  0  0
  134.0962  121.5315  100.0268 N   0  0  0  0  0
  137.9519  121.4530   96.9296 N   0  0  0  0  0
  2  3  1  0  0  0
  2 27  1  0  0  0
  4  5  1  0  0  0
  5  7  1  0  0  0
  6  1  1  0  0  0
  7  8  1  0  0  0
  8 17  1  0  0  0
  9 28  1  0  0  0
 10 28  1  0  0  0
 10 11  1  0  0  0
 12 13  1  0  0  0
 14 15  1  0  0  0
 16 11  1  0  0  0
 17 29  1  0  0  0
 18 29  1  0  0  0
 18 19  1  0  0  0
 19 20  1  0  0  0
 20 21  1  0  0  0
 21 22  1  0  0  0
 22 23  1  0  0  0
 23 18  1  0  0  0
 24 27  1  0  0  0
 28  4  1  0  0  0
  1  2  2  0  0  0
  3  4  2  0  0  0
  5  6  2  0  0  0
  7 25  2  0  0  0
  8  9  2  0  0  0
 11 12  2  0  0  0
 13 14  2  0  0  0
 15 16  2  0  0  0
 17 26  2  0  0  0
M  END
> <rmsd>
0.522336781

$$$$
CHEMBL2087099_5ZTY


 34 39  0  0  0  0  0  0  0  0999 V2000
  132.9856  130.9861   97.8478 C   0  0  0  0  0
  133.9679  129.8304   97.8654 C   0  0  0  0  0
  133.2338  128.5074   97.7098 C   0  0  0  0  0
  132.5076  128.1204   98.9924 C   0  0  0  0  0
  133.4886  127.6818  100.0734 C   0  0  0  0  0
  135.4342  126.2420   99.4683 C   0  0  0  0  0
  135.6766  124.8956   99.1949 C   0  0  0  0  0
  137.0044  124.3132   98.9131 C   0  0  0  0  0
  137.1785  123.0900   98.1110 C   0  0  0  0  0
  138.7023  121.1382   97.4533 C   0  0  0  0  0
  140.1249  120.6692   97.8030 C   0  0  0  0  0
  140.4535  119.3671   97.0537 C   0  0  0  0  0
  139.4420  118.2819   97.4560 C   0  0  0  0  0
  138.0164  118.7363   97.1043 C   0  0  0  0  0
  137.9243  118.9929   95.5910 C   0  0  0  0  0
  138.9328  120.0772   95.1770 C   0  0  0  0  0
  140.3529  119.6146   95.5399 C   0  0  0  0  0
  138.6187  121.3776   95.9331 C   0  0  0  0  0
  137.7023  120.0373   97.8586 C   0  0  0  0  0
  134.4574  124.2484   99.3216 C   0  0  0  0  0
  134.1150  122.8999   99.2371 C   0  0  0  0  0
  132.7717  122.5390   99.4566 C   0  0  0  0  0
  132.3741  121.1261   99.3564 C   0  0  0  0  0
  131.0985  120.6306   99.5381 C   0  0  0  0  0
  131.2156  119.2657   99.3424 C   0  0  0  0  0
  132.5471  119.0203   99.0558 C   0  0  0  0  0
  131.8181  123.5356   99.7734 C   0  0  0  0  0
  132.1936  124.8861   99.8750 C   0  0  0  0  0
  133.5313  125.2057   99.6405 C   0  0  0  0  0
  134.1164  126.4146   99.7211 N   0  0  0  0  0
  138.4179  122.3729   98.1786 N   0  0  0  0  0
  138.0287  124.8963   99.3594 O   0  0  0  0  0
  136.2592  122.6941   97.3445 O   0  0  0  0  0
  133.2048  120.1540   99.0739 O   0  0  0  0  0
  1  2  1  0  0  0
  2  3  1  0  0  0
  3  4  1  0  0  0
  4  5  1  0  0  0
  5 30  1  0  0  0
  7  8  1  0  0  0
  7 20  1  0  0  0
  8  9  1  0  0  0
  9 31  1  0  0  0
 10 31  1  0  0  0
 10 11  1  0  0  0
 12 11  1  0  0  0
 12 13  1  0  0  0
 14 13  1  0  0  0
 14 15  1  0  0  0
 14 19  1  0  0  0
 16 15  1  0  0  0
 16 17  1  0  0  0
 16 18  1  0  0  0
 17 12  1  0  0  0
 18 10  1  0  0  0
 19 10  1  0  0  0
 21 22  1  0  0  0
 22 23  1  0  0  0
 23 34  1  0  0  0
 24 25  1  0  0  0
 26 34  1  0  0  0
 27 28  1  0  0  0
 29 30  1  0  0  0
 29 20  1  0  0  0
 30  6  1  0  0  0
  6  7  2  0  0  0
  8 32  2  0  0  0
  9 33  2  0  0  0
 20 21  2  0  0  0
 22 27  2  0  0  0
 23 24  2  0  0  0
 25 26  2  0  0  0
 28 29  2  0  0  0
M  END
> <rmsd>
0.715291619

$$$$
CHEMBL1668504_5ZTY


 26 28  0  0  0  0  0  0  0  0999 V2000
  132.4883  123.7219   99.4742 C   0  0  0  0  0
  133.6440  122.9792   98.8927 C   0  0  0  0  0
  135.5600  122.6227   98.0279 C   0  0  0  0  0
  136.8828  122.8695   97.4276 C   0  0  0  0  0
  139.0288  121.8363   96.4539 C   0  0  0  0  0
  139.6393  123.0718   96.1865 C   0  0  0  0  0
  140.9103  123.1311   95.6131 C   0  0  0  0  0
  141.5878  121.9535   95.2994 C   0  0  0  0  0
  140.9938  120.7177   95.5596 C   0  0  0  0  0
  139.7159  120.6427   96.1362 C   0  0  0  0  0
  139.0979  119.2936   96.4053 C   0  0  0  0  0
  134.9593  121.4017   98.2827 C   0  0  0  0  0
  135.5158  120.0548   97.9506 C   0  0  0  0  0
  132.7696  120.6491   99.2498 C   0  0  0  0  0
  131.3961  120.9338   99.1861 C   0  0  0  0  0
  130.4525  119.9863   99.5927 C   0  0  0  0  0
  130.8727  118.7418  100.0678 C   0  0  0  0  0
  132.2358  118.4455  100.1363 C   0  0  0  0  0
  133.1784  119.3942   99.7296 C   0  0  0  0  0
  134.7342  123.6151   98.4162 N   0  0  0  0  0
  137.7201  121.7691   97.0443 N   0  0  0  0  0
  133.7442  121.6283   98.8292 N   0  0  0  0  0
  137.2661  124.0580   97.2587 O   0  0  0  0  0
  137.9161  119.1741   95.6967 F   0  0  0  0  0
  138.8338  119.1639   97.7567 F   0  0  0  0  0
  139.9477  118.2691   96.0218 F   0  0  0  0  0
  1  2  1  0  0  0
  3 20  1  0  0  0
  3  4  1  0  0  0
  4 21  1  0  0  0
  6  7  1  0  0  0
  8  9  1  0  0  0
 10  5  1  0  0  0
 11 10  1  0  0  0
 11 24  1  0  0  0
 11 25  1  0  0  0
 11 26  1  0  0  0
 12 22  1  0  0  0
 13 12  1  0  0  0
 15 16  1  0  0  0
 17 18  1  0  0  0
 19 14  1  0  0  0
 21  5  1  0  0  0
 22 14  1  0  0  0
 22  2  1  0  0  0
  2 20  2  0  0  0
  3 12  2  0  0  0
  4 23  2  0  0  0
  5  6  2  0  0  0
  7  8  2  0  0  0
  9 10  2  0  0  0
 14 15  2  0  0  0
 16 17  2  0  0  0
 18 19  2  0  0  0
M  END
> <rmsd>
0.749450386

$$$$
CHEMBL4640659_5ZTY


 29 33  0  0  0  0  0  0  0  0999 V2000
  132.8350  120.0662   98.9796 C   0  0  0  0  0
  134.0649  120.0334   98.3408 C   0  0  0  0  0
  134.9028  121.1738   98.4555 C   0  0  0  0  0
  134.4349  122.2954   99.2152 C   0  0  0  0  0
  132.4316  121.1532   99.6866 C   0  0  0  0  0
  131.1758  120.8691  100.1831 C   0  0  0  0  0
  129.6662  118.9020  100.0211 C   0  0  0  0  0
  132.7093  123.4168  100.5832 C   0  0  0  0  0
  131.7240  124.2391   99.7639 C   0  0  0  0  0
  132.4456  125.0040   98.6713 C   0  0  0  0  0
  131.4405  125.7935   97.8604 C   0  0  0  0  0
  136.2375  121.2001   97.7976 C   0  0  0  0  0
  138.2161  119.8833   96.8286 C   0  0  0  0  0
  138.5843  118.3998   96.6565 C   0  0  0  0  0
  139.9573  118.2688   95.9766 C   0  0  0  0  0
  139.9068  118.9476   94.5983 C   0  0  0  0  0
  139.5467  120.4334   94.7580 C   0  0  0  0  0
  138.1739  120.5485   95.4390 C   0  0  0  0  0
  140.6070  121.1212   95.6340 C   0  0  0  0  0
  140.6664  120.4495   97.0161 C   0  0  0  0  0
  141.0199  118.9637   96.8431 C   0  0  0  0  0
  139.2929  120.5646   97.6954 C   0  0  0  0  0
  135.1683  123.3142   99.3504 O   0  0  0  0  0
  136.7868  122.3024   97.5250 O   0  0  0  0  0
  134.4323  118.9130   97.6028 O   0  0  0  0  0
  133.1966  122.2696   99.8161 N   0  0  0  0  0
  130.8955  119.6195   99.7415 N   0  0  0  0  0
  131.8859  119.1178   99.0111 N   0  0  0  0  0
  136.9106  119.9749   97.4751 N   0  0  0  0  0
  1  2  1  0  0  0
  2 25  1  0  0  0
  3  4  1  0  0  0
  3 12  1  0  0  0
  4 26  1  0  0  0
  5  1  1  0  0  0
  6 27  1  0  0  0
  7 27  1  0  0  0
  8 26  1  0  0  0
  8  9  1  0  0  0
  9 10  1  0  0  0
 10 11  1  0  0  0
 12 29  1  0  0  0
 13 29  1  0  0  0
 13 14  1  0  0  0
 14 15  1  0  0  0
 15 16  1  0  0  0
 16 17  1  0  0  0
 17 18  1  0  0  0
 17 19  1  0  0  0
 18 13  1  0  0  0
 19 20  1  0  0  0
 20 21  1  0  0  0
 20 22  1  0  0  0
 21 15  1  0  0  0
 22 13  1  0  0  0
 26  5  1  0  0  0
 27 28  1  0  0  0
  1 28  2  0  0  0
  2  3  2  0  0  0
  4 23  2  0  0  0
  5  6  2  0  0  0
 12 24  2  0  0  0
M  END
> <rmsd>
0.812332809

$$$$
CHEMBL3650082_8GUR


 35 37  0  0  0  0  0  0  0  0999 V2000
  138.9513  119.6180   96.3041 C   0  0  0  0  0
  137.3632  117.8406   95.5309 C   0  0  0  0  0
  138.3939  116.9450   94.8752 C   0  0  0  0  0
  139.1456  117.7127   93.8038 C   0  0  0  0  0
  139.3788  116.4481   95.9162 C   0  0  0  0  0
  137.7491  115.7348   94.2171 C   0  0  0  0  0
  136.0117  117.5440   95.6770 C   0  0  0  0  0
  135.5150  118.6343   96.3690 C   0  0  0  0  0
  133.6058  119.8054   97.3979 C   0  0  0  0  0
  132.6697  119.5504   98.5157 C   0  0  0  0  0
  132.3101  118.2260   98.8061 C   0  0  0  0  0
  131.4201  117.9276   99.8452 C   0  0  0  0  0
  131.0841  116.5022  100.1736 C   0  0  0  0  0
  130.9078  118.9688  100.6262 C   0  0  0  0  0
  131.2630  120.2908  100.3576 C   0  0  0  0  0
  132.1428  120.5947   99.3084 C   0  0  0  0  0
  132.6676  124.2039   99.3961 C   0  0  0  0  0
  134.1700  124.1243   99.6075 C   0  0  0  0  0
  132.1244  125.3491  100.2236 C   0  0  0  0  0
  132.3701  124.4814   97.9324 C   0  0  0  0  0
  136.4510  120.6935   97.5092 C   0  0  0  0  0
  136.9568  121.9463   96.8013 C   0  0  0  0  0
  136.0964  122.2954   95.6149 C   0  0  0  0  0
  136.2350  123.7773   95.5367 C   0  0  0  0  0
  136.6271  124.1763   96.9422 C   0  0  0  0  0
  137.6299  119.0232   96.1328 N   0  0  0  0  0
  134.2739  118.7061   96.7647 N   0  0  0  0  0
  132.0233  122.9644   99.8267 N   0  0  0  0  0
  136.5078  119.5204   96.6347 N   0  0  0  0  0
  133.7400  120.9696   96.9349 O   0  0  0  0  0
  132.5100  121.9206   99.0631 O   0  0  0  0  0
  136.9505  123.0297   97.6944 O   0  0  0  0  0
  129.7804  116.4095  100.6294 F   0  0  0  0  0
  131.2178  115.6993   99.0533 F   0  0  0  0  0
  131.9415  116.0478  101.1587 F   0  0  0  0  0
  1 26  1  0  0  0
  3  2  1  0  0  0
  3  4  1  0  0  0
  3  5  1  0  0  0
  3  6  1  0  0  0
  7  8  1  0  0  0
  8 29  1  0  0  0
  9 27  1  0  0  0
  9 10  1  0  0  0
 11 12  1  0  0  0
 13 12  1  0  0  0
 13 33  1  0  0  0
 13 34  1  0  0  0
 13 35  1  0  0  0
 14 15  1  0  0  0
 16 31  1  0  0  0
 16 10  1  0  0  0
 17 28  1  0  0  0
 17 18  1  0  0  0
 17 19  1  0  0  0
 17 20  1  0  0  0
 21 29  1  0  0  0
 22 21  1  0  0  0
 22 23  1  0  0  0
 22 32  1  0  0  0
 23 24  1  0  0  0
 24 25  1  0  0  0
 25 32  1  0  0  0
 26  2  1  0  0  0
 28 31  1  0  0  0
 29 26  1  0  0  0
  2  7  2  0  0  0
  8 27  2  0  0  0
  9 30  2  0  0  0
 10 11  2  0  0  0
 12 14  2  0  0  0
 15 16  2  0  0  0
M  END
> <rmsd>
0.425338745

$$$$
CHEMBL4089308_8GUR


 26 27  0  0  0  0  0  0  0  0999 V2000
  131.4585  118.2348   99.5008 C   0  0  0  0  0
  130.9981  119.3417  100.2058 C   0  0  0  0  0
  131.4281  120.6164   99.8517 C   0  0  0  0  0
  132.3261  120.8096   98.7870 C   0  0  0  0  0
  132.7980  119.6855   98.0627 C   0  0  0  0  0
  132.3498  118.3863   98.4370 C   0  0  0  0  0
  132.7827  117.1344   97.7482 C   0  0  0  0  0
  133.6976  119.9243   96.9998 C   0  0  0  0  0
  133.6113  122.2640   97.4161 C   0  0  0  0  0
  132.2671  123.2351   99.2065 C   0  0  0  0  0
  133.2192  123.5341  100.3544 C   0  0  0  0  0
  132.7715  124.7794  101.1037 C   0  0  0  0  0
  133.0551  126.0405  100.3011 C   0  0  0  0  0
  134.5401  126.3506  100.3071 C   0  0  0  0  0
  135.0392  121.4302   95.6131 C   0  0  0  0  0
  136.4349  121.4336   96.1388 C   0  0  0  0  0
  138.4474  120.0549   96.9330 C   0  0  0  0  0
  138.7929  118.5842   97.0282 C   0  0  0  0  0
  138.5036  120.6582   98.3247 C   0  0  0  0  0
  139.4651  120.7365   96.0365 C   0  0  0  0  0
  134.1500  118.9650   96.3146 O   0  0  0  0  0
  133.9812  123.4357   97.1165 O   0  0  0  0  0
  136.9977  122.5297   96.4017 O   0  0  0  0  0
  134.0860  121.2002   96.7020 N   0  0  0  0  0
  132.7391  122.0713   98.4501 N   0  0  0  0  0
  137.1048  120.1893   96.3742 N   0  0  0  0  0
  2  3  1  0  0  0
  4  5  1  0  0  0
  5  8  1  0  0  0
  6  1  1  0  0  0
  7  6  1  0  0  0
  8 24  1  0  0  0
  9 25  1  0  0  0
 10 25  1  0  0  0
 10 11  1  0  0  0
 11 12  1  0  0  0
 12 13  1  0  0  0
 13 14  1  0  0  0
 15 24  1  0  0  0
 15 16  1  0  0  0
 16 26  1  0  0  0
 17 26  1  0  0  0
 17 18  1  0  0  0
 17 19  1  0  0  0
 17 20  1  0  0  0
 24  9  1  0  0  0
 25  4  1  0  0  0
  1  2  2  0  0  0
  3  4  2  0  0  0
  5  6  2  0  0  0
  8 21  2  0  0  0
  9 22  2  0  0  0
 16 23  2  0  0  0
M  END
> <rmsd>
0.741710842

$$$$
CHEMBL1215944_5ZTY


 30 34  0  0  0  0  0  0  0  0999 V2000
  130.9489  125.9742  101.5646 C   0  0  0  0  0
  131.2031  124.4956  101.3409 C   0  0  0  0  0
  132.6491  124.2611  100.9311 C   0  0  0  0  0
  132.8970  124.6940   99.4910 C   0  0  0  0  0
  132.2470  123.7312   98.5016 C   0  0  0  0  0
  134.1860  122.3633   98.0237 C   0  0  0  0  0
  134.8965  121.1575   97.9835 C   0  0  0  0  0
  136.2784  121.1697   97.4411 C   0  0  0  0  0
  138.4166  119.8749   96.8583 C   0  0  0  0  0
  139.3631  120.7620   97.6903 C   0  0  0  0  0
  140.7985  120.6496   97.1532 C   0  0  0  0  0
  140.8258  121.0941   95.6813 C   0  0  0  0  0
  139.8970  120.2004   94.8427 C   0  0  0  0  0
  140.3631  118.7400   94.9528 C   0  0  0  0  0
  140.3278  118.2870   96.4213 C   0  0  0  0  0
  141.2593  119.1864   97.2496 C   0  0  0  0  0
  138.8919  118.4153   96.9566 C   0  0  0  0  0
  138.4623  120.3133   95.3815 C   0  0  0  0  0
  134.2648  119.9897   98.4599 C   0  0  0  0  0
  132.9523  120.0618   98.9533 C   0  0  0  0  0
  132.2984  118.9145   99.4286 C   0  0  0  0  0
  130.9925  118.9943   99.9152 C   0  0  0  0  0
  130.3260  120.2200   99.9311 C   0  0  0  0  0
  130.9648  121.3690   99.4615 C   0  0  0  0  0
  132.2807  121.3080   98.9688 C   0  0  0  0  0
  132.9174  122.4312   98.5123 N   0  0  0  0  0
  137.0535  119.9643   97.3728 N   0  0  0  0  0
  136.7770  122.2557   97.0350 O   0  0  0  0  0
  134.8667  118.8803   98.4459 O   0  0  0  0  0
  130.0289  117.2647  100.6237 I   0  0  0  0  0
  1  2  1  0  0  0
  2  3  1  0  0  0
  3  4  1  0  0  0
  4  5  1  0  0  0
  5 26  1  0  0  0
  7  8  1  0  0  0
  7 19  1  0  0  0
  8 27  1  0  0  0
  9 27  1  0  0  0
  9 10  1  0  0  0
 11 10  1  0  0  0
 11 12  1  0  0  0
 13 12  1  0  0  0
 13 14  1  0  0  0
 13 18  1  0  0  0
 15 14  1  0  0  0
 15 16  1  0  0  0
 15 17  1  0  0  0
 16 11  1  0  0  0
 17  9  1  0  0  0
 18  9  1  0  0  0
 19 20  1  0  0  0
 21 22  1  0  0  0
 22 30  1  0  0  0
 23 24  1  0  0  0
 25 26  1  0  0  0
 25 20  1  0  0  0
 26  6  1  0  0  0
  6  7  2  0  0  0
  8 28  2  0  0  0
 19 29  2  0  0  0
 20 21  2  0  0  0
 22 23  2  0  0  0
 24 25  2  0  0  0
M  END
> <rmsd>
0.839102864

$$$$
CHEMBL3650138_5ZTY


 35 37  0  0  0  0  0  0  0  0999 V2000
  133.3470  124.3164   99.9284 C   0  0  0  0  0
  132.6492  124.2385   98.5837 C   0  0  0  0  0
  133.6048  123.7221   97.5245 C   0  0  0  0  0
  134.5642  124.8208   97.0949 C   0  0  0  0  0
  136.5067  124.0715   94.1346 C   0  0  0  0  0
  136.7631  124.3764   92.6836 C   0  0  0  0  0
  137.8629  125.4135   92.5741 C   0  0  0  0  0
  135.5122  124.9178   92.0136 C   0  0  0  0  0
  137.1915  123.1220   91.9441 C   0  0  0  0  0
  136.5402  123.4406   96.4691 C   0  0  0  0  0
  137.7632  122.0803   98.0833 C   0  0  0  0  0
  138.0392  120.8389   97.3241 C   0  0  0  0  0
  139.3633  120.3858   97.2431 C   0  0  0  0  0
  139.6853  119.2163   96.5437 C   0  0  0  0  0
  141.1166  118.7829   96.4145 C   0  0  0  0  0
  138.6693  118.5059   95.8949 C   0  0  0  0  0
  137.3445  118.9346   95.9818 C   0  0  0  0  0
  137.0147  120.0910   96.7020 C   0  0  0  0  0
  134.2804  118.6740   97.2355 C   0  0  0  0  0
  133.3170  119.1156   98.2991 C   0  0  0  0  0
  132.9773  118.2099   99.3098 C   0  0  0  0  0
  132.0847  118.5807  100.3204 C   0  0  0  0  0
  131.5257  119.8618  100.3243 C   0  0  0  0  0
  131.8582  120.7718   99.3173 C   0  0  0  0  0
  132.7506  120.4006   98.3074 C   0  0  0  0  0
  135.5387  124.2947   96.1489 N   0  0  0  0  0
  135.5264  124.6548   94.8668 N   0  0  0  0  0
  136.7514  123.0157   97.6825 N   0  0  0  0  0
  135.6441  120.4924   96.8214 N   0  0  0  0  0
  134.5869  119.7392   96.2862 N   0  0  0  0  0
  137.4852  123.0952   95.1119 S   0  0  0  0  0
  138.4109  122.3087   99.1394 O   0  0  0  0  0
  141.8291  119.1295   97.5494 F   0  0  0  0  0
  141.1938  117.4109   96.2474 F   0  0  0  0  0
  141.6843  119.4039   95.3176 F   0  0  0  0  0
  1  2  1  0  0  0
  2  3  1  0  0  0
  3  4  1  0  0  0
  4 26  1  0  0  0
  5 31  1  0  0  0
  6  5  1  0  0  0
  6  7  1  0  0  0
  6  8  1  0  0  0
  6  9  1  0  0  0
 10 31  1  0  0  0
 10 26  1  0  0  0
 11 28  1  0  0  0
 11 12  1  0  0  0
 13 14  1  0  0  0
 15 14  1  0  0  0
 15 33  1  0  0  0
 15 34  1  0  0  0
 15 35  1  0  0  0
 16 17  1  0  0  0
 18 29  1  0  0  0
 18 12  1  0  0  0
 19 30  1  0  0  0
 19 20  1  0  0  0
 21 22  1  0  0  0
 23 24  1  0  0  0
 25 20  1  0  0  0
 26 27  1  0  0  0
 29 30  1  0  0  0
  5 27  2  0  0  0
 10 28  2  0  0  0
 11 32  2  0  0  0
 12 13  2  0  0  0
 14 16  2  0  0  0
 17 18  2  0  0  0
 20 21  2  0  0  0
 22 23  2  0  0  0
 24 25  2  0  0  0
M  END
> <rmsd>
0.721618533

$$$$
CHEMBL4643098_8GUS


 34 35  0  0  0  0  0  0  0  0999 V2000
  128.0953  117.0406  100.8598 C   0  0  0  0  0
  129.5854  116.8432  100.6148 C   0  0  0  0  0
  129.7041  115.8556   99.4610 C   0  0  0  0  0
  130.2714  118.1562  100.2580 C   0  0  0  0  0
  131.5915  118.1528   99.7734 C   0  0  0  0  0
  132.2453  119.3432   99.4466 C   0  0  0  0  0
  131.5725  120.5624   99.6059 C   0  0  0  0  0
  130.2567  120.5924  100.0898 C   0  0  0  0  0
  129.6174  119.3924  100.4110 C   0  0  0  0  0
  130.1489  123.0680  100.0025 C   0  0  0  0  0
  131.0432  123.4708  101.1630 C   0  0  0  0  0
  131.9523  124.6200  100.7595 C   0  0  0  0  0
  133.2133  124.0988  100.0825 C   0  0  0  0  0
  132.9552  123.7470   98.6241 C   0  0  0  0  0
  132.9537  124.9946   97.7510 C   0  0  0  0  0
  134.3696  125.5003   97.5215 C   0  0  0  0  0
  135.1152  124.5667   96.5870 C   0  0  0  0  0
  136.5644  125.0007   96.4829 C   0  0  0  0  0
  137.3513  124.0069   95.6377 C   0  0  0  0  0
  137.6673  122.7311   96.3615 C   0  0  0  0  0
  138.6903  120.4286   96.2900 C   0  0  0  0  0
  139.5822  119.6327   95.3606 C   0  0  0  0  0
  140.1842  120.3745   96.5345 C   0  0  0  0  0
  134.2973  120.4458   98.6130 C   0  0  0  0  0
  130.1667  116.2484  101.9073 C   0  0  0  0  0
  131.6399  115.8593  101.8291 C   0  0  0  0  0
  131.7864  114.4224  101.3604 C   0  0  0  0  0
  133.2543  114.0442  101.2391 C   0  0  0  0  0
  133.8336  113.6385  102.5856 C   0  0  0  0  0
  134.2788  114.8598  103.3670 C   0  0  0  0  0
  129.5630  121.7964  100.2562 O   0  0  0  0  0
  137.3409  122.5701   97.5701 O   0  0  0  0  0
  133.5573  119.2857   98.9682 O   0  0  0  0  0
  138.3531  121.6942   95.6597 N   0  0  0  0  0
  1  2  1  0  0  0
  2  3  1  0  0  0
  2  4  1  0  0  0
  2 25  1  0  0  0
  5  6  1  0  0  0
  6 33  1  0  0  0
  7  8  1  0  0  0
  8 31  1  0  0  0
  9  4  1  0  0  0
 10 31  1  0  0  0
 10 11  1  0  0  0
 11 12  1  0  0  0
 12 13  1  0  0  0
 13 14  1  0  0  0
 14 15  1  0  0  0
 15 16  1  0  0  0
 16 17  1  0  0  0
 17 18  1  0  0  0
 18 19  1  0  0  0
 19 20  1  0  0  0
 20 34  1  0  0  0
 21 34  1  0  0  0
 21 22  1  0  0  0
 22 23  1  0  0  0
 23 21  1  0  0  0
 24 33  1  0  0  0
 25 26  1  0  0  0
 26 27  1  0  0  0
 27 28  1  0  0  0
 28 29  1  0  0  0
 29 30  1  0  0  0
  4  5  2  0  0  0
  6  7  2  0  0  0
  8  9  2  0  0  0
 20 32  2  0  0  0
M  END
> <rmsd>
0.752193272

$$$$
CHEMBL4646867_8GUR


 28 29  0  0  0  0  0  0  0  0999 V2000
  130.3486  121.6567   98.3079 C   0  0  0  0  0
  131.1286  120.4992   98.8408 C   0  0  0  0  0
  130.6679  119.8145   99.9694 C   0  0  0  0  0
  131.3867  118.7250  100.4695 C   0  0  0  0  0
  132.5679  118.3192   99.8420 C   0  0  0  0  0
  133.0371  119.0022   98.7082 C   0  0  0  0  0
  132.3082  120.0860   98.2099 C   0  0  0  0  0
  135.0609  117.5673   98.4977 C   0  0  0  0  0
  135.8039  117.9372   99.7746 C   0  0  0  0  0
  136.6274  119.1961   99.5677 C   0  0  0  0  0
  137.6212  119.3732  100.7042 C   0  0  0  0  0
  138.8436  118.4801  100.5214 C   0  0  0  0  0
  139.7426  119.0107   99.4157 C   0  0  0  0  0
  139.3195  118.4348   98.0742 C   0  0  0  0  0
  139.7598  119.3471   96.9393 C   0  0  0  0  0
  138.9123  120.6107   96.8978 C   0  0  0  0  0
  137.5046  120.2948   96.4075 C   0  0  0  0  0
  136.5657  121.4498   96.5727 C   0  0  0  0  0
  134.2357  122.3702   96.2883 C   0  0  0  0  0
  134.0789  123.0830   94.9609 C   0  0  0  0  0
  133.0418  122.0735   95.4051 C   0  0  0  0  0
  131.1633  122.9428   98.3394 C   0  0  0  0  0
  131.3471  123.4303   99.7675 C   0  0  0  0  0
  132.2711  124.6344   99.7992 C   0  0  0  0  0
  133.7104  124.2031   99.5852 C   0  0  0  0  0
  134.2196  118.6312   98.0596 O   0  0  0  0  0
  136.9549  122.5371   97.0820 O   0  0  0  0  0
  135.2106  121.3009   96.1484 N   0  0  0  0  0
  1  2  1  0  0  0
  1 22  1  0  0  0
  3  4  1  0  0  0
  5  6  1  0  0  0
  6 26  1  0  0  0
  7  2  1  0  0  0
  8 26  1  0  0  0
  8  9  1  0  0  0
  9 10  1  0  0  0
 10 11  1  0  0  0
 11 12  1  0  0  0
 12 13  1  0  0  0
 13 14  1  0  0  0
 14 15  1  0  0  0
 15 16  1  0  0  0
 16 17  1  0  0  0
 17 18  1  0  0  0
 18 28  1  0  0  0
 19 28  1  0  0  0
 19 20  1  0  0  0
 20 21  1  0  0  0
 21 19  1  0  0  0
 22 23  1  0  0  0
 23 24  1  0  0  0
 24 25  1  0  0  0
  2  3  2  0  0  0
  4  5  2  0  0  0
  6  7  2  0  0  0
 18 27  2  0  0  0
M  END
> <rmsd>
0.523177028

$$$$
CHEMBL3781481_5ZTY


 27 29  0  0  0  0  0  0  0  0999 V2000
  131.1168  118.5558   99.7631 C   0  0  0  0  0
  130.3501  119.6852  100.0504 C   0  0  0  0  0
  130.8054  120.9515   99.6780 C   0  0  0  0  0
  132.0359  121.1083   99.0121 C   0  0  0  0  0
  132.8038  119.9587   98.7209 C   0  0  0  0  0
  132.3383  118.6916   99.1016 C   0  0  0  0  0
  134.0268  120.0946   98.0579 C   0  0  0  0  0
  134.4789  121.3698   97.6690 C   0  0  0  0  0
  133.6793  122.4948   97.9763 C   0  0  0  0  0
  131.7055  123.5491   98.9613 C   0  0  0  0  0
  131.9083  123.9706  100.4143 C   0  0  0  0  0
  133.3008  124.5353  100.6456 C   0  0  0  0  0
  133.4135  125.9261  100.0512 C   0  0  0  0  0
  135.7739  121.5281   96.9529 C   0  0  0  0  0
  137.5640  120.5497   95.4466 C   0  0  0  0  0
  138.7044  120.4044   96.4427 C   0  0  0  0  0
  140.0181  120.8240   95.7706 C   0  0  0  0  0
  141.2182  120.1910   96.4682 C   0  0  0  0  0
  141.1684  118.6586   96.3898 C   0  0  0  0  0
  139.7453  118.0947   96.2833 C   0  0  0  0  0
  138.7424  118.9786   97.0213 C   0  0  0  0  0
  134.0545  123.6457   97.6149 O   0  0  0  0  0
  134.7029  126.4145  100.2541 O   0  0  0  0  0
  136.4317  122.5991   97.0630 O   0  0  0  0  0
  134.7964  118.9607   97.8050 O   0  0  0  0  0
  132.4917  122.3496   98.6464 N   0  0  0  0  0
  136.2780  120.4738   96.1264 N   0  0  0  0  0
  2  3  1  0  0  0
  4  5  1  0  0  0
  5  7  1  0  0  0
  6  1  1  0  0  0
  7 25  1  0  0  0
  8  9  1  0  0  0
  8 14  1  0  0  0
  9 26  1  0  0  0
 10 26  1  0  0  0
 10 11  1  0  0  0
 11 12  1  0  0  0
 12 13  1  0  0  0
 13 23  1  0  0  0
 14 27  1  0  0  0
 15 27  1  0  0  0
 15 16  1  0  0  0
 16 17  1  0  0  0
 17 18  1  0  0  0
 18 19  1  0  0  0
 19 20  1  0  0  0
 20 21  1  0  0  0
 21 16  1  0  0  0
 26  4  1  0  0  0
  1  2  2  0  0  0
  3  4  2  0  0  0
  5  6  2  0  0  0
  7  8  2  0  0  0
  9 22  2  0  0  0
 14 24  2  0  0  0
M  END
> <rmsd>
0.651043236

$$$$
CHEMBL387027_5ZTY


 31 33  0  0  0  0  0  0  0  0999 V2000
  134.5799  117.8794   97.8679 C   0  0  0  0  0
  135.0622  118.9853   98.7953 C   0  0  0  0  0
  136.8696  119.8991   97.2160 C   0  0  0  0  0
  138.3099  120.3194   97.0574 C   0  0  0  0  0
  139.1945  119.1046   97.2598 C   0  0  0  0  0
  138.6010  120.8673   95.6640 C   0  0  0  0  0
  138.0492  122.5537   98.1683 C   0  0  0  0  0
  138.3254  123.3374   99.2919 C   0  0  0  0  0
  137.7322  124.5957   99.4142 C   0  0  0  0  0
  136.8767  125.0582   98.4146 C   0  0  0  0  0
  136.6313  124.2555   97.2994 C   0  0  0  0  0
  134.1275  120.2038   98.7633 C   0  0  0  0  0
  134.7079  121.3574   99.5907 C   0  0  0  0  0
  133.9062  122.6123   99.4562 C   0  0  0  0  0
  133.7225  123.2152   98.2056 C   0  0  0  0  0
  132.9827  124.3964   98.0982 C   0  0  0  0  0
  132.4239  124.9765   99.2405 C   0  0  0  0  0
  132.6038  124.3753  100.4896 C   0  0  0  0  0
  133.3432  123.1938  100.5969 C   0  0  0  0  0
  132.7454  119.8443   99.2347 C   0  0  0  0  0
  131.6667  119.9952   98.3562 C   0  0  0  0  0
  130.3710  119.6772   98.7729 C   0  0  0  0  0
  130.1495  119.2083  100.0710 C   0  0  0  0  0
  131.2229  119.0560  100.9536 C   0  0  0  0  0
  132.5190  119.3725  100.5377 C   0  0  0  0  0
  136.4405  119.3507   98.4700 N   0  0  0  0  0
  137.2131  123.0302   97.2019 N   0  0  0  0  0
  136.0452  120.0437   96.2715 O   0  0  0  0  0
  138.6447  121.2892   98.0544 O   0  0  0  0  0
  136.1152  126.6286   98.5575 Cl  0  0  0  0  0
  131.5131  126.4651   99.1102 Cl  0  0  0  0  0
  2  1  1  0  0  0
  2 26  1  0  0  0
  2 12  1  0  0  0
  4  3  1  0  0  0
  4  5  1  0  0  0
  4  6  1  0  0  0
  4 29  1  0  0  0
  7 29  1  0  0  0
  7 27  1  0  0  0
  8  9  1  0  0  0
 10 30  1  0  0  0
 10 11  1  0  0  0
 12 13  1  0  0  0
 12 20  1  0  0  0
 13 14  1  0  0  0
 15 16  1  0  0  0
 17 31  1  0  0  0
 17 18  1  0  0  0
 19 14  1  0  0  0
 21 22  1  0  0  0
 23 24  1  0  0  0
 25 20  1  0  0  0
 26  3  1  0  0  0
  3 28  2  0  0  0
  7  8  2  0  0  0
  9 10  2  0  0  0
 11 27  2  0  0  0
 14 15  2  0  0  0
 16 17  2  0  0  0
 18 19  2  0  0  0
 20 21  2  0  0  0
 22 23  2  0  0  0
 24 25  2  0  0  0
M  END
> <rmsd>
0.573535621

$$$$
CHEMBL3780852_5ZTY


 31 35  0  0  0  0  0  0  0  0999 V2000
  131.1947  118.9434  100.1879 C   0  0  0  0  0
  130.3996  120.0742  100.0011 C   0  0  0  0  0
  130.9263  121.2013   99.3677 C   0  0  0  0  0
  132.2580  121.2157   98.9114 C   0  0  0  0  0
  133.0545  120.0642   99.0992 C   0  0  0  0  0
  132.5162  118.9381   99.7390 C   0  0  0  0  0
  134.3774  120.0580   98.6481 C   0  0  0  0  0
  134.9045  121.1892   97.9964 C   0  0  0  0  0
  134.0740  122.3212   97.8270 C   0  0  0  0  0
  131.9593  123.5229   98.1124 C   0  0  0  0  0
  132.3264  124.5950   99.1307 C   0  0  0  0  0
  131.8531  124.2022  100.5166 C   0  0  0  0  0
  132.2584  125.2693  101.5103 C   0  0  0  0  0
  131.7927  124.8707  102.8945 C   0  0  0  0  0
  136.3074  121.1918   97.4992 C   0  0  0  0  0
  138.3086  119.8492   96.6165 C   0  0  0  0  0
  138.4775  120.6615   95.3178 C   0  0  0  0  0
  139.9150  120.5224   94.7928 C   0  0  0  0  0
  140.2051  119.0405   94.5054 C   0  0  0  0  0
  140.0451  118.2153   95.7923 C   0  0  0  0  0
  141.0308  118.7349   96.8512 C   0  0  0  0  0
  140.7456  120.2149   97.1525 C   0  0  0  0  0
  139.3075  120.3541   97.6758 C   0  0  0  0  0
  140.8969  121.0341   95.8599 C   0  0  0  0  0
  138.6084  118.3703   96.3182 C   0  0  0  0  0
  134.5195  123.3395   97.2263 O   0  0  0  0  0
  136.9430  122.2776   97.4073 O   0  0  0  0  0
  135.1680  118.9315   98.8664 O   0  0  0  0  0
  132.7837  122.3210   98.2927 N   0  0  0  0  0
  136.9406  119.9638   97.1131 N   0  0  0  0  0
  129.1168  120.0794  100.4354 F   0  0  0  0  0
  2  3  1  0  0  0
  2 31  1  0  0  0
  4  5  1  0  0  0
  5  7  1  0  0  0
  6  1  1  0  0  0
  7 28  1  0  0  0
  8  9  1  0  0  0
  8 15  1  0  0  0
  9 29  1  0  0  0
 10 29  1  0  0  0
 10 11  1  0  0  0
 11 12  1  0  0  0
 12 13  1  0  0  0
 13 14  1  0  0  0
 15 30  1  0  0  0
 16 30  1  0  0  0
 16 17  1  0  0  0
 17 18  1  0  0  0
 18 19  1  0  0  0
 19 20  1  0  0  0
 20 21  1  0  0  0
 20 25  1  0  0  0
 21 22  1  0  0  0
 22 23  1  0  0  0
 22 24  1  0  0  0
 23 16  1  0  0  0
 24 18  1  0  0  0
 25 16  1  0  0  0
 29  4  1  0  0  0
  1  2  2  0  0  0
  3  4  2  0  0  0
  5  6  2  0  0  0
  7  8  2  0  0  0
  9 26  2  0  0  0
 15 27  2  0  0  0
M  END
> <rmsd>
0.843275547

$$$$
CHEMBL4760014_8GUT


 27 29  0  0  0  0  0  0  0  0999 V2000
  133.7537  123.6498   99.6422 C   0  0  0  0  0
  133.3201  122.5370  100.3676 C   0  0  0  0  0
  133.4041  120.1382  100.8879 C   0  0  0  0  0
  132.3407  119.4157  100.1268 C   0  0  0  0  0
  131.0047  119.8200  100.2292 C   0  0  0  0  0
  130.0133  119.1549   99.5016 C   0  0  0  0  0
  130.3565  118.0862   98.6680 C   0  0  0  0  0
  131.6912  117.6834   98.5608 C   0  0  0  0  0
  132.6824  118.3486   99.2885 C   0  0  0  0  0
  134.8759  121.1452   99.2061 C   0  0  0  0  0
  135.3318  122.2506   98.4517 C   0  0  0  0  0
  134.7531  123.4993   98.6896 C   0  0  0  0  0
  136.3968  122.1491   97.4221 C   0  0  0  0  0
  138.0532  120.7372   96.1124 C   0  0  0  0  0
  138.1630  119.2891   95.6248 C   0  0  0  0  0
  138.2731  118.3064   96.7878 C   0  0  0  0  0
  139.7186  118.0237   97.2034 C   0  0  0  0  0
  140.6348  119.2481   97.2733 C   0  0  0  0  0
  139.9392  120.4859   97.8192 C   0  0  0  0  0
  139.3705  121.2969   96.6599 C   0  0  0  0  0
  132.2528  122.7257  101.4013 C   0  0  0  0  0
  133.8783  121.3049  100.1363 N   0  0  0  0  0
  136.9727  120.8840   97.0816 N   0  0  0  0  0
  129.3961  117.4418   97.9629 F   0  0  0  0  0
  133.2136  124.8760   99.8554 F   0  0  0  0  0
  135.3902  120.0055   99.0313 O   0  0  0  0  0
  136.7947  123.1910   96.8316 O   0  0  0  0  0
  1 25  1  0  0  0
  2 22  1  0  0  0
  3 22  1  0  0  0
  3  4  1  0  0  0
  5  6  1  0  0  0
  7  8  1  0  0  0
  7 24  1  0  0  0
  9  4  1  0  0  0
 10 11  1  0  0  0
 11 13  1  0  0  0
 12  1  1  0  0  0
 13 23  1  0  0  0
 14 23  1  0  0  0
 14 15  1  0  0  0
 15 16  1  0  0  0
 16 17  1  0  0  0
 17 18  1  0  0  0
 18 19  1  0  0  0
 19 20  1  0  0  0
 20 14  1  0  0  0
 21  2  1  0  0  0
 22 10  1  0  0  0
  1  2  2  0  0  0
  4  5  2  0  0  0
  6  7  2  0  0  0
  8  9  2  0  0  0
 10 26  2  0  0  0
 11 12  2  0  0  0
 13 27  2  0  0  0
M  END
> <rmsd>
0.455063909

$$$$
CHEMBL4559193_6PT0


 27 30  0  0  0  0  0  0  0  0999 V2000
  131.1512  118.4218  100.1842 C   0  0  0  0  0
  130.3196  119.5464  100.0236 C   0  0  0  0  0
  130.8061  120.7113   99.4080 C   0  0  0  0  0
  132.1309  120.7304   98.9580 C   0  0  0  0  0
  132.9380  119.6128   99.1237 C   0  0  0  0  0
  132.4791  118.4477   99.7316 C   0  0  0  0  0
  134.0279  121.5016   98.0214 C   0  0  0  0  0
  136.1740  122.1396   97.0507 C   0  0  0  0  0
  136.5534  120.9348   96.2709 C   0  0  0  0  0
  135.6136  120.3974   95.3781 C   0  0  0  0  0
  135.9165  119.2773   94.6026 C   0  0  0  0  0
  137.1692  118.6738   94.7041 C   0  0  0  0  0
  138.1245  119.1870   95.5822 C   0  0  0  0  0
  137.8276  120.3252   96.3749 C   0  0  0  0  0
  138.8048  120.8028   97.2637 C   0  0  0  0  0
  140.0505  120.1767   97.3558 C   0  0  0  0  0
  140.3348  119.0619   96.5643 C   0  0  0  0  0
  139.3735  118.5672   95.6801 C   0  0  0  0  0
  132.0973  123.0752   98.0965 C   0  0  0  0  0
  132.0642  123.9158   99.3641 C   0  0  0  0  0
  133.4551  124.4260   99.7014 C   0  0  0  0  0
  133.4376  125.1798  101.0184 C   0  0  0  0  0
  133.3530  124.2086  102.1810 C   0  0  0  0  0
  134.4647  119.9285   98.4997 S   0  0  0  0  0
  134.8197  122.3729   97.4634 N   0  0  0  0  0
  132.7398  121.7863   98.3483 N   0  0  0  0  0
  137.0341  123.0306   97.2807 O   0  0  0  0  0
  2  3  1  0  0  0
  4  5  1  0  0  0
  5 24  1  0  0  0
  6  1  1  0  0  0
  7 24  1  0  0  0
  7 26  1  0  0  0
  8 25  1  0  0  0
  8  9  1  0  0  0
 10 11  1  0  0  0
 12 13  1  0  0  0
 14 15  1  0  0  0
 14  9  1  0  0  0
 16 17  1  0  0  0
 18 13  1  0  0  0
 19 26  1  0  0  0
 19 20  1  0  0  0
 20 21  1  0  0  0
 21 22  1  0  0  0
 22 23  1  0  0  0
 26  4  1  0  0  0
  1  2  2  0  0  0
  3  4  2  0  0  0
  5  6  2  0  0  0
  7 25  2  0  0  0
  8 27  2  0  0  0
  9 10  2  0  0  0
 11 12  2  0  0  0
 13 14  2  0  0  0
 15 16  2  0  0  0
 17 18  2  0  0  0
M  END
> <rmsd>
0.280225843

$$$$
CHEMBL2381784_5ZTY


 30 33  0  0  0  0  0  0  0  0999 V2000
  131.9076  123.4324   98.3139 C   0  0  0  0  0
  132.3309  124.5453   99.2617 C   0  0  0  0  0
  132.0463  124.1483  100.7008 C   0  0  0  0  0
  132.5446  125.2190  101.6540 C   0  0  0  0  0
  134.0549  125.1514  101.7810 C   0  0  0  0  0
  134.0974  122.3818   98.0080 C   0  0  0  0  0
  134.9826  121.2851   98.0925 C   0  0  0  0  0
  134.4786  120.0735   98.6209 C   0  0  0  0  0
  132.3650  121.0937   98.9191 C   0  0  0  0  0
  131.1034  120.7758   99.3885 C   0  0  0  0  0
  131.2687  119.4365   99.7593 C   0  0  0  0  0
  130.2182  118.5803  100.3365 C   0  0  0  0  0
  130.5004  117.2480  100.6709 C   0  0  0  0  0
  129.5069  116.4316  101.2191 C   0  0  0  0  0
  128.2241  116.9419  101.4367 C   0  0  0  0  0
  127.9347  118.2685  101.1063 C   0  0  0  0  0
  128.9281  119.0850  100.5581 C   0  0  0  0  0
  136.3805  121.4504   97.6286 C   0  0  0  0  0
  138.6844  120.4685   97.2309 C   0  0  0  0  0
  139.5138  119.3291   97.8385 C   0  0  0  0  0
  140.7136  118.9886   96.9596 C   0  0  0  0  0
  140.2699  118.5026   95.5728 C   0  0  0  0  0
  138.9291  119.0929   95.1152 C   0  0  0  0  0
  138.7130  120.4896   95.6923 C   0  0  0  0  0
  132.8009  122.2837   98.4264 N   0  0  0  0  0
  133.1800  120.0384   99.0114 N   0  0  0  0  0
  132.5323  119.0098   99.5231 N   0  0  0  0  0
  137.3127  120.3671   97.7067 N   0  0  0  0  0
  135.2005  119.0458   98.7318 O   0  0  0  0  0
  136.7551  122.5616   97.1627 O   0  0  0  0  0
  1  2  1  0  0  0
  1 25  1  0  0  0
  2  3  1  0  0  0
  3  4  1  0  0  0
  4  5  1  0  0  0
  7  8  1  0  0  0
  7 18  1  0  0  0
  8 26  1  0  0  0
  9 25  1  0  0  0
 10 11  1  0  0  0
 11 12  1  0  0  0
 13 14  1  0  0  0
 15 16  1  0  0  0
 17 12  1  0  0  0
 18 28  1  0  0  0
 19 28  1  0  0  0
 19 20  1  0  0  0
 20 21  1  0  0  0
 21 22  1  0  0  0
 22 23  1  0  0  0
 23 24  1  0  0  0
 24 19  1  0  0  0
 25  6  1  0  0  0
 26  9  1  0  0  0
 26 27  1  0  0  0
  6  7  2  0  0  0
  8 29  2  0  0  0
  9 10  2  0  0  0
 11 27  2  0  0  0
 12 13  2  0  0  0
 14 15  2  0  0  0
 16 17  2  0  0  0
 18 30  2  0  0  0
M  END
> <rmsd>
0.717966676

$$$$
CHEMBL1668518_5ZTY


 30 34  0  0  0  0  0  0  0  0999 V2000
  131.3584  126.2075  101.6042 C   0  0  0  0  0
  131.4142  124.7072  101.3879 C   0  0  0  0  0
  132.7863  124.2944  100.8795 C   0  0  0  0  0
  132.9756  124.6830   99.4188 C   0  0  0  0  0
  132.2460  123.7202   98.4835 C   0  0  0  0  0
  134.1290  122.3248   98.0192 C   0  0  0  0  0
  134.8562  121.1346   97.9944 C   0  0  0  0  0
  136.2391  121.1624   97.4545 C   0  0  0  0  0
  138.3957  119.8938   96.8813 C   0  0  0  0  0
  139.3287  120.7978   97.7103 C   0  0  0  0  0
  140.7663  120.7022   97.1762 C   0  0  0  0  0
  140.7900  121.1396   95.7021 C   0  0  0  0  0
  139.8749  120.2292   94.8665 C   0  0  0  0  0
  140.3606  118.7757   94.9847 C   0  0  0  0  0
  140.3289  118.3297   96.4555 C   0  0  0  0  0
  141.2467  119.2459   97.2809 C   0  0  0  0  0
  138.8906  118.4413   96.9878 C   0  0  0  0  0
  138.4379  120.3252   95.4024 C   0  0  0  0  0
  134.2451  119.9703   98.4899 C   0  0  0  0  0
  132.9264  120.0249   98.9695 C   0  0  0  0  0
  132.3178  118.8581   99.4529 C   0  0  0  0  0
  131.0081  118.8780   99.9153 C   0  0  0  0  0
  130.2853  120.0645   99.8921 C   0  0  0  0  0
  130.8572  121.2480   99.4196 C   0  0  0  0  0
  129.9518  122.4328   99.4093 C   0  0  0  0  0
  132.2115  121.2575   98.9575 C   0  0  0  0  0
  132.8573  122.3913   98.5018 N   0  0  0  0  0
  137.0306  119.9672   97.3932 N   0  0  0  0  0
  136.7236  122.2527   97.0427 O   0  0  0  0  0
  134.8709  118.8739   98.5035 O   0  0  0  0  0
  1  2  1  0  0  0
  2  3  1  0  0  0
  3  4  1  0  0  0
  4  5  1  0  0  0
  5 27  1  0  0  0
  7  8  1  0  0  0
  7 19  1  0  0  0
  8 28  1  0  0  0
  9 28  1  0  0  0
  9 10  1  0  0  0
 11 10  1  0  0  0
 11 12  1  0  0  0
 13 12  1  0  0  0
 13 14  1  0  0  0
 13 18  1  0  0  0
 15 14  1  0  0  0
 15 16  1  0  0  0
 15 17  1  0  0  0
 16 11  1  0  0  0
 17  9  1  0  0  0
 18  9  1  0  0  0
 19 20  1  0  0  0
 21 22  1  0  0  0
 23 24  1  0  0  0
 25 24  1  0  0  0
 26 27  1  0  0  0
 26 20  1  0  0  0
 27  6  1  0  0  0
  6  7  2  0  0  0
  8 29  2  0  0  0
 19 30  2  0  0  0
 20 21  2  0  0  0
 22 23  2  0  0  0
 24 26  2  0  0  0
M  END
> <rmsd>
0.791861773

$$$$
CHEMBL1223589_5ZTY


 27 29  0  0  0  0  0  0  0  0999 V2000
  132.9834  126.3030   99.1915 C   0  0  0  0  0
  132.8533  124.9758   98.4688 C   0  0  0  0  0
  132.1718  123.9492   99.3610 C   0  0  0  0  0
  133.1009  123.4602  100.4657 C   0  0  0  0  0
  134.0841  122.4622   99.9459 C   0  0  0  0  0
  136.9275  121.6614   97.9788 C   0  0  0  0  0
  138.8433  120.3476   96.8854 C   0  0  0  0  0
  139.3291  118.9097   96.9183 C   0  0  0  0  0
  138.4316  120.6520   95.4477 C   0  0  0  0  0
  139.9552  121.2537   97.3833 C   0  0  0  0  0
  140.3923  121.1480   98.7153 C   0  0  0  0  0
  141.4119  121.9728   99.1983 C   0  0  0  0  0
  142.0079  122.9135   98.3555 C   0  0  0  0  0
  141.5853  123.0298   97.0295 C   0  0  0  0  0
  140.5657  122.2052   96.5458 C   0  0  0  0  0
  135.3288  120.4847   99.5870 C   0  0  0  0  0
  134.1170  121.0208  100.3572 C   0  0  0  0  0
  132.8636  120.2988   99.9589 C   0  0  0  0  0
  132.1225  119.6353  100.9429 C   0  0  0  0  0
  130.9494  118.9550  100.6022 C   0  0  0  0  0
  130.5125  118.9349   99.2746 C   0  0  0  0  0
  131.2484  119.5944   98.2861 C   0  0  0  0  0
  132.4214  120.2746   98.6255 C   0  0  0  0  0
  135.0297  122.7750   99.1306 N   0  0  0  0  0
  135.8049  121.6494   98.8621 N   0  0  0  0  0
  137.6727  120.4566   97.7553 N   0  0  0  0  0
  137.2576  122.7321   97.4010 O   0  0  0  0  0
  1  2  1  0  0  0
  2  3  1  0  0  0
  3  4  1  0  0  0
  4  5  1  0  0  0
  6 26  1  0  0  0
  7 26  1  0  0  0
  7  8  1  0  0  0
  7  9  1  0  0  0
  7 10  1  0  0  0
 11 12  1  0  0  0
 13 14  1  0  0  0
 15 10  1  0  0  0
 16 25  1  0  0  0
 16 17  1  0  0  0
 17 18  1  0  0  0
 17  5  1  0  0  0
 19 20  1  0  0  0
 21 22  1  0  0  0
 23 18  1  0  0  0
 25 24  1  0  0  0
 25  6  1  0  0  0
  5 24  2  0  0  0
  6 27  2  0  0  0
 10 11  2  0  0  0
 12 13  2  0  0  0
 14 15  2  0  0  0
 18 19  2  0  0  0
 20 21  2  0  0  0
 22 23  2  0  0  0
M  END
> <rmsd>
0.511568367

$$$$
CHEMBL3956670_5ZTY


 29 32  0  0  0  0  0  0  0  0999 V2000
  133.9323  124.6845  100.7036 C   0  0  0  0  0
  133.0394  124.2256   98.4196 C   0  0  0  0  0
  134.2423  122.4128   99.6847 C   0  0  0  0  0
  134.0357  121.4488   98.5495 C   0  0  0  0  0
  132.9788  120.4411   98.8783 C   0  0  0  0  0
  133.2101  119.4240   99.8174 C   0  0  0  0  0
  132.2026  118.5026  100.1172 C   0  0  0  0  0
  130.9602  118.5949   99.4833 C   0  0  0  0  0
  130.7245  119.6092   98.5506 C   0  0  0  0  0
  131.7317  120.5311   98.2501 C   0  0  0  0  0
  136.3484  121.4610   97.5097 C   0  0  0  0  0
  137.5938  120.7383   97.2114 C   0  0  0  0  0
  138.8569  118.7155   97.3461 C   0  0  0  0  0
  139.9449  119.3254   96.6747 C   0  0  0  0  0
  139.8087  120.6640   96.2734 C   0  0  0  0  0
  138.6441  121.3753   96.5484 C   0  0  0  0  0
  141.1630  118.5257   96.2771 C   0  0  0  0  0
  142.3432  119.3890   95.8494 C   0  0  0  0  0
  142.2990  118.8113   97.2443 C   0  0  0  0  0
  140.0000  116.7579   98.3694 C   0  0  0  0  0
  139.9749  117.0071   99.8662 C   0  0  0  0  0
  140.8437  118.2016  100.2010 C   0  0  0  0  0
  141.3666  116.7983  100.4239 C   0  0  0  0  0
  133.7421  123.7553   99.6022 N   0  0  0  0  0
  135.2843  120.7875   98.1880 N   0  0  0  0  0
  137.7259  119.4356   97.5797 N   0  0  0  0  0
  134.8467  122.0277  100.7234 O   0  0  0  0  0
  136.2172  122.6683   97.1681 O   0  0  0  0  0
  138.8755  117.3769   97.7582 O   0  0  0  0  0
  1 24  1  0  0  0
  2 24  1  0  0  0
  4  3  1  0  0  0
  4  5  1  0  0  0
  4 25  1  0  0  0
  6  7  1  0  0  0
  8  9  1  0  0  0
 10  5  1  0  0  0
 11 12  1  0  0  0
 13 26  1  0  0  0
 13 29  1  0  0  0
 14 15  1  0  0  0
 16 12  1  0  0  0
 17 14  1  0  0  0
 17 18  1  0  0  0
 18 19  1  0  0  0
 19 17  1  0  0  0
 20 29  1  0  0  0
 20 21  1  0  0  0
 21 22  1  0  0  0
 22 23  1  0  0  0
 23 21  1  0  0  0
 24  3  1  0  0  0
 25 11  1  0  0  0
  3 27  2  0  0  0
  5  6  2  0  0  0
  7  8  2  0  0  0
  9 10  2  0  0  0
 11 28  2  0  0  0
 12 26  2  0  0  0
 13 14  2  0  0  0
 15 16  2  0  0  0
M  END
> <rmsd>
0.719944417

$$$$
CHEMBL3353429_5ZTY


 28 30  0  0  0  0  0  0  0  0999 V2000
  131.8236  118.4008   99.7178 C   0  0  0  0  0
  130.9688  119.5014   99.8091 C   0  0  0  0  0
  132.6970  120.9627   99.0659 C   0  0  0  0  0
  133.5810  119.8721   98.9639 C   0  0  0  0  0
  133.1387  118.5904   99.2917 C   0  0  0  0  0
  134.8854  120.0833   98.5386 C   0  0  0  0  0
  135.3252  121.3689   98.2116 C   0  0  0  0  0
  134.4130  122.4452   98.3232 C   0  0  0  0  0
  132.2048  123.3531   98.8701 C   0  0  0  0  0
  132.2964  123.9487  100.2663 C   0  0  0  0  0
  131.4131  125.1814  100.3766 C   0  0  0  0  0
  132.0004  126.3659   99.6175 C   0  0  0  0  0
  133.1193  127.0294  100.4053 C   0  0  0  0  0
  134.4392  126.3265  100.1523 C   0  0  0  0  0
  136.7279  121.5437   97.7619 C   0  0  0  0  0
  138.9694  120.4905   97.2042 C   0  0  0  0  0
  139.7328  119.2145   97.5597 C   0  0  0  0  0
  139.1970  118.0070   96.7855 C   0  0  0  0  0
  139.2167  118.2495   95.2749 C   0  0  0  0  0
  138.4749  119.5378   94.9129 C   0  0  0  0  0
  139.0148  120.7389   95.6936 C   0  0  0  0  0
  140.6378  118.2595   94.7351 C   0  0  0  0  0
  131.4167  120.7446   99.4854 N   0  0  0  0  0
  133.1257  122.2230   98.7448 N   0  0  0  0  0
  137.5927  120.4057   97.6779 N   0  0  0  0  0
  134.7818  123.6175   98.0329 O   0  0  0  0  0
  135.4451  126.9464  100.8914 O   0  0  0  0  0
  137.1689  122.6847   97.4546 O   0  0  0  0  0
  2 23  1  0  0  0
  3  4  1  0  0  0
  4  6  1  0  0  0
  5  1  1  0  0  0
  7  8  1  0  0  0
  7 15  1  0  0  0
  8 24  1  0  0  0
  9 24  1  0  0  0
  9 10  1  0  0  0
 10 11  1  0  0  0
 11 12  1  0  0  0
 12 13  1  0  0  0
 13 14  1  0  0  0
 14 27  1  0  0  0
 15 25  1  0  0  0
 16 25  1  0  0  0
 16 17  1  0  0  0
 17 18  1  0  0  0
 18 19  1  0  0  0
 19 20  1  0  0  0
 19 22  1  0  0  0
 20 21  1  0  0  0
 21 16  1  0  0  0
 24  3  1  0  0  0
  1  2  2  0  0  0
  3 23  2  0  0  0
  4  5  2  0  0  0
  6  7  2  0  0  0
  8 26  2  0  0  0
 15 28  2  0  0  0
M  END
> <rmsd>
0.750573814

$$$$
CHEMBL574052_5ZTY


 31 34  0  0  0  0  0  0  0  0999 V2000
  133.2696  121.0362   98.4798 N   0  0  0  0  0
  134.5432  120.7346   98.2696 N   0  0  0  0  0
  131.8060  123.0152   98.2408 N   0  0  0  0  0
  137.3756  120.6863   97.5797 N   0  0  0  0  0
  135.1723  121.8490   97.8400 C   0  0  0  0  0
  134.2684  122.8992   97.7889 C   0  0  0  0  0
  133.0762  122.3450   98.2050 C   0  0  0  0  0
  131.4922  124.1154   98.9495 C   0  0  0  0  0
  130.1780  124.4835   98.7327 C   0  0  0  0  0
  129.6648  123.5598   97.8308 C   0  0  0  0  0
  130.6946  122.6793   97.5594 C   0  0  0  0  0
  130.5959  121.5430   96.5990 C   0  0  0  0  0
  132.4169  124.8163   99.8854 C   0  0  0  0  0
  134.4983  124.2914   97.3070 C   0  0  0  0  0
  136.5979  121.8822   97.4806 C   0  0  0  0  0
  138.7813  120.6254   97.2064 C   0  0  0  0  0
  139.4279  119.3893   97.8427 C   0  0  0  0  0
  139.1342  118.0749   97.1071 C   0  0  0  0  0
  139.7309  117.9866   95.6922 C   0  0  0  0  0
  140.8524  118.9990   95.4399 C   0  0  0  0  0
  140.3386  120.4229   95.1709 C   0  0  0  0  0
  138.9183  120.6938   95.6798 C   0  0  0  0  0
  132.3108  120.1109   99.0213 C   0  0  0  0  0
  132.2673  118.7634   98.6005 C   0  0  0  0  0
  131.3313  117.8884   99.1611 C   0  0  0  0  0
  130.4425  118.3357  100.1403 C   0  0  0  0  0
  130.4794  119.6654  100.5609 C   0  0  0  0  0
  131.4088  120.5464  100.0052 C   0  0  0  0  0
  137.1326  122.9556   97.0916 O   0  0  0  0  0
  129.2769  117.2304  100.8344 Cl  0  0  0  0  0
  133.3143  118.1439   97.3330 Cl  0  0  0  0  0
  1  2  1  0  0  0
  1 23  1  0  0  0
  3  8  1  0  0  0
  5  6  1  0  0  0
  5 15  1  0  0  0
  7  3  1  0  0  0
  7  1  1  0  0  0
  9 10  1  0  0  0
 11  3  1  0  0  0
 12 11  1  0  0  0
 13  8  1  0  0  0
 14  6  1  0  0  0
 15  4  1  0  0  0
 16  4  1  0  0  0
 16 17  1  0  0  0
 17 18  1  0  0  0
 18 19  1  0  0  0
 19 20  1  0  0  0
 20 21  1  0  0  0
 21 22  1  0  0  0
 22 16  1  0  0  0
 24 25  1  0  0  0
 24 31  1  0  0  0
 26 27  1  0  0  0
 26 30  1  0  0  0
 28 23  1  0  0  0
  5  2  2  0  0  0
  6  7  2  0  0  0
  8  9  2  0  0  0
 10 11  2  0  0  0
 15 29  2  0  0  0
 23 24  2  0  0  0
 25 26  2  0  0  0
 27 28  2  0  0  0
M  END
> <rmsd>
0.46855095

$$$$
CHEMBL1223649_5ZTY


 29 32  0  0  0  0  0  0  0  0999 V2000
  133.2424  127.6515   99.6411 C   0  0  0  0  0
  132.3418  126.4764   99.3203 C   0  0  0  0  0
  132.5714  125.3719  100.3357 C   0  0  0  0  0
  131.6933  124.1684  100.0223 C   0  0  0  0  0
  132.1961  123.4131   98.7980 C   0  0  0  0  0
  133.4603  122.6770   99.1000 C   0  0  0  0  0
  135.0779  121.2183  100.0214 C   0  0  0  0  0
  133.5949  121.5906  100.1271 C   0  0  0  0  0
  132.7195  120.4132   99.8139 C   0  0  0  0  0
  131.7938  119.9848  100.7718 C   0  0  0  0  0
  130.9647  118.8896  100.5092 C   0  0  0  0  0
  131.0571  118.2187   99.2864 C   0  0  0  0  0
  131.9790  118.6418   98.3247 C   0  0  0  0  0
  132.8093  119.7354   98.5863 C   0  0  0  0  0
  136.9062  122.1045   98.4747 C   0  0  0  0  0
  139.2308  121.0896   98.5042 C   0  0  0  0  0
  140.1587  120.5797   99.6291 C   0  0  0  0  0
  140.6704  119.1345   99.4726 C   0  0  0  0  0
  139.6459  118.2486   98.7725 C   0  0  0  0  0
  139.3879  118.8185   97.4181 C   0  0  0  0  0
  139.3844  117.9961   96.2883 C   0  0  0  0  0
  139.1939  118.5559   95.0202 C   0  0  0  0  0
  139.0190  119.9376   94.8809 C   0  0  0  0  0
  139.0349  120.7629   96.0099 C   0  0  0  0  0
  139.2215  120.2072   97.2819 C   0  0  0  0  0
  134.5618  122.9279   98.4854 N   0  0  0  0  0
  135.5687  122.0989   98.9762 N   0  0  0  0  0
  137.8787  121.2151   99.0304 N   0  0  0  0  0
  137.2255  122.8979   97.5481 O   0  0  0  0  0
  1  2  1  0  0  0
  2  3  1  0  0  0
  3  4  1  0  0  0
  4  5  1  0  0  0
  5  6  1  0  0  0
  7 27  1  0  0  0
  7  8  1  0  0  0
  8  9  1  0  0  0
  8  6  1  0  0  0
 10 11  1  0  0  0
 12 13  1  0  0  0
 14  9  1  0  0  0
 15 28  1  0  0  0
 16 28  1  0  0  0
 16 17  1  0  0  0
 16 25  1  0  0  0
 17 18  1  0  0  0
 18 19  1  0  0  0
 19 20  1  0  0  0
 21 22  1  0  0  0
 23 24  1  0  0  0
 25 20  1  0  0  0
 27 26  1  0  0  0
 27 15  1  0  0  0
  6 26  2  0  0  0
  9 10  2  0  0  0
 11 12  2  0  0  0
 13 14  2  0  0  0
 15 29  2  0  0  0
 20 21  2  0  0  0
 22 23  2  0  0  0
 24 25  2  0  0  0
M  END
> <rmsd>
0.596590877

$$$$
CHEMBL272203_5ZTY


 28 31  0  0  0  0  0  0  0  0999 V2000
  135.0485  119.2008   97.7451 C   0  0  0  0  0
  134.7775  120.6260   98.0933 C   0  0  0  0  0
  135.5145  121.7458   97.7389 C   0  0  0  0  0
  136.7804  121.7834   96.9893 C   0  0  0  0  0
  138.6683  120.5441   95.8342 C   0  0  0  0  0
  138.8771  119.1802   95.1718 C   0  0  0  0  0
  139.0803  118.0808   96.2143 C   0  0  0  0  0
  140.2634  118.4205   97.1146 C   0  0  0  0  0
  140.0201  119.7516   97.8177 C   0  0  0  0  0
  139.8252  120.8641   96.7881 C   0  0  0  0  0
  132.9130  123.4166   99.4706 C   0  0  0  0  0
  132.2665  123.0749  100.6670 C   0  0  0  0  0
  131.4662  124.0078  101.3300 C   0  0  0  0  0
  131.3118  125.2968  100.8127 C   0  0  0  0  0
  131.9727  125.6550   99.6256 C   0  0  0  0  0
  132.7730  124.7167   98.9670 C   0  0  0  0  0
  133.6770  121.1306   98.7602 C   0  0  0  0  0
  131.2515  120.7203   99.0538 C   0  0  0  0  0
  130.4483  119.7007   99.5249 C   0  0  0  0  0
  131.2958  118.6885   99.9453 C   0  0  0  0  0
  132.5844  119.1284   99.7150 C   0  0  0  0  0
  137.3241  122.8943   96.7451 O   0  0  0  0  0
  137.3919  120.5721   96.5384 N   0  0  0  0  0
  134.8863  122.8541   98.1834 N   0  0  0  0  0
  133.7752  122.4811   98.8031 N   0  0  0  0  0
  132.5403  120.3640   99.1888 N   0  0  0  0  0
  130.2949  126.4367  101.6785 Cl  0  0  0  0  0
  131.8254  127.2651   98.9412 Cl  0  0  0  0  0
  1  2  1  0  0  0
  2  3  1  0  0  0
  3  4  1  0  0  0
  4 23  1  0  0  0
  5 23  1  0  0  0
  5  6  1  0  0  0
  6  7  1  0  0  0
  7  8  1  0  0  0
  8  9  1  0  0  0
  9 10  1  0  0  0
 10  5  1  0  0  0
 12 13  1  0  0  0
 14 27  1  0  0  0
 14 15  1  0  0  0
 15 28  1  0  0  0
 16 11  1  0  0  0
 17 26  1  0  0  0
 19 20  1  0  0  0
 21 26  1  0  0  0
 25 24  1  0  0  0
 25 11  1  0  0  0
 25 17  1  0  0  0
 26 18  1  0  0  0
  3 24  2  0  0  0
  4 22  2  0  0  0
 11 12  2  0  0  0
 13 14  2  0  0  0
 15 16  2  0  0  0
 17  2  2  0  0  0
 18 19  2  0  0  0
 20 21  2  0  0  0
M  END
> <rmsd>
0.624182045

$$$$
CHEMBL2163962_5ZTY


 28 33  0  0  0  0  0  0  0  0999 V2000
  132.4886  124.3229   99.9535 C   0  0  0  0  0
  132.1216  123.6355   98.6487 C   0  0  0  0  0
  130.6009  123.4887   98.5456 C   0  0  0  0  0
  130.8515  121.2196   99.4296 C   0  0  0  0  0
  130.2431  120.0647   99.9261 C   0  0  0  0  0
  130.9462  118.8575   99.9449 C   0  0  0  0  0
  132.2580  118.8012   99.4656 C   0  0  0  0  0
  132.8857  119.9577   98.9768 C   0  0  0  0  0
  134.2026  119.9238   98.4915 C   0  0  0  0  0
  134.8055  121.1128   98.0248 C   0  0  0  0  0
  136.1891  121.1643   97.4895 C   0  0  0  0  0
  138.3540  119.9247   96.8857 C   0  0  0  0  0
  138.8572  118.4726   96.9528 C   0  0  0  0  0
  140.2972  118.3844   96.4204 C   0  0  0  0  0
  140.3289  118.8710   94.9626 C   0  0  0  0  0
  139.8349  120.3245   94.8838 C   0  0  0  0  0
  140.7433  121.2166   95.7461 C   0  0  0  0  0
  140.7194  120.7383   97.2073 C   0  0  0  0  0
  141.2081  119.2825   97.2726 C   0  0  0  0  0
  139.2803  120.8108   97.7413 C   0  0  0  0  0
  138.3964  120.3973   95.4194 C   0  0  0  0  0
  134.0687  122.3041   98.0832 C   0  0  0  0  0
  132.1823  121.1818   98.9799 C   0  0  0  0  0
  130.1413  122.4184   99.3684 O   0  0  0  0  0
  134.8347  118.8317   98.4778 O   0  0  0  0  0
  136.6676  122.2686   97.1094 O   0  0  0  0  0
  136.9877  119.9760   97.3967 N   0  0  0  0  0
  132.7934  122.3318   98.5560 N   0  0  0  0  0
  2  1  1  0  0  0
  2  3  1  0  0  0
  2 28  1  0  0  0
  3 24  1  0  0  0
  4 24  1  0  0  0
  4  5  1  0  0  0
  6  7  1  0  0  0
  8  9  1  0  0  0
  9 10  1  0  0  0
 10 11  1  0  0  0
 11 27  1  0  0  0
 12 27  1  0  0  0
 12 13  1  0  0  0
 14 13  1  0  0  0
 14 15  1  0  0  0
 16 15  1  0  0  0
 16 17  1  0  0  0
 16 21  1  0  0  0
 18 17  1  0  0  0
 18 19  1  0  0  0
 18 20  1  0  0  0
 19 14  1  0  0  0
 20 12  1  0  0  0
 21 12  1  0  0  0
 22 28  1  0  0  0
 23  8  1  0  0  0
 28 23  1  0  0  0
  5  6  2  0  0  0
  7  8  2  0  0  0
  9 25  2  0  0  0
 10 22  2  0  0  0
 11 26  2  0  0  0
 23  4  2  0  0  0
M  END
> <rmsd>
0.744776011

$$$$
CHEMBL1909844_5ZTY


 29 32  0  0  0  0  0  0  0  0999 V2000
  135.0171  119.2350   97.6530 C   0  0  0  0  0
  134.7465  120.6648   97.9795 C   0  0  0  0  0
  135.5094  121.7800   97.6661 C   0  0  0  0  0
  136.7981  121.8107   96.9569 C   0  0  0  0  0
  138.6932  120.5622   95.8237 C   0  0  0  0  0
  139.8266  120.8290   96.8212 C   0  0  0  0  0
  139.9650  119.6842   97.8241 C   0  0  0  0  0
  140.2011  118.3680   97.0909 C   0  0  0  0  0
  139.0394  118.0804   96.1455 C   0  0  0  0  0
  138.8927  119.2129   95.1293 C   0  0  0  0  0
  132.8972  123.4304   99.4111 C   0  0  0  0  0
  132.3795  123.0623  100.6629 C   0  0  0  0  0
  131.5568  123.9343  101.3783 C   0  0  0  0  0
  131.2442  125.1874  100.8503 C   0  0  0  0  0
  131.7508  125.5668   99.6060 C   0  0  0  0  0
  132.5779  124.7007   98.8839 C   0  0  0  0  0
  133.6434  121.1752   98.6301 C   0  0  0  0  0
  132.6271  119.3424   99.9303 C   0  0  0  0  0
  131.3591  118.8387  100.1686 C   0  0  0  0  0
  130.4645  119.6280   99.4603 C   0  0  0  0  0
  131.2317  120.5824   98.8287 C   0  0  0  0  0
  137.3723  122.9157   96.7606 O   0  0  0  0  0
  137.3965  120.5990   96.4894 N   0  0  0  0  0
  134.8914  122.8891   98.1255 N   0  0  0  0  0
  133.7565  122.5203   98.7030 N   0  0  0  0  0
  132.5334  120.4103   99.1202 N   0  0  0  0  0
  130.2112  126.2807  101.7445 Cl  0  0  0  0  0
  133.1324  125.2205   97.3003 Cl  0  0  0  0  0
  130.5955  121.7793   97.7119 Cl  0  0  0  0  0
  1  2  1  0  0  0
  2  3  1  0  0  0
  3  4  1  0  0  0
  4 23  1  0  0  0
  5 23  1  0  0  0
  5  6  1  0  0  0
  6  7  1  0  0  0
  7  8  1  0  0  0
  8  9  1  0  0  0
  9 10  1  0  0  0
 10  5  1  0  0  0
 12 13  1  0  0  0
 14 27  1  0  0  0
 14 15  1  0  0  0
 16 28  1  0  0  0
 16 11  1  0  0  0
 17 26  1  0  0  0
 19 20  1  0  0  0
 21 29  1  0  0  0
 21 26  1  0  0  0
 25 24  1  0  0  0
 25 11  1  0  0  0
 25 17  1  0  0  0
 26 18  1  0  0  0
  3 24  2  0  0  0
  4 22  2  0  0  0
 11 12  2  0  0  0
 13 14  2  0  0  0
 15 16  2  0  0  0
 17  2  2  0  0  0
 18 19  2  0  0  0
 20 21  2  0  0  0
M  END
> <rmsd>
0.650031984

$$$$
CHEMBL1909847_5ZTY


 35 39  0  0  0  0  0  0  0  0999 V2000
  134.0965  119.2682   96.9050 C   0  0  0  0  0
  134.1089  120.6337   97.5059 C   0  0  0  0  0
  135.0582  121.6309   97.3337 C   0  0  0  0  0
  136.2519  121.5922   96.4737 C   0  0  0  0  0
  137.7317  120.3191   94.8551 C   0  0  0  0  0
  138.9020  119.9846   95.7161 C   0  0  0  0  0
  139.0788  118.6785   96.1829 C   0  0  0  0  0
  140.1654  118.3712   97.0059 C   0  0  0  0  0
  141.0784  119.3665   97.3689 C   0  0  0  0  0
  140.8994  120.6811   96.9033 C   0  0  0  0  0
  139.8104  120.9832   96.0799 C   0  0  0  0  0
  132.9512  123.3484   99.6045 C   0  0  0  0  0
  131.5998  123.6419   99.3675 C   0  0  0  0  0
  130.9300  124.5823  100.1531 C   0  0  0  0  0
  131.6076  125.2428  101.1795 C   0  0  0  0  0
  132.9548  124.9639  101.4199 C   0  0  0  0  0
  133.6329  124.0253  100.6359 C   0  0  0  0  0
  133.2169  121.1575   98.4245 C   0  0  0  0  0
  131.6139  120.6591  100.2539 C   0  0  0  0  0
  130.5586  119.7954  100.4358 C   0  0  0  0  0
  130.4421  119.0382   99.2983 C   0  0  0  0  0
  131.3948  119.4762   98.4069 C   0  0  0  0  0
  129.3709  118.0161   99.0849 C   0  0  0  0  0
  128.7806  117.5789  100.4342 C   0  0  0  0  0
  128.4661  118.7913  101.3251 C   0  0  0  0  0
  129.7413  119.5759  101.6692 C   0  0  0  0  0
  137.0305  122.5834   96.4508 O   0  0  0  0  0
  136.5276  120.4452   95.6648 N   0  0  0  0  0
  134.7384  122.6918   98.1034 N   0  0  0  0  0
  133.6285  122.4007   98.7662 N   0  0  0  0  0
  132.0991  120.4637   99.0062 N   0  0  0  0  0
  142.4282  118.9349   98.4056 Cl  0  0  0  0  0
  142.0132  121.9684   97.3332 Cl  0  0  0  0  0
  130.7685  126.4195  102.1661 Cl  0  0  0  0  0
  135.3162  123.6882  101.0062 Cl  0  0  0  0  0
  1  2  1  0  0  0
  2  3  1  0  0  0
  3  4  1  0  0  0
  4 28  1  0  0  0
  5 28  1  0  0  0
  5  6  1  0  0  0
  7  8  1  0  0  0
  9 32  1  0  0  0
  9 10  1  0  0  0
 10 33  1  0  0  0
 11  6  1  0  0  0
 13 14  1  0  0  0
 15 34  1  0  0  0
 15 16  1  0  0  0
 17 35  1  0  0  0
 17 12  1  0  0  0
 18 31  1  0  0  0
 20 21  1  0  0  0
 22 31  1  0  0  0
 23 21  1  0  0  0
 23 24  1  0  0  0
 24 25  1  0  0  0
 25 26  1  0  0  0
 26 20  1  0  0  0
 30 29  1  0  0  0
 30 12  1  0  0  0
 30 18  1  0  0  0
 31 19  1  0  0  0
  3 29  2  0  0  0
  4 27  2  0  0  0
  6  7  2  0  0  0
  8  9  2  0  0  0
 10 11  2  0  0  0
 12 13  2  0  0  0
 14 15  2  0  0  0
 16 17  2  0  0  0
 18  2  2  0  0  0
 19 20  2  0  0  0
 21 22  2  0  0  0
M  END
> <rmsd>
0.852855325

$$$$
CHEMBL2336561_8GUT


 30 32  0  0  0  0  0  0  0  0999 V2000
  129.2490  119.1773  102.2669 C   0  0  0  0  0
  128.8838  120.2372  101.2484 C   0  0  0  0  0
  128.2813  119.4800   98.9574 C   0  0  0  0  0
  128.0845  120.6037   97.9591 C   0  0  0  0  0
  130.7155  119.8239   99.5469 C   0  0  0  0  0
  131.1287  119.2717   98.3221 C   0  0  0  0  0
  132.4794  119.2636   97.9645 C   0  0  0  0  0
  133.4357  119.8002   98.8318 C   0  0  0  0  0
  134.8751  119.8240   98.4426 C   0  0  0  0  0
  135.9402  120.2570   96.3233 C   0  0  0  0  0
  137.3648  119.9841   96.7197 C   0  0  0  0  0
  138.3882  120.7470   96.1497 C   0  0  0  0  0
  139.7216  120.5023   96.4891 C   0  0  0  0  0
  140.0375  119.4832   97.3917 C   0  0  0  0  0
  139.0202  118.7072   97.9517 C   0  0  0  0  0
  137.6862  118.9534   97.6124 C   0  0  0  0  0
  134.4961  123.1199   98.9437 C   0  0  0  0  0
  134.6055  123.3539  100.3192 C   0  0  0  0  0
  133.5615  123.9776  101.0095 C   0  0  0  0  0
  132.4083  124.3663  100.3248 C   0  0  0  0  0
  132.2890  124.1217   98.9536 C   0  0  0  0  0
  133.3332  123.5001   98.2644 C   0  0  0  0  0
  133.0366  120.3440  100.0550 C   0  0  0  0  0
  131.6867  120.3564  100.4102 C   0  0  0  0  0
  129.3200  119.8339   99.9155 N   0  0  0  0  0
  135.0920  120.8135   97.3915 N   0  0  0  0  0
  135.7628  122.2727   98.0781 S   0  0  0  0  0
  136.8867  121.9319   99.0191 O   0  0  0  0  0
  136.2866  123.1673   96.9892 O   0  0  0  0  0
  131.0862  125.1195  101.1877 Cl  0  0  0  0  0
  1  2  1  0  0  0
  2 25  1  0  0  0
  3 25  1  0  0  0
  3  4  1  0  0  0
  6  7  1  0  0  0
  8 23  1  0  0  0
  9  8  1  0  0  0
  9 26  1  0  0  0
 10 26  1  0  0  0
 10 11  1  0  0  0
 12 13  1  0  0  0
 14 15  1  0  0  0
 16 11  1  0  0  0
 18 19  1  0  0  0
 20 30  1  0  0  0
 20 21  1  0  0  0
 22 17  1  0  0  0
 24  5  1  0  0  0
 25  5  1  0  0  0
 27 26  1  0  0  0
 27 17  1  0  0  0
  5  6  2  0  0  0
  7  8  2  0  0  0
 11 12  2  0  0  0
 13 14  2  0  0  0
 15 16  2  0  0  0
 17 18  2  0  0  0
 19 20  2  0  0  0
 21 22  2  0  0  0
 23 24  2  0  0  0
 27 28  2  0  0  0
 27 29  2  0  0  0
M  END
> <rmsd>
0.748377204

$$$$
CHEMBL2179771_5ZTY


 32 34  0  0  0  0  0  0  0  0999 V2000
  143.4088  120.6550   96.0061 C   0  0  0  0  0
  142.4592  119.6217   95.4290 C   0  0  0  0  0
  142.3307  117.9216   97.2576 C   0  0  0  0  0
  142.6571  118.3736   98.6722 C   0  0  0  0  0
  140.3027  119.3360   96.7058 C   0  0  0  0  0
  139.5933  118.8268   97.8063 C   0  0  0  0  0
  138.2547  119.1726   98.0119 C   0  0  0  0  0
  137.5970  120.0198   97.1100 C   0  0  0  0  0
  136.1780  120.4537   97.3317 C   0  0  0  0  0
  135.1510  118.6844   98.8915 C   0  0  0  0  0
  134.1340  117.6059   99.0631 C   0  0  0  0  0
  132.7713  118.2025   99.1995 C   0  0  0  0  0
  131.9885  118.4298   98.0602 C   0  0  0  0  0
  130.7417  119.0533   98.1785 C   0  0  0  0  0
  130.2780  119.4575   99.4335 C   0  0  0  0  0
  131.0603  119.2356  100.5726 C   0  0  0  0  0
  132.3082  118.6124  100.4563 C   0  0  0  0  0
  136.3180  122.8501   98.1209 C   0  0  0  0  0
  136.2601  123.8279   99.2439 C   0  0  0  0  0
  134.8557  124.2685   99.4831 C   0  0  0  0  0
  134.3282  125.3465   98.7612 C   0  0  0  0  0
  133.0085  125.7536   98.9730 C   0  0  0  0  0
  132.2131  125.0838   99.9089 C   0  0  0  0  0
  132.7358  124.0047  100.6290 C   0  0  0  0  0
  134.0571  123.5954  100.4151 C   0  0  0  0  0
  138.2974  120.5323   96.0141 C   0  0  0  0  0
  139.6391  120.1942   95.8133 C   0  0  0  0  0
  141.6904  118.9993   96.5045 N   0  0  0  0  0
  135.2896  119.3285   97.6182 N   0  0  0  0  0
  136.0938  121.4627   98.3796 N   0  0  0  0  0
  135.8408  119.0492   99.8811 O   0  0  0  0  0
  136.5155  123.2586   96.9446 O   0  0  0  0  0
  1  2  1  0  0  0
  2 28  1  0  0  0
  3 28  1  0  0  0
  3  4  1  0  0  0
  6  7  1  0  0  0
  8 26  1  0  0  0
  9  8  1  0  0  0
  9 29  1  0  0  0
  9 30  1  0  0  0
 11 10  1  0  0  0
 11 12  1  0  0  0
 13 14  1  0  0  0
 15 16  1  0  0  0
 17 12  1  0  0  0
 19 18  1  0  0  0
 19 20  1  0  0  0
 21 22  1  0  0  0
 23 24  1  0  0  0
 25 20  1  0  0  0
 27  5  1  0  0  0
 28  5  1  0  0  0
 29 10  1  0  0  0
 30 18  1  0  0  0
  5  6  2  0  0  0
  7  8  2  0  0  0
 10 31  2  0  0  0
 12 13  2  0  0  0
 14 15  2  0  0  0
 16 17  2  0  0  0
 18 32  2  0  0  0
 20 21  2  0  0  0
 22 23  2  0  0  0
 24 25  2  0  0  0
 26 27  2  0  0  0
M  END
> <rmsd>
0.514187634

$$$$
CHEMBL2336537_8GUT


 29 31  0  0  0  0  0  0  0  0999 V2000
  141.3686  121.5844   93.5278 C   0  0  0  0  0
  141.3517  120.4520   94.5383 C   0  0  0  0  0
  139.6850  118.9697   93.4075 C   0  0  0  0  0
  138.5620  119.6164   92.6169 C   0  0  0  0  0
  139.2119  119.8619   95.7282 C   0  0  0  0  0
  139.5560  120.6954   96.8057 C   0  0  0  0  0
  138.7482  120.7570   97.9440 C   0  0  0  0  0
  137.5807  119.9916   98.0194 C   0  0  0  0  0
  136.7248  120.0526   99.2540 C   0  0  0  0  0
  134.6508  120.4400   98.0767 C   0  0  0  0  0
  133.3993  119.8887   98.6649 C   0  0  0  0  0
  132.9749  118.5771   98.5535 C   0  0  0  0  0
  131.7500  118.3521   99.1985 C   0  0  0  0  0
  131.2064  119.4787   99.8132 C   0  0  0  0  0
  134.5536  123.5793   99.1597 C   0  0  0  0  0
  134.2205  123.9173  100.4762 C   0  0  0  0  0
  133.0850  124.6906  100.7353 C   0  0  0  0  0
  132.2783  125.1238   99.6787 C   0  0  0  0  0
  131.0707  125.9445   99.9544 C   0  0  0  0  0
  132.6066  124.7833   98.3631 C   0  0  0  0  0
  133.7420  124.0101   98.1039 C   0  0  0  0  0
  137.2363  119.1479   96.9582 C   0  0  0  0  0
  138.0441  119.0862   95.8199 C   0  0  0  0  0
  140.0447  119.8032   94.5517 N   0  0  0  0  0
  135.5344  120.9106   99.1374 N   0  0  0  0  0
  132.2676  120.7563   99.5440 S   0  0  0  0  0
  135.9555  122.5739   98.8421 S   0  0  0  0  0
  136.3911  122.7633   97.4144 O   0  0  0  0  0
  137.0763  122.9922   99.7532 O   0  0  0  0  0
  1  2  1  0  0  0
  2 24  1  0  0  0
  3 24  1  0  0  0
  3  4  1  0  0  0
  6  7  1  0  0  0
  8 22  1  0  0  0
  9  8  1  0  0  0
  9 25  1  0  0  0
 10 25  1  0  0  0
 10 11  1  0  0  0
 11 26  1  0  0  0
 12 13  1  0  0  0
 14 26  1  0  0  0
 16 17  1  0  0  0
 18 20  1  0  0  0
 19 18  1  0  0  0
 21 15  1  0  0  0
 23  5  1  0  0  0
 24  5  1  0  0  0
 27 25  1  0  0  0
 27 15  1  0  0  0
  5  6  2  0  0  0
  7  8  2  0  0  0
 11 12  2  0  0  0
 13 14  2  0  0  0
 15 16  2  0  0  0
 17 18  2  0  0  0
 20 21  2  0  0  0
 22 23  2  0  0  0
 27 28  2  0  0  0
 27 29  2  0  0  0
M  END
> <rmsd>
0.774826586

$$$$
CHEMBL1909859_8GUT


 32 35  0  0  0  0  0  0  0  0999 V2000
  135.3078  125.1857   97.0376 C   0  0  0  0  0
  135.5293  124.4015   98.3169 C   0  0  0  0  0
  134.8308  123.0815   98.2448 C   0  0  0  0  0
  135.1477  121.9794   97.4620 C   0  0  0  0  0
  136.3013  121.8221   96.5624 C   0  0  0  0  0
  137.5806  120.3584   94.9342 C   0  0  0  0  0
  138.7639  119.9656   95.7520 C   0  0  0  0  0
  138.8554  118.6733   96.2783 C   0  0  0  0  0
  139.9561  118.3129   97.0597 C   0  0  0  0  0
  140.9689  119.2412   97.3218 C   0  0  0  0  0
  140.8760  120.5421   96.7963 C   0  0  0  0  0
  139.7724  120.8974   96.0146 C   0  0  0  0  0
  132.2626  120.6377   99.0210 C   0  0  0  0  0
  131.8360  120.7310  100.3534 C   0  0  0  0  0
  130.8228  119.8972  100.8317 C   0  0  0  0  0
  130.2323  118.9519   99.9887 C   0  0  0  0  0
  130.6680  118.8367   98.6578 C   0  0  0  0  0
  131.6830  119.6738   98.1850 C   0  0  0  0  0
  133.6747  122.7130   98.9080 C   0  0  0  0  0
  133.3474  124.4993  100.5862 C   0  0  0  0  0
  132.2864  125.1850  101.1439 C   0  0  0  0  0
  131.1337  124.6607  100.5818 C   0  0  0  0  0
  131.5345  123.6748   99.7020 C   0  0  0  0  0
  137.1684  122.7325   96.4711 O   0  0  0  0  0
  136.4351  120.6231   95.7942 N   0  0  0  0  0
  134.2260  121.0134   97.6537 N   0  0  0  0  0
  133.3348  121.4576   98.5289 N   0  0  0  0  0
  132.8748  123.5804   99.7272 N   0  0  0  0  0
  142.3329  118.7445   98.3095 Cl  0  0  0  0  0
  142.1171  121.7465   97.0988 Cl  0  0  0  0  0
  128.9611  117.9257  100.6319 Cl  0  0  0  0  0
  129.9710  117.6558   97.5613 Cl  0  0  0  0  0
  1  2  1  0  0  0
  2  3  1  0  0  0
  3  4  1  0  0  0
  4  5  1  0  0  0
  5 25  1  0  0  0
  6 25  1  0  0  0
  6  7  1  0  0  0
  8  9  1  0  0  0
 10 29  1  0  0  0
 10 11  1  0  0  0
 11 30  1  0  0  0
 12  7  1  0  0  0
 14 15  1  0  0  0
 16 31  1  0  0  0
 16 17  1  0  0  0
 17 32  1  0  0  0
 18 13  1  0  0  0
 19 28  1  0  0  0
 21 22  1  0  0  0
 23 28  1  0  0  0
 27 26  1  0  0  0
 27 13  1  0  0  0
 27 19  1  0  0  0
 28 20  1  0  0  0
  4 26  2  0  0  0
  5 24  2  0  0  0
  7  8  2  0  0  0
  9 10  2  0  0  0
 11 12  2  0  0  0
 13 14  2  0  0  0
 15 16  2  0  0  0
 17 18  2  0  0  0
 19  3  2  0  0  0
 20 21  2  0  0  0
 22 23  2  0  0  0
M  END
> <rmsd>
0.782601416

$$$$
CHEMBL250565_5ZTY


 29 32  0  0  0  0  0  0  0  0999 V2000
  129.5021  126.1527  101.2905 C   0  0  0  0  0
  131.4006  124.7341  100.5799 C   0  0  0  0  0
  131.8902  125.7168   99.7083 C   0  0  0  0  0
  133.0425  125.4652   98.9653 C   0  0  0  0  0
  133.7041  124.2381   99.0900 C   0  0  0  0  0
  134.8661  123.9540   98.3557 C   0  0  0  0  0
  135.4994  122.7031   98.5127 C   0  0  0  0  0
  136.7268  122.3226   97.7727 C   0  0  0  0  0
  138.4889  120.5734   97.2626 C   0  0  0  0  0
  139.0529  119.3358   97.9556 C   0  0  0  0  0
  140.2841  118.8290   97.2092 C   0  0  0  0  0
  139.9244  118.5003   95.7627 C   0  0  0  0  0
  139.3581  119.7354   95.0672 C   0  0  0  0  0
  138.1273  120.2412   95.8143 C   0  0  0  0  0
  134.9406  121.7787   99.4037 C   0  0  0  0  0
  133.2880  121.0361  101.0047 C   0  0  0  0  0
  132.3632  120.1256  100.2673 C   0  0  0  0  0
  132.8684  119.0020   99.6035 C   0  0  0  0  0
  132.0058  118.1629   98.8916 C   0  0  0  0  0
  130.6381  118.4488   98.8385 C   0  0  0  0  0
  130.1329  119.5748   99.4960 C   0  0  0  0  0
  130.9953  120.4141  100.2080 C   0  0  0  0  0
  133.1847  123.2692   99.9751 C   0  0  0  0  0
  130.2489  124.9448  101.3432 O   0  0  0  0  0
  135.3336  124.8173   97.5624 O   0  0  0  0  0
  137.2680  123.1272   96.9661 O   0  0  0  0  0
  137.3066  121.0293   97.9774 N   0  0  0  0  0
  133.8140  122.0633  100.1112 N   0  0  0  0  0
  132.0564  123.5477  100.6889 N   0  0  0  0  0
  1 24  1  0  0  0
  2 24  1  0  0  0
  2 29  1  0  0  0
  3  4  1  0  0  0
  5  6  1  0  0  0
  6  7  1  0  0  0
  7  8  1  0  0  0
  8 27  1  0  0  0
  9 27  1  0  0  0
  9 10  1  0  0  0
 10 11  1  0  0  0
 11 12  1  0  0  0
 12 13  1  0  0  0
 13 14  1  0  0  0
 14  9  1  0  0  0
 15 28  1  0  0  0
 16 28  1  0  0  0
 16 17  1  0  0  0
 18 19  1  0  0  0
 20 21  1  0  0  0
 22 17  1  0  0  0
 23  5  1  0  0  0
 28 23  1  0  0  0
  2  3  2  0  0  0
  4  5  2  0  0  0
  6 25  2  0  0  0
  7 15  2  0  0  0
  8 26  2  0  0  0
 17 18  2  0  0  0
 19 20  2  0  0  0
 21 22  2  0  0  0
 23 29  2  0  0  0
M  END
> <rmsd>
0.297470897

$$$$
CHEMBL3354956_8GUQ


 29 33  0  0  0  0  0  0  0  0999 V2000
  137.7522  121.0651   95.3257 C   0  0  0  0  0
  135.9858  122.2707   96.6644 C   0  0  0  0  0
  134.7083  122.2282   97.3852 C   0  0  0  0  0
  133.0827  122.6921   98.7495 C   0  0  0  0  0
  134.1358  123.2434   98.1232 C   0  0  0  0  0
  134.7189  124.3694   98.8772 C   0  0  0  0  0
  133.8728  124.4094  100.1735 C   0  0  0  0  0
  132.7813  123.3263  100.0585 C   0  0  0  0  0
  132.4317  124.7962   99.8856 C   0  0  0  0  0
  132.0824  120.4087   98.9514 C   0  0  0  0  0
  130.9682  120.8271   99.6980 C   0  0  0  0  0
  130.0630  119.8980  100.2154 C   0  0  0  0  0
  130.2587  118.5350   99.9905 C   0  0  0  0  0
  131.3585  118.1018   99.2480 C   0  0  0  0  0
  132.2680  119.0274   98.7267 C   0  0  0  0  0
  137.5467  120.5581   93.9069 C   0  0  0  0  0
  138.7469  120.2238   96.0592 C   0  0  0  0  0
  139.9323  120.8100   96.5162 C   0  0  0  0  0
  140.8726  120.0443   97.2124 C   0  0  0  0  0
  140.6293  118.6893   97.4557 C   0  0  0  0  0
  139.4455  118.0989   97.0038 C   0  0  0  0  0
  138.5048  118.8636   96.3077 C   0  0  0  0  0
  136.4851  121.0856   96.0428 N   0  0  0  0  0
  133.9785  121.1044   97.5630 N   0  0  0  0  0
  132.9975  121.3858   98.4144 N   0  0  0  0  0
  136.6368  123.3483   96.5930 O   0  0  0  0  0
  136.7821  121.4724   93.1821 O   0  0  0  0  0
  133.3267  118.5653   98.0167 F   0  0  0  0  0
  129.3820  117.6328  100.4922 F   0  0  0  0  0
  1 23  1  0  0  0
  1 16  1  0  0  0
  1 17  1  0  0  0
  2  3  1  0  0  0
  5  3  1  0  0  0
  6  5  1  0  0  0
  7  6  1  0  0  0
  7  8  1  0  0  0
  8  9  1  0  0  0
  8  4  1  0  0  0
  9  7  1  0  0  0
 11 12  1  0  0  0
 13 14  1  0  0  0
 13 29  1  0  0  0
 15 28  1  0  0  0
 15 10  1  0  0  0
 16 27  1  0  0  0
 18 19  1  0  0  0
 20 21  1  0  0  0
 22 17  1  0  0  0
 23  2  1  0  0  0
 25 24  1  0  0  0
 25  4  1  0  0  0
 25 10  1  0  0  0
  2 26  2  0  0  0
  3 24  2  0  0  0
  4  5  2  0  0  0
 10 11  2  0  0  0
 12 13  2  0  0  0
 14 15  2  0  0  0
 17 18  2  0  0  0
 19 20  2  0  0  0
 21 22  2  0  0  0
M  END
> <rmsd>
0.510971844

$$$$
CHEMBL461011_8GUQ


 25 26  0  0  0  0  0  0  0  0999 V2000
  139.7056  120.2966   98.3441 C   0  0  0  0  0
  138.8391  120.1321   97.1098 C   0  0  0  0  0
  138.1728  118.7698   97.1496 C   0  0  0  0  0
  139.7297  120.1987   95.8820 C   0  0  0  0  0
  137.7931  121.2121   97.0713 C   0  0  0  0  0
  136.8217  121.4312   98.0362 C   0  0  0  0  0
  136.1453  122.5198   97.5128 C   0  0  0  0  0
  134.4104  122.8329   99.3556 C   0  0  0  0  0
  133.1418  123.5284   99.7821 C   0  0  0  0  0
  132.8873  123.3400  101.2710 C   0  0  0  0  0
  133.2541  125.0204   99.5172 C   0  0  0  0  0
  131.6800  121.1219   99.0501 C   0  0  0  0  0
  132.3464  120.2877   98.1449 C   0  0  0  0  0
  132.3034  118.9002   98.3075 C   0  0  0  0  0
  131.5956  118.3438   99.3771 C   0  0  0  0  0
  130.9317  119.1747  100.2845 C   0  0  0  0  0
  130.9751  120.5626  100.1220 C   0  0  0  0  0
  135.0143  123.1734   98.0991 N   0  0  0  0  0
  136.6757  122.9024   96.3388 N   0  0  0  0  0
  134.8979  121.9105  100.0660 O   0  0  0  0  0
  131.9120  123.1968   97.4007 O   0  0  0  0  0
  130.4747  123.4775   99.3538 O   0  0  0  0  0
  137.6649  122.0944   96.1057 O   0  0  0  0  0
  131.7570  122.8667   98.8597 S   0  0  0  0  0
  131.5423  116.6066   99.5811 Cl  0  0  0  0  0
  1  2  1  0  0  0
  2  3  1  0  0  0
  2  4  1  0  0  0
  2  5  1  0  0  0
  5 23  1  0  0  0
  6  7  1  0  0  0
  7 18  1  0  0  0
  9  8  1  0  0  0
  9 10  1  0  0  0
  9 11  1  0  0  0
  9 24  1  0  0  0
 13 14  1  0  0  0
 15 25  1  0  0  0
 15 16  1  0  0  0
 17 12  1  0  0  0
 18  8  1  0  0  0
 19 23  1  0  0  0
 24 12  1  0  0  0
  5  6  2  0  0  0
  7 19  2  0  0  0
  8 20  2  0  0  0
 12 13  2  0  0  0
 14 15  2  0  0  0
 16 17  2  0  0  0
 24 21  2  0  0  0
 24 22  2  0  0  0
M  END
> <rmsd>
0.691047788

$$$$
CHEMBL3353441_8GUT


 30 33  0  0  0  0  0  0  0  0999 V2000
  132.0133  125.6684   99.5707 C   0  0  0  0  0
  131.4650  124.7414  100.4594 C   0  0  0  0  0
  133.1950  123.1799   99.9649 C   0  0  0  0  0
  133.7710  124.0966   99.0654 C   0  0  0  0  0
  133.1746  125.3421   98.8703 C   0  0  0  0  0
  134.9281  123.7519   98.3814 C   0  0  0  0  0
  135.5267  122.5045   98.5809 C   0  0  0  0  0
  134.9249  121.6046   99.4933 C   0  0  0  0  0
  133.1541  120.9974  101.0788 C   0  0  0  0  0
  132.1780  120.1291  100.3551 C   0  0  0  0  0
  132.6059  118.9358   99.7626 C   0  0  0  0  0
  131.6967  118.1337   99.0661 C   0  0  0  0  0
  130.3590  118.5257   98.9582 C   0  0  0  0  0
  129.9305  119.7204   99.5449 C   0  0  0  0  0
  130.8397  120.5223  100.2413 C   0  0  0  0  0
  136.7638  122.1874   97.8227 C   0  0  0  0  0
  138.6115  120.5572   97.2269 C   0  0  0  0  0
  138.2534  120.2645   95.7700 C   0  0  0  0  0
  139.5062  119.9508   94.9413 C   0  0  0  0  0
  140.6292  119.2925   95.7543 C   0  0  0  0  0
  140.0738  118.4684   96.9124 C   0  0  0  0  0
  139.2778  119.3439   97.8901 C   0  0  0  0  0
  141.4659  118.4135   94.8492 C   0  0  0  0  0
  132.0601  123.5311  100.6367 N   0  0  0  0  0
  133.7751  121.9541  100.1581 N   0  0  0  0  0
  137.4187  120.9237   97.9750 N   0  0  0  0  0
  135.4460  120.4740   99.7022 O   0  0  0  0  0
  137.2475  123.0451   97.0330 O   0  0  0  0  0
  129.4782  117.7488   98.2835 F   0  0  0  0  0
  131.1834  127.3644   99.3179 Br  0  0  0  0  0
  1 30  1  0  0  0
  2 24  1  0  0  0
  3  4  1  0  0  0
  4  6  1  0  0  0
  5  1  1  0  0  0
  7  8  1  0  0  0
  7 16  1  0  0  0
  8 25  1  0  0  0
  9 25  1  0  0  0
  9 10  1  0  0  0
 11 12  1  0  0  0
 13 14  1  0  0  0
 13 29  1  0  0  0
 15 10  1  0  0  0
 16 26  1  0  0  0
 17 26  1  0  0  0
 17 18  1  0  0  0
 18 19  1  0  0  0
 19 20  1  0  0  0
 20 21  1  0  0  0
 20 23  1  0  0  0
 21 22  1  0  0  0
 22 17  1  0  0  0
 25  3  1  0  0  0
  1  2  2  0  0  0
  3 24  2  0  0  0
  4  5  2  0  0  0
  6  7  2  0  0  0
  8 27  2  0  0  0
 10 11  2  0  0  0
 12 13  2  0  0  0
 14 15  2  0  0  0
 16 28  2  0  0  0
M  END
> <rmsd>
0.334276766

$$$$
CHEMBL2163579_5ZTY


 29 34  0  0  0  0  0  0  0  0999 V2000
  131.9166  124.1725  100.4886 C   0  0  0  0  0
  132.3265  124.5909   99.0808 C   0  0  0  0  0
  132.0869  123.4890   98.0432 C   0  0  0  0  0
  130.6029  123.1739   97.8421 C   0  0  0  0  0
  130.9345  121.1720   99.2140 C   0  0  0  0  0
  130.3626  120.0895   99.8871 C   0  0  0  0  0
  131.1422  118.9874  100.2316 C   0  0  0  0  0
  132.4967  118.9608   99.8928 C   0  0  0  0  0
  133.0892  120.0502   99.2293 C   0  0  0  0  0
  134.4441  120.0388   98.8703 C   0  0  0  0  0
  135.0054  121.1606   98.2288 C   0  0  0  0  0
  136.3917  121.1825   97.7243 C   0  0  0  0  0
  138.3822  119.8506   96.8002 C   0  0  0  0  0
  139.4730  120.5879   97.5959 C   0  0  0  0  0
  140.8272  120.4560   96.8818 C   0  0  0  0  0
  141.1992  118.9703   96.7733 C   0  0  0  0  0
  140.1232  118.2205   95.9766 C   0  0  0  0  0
  140.0176  118.8278   94.5654 C   0  0  0  0  0
  139.6388  120.3120   94.6646 C   0  0  0  0  0
  140.7142  121.0543   95.4703 C   0  0  0  0  0
  138.2852  120.4427   95.3812 C   0  0  0  0  0
  138.7672  118.3658   96.6922 C   0  0  0  0  0
  134.1931  122.2779   97.9942 C   0  0  0  0  0
  132.3046  121.1771   98.9119 C   0  0  0  0  0
  130.1427  122.2535   98.8273 O   0  0  0  0  0
  135.1545  119.0310   99.1367 O   0  0  0  0  0
  136.9350  122.2836   97.4400 O   0  0  0  0  0
  137.0930  119.9563   97.4778 N   0  0  0  0  0
  132.8735  122.2781   98.3262 N   0  0  0  0  0
  1  2  1  0  0  0
  3  2  1  0  0  0
  3  4  1  0  0  0
  3 29  1  0  0  0
  4 25  1  0  0  0
  5 25  1  0  0  0
  5  6  1  0  0  0
  7  8  1  0  0  0
  9 10  1  0  0  0
 10 11  1  0  0  0
 11 12  1  0  0  0
 12 28  1  0  0  0
 13 28  1  0  0  0
 13 14  1  0  0  0
 15 14  1  0  0  0
 15 16  1  0  0  0
 17 16  1  0  0  0
 17 18  1  0  0  0
 17 22  1  0  0  0
 19 18  1  0  0  0
 19 20  1  0  0  0
 19 21  1  0  0  0
 20 15  1  0  0  0
 21 13  1  0  0  0
 22 13  1  0  0  0
 23 29  1  0  0  0
 24  9  1  0  0  0
 29 24  1  0  0  0
  6  7  2  0  0  0
  8  9  2  0  0  0
 10 26  2  0  0  0
 11 23  2  0  0  0
 12 27  2  0  0  0
 24  5  2  0  0  0
M  END
> <rmsd>
0.837210894

$$$$
CHEMBL2336566_5ZTY


 31 33  0  0  0  0  0  0  0  0999 V2000
  141.3917  121.6504   93.5020 C   0  0  0  0  0
  141.3922  120.5159   94.5103 C   0  0  0  0  0
  139.7388  119.0165   93.3827 C   0  0  0  0  0
  138.6052  119.6518   92.5978 C   0  0  0  0  0
  139.2638  119.8989   95.7070 C   0  0  0  0  0
  138.1051  119.1099   95.8014 C   0  0  0  0  0
  137.3003  119.1612   96.9423 C   0  0  0  0  0
  137.6384  120.0076   98.0033 C   0  0  0  0  0
  136.7853  120.0583   99.2404 C   0  0  0  0  0
  134.7027  120.4198   98.0698 C   0  0  0  0  0
  133.4322  119.9060   98.6548 C   0  0  0  0  0
  132.5485  120.7750   99.3067 C   0  0  0  0  0
  131.3535  120.2867   99.8431 C   0  0  0  0  0
  131.0384  118.9296   99.7256 C   0  0  0  0  0
  131.9173  118.0614   99.0705 C   0  0  0  0  0
  133.1128  118.5498   98.5339 C   0  0  0  0  0
  134.5736  123.5601   99.1518 C   0  0  0  0  0
  133.7911  124.0377   98.0951 C   0  0  0  0  0
  132.6473  124.7972   98.3568 C   0  0  0  0  0
  132.2745  125.0816   99.6747 C   0  0  0  0  0
  130.6722  126.1761  101.2084 C   0  0  0  0  0
  133.0602  124.5968  100.7334 C   0  0  0  0  0
  134.2036  123.8374  100.4715 C   0  0  0  0  0
  138.7971  120.7862   97.9253 C   0  0  0  0  0
  139.6019  120.7350   96.7844 C   0  0  0  0  0
  140.0932  119.8515   94.5275 N   0  0  0  0  0
  135.5847  120.9026   99.1274 N   0  0  0  0  0
  135.9857  122.5705   98.8293 S   0  0  0  0  0
  136.4135  122.7626   97.3995 O   0  0  0  0  0
  137.1049  123.0031   99.7355 O   0  0  0  0  0
  131.1250  125.8429   99.9034 O   0  0  0  0  0
  1  2  1  0  0  0
  2 26  1  0  0  0
  3 26  1  0  0  0
  3  4  1  0  0  0
  6  7  1  0  0  0
  8 24  1  0  0  0
  9  8  1  0  0  0
  9 27  1  0  0  0
 10 27  1  0  0  0
 10 11  1  0  0  0
 12 13  1  0  0  0
 14 15  1  0  0  0
 16 11  1  0  0  0
 18 19  1  0  0  0
 20 31  1  0  0  0
 20 22  1  0  0  0
 21 31  1  0  0  0
 23 17  1  0  0  0
 25  5  1  0  0  0
 26  5  1  0  0  0
 28 27  1  0  0  0
 28 17  1  0  0  0
  5  6  2  0  0  0
  7  8  2  0  0  0
 11 12  2  0  0  0
 13 14  2  0  0  0
 15 16  2  0  0  0
 17 18  2  0  0  0
 19 20  2  0  0  0
 22 23  2  0  0  0
 24 25  2  0  0  0
 28 29  2  0  0  0
 28 30  2  0  0  0
M  END
> <rmsd>
0.736968458

$$$$
CHEMBL1668521_5ZTY


 27 29  0  0  0  0  0  0  0  0999 V2000
  129.2084  127.0617   98.8115 C   0  0  0  0  0
  129.0232  126.2681  100.0912 C   0  0  0  0  0
  129.8818  125.0164  100.0671 C   0  0  0  0  0
  131.3390  125.3670  100.3219 C   0  0  0  0  0
  132.1978  124.1173  100.2689 C   0  0  0  0  0
  132.3997  123.6750   98.8266 C   0  0  0  0  0
  134.4250  122.4660   98.3298 C   0  0  0  0  0
  135.2116  121.3100   98.2362 C   0  0  0  0  0
  136.6057  121.4413   97.7431 C   0  0  0  0  0
  138.8208  120.3717   97.1252 C   0  0  0  0  0
  139.5970  119.1146   97.5455 C   0  0  0  0  0
  139.5705  118.0459   96.4554 C   0  0  0  0  0
  140.2229  118.5530   95.1622 C   0  0  0  0  0
  140.0688  120.0652   94.9486 C   0  0  0  0  0
  138.7955  120.5914   95.6036 C   0  0  0  0  0
  134.6397  120.0757   98.6133 C   0  0  0  0  0
  133.3106  120.0375   99.0628 C   0  0  0  0  0
  132.6998  118.8340   99.4377 C   0  0  0  0  0
  131.3747  118.8273   99.8725 C   0  0  0  0  0
  130.6680  120.0288   99.9276 C   0  0  0  0  0
  129.2550  120.0376  100.3875 C   0  0  0  0  0
  132.5645  121.2339   99.1363 C   0  0  0  0  0
  133.1421  122.4207   98.7777 N   0  0  0  0  0
  137.4600  120.2978   97.6363 N   0  0  0  0  0
  131.2693  121.1921   99.5625 N   0  0  0  0  0
  137.0469  122.5780   97.4171 O   0  0  0  0  0
  135.3083  119.0074   98.5480 O   0  0  0  0  0
  1  2  1  0  0  0
  2  3  1  0  0  0
  3  4  1  0  0  0
  4  5  1  0  0  0
  5  6  1  0  0  0
  6 23  1  0  0  0
  8  9  1  0  0  0
  8 16  1  0  0  0
  9 24  1  0  0  0
 10 24  1  0  0  0
 10 11  1  0  0  0
 11 12  1  0  0  0
 12 13  1  0  0  0
 13 14  1  0  0  0
 14 15  1  0  0  0
 15 10  1  0  0  0
 16 17  1  0  0  0
 18 19  1  0  0  0
 20 25  1  0  0  0
 21 20  1  0  0  0
 22 23  1  0  0  0
 22 17  1  0  0  0
 23  7  1  0  0  0
  7  8  2  0  0  0
  9 26  2  0  0  0
 16 27  2  0  0  0
 17 18  2  0  0  0
 19 20  2  0  0  0
 22 25  2  0  0  0
M  END
> <rmsd>
0.776804745

$$$$
CHEMBL481886_6PT0


 30 33  0  0  0  0  0  0  0  0999 V2000
  137.7798  123.2010   96.6792 O   0  0  0  0  0
  137.2507  122.1082   96.3413 C   0  0  0  0  0
  135.9236  122.1351   95.6536 C   0  0  0  0  0
  133.4446  122.7156   98.1118 C   0  0  0  0  0
  132.7413  123.5760   99.0902 C   0  0  0  0  0
  132.4627  123.0658  100.3676 C   0  0  0  0  0
  131.8172  123.8486  101.3259 C   0  0  0  0  0
  131.4442  125.1570  101.0190 C   0  0  0  0  0
  131.7133  125.6802   99.7533 C   0  0  0  0  0
  132.3615  124.9039   98.7871 C   0  0  0  0  0
  133.4096  121.3304   98.0039 C   0  0  0  0  0
  132.5805  120.3716   98.7540 C   0  0  0  0  0
  133.2206  119.3167   99.4170 C   0  0  0  0  0
  132.4803  118.3831  100.1453 C   0  0  0  0  0
  131.0902  118.4927  100.2098 C   0  0  0  0  0
  130.4389  119.5250   99.5315 C   0  0  0  0  0
  131.1720  120.4646   98.8001 C   0  0  0  0  0
  139.1682  120.8741   97.3876 C   0  0  0  0  0
  139.6775  119.4558   97.6340 C   0  0  0  0  0
  139.6741  118.6682   96.3256 C   0  0  0  0  0
  138.3043  118.6603   95.6284 C   0  0  0  0  0
  137.2793  119.5930   96.2787 C   0  0  0  0  0
  134.8549  122.0894   96.6367 N   0  0  0  0  0
  134.3709  123.1624   97.2423 N   0  0  0  0  0
  134.3157  120.9649   97.0791 N   0  0  0  0  0
  137.9028  120.8655   96.6460 N   0  0  0  0  0
  130.6327  126.1401  102.2179 Cl  0  0  0  0  0
  132.6149  125.6231   97.2031 Cl  0  0  0  0  0
  130.1619  117.3248  101.1241 Cl  0  0  0  0  0
  130.2812  121.6851   97.9015 Cl  0  0  0  0  0
  2 26  1  0  0  0
  3  2  1  0  0  0
  3 23  1  0  0  0
  4  5  1  0  0  0
  4 11  1  0  0  0
  6  7  1  0  0  0
  8 27  1  0  0  0
  8  9  1  0  0  0
 10 28  1  0  0  0
 10  5  1  0  0  0
 11 12  1  0  0  0
 13 14  1  0  0  0
 15 29  1  0  0  0
 15 16  1  0  0  0
 17 30  1  0  0  0
 17 12  1  0  0  0
 18 26  1  0  0  0
 18 19  1  0  0  0
 19 20  1  0  0  0
 20 21  1  0  0  0
 21 22  1  0  0  0
 22 26  1  0  0  0
 23 24  1  0  0  0
 23 25  1  0  0  0
  2  1  2  0  0  0
  4 24  2  0  0  0
  5  6  2  0  0  0
  7  8  2  0  0  0
  9 10  2  0  0  0
 11 25  2  0  0  0
 12 13  2  0  0  0
 14 15  2  0  0  0
 16 17  2  0  0  0
M  END
> <rmsd>
0.717595696

$$$$
CHEMBL1765161_5ZTY


 29 33  0  0  0  0  0  0  0  0999 V2000
  136.4848  123.5941   97.5070 O   0  0  0  0  0
  131.6681  122.4776  101.3843 O   0  0  0  0  0
  136.1621  122.5272   98.0975 C   0  0  0  0  0
  136.8886  121.2844   97.7582 C   0  0  0  0  0
  136.3571  120.0243   98.0712 C   0  0  0  0  0
  137.0501  118.8676   97.7111 C   0  0  0  0  0
  138.2639  118.9736   97.0348 C   0  0  0  0  0
  138.9769  117.8307   96.6634 C   0  0  0  0  0
  140.1912  117.9594   95.9814 C   0  0  0  0  0
  140.6922  119.2285   95.6700 C   0  0  0  0  0
  139.9817  120.3754   96.0397 C   0  0  0  0  0
  138.7681  120.2539   96.7224 C   0  0  0  0  0
  135.1143  121.6517  100.2161 C   0  0  0  0  0
  133.9495  121.9161  101.1713 C   0  0  0  0  0
  132.5888  121.9915  100.4501 C   0  0  0  0  0
  132.1039  120.6285   99.9851 C   0  0  0  0  0
  132.8690  119.4606  100.1612 C   0  0  0  0  0
  132.3911  118.2214   99.7273 C   0  0  0  0  0
  131.1395  118.1314   99.1148 C   0  0  0  0  0
  130.3653  119.2800   98.9378 C   0  0  0  0  0
  130.8438  120.5194   99.3717 C   0  0  0  0  0
  132.6589  122.9403   99.2118 C   0  0  0  0  0
  131.5498  123.9998   99.1260 C   0  0  0  0  0
  131.8618  125.1968  100.0239 C   0  0  0  0  0
  133.2107  125.8038   99.6511 C   0  0  0  0  0
  134.3172  124.7672   99.8129 C   0  0  0  0  0
  134.0390  123.5577   98.9174 C   0  0  0  0  0
  138.0715  121.3637   97.0849 N   0  0  0  0  0
  135.0924  122.5525   99.0594 N   0  0  0  0  0
  3  4  1  0  0  0
  3 29  1  0  0  0
  4 28  1  0  0  0
  5  6  1  0  0  0
  7  8  1  0  0  0
  9 10  1  0  0  0
 11 12  1  0  0  0
 12  7  1  0  0  0
 13 29  1  0  0  0
 13 14  1  0  0  0
 14 15  1  0  0  0
 15  2  1  0  0  0
 15 16  1  0  0  0
 15 22  1  0  0  0
 17 18  1  0  0  0
 19 20  1  0  0  0
 21 16  1  0  0  0
 22 23  1  0  0  0
 23 24  1  0  0  0
 24 25  1  0  0  0
 25 26  1  0  0  0
 27 26  1  0  0  0
 27 29  1  0  0  0
 27 22  1  0  0  0
  3  1  2  0  0  0
  4  5  2  0  0  0
  6  7  2  0  0  0
  8  9  2  0  0  0
 10 11  2  0  0  0
 12 28  2  0  0  0
 16 17  2  0  0  0
 18 19  2  0  0  0
 20 21  2  0  0  0
M  END
> <rmsd>
0.465931088

$$$$
CHEMBL496578_8GUQ


 28 29  0  0  0  0  0  0  0  0999 V2000
  139.4021  120.4535   95.7881 C   0  0  0  0  0
  139.4452  119.9072   97.2037 C   0  0  0  0  0
  138.6338  120.7953   98.1311 C   0  0  0  0  0
  138.9742  120.4653   99.5698 C   0  0  0  0  0
  136.3428  121.6136   97.4614 C   0  0  0  0  0
  134.8819  121.3484   97.3268 C   0  0  0  0  0
  133.7970  122.8509   99.0336 C   0  0  0  0  0
  133.7849  123.9176   98.1193 C   0  0  0  0  0
  133.3775  125.1935   98.5180 C   0  0  0  0  0
  132.9749  125.4261   99.8426 C   0  0  0  0  0
  132.9813  124.3679  100.7561 C   0  0  0  0  0
  133.3887  123.0921  100.3557 C   0  0  0  0  0
  132.5446  127.8389   99.4298 C   0  0  0  0  0
  133.9504  128.3850   99.2592 C   0  0  0  0  0
  132.2753  119.7044   99.6704 C   0  0  0  0  0
  131.8948  118.3801   99.9180 C   0  0  0  0  0
  130.5405  118.0360   99.9666 C   0  0  0  0  0
  129.5627  119.0161   99.7690 C   0  0  0  0  0
  129.9391  120.3399   99.5240 C   0  0  0  0  0
  131.2933  120.6828   99.4750 C   0  0  0  0  0
  137.2119  120.5742   97.9109 N   0  0  0  0  0
  134.2180  121.5347   98.6144 N   0  0  0  0  0
  136.7946  122.7632   97.2118 O   0  0  0  0  0
  132.5608  126.6920  100.2743 O   0  0  0  0  0
  134.4853  120.3992  101.0079 O   0  0  0  0  0
  134.7471  118.9737   99.0398 O   0  0  0  0  0
  133.9783  120.1306   99.6184 S   0  0  0  0  0
  127.7172  118.5484   99.8388 Br  0  0  0  0  0
  1  2  1  0  0  0
  3  2  1  0  0  0
  3  4  1  0  0  0
  3 21  1  0  0  0
  6  5  1  0  0  0
  6 22  1  0  0  0
  8  9  1  0  0  0
 10 11  1  0  0  0
 10 24  1  0  0  0
 12  7  1  0  0  0
 13 24  1  0  0  0
 13 14  1  0  0  0
 16 17  1  0  0  0
 18 19  1  0  0  0
 18 28  1  0  0  0
 20 15  1  0  0  0
 21  5  1  0  0  0
 22  7  1  0  0  0
 27 22  1  0  0  0
 27 15  1  0  0  0
  5 23  2  0  0  0
  7  8  2  0  0  0
  9 10  2  0  0  0
 11 12  2  0  0  0
 15 16  2  0  0  0
 17 18  2  0  0  0
 19 20  2  0  0  0
 27 25  2  0  0  0
 27 26  2  0  0  0
M  END
> <rmsd>
0.607816339

$$$$
CHEMBL1629731_5ZTY


 27 29  0  0  0  0  0  0  0  0999 V2000
  138.3020  121.6318   94.2437 C   0  0  0  0  0
  138.4508  120.1852   94.6880 C   0  0  0  0  0
  138.6478  120.0133   96.1977 C   0  0  0  0  0
  138.9211  118.5453   96.4466 C   0  0  0  0  0
  139.8552  120.7940   96.6996 C   0  0  0  0  0
  136.9520  121.7002   97.1982 C   0  0  0  0  0
  135.6478  121.8705   97.8563 C   0  0  0  0  0
  132.6798  120.5005   99.2176 C   0  0  0  0  0
  131.3900  120.7620   98.7311 C   0  0  0  0  0
  130.3150  119.9504   99.0998 C   0  0  0  0  0
  130.5213  118.8652   99.9534 C   0  0  0  0  0
  131.8023  118.5906  100.4375 C   0  0  0  0  0
  132.8840  119.3975  100.0708 C   0  0  0  0  0
  133.8433  122.6781   98.8023 C   0  0  0  0  0
  132.0881  123.2512  100.4599 C   0  0  0  0  0
  131.3389  124.3600  100.7994 C   0  0  0  0  0
  131.7143  125.3732   99.9332 C   0  0  0  0  0
  132.6781  124.8437   99.0980 C   0  0  0  0  0
  135.0298  123.0624   98.2033 C   0  0  0  0  0
  135.5614  124.4468   98.0384 C   0  0  0  0  0
  137.4364  120.3753   96.9364 N   0  0  0  0  0
  134.8638  120.8354   98.2212 N   0  0  0  0  0
  133.7766  121.3259   98.7988 N   0  0  0  0  0
  132.8875  123.5563   99.4231 N   0  0  0  0  0
  137.6406  122.7085   96.8864 O   0  0  0  0  0
  129.1745  117.8488  100.4177 Cl  0  0  0  0  0
  134.4663  119.0256  100.7362 Cl  0  0  0  0  0
  1  2  1  0  0  0
  2  3  1  0  0  0
  3  4  1  0  0  0
  3  5  1  0  0  0
  3 21  1  0  0  0
  6  7  1  0  0  0
  9 10  1  0  0  0
 11 26  1  0  0  0
 11 12  1  0  0  0
 13 27  1  0  0  0
 13  8  1  0  0  0
 14 24  1  0  0  0
 16 17  1  0  0  0
 18 24  1  0  0  0
 19  7  1  0  0  0
 20 19  1  0  0  0
 21  6  1  0  0  0
 23 22  1  0  0  0
 23  8  1  0  0  0
 23 14  1  0  0  0
 24 15  1  0  0  0
  6 25  2  0  0  0
  7 22  2  0  0  0
  8  9  2  0  0  0
 10 11  2  0  0  0
 12 13  2  0  0  0
 14 19  2  0  0  0
 15 16  2  0  0  0
 17 18  2  0  0  0
M  END
> <rmsd>
0.666656435

$$$$
CHEMBL460754_5ZTY


 25 27  0  0  0  0  0  0  0  0999 V2000
  132.8834  124.0289   99.0552 C   0  0  0  0  0
  133.6996  121.6968   98.8444 C   0  0  0  0  0
  134.9353  122.1321   98.3406 C   0  0  0  0  0
  135.9428  121.2239   97.9984 C   0  0  0  0  0
  137.2450  121.7298   97.4954 C   0  0  0  0  0
  138.2339  120.8789   96.7861 C   0  0  0  0  0
  137.8708  119.6528   96.2060 C   0  0  0  0  0
  138.8138  118.8812   95.5211 C   0  0  0  0  0
  140.1304  119.3315   95.4019 C   0  0  0  0  0
  140.5027  120.5544   95.9649 C   0  0  0  0  0
  139.5584  121.3248   96.6497 C   0  0  0  0  0
  135.7065  119.8580   98.1843 C   0  0  0  0  0
  134.4854  119.3994   98.6801 C   0  0  0  0  0
  133.4631  120.3138   99.0151 C   0  0  0  0  0
  132.1625  119.8292   99.5409 C   0  0  0  0  0
  130.9562  120.3583   99.0561 C   0  0  0  0  0
  129.7316  119.9024   99.5514 C   0  0  0  0  0
  129.7011  118.9119  100.5359 C   0  0  0  0  0
  130.8956  118.3776  101.0250 C   0  0  0  0  0
  132.1201  118.8343  100.5301 C   0  0  0  0  0
  132.7113  122.6251   99.1966 O   0  0  0  0  0
  137.5259  122.9464   97.6801 O   0  0  0  0  0
  134.2950  118.0289   98.8165 O   0  0  0  0  0
  128.2364  120.5732   98.9380 Cl  0  0  0  0  0
  130.8589  117.1363  102.2577 Cl  0  0  0  0  0
  1 21  1  0  0  0
  2 21  1  0  0  0
  3  4  1  0  0  0
  4  5  1  0  0  0
  5  6  1  0  0  0
  7  8  1  0  0  0
  9 10  1  0  0  0
 11  6  1  0  0  0
 12 13  1  0  0  0
 13 23  1  0  0  0
 14 15  1  0  0  0
 14  2  1  0  0  0
 16 17  1  0  0  0
 17 24  1  0  0  0
 18 19  1  0  0  0
 19 25  1  0  0  0
 20 15  1  0  0  0
  2  3  2  0  0  0
  4 12  2  0  0  0
  5 22  2  0  0  0
  6  7  2  0  0  0
  8  9  2  0  0  0
 10 11  2  0  0  0
 13 14  2  0  0  0
 15 16  2  0  0  0
 17 18  2  0  0  0
 19 20  2  0  0  0
M  END
> <rmsd>
0.798444867

$$$$
CHEMBL3354395_6PT0


 31 35  0  0  0  0  0  0  0  0999 V2000
  132.5130  125.9632  100.2607 C   0  0  0  0  0
  132.3413  124.8539  101.3083 C   0  0  0  0  0
  133.2226  123.6485  100.9969 C   0  0  0  0  0
  132.8439  123.0304   99.6433 C   0  0  0  0  0
  132.3682  124.0588   98.6035 C   0  0  0  0  0
  132.9408  125.4471   98.8803 C   0  0  0  0  0
  133.9771  122.2117   99.1069 C   0  0  0  0  0
  132.7717  119.9855   99.1753 C   0  0  0  0  0
  131.5304  120.3469   99.7046 C   0  0  0  0  0
  130.5700  119.3357   99.8890 C   0  0  0  0  0
  130.8573  117.9962   99.5477 C   0  0  0  0  0
  132.1098  117.6437   99.0160 C   0  0  0  0  0
  133.0390  118.6651   98.8454 C   0  0  0  0  0
  134.3197  118.6610   98.3637 C   0  0  0  0  0
  134.7763  119.9436   98.4157 C   0  0  0  0  0
  136.8108  119.2426   97.5197 C   0  0  0  0  0
  137.8824  119.9337   95.2591 C   0  0  0  0  0
  138.8637  120.7955   94.5320 C   0  0  0  0  0
  139.6485  120.2115   93.5316 C   0  0  0  0  0
  140.5714  120.9806   92.8183 C   0  0  0  0  0
  140.7107  122.3419   93.0979 C   0  0  0  0  0
  139.9240  122.9362   94.0878 C   0  0  0  0  0
  138.9975  122.1733   94.8068 C   0  0  0  0  0
  138.1893  122.8280   95.8043 C   0  0  0  0  0
  135.0641  122.7848   98.8212 O   0  0  0  0  0
  133.8418  120.7900   98.9134 N   0  0  0  0  0
  136.0257  120.2550   97.9964 N   0  0  0  0  0
  136.3310  117.9566   97.4774 N   0  0  0  0  0
  135.0936  117.6583   97.8947 N   0  0  0  0  0
  137.5399  123.3528   96.6057 N   0  0  0  0  0
  138.4645  119.5976   96.9489 S   0  0  0  0  0
  1  2  1  0  0  0
  2  3  1  0  0  0
  3  4  1  0  0  0
  4  5  1  0  0  0
  4  7  1  0  0  0
  5  6  1  0  0  0
  6  1  1  0  0  0
  7 26  1  0  0  0
  9 10  1  0  0  0
 11 12  1  0  0  0
 13 14  1  0  0  0
 13  8  1  0  0  0
 14 29  1  0  0  0
 15 27  1  0  0  0
 15 26  1  0  0  0
 16 28  1  0  0  0
 16 31  1  0  0  0
 17 31  1  0  0  0
 17 18  1  0  0  0
 19 20  1  0  0  0
 21 22  1  0  0  0
 23 24  1  0  0  0
 23 18  1  0  0  0
 26  8  1  0  0  0
  7 25  2  0  0  0
  8  9  2  0  0  0
 10 11  2  0  0  0
 12 13  2  0  0  0
 14 15  2  0  0  0
 16 27  2  0  0  0
 18 19  2  0  0  0
 20 21  2  0  0  0
 22 23  2  0  0  0
 28 29  2  0  0  0
 24 30  3  0  0  0
M  END
> <rmsd>
0.646217763

$$$$
CHEMBL4779298_8GUT


 26 28  0  0  0  0  0  0  0  0999 V2000
  134.0011  124.3698   98.5441 C   0  0  0  0  0
  133.3770  123.5994   99.5212 C   0  0  0  0  0
  133.1664  121.5354  100.8342 C   0  0  0  0  0
  132.1479  120.6410  100.2060 C   0  0  0  0  0
  132.4965  119.3392   99.8291 C   0  0  0  0  0
  131.5497  118.5072   99.2239 C   0  0  0  0  0
  130.2534  118.9767   98.9919 C   0  0  0  0  0
  129.9041  120.2786   99.3636 C   0  0  0  0  0
  130.8509  121.1104   99.9687 C   0  0  0  0  0
  134.9409  121.8313   99.1671 C   0  0  0  0  0
  135.5949  122.5866   98.1656 C   0  0  0  0  0
  135.1036  123.8609   97.8697 C   0  0  0  0  0
  136.7774  122.0924   97.4152 C   0  0  0  0  0
  138.4774  120.2682   96.9590 C   0  0  0  0  0
  138.5068  118.7397   97.0735 C   0  0  0  0  0
  139.5889  118.0556   96.2216 C   0  0  0  0  0
  140.0987  118.9287   95.0704 C   0  0  0  0  0
  141.0871  120.0186   95.5196 C   0  0  0  0  0
  141.0566  120.3256   97.0213 C   0  0  0  0  0
  139.7421  120.9501   97.4978 C   0  0  0  0  0
  132.2038  124.1903  100.2336 C   0  0  0  0  0
  133.8447  122.3443   99.8164 N   0  0  0  0  0
  137.3049  120.7825   97.6498 N   0  0  0  0  0
  129.3363  118.1708   98.4056 F   0  0  0  0  0
  135.3663  120.6825   99.4718 O   0  0  0  0  0
  137.3221  122.8348   96.5521 O   0  0  0  0  0
  2 22  1  0  0  0
  3 22  1  0  0  0
  3  4  1  0  0  0
  5  6  1  0  0  0
  7  8  1  0  0  0
  7 24  1  0  0  0
  9  4  1  0  0  0
 10 11  1  0  0  0
 11 13  1  0  0  0
 12  1  1  0  0  0
 13 23  1  0  0  0
 14 23  1  0  0  0
 14 15  1  0  0  0
 15 16  1  0  0  0
 16 17  1  0  0  0
 17 18  1  0  0  0
 18 19  1  0  0  0
 19 20  1  0  0  0
 20 14  1  0  0  0
 21  2  1  0  0  0
 22 10  1  0  0  0
  1  2  2  0  0  0
  4  5  2  0  0  0
  6  7  2  0  0  0
  8  9  2  0  0  0
 10 25  2  0  0  0
 11 12  2  0  0  0
 13 26  2  0  0  0
M  END
> <rmsd>
0.75810039

$$$$
CHEMBL2163949_6PT0


 29 33  0  0  0  0  0  0  0  0999 V2000
  137.2300  123.0938   96.9739 O   0  0  0  0  0
  135.3129  124.8141   97.5335 O   0  0  0  0  0
  131.5956  122.7829  101.7515 O   0  0  0  0  0
  136.6815  122.3118   97.7978 C   0  0  0  0  0
  138.4100  120.5245   97.3036 C   0  0  0  0  0
  138.0427  120.1880   95.8583 C   0  0  0  0  0
  139.2741  119.7390   95.0599 C   0  0  0  0  0
  140.3435  119.0489   95.9179 C   0  0  0  0  0
  139.7177  118.3225   97.1051 C   0  0  0  0  0
  138.9810  119.2997   98.0316 C   0  0  0  0  0
  135.4668  122.7254   98.5410 C   0  0  0  0  0
  134.9004  121.8238   99.4511 C   0  0  0  0  0
  133.1895  123.3627  100.0247 C   0  0  0  0  0
  132.0596  123.6868  100.7953 C   0  0  0  0  0
  131.4075  124.9076  100.6087 C   0  0  0  0  0
  131.8968  125.8268   99.6773 C   0  0  0  0  0
  133.0404  125.5289   98.9309 C   0  0  0  0  0
  133.6975  124.3002   99.0988 C   0  0  0  0  0
  134.8460  123.9798   98.3579 C   0  0  0  0  0
  132.4216  121.7105  102.2008 C   0  0  0  0  0
  133.2091  121.1011  101.0336 C   0  0  0  0  0
  132.3706  120.1425  100.2397 C   0  0  0  0  0
  132.7411  118.7942  100.1914 C   0  0  0  0  0
  131.9857  117.8830   99.4472 C   0  0  0  0  0
  130.8575  118.3180   98.7456 C   0  0  0  0  0
  130.4847  119.6646   98.7869 C   0  0  0  0  0
  131.2396  120.5758   99.5308 C   0  0  0  0  0
  137.2416  121.0127   98.0200 N   0  0  0  0  0
  133.7888  122.1397  100.1692 N   0  0  0  0  0
  4 28  1  0  0  0
  4 11  1  0  0  0
  5 28  1  0  0  0
  5  6  1  0  0  0
  6  7  1  0  0  0
  7  8  1  0  0  0
  8  9  1  0  0  0
  9 10  1  0  0  0
 10  5  1  0  0  0
 12 29  1  0  0  0
 14 15  1  0  0  0
 14  3  1  0  0  0
 16 17  1  0  0  0
 18 19  1  0  0  0
 18 13  1  0  0  0
 19 11  1  0  0  0
 20  3  1  0  0  0
 20 21  1  0  0  0
 21 22  1  0  0  0
 21 29  1  0  0  0
 23 24  1  0  0  0
 25 26  1  0  0  0
 27 22  1  0  0  0
 29 13  1  0  0  0
  4  1  2  0  0  0
 11 12  2  0  0  0
 13 14  2  0  0  0
 15 16  2  0  0  0
 17 18  2  0  0  0
 19  2  2  0  0  0
 22 23  2  0  0  0
 24 25  2  0  0  0
 26 27  2  0  0  0
M  END
> <rmsd>
0.302442312

$$$$
CHEMBL3354399_6PT0


 32 36  0  0  0  0  0  0  0  0999 V2000
  129.9961  118.8351   99.5889 C   0  0  0  0  0
  130.4315  119.8375   98.7184 C   0  0  0  0  0
  131.7618  120.2647   98.7544 C   0  0  0  0  0
  132.6656  119.7000   99.6665 C   0  0  0  0  0
  132.2223  118.6857  100.5283 C   0  0  0  0  0
  130.8919  118.2577  100.4926 C   0  0  0  0  0
  134.0797  120.1269   99.6912 C   0  0  0  0  0
  133.9356  122.6023   99.2222 C   0  0  0  0  0
  132.7992  122.9587   99.9513 C   0  0  0  0  0
  132.4201  124.3135   99.9587 C   0  0  0  0  0
  133.1781  125.2798   99.2611 C   0  0  0  0  0
  134.3326  124.9105   98.5486 C   0  0  0  0  0
  134.6795  123.5634   98.5544 C   0  0  0  0  0
  135.7441  122.8905   98.0151 C   0  0  0  0  0
  135.6170  121.5810   98.3696 C   0  0  0  0  0
  137.5975  121.0928   97.2456 C   0  0  0  0  0
  137.9099  119.4572   95.2064 C   0  0  0  0  0
  138.0166  120.5112   94.1497 C   0  0  0  0  0
  136.8702  121.2680   93.8803 C   0  0  0  0  0
  136.9055  122.3061   92.9488 C   0  0  0  0  0
  138.0918  122.5977   92.2768 C   0  0  0  0  0
  139.2385  121.8417   92.5258 C   0  0  0  0  0
  139.2190  120.7836   93.4497 C   0  0  0  0  0
  134.9436  119.3711  100.2139 O   0  0  0  0  0
  141.5205  120.4626   93.2880 O   0  0  0  0  0
  140.3470  118.6979   94.0663 O   0  0  0  0  0
  134.5004  121.3691   99.1029 N   0  0  0  0  0
  136.5366  120.6617   97.9924 N   0  0  0  0  0
  137.7125  122.4195   96.9077 N   0  0  0  0  0
  136.7970  123.3206   97.2872 N   0  0  0  0  0
  140.4144  120.0055   93.6440 N   0  0  0  0  0
  138.8394  119.9256   96.7047 S   0  0  0  0  0
  2  3  1  0  0  0
  4  5  1  0  0  0
  4  7  1  0  0  0
  6  1  1  0  0  0
  7 27  1  0  0  0
  9 10  1  0  0  0
 11 12  1  0  0  0
 13 14  1  0  0  0
 13  8  1  0  0  0
 14 30  1  0  0  0
 15 28  1  0  0  0
 15 27  1  0  0  0
 16 29  1  0  0  0
 16 32  1  0  0  0
 17 32  1  0  0  0
 17 18  1  0  0  0
 19 20  1  0  0  0
 21 22  1  0  0  0
 23 31  1  0  0  0
 23 18  1  0  0  0
 27  8  1  0  0  0
 31 26  1  0  0  0
  1  2  2  0  0  0
  3  4  2  0  0  0
  5  6  2  0  0  0
  7 24  2  0  0  0
  8  9  2  0  0  0
 10 11  2  0  0  0
 12 13  2  0  0  0
 14 15  2  0  0  0
 16 28  2  0  0  0
 18 19  2  0  0  0
 20 21  2  0  0  0
 22 23  2  0  0  0
 29 30  2  0  0  0
 31 25  2  0  0  0
M  CHG  2  31   1  26  -1
M  END
> <rmsd>
0.550343156

$$$$
CHEMBL526153_5ZTY


 29 33  0  0  0  0  0  0  0  0999 V2000
  132.3965  126.6273   99.4265 C   0  0  0  0  0
  132.2152  125.6575  100.3197 C   0  0  0  0  0
  132.8815  124.3316  100.1553 C   0  0  0  0  0
  132.2298  123.5455   99.0264 C   0  0  0  0  0
  134.1472  122.2372   98.3470 C   0  0  0  0  0
  134.8432  121.0409   98.1351 C   0  0  0  0  0
  136.2178  121.1123   97.5789 C   0  0  0  0  0
  138.3329  119.8869   96.7961 C   0  0  0  0  0
  138.7927  118.4227   96.6911 C   0  0  0  0  0
  140.2195  118.3536   96.1219 C   0  0  0  0  0
  140.2402  118.9988   94.7269 C   0  0  0  0  0
  139.7895  120.4654   94.8202 C   0  0  0  0  0
  140.7398  121.2297   95.7570 C   0  0  0  0  0
  140.7274  120.5922   97.1562 C   0  0  0  0  0
  141.1725  119.1249   97.0492 C   0  0  0  0  0
  139.3008  120.6455   97.7252 C   0  0  0  0  0
  138.3636  120.5187   95.3908 C   0  0  0  0  0
  134.2041  119.8257   98.4591 C   0  0  0  0  0
  132.8993  119.8437   98.9774 C   0  0  0  0  0
  132.2382  118.6493   99.3038 C   0  0  0  0  0
  130.9403  118.6758   99.8168 C   0  0  0  0  0
  130.2894  119.8950  100.0090 C   0  0  0  0  0
  130.9353  121.0906   99.6890 C   0  0  0  0  0
  132.2429  121.0832   99.1711 C   0  0  0  0  0
  132.8859  122.2510   98.8585 N   0  0  0  0  0
  136.9781  119.9196   97.3383 N   0  0  0  0  0
  136.7234  122.2381   97.3147 O   0  0  0  0  0
  134.7924  118.7225   98.2865 O   0  0  0  0  0
  130.0573  117.0456  100.2546 Br  0  0  0  0  0
  3  2  1  0  0  0
  3  4  1  0  0  0
  4 25  1  0  0  0
  6  7  1  0  0  0
  6 18  1  0  0  0
  7 26  1  0  0  0
  8 26  1  0  0  0
  8  9  1  0  0  0
 10  9  1  0  0  0
 10 11  1  0  0  0
 12 11  1  0  0  0
 12 13  1  0  0  0
 12 17  1  0  0  0
 14 13  1  0  0  0
 14 15  1  0  0  0
 14 16  1  0  0  0
 15 10  1  0  0  0
 16  8  1  0  0  0
 17  8  1  0  0  0
 18 19  1  0  0  0
 20 21  1  0  0  0
 21 29  1  0  0  0
 22 23  1  0  0  0
 24 25  1  0  0  0
 24 19  1  0  0  0
 25  5  1  0  0  0
  1  2  2  0  0  0
  5  6  2  0  0  0
  7 27  2  0  0  0
 18 28  2  0  0  0
 19 20  2  0  0  0
 21 22  2  0  0  0
 23 24  2  0  0  0
M  END
> <rmsd>
0.728522062

$$$$
CHEMBL456535_5ZTY


 27 30  0  0  0  0  0  0  0  0999 V2000
  137.1266  122.7816   96.7942 O   0  0  0  0  0
  134.8656  120.8472   97.6487 O   0  0  0  0  0
  137.6074  121.9186   97.5786 C   0  0  0  0  0
  135.0338  122.7971   99.0961 C   0  0  0  0  0
  134.3517  121.8569   98.1992 C   0  0  0  0  0
  131.9098  121.3343   97.5842 C   0  0  0  0  0
  131.5036  120.3279   98.6073 C   0  0  0  0  0
  132.1653  119.0970   98.6805 C   0  0  0  0  0
  131.8025  118.1641   99.6567 C   0  0  0  0  0
  130.7809  118.4627  100.5637 C   0  0  0  0  0
  130.1231  119.6947  100.4955 C   0  0  0  0  0
  130.4858  120.6277   99.5195 C   0  0  0  0  0
  132.7935  123.3000   98.9923 C   0  0  0  0  0
  133.9850  123.6805   99.5843 C   0  0  0  0  0
  134.0475  124.7298  100.4993 C   0  0  0  0  0
  132.8540  125.4041  100.8068 C   0  0  0  0  0
  131.6376  125.0190  100.2068 C   0  0  0  0  0
  131.5978  123.9547   99.2902 C   0  0  0  0  0
  138.5418  120.8995   97.0706 C   0  0  0  0  0
  138.8979  120.8759   95.7138 C   0  0  0  0  0
  139.7824  119.9063   95.2319 C   0  0  0  0  0
  140.3166  118.9531   96.1031 C   0  0  0  0  0
  139.9666  118.9691   97.4559 C   0  0  0  0  0
  139.0821  119.9387   97.9377 C   0  0  0  0  0
  137.2545  121.9405   98.9669 N   0  0  0  0  0
  136.2736  122.8014   99.4865 N   0  0  0  0  0
  132.9662  122.1926   98.1063 N   0  0  0  0  0
  3 25  1  0  0  0
  3 19  1  0  0  0
  4  5  1  0  0  0
  5 27  1  0  0  0
  6 27  1  0  0  0
  6  7  1  0  0  0
  8  9  1  0  0  0
 10 11  1  0  0  0
 12  7  1  0  0  0
 14 15  1  0  0  0
 14  4  1  0  0  0
 16 17  1  0  0  0
 18 13  1  0  0  0
 20 21  1  0  0  0
 22 23  1  0  0  0
 24 19  1  0  0  0
 25 26  1  0  0  0
 27 13  1  0  0  0
  3  1  2  0  0  0
  4 26  2  0  0  0
  5  2  2  0  0  0
  7  8  2  0  0  0
  9 10  2  0  0  0
 11 12  2  0  0  0
 13 14  2  0  0  0
 15 16  2  0  0  0
 17 18  2  0  0  0
 19 20  2  0  0  0
 21 22  2  0  0  0
 23 24  2  0  0  0
M  END
> <rmsd>
0.444151342

$$$$
CHEMBL498297_5ZTY


 30 34  0  0  0  0  0  0  0  0999 V2000
  132.9506  126.8973  100.5860 C   0  0  0  0  0
  133.7225  125.6992  100.0662 C   0  0  0  0  0
  133.1909  124.4156  100.6855 C   0  0  0  0  0
  131.8473  124.0220  100.0840 C   0  0  0  0  0
  132.0049  123.5144   98.6534 C   0  0  0  0  0
  133.9727  122.2300   98.1398 C   0  0  0  0  0
  134.7311  121.0559   98.0597 C   0  0  0  0  0
  136.1140  121.1435   97.5271 C   0  0  0  0  0
  138.3053  119.9581   96.9100 C   0  0  0  0  0
  139.2111  120.8497   97.7816 C   0  0  0  0  0
  140.6527  120.8151   97.2505 C   0  0  0  0  0
  141.1711  119.3688   97.2944 C   0  0  0  0  0
  140.2807  118.4655   96.4261 C   0  0  0  0  0
  140.3057  118.9752   94.9762 C   0  0  0  0  0
  139.7821  120.4192   94.9184 C   0  0  0  0  0
  140.6700  121.3164   95.7968 C   0  0  0  0  0
  138.3413  120.4541   95.4513 C   0  0  0  0  0
  138.8381  118.5158   96.9560 C   0  0  0  0  0
  134.1448  119.8470   98.4894 C   0  0  0  0  0
  132.8271  119.8478   98.9743 C   0  0  0  0  0
  132.2152  118.6571   99.3962 C   0  0  0  0  0
  130.9015  118.6647   99.8677 C   0  0  0  0  0
  130.1847  119.8606   99.9202 C   0  0  0  0  0
  130.7816  121.0523   99.5049 C   0  0  0  0  0
  132.1061  121.0650   99.0321 C   0  0  0  0  0
  132.7022  122.2298   98.6238 N   0  0  0  0  0
  136.9369  119.9734   97.4183 N   0  0  0  0  0
  136.5708  122.2631   97.1658 O   0  0  0  0  0
  134.7912  118.7641   98.4393 O   0  0  0  0  0
  130.0855  117.0398  100.4361 Br  0  0  0  0  0
  1  2  1  0  0  0
  2  3  1  0  0  0
  3  4  1  0  0  0
  4  5  1  0  0  0
  5 26  1  0  0  0
  7  8  1  0  0  0
  7 19  1  0  0  0
  8 27  1  0  0  0
  9 27  1  0  0  0
  9 10  1  0  0  0
 11 10  1  0  0  0
 11 12  1  0  0  0
 13 12  1  0  0  0
 13 14  1  0  0  0
 13 18  1  0  0  0
 15 14  1  0  0  0
 15 16  1  0  0  0
 15 17  1  0  0  0
 16 11  1  0  0  0
 17  9  1  0  0  0
 18  9  1  0  0  0
 19 20  1  0  0  0
 21 22  1  0  0  0
 22 30  1  0  0  0
 23 24  1  0  0  0
 25 26  1  0  0  0
 25 20  1  0  0  0
 26  6  1  0  0  0
  6  7  2  0  0  0
  8 28  2  0  0  0
 19 29  2  0  0  0
 20 21  2  0  0  0
 22 23  2  0  0  0
 24 25  2  0  0  0
M  END
> <rmsd>
0.687435031

$$$$
CHEMBL199102_8GUT


 34 36  0  0  0  0  0  0  0  0999 V2000
  129.2931  119.3463  102.1288 C   0  0  0  0  0
  130.4074  118.4338  101.6499 C   0  0  0  0  0
  130.4473  115.5085  102.9170 C   0  0  0  0  0
  131.0797  119.0076  100.4418 C   0  0  0  0  0
  131.0217  118.3085   99.2311 C   0  0  0  0  0
  131.6518  118.8200   98.0929 C   0  0  0  0  0
  132.3419  120.0350   98.1592 C   0  0  0  0  0
  133.0313  120.5650   96.9446 C   0  0  0  0  0
  134.5027  120.2767   96.9791 C   0  0  0  0  0
  134.9325  118.9435   96.9463 C   0  0  0  0  0
  136.2934  118.6360   96.9788 C   0  0  0  0  0
  137.2467  119.6580   97.0516 C   0  0  0  0  0
  138.7115  119.3312   97.0367 C   0  0  0  0  0
  136.8212  120.9921   97.0476 C   0  0  0  0  0
  135.4592  121.3138   97.0151 C   0  0  0  0  0
  134.1882  123.4468   98.4998 C   0  0  0  0  0
  132.9083  124.0130   98.4584 C   0  0  0  0  0
  132.2503  124.3549   99.6428 C   0  0  0  0  0
  132.8701  124.1331  100.8753 C   0  0  0  0  0
  134.1489  123.5714  100.9231 C   0  0  0  0  0
  134.8109  123.2291   99.7400 C   0  0  0  0  0
  132.4060  120.7327   99.3696 C   0  0  0  0  0
  131.7767  120.2233  100.5080 C   0  0  0  0  0
  131.3708  118.2299  102.7230 N   0  0  0  0  0
  131.8610  116.5676  102.7046 S   0  0  0  0  0
  134.9973  123.0170   96.9988 S   0  0  0  0  0
  132.8255  116.3272  103.8306 O   0  0  0  0  0
  132.5358  116.2472  101.4002 O   0  0  0  0  0
  134.0870  123.2668   95.8285 O   0  0  0  0  0
  136.2190  123.8793   96.8436 O   0  0  0  0  0
  138.9396  118.1071   97.6414 F   0  0  0  0  0
  139.1544  119.2782   95.7284 F   0  0  0  0  0
  139.4287  120.2997   97.7179 F   0  0  0  0  0
  136.0518  122.6863   99.8078 F   0  0  0  0  0
  2  1  1  0  0  0
  2 24  1  0  0  0
  2  4  1  0  0  0
  5  6  1  0  0  0
  7 22  1  0  0  0
  8  7  1  0  0  0
  8  9  1  0  0  0
 10 11  1  0  0  0
 12 14  1  0  0  0
 13 12  1  0  0  0
 13 31  1  0  0  0
 13 32  1  0  0  0
 13 33  1  0  0  0
 15  9  1  0  0  0
 17 18  1  0  0  0
 19 20  1  0  0  0
 21 34  1  0  0  0
 21 16  1  0  0  0
 23  4  1  0  0  0
 25 24  1  0  0  0
 25  3  1  0  0  0
 26 15  1  0  0  0
 26 16  1  0  0  0
  4  5  2  0  0  0
  6  7  2  0  0  0
  9 10  2  0  0  0
 11 12  2  0  0  0
 14 15  2  0  0  0
 16 17  2  0  0  0
 18 19  2  0  0  0
 20 21  2  0  0  0
 22 23  2  0  0  0
 25 27  2  0  0  0
 25 28  2  0  0  0
 26 29  2  0  0  0
 26 30  2  0  0  0
M  END
> <rmsd>
0.737247288

$$$$
CHEMBL385940_6PT0


 28 31  0  0  0  0  0  0  0  0999 V2000
  134.1169  127.3310  100.2940 C   0  0  0  0  0
  133.3478  126.0819  100.6681 C   0  0  0  0  0
  133.1770  125.2096   99.4429 C   0  0  0  0  0
  132.4148  123.9540   99.8186 C   0  0  0  0  0
  132.2554  123.0451   98.6091 C   0  0  0  0  0
  134.6152  122.8086   97.8853 C   0  0  0  0  0
  135.5387  121.7927   97.7360 C   0  0  0  0  0
  136.9270  121.9724   97.2629 C   0  0  0  0  0
  137.8217  120.8183   96.9796 C   0  0  0  0  0
  137.2682  119.6523   96.4273 C   0  0  0  0  0
  138.0660  118.5511   96.1143 C   0  0  0  0  0
  139.4398  118.5947   96.3449 C   0  0  0  0  0
  140.0215  119.7391   96.8908 C   0  0  0  0  0
  141.3995  119.7655   97.1236 C   0  0  0  0  0
  141.9954  120.8986   97.6813 C   0  0  0  0  0
  141.2155  122.0089   98.0112 C   0  0  0  0  0
  139.8376  121.9910   97.7810 C   0  0  0  0  0
  139.2195  120.8643   97.2133 C   0  0  0  0  0
  134.9506  120.6042   98.1359 C   0  0  0  0  0
  133.6621  120.9479   98.5130 C   0  0  0  0  0
  132.6609  119.9701   99.0106 C   0  0  0  0  0
  132.9928  118.6069   99.0760 C   0  0  0  0  0
  132.0679  117.6691   99.5439 C   0  0  0  0  0
  130.7990  118.0848   99.9531 C   0  0  0  0  0
  130.4562  119.4373   99.8943 C   0  0  0  0  0
  131.3828  120.3731   99.4261 C   0  0  0  0  0
  133.4747  122.2814   98.3653 N   0  0  0  0  0
  137.3542  123.1455   97.0855 O   0  0  0  0  0
  1  2  1  0  0  0
  2  3  1  0  0  0
  3  4  1  0  0  0
  4  5  1  0  0  0
  5 27  1  0  0  0
  7  8  1  0  0  0
  7 19  1  0  0  0
  8  9  1  0  0  0
 10 11  1  0  0  0
 12 13  1  0  0  0
 14 15  1  0  0  0
 16 17  1  0  0  0
 18  9  1  0  0  0
 18 13  1  0  0  0
 20 21  1  0  0  0
 20 27  1  0  0  0
 22 23  1  0  0  0
 24 25  1  0  0  0
 26 21  1  0  0  0
 27  6  1  0  0  0
  6  7  2  0  0  0
  8 28  2  0  0  0
  9 10  2  0  0  0
 11 12  2  0  0  0
 13 14  2  0  0  0
 15 16  2  0  0  0
 17 18  2  0  0  0
 19 20  2  0  0  0
 21 22  2  0  0  0
 23 24  2  0  0  0
 25 26  2  0  0  0
M  END
> <rmsd>
0.41543901

$$$$
CHEMBL393792_5ZTY


 29 33  0  0  0  0  0  0  0  0999 V2000
  135.6832  125.4137  100.2572 C   0  0  0  0  0
  134.2923  125.2491   99.6827 C   0  0  0  0  0
  133.5653  124.1466  100.4291 C   0  0  0  0  0
  132.1808  123.9243   99.8388 C   0  0  0  0  0
  132.2598  123.2502   98.4715 C   0  0  0  0  0
  134.0271  121.6492   98.1517 C   0  0  0  0  0
  134.5984  120.3739   98.2173 C   0  0  0  0  0
  136.8732  121.0988   97.2660 C   0  0  0  0  0
  138.2410  120.6511   96.8256 C   0  0  0  0  0
  138.1464  119.3073   96.0737 C   0  0  0  0  0
  139.5456  118.8306   95.6530 C   0  0  0  0  0
  140.4204  118.6606   96.9052 C   0  0  0  0  0
  140.5367  119.9997   97.6508 C   0  0  0  0  0
  141.1660  121.0469   96.7181 C   0  0  0  0  0
  140.2940  121.2263   95.4651 C   0  0  0  0  0
  140.1810  119.8818   94.7296 C   0  0  0  0  0
  138.8912  121.6910   95.8868 C   0  0  0  0  0
  139.1342  120.4705   98.0668 C   0  0  0  0  0
  133.8371  119.3172   98.7312 C   0  0  0  0  0
  132.5245  119.5518   99.1684 C   0  0  0  0  0
  131.7369  118.5091   99.6794 C   0  0  0  0  0
  130.4292  118.7535  100.1033 C   0  0  0  0  0
  129.8960  120.0405  100.0195 C   0  0  0  0  0
  130.6697  121.0873   99.5138 C   0  0  0  0  0
  131.9899  120.8614   99.0859 C   0  0  0  0  0
  132.7598  121.8815   98.5876 N   0  0  0  0  0
  135.9393  120.1280   97.7650 N   0  0  0  0  0
  136.5813  122.3265   97.2668 O   0  0  0  0  0
  134.3349  118.1591   98.7966 O   0  0  0  0  0
  1  2  1  0  0  0
  2  3  1  0  0  0
  3  4  1  0  0  0
  4  5  1  0  0  0
  5 26  1  0  0  0
  7 27  1  0  0  0
  7 19  1  0  0  0
  9  8  1  0  0  0
  9 10  1  0  0  0
 11 10  1  0  0  0
 11 12  1  0  0  0
 13 12  1  0  0  0
 13 14  1  0  0  0
 13 18  1  0  0  0
 15 14  1  0  0  0
 15 16  1  0  0  0
 15 17  1  0  0  0
 16 11  1  0  0  0
 17  9  1  0  0  0
 18  9  1  0  0  0
 19 20  1  0  0  0
 21 22  1  0  0  0
 23 24  1  0  0  0
 25 26  1  0  0  0
 25 20  1  0  0  0
 26  6  1  0  0  0
 27  8  1  0  0  0
  6  7  2  0  0  0
  8 28  2  0  0  0
 19 29  2  0  0  0
 20 21  2  0  0  0
 22 23  2  0  0  0
 24 25  2  0  0  0
M  END
> <rmsd>
0.709147453

$$$$
CHEMBL238047_5ZTY


 34 39  0  0  0  0  0  0  0  0999 V2000
  141.9481  121.2654   97.1100 C   0  0  0  0  0
  140.7069  120.4576   96.7972 C   0  0  0  0  0
  140.4478  120.4733   95.2818 C   0  0  0  0  0
  139.1911  119.6498   94.9542 C   0  0  0  0  0
  139.3941  118.2030   95.4323 C   0  0  0  0  0
  139.6446  118.1832   96.9486 C   0  0  0  0  0
  139.8400  116.7562   97.4139 C   0  0  0  0  0
  140.9028  119.0069   97.2650 C   0  0  0  0  0
  138.4369  118.8019   97.6714 C   0  0  0  0  0
  138.2281  120.2533   97.2064 C   0  0  0  0  0
  136.5793  122.1486   97.7319 C   0  0  0  0  0
  135.3945  122.5956   98.5034 C   0  0  0  0  0
  134.8011  121.6968   99.3964 C   0  0  0  0  0
  133.1528  121.0216  101.0242 C   0  0  0  0  0
  132.2139  120.1301  100.2810 C   0  0  0  0  0
  132.6966  118.9815   99.6435 C   0  0  0  0  0
  131.8226  118.1595   98.9258 C   0  0  0  0  0
  130.4659  118.4872   98.8409 C   0  0  0  0  0
  129.9835  119.6381   99.4715 C   0  0  0  0  0
  130.8573  120.4603  100.1893 C   0  0  0  0  0
  133.1505  123.2835  100.0264 C   0  0  0  0  0
  132.0257  123.6432  100.7901 C   0  0  0  0  0
  131.4632  124.9158  100.6739 C   0  0  0  0  0
  132.0170  125.8473   99.7947 C   0  0  0  0  0
  133.1350  125.5085   99.0302 C   0  0  0  0  0
  133.7105  124.2328   99.1374 C   0  0  0  0  0
  134.8363  123.8839   98.3741 C   0  0  0  0  0
  137.9826  120.2565   95.6847 C   0  0  0  0  0
  139.4985  121.0647   97.5266 C   0  0  0  0  0
  137.0773  120.8140   97.9076 N   0  0  0  0  0
  133.7093  122.0373  100.1331 N   0  0  0  0  0
  137.1518  122.9294   96.9236 O   0  0  0  0  0
  135.3397  124.7251   97.5786 O   0  0  0  0  0
  129.6194  117.6908   98.1454 F   0  0  0  0  0
  2  1  1  0  0  0
  2  3  1  0  0  0
  4  3  1  0  0  0
  4  5  1  0  0  0
  5  6  1  0  0  0
  6  7  1  0  0  0
  6  8  1  0  0  0
  6  9  1  0  0  0
  8  2  1  0  0  0
  9 10  1  0  0  0
 10 30  1  0  0  0
 10 28  1  0  0  0
 10 29  1  0  0  0
 11 12  1  0  0  0
 13 31  1  0  0  0
 14 31  1  0  0  0
 14 15  1  0  0  0
 16 17  1  0  0  0
 18 34  1  0  0  0
 18 19  1  0  0  0
 20 15  1  0  0  0
 22 23  1  0  0  0
 24 25  1  0  0  0
 26 27  1  0  0  0
 26 21  1  0  0  0
 27 12  1  0  0  0
 28  4  1  0  0  0
 29  2  1  0  0  0
 30 11  1  0  0  0
 31 21  1  0  0  0
 11 32  2  0  0  0
 12 13  2  0  0  0
 15 16  2  0  0  0
 17 18  2  0  0  0
 19 20  2  0  0  0
 21 22  2  0  0  0
 23 24  2  0  0  0
 25 26  2  0  0  0
 27 33  2  0  0  0
M  END
> <rmsd>
0.356123984

$$$$
CHEMBL235487_5ZTY


 30 34  0  0  0  0  0  0  0  0999 V2000
  131.9332  127.0981   99.6044 C   0  0  0  0  0
  132.9675  125.9928   99.5066 C   0  0  0  0  0
  132.4973  124.7572  100.2588 C   0  0  0  0  0
  131.3989  124.0258   99.4967 C   0  0  0  0  0
  131.9531  123.3200   98.2623 C   0  0  0  0  0
  134.1480  122.3500   98.4276 C   0  0  0  0  0
  135.0628  121.3386   98.7442 C   0  0  0  0  0
  136.5043  121.5853   98.4898 C   0  0  0  0  0
  138.9046  120.7654   98.5152 C   0  0  0  0  0
  139.2542  120.1001   97.1854 C   0  0  0  0  0
  138.9051  118.5992   97.2279 C   0  0  0  0  0
  139.2868  117.9295   95.8985 C   0  0  0  0  0
  140.7974  118.0928   95.6675 C   0  0  0  0  0
  141.1619  119.5852   95.6152 C   0  0  0  0  0
  140.3916  120.2534   94.4652 C   0  0  0  0  0
  138.8786  120.1022   94.6898 C   0  0  0  0  0
  138.5214  118.6081   94.7507 C   0  0  0  0  0
  138.4982  120.7689   96.0208 C   0  0  0  0  0
  140.7661  120.2504   96.9440 C   0  0  0  0  0
  134.5704  120.1324   99.2847 C   0  0  0  0  0
  133.1899  119.9740   99.4867 C   0  0  0  0  0
  132.6718  118.7797  100.0119 C   0  0  0  0  0
  131.2971  118.6261  100.1995 C   0  0  0  0  0
  130.4260  119.6628   99.8630 C   0  0  0  0  0
  130.9279  120.8563   99.3406 C   0  0  0  0  0
  132.3102  121.0310   99.1491 C   0  0  0  0  0
  132.8133  122.1990   98.6377 N   0  0  0  0  0
  137.4912  120.6107   98.8409 N   0  0  0  0  0
  136.8668  122.6735   97.9632 O   0  0  0  0  0
  135.3573  119.1917   99.5828 O   0  0  0  0  0
  1  2  1  0  0  0
  2  3  1  0  0  0
  3  4  1  0  0  0
  4  5  1  0  0  0
  5 27  1  0  0  0
  7  8  1  0  0  0
  7 20  1  0  0  0
  8 28  1  0  0  0
  9 28  1  0  0  0
 10  9  1  0  0  0
 10 11  1  0  0  0
 12 11  1  0  0  0
 12 13  1  0  0  0
 14 13  1  0  0  0
 14 15  1  0  0  0
 14 19  1  0  0  0
 16 15  1  0  0  0
 16 17  1  0  0  0
 16 18  1  0  0  0
 17 12  1  0  0  0
 18 10  1  0  0  0
 19 10  1  0  0  0
 20 21  1  0  0  0
 22 23  1  0  0  0
 24 25  1  0  0  0
 26 27  1  0  0  0
 26 21  1  0  0  0
 27  6  1  0  0  0
  6  7  2  0  0  0
  8 29  2  0  0  0
 20 30  2  0  0  0
 21 22  2  0  0  0
 23 24  2  0  0  0
 25 26  2  0  0  0
M  END
> <rmsd>
0.824912369

$$$$
CHEMBL218253_6PT0


 31 34  0  0  0  0  0  0  0  0999 V2000
  139.6040  118.6818   96.9255 C   0  0  0  0  0
  138.7002  118.8324   97.9756 C   0  0  0  0  0
  137.8181  119.9134   97.9906 C   0  0  0  0  0
  137.8156  120.8648   96.9582 C   0  0  0  0  0
  138.7358  120.7134   95.8900 C   0  0  0  0  0
  139.6287  119.6107   95.8851 C   0  0  0  0  0
  140.5355  119.4426   94.8348 C   0  0  0  0  0
  140.5642  120.3565   93.7793 C   0  0  0  0  0
  139.6847  121.4409   93.7683 C   0  0  0  0  0
  138.7756  121.6168   94.8147 C   0  0  0  0  0
  136.8748  122.0139   97.0441 C   0  0  0  0  0
  135.5199  121.8787   97.6178 C   0  0  0  0  0
  134.6528  122.9271   97.8569 C   0  0  0  0  0
  133.6390  121.0808   98.4327 C   0  0  0  0  0
  134.8890  120.6976   97.9734 C   0  0  0  0  0
  132.6118  120.1268   98.9215 C   0  0  0  0  0
  132.9303  118.7661   99.0504 C   0  0  0  0  0
  131.9766  117.8510   99.5021 C   0  0  0  0  0
  130.6911  118.2868   99.8291 C   0  0  0  0  0
  130.3506  119.6399   99.7051 C   0  0  0  0  0
  131.3159  120.5497   99.2495 C   0  0  0  0  0
  132.3802  123.2512   98.7706 C   0  0  0  0  0
  132.4585  123.5607  100.2614 C   0  0  0  0  0
  133.5804  124.5447  100.5690 C   0  0  0  0  0
  133.2359  125.9466  100.0899 C   0  0  0  0  0
  132.2035  126.5797  101.0034 C   0  0  0  0  0
  137.2411  123.1467   96.6281 O   0  0  0  0  0
  128.7221  121.2917   99.9352 O   0  0  0  0  0
  128.0858  119.1896  100.4858 O   0  0  0  0  0
  133.5090  122.4271   98.3548 N   0  0  0  0  0
  129.0300  120.0863  100.0408 N   0  0  0  0  0
  2  3  1  0  0  0
  4  5  1  0  0  0
  4 11  1  0  0  0
  6  7  1  0  0  0
  6  1  1  0  0  0
  8  9  1  0  0  0
 10  5  1  0  0  0
 11 12  1  0  0  0
 13 30  1  0  0  0
 14 16  1  0  0  0
 15 12  1  0  0  0
 17 18  1  0  0  0
 19 20  1  0  0  0
 20 31  1  0  0  0
 21 16  1  0  0  0
 22 30  1  0  0  0
 22 23  1  0  0  0
 23 24  1  0  0  0
 24 25  1  0  0  0
 25 26  1  0  0  0
 30 14  1  0  0  0
 31 29  1  0  0  0
  1  2  2  0  0  0
  3  4  2  0  0  0
  5  6  2  0  0  0
  7  8  2  0  0  0
  9 10  2  0  0  0
 11 27  2  0  0  0
 12 13  2  0  0  0
 14 15  2  0  0  0
 16 17  2  0  0  0
 18 19  2  0  0  0
 20 21  2  0  0  0
 31 28  2  0  0  0
M  CHG  2  31   1  29  -1
M  END
> <rmsd>
0.464999497

$$$$
CHEMBL3354943_8GUQ


 29 33  0  0  0  0  0  0  0  0999 V2000
  139.5305  120.9044   97.3975 C   0  0  0  0  0
  138.5374  120.3758   96.3661 C   0  0  0  0  0
  138.8087  118.8914   96.2009 C   0  0  0  0  0
  136.5605  121.7991   97.1751 C   0  0  0  0  0
  135.1813  121.8282   97.6745 C   0  0  0  0  0
  133.3404  122.4551   98.6412 C   0  0  0  0  0
  134.4757  122.9329   98.1058 C   0  0  0  0  0
  134.9022  124.2028   98.7236 C   0  0  0  0  0
  133.8440  124.4360   99.8306 C   0  0  0  0  0
  132.8058  123.2993   99.7394 C   0  0  0  0  0
  132.4683  124.6955   99.2396 C   0  0  0  0  0
  132.3419  120.2163   99.0916 C   0  0  0  0  0
  131.0199  120.6732   99.2231 C   0  0  0  0  0
  130.0178  119.8388   99.7204 C   0  0  0  0  0
  130.3238  118.5312  100.0948 C   0  0  0  0  0
  131.6326  118.0616   99.9797 C   0  0  0  0  0
  132.6448  118.8882   99.4813 C   0  0  0  0  0
  138.6756  121.0547   95.0152 C   0  0  0  0  0
  139.6799  122.0074   94.7645 C   0  0  0  0  0
  139.7834  122.6207   93.5130 C   0  0  0  0  0
  138.8849  122.2896   92.4963 C   0  0  0  0  0
  137.8832  121.3449   92.7303 C   0  0  0  0  0
  137.7793  120.7312   93.9815 C   0  0  0  0  0
  137.1774  120.5396   96.8783 N   0  0  0  0  0
  134.4493  120.7222   97.9358 N   0  0  0  0  0
  133.3382  121.1083   98.5535 N   0  0  0  0  0
  137.1926  122.8767   97.0046 O   0  0  0  0  0
  134.2703  118.2213   99.4333 Cl  0  0  0  0  0
  129.0693  117.4828  100.7189 Cl  0  0  0  0  0
  1  2  1  0  0  0
  2  3  1  0  0  0
  2 24  1  0  0  0
  2 18  1  0  0  0
  4  5  1  0  0  0
  7  5  1  0  0  0
  8  7  1  0  0  0
  9  8  1  0  0  0
  9 10  1  0  0  0
 10 11  1  0  0  0
 10  6  1  0  0  0
 11  9  1  0  0  0
 13 14  1  0  0  0
 15 16  1  0  0  0
 15 29  1  0  0  0
 17 28  1  0  0  0
 17 12  1  0  0  0
 19 20  1  0  0  0
 21 22  1  0  0  0
 23 18  1  0  0  0
 24  4  1  0  0  0
 26 25  1  0  0  0
 26  6  1  0  0  0
 26 12  1  0  0  0
  4 27  2  0  0  0
  5 25  2  0  0  0
  6  7  2  0  0  0
 12 13  2  0  0  0
 14 15  2  0  0  0
 16 17  2  0  0  0
 18 19  2  0  0  0
 20 21  2  0  0  0
 22 23  2  0  0  0
M  END
> <rmsd>
0.412597537

$$$$
CHEMBL177393_5ZTY


 31 35  0  0  0  0  0  0  0  0999 V2000
  134.9157  119.2955   97.6570 C   0  0  0  0  0
  134.6922  120.7286   98.0182 C   0  0  0  0  0
  135.4968  121.8002   97.6753 C   0  0  0  0  0
  136.7701  121.7695   96.9361 C   0  0  0  0  0
  138.5945  120.4404   95.7839 C   0  0  0  0  0
  138.8131  119.0283   95.2390 C   0  0  0  0  0
  140.1406  118.6084   95.8698 C   0  0  0  0  0
  139.8580  118.3175   97.3401 C   0  0  0  0  0
  139.6249  119.7061   97.9379 C   0  0  0  0  0
  139.7823  120.6430   96.7360 C   0  0  0  0  0
  140.8561  119.9275   95.9699 C   0  0  0  0  0
  133.7918  122.5452   98.7266 C   0  0  0  0  0
  132.9100  123.4925   99.4426 C   0  0  0  0  0
  132.4577  123.1616  100.7286 C   0  0  0  0  0
  131.6500  124.0437  101.4487 C   0  0  0  0  0
  131.2903  125.2714  100.8918 C   0  0  0  0  0
  131.7383  125.6166   99.6153 C   0  0  0  0  0
  132.5498  124.7400   98.8878 C   0  0  0  0  0
  132.4822  120.4378   99.1379 C   0  0  0  0  0
  132.6694  119.2102   99.7906 C   0  0  0  0  0
  131.5695  118.4673  100.2287 C   0  0  0  0  0
  130.2740  118.9448  100.0149 C   0  0  0  0  0
  130.0772  120.1631   99.3600 C   0  0  0  0  0
  131.1768  120.9057   98.9215 C   0  0  0  0  0
  137.3809  122.8489   96.7098 O   0  0  0  0  0
  137.3144  120.5299   96.4765 N   0  0  0  0  0
  134.9357  122.9401   98.1253 N   0  0  0  0  0
  133.6151  121.1999   98.6803 N   0  0  0  0  0
  130.2762  126.3773  101.7920 Cl  0  0  0  0  0
  133.0417  125.2253   97.2713 Cl  0  0  0  0  0
  128.8970  118.0151  100.5647 Cl  0  0  0  0  0
  1  2  1  0  0  0
  3  4  1  0  0  0
  3 27  1  0  0  0
  4 26  1  0  0  0
  5 26  1  0  0  0
  5  6  1  0  0  0
  7  6  1  0  0  0
  7  8  1  0  0  0
  8  9  1  0  0  0
 10  9  1  0  0  0
 10 11  1  0  0  0
 10  5  1  0  0  0
 11  7  1  0  0  0
 12 13  1  0  0  0
 12 28  1  0  0  0
 14 15  1  0  0  0
 16 29  1  0  0  0
 16 17  1  0  0  0
 18 30  1  0  0  0
 18 13  1  0  0  0
 20 21  1  0  0  0
 22 31  1  0  0  0
 22 23  1  0  0  0
 24 19  1  0  0  0
 28 19  1  0  0  0
 28  2  1  0  0  0
  2  3  2  0  0  0
  4 25  2  0  0  0
 12 27  2  0  0  0
 13 14  2  0  0  0
 15 16  2  0  0  0
 17 18  2  0  0  0
 19 20  2  0  0  0
 21 22  2  0  0  0
 23 24  2  0  0  0
M  END
> <rmsd>
0.689763367

$$$$
CHEMBL2380327_5ZTY


 32 35  0  0  0  0  0  0  0  0999 V2000
  131.8971  123.4662   98.6289 C   0  0  0  0  0
  131.6315  123.9582  100.0487 C   0  0  0  0  0
  132.9149  124.4124  100.7270 C   0  0  0  0  0
  133.3861  125.7313  100.1443 C   0  0  0  0  0
  134.6782  126.1453  100.8155 C   0  0  0  0  0
  133.9572  122.2504   98.1790 C   0  0  0  0  0
  134.7485  121.0812   98.1540 C   0  0  0  0  0
  134.1599  119.8799   98.6139 C   0  0  0  0  0
  132.1512  121.0458   99.0608 C   0  0  0  0  0
  130.8793  120.7941   99.5406 C   0  0  0  0  0
  130.9358  119.4196   99.8075 C   0  0  0  0  0
  129.8095  118.6200  100.3542 C   0  0  0  0  0
  128.5995  119.2801  100.6273 C   0  0  0  0  0
  127.5017  118.5886  101.1422 C   0  0  0  0  0
  127.5962  117.2208  101.3934 C   0  0  0  0  0
  128.7883  116.5455  101.1294 C   0  0  0  0  0
  129.8954  117.2278  100.6133 C   0  0  0  0  0
  131.1302  116.4312  100.3600 C   0  0  0  0  0
  136.1404  121.1643   97.6518 C   0  0  0  0  0
  138.3394  120.0321   97.1026 C   0  0  0  0  0
  138.3104  120.1099   95.5803 C   0  0  0  0  0
  139.5055  120.8673   94.9943 C   0  0  0  0  0
  140.8548  120.5926   95.6654 C   0  0  0  0  0
  141.0586  119.1272   96.0235 C   0  0  0  0  0
  140.5655  118.8753   97.4432 C   0  0  0  0  0
  139.0467  118.7473   97.5149 C   0  0  0  0  0
  132.6725  122.2300   98.6377 N   0  0  0  0  0
  132.8754  119.9236   99.0475 N   0  0  0  0  0
  132.1552  118.9157   99.4998 N   0  0  0  0  0
  136.9774  120.0039   97.6131 N   0  0  0  0  0
  134.7946  118.7906   98.6250 O   0  0  0  0  0
  136.5952  122.2731   97.2569 O   0  0  0  0  0
  1  2  1  0  0  0
  1 27  1  0  0  0
  2  3  1  0  0  0
  3  4  1  0  0  0
  4  5  1  0  0  0
  7  8  1  0  0  0
  7 19  1  0  0  0
  8 28  1  0  0  0
  9 27  1  0  0  0
 10 11  1  0  0  0
 11 12  1  0  0  0
 13 14  1  0  0  0
 15 16  1  0  0  0
 17 12  1  0  0  0
 18 17  1  0  0  0
 19 30  1  0  0  0
 20 30  1  0  0  0
 20 21  1  0  0  0
 21 22  1  0  0  0
 22 23  1  0  0  0
 23 24  1  0  0  0
 24 25  1  0  0  0
 25 26  1  0  0  0
 26 20  1  0  0  0
 27  6  1  0  0  0
 28  9  1  0  0  0
 28 29  1  0  0  0
  6  7  2  0  0  0
  8 31  2  0  0  0
  9 10  2  0  0  0
 11 29  2  0  0  0
 12 13  2  0  0  0
 14 15  2  0  0  0
 16 17  2  0  0  0
 19 32  2  0  0  0
M  END
> <rmsd>
0.733390987

$$$$
CHEMBL2381793_8GUT


 32 35  0  0  0  0  0  0  0  0999 V2000
  131.8912  123.4634   98.6190 C   0  0  0  0  0
  131.6166  123.9622  100.0347 C   0  0  0  0  0
  132.8950  124.4232  100.7176 C   0  0  0  0  0
  133.3660  125.7402  100.1305 C   0  0  0  0  0
  134.6535  126.1612  100.8064 C   0  0  0  0  0
  133.9568  122.2508   98.1864 C   0  0  0  0  0
  134.7512  121.0835   98.1718 C   0  0  0  0  0
  134.1632  119.8832   98.6350 C   0  0  0  0  0
  132.1494  121.0461   99.0650 C   0  0  0  0  0
  130.8760  120.7930   99.5395 C   0  0  0  0  0
  130.9341  119.4199   99.8144 C   0  0  0  0  0
  129.8055  118.6231  100.3595 C   0  0  0  0  0
  128.5958  119.2888  100.6209 C   0  0  0  0  0
  127.4921  118.6059  101.1338 C   0  0  0  0  0
  127.5796  117.2400  101.3952 C   0  0  0  0  0
  128.7705  116.5589  101.1433 C   0  0  0  0  0
  129.8844  117.2318  100.6291 C   0  0  0  0  0
  136.1455  121.1674   97.6765 C   0  0  0  0  0
  138.3498  120.0356   97.1431 C   0  0  0  0  0
  139.0945  118.7943   97.6436 C   0  0  0  0  0
  140.3928  118.4571   96.9038 C   0  0  0  0  0
  141.2179  119.6861   96.5491 C   0  0  0  0  0
  140.8303  120.1756   95.1590 C   0  0  0  0  0
  139.5328  120.9785   95.1674 C   0  0  0  0  0
  138.3409  120.1458   95.6223 C   0  0  0  0  0
  132.6697  122.2295   98.6385 N   0  0  0  0  0
  132.8764  119.9259   99.0617 N   0  0  0  0  0
  132.1564  118.9189   99.5156 N   0  0  0  0  0
  136.9858  120.0090   97.6488 N   0  0  0  0  0
  134.8006  118.7955   98.6554 O   0  0  0  0  0
  136.5996  122.2753   97.2782 O   0  0  0  0  0
  131.3279  116.2661  100.3534 Cl  0  0  0  0  0
  1  2  1  0  0  0
  1 26  1  0  0  0
  2  3  1  0  0  0
  3  4  1  0  0  0
  4  5  1  0  0  0
  7  8  1  0  0  0
  7 18  1  0  0  0
  8 27  1  0  0  0
  9 26  1  0  0  0
 10 11  1  0  0  0
 11 12  1  0  0  0
 13 14  1  0  0  0
 15 16  1  0  0  0
 17 32  1  0  0  0
 17 12  1  0  0  0
 18 29  1  0  0  0
 19 29  1  0  0  0
 19 20  1  0  0  0
 20 21  1  0  0  0
 21 22  1  0  0  0
 22 23  1  0  0  0
 23 24  1  0  0  0
 24 25  1  0  0  0
 25 19  1  0  0  0
 26  6  1  0  0  0
 27  9  1  0  0  0
 27 28  1  0  0  0
  6  7  2  0  0  0
  8 30  2  0  0  0
  9 10  2  0  0  0
 11 28  2  0  0  0
 12 13  2  0  0  0
 14 15  2  0  0  0
 16 17  2  0  0  0
 18 31  2  0  0  0
M  END
> <rmsd>
0.737515628

$$$$
CHEMBL3647305_8GUT


 34 36  0  0  0  0  0  0  0  0999 V2000
  138.1567  123.6325   93.1324 C   0  0  0  0  0
  137.2009  124.2620   94.1283 C   0  0  0  0  0
  135.8392  123.5963   94.0535 C   0  0  0  0  0
  137.7641  124.2425   95.5508 C   0  0  0  0  0
  138.8033  121.9941   95.7184 C   0  0  0  0  0
  138.7366  120.7680   96.3830 C   0  0  0  0  0
  139.7252  119.6398   96.2424 C   0  0  0  0  0
  139.0786  118.3066   96.5760 C   0  0  0  0  0
  140.8886  119.8691   97.1875 C   0  0  0  0  0
  140.2562  119.5621   94.8215 C   0  0  0  0  0
  137.0546  122.4250   97.0902 C   0  0  0  0  0
  135.1865  122.7581   98.6611 C   0  0  0  0  0
  134.1485  123.7228   99.0988 C   0  0  0  0  0
  134.0798  124.9673   98.4543 C   0  0  0  0  0
  133.1172  125.9191   98.8104 C   0  0  0  0  0
  133.0488  127.2470   98.1140 C   0  0  0  0  0
  132.2071  125.6221   99.8291 C   0  0  0  0  0
  132.2613  124.3915  100.4834 C   0  0  0  0  0
  133.2253  123.4327  100.1313 C   0  0  0  0  0
  132.3179  121.7865  101.7677 C   0  0  0  0  0
  131.0046  121.3979  101.0980 C   0  0  0  0  0
  131.8349  120.1717   99.0812 C   0  0  0  0  0
  131.7026  118.8825   98.6032 C   0  0  0  0  0
  130.6521  119.0128  100.4714 C   0  0  0  0  0
  137.8521  122.8900   96.0998 N   0  0  0  0  0
  136.0962  123.1364   97.6137 N   0  0  0  0  0
  131.1796  120.2265  100.2520 N   0  0  0  0  0
  130.9642  118.1626   99.4746 N   0  0  0  0  0
  137.4913  120.8543   97.5231 S   0  0  0  0  0
  135.2645  121.6211   99.2001 O   0  0  0  0  0
  133.2772  122.2017  100.7997 O   0  0  0  0  0
  133.9919  127.3283   97.1036 F   0  0  0  0  0
  131.7916  127.4171   97.5633 F   0  0  0  0  0
  133.2836  128.2590   99.0264 F   0  0  0  0  0
  1  2  1  0  0  0
  2  3  1  0  0  0
  2  4  1  0  0  0
  4 25  1  0  0  0
  6 29  1  0  0  0
  7  6  1  0  0  0
  7  8  1  0  0  0
  7  9  1  0  0  0
  7 10  1  0  0  0
 11 29  1  0  0  0
 11 25  1  0  0  0
 12 26  1  0  0  0
 12 13  1  0  0  0
 14 15  1  0  0  0
 16 15  1  0  0  0
 16 32  1  0  0  0
 16 33  1  0  0  0
 16 34  1  0  0  0
 17 18  1  0  0  0
 19 31  1  0  0  0
 19 13  1  0  0  0
 20 31  1  0  0  0
 20 21  1  0  0  0
 21 27  1  0  0  0
 23 28  1  0  0  0
 24 27  1  0  0  0
 25  5  1  0  0  0
 27 22  1  0  0  0
  5  6  2  0  0  0
 11 26  2  0  0  0
 12 30  2  0  0  0
 13 14  2  0  0  0
 15 17  2  0  0  0
 18 19  2  0  0  0
 22 23  2  0  0  0
 24 28  2  0  0  0
M  END
> <rmsd>
0.701892853

$$$$
CHEMBL216276_8GUQ


 30 34  0  0  0  0  0  0  0  0999 V2000
  130.6139  126.9960   98.9276 C   0  0  0  0  0
  131.3963  125.7625   99.1998 C   0  0  0  0  0
  130.7533  124.6310   99.7396 C   0  0  0  0  0
  131.4763  123.4563   99.9997 C   0  0  0  0  0
  132.8418  123.4555   99.7213 C   0  0  0  0  0
  133.4777  124.5578   99.1745 C   0  0  0  0  0
  134.9225  124.2751   98.8699 C   0  0  0  0  0
  135.0016  122.8500   99.3327 C   0  0  0  0  0
  133.8228  122.3974   99.8404 C   0  0  0  0  0
  135.5659  121.7448   98.7201 C   0  0  0  0  0
  136.7501  121.7337   97.8525 C   0  0  0  0  0
  138.1133  119.2744   95.5316 C   0  0  0  0  0
  139.3182  119.1300   94.6045 C   0  0  0  0  0
  140.5898  119.0048   95.4383 C   0  0  0  0  0
  140.6994  120.1723   96.4144 C   0  0  0  0  0
  139.4222  120.2613   97.2464 C   0  0  0  0  0
  132.4999  120.2891   99.7330 C   0  0  0  0  0
  131.7980  120.2494  100.9573 C   0  0  0  0  0
  130.6455  119.4659  101.0728 C   0  0  0  0  0
  130.1874  118.7187   99.9858 C   0  0  0  0  0
  130.8907  118.7368   98.7802 C   0  0  0  0  0
  132.0432  119.5157   98.6564 C   0  0  0  0  0
  132.7690  125.7271   98.9018 C   0  0  0  0  0
  133.6833  121.0841   99.5704 N   0  0  0  0  0
  134.7467  120.6800   98.8853 N   0  0  0  0  0
  137.1300  120.5265   97.1875 N   0  0  0  0  0
  138.2670  120.4630   96.3691 N   0  0  0  0  0
  137.4306  122.7831   97.6959 O   0  0  0  0  0
  132.3668  121.0991  102.3861 Cl  0  0  0  0  0
  128.7423  117.7442  100.1412 Cl  0  0  0  0  0
  1  2  1  0  0  0
  3  4  1  0  0  0
  5  6  1  0  0  0
  7  6  1  0  0  0
  7  8  1  0  0  0
  9 24  1  0  0  0
  9  5  1  0  0  0
 10 11  1  0  0  0
 10  8  1  0  0  0
 11 26  1  0  0  0
 12 27  1  0  0  0
 12 13  1  0  0  0
 13 14  1  0  0  0
 14 15  1  0  0  0
 15 16  1  0  0  0
 16 27  1  0  0  0
 18 29  1  0  0  0
 18 19  1  0  0  0
 20 30  1  0  0  0
 20 21  1  0  0  0
 22 17  1  0  0  0
 23  2  1  0  0  0
 24 25  1  0  0  0
 24 17  1  0  0  0
 26 27  1  0  0  0
  2  3  2  0  0  0
  4  5  2  0  0  0
  6 23  2  0  0  0
  8  9  2  0  0  0
 10 25  2  0  0  0
 11 28  2  0  0  0
 17 18  2  0  0  0
 19 20  2  0  0  0
 21 22  2  0  0  0
M  END
> <rmsd>
0.784971595

$$$$
CHEMBL2022361_8GUT


 28 31  0  0  0  0  0  0  0  0999 V2000
  137.2413  122.5771   97.0436 O   0  0  0  0  0
  135.2269  120.2226   99.7568 O   0  0  0  0  0
  136.6832  121.7762   97.8437 C   0  0  0  0  0
  138.3921  119.9391   97.3139 C   0  0  0  0  0
  139.6371  120.7542   97.6680 C   0  0  0  0  0
  140.8565  120.1985   96.9381 C   0  0  0  0  0
  140.6188  120.2077   95.4304 C   0  0  0  0  0
  139.3909  119.3688   95.0870 C   0  0  0  0  0
  138.1598  119.9178   95.8022 C   0  0  0  0  0
  135.4795  122.2143   98.5958 C   0  0  0  0  0
  134.9935  123.5048   98.3734 C   0  0  0  0  0
  133.8737  123.9673   99.0495 C   0  0  0  0  0
  133.4060  125.2639   98.8189 C   0  0  0  0  0
  132.2824  125.7341   99.5023 C   0  0  0  0  0
  131.6253  124.9095  100.4182 C   0  0  0  0  0
  132.0896  123.6123  100.6509 C   0  0  0  0  0
  133.2178  123.1207   99.9682 C   0  0  0  0  0
  132.9937  120.9554  101.1186 C   0  0  0  0  0
  131.9719  120.1326  100.4035 C   0  0  0  0  0
  132.3247  118.8904   99.8643 C   0  0  0  0  0
  131.3743  118.1290   99.1775 C   0  0  0  0  0
  130.0702  118.6100   99.0261 C   0  0  0  0  0
  129.7168  119.8529   99.5601 C   0  0  0  0  0
  130.6673  120.6141  100.2468 C   0  0  0  0  0
  134.8032  121.3891   99.5251 C   0  0  0  0  0
  137.2185  120.4557   98.0116 N   0  0  0  0  0
  133.6878  121.8484  100.1827 N   0  0  0  0  0
  129.1495  117.8724   98.3607 F   0  0  0  0  0
  3 26  1  0  0  0
  3 10  1  0  0  0
  4 26  1  0  0  0
  4  5  1  0  0  0
  5  6  1  0  0  0
  6  7  1  0  0  0
  7  8  1  0  0  0
  8  9  1  0  0  0
  9  4  1  0  0  0
 11 12  1  0  0  0
 13 14  1  0  0  0
 15 16  1  0  0  0
 17 27  1  0  0  0
 17 12  1  0  0  0
 18 27  1  0  0  0
 18 19  1  0  0  0
 20 21  1  0  0  0
 22 28  1  0  0  0
 22 23  1  0  0  0
 24 19  1  0  0  0
 25 10  1  0  0  0
 27 25  1  0  0  0
  3  1  2  0  0  0
 10 11  2  0  0  0
 12 13  2  0  0  0
 14 15  2  0  0  0
 16 17  2  0  0  0
 19 20  2  0  0  0
 21 22  2  0  0  0
 23 24  2  0  0  0
 25  2  2  0  0  0
M  END
> <rmsd>
0.569881201

$$$$
CHEMBL2022363_8GUT


 29 32  0  0  0  0  0  0  0  0999 V2000
  137.2293  122.9970   97.1175 O   0  0  0  0  0
  135.3207  120.4869   99.7628 O   0  0  0  0  0
  136.6831  122.1387   97.8647 C   0  0  0  0  0
  138.4489  120.4303   97.2391 C   0  0  0  0  0
  138.1134  120.2531   95.7518 C   0  0  0  0  0
  139.3463  120.3115   94.8323 C   0  0  0  0  0
  140.6906  120.2008   95.5627 C   0  0  0  0  0
  140.9423  118.8266   96.1921 C   0  0  0  0  0
  139.7267  118.2130   96.8923 C   0  0  0  0  0
  139.0324  119.1601   97.8772 C   0  0  0  0  0
  135.4494  122.4954   98.6109 C   0  0  0  0  0
  134.8833  123.7535   98.3919 C   0  0  0  0  0
  133.7301  124.1383   99.0607 C   0  0  0  0  0
  133.1807  125.4032   98.8330 C   0  0  0  0  0
  132.0227  125.7947   99.5084 C   0  0  0  0  0
  131.4124  124.9231  100.4132 C   0  0  0  0  0
  131.9582  123.6575  100.6432 C   0  0  0  0  0
  133.1227  123.2450   99.9688 C   0  0  0  0  0
  133.0325  121.0661  101.1101 C   0  0  0  0  0
  132.1073  120.1489  100.3788 C   0  0  0  0  0
  132.5540  118.8881   99.9676 C   0  0  0  0  0
  131.6964  118.0351   99.2665 C   0  0  0  0  0
  130.3916  118.4428   98.9725 C   0  0  0  0  0
  129.9442  119.7038   99.3785 C   0  0  0  0  0
  130.8019  120.5568  100.0797 C   0  0  0  0  0
  134.8215  121.6231   99.5310 C   0  0  0  0  0
  137.2617  120.8342   97.9769 N   0  0  0  0  0
  133.6733  122.0052  100.1816 N   0  0  0  0  0
  129.5603  117.6155   98.2945 F   0  0  0  0  0
  3 27  1  0  0  0
  3 11  1  0  0  0
  4 27  1  0  0  0
  4  5  1  0  0  0
  5  6  1  0  0  0
  6  7  1  0  0  0
  7  8  1  0  0  0
  8  9  1  0  0  0
  9 10  1  0  0  0
 10  4  1  0  0  0
 12 13  1  0  0  0
 14 15  1  0  0  0
 16 17  1  0  0  0
 18 28  1  0  0  0
 18 13  1  0  0  0
 19 28  1  0  0  0
 19 20  1  0  0  0
 21 22  1  0  0  0
 23 29  1  0  0  0
 23 24  1  0  0  0
 25 20  1  0  0  0
 26 11  1  0  0  0
 28 26  1  0  0  0
  3  1  2  0  0  0
 11 12  2  0  0  0
 13 14  2  0  0  0
 15 16  2  0  0  0
 17 18  2  0  0  0
 20 21  2  0  0  0
 22 23  2  0  0  0
 24 25  2  0  0  0
 26  2  2  0  0  0
M  END
> <rmsd>
0.375982493

$$$$
CHEMBL2163965_6PT0


 28 32  0  0  0  0  0  0  0  0999 V2000
  137.3291  123.2023   96.9357 O   0  0  0  0  0
  135.3639  124.8640   97.5060 O   0  0  0  0  0
  131.7004  122.6970  101.7034 O   0  0  0  0  0
  136.8038  122.4004   97.7554 C   0  0  0  0  0
  138.5840  120.6670   97.2518 C   0  0  0  0  0
  138.2190  120.2955   95.8222 C   0  0  0  0  0
  138.4573  118.8065   95.6848 C   0  0  0  0  0
  139.4325  118.4515   96.7811 C   0  0  0  0  0
  139.1240  119.4107   97.9072 C   0  0  0  0  0
  135.5769  122.7739   98.4998 C   0  0  0  0  0
  135.0357  121.8502   99.4030 C   0  0  0  0  0
  133.2798  123.3347   99.9837 C   0  0  0  0  0
  132.1396  123.6205  100.7543 C   0  0  0  0  0
  131.4524  124.8231  100.5747 C   0  0  0  0  0
  131.9164  125.7624   99.6505 C   0  0  0  0  0
  133.0693  125.5030   98.9041 C   0  0  0  0  0
  133.7617  124.2929   99.0650 C   0  0  0  0  0
  134.9202  124.0111   98.3239 C   0  0  0  0  0
  132.5567  121.6462  102.1472 C   0  0  0  0  0
  133.3638  121.0680  100.9776 C   0  0  0  0  0
  132.5554  120.0904  100.1757 C   0  0  0  0  0
  132.9660  118.7540  100.1186 C   0  0  0  0  0
  132.2393  117.8261   99.3666 C   0  0  0  0  0
  131.0998  118.2322   98.6661 C   0  0  0  0  0
  130.6869  119.5667   98.7162 C   0  0  0  0  0
  131.4130  120.4948   99.4678 C   0  0  0  0  0
  137.4016  121.1172   97.9711 N   0  0  0  0  0
  133.9143  122.1289  100.1213 N   0  0  0  0  0
  4 27  1  0  0  0
  4 10  1  0  0  0
  5 27  1  0  0  0
  5  6  1  0  0  0
  6  7  1  0  0  0
  7  8  1  0  0  0
  8  9  1  0  0  0
  9  5  1  0  0  0
 11 28  1  0  0  0
 13 14  1  0  0  0
 13  3  1  0  0  0
 15 16  1  0  0  0
 17 18  1  0  0  0
 17 12  1  0  0  0
 18 10  1  0  0  0
 19  3  1  0  0  0
 19 20  1  0  0  0
 20 21  1  0  0  0
 20 28  1  0  0  0
 22 23  1  0  0  0
 24 25  1  0  0  0
 26 21  1  0  0  0
 28 12  1  0  0  0
  4  1  2  0  0  0
 10 11  2  0  0  0
 12 13  2  0  0  0
 14 15  2  0  0  0
 16 17  2  0  0  0
 18  2  2  0  0  0
 21 22  2  0  0  0
 23 24  2  0  0  0
 25 26  2  0  0  0
M  END
> <rmsd>
0.405153006

$$$$
CHEMBL271824_5ZTY


 30 33  0  0  0  0  0  0  0  0999 V2000
  133.2703  121.0993   98.1968 N   0  0  0  0  0
  134.4630  120.7597   97.7262 N   0  0  0  0  0
  131.9299  123.1733   98.3941 N   0  0  0  0  0
  137.1348  120.6488   96.5612 N   0  0  0  0  0
  135.0966  121.8844   97.3318 C   0  0  0  0  0
  134.2784  122.9790   97.5622 C   0  0  0  0  0
  133.1322  122.4425   98.1082 C   0  0  0  0  0
  131.7782  124.1509   99.3055 C   0  0  0  0  0
  130.4935  124.6596   99.2729 C   0  0  0  0  0
  129.8291  123.9596   98.2731 C   0  0  0  0  0
  130.7473  123.0626   97.7613 C   0  0  0  0  0
  130.4725  122.1283   96.6323 C   0  0  0  0  0
  132.8409  124.6059  100.2466 C   0  0  0  0  0
  134.5280  124.4075   97.2150 C   0  0  0  0  0
  136.4431  121.8873   96.7408 C   0  0  0  0  0
  138.4870  120.5699   96.0237 C   0  0  0  0  0
  138.7883  119.1252   95.5940 C   0  0  0  0  0
  139.6766  118.3556   96.5784 C   0  0  0  0  0
  139.3294  118.7206   98.0169 C   0  0  0  0  0
  139.5880  120.2064   98.2975 C   0  0  0  0  0
  139.5052  121.0927   97.0451 C   0  0  0  0  0
  132.3454  120.1434   98.7456 C   0  0  0  0  0
  131.3212  120.5408   99.6173 C   0  0  0  0  0
  130.4453  119.5982  100.1597 C   0  0  0  0  0
  130.5855  118.2442   99.8447 C   0  0  0  0  0
  131.6160  117.8328   98.9830 C   0  0  0  0  0
  132.4893  118.7817   98.4435 C   0  0  0  0  0
  136.9848  122.9717   96.3939 O   0  0  0  0  0
  131.8430  116.1436   98.5621 Cl  0  0  0  0  0
  129.4613  117.0937  100.5486 Cl  0  0  0  0  0
  1  2  1  0  0  0
  1 22  1  0  0  0
  3  8  1  0  0  0
  5  6  1  0  0  0
  5 15  1  0  0  0
  7  3  1  0  0  0
  7  1  1  0  0  0
  9 10  1  0  0  0
 11  3  1  0  0  0
 12 11  1  0  0  0
 13  8  1  0  0  0
 14  6  1  0  0  0
 15  4  1  0  0  0
 16  4  1  0  0  0
 16 17  1  0  0  0
 17 18  1  0  0  0
 18 19  1  0  0  0
 19 20  1  0  0  0
 20 21  1  0  0  0
 21 16  1  0  0  0
 23 24  1  0  0  0
 25 26  1  0  0  0
 25 30  1  0  0  0
 26 29  1  0  0  0
 27 22  1  0  0  0
  5  2  2  0  0  0
  6  7  2  0  0  0
  8  9  2  0  0  0
 10 11  2  0  0  0
 15 28  2  0  0  0
 22 23  2  0  0  0
 24 25  2  0  0  0
 26 27  2  0  0  0
M  END
> <rmsd>
0.538399279

$$$$
CHEMBL3927144_8GUT


 28 30  0  0  0  0  0  0  0  0999 V2000
  138.5483  119.8309   96.5493 C   0  0  0  0  0
  137.6865  120.9919   96.8939 C   0  0  0  0  0
  136.0426  122.2171   97.2732 C   0  0  0  0  0
  134.6362  122.7479   97.3639 C   0  0  0  0  0
  134.2449  123.2651   95.9893 C   0  0  0  0  0
  134.5675  123.8966   98.3814 C   0  0  0  0  0
  133.1601  124.4536   98.5491 C   0  0  0  0  0
  133.1884  125.5559   99.5869 C   0  0  0  0  0
  132.6810  124.1806   99.9602 C   0  0  0  0  0
  133.7654  120.9422   98.9727 C   0  0  0  0  0
  132.7653  119.8985   99.2407 C   0  0  0  0  0
  130.8603  118.6697   98.5234 C   0  0  0  0  0
  130.8537  117.9347   99.7102 C   0  0  0  0  0
  131.8278  118.1902  100.6839 C   0  0  0  0  0
  132.7900  119.1811  100.4425 C   0  0  0  0  0
  132.7836  117.6577  102.9059 C   0  0  0  0  0
  132.5032  116.7253  104.0705 C   0  0  0  0  0
  136.3416  120.9555   96.8919 N   0  0  0  0  0
  137.1461  122.9702   97.4654 N   0  0  0  0  0
  133.7126  121.6751   97.7409 N   0  0  0  0  0
  131.8045  119.6253   98.3154 N   0  0  0  0  0
  138.1417  122.1721   97.2289 O   0  0  0  0  0
  134.6627  121.1924   99.8236 O   0  0  0  0  0
  131.8235  117.4574  101.8753 O   0  0  0  0  0
  132.5698  115.4114  103.6455 F   0  0  0  0  0
  131.2452  116.9817  104.5837 F   0  0  0  0  0
  133.4485  116.9326  105.0563 F   0  0  0  0  0
  129.6249  116.7072   99.9570 Cl  0  0  0  0  0
  1  2  1  0  0  0
  2 22  1  0  0  0
  3 18  1  0  0  0
  4  3  1  0  0  0
  4  5  1  0  0  0
  4  6  1  0  0  0
  4 20  1  0  0  0
  6  7  1  0  0  0
  7  8  1  0  0  0
  8  9  1  0  0  0
  9  7  1  0  0  0
 10 11  1  0  0  0
 12 21  1  0  0  0
 13 14  1  0  0  0
 13 28  1  0  0  0
 14 24  1  0  0  0
 15 11  1  0  0  0
 16 24  1  0  0  0
 16 17  1  0  0  0
 17 25  1  0  0  0
 17 26  1  0  0  0
 17 27  1  0  0  0
 19 22  1  0  0  0
 20 10  1  0  0  0
  2 18  2  0  0  0
  3 19  2  0  0  0
 10 23  2  0  0  0
 11 21  2  0  0  0
 12 13  2  0  0  0
 14 15  2  0  0  0
M  END
> <rmsd>
0.533212364

$$$$
CHEMBL3354946_8GUQ


 29 34  0  0  0  0  0  0  0  0999 V2000
  139.5067  120.6768   97.1435 C   0  0  0  0  0
  138.3854  120.3695   96.1740 C   0  0  0  0  0
  139.1756  119.2334   96.7826 C   0  0  0  0  0
  136.4697  121.7721   97.0696 C   0  0  0  0  0
  135.1048  121.8254   97.6058 C   0  0  0  0  0
  133.3096  122.4755   98.6417 C   0  0  0  0  0
  134.4453  122.9357   98.0910 C   0  0  0  0  0
  134.9284  124.1717   98.7351 C   0  0  0  0  0
  133.9100  124.4018   99.8787 C   0  0  0  0  0
  132.8346  123.3009   99.7819 C   0  0  0  0  0
  132.5273  124.7222   99.3362 C   0  0  0  0  0
  132.2670  120.2394   99.0518 C   0  0  0  0  0
  131.0653  120.7557   99.5652 C   0  0  0  0  0
  130.0870  119.9073  100.0881 C   0  0  0  0  0
  130.2962  118.5280  100.1022 C   0  0  0  0  0
  131.4826  117.9976   99.5929 C   0  0  0  0  0
  132.4659  118.8417   99.0673 C   0  0  0  0  0
  138.6106  120.6519   94.7223 C   0  0  0  0  0
  138.9972  121.9324   94.3046 C   0  0  0  0  0
  139.1778  122.2037   92.9452 C   0  0  0  0  0
  138.9653  121.1983   91.9975 C   0  0  0  0  0
  138.5691  119.9223   92.4085 C   0  0  0  0  0
  138.3882  119.6503   93.7679 C   0  0  0  0  0
  137.0389  120.5098   96.7111 N   0  0  0  0  0
  134.3459  120.7342   97.8512 N   0  0  0  0  0
  133.2585  121.1324   98.5039 N   0  0  0  0  0
  137.1321  122.8345   96.9212 O   0  0  0  0  0
  133.6067  118.2873   98.5883 F   0  0  0  0  0
  129.3483  117.7041  100.6095 F   0  0  0  0  0
  1  2  1  0  0  0
  2  3  1  0  0  0
  2 24  1  0  0  0
  2 18  1  0  0  0
  3  1  1  0  0  0
  4  5  1  0  0  0
  7  5  1  0  0  0
  8  7  1  0  0  0
  9  8  1  0  0  0
  9 10  1  0  0  0
 10 11  1  0  0  0
 10  6  1  0  0  0
 11  9  1  0  0  0
 13 14  1  0  0  0
 15 16  1  0  0  0
 15 29  1  0  0  0
 17 28  1  0  0  0
 17 12  1  0  0  0
 19 20  1  0  0  0
 21 22  1  0  0  0
 23 18  1  0  0  0
 24  4  1  0  0  0
 26 25  1  0  0  0
 26  6  1  0  0  0
 26 12  1  0  0  0
  4 27  2  0  0  0
  5 25  2  0  0  0
  6  7  2  0  0  0
 12 13  2  0  0  0
 14 15  2  0  0  0
 16 17  2  0  0  0
 18 19  2  0  0  0
 20 21  2  0  0  0
 22 23  2  0  0  0
M  END
> <rmsd>
0.436213642

$$$$
CHEMBL3354957_8GUQ


 29 33  0  0  0  0  0  0  0  0999 V2000
  137.5329  121.1045   95.4504 C   0  0  0  0  0
  136.2333  122.1267   97.3568 C   0  0  0  0  0
  135.1709  122.0042   98.3624 C   0  0  0  0  0
  133.6163  122.4874   99.7952 C   0  0  0  0  0
  134.7228  122.9922   99.2187 C   0  0  0  0  0
  134.6307  124.4537   99.0280 C   0  0  0  0  0
  133.2932  124.8269   99.7105 C   0  0  0  0  0
  132.6142  123.5208  100.1624 C   0  0  0  0  0
  132.1111  124.2657   98.9363 C   0  0  0  0  0
  132.2414  120.4126   99.5637 C   0  0  0  0  0
  131.8097  119.5402   98.5531 C   0  0  0  0  0
  130.6917  118.7250   98.7464 C   0  0  0  0  0
  129.9974  118.7690   99.9566 C   0  0  0  0  0
  130.4286  119.6178  100.9783 C   0  0  0  0  0
  131.5461  120.4369  100.7900 C   0  0  0  0  0
  136.9775  120.7620   94.0708 C   0  0  0  0  0
  138.7021  120.2510   95.8349 C   0  0  0  0  0
  139.9595  120.8468   95.9825 C   0  0  0  0  0
  141.0649  120.0749   96.3531 C   0  0  0  0  0
  140.9159  118.7036   96.5804 C   0  0  0  0  0
  139.6614  118.1037   96.4388 C   0  0  0  0  0
  138.5559  118.8750   96.0684 C   0  0  0  0  0
  136.4875  121.0423   96.4626 N   0  0  0  0  0
  134.3507  120.9343   98.4629 N   0  0  0  0  0
  133.3978  121.2366   99.3371 N   0  0  0  0  0
  136.9210  123.1813   97.2881 O   0  0  0  0  0
  136.3582  119.5102   94.0759 O   0  0  0  0  0
  131.9688  121.2105  101.8199 F   0  0  0  0  0
  128.9131  117.9794  100.1445 F   0  0  0  0  0
  1 23  1  0  0  0
  1 16  1  0  0  0
  1 17  1  0  0  0
  2  3  1  0  0  0
  5  3  1  0  0  0
  6  5  1  0  0  0
  7  6  1  0  0  0
  7  8  1  0  0  0
  8  9  1  0  0  0
  8  4  1  0  0  0
  9  7  1  0  0  0
 11 12  1  0  0  0
 13 14  1  0  0  0
 13 29  1  0  0  0
 15 28  1  0  0  0
 15 10  1  0  0  0
 16 27  1  0  0  0
 18 19  1  0  0  0
 20 21  1  0  0  0
 22 17  1  0  0  0
 23  2  1  0  0  0
 25 24  1  0  0  0
 25  4  1  0  0  0
 25 10  1  0  0  0
  2 26  2  0  0  0
  3 24  2  0  0  0
  4  5  2  0  0  0
 10 11  2  0  0  0
 12 13  2  0  0  0
 14 15  2  0  0  0
 17 18  2  0  0  0
 19 20  2  0  0  0
 21 22  2  0  0  0
M  END
> <rmsd>
0.503623545

$$$$
CHEMBL3354944_8GUQ


 27 31  0  0  0  0  0  0  0  0999 V2000
  139.4942  120.8741   97.4147 C   0  0  0  0  0
  138.5013  120.3666   96.3728 C   0  0  0  0  0
  138.7566  118.8807   96.1954 C   0  0  0  0  0
  136.5362  121.8055   97.1826 C   0  0  0  0  0
  135.1533  121.8475   97.6720 C   0  0  0  0  0
  133.3121  122.4945   98.6287 C   0  0  0  0  0
  134.4577  122.9594   98.1026 C   0  0  0  0  0
  134.8980  124.2208   98.7281 C   0  0  0  0  0
  133.8389  124.4630   99.8316 C   0  0  0  0  0
  132.7859  123.3410   99.7300 C   0  0  0  0  0
  132.4695  124.7442   99.2362 C   0  0  0  0  0
  132.3212  120.2403   99.0703 C   0  0  0  0  0
  131.1307  120.7132   99.6410 C   0  0  0  0  0
  130.2027  119.8042  100.1505 C   0  0  0  0  0
  130.4635  118.4353  100.0856 C   0  0  0  0  0
  131.6553  117.9961   99.5068 C   0  0  0  0  0
  138.6553  121.0562   95.0289 C   0  0  0  0  0
  139.6712  122.0004   94.7934 C   0  0  0  0  0
  139.7892  122.6240   93.5483 C   0  0  0  0  0
  138.8939  122.3117   92.5229 C   0  0  0  0  0
  137.8808  121.3755   92.7417 C   0  0  0  0  0
  137.7624  120.7516   93.9867 C   0  0  0  0  0
  137.1401  120.5414   96.8785 N   0  0  0  0  0
  134.4068  120.7486   97.9241 N   0  0  0  0  0
  133.2916  121.1480   98.5256 N   0  0  0  0  0
  132.5478  118.8974   99.0156 N   0  0  0  0  0
  137.1824  122.8767   97.0260 O   0  0  0  0  0
  1  2  1  0  0  0
  2  3  1  0  0  0
  2 23  1  0  0  0
  2 17  1  0  0  0
  4  5  1  0  0  0
  7  5  1  0  0  0
  8  7  1  0  0  0
  9  8  1  0  0  0
  9 10  1  0  0  0
 10 11  1  0  0  0
 10  6  1  0  0  0
 11  9  1  0  0  0
 12 26  1  0  0  0
 13 14  1  0  0  0
 15 16  1  0  0  0
 18 19  1  0  0  0
 20 21  1  0  0  0
 22 17  1  0  0  0
 23  4  1  0  0  0
 25 24  1  0  0  0
 25  6  1  0  0  0
 25 12  1  0  0  0
  4 27  2  0  0  0
  5 24  2  0  0  0
  6  7  2  0  0  0
 12 13  2  0  0  0
 14 15  2  0  0  0
 16 26  2  0  0  0
 17 18  2  0  0  0
 19 20  2  0  0  0
 21 22  2  0  0  0
M  END
> <rmsd>
0.395326227

$$$$
CHEMBL2316296_5ZTY


 27 29  0  0  0  0  0  0  0  0999 V2000
  134.5558  126.4523  100.2426 C   0  0  0  0  0
  133.2660  125.8296   99.7524 C   0  0  0  0  0
  133.0249  124.5245  100.4868 C   0  0  0  0  0
  131.7501  123.8606   99.9892 C   0  0  0  0  0
  131.9328  123.2756   98.5913 C   0  0  0  0  0
  134.1267  122.3144   98.2156 C   0  0  0  0  0
  135.0707  121.2573   98.2232 C   0  0  0  0  0
  136.4555  121.5397   97.7753 C   0  0  0  0  0
  138.8159  120.7287   97.3128 C   0  0  0  0  0
  139.7249  119.5909   97.7784 C   0  0  0  0  0
  139.3487  118.2650   97.1112 C   0  0  0  0  0
  139.3568  118.3776   95.5852 C   0  0  0  0  0
  140.7726  118.5139   95.0486 C   0  0  0  0  0
  138.4690  119.5303   95.1117 C   0  0  0  0  0
  138.8497  120.8506   95.7865 C   0  0  0  0  0
  134.6495  119.9737   98.6570 C   0  0  0  0  0
  133.3206  119.8307   99.0484 C   0  0  0  0  0
  132.5716  118.7552   99.4858 C   0  0  0  0  0
  133.0429  117.3569   99.6827 C   0  0  0  0  0
  129.9904  121.2150   99.4904 C   0  0  0  0  0
  132.4489  120.8810   99.0214 C   0  0  0  0  0
  132.8335  122.1295   98.6209 N   0  0  0  0  0
  137.4541  120.5149   97.7884 N   0  0  0  0  0
  131.2979  119.1610   99.6980 N   0  0  0  0  0
  131.2277  120.4566   99.4141 N   0  0  0  0  0
  136.7594  122.6994   97.3814 O   0  0  0  0  0
  135.4336  118.9874   98.6864 O   0  0  0  0  0
  1  2  1  0  0  0
  2  3  1  0  0  0
  3  4  1  0  0  0
  4  5  1  0  0  0
  5 22  1  0  0  0
  7  8  1  0  0  0
  7 16  1  0  0  0
  8 23  1  0  0  0
  9 23  1  0  0  0
  9 10  1  0  0  0
 10 11  1  0  0  0
 11 12  1  0  0  0
 12 13  1  0  0  0
 12 14  1  0  0  0
 14 15  1  0  0  0
 15  9  1  0  0  0
 16 17  1  0  0  0
 17 18  1  0  0  0
 19 18  1  0  0  0
 20 25  1  0  0  0
 21 22  1  0  0  0
 22  6  1  0  0  0
 25 24  1  0  0  0
 25 21  1  0  0  0
  6  7  2  0  0  0
  8 26  2  0  0  0
 16 27  2  0  0  0
 18 24  2  0  0  0
 21 17  2  0  0  0
M  END
> <rmsd>
0.551556826

$$$$
CHEMBL2163942_6PT0


 27 31  0  0  0  0  0  0  0  0999 V2000
  136.7882  122.6285   97.3130 O   0  0  0  0  0
  134.5547  119.1876   96.8473 O   0  0  0  0  0
  131.3374  121.3908  101.3729 O   0  0  0  0  0
  136.1688  121.5508   97.0949 C   0  0  0  0  0
  137.8444  120.9174   95.2952 C   0  0  0  0  0
  137.8528  120.0676   94.0232 C   0  0  0  0  0
  138.0167  118.5752   94.2906 C   0  0  0  0  0
  139.4819  118.2706   94.5639 C   0  0  0  0  0
  139.8381  118.3131   96.0522 C   0  0  0  0  0
  139.1463  119.4114   96.8629 C   0  0  0  0  0
  139.1127  120.7577   96.1443 C   0  0  0  0  0
  134.9646  121.2218   97.8980 C   0  0  0  0  0
  134.5386  122.1404   98.8673 C   0  0  0  0  0
  132.7353  120.7415   99.5091 C   0  0  0  0  0
  131.6400  120.4886  100.3525 C   0  0  0  0  0
  130.8688  119.3373  100.1784 C   0  0  0  0  0
  131.2075  118.4129   99.1868 C   0  0  0  0  0
  132.3201  118.6347   98.3702 C   0  0  0  0  0
  133.0954  119.7943   98.5261 C   0  0  0  0  0
  134.2198  120.0348   97.7207 C   0  0  0  0  0
  132.2948  122.3658  101.7830 C   0  0  0  0  0
  133.0098  122.9629  100.5654 C   0  0  0  0  0
  132.0836  123.9366   99.8450 C   0  0  0  0  0
  132.1830  125.3043  100.4920 C   0  0  0  0  0
  132.9041  125.0304   99.1903 C   0  0  0  0  0
  136.6372  120.6641   96.0740 N   0  0  0  0  0
  133.4486  121.9024   99.6459 N   0  0  0  0  0
  4 26  1  0  0  0
  4 12  1  0  0  0
  5 26  1  0  0  0
  5  6  1  0  0  0
  6  7  1  0  0  0
  7  8  1  0  0  0
  8  9  1  0  0  0
  9 10  1  0  0  0
 10 11  1  0  0  0
 11  5  1  0  0  0
 13 27  1  0  0  0
 15 16  1  0  0  0
 15  3  1  0  0  0
 17 18  1  0  0  0
 19 20  1  0  0  0
 19 14  1  0  0  0
 20 12  1  0  0  0
 21  3  1  0  0  0
 21 22  1  0  0  0
 22 23  1  0  0  0
 22 27  1  0  0  0
 23 24  1  0  0  0
 24 25  1  0  0  0
 25 23  1  0  0  0
 27 14  1  0  0  0
  4  1  2  0  0  0
 12 13  2  0  0  0
 14 15  2  0  0  0
 16 17  2  0  0  0
 18 19  2  0  0  0
 20  2  2  0  0  0
M  END
> <rmsd>
0.536995173

$$$$
CHEMBL2163930_6PT0


 29 34  0  0  0  0  0  0  0  0999 V2000
  132.2887  124.7936   98.7282 C   0  0  0  0  0
  132.9030  124.5068  100.0905 C   0  0  0  0  0
  132.5583  123.0995  100.5961 C   0  0  0  0  0
  131.0477  122.9931  100.8362 C   0  0  0  0  0
  131.2122  120.6104  100.3262 C   0  0  0  0  0
  130.5705  119.3708  100.2787 C   0  0  0  0  0
  131.1071  118.3334   99.5145 C   0  0  0  0  0
  132.2927  118.5289   98.8033 C   0  0  0  0  0
  132.9576  119.7641   98.8544 C   0  0  0  0  0
  134.1700  119.9592   98.1766 C   0  0  0  0  0
  134.8422  121.1927   98.2952 C   0  0  0  0  0
  136.1390  121.4769   97.6313 C   0  0  0  0  0
  138.0573  120.7194   96.1529 C   0  0  0  0  0
  139.1979  120.6721   97.1903 C   0  0  0  0  0
  139.2973  119.2629   97.8042 C   0  0  0  0  0
  139.5611  118.2253   96.7014 C   0  0  0  0  0
  140.8791  118.5686   95.9887 C   0  0  0  0  0
  140.7885  119.9707   95.3659 C   0  0  0  0  0
  140.5204  121.0002   96.4779 C   0  0  0  0  0
  139.6313  119.9986   94.3517 C   0  0  0  0  0
  138.3056  119.6669   95.0566 C   0  0  0  0  0
  138.4105  118.2633   95.6830 C   0  0  0  0  0
  134.2670  122.1928   99.0885 C   0  0  0  0  0
  132.4130  120.8189   99.6237 C   0  0  0  0  0
  130.6651  121.6458  101.0788 O   0  0  0  0  0
  134.6537  119.0254   97.4788 O   0  0  0  0  0
  136.7001  122.5930   97.8110 O   0  0  0  0  0
  136.7609  120.5049   96.7853 N   0  0  0  0  0
  133.0666  122.0222   99.7152 N   0  0  0  0  0
  1  2  1  0  0  0
  3  2  1  0  0  0
  3  4  1  0  0  0
  3 29  1  0  0  0
  4 25  1  0  0  0
  5 25  1  0  0  0
  5  6  1  0  0  0
  7  8  1  0  0  0
  9 10  1  0  0  0
 10 11  1  0  0  0
 11 12  1  0  0  0
 12 28  1  0  0  0
 13 28  1  0  0  0
 13 14  1  0  0  0
 14 15  1  0  0  0
 16 15  1  0  0  0
 16 17  1  0  0  0
 18 17  1  0  0  0
 18 19  1  0  0  0
 18 20  1  0  0  0
 19 14  1  0  0  0
 21 20  1  0  0  0
 21 22  1  0  0  0
 21 13  1  0  0  0
 22 16  1  0  0  0
 23 29  1  0  0  0
 24  9  1  0  0  0
 29 24  1  0  0  0
  6  7  2  0  0  0
  8  9  2  0  0  0
 10 26  2  0  0  0
 11 23  2  0  0  0
 12 27  2  0  0  0
 24  5  2  0  0  0
M  END
> <rmsd>
0.625572503

$$$$
CHEMBL2316283_5ZTY


 26 28  0  0  0  0  0  0  0  0999 V2000
  133.1905  123.4929  102.8185 C   0  0  0  0  0
  133.2103  124.7843  102.0223 C   0  0  0  0  0
  133.2681  124.4865  100.5351 C   0  0  0  0  0
  131.9106  124.0214  100.0353 C   0  0  0  0  0
  131.9940  123.6186   98.5693 C   0  0  0  0  0
  133.9851  122.4595   97.8055 C   0  0  0  0  0
  134.7773  121.3089   97.6091 C   0  0  0  0  0
  136.0998  121.4662   96.9548 C   0  0  0  0  0
  138.2614  120.4407   96.1107 C   0  0  0  0  0
  138.6949  119.0735   95.5637 C   0  0  0  0  0
  140.2161  118.9024   95.5083 C   0  0  0  0  0
  140.8583  118.6094   96.8767 C   0  0  0  0  0
  139.9124  118.7783   98.0715 C   0  0  0  0  0
  139.5329  120.2356   98.3531 C   0  0  0  0  0
  139.2525  121.0752   97.1012 C   0  0  0  0  0
  134.2772  120.0556   98.0462 C   0  0  0  0  0
  133.0108  120.0084   98.6513 C   0  0  0  0  0
  132.3217  118.8807   99.1427 C   0  0  0  0  0
  132.8462  117.4861   99.1088 C   0  0  0  0  0
  131.0654  119.1705   99.6797 C   0  0  0  0  0
  132.2921  121.1787   98.8103 C   0  0  0  0  0
  132.7645  122.3903   98.4067 N   0  0  0  0  0
  136.9355  120.3320   96.7029 N   0  0  0  0  0
  136.4925  122.6153   96.6114 O   0  0  0  0  0
  134.9496  118.9998   97.8969 O   0  0  0  0  0
  130.8184  120.8377   99.5403 S   0  0  0  0  0
  1  2  1  0  0  0
  2  3  1  0  0  0
  3  4  1  0  0  0
  4  5  1  0  0  0
  5 22  1  0  0  0
  7  8  1  0  0  0
  7 16  1  0  0  0
  8 23  1  0  0  0
  9 23  1  0  0  0
  9 10  1  0  0  0
 10 11  1  0  0  0
 11 12  1  0  0  0
 12 13  1  0  0  0
 13 14  1  0  0  0
 14 15  1  0  0  0
 15  9  1  0  0  0
 16 17  1  0  0  0
 17 18  1  0  0  0
 19 18  1  0  0  0
 20 26  1  0  0  0
 21 26  1  0  0  0
 21 22  1  0  0  0
 22  6  1  0  0  0
  6  7  2  0  0  0
  8 24  2  0  0  0
 16 25  2  0  0  0
 18 20  2  0  0  0
 21 17  2  0  0  0
M  END
> <rmsd>
0.740240037

$$$$
CHEMBL2204895_8GUQ


 33 36  0  0  0  0  0  0  0  0999 V2000
  134.9851  121.2796   97.3083 O   0  0  0  0  0
  135.0112  120.8943  100.4432 O   0  0  0  0  0
  137.2620  122.4284   96.7000 O   0  0  0  0  0
  135.5802  120.1852   97.5043 C   0  0  0  0  0
  133.5297  119.1057   98.5441 C   0  0  0  0  0
  131.1838  118.6606   99.2254 C   0  0  0  0  0
  131.6957  119.8253   99.7872 C   0  0  0  0  0
  133.0348  120.0741   99.4287 C   0  0  0  0  0
  133.8514  121.1490  100.0233 C   0  0  0  0  0
  132.1990  123.2577   99.6195 C   0  0  0  0  0
  132.6567  124.5599  100.1584 C   0  0  0  0  0
  133.8174  123.7746  100.6412 C   0  0  0  0  0
  130.9260  120.5888  100.8272 C   0  0  0  0  0
  129.4214  120.3157  100.7159 C   0  0  0  0  0
  129.1262  118.8116  100.6442 C   0  0  0  0  0
  129.7742  118.1864   99.4027 C   0  0  0  0  0
  137.0268  120.0505   97.2123 C   0  0  0  0  0
  137.6193  118.7841   97.3377 C   0  0  0  0  0
  138.9775  118.5981   97.0773 C   0  0  0  0  0
  139.7657  119.6794   96.6879 C   0  0  0  0  0
  139.1952  120.9461   96.5614 C   0  0  0  0  0
  137.8288  121.1498   96.8211 C   0  0  0  0  0
  137.9843  123.5986   96.3224 C   0  0  0  0  0
  134.8415  119.0492   97.9719 N   0  0  0  0  0
  133.3530  122.4833  100.1079 N   0  0  0  0  0
  132.3467  117.9469   98.2486 S   0  0  0  0  0
  132.9808  125.4793   99.1791 F   0  0  0  0  0
  131.8583  125.0475  101.1754 F   0  0  0  0  0
  127.7593  118.6256  100.5747 F   0  0  0  0  0
  129.6039  118.1851  101.7823 F   0  0  0  0  0
  137.1195  124.6757   96.3058 F   0  0  0  0  0
  138.9948  123.8477   97.2336 F   0  0  0  0  0
  138.5244  123.4363   95.0592 F   0  0  0  0  0
  4 24  1  0  0  0
  4 17  1  0  0  0
  5 26  1  0  0  0
  6 26  1  0  0  0
  7  8  1  0  0  0
  8  9  1  0  0  0
  9 25  1  0  0  0
 10 25  1  0  0  0
 10 11  1  0  0  0
 11 27  1  0  0  0
 11 28  1  0  0  0
 11 12  1  0  0  0
 12 25  1  0  0  0
 13  7  1  0  0  0
 13 14  1  0  0  0
 14 15  1  0  0  0
 15 29  1  0  0  0
 15 30  1  0  0  0
 15 16  1  0  0  0
 16  6  1  0  0  0
 18 19  1  0  0  0
 20 21  1  0  0  0
 22  3  1  0  0  0
 22 17  1  0  0  0
 23  3  1  0  0  0
 23 31  1  0  0  0
 23 32  1  0  0  0
 23 33  1  0  0  0
 24  5  1  0  0  0
  4  1  2  0  0  0
  6  7  2  0  0  0
  8  5  2  0  0  0
  9  2  2  0  0  0
 17 18  2  0  0  0
 19 20  2  0  0  0
 21 22  2  0  0  0
M  END
> <rmsd>
0.926974893

$$$$
CHEMBL2316297_5ZTY


 27 29  0  0  0  0  0  0  0  0999 V2000
  134.5558  126.4523  100.2426 C   0  0  0  0  0
  133.2660  125.8296   99.7524 C   0  0  0  0  0
  133.0249  124.5245  100.4868 C   0  0  0  0  0
  131.7501  123.8606   99.9892 C   0  0  0  0  0
  131.9328  123.2756   98.5913 C   0  0  0  0  0
  134.1267  122.3144   98.2156 C   0  0  0  0  0
  135.0707  121.2573   98.2232 C   0  0  0  0  0
  136.4555  121.5397   97.7753 C   0  0  0  0  0
  138.8159  120.7287   97.3128 C   0  0  0  0  0
  139.7249  119.5909   97.7784 C   0  0  0  0  0
  139.3487  118.2650   97.1112 C   0  0  0  0  0
  139.3568  118.3776   95.5852 C   0  0  0  0  0
  140.7726  118.5139   95.0486 C   0  0  0  0  0
  138.4690  119.5303   95.1117 C   0  0  0  0  0
  138.8497  120.8506   95.7865 C   0  0  0  0  0
  134.6495  119.9737   98.6570 C   0  0  0  0  0
  133.3206  119.8307   99.0484 C   0  0  0  0  0
  132.5716  118.7552   99.4858 C   0  0  0  0  0
  133.0429  117.3569   99.6827 C   0  0  0  0  0
  129.9904  121.2150   99.4904 C   0  0  0  0  0
  132.4489  120.8810   99.0214 C   0  0  0  0  0
  132.8335  122.1295   98.6209 N   0  0  0  0  0
  137.4541  120.5149   97.7884 N   0  0  0  0  0
  131.2979  119.1610   99.6980 N   0  0  0  0  0
  131.2277  120.4566   99.4141 N   0  0  0  0  0
  136.7594  122.6994   97.3814 O   0  0  0  0  0
  135.4336  118.9874   98.6864 O   0  0  0  0  0
  1  2  1  0  0  0
  2  3  1  0  0  0
  3  4  1  0  0  0
  4  5  1  0  0  0
  5 22  1  0  0  0
  7  8  1  0  0  0
  7 16  1  0  0  0
  8 23  1  0  0  0
  9 23  1  0  0  0
  9 10  1  0  0  0
 10 11  1  0  0  0
 11 12  1  0  0  0
 12 13  1  0  0  0
 12 14  1  0  0  0
 14 15  1  0  0  0
 15  9  1  0  0  0
 16 17  1  0  0  0
 17 18  1  0  0  0
 19 18  1  0  0  0
 20 25  1  0  0  0
 21 22  1  0  0  0
 22  6  1  0  0  0
 25 24  1  0  0  0
 25 21  1  0  0  0
  6  7  2  0  0  0
  8 26  2  0  0  0
 16 27  2  0  0  0
 18 24  2  0  0  0
 21 17  2  0  0  0
M  END
> <rmsd>
0.551556826

$$$$
CHEMBL3114520_5ZTY


 28 31  0  0  0  0  0  0  0  0999 V2000
  133.5246  124.9498  100.0724 C   0  0  0  0  0
  132.3750  124.6294  100.8112 C   0  0  0  0  0
  131.7768  123.3575  100.6913 C   0  0  0  0  0
  132.3108  122.3718   99.8294 C   0  0  0  0  0
  131.6572  121.0385   99.7226 C   0  0  0  0  0
  130.5007  120.7586  100.4714 C   0  0  0  0  0
  129.8757  119.5116  100.3827 C   0  0  0  0  0
  130.3994  118.5264   99.5431 C   0  0  0  0  0
  131.5475  118.7887   98.7929 C   0  0  0  0  0
  132.1711  120.0363   98.8830 C   0  0  0  0  0
  133.4637  122.7317   99.1058 C   0  0  0  0  0
  135.1597  122.8196   97.8228 C   0  0  0  0  0
  134.0382  123.9669   99.2297 C   0  0  0  0  0
  135.9799  125.1897   98.2277 C   0  0  0  0  0
  135.4185  126.0733   97.1299 C   0  0  0  0  0
  136.1746  122.4066   96.8376 C   0  0  0  0  0
  137.0951  120.5905   95.3260 C   0  0  0  0  0
  138.3266  120.1826   96.0608 C   0  0  0  0  0
  139.4466  121.0210   96.0682 C   0  0  0  0  0
  140.5958  120.6480   96.7716 C   0  0  0  0  0
  140.6258  119.4376   97.4709 C   0  0  0  0  0
  139.5063  118.5999   97.4672 C   0  0  0  0  0
  138.3566  118.9727   96.7640 C   0  0  0  0  0
  134.1589  121.9906   98.2195 N   0  0  0  0  0
  135.1128  124.0350   98.4308 N   0  0  0  0  0
  136.0967  121.1027   96.2548 N   0  0  0  0  0
  137.1037  123.1917   96.5076 O   0  0  0  0  0
  141.9955  121.6983   96.7791 Cl  0  0  0  0  0
  2  3  1  0  0  0
  4  5  1  0  0  0
  4 11  1  0  0  0
  6  7  1  0  0  0
  8  9  1  0  0  0
 10  5  1  0  0  0
 11 24  1  0  0  0
 12 25  1  0  0  0
 12 16  1  0  0  0
 13  1  1  0  0  0
 14 25  1  0  0  0
 14 15  1  0  0  0
 16 26  1  0  0  0
 17 26  1  0  0  0
 17 18  1  0  0  0
 19 20  1  0  0  0
 20 28  1  0  0  0
 21 22  1  0  0  0
 23 18  1  0  0  0
 25 13  1  0  0  0
  1  2  2  0  0  0
  3  4  2  0  0  0
  5  6  2  0  0  0
  7  8  2  0  0  0
  9 10  2  0  0  0
 12 24  2  0  0  0
 13 11  2  0  0  0
 16 27  2  0  0  0
 18 19  2  0  0  0
 20 21  2  0  0  0
 22 23  2  0  0  0
M  END
> <rmsd>
0.6665411

$$$$
CHEMBL572887_5ZTY


 29 32  0  0  0  0  0  0  0  0999 V2000
  134.5993  119.3515   97.0470 C   0  0  0  0  0
  134.4549  120.7309   97.5971 C   0  0  0  0  0
  135.3155  121.8067   97.4326 C   0  0  0  0  0
  136.5486  121.8515   96.6307 C   0  0  0  0  0
  138.2051  120.6761   95.1098 C   0  0  0  0  0
  138.1739  119.5396   94.0863 C   0  0  0  0  0
  138.2120  118.1521   94.7178 C   0  0  0  0  0
  139.6418  117.8199   95.1172 C   0  0  0  0  0
  139.9677  118.2038   96.5629 C   0  0  0  0  0
  139.3486  119.5156   97.0505 C   0  0  0  0  0
  139.4380  120.6408   96.0230 C   0  0  0  0  0
  132.9469  123.3945   99.5327 C   0  0  0  0  0
  131.5910  123.5618   99.2129 C   0  0  0  0  0
  130.8004  124.4648   99.9266 C   0  0  0  0  0
  131.3602  125.2141  100.9629 C   0  0  0  0  0
  132.7106  125.0614  101.2851 C   0  0  0  0  0
  133.5091  124.1608  100.5734 C   0  0  0  0  0
  133.4724  121.1987   98.4517 C   0  0  0  0  0
  131.8099  120.6175  100.1996 C   0  0  0  0  0
  130.8435  119.6515  100.3973 C   0  0  0  0  0
  130.8590  118.8392   99.2757 C   0  0  0  0  0
  131.8341  119.3410   98.4366 C   0  0  0  0  0
  137.2364  122.9078   96.6089 O   0  0  0  0  0
  136.9652  120.7097   95.8774 N   0  0  0  0  0
  134.8604  122.8581   98.1451 N   0  0  0  0  0
  133.7498  122.4862   98.7648 N   0  0  0  0  0
  132.3950  120.4220   99.0053 N   0  0  0  0  0
  130.3696  126.3445  101.8592 Cl  0  0  0  0  0
  135.1920  123.9843  101.0439 Cl  0  0  0  0  0
  1  2  1  0  0  0
  2  3  1  0  0  0
  3  4  1  0  0  0
  4 24  1  0  0  0
  5 24  1  0  0  0
  5  6  1  0  0  0
  6  7  1  0  0  0
  7  8  1  0  0  0
  8  9  1  0  0  0
  9 10  1  0  0  0
 10 11  1  0  0  0
 11  5  1  0  0  0
 13 14  1  0  0  0
 15 28  1  0  0  0
 15 16  1  0  0  0
 17 29  1  0  0  0
 17 12  1  0  0  0
 18 27  1  0  0  0
 20 21  1  0  0  0
 22 27  1  0  0  0
 26 25  1  0  0  0
 26 12  1  0  0  0
 26 18  1  0  0  0
 27 19  1  0  0  0
  3 25  2  0  0  0
  4 23  2  0  0  0
 12 13  2  0  0  0
 14 15  2  0  0  0
 16 17  2  0  0  0
 18  2  2  0  0  0
 19 20  2  0  0  0
 21 22  2  0  0  0
M  END
> <rmsd>
0.669549525

$$$$
CHEMBL1765259_5ZTY


 29 33  0  0  0  0  0  0  0  0999 V2000
  136.5742  123.6690   97.8780 O   0  0  0  0  0
  130.4551  122.4652   98.9697 O   0  0  0  0  0
  135.8396  122.6693   97.6478 C   0  0  0  0  0
  136.4730  121.3789   97.2933 C   0  0  0  0  0
  135.7671  120.1707   97.4145 C   0  0  0  0  0
  136.3784  118.9514   97.1082 C   0  0  0  0  0
  137.7080  118.9273   96.6831 C   0  0  0  0  0
  139.6069  117.6944   95.9712 C   0  0  0  0  0
  140.3540  118.8697   95.8465 C   0  0  0  0  0
  139.7588  120.0965   96.1482 C   0  0  0  0  0
  138.4293  120.1346   96.5688 C   0  0  0  0  0
  137.8128  121.3494   96.8769 C   0  0  0  0  0
  133.5201  122.0611   96.8714 C   0  0  0  0  0
  132.0482  122.2892   97.2233 C   0  0  0  0  0
  131.7938  122.1366   98.7309 C   0  0  0  0  0
  132.0027  120.6843   99.1260 C   0  0  0  0  0
  131.1768  119.6903   98.5731 C   0  0  0  0  0
  131.3600  118.3452   98.9050 C   0  0  0  0  0
  132.3730  117.9761   99.7928 C   0  0  0  0  0
  133.2025  118.9518  100.3499 C   0  0  0  0  0
  133.0190  120.2968  100.0189 C   0  0  0  0  0
  132.7314  123.0873   99.5465 C   0  0  0  0  0
  132.0303  124.0870  100.4777 C   0  0  0  0  0
  131.5738  125.3252   99.7113 C   0  0  0  0  0
  132.7675  125.9897   99.0365 C   0  0  0  0  0
  133.4018  125.0285   98.0386 C   0  0  0  0  0
  133.8701  123.7506   98.7423 C   0  0  0  0  0
  138.3110  117.7458   96.3834 N   0  0  0  0  0
  134.4140  122.8061   97.7658 N   0  0  0  0  0
  3  4  1  0  0  0
  3 29  1  0  0  0
  5  6  1  0  0  0
  7 28  1  0  0  0
  8  9  1  0  0  0
 10 11  1  0  0  0
 11  7  1  0  0  0
 12  4  1  0  0  0
 13 29  1  0  0  0
 13 14  1  0  0  0
 14 15  1  0  0  0
 15  2  1  0  0  0
 15 16  1  0  0  0
 15 22  1  0  0  0
 17 18  1  0  0  0
 19 20  1  0  0  0
 21 16  1  0  0  0
 22 23  1  0  0  0
 23 24  1  0  0  0
 24 25  1  0  0  0
 25 26  1  0  0  0
 27 26  1  0  0  0
 27 29  1  0  0  0
 27 22  1  0  0  0
  3  1  2  0  0  0
  4  5  2  0  0  0
  6  7  2  0  0  0
  8 28  2  0  0  0
  9 10  2  0  0  0
 11 12  2  0  0  0
 16 17  2  0  0  0
 18 19  2  0  0  0
 20 21  2  0  0  0
M  END
> <rmsd>
0.715623021

$$$$
CHEMBL3354969_8GUQ


 24 27  0  0  0  0  0  0  0  0999 V2000
  138.7604  118.8773   96.1967 C   0  0  0  0  0
  138.5110  120.3625   96.3805 C   0  0  0  0  0
  139.5045  120.9001   97.3994 C   0  0  0  0  0
  136.5427  121.8057   97.1774 C   0  0  0  0  0
  135.1599  121.8465   97.6675 C   0  0  0  0  0
  133.3195  122.4909   98.6273 C   0  0  0  0  0
  134.4641  122.9572   98.1004 C   0  0  0  0  0
  134.9037  124.2189   98.7259 C   0  0  0  0  0
  133.8450  124.4598   99.8302 C   0  0  0  0  0
  132.7931  123.3368   99.7290 C   0  0  0  0  0
  132.4748  124.7398   99.2356 C   0  0  0  0  0
  132.3234  120.2390   99.0680 C   0  0  0  0  0
  131.1300  120.7174   99.6324 C   0  0  0  0  0
  130.1832  119.8282  100.1483 C   0  0  0  0  0
  130.4191  118.4519  100.1017 C   0  0  0  0  0
  131.6010  117.9650   99.5379 C   0  0  0  0  0
  132.5477  118.8545   99.0217 C   0  0  0  0  0
  138.6757  121.0777   95.0396 C   0  0  0  0  0
  137.1479  120.5419   96.8741 N   0  0  0  0  0
  134.4142  120.7472   97.9191 N   0  0  0  0  0
  133.2989  121.1445   98.5231 N   0  0  0  0  0
  137.1883  122.8775   97.0218 O   0  0  0  0  0
  139.9711  120.9224   94.5384 O   0  0  0  0  0
  131.8292  116.6308   99.4902 F   0  0  0  0  0
  1  2  1  0  0  0
  2  3  1  0  0  0
  2 19  1  0  0  0
  2 18  1  0  0  0
  4  5  1  0  0  0
  7  5  1  0  0  0
  8  7  1  0  0  0
  9  8  1  0  0  0
  9 10  1  0  0  0
 10 11  1  0  0  0
 10  6  1  0  0  0
 11  9  1  0  0  0
 13 14  1  0  0  0
 15 16  1  0  0  0
 16 24  1  0  0  0
 17 12  1  0  0  0
 18 23  1  0  0  0
 19  4  1  0  0  0
 21 20  1  0  0  0
 21  6  1  0  0  0
 21 12  1  0  0  0
  4 22  2  0  0  0
  5 20  2  0  0  0
  6  7  2  0  0  0
 12 13  2  0  0  0
 14 15  2  0  0  0
 16 17  2  0  0  0
M  END
> <rmsd>
0.400531113

$$$$
CHEMBL1814468_5ZTY


 29 33  0  0  0  0  0  0  0  0999 V2000
  140.7339  121.0902   95.7818 C   0  0  0  0  0
  139.8218  120.1702   94.9534 C   0  0  0  0  0
  138.3742  120.3109   95.4495 C   0  0  0  0  0
  138.2872  119.9291   96.9401 C   0  0  0  0  0
  139.2171  120.8424   97.7626 C   0  0  0  0  0
  140.6653  120.7021   97.2682 C   0  0  0  0  0
  141.1143  119.2413   97.4322 C   0  0  0  0  0
  140.1992  118.3159   96.6141 C   0  0  0  0  0
  140.2758  118.7124   95.1309 C   0  0  0  0  0
  138.7506  118.4718   97.1060 C   0  0  0  0  0
  136.1435  121.2580   97.4162 C   0  0  0  0  0
  134.7514  121.2435   97.9289 C   0  0  0  0  0
  133.9302  122.3947   97.9589 C   0  0  0  0  0
  132.1366  121.1366   98.9108 C   0  0  0  0  0
  132.9327  119.9714   98.8907 C   0  0  0  0  0
  134.2300  120.0382   98.4025 C   0  0  0  0  0
  132.4245  118.7555   99.3558 C   0  0  0  0  0
  131.1178  118.6845   99.8439 C   0  0  0  0  0
  130.3169  119.8284   99.8673 C   0  0  0  0  0
  130.8215  121.0463   99.4038 C   0  0  0  0  0
  131.8355  123.5458   98.4858 C   0  0  0  0  0
  131.8159  124.1496   99.8839 C   0  0  0  0  0
  133.1597  124.7757  100.2173 C   0  0  0  0  0
  133.1637  125.2910  101.6448 C   0  0  0  0  0
  133.2924  124.1376  102.6220 C   0  0  0  0  0
  136.9115  120.0455   97.4147 N   0  0  0  0  0
  132.6508  122.3253   98.4529 N   0  0  0  0  0
  136.6581  122.3250   96.9829 O   0  0  0  0  0
  134.3744  123.4952   97.5267 O   0  0  0  0  0
  1  2  1  0  0  0
  2  3  1  0  0  0
  3  4  1  0  0  0
  4  5  1  0  0  0
  4 26  1  0  0  0
  5  6  1  0  0  0
  6  7  1  0  0  0
  6  1  1  0  0  0
  7  8  1  0  0  0
  8  9  1  0  0  0
  8 10  1  0  0  0
  9  2  1  0  0  0
 10  4  1  0  0  0
 11 12  1  0  0  0
 12 13  1  0  0  0
 13 27  1  0  0  0
 15 16  1  0  0  0
 15 17  1  0  0  0
 18 19  1  0  0  0
 20 14  1  0  0  0
 21 27  1  0  0  0
 21 22  1  0  0  0
 22 23  1  0  0  0
 23 24  1  0  0  0
 24 25  1  0  0  0
 26 11  1  0  0  0
 27 14  1  0  0  0
 11 28  2  0  0  0
 13 29  2  0  0  0
 14 15  2  0  0  0
 16 12  2  0  0  0
 17 18  2  0  0  0
 19 20  2  0  0  0
M  END
> <rmsd>
0.695103407

$$$$
CHEMBL3354960_8GUQ


 30 34  0  0  0  0  0  0  0  0999 V2000
  139.5187  120.9075   97.3971 C   0  0  0  0  0
  138.5274  120.3697   96.3757 C   0  0  0  0  0
  138.7815  118.8853   96.1887 C   0  0  0  0  0
  136.5544  121.8027   97.1761 C   0  0  0  0  0
  135.1725  121.8374   97.6691 C   0  0  0  0  0
  133.3309  122.4718   98.6306 C   0  0  0  0  0
  134.4717  122.9442   98.1010 C   0  0  0  0  0
  134.9044  124.2103   98.7225 C   0  0  0  0  0
  133.8455  124.4477   99.8271 C   0  0  0  0  0
  132.8007  123.3178   99.7306 C   0  0  0  0  0
  132.4729  124.7173   99.2335 C   0  0  0  0  0
  132.3302  120.2230   99.0744 C   0  0  0  0  0
  131.1011  120.7238   99.5358 C   0  0  0  0  0
  130.1277  119.8666  100.0532 C   0  0  0  0  0
  130.3690  118.4938  100.1138 C   0  0  0  0  0
  131.5831  117.9786   99.6563 C   0  0  0  0  0
  132.5618  118.8317   99.1365 C   0  0  0  0  0
  138.6806  121.0919   95.0339 C   0  0  0  0  0
  140.6669  122.2801   94.4405 C   0  0  0  0  0
  140.1049  123.1288   93.2924 C   0  0  0  0  0
  139.4500  121.3366   92.1087 C   0  0  0  0  0
  139.9578  120.3412   93.1604 C   0  0  0  0  0
  137.1650  120.5414   96.8731 N   0  0  0  0  0
  134.4330  120.7349   97.9236 N   0  0  0  0  0
  133.3166  121.1244   98.5310 N   0  0  0  0  0
  140.0331  120.9542   94.4948 N   0  0  0  0  0
  137.1944  122.8774   97.0172 O   0  0  0  0  0
  140.2920  122.4591   92.0730 O   0  0  0  0  0
  133.7298  118.2922   98.7087 F   0  0  0  0  0
  129.4259  117.6613  100.6155 F   0  0  0  0  0
  1  2  1  0  0  0
  2  3  1  0  0  0
  2 23  1  0  0  0
  2 18  1  0  0  0
  4  5  1  0  0  0
  7  5  1  0  0  0
  8  7  1  0  0  0
  9  8  1  0  0  0
  9 10  1  0  0  0
 10 11  1  0  0  0
 10  6  1  0  0  0
 11  9  1  0  0  0
 13 14  1  0  0  0
 15 16  1  0  0  0
 15 30  1  0  0  0
 17 29  1  0  0  0
 17 12  1  0  0  0
 18 26  1  0  0  0
 19 26  1  0  0  0
 19 20  1  0  0  0
 20 28  1  0  0  0
 21 28  1  0  0  0
 21 22  1  0  0  0
 22 26  1  0  0  0
 23  4  1  0  0  0
 25 24  1  0  0  0
 25  6  1  0  0  0
 25 12  1  0  0  0
  4 27  2  0  0  0
  5 24  2  0  0  0
  6  7  2  0  0  0
 12 13  2  0  0  0
 14 15  2  0  0  0
 16 17  2  0  0  0
M  END
> <rmsd>
0.407649755

$$$$
CHEMBL3354970_8GUQ


 24 27  0  0  0  0  0  0  0  0999 V2000
  139.5079  120.8982   97.3926 C   0  0  0  0  0
  138.5112  120.3626   96.3808 C   0  0  0  0  0
  138.7769  118.8808   96.1949 C   0  0  0  0  0
  136.5427  121.8054   97.1801 C   0  0  0  0  0
  135.1597  121.8469   97.6698 C   0  0  0  0  0
  133.3189  122.4921   98.6281 C   0  0  0  0  0
  134.4639  122.9578   98.1016 C   0  0  0  0  0
  134.9034  124.2198   98.7264 C   0  0  0  0  0
  133.8441  124.4618   99.8300 C   0  0  0  0  0
  132.7921  123.3388   99.7291 C   0  0  0  0  0
  132.4744  124.7416   99.2346 C   0  0  0  0  0
  132.3220  120.2407   99.0694 C   0  0  0  0  0
  131.1286  120.7199   99.6332 C   0  0  0  0  0
  130.1812  119.8312  100.1492 C   0  0  0  0  0
  130.4169  118.4550  100.1034 C   0  0  0  0  0
  131.5983  117.9672   99.5396 C   0  0  0  0  0
  132.5457  118.8561   99.0237 C   0  0  0  0  0
  138.7064  121.0873   95.0514 C   0  0  0  0  0
  137.1474  120.5415   96.8773 N   0  0  0  0  0
  134.4138  120.7477   97.9216 N   0  0  0  0  0
  133.2981  121.1455   98.5248 N   0  0  0  0  0
  137.1884  122.8770   97.0236 O   0  0  0  0  0
  137.7729  120.6556   94.1057 O   0  0  0  0  0
  129.4990  117.5937  100.6036 F   0  0  0  0  0
  1  2  1  0  0  0
  2  3  1  0  0  0
  2 19  1  0  0  0
  2 18  1  0  0  0
  4  5  1  0  0  0
  7  5  1  0  0  0
  8  7  1  0  0  0
  9  8  1  0  0  0
  9 10  1  0  0  0
 10 11  1  0  0  0
 10  6  1  0  0  0
 11  9  1  0  0  0
 13 14  1  0  0  0
 15 16  1  0  0  0
 15 24  1  0  0  0
 17 12  1  0  0  0
 18 23  1  0  0  0
 19  4  1  0  0  0
 21 20  1  0  0  0
 21  6  1  0  0  0
 21 12  1  0  0  0
  4 22  2  0  0  0
  5 20  2  0  0  0
  6  7  2  0  0  0
 12 13  2  0  0  0
 14 15  2  0  0  0
 16 17  2  0  0  0
M  END
> <rmsd>
0.399709642

$$$$
CHEMBL2163948_5ZTY


 31 36  0  0  0  0  0  0  0  0999 V2000
  140.7902  121.1467   95.7096 C   0  0  0  0  0
  139.9088  120.1652   94.9193 C   0  0  0  0  0
  140.4259  118.7336   95.1339 C   0  0  0  0  0
  140.3820  118.3783   96.6288 C   0  0  0  0  0
  141.2661  119.3650   97.4085 C   0  0  0  0  0
  140.7540  120.8003   97.2074 C   0  0  0  0  0
  139.3066  120.8944   97.7148 C   0  0  0  0  0
  138.4073  119.9191   96.9305 C   0  0  0  0  0
  138.4621  120.2598   95.4286 C   0  0  0  0  0
  138.9336  118.4880   97.1334 C   0  0  0  0  0
  136.2139  121.1689   97.3942 C   0  0  0  0  0
  134.8242  121.1409   97.9153 C   0  0  0  0  0
  134.0677  122.3191   97.8596 C   0  0  0  0  0
  132.1877  121.2505   98.8344 C   0  0  0  0  0
  132.9108  120.0429   98.9439 C   0  0  0  0  0
  132.2985  118.9228   99.5233 C   0  0  0  0  0
  130.9832  118.9967   99.9851 C   0  0  0  0  0
  130.2513  120.1880   99.8646 C   0  0  0  0  0
  130.8512  121.3063   99.2709 C   0  0  0  0  0
  130.5722  123.5032   98.2107 C   0  0  0  0  0
  132.0950  123.6646   98.2804 C   0  0  0  0  0
  132.5313  124.5744   99.4330 C   0  0  0  0  0
  132.2621  123.9665  100.8006 C   0  0  0  0  0
  128.2492  119.1909  100.9254 C   0  0  0  0  0
  134.2337  119.9880   98.4768 C   0  0  0  0  0
  137.0333  119.9915   97.4180 N   0  0  0  0  0
  132.7858  122.3669   98.3124 N   0  0  0  0  0
  136.6792  122.2432   96.9227 O   0  0  0  0  0
  130.1261  122.4888   99.1073 O   0  0  0  0  0
  128.9302  120.2790  100.3157 O   0  0  0  0  0
  134.8825  118.9090   98.5647 O   0  0  0  0  0
  1  2  1  0  0  0
  2  3  1  0  0  0
  3  4  1  0  0  0
  4  5  1  0  0  0
  5  6  1  0  0  0
  6  7  1  0  0  0
  6  1  1  0  0  0
  7  8  1  0  0  0
  8  9  1  0  0  0
  8 10  1  0  0  0
  8 26  1  0  0  0
  9  2  1  0  0  0
 10  4  1  0  0  0
 11 12  1  0  0  0
 13 27  1  0  0  0
 15 16  1  0  0  0
 15 25  1  0  0  0
 17 18  1  0  0  0
 18 30  1  0  0  0
 19 29  1  0  0  0
 19 14  1  0  0  0
 20 29  1  0  0  0
 20 21  1  0  0  0
 21 22  1  0  0  0
 21 27  1  0  0  0
 22 23  1  0  0  0
 24 30  1  0  0  0
 25 12  1  0  0  0
 26 11  1  0  0  0
 27 14  1  0  0  0
 11 28  2  0  0  0
 12 13  2  0  0  0
 14 15  2  0  0  0
 16 17  2  0  0  0
 18 19  2  0  0  0
 25 31  2  0  0  0
M  END
> <rmsd>
0.825119734

$$$$
CHEMBL3354948_8GUQ


 29 33  0  0  0  0  0  0  0  0999 V2000
  138.7547  118.8843   96.2057 C   0  0  0  0  0
  138.5016  120.3711   96.3787 C   0  0  0  0  0
  139.4817  120.8768   97.4335 C   0  0  0  0  0
  136.5297  121.8164   97.1605 C   0  0  0  0  0
  135.1401  121.8625   97.6304 C   0  0  0  0  0
  133.2933  122.5105   98.5767 C   0  0  0  0  0
  134.4454  122.9756   98.0596 C   0  0  0  0  0
  134.9014  124.2156   98.7170 C   0  0  0  0  0
  133.8565  124.4364   99.8366 C   0  0  0  0  0
  132.7910  123.3303   99.7102 C   0  0  0  0  0
  132.4854  124.7511   99.2623 C   0  0  0  0  0
  132.3055  120.2597   99.0286 C   0  0  0  0  0
  132.7199  118.9803   99.4288 C   0  0  0  0  0
  131.8083  118.0773   99.9812 C   0  0  0  0  0
  130.4697  118.4424  100.1329 C   0  0  0  0  0
  130.0396  119.7053   99.7200 C   0  0  0  0  0
  130.9476  120.6138   99.1676 C   0  0  0  0  0
  138.6770  121.0590   95.0373 C   0  0  0  0  0
  137.8031  120.7628   93.9802 C   0  0  0  0  0
  137.9512  121.3904   92.7431 C   0  0  0  0  0
  138.9798  122.3166   92.5686 C   0  0  0  0  0
  139.6967  121.9985   94.8091 C   0  0  0  0  0
  137.1339  120.5505   96.8650 N   0  0  0  0  0
  134.3896  120.7654   97.8735 N   0  0  0  0  0
  133.2656  121.1658   98.4581 N   0  0  0  0  0
  139.8242  122.5992   93.5957 N   0  0  0  0  0
  137.1815  122.8856   97.0130 O   0  0  0  0  0
  130.4874  121.8116   98.7304 F   0  0  0  0  0
  129.5854  117.5677  100.6690 F   0  0  0  0  0
  1  2  1  0  0  0
  2  3  1  0  0  0
  2 23  1  0  0  0
  2 18  1  0  0  0
  4  5  1  0  0  0
  7  5  1  0  0  0
  8  7  1  0  0  0
  9  8  1  0  0  0
  9 10  1  0  0  0
 10 11  1  0  0  0
 10  6  1  0  0  0
 11  9  1  0  0  0
 13 14  1  0  0  0
 15 16  1  0  0  0
 15 29  1  0  0  0
 17 28  1  0  0  0
 17 12  1  0  0  0
 19 20  1  0  0  0
 21 26  1  0  0  0
 22 18  1  0  0  0
 23  4  1  0  0  0
 25 24  1  0  0  0
 25  6  1  0  0  0
 25 12  1  0  0  0
  4 27  2  0  0  0
  5 24  2  0  0  0
  6  7  2  0  0  0
 12 13  2  0  0  0
 14 15  2  0  0  0
 16 17  2  0  0  0
 18 19  2  0  0  0
 20 21  2  0  0  0
 22 26  2  0  0  0
M  END
> <rmsd>
0.399516165

$$$$
CHEMBL3354950_8GUQ


 24 27  0  0  0  0  0  0  0  0999 V2000
  138.8242  120.8531   95.3310 C   0  0  0  0  0
  138.5698  120.2094   96.6819 C   0  0  0  0  0
  139.5226  120.7869   97.7128 C   0  0  0  0  0
  138.8250  118.7218   96.5656 C   0  0  0  0  0
  136.5771  121.7011   97.3090 C   0  0  0  0  0
  135.1709  121.7745   97.7239 C   0  0  0  0  0
  133.2946  122.4725   98.5720 C   0  0  0  0  0
  134.4679  122.9087   98.0779 C   0  0  0  0  0
  134.9071  124.1746   98.6964 C   0  0  0  0  0
  133.8228  124.4498   99.7654 C   0  0  0  0  0
  132.7559  123.3441   99.6485 C   0  0  0  0  0
  132.4760  124.7450   99.1271 C   0  0  0  0  0
  132.2768  120.2486   99.0859 C   0  0  0  0  0
  130.9169  120.6148   99.1589 C   0  0  0  0  0
  129.9837  119.7361   99.7175 C   0  0  0  0  0
  130.3903  118.4910  100.2017 C   0  0  0  0  0
  131.7314  118.1132  100.1158 C   0  0  0  0  0
  132.6682  118.9863   99.5577 C   0  0  0  0  0
  137.1845  120.4205   97.0941 N   0  0  0  0  0
  134.4051  120.6928   97.9875 N   0  0  0  0  0
  133.2629  121.1239   98.5119 N   0  0  0  0  0
  137.2405  122.7598   97.1396 O   0  0  0  0  0
  129.4816  117.6451  100.7431 F   0  0  0  0  0
  130.4806  121.7941   98.6523 F   0  0  0  0  0
  1  2  1  0  0  0
  2  3  1  0  0  0
  2  4  1  0  0  0
  2 19  1  0  0  0
  5  6  1  0  0  0
  8  6  1  0  0  0
  9  8  1  0  0  0
 10  9  1  0  0  0
 10 11  1  0  0  0
 11 12  1  0  0  0
 11  7  1  0  0  0
 12 10  1  0  0  0
 14 15  1  0  0  0
 14 24  1  0  0  0
 16 17  1  0  0  0
 16 23  1  0  0  0
 18 13  1  0  0  0
 19  5  1  0  0  0
 21 20  1  0  0  0
 21  7  1  0  0  0
 21 13  1  0  0  0
  5 22  2  0  0  0
  6 20  2  0  0  0
  7  8  2  0  0  0
 13 14  2  0  0  0
 15 16  2  0  0  0
 17 18  2  0  0  0
M  END
> <rmsd>
0.473283798

$$$$
CHEMBL2441450_5ZTY


 26 29  0  0  0  0  0  0  0  0999 V2000
  133.1378  126.7526  101.2485 C   0  0  0  0  0
  133.8734  125.6526  100.5067 C   0  0  0  0  0
  133.3604  124.2868  100.9371 C   0  0  0  0  0
  131.9853  123.9964  100.3473 C   0  0  0  0  0
  132.0694  123.7353   98.8481 C   0  0  0  0  0
  132.3648  121.2243   98.8592 C   0  0  0  0  0
  131.1823  120.8288   99.4856 C   0  0  0  0  0
  130.9704  119.4504   99.6703 C   0  0  0  0  0
  131.9265  118.5077   99.2316 C   0  0  0  0  0
  133.1110  118.9269   98.5994 C   0  0  0  0  0
  133.2951  120.2965   98.4303 C   0  0  0  0  0
  134.3189  121.0151   97.8565 C   0  0  0  0  0
  135.5071  120.6158   97.2578 C   0  0  0  0  0
  136.3525  121.6319   96.7648 C   0  0  0  0  0
  137.6263  121.3033   96.0879 C   0  0  0  0  0
  138.0853  119.1746   97.3840 C   0  0  0  0  0
  139.4142  119.0957   98.1300 C   0  0  0  0  0
  140.5136  118.6118   97.1857 C   0  0  0  0  0
  140.6295  119.5425   95.9794 C   0  0  0  0  0
  139.2906  119.6204   95.2502 C   0  0  0  0  0
  134.8006  123.3327   97.4604 C   0  0  0  0  0
  133.9655  122.3401   97.9608 C   0  0  0  0  0
  132.7718  122.4848   98.5784 N   0  0  0  0  0
  138.2445  120.0072   96.1935 N   0  0  0  0  0
  135.9720  122.9479   96.8721 N   0  0  0  0  0
  138.1797  122.1936   95.3862 O   0  0  0  0  0
  1  2  1  0  0  0
  2  3  1  0  0  0
  3  4  1  0  0  0
  4  5  1  0  0  0
  5 23  1  0  0  0
  7  8  1  0  0  0
  9 10  1  0  0  0
 11 12  1  0  0  0
 11  6  1  0  0  0
 13 14  1  0  0  0
 14 15  1  0  0  0
 15 24  1  0  0  0
 16 24  1  0  0  0
 16 17  1  0  0  0
 17 18  1  0  0  0
 18 19  1  0  0  0
 19 20  1  0  0  0
 20 24  1  0  0  0
 21 25  1  0  0  0
 22 23  1  0  0  0
 22 12  1  0  0  0
 23  6  1  0  0  0
  6  7  2  0  0  0
  8  9  2  0  0  0
 10 11  2  0  0  0
 12 13  2  0  0  0
 14 25  2  0  0  0
 15 26  2  0  0  0
 21 22  2  0  0  0
M  END
> <rmsd>
0.776359618

$$$$
CHEMBL188031_8GUS


 25 27  0  0  0  0  0  0  0  0999 V2000
  133.1587  123.8766  102.5776 C   0  0  0  0  0
  132.7618  124.3330  101.1899 C   0  0  0  0  0
  133.8485  123.9506  100.2031 C   0  0  0  0  0
  133.4556  124.3589   98.7912 C   0  0  0  0  0
  132.3455  123.4684   98.2441 C   0  0  0  0  0
  133.7762  121.7030   97.1888 C   0  0  0  0  0
  133.9528  120.3241   97.3062 C   0  0  0  0  0
  134.9107  119.5041   96.5456 C   0  0  0  0  0
  135.8964  120.1478   95.6237 C   0  0  0  0  0
  137.2511  120.2047   96.2552 C   0  0  0  0  0
  138.1119  119.1092   96.1167 C   0  0  0  0  0
  139.3746  119.1241   96.7135 C   0  0  0  0  0
  139.7827  120.2340   97.4556 C   0  0  0  0  0
  138.9281  121.3295   97.6007 C   0  0  0  0  0
  137.6561  121.3255   97.0036 C   0  0  0  0  0
  137.1232  123.5738   97.8968 C   0  0  0  0  0
  133.0633  119.8985   98.2765 C   0  0  0  0  0
  132.8119  118.6317   98.8030 C   0  0  0  0  0
  131.8322  118.5256   99.8064 C   0  0  0  0  0
  131.1380  119.6698  100.2557 C   0  0  0  0  0
  131.4145  120.9349   99.7077 C   0  0  0  0  0
  132.3902  121.0090   98.7124 C   0  0  0  0  0
  132.8207  122.1029   98.0607 N   0  0  0  0  0
  134.9206  118.2515   96.6802 O   0  0  0  0  0
  136.7916  122.4178   97.1399 O   0  0  0  0  0
  1  2  1  0  0  0
  2  3  1  0  0  0
  3  4  1  0  0  0
  4  5  1  0  0  0
  5 23  1  0  0  0
  7  8  1  0  0  0
  7 17  1  0  0  0
  9  8  1  0  0  0
  9 10  1  0  0  0
 11 12  1  0  0  0
 13 14  1  0  0  0
 15 25  1  0  0  0
 15 10  1  0  0  0
 16 25  1  0  0  0
 18 19  1  0  0  0
 20 21  1  0  0  0
 22 23  1  0  0  0
 22 17  1  0  0  0
 23  6  1  0  0  0
  6  7  2  0  0  0
  8 24  2  0  0  0
 10 11  2  0  0  0
 12 13  2  0  0  0
 14 15  2  0  0  0
 17 18  2  0  0  0
 19 20  2  0  0  0
 21 22  2  0  0  0
M  END
> <rmsd>
0.769672453

$$$$
CHEMBL259255_5ZTY


 30 33  0  0  0  0  0  0  0  0999 V2000
  133.8388  121.0570   99.2118 N   0  0  0  0  0
  134.8347  120.8434   98.3623 N   0  0  0  0  0
  133.1625  122.8426  100.7900 N   0  0  0  0  0
  137.2227  120.9637   96.6901 N   0  0  0  0  0
  138.3969  121.0044   95.9168 N   0  0  0  0  0
  135.6103  121.9478   98.3356 C   0  0  0  0  0
  135.0879  122.8986   99.1979 C   0  0  0  0  0
  133.9691  122.2984   99.7342 C   0  0  0  0  0
  133.0601  122.3791  102.0494 C   0  0  0  0  0
  132.2293  123.1850  102.8046 C   0  0  0  0  0
  131.8052  124.2003  101.9558 C   0  0  0  0  0
  132.4081  123.9549  100.7367 C   0  0  0  0  0
  132.2207  124.7955   99.5198 C   0  0  0  0  0
  133.7767  121.1817  102.5745 C   0  0  0  0  0
  135.6513  124.2334   99.5509 C   0  0  0  0  0
  136.8249  122.0614   97.5147 C   0  0  0  0  0
  138.3021  119.9808   94.8669 C   0  0  0  0  0
  138.2354  118.5622   95.4407 C   0  0  0  0  0
  139.4533  118.3045   96.3139 C   0  0  0  0  0
  139.5231  119.3550   97.4109 C   0  0  0  0  0
  139.5581  120.7520   96.7848 C   0  0  0  0  0
  132.7958  120.0951   99.4510 C   0  0  0  0  0
  131.5563  120.4837   99.9799 C   0  0  0  0  0
  130.5459  119.5420  100.1854 C   0  0  0  0  0
  130.7572  118.2002   99.8581 C   0  0  0  0  0
  131.9902  117.8018   99.3153 C   0  0  0  0  0
  132.9974  118.7496   99.1122 C   0  0  0  0  0
  137.5118  123.1180   97.5325 O   0  0  0  0  0
  132.3052  116.1309   98.8778 Cl  0  0  0  0  0
  129.4596  117.0502  100.1343 Cl  0  0  0  0  0
  1  2  1  0  0  0
  1 22  1  0  0  0
  3  9  1  0  0  0
  4  5  1  0  0  0
  6  7  1  0  0  0
  6 16  1  0  0  0
  8  3  1  0  0  0
  8  1  1  0  0  0
 10 11  1  0  0  0
 12  3  1  0  0  0
 13 12  1  0  0  0
 14  9  1  0  0  0
 15  7  1  0  0  0
 16  4  1  0  0  0
 17  5  1  0  0  0
 17 18  1  0  0  0
 18 19  1  0  0  0
 19 20  1  0  0  0
 20 21  1  0  0  0
 21  5  1  0  0  0
 23 24  1  0  0  0
 25 26  1  0  0  0
 25 30  1  0  0  0
 26 29  1  0  0  0
 27 22  1  0  0  0
  6  2  2  0  0  0
  7  8  2  0  0  0
  9 10  2  0  0  0
 11 12  2  0  0  0
 16 28  2  0  0  0
 22 23  2  0  0  0
 24 25  2  0  0  0
 26 27  2  0  0  0
M  END
> <rmsd>
0.619678795

$$$$
CHEMBL3647320_8GUR


 32 34  0  0  0  0  0  0  0  0999 V2000
  131.8713  124.8347  100.8151 C   0  0  0  0  0
  133.1699  124.9268  100.0359 C   0  0  0  0  0
  133.3295  123.7207   99.1284 C   0  0  0  0  0
  133.7258  122.4962   99.9390 C   0  0  0  0  0
  134.8625  121.1550   98.1629 C   0  0  0  0  0
  136.8991  121.9101   97.0567 C   0  0  0  0  0
  137.7630  120.7059   97.0735 C   0  0  0  0  0
  137.8868  119.9757   98.2645 C   0  0  0  0  0
  138.6869  118.8295   98.3311 C   0  0  0  0  0
  139.4074  118.4327   97.1995 C   0  0  0  0  0
  139.2986  119.1515   96.0086 C   0  0  0  0  0
  138.4754  120.2866   95.9298 C   0  0  0  0  0
  138.9321  120.5622   93.5016 C   0  0  0  0  0
  137.8975  119.8741   92.6188 C   0  0  0  0  0
  138.5329  119.5460   91.2846 C   0  0  0  0  0
  137.4146  118.5877   93.2610 C   0  0  0  0  0
  138.8365  118.0876   99.6270 C   0  0  0  0  0
  133.3241  119.2576   98.1922 C   0  0  0  0  0
  132.5552  118.1049   98.0851 C   0  0  0  0  0
  131.4397  117.9993   98.9289 C   0  0  0  0  0
  131.8966  120.1301   99.9127 C   0  0  0  0  0
  133.0149  120.2669   99.0878 C   0  0  0  0  0
  133.8617  121.3325   99.0670 N   0  0  0  0  0
  135.7867  122.0488   97.9520 N   0  0  0  0  0
  131.1386  118.9996   99.8120 N   0  0  0  0  0
  137.1882  122.8759   96.3017 O   0  0  0  0  0
  138.3522  120.9971   94.7286 O   0  0  0  0  0
  136.8119  120.7252   92.4103 O   0  0  0  0  0
  139.8620  118.6532  100.3614 F   0  0  0  0  0
  139.1301  116.7556   99.3914 F   0  0  0  0  0
  137.6637  118.1576  100.3593 F   0  0  0  0  0
  134.7043  119.6776   97.3324 S   0  0  0  0  0
  1  2  1  0  0  0
  2  3  1  0  0  0
  3  4  1  0  0  0
  4 23  1  0  0  0
  5 32  1  0  0  0
  6 24  1  0  0  0
  6  7  1  0  0  0
  8  9  1  0  0  0
 10 11  1  0  0  0
 12 27  1  0  0  0
 12  7  1  0  0  0
 13 27  1  0  0  0
 13 14  1  0  0  0
 14 15  1  0  0  0
 14 16  1  0  0  0
 14 28  1  0  0  0
 17  9  1  0  0  0
 17 29  1  0  0  0
 17 30  1  0  0  0
 17 31  1  0  0  0
 18 32  1  0  0  0
 19 20  1  0  0  0
 21 25  1  0  0  0
 22 23  1  0  0  0
 22 18  1  0  0  0
 23  5  1  0  0  0
  5 24  2  0  0  0
  6 26  2  0  0  0
  7  8  2  0  0  0
  9 10  2  0  0  0
 11 12  2  0  0  0
 18 19  2  0  0  0
 20 25  2  0  0  0
 21 22  2  0  0  0
M  END
> <rmsd>
0.894140244

$$$$
CHEMBL3114527_5ZTY


 26 29  0  0  0  0  0  0  0  0999 V2000
  137.9969  121.2767   96.1747 C   0  0  0  0  0
  136.4663  122.9481   97.2859 C   0  0  0  0  0
  135.2370  123.2221   98.0366 C   0  0  0  0  0
  133.4084  122.9224   99.0527 C   0  0  0  0  0
  132.2398  122.4206   99.6566 C   0  0  0  0  0
  131.4011  123.3702  100.2843 C   0  0  0  0  0
  131.7299  124.7418  100.2973 C   0  0  0  0  0
  132.9066  125.1989   99.6827 C   0  0  0  0  0
  133.7198  124.2516   99.0699 C   0  0  0  0  0
  131.8704  120.9785   99.6580 C   0  0  0  0  0
  130.6825  120.5558  100.2798 C   0  0  0  0  0
  130.3220  119.2053  100.2899 C   0  0  0  0  0
  131.1457  118.2585   99.6777 C   0  0  0  0  0
  132.3290  118.6621   99.0558 C   0  0  0  0  0
  132.6877  120.0129   99.0468 C   0  0  0  0  0
  138.8612  120.2932   96.9650 C   0  0  0  0  0
  138.1113  118.9861   97.1846 C   0  0  0  0  0
  138.7620  117.9560   96.2873 C   0  0  0  0  0
  140.1794  118.4367   96.0977 C   0  0  0  0  0
  140.0966  119.9472   96.1454 C   0  0  0  0  0
  139.2727  120.8703   98.3189 C   0  0  0  0  0
  136.7774  121.6084   96.9000 N   0  0  0  0  0
  134.3651  122.2458   98.3971 N   0  0  0  0  0
  134.8778  124.4709   98.4311 N   0  0  0  0  0
  137.2447  123.8936   96.9872 O   0  0  0  0  0
  139.9917  122.0579   98.1606 O   0  0  0  0  0
  1 22  1  0  0  0
  1 16  1  0  0  0
  2  3  1  0  0  0
  4 23  1  0  0  0
  5  6  1  0  0  0
  5 10  1  0  0  0
  7  8  1  0  0  0
  9 24  1  0  0  0
  9  4  1  0  0  0
 11 12  1  0  0  0
 13 14  1  0  0  0
 15 10  1  0  0  0
 16 17  1  0  0  0
 16 21  1  0  0  0
 17 18  1  0  0  0
 18 19  1  0  0  0
 19 20  1  0  0  0
 20 16  1  0  0  0
 21 26  1  0  0  0
 22  2  1  0  0  0
 24  3  1  0  0  0
  2 25  2  0  0  0
  3 23  2  0  0  0
  4  5  2  0  0  0
  6  7  2  0  0  0
  8  9  2  0  0  0
 10 11  2  0  0  0
 12 13  2  0  0  0
 14 15  2  0  0  0
M  END
> <rmsd>
0.595541894

$$$$
CHEMBL2316279_5ZTY


 25 27  0  0  0  0  0  0  0  0999 V2000
  132.7639  126.5509  101.2390 C   0  0  0  0  0
  133.6089  125.5315  100.4988 C   0  0  0  0  0
  133.2331  124.1204  100.9248 C   0  0  0  0  0
  131.8974  123.6953  100.3266 C   0  0  0  0  0
  132.0182  123.4340   98.8286 C   0  0  0  0  0
  134.0407  122.3824   97.9538 C   0  0  0  0  0
  134.8542  121.2545   97.6669 C   0  0  0  0  0
  136.1637  121.4729   97.0074 C   0  0  0  0  0
  138.3266  120.5327   96.0686 C   0  0  0  0  0
  139.3277  121.0932   97.0856 C   0  0  0  0  0
  139.6231  120.0797   98.1907 C   0  0  0  0  0
  140.1489  118.7816   97.5874 C   0  0  0  0  0
  139.1209  118.1995   96.6229 C   0  0  0  0  0
  138.8203  119.1980   95.5053 C   0  0  0  0  0
  134.3788  119.9638   98.0252 C   0  0  0  0  0
  133.1306  119.8879   98.6381 C   0  0  0  0  0
  132.3501  118.8551   99.1104 C   0  0  0  0  0
  132.6736  117.4025   99.0883 C   0  0  0  0  0
  132.3937  121.0021   98.8893 C   0  0  0  0  0
  132.8257  122.2492   98.5669 N   0  0  0  0  0
  137.0096  120.3683   96.6729 N   0  0  0  0  0
  131.2034  119.3725   99.6128 N   0  0  0  0  0
  136.5364  122.6470   96.7342 O   0  0  0  0  0
  135.0466  118.9182   97.8040 O   0  0  0  0  0
  131.2626  120.6703   99.4632 O   0  0  0  0  0
  1  2  1  0  0  0
  2  3  1  0  0  0
  3  4  1  0  0  0
  4  5  1  0  0  0
  5 20  1  0  0  0
  7  8  1  0  0  0
  7 15  1  0  0  0
  8 21  1  0  0  0
  9 21  1  0  0  0
  9 10  1  0  0  0
 10 11  1  0  0  0
 11 12  1  0  0  0
 12 13  1  0  0  0
 13 14  1  0  0  0
 14  9  1  0  0  0
 15 16  1  0  0  0
 16 17  1  0  0  0
 18 17  1  0  0  0
 19 25  1  0  0  0
 19 20  1  0  0  0
 20  6  1  0  0  0
 22 25  1  0  0  0
  6  7  2  0  0  0
  8 23  2  0  0  0
 15 24  2  0  0  0
 17 22  2  0  0  0
 19 16  2  0  0  0
M  END
> <rmsd>
0.671549439

$$$$
CHEMBL3890458_8GUT


 25 26  0  0  0  0  0  0  0  0999 V2000
  137.8156  117.1979   98.0397 C   0  0  0  0  0
  139.0903  117.8855   98.5096 C   0  0  0  0  0
  140.2767  116.9575   98.2774 C   0  0  0  0  0
  139.2786  119.2817   97.8793 C   0  0  0  0  0
  139.4668  119.1496   96.3661 C   0  0  0  0  0
  140.5134  119.9291   98.5198 C   0  0  0  0  0
  137.7534  121.3701   97.6380 C   0  0  0  0  0
  136.5575  122.0784   98.1180 C   0  0  0  0  0
  135.1260  123.9744   98.0061 C   0  0  0  0  0
  134.2953  123.4416   98.9939 C   0  0  0  0  0
  134.6147  122.1946   99.5552 C   0  0  0  0  0
  135.7504  121.5124   99.1111 C   0  0  0  0  0
  133.7506  121.5655  100.6022 C   0  0  0  0  0
  132.8134  120.5763   99.9936 C   0  0  0  0  0
  133.2010  119.2384   99.8544 C   0  0  0  0  0
  132.3321  118.3152   99.2652 C   0  0  0  0  0
  131.0759  118.7287   98.8113 C   0  0  0  0  0
  130.6890  120.0657   98.9448 C   0  0  0  0  0
  131.5576  120.9893   99.5339 C   0  0  0  0  0
  140.8405  121.1451   97.9166 O   0  0  0  0  0
  138.4662  121.8920   96.7388 O   0  0  0  0  0
  138.0871  120.0826   98.1790 N   0  0  0  0  0
  136.2264  123.2905   97.5932 N   0  0  0  0  0
  130.2341  117.8341   98.2405 F   0  0  0  0  0
  132.8844  124.3559   99.5035 Cl  0  0  0  0  0
  1  2  1  0  0  0
  2  3  1  0  0  0
  4  2  1  0  0  0
  4  5  1  0  0  0
  4  6  1  0  0  0
  4 22  1  0  0  0
  6 20  1  0  0  0
  7  8  1  0  0  0
  9 23  1  0  0  0
 10 11  1  0  0  0
 10 25  1  0  0  0
 12  8  1  0  0  0
 13 11  1  0  0  0
 13 14  1  0  0  0
 15 16  1  0  0  0
 17 18  1  0  0  0
 17 24  1  0  0  0
 19 14  1  0  0  0
 22  7  1  0  0  0
  7 21  2  0  0  0
  8 23  2  0  0  0
  9 10  2  0  0  0
 11 12  2  0  0  0
 14 15  2  0  0  0
 16 17  2  0  0  0
 18 19  2  0  0  0
M  END
> <rmsd>
0.564737976

$$$$
CHEMBL497681_5ZTY


 30 32  0  0  0  0  0  0  0  0999 V2000
  131.3075  124.9587  101.9700 C   0  0  0  0  0
  132.1955  125.9204  101.2036 C   0  0  0  0  0
  132.0394  125.7181   99.7041 C   0  0  0  0  0
  132.9214  124.5842   99.2059 C   0  0  0  0  0
  132.2400  123.2345   99.4286 C   0  0  0  0  0
  134.2755  122.2601   98.4415 C   0  0  0  0  0
  135.0701  121.1887   98.0189 C   0  0  0  0  0
  136.3976  121.4855   97.4246 C   0  0  0  0  0
  138.5516  120.6744   96.3556 C   0  0  0  0  0
  139.3717  119.3975   96.3588 C   0  0  0  0  0
  138.3630  121.1764   94.9569 C   0  0  0  0  0
  138.8995  122.4180   94.5983 C   0  0  0  0  0
  138.7269  122.9103   93.3011 C   0  0  0  0  0
  138.0156  122.1629   92.3579 C   0  0  0  0  0
  137.4759  120.9226   92.7111 C   0  0  0  0  0
  137.6479  120.4294   94.0078 C   0  0  0  0  0
  134.5703  119.8809   98.1755 C   0  0  0  0  0
  133.3035  119.6869   98.7466 C   0  0  0  0  0
  132.7839  118.3945   98.9136 C   0  0  0  0  0
  131.5242  118.2056   99.4823 C   0  0  0  0  0
  130.7621  119.3069   99.8947 C   0  0  0  0  0
  128.9036  117.8812  100.7216 C   0  0  0  0  0
  129.4968  117.2713  101.9778 C   0  0  0  0  0
  131.2739  120.5958   99.7290 C   0  0  0  0  0
  132.5424  120.8085   99.1576 C   0  0  0  0  0
  133.0419  122.0759   98.9974 N   0  0  0  0  0
  137.2646  120.4308   96.9937 N   0  0  0  0  0
  136.7701  122.6849   97.2996 O   0  0  0  0  0
  135.2497  118.8832   97.8064 O   0  0  0  0  0
  129.4943  119.1509  100.4663 O   0  0  0  0  0
  1  2  1  0  0  0
  2  3  1  0  0  0
  3  4  1  0  0  0
  4  5  1  0  0  0
  5 26  1  0  0  0
  7  8  1  0  0  0
  7 17  1  0  0  0
  8 27  1  0  0  0
  9 27  1  0  0  0
  9 10  1  0  0  0
  9 11  1  0  0  0
 12 13  1  0  0  0
 14 15  1  0  0  0
 16 11  1  0  0  0
 17 18  1  0  0  0
 19 20  1  0  0  0
 21 30  1  0  0  0
 21 24  1  0  0  0
 22 30  1  0  0  0
 22 23  1  0  0  0
 25 26  1  0  0  0
 25 18  1  0  0  0
 26  6  1  0  0  0
  6  7  2  0  0  0
  8 28  2  0  0  0
 11 12  2  0  0  0
 13 14  2  0  0  0
 15 16  2  0  0  0
 17 29  2  0  0  0
 18 19  2  0  0  0
 20 21  2  0  0  0
 24 25  2  0  0  0
M  END
> <rmsd>
0.56720227

$$$$
CHEMBL3114521_5ZTY


 28 31  0  0  0  0  0  0  0  0999 V2000
  133.1982  125.0801   99.9709 C   0  0  0  0  0
  132.0818  124.5772  100.6573 C   0  0  0  0  0
  131.7118  123.2220  100.5294 C   0  0  0  0  0
  132.4470  122.3328   99.7117 C   0  0  0  0  0
  132.0319  120.9079   99.5942 C   0  0  0  0  0
  132.7476  120.0002   98.7957 C   0  0  0  0  0
  132.3471  118.6652   98.6946 C   0  0  0  0  0
  131.2230  118.2191   99.3926 C   0  0  0  0  0
  130.5004  119.1081  100.1909 C   0  0  0  0  0
  130.9026  120.4430  100.2906 C   0  0  0  0  0
  133.5594  122.8751   99.0405 C   0  0  0  0  0
  135.2803  123.2358   97.8412 C   0  0  0  0  0
  133.9120  124.1903   99.1716 C   0  0  0  0  0
  135.6694  125.7137   98.2435 C   0  0  0  0  0
  135.0223  126.4802   97.1055 C   0  0  0  0  0
  136.3971  122.9905   96.9117 C   0  0  0  0  0
  137.6485  121.3777   95.4297 C   0  0  0  0  0
  137.5650  119.9467   95.0225 C   0  0  0  0  0
  138.1765  118.9447   95.7922 C   0  0  0  0  0
  138.0658  117.6047   95.4073 C   0  0  0  0  0
  137.3428  117.2614   94.2612 C   0  0  0  0  0
  136.7269  118.2576   93.4984 C   0  0  0  0  0
  136.8356  119.5979   93.8803 C   0  0  0  0  0
  134.4132  122.2539   98.2020 N   0  0  0  0  0
  134.9997  124.4312   98.4252 N   0  0  0  0  0
  136.5660  121.6885   96.3493 N   0  0  0  0  0
  137.2003  123.9154   96.6149 O   0  0  0  0  0
  138.8767  119.2621   96.9097 F   0  0  0  0  0
  2  3  1  0  0  0
  4  5  1  0  0  0
  4 11  1  0  0  0
  6  7  1  0  0  0
  8  9  1  0  0  0
 10  5  1  0  0  0
 11 24  1  0  0  0
 12 25  1  0  0  0
 12 16  1  0  0  0
 13  1  1  0  0  0
 14 25  1  0  0  0
 14 15  1  0  0  0
 16 26  1  0  0  0
 17 26  1  0  0  0
 17 18  1  0  0  0
 19 20  1  0  0  0
 19 28  1  0  0  0
 21 22  1  0  0  0
 23 18  1  0  0  0
 25 13  1  0  0  0
  1  2  2  0  0  0
  3  4  2  0  0  0
  5  6  2  0  0  0
  7  8  2  0  0  0
  9 10  2  0  0  0
 12 24  2  0  0  0
 13 11  2  0  0  0
 16 27  2  0  0  0
 18 19  2  0  0  0
 20 21  2  0  0  0
 22 23  2  0  0  0
M  END
> <rmsd>
0.662619948

$$$$
CHEMBL200143_5ZTY


 27 29  0  0  0  0  0  0  0  0999 V2000
  132.1194  125.5744  102.7166 C   0  0  0  0  0
  132.4357  126.2275  101.3842 C   0  0  0  0  0
  131.8854  125.3937  100.2410 C   0  0  0  0  0
  132.7505  124.1684  100.0155 C   0  0  0  0  0
  132.1738  123.3450   98.8772 C   0  0  0  0  0
  134.2207  122.3147   98.1031 C   0  0  0  0  0
  135.0565  121.2245   97.8327 C   0  0  0  0  0
  136.3927  121.4883   97.2422 C   0  0  0  0  0
  138.5984  120.6211   96.3353 C   0  0  0  0  0
  139.4518  119.3788   96.5131 C   0  0  0  0  0
  138.4390  120.9476   94.8821 C   0  0  0  0  0
  138.9529  122.1533   94.3920 C   0  0  0  0  0
  138.8066  122.4827   93.0411 C   0  0  0  0  0
  138.1442  121.6075   92.1753 C   0  0  0  0  0
  137.6272  120.4024   92.6596 C   0  0  0  0  0
  137.7729  120.0721   94.0102 C   0  0  0  0  0
  134.5870  119.9281   98.1305 C   0  0  0  0  0
  133.3070  119.7627   98.6836 C   0  0  0  0  0
  132.8132  118.4839   98.9861 C   0  0  0  0  0
  131.5386  118.3280   99.5340 C   0  0  0  0  0
  130.7445  119.4476   99.7853 C   0  0  0  0  0
  131.2231  120.7254   99.4895 C   0  0  0  0  0
  132.5046  120.9015   98.9370 C   0  0  0  0  0
  132.9839  122.1511   98.6476 N   0  0  0  0  0
  137.2997  120.4165   96.9632 N   0  0  0  0  0
  136.7367  122.6751   96.9850 O   0  0  0  0  0
  135.3047  118.9152   97.9027 O   0  0  0  0  0
  1  2  1  0  0  0
  2  3  1  0  0  0
  3  4  1  0  0  0
  4  5  1  0  0  0
  5 24  1  0  0  0
  7  8  1  0  0  0
  7 17  1  0  0  0
  8 25  1  0  0  0
  9 25  1  0  0  0
  9 10  1  0  0  0
  9 11  1  0  0  0
 12 13  1  0  0  0
 14 15  1  0  0  0
 16 11  1  0  0  0
 17 18  1  0  0  0
 19 20  1  0  0  0
 21 22  1  0  0  0
 23 24  1  0  0  0
 23 18  1  0  0  0
 24  6  1  0  0  0
  6  7  2  0  0  0
  8 26  2  0  0  0
 11 12  2  0  0  0
 13 14  2  0  0  0
 15 16  2  0  0  0
 17 27  2  0  0  0
 18 19  2  0  0  0
 20 21  2  0  0  0
 22 23  2  0  0  0
M  END
> <rmsd>
0.615476906

$$$$
CHEMBL264521_5ZTY


 29 33  0  0  0  0  0  0  0  0999 V2000
  135.1816  125.9313  100.8156 C   0  0  0  0  0
  133.7845  125.6233  100.3209 C   0  0  0  0  0
  133.3512  124.2673  100.8448 C   0  0  0  0  0
  131.9617  123.9176  100.3343 C   0  0  0  0  0
  131.9861  123.5642   98.8495 C   0  0  0  0  0
  133.9213  122.4013   98.0197 C   0  0  0  0  0
  134.6928  121.2660   97.7452 C   0  0  0  0  0
  136.0169  121.4510   97.1004 C   0  0  0  0  0
  138.1641  120.4608   96.1793 C   0  0  0  0  0
  138.6523  119.1081   95.6287 C   0  0  0  0  0
  140.0054  119.3241   94.9309 C   0  0  0  0  0
  141.0340  119.8745   95.9349 C   0  0  0  0  0
  141.2069  118.8668   97.0825 C   0  0  0  0  0
  139.8618  118.6447   97.7925 C   0  0  0  0  0
  138.8394  118.1029   96.7809 C   0  0  0  0  0
  139.3592  119.9841   98.3543 C   0  0  0  0  0
  139.1757  121.0003   97.2115 C   0  0  0  0  0
  140.5267  121.2096   96.5082 C   0  0  0  0  0
  134.1768  120.0015   98.0983 C   0  0  0  0  0
  132.9117  119.9110   98.7009 C   0  0  0  0  0
  132.3685  118.6646   99.0501 C   0  0  0  0  0
  131.1060  118.5824   99.6400 C   0  0  0  0  0
  130.3728  119.7439   99.8856 C   0  0  0  0  0
  130.9019  120.9902   99.5446 C   0  0  0  0  0
  132.1740  121.0928   98.9539 C   0  0  0  0  0
  132.7034  122.3116   98.6173 N   0  0  0  0  0
  136.8353  120.3263   96.7648 N   0  0  0  0  0
  136.4267  122.6162   96.8407 O   0  0  0  0  0
  134.8398  118.9506   97.8766 O   0  0  0  0  0
  1  2  1  0  0  0
  2  3  1  0  0  0
  3  4  1  0  0  0
  4  5  1  0  0  0
  5 26  1  0  0  0
  7  8  1  0  0  0
  7 19  1  0  0  0
  8 27  1  0  0  0
  9 27  1  0  0  0
  9 10  1  0  0  0
 10 11  1  0  0  0
 12 11  1  0  0  0
 12 13  1  0  0  0
 14 13  1  0  0  0
 14 15  1  0  0  0
 14 16  1  0  0  0
 15 10  1  0  0  0
 17 16  1  0  0  0
 17 18  1  0  0  0
 17  9  1  0  0  0
 18 12  1  0  0  0
 19 20  1  0  0  0
 21 22  1  0  0  0
 23 24  1  0  0  0
 25 26  1  0  0  0
 25 20  1  0  0  0
 26  6  1  0  0  0
  6  7  2  0  0  0
  8 28  2  0  0  0
 19 29  2  0  0  0
 20 21  2  0  0  0
 22 23  2  0  0  0
 24 25  2  0  0  0
M  END
> <rmsd>
0.596959591

$$$$
CHEMBL3114524_5ZTY


 28 33  0  0  0  0  0  0  0  0999 V2000
  139.3729  118.7094   94.8264 C   0  0  0  0  0
  139.1715  118.1988   96.2621 C   0  0  0  0  0
  140.3860  118.5983   97.1155 C   0  0  0  0  0
  140.5358  120.1280   97.1314 C   0  0  0  0  0
  140.7268  120.6343   95.6921 C   0  0  0  0  0
  139.5168  120.2397   94.8289 C   0  0  0  0  0
  138.2446  120.8642   95.4233 C   0  0  0  0  0
  138.0392  120.3702   96.8686 C   0  0  0  0  0
  137.9042  118.8379   96.8540 C   0  0  0  0  0
  139.2628  120.7525   97.7240 C   0  0  0  0  0
  136.5879  122.3504   97.6070 C   0  0  0  0  0
  135.3225  122.8075   98.1892 C   0  0  0  0  0
  133.3895  122.7753   99.0431 C   0  0  0  0  0
  132.1328  122.4419   99.5831 C   0  0  0  0  0
  131.3206  123.5234   99.9950 C   0  0  0  0  0
  131.7583  124.8582   99.8661 C   0  0  0  0  0
  133.0201  125.1454   99.3216 C   0  0  0  0  0
  133.8058  124.0698   98.9216 C   0  0  0  0  0
  131.6470  121.0424   99.7301 C   0  0  0  0  0
  132.4328  119.9489   99.3294 C   0  0  0  0  0
  131.9644  118.6400   99.4731 C   0  0  0  0  0
  130.7012  118.4070  100.0208 C   0  0  0  0  0
  129.9075  119.4827  100.4244 C   0  0  0  0  0
  130.3778  120.7909  100.2797 C   0  0  0  0  0
  136.8235  120.9472   97.4346 N   0  0  0  0  0
  134.3439  121.9515   98.5807 N   0  0  0  0  0
  135.0318  124.1200   98.3815 N   0  0  0  0  0
  137.4597  123.1932   97.2621 O   0  0  0  0  0
  1  2  1  0  0  0
  2  3  1  0  0  0
  3  4  1  0  0  0
  4  5  1  0  0  0
  5  6  1  0  0  0
  6  7  1  0  0  0
  6  1  1  0  0  0
  7  8  1  0  0  0
  8  9  1  0  0  0
  8 10  1  0  0  0
  8 25  1  0  0  0
  9  2  1  0  0  0
 10  4  1  0  0  0
 11 12  1  0  0  0
 13 26  1  0  0  0
 14 15  1  0  0  0
 14 19  1  0  0  0
 16 17  1  0  0  0
 18 27  1  0  0  0
 18 13  1  0  0  0
 20 21  1  0  0  0
 22 23  1  0  0  0
 24 19  1  0  0  0
 25 11  1  0  0  0
 27 12  1  0  0  0
 11 28  2  0  0  0
 12 26  2  0  0  0
 13 14  2  0  0  0
 15 16  2  0  0  0
 17 18  2  0  0  0
 19 20  2  0  0  0
 21 22  2  0  0  0
 23 24  2  0  0  0
M  END
> <rmsd>
0.61195153

$$$$
CHEMBL2381808_5ZTY


 27 29  0  0  0  0  0  0  0  0999 V2000
  131.7228  123.5355   98.7456 C   0  0  0  0  0
  131.4733  123.9657  100.1880 C   0  0  0  0  0
  132.7518  124.4712  100.8453 C   0  0  0  0  0
  133.1616  125.8280  100.2931 C   0  0  0  0  0
  132.2549  126.9164  100.8354 C   0  0  0  0  0
  133.8211  122.4291   98.2017 C   0  0  0  0  0
  134.6611  121.2978   98.1127 C   0  0  0  0  0
  134.1380  120.0555   98.5417 C   0  0  0  0  0
  132.0925  121.1152   99.0837 C   0  0  0  0  0
  130.8421  120.7919   99.5809 C   0  0  0  0  0
  130.9767  119.4192   99.7943 C   0  0  0  0  0
  129.8949  118.5316  100.3014 C   0  0  0  0  0
  129.1274  117.9361   99.1378 C   0  0  0  0  0
  136.0343  121.4609   97.5793 C   0  0  0  0  0
  138.2812  120.4570   96.9770 C   0  0  0  0  0
  139.1556  121.0860   98.0560 C   0  0  0  0  0
  140.3067  121.9201   97.4861 C   0  0  0  0  0
  141.0084  121.3268   96.2605 C   0  0  0  0  0
  141.2118  119.8213   96.3570 C   0  0  0  0  0
  140.0215  119.1043   95.7315 C   0  0  0  0  0
  138.8140  119.0646   96.6636 C   0  0  0  0  0
  132.5512  122.3355   98.6915 N   0  0  0  0  0
  132.8652  120.0260   99.0099 N   0  0  0  0  0
  132.2011  118.9696   99.4376 N   0  0  0  0  0
  136.9163  120.3393   97.4662 N   0  0  0  0  0
  134.8196  118.9959   98.4951 O   0  0  0  0  0
  136.4305  122.6030   97.2170 O   0  0  0  0  0
  1  2  1  0  0  0
  1 22  1  0  0  0
  2  3  1  0  0  0
  3  4  1  0  0  0
  4  5  1  0  0  0
  7  8  1  0  0  0
  7 14  1  0  0  0
  8 23  1  0  0  0
  9 22  1  0  0  0
 10 11  1  0  0  0
 12 11  1  0  0  0
 12 13  1  0  0  0
 14 25  1  0  0  0
 15 25  1  0  0  0
 15 16  1  0  0  0
 16 17  1  0  0  0
 17 18  1  0  0  0
 18 19  1  0  0  0
 19 20  1  0  0  0
 20 21  1  0  0  0
 21 15  1  0  0  0
 22  6  1  0  0  0
 23  9  1  0  0  0
 23 24  1  0  0  0
  6  7  2  0  0  0
  8 26  2  0  0  0
  9 10  2  0  0  0
 11 24  2  0  0  0
 14 27  2  0  0  0
M  END
> <rmsd>
0.807708979

$$$$
CHEMBL604307_5ZTY


 26 30  0  0  0  0  0  0  0  0999 V2000
  132.5623  123.7400   99.6372 C   0  0  0  0  0
  133.5217  122.7927   98.9989 C   0  0  0  0  0
  135.2336  122.0939   97.9383 C   0  0  0  0  0
  136.5315  122.0871   97.2420 C   0  0  0  0  0
  138.3631  120.7993   96.0514 C   0  0  0  0  0
  138.5112  119.4700   95.2881 C   0  0  0  0  0
  138.5071  118.2880   96.2760 C   0  0  0  0  0
  139.6622  118.4356   97.2793 C   0  0  0  0  0
  140.9958  118.4606   96.5152 C   0  0  0  0  0
  141.0141  119.6412   95.5313 C   0  0  0  0  0
  139.8516  119.4856   94.5348 C   0  0  0  0  0
  140.8444  120.9543   96.3157 C   0  0  0  0  0
  139.5077  120.9439   97.0753 C   0  0  0  0  0
  139.4975  119.7534   98.0527 C   0  0  0  0  0
  134.4070  121.0142   98.1966 C   0  0  0  0  0
  134.6885  119.5846   97.8618 C   0  0  0  0  0
  132.2036  120.6803   99.3496 C   0  0  0  0  0
  131.5146  121.0601  100.5126 C   0  0  0  0  0
  130.4317  120.3079  100.9768 C   0  0  0  0  0
  130.0257  119.1663  100.2822 C   0  0  0  0  0
  130.7025  118.7771   99.1240 C   0  0  0  0  0
  131.7850  119.5302   98.6609 C   0  0  0  0  0
  134.6749  123.2136   98.4393 N   0  0  0  0  0
  137.0610  120.8732   96.7034 N   0  0  0  0  0
  133.3227  121.4573   98.8706 N   0  0  0  0  0
  137.1743  123.1646   97.1190 O   0  0  0  0  0
  1  2  1  0  0  0
  3 23  1  0  0  0
  3  4  1  0  0  0
  4 24  1  0  0  0
  5 24  1  0  0  0
  5  6  1  0  0  0
  6  7  1  0  0  0
  8  7  1  0  0  0
  8  9  1  0  0  0
 10  9  1  0  0  0
 10 11  1  0  0  0
 10 12  1  0  0  0
 11  6  1  0  0  0
 13 12  1  0  0  0
 13 14  1  0  0  0
 13  5  1  0  0  0
 14  8  1  0  0  0
 15 25  1  0  0  0
 16 15  1  0  0  0
 18 19  1  0  0  0
 20 21  1  0  0  0
 22 17  1  0  0  0
 25 17  1  0  0  0
 25  2  1  0  0  0
  2 23  2  0  0  0
  3 15  2  0  0  0
  4 26  2  0  0  0
 17 18  2  0  0  0
 19 20  2  0  0  0
 21 22  2  0  0  0
M  END
> <rmsd>
0.648362637

$$$$
CHEMBL2163941_6PT0


 26 30  0  0  0  0  0  0  0  0999 V2000
  136.8410  122.6327   97.3131 O   0  0  0  0  0
  135.5369  118.9455   98.6357 O   0  0  0  0  0
  130.2337  121.6593   99.0794 O   0  0  0  0  0
  136.5381  121.4721   97.7054 C   0  0  0  0  0
  138.9074  120.6738   97.2691 C   0  0  0  0  0
  138.9470  120.7919   95.7403 C   0  0  0  0  0
  138.5575  119.4809   95.0400 C   0  0  0  0  0
  138.9540  118.2239   95.8247 C   0  0  0  0  0
  140.1527  118.4866   96.7289 C   0  0  0  0  0
  139.8150  119.5457   97.7848 C   0  0  0  0  0
  135.1475  121.1836   98.1371 C   0  0  0  0  0
  134.2131  122.2283   98.1162 C   0  0  0  0  0
  132.4870  120.8007   98.8927 C   0  0  0  0  0
  131.1369  120.6067   99.2310 C   0  0  0  0  0
  130.7007  119.3667   99.7029 C   0  0  0  0  0
  131.6002  118.3022   99.8046 C   0  0  0  0  0
  132.9363  118.4733   99.4308 C   0  0  0  0  0
  133.3901  119.7182   98.9678 C   0  0  0  0  0
  134.7262  119.9111   98.5822 C   0  0  0  0  0
  130.5751  122.7963   98.2883 C   0  0  0  0  0
  132.0309  123.2072   98.5374 C   0  0  0  0  0
  132.1498  123.9061   99.8874 C   0  0  0  0  0
  131.8302  125.3794   99.7257 C   0  0  0  0  0
  133.2698  124.9267   99.8358 C   0  0  0  0  0
  137.5429  120.4531   97.7303 N   0  0  0  0  0
  132.9191  122.0361   98.4901 N   0  0  0  0  0
  4 25  1  0  0  0
  4 11  1  0  0  0
  5 25  1  0  0  0
  5  6  1  0  0  0
  6  7  1  0  0  0
  7  8  1  0  0  0
  8  9  1  0  0  0
  9 10  1  0  0  0
 10  5  1  0  0  0
 12 26  1  0  0  0
 14 15  1  0  0  0
 14  3  1  0  0  0
 16 17  1  0  0  0
 18 19  1  0  0  0
 18 13  1  0  0  0
 19 11  1  0  0  0
 20  3  1  0  0  0
 20 21  1  0  0  0
 21 22  1  0  0  0
 21 26  1  0  0  0
 22 23  1  0  0  0
 23 24  1  0  0  0
 24 22  1  0  0  0
 26 13  1  0  0  0
  4  1  2  0  0  0
 11 12  2  0  0  0
 13 14  2  0  0  0
 15 16  2  0  0  0
 17 18  2  0  0  0
 19  2  2  0  0  0
M  END
> <rmsd>
0.522302628

$$$$
CHEMBL599882_5ZTY


 27 31  0  0  0  0  0  0  0  0999 V2000
  132.8357  124.4411  100.2586 C   0  0  0  0  0
  132.3166  123.5912   99.1156 C   0  0  0  0  0
  133.3369  122.5705   98.7264 C   0  0  0  0  0
  135.1708  121.7367   98.0249 C   0  0  0  0  0
  136.5309  121.6383   97.4680 C   0  0  0  0  0
  138.4943  120.1523   96.7506 C   0  0  0  0  0
  138.7927  118.6434   96.7230 C   0  0  0  0  0
  140.2000  118.3907   96.1570 C   0  0  0  0  0
  141.2367  119.1023   97.0413 C   0  0  0  0  0
  140.9531  120.6127   97.0707 C   0  0  0  0  0
  141.0249  121.1705   95.6395 C   0  0  0  0  0
  139.9915  120.4652   94.7455 C   0  0  0  0  0
  140.2807  118.9556   94.7297 C   0  0  0  0  0
  138.5836  120.7023   95.3139 C   0  0  0  0  0
  139.5444  120.8497   97.6372 C   0  0  0  0  0
  134.3401  120.7017   98.4176 C   0  0  0  0  0
  134.6361  119.2403   98.3105 C   0  0  0  0  0
  132.0210  120.5233   99.3581 C   0  0  0  0  0
  130.7295  121.0431   99.1747 C   0  0  0  0  0
  129.6109  120.3596   99.6597 C   0  0  0  0  0
  129.7718  119.1470  100.3338 C   0  0  0  0  0
  131.0508  118.6186  100.5230 C   0  0  0  0  0
  132.1685  119.3034  100.0377 C   0  0  0  0  0
  134.5413  122.9123   98.2204 N   0  0  0  0  0
  137.1546  120.3596   97.2916 N   0  0  0  0  0
  133.1766  121.2301   98.8577 N   0  0  0  0  0
  137.1446  122.6922   97.1485 O   0  0  0  0  0
  1  2  1  0  0  0
  2  3  1  0  0  0
  4 24  1  0  0  0
  4  5  1  0  0  0
  5 25  1  0  0  0
  6 25  1  0  0  0
  6  7  1  0  0  0
  8  7  1  0  0  0
  8  9  1  0  0  0
 10  9  1  0  0  0
 10 11  1  0  0  0
 10 15  1  0  0  0
 12 11  1  0  0  0
 12 13  1  0  0  0
 12 14  1  0  0  0
 13  8  1  0  0  0
 14  6  1  0  0  0
 15  6  1  0  0  0
 16 26  1  0  0  0
 17 16  1  0  0  0
 19 20  1  0  0  0
 21 22  1  0  0  0
 23 18  1  0  0  0
 26 18  1  0  0  0
 26  3  1  0  0  0
  3 24  2  0  0  0
  4 16  2  0  0  0
  5 27  2  0  0  0
 18 19  2  0  0  0
 20 21  2  0  0  0
 22 23  2  0  0  0
M  END
> <rmsd>
0.751156986

$$$$
CHEMBL2022365_5ZTY


 28 31  0  0  0  0  0  0  0  0999 V2000
  140.3970  118.6899   96.0160 C   0  0  0  0  0
  139.5176  119.6285   95.1944 C   0  0  0  0  0
  138.3138  120.0764   96.0186 C   0  0  0  0  0
  138.7800  120.7779   97.2956 C   0  0  0  0  0
  139.6565  119.8348   98.1153 C   0  0  0  0  0
  140.8612  119.3862   97.2926 C   0  0  0  0  0
  136.7302  122.2210   97.6947 C   0  0  0  0  0
  135.5425  122.5504   98.5306 C   0  0  0  0  0
  134.9856  123.8444   98.4994 C   0  0  0  0  0
  133.8719  124.1431   99.2881 C   0  0  0  0  0
  133.3118  123.1473  100.1123 C   0  0  0  0  0
  131.6680  124.6902  100.8872 C   0  0  0  0  0
  132.1956  125.6992  100.0817 C   0  0  0  0  0
  133.3025  125.4216   99.2807 C   0  0  0  0  0
  134.9462  121.5780   99.3684 C   0  0  0  0  0
  133.2417  120.8559  100.9749 C   0  0  0  0  0
  132.1924  120.1109  100.2165 C   0  0  0  0  0
  130.8680  120.5630  100.2233 C   0  0  0  0  0
  129.8898  119.8777   99.4964 C   0  0  0  0  0
  130.2350  118.7412   98.7587 C   0  0  0  0  0
  131.5586  118.2907   98.7468 C   0  0  0  0  0
  132.5368  118.9760   99.4737 C   0  0  0  0  0
  137.6304  121.1807   98.0922 N   0  0  0  0  0
  132.2297  123.4523  100.8866 N   0  0  0  0  0
  133.8516  121.8902  100.1335 N   0  0  0  0  0
  136.9567  122.8647   96.6338 O   0  0  0  0  0
  135.4156  120.4060   99.4035 O   0  0  0  0  0
  135.5462  124.8404   97.7021 O   0  0  0  0  0
  1  2  1  0  0  0
  2  3  1  0  0  0
  3  4  1  0  0  0
  4  5  1  0  0  0
  4 23  1  0  0  0
  5  6  1  0  0  0
  6  1  1  0  0  0
  7  8  1  0  0  0
  9 10  1  0  0  0
  9 28  1  0  0  0
 11 24  1  0  0  0
 11 25  1  0  0  0
 12 13  1  0  0  0
 14 10  1  0  0  0
 15  8  1  0  0  0
 16 25  1  0  0  0
 16 17  1  0  0  0
 18 19  1  0  0  0
 20 21  1  0  0  0
 22 17  1  0  0  0
 23  7  1  0  0  0
 25 15  1  0  0  0
  7 26  2  0  0  0
  8  9  2  0  0  0
 10 11  2  0  0  0
 12 24  2  0  0  0
 13 14  2  0  0  0
 15 27  2  0  0  0
 17 18  2  0  0  0
 19 20  2  0  0  0
 21 22  2  0  0  0
M  END
> <rmsd>
0.471165478

$$$$
CHEMBL3114526_5ZTY


 23 25  0  0  0  0  0  0  0  0999 V2000
  137.8728  120.9199   95.8669 C   0  0  0  0  0
  136.5193  122.6550   97.1044 C   0  0  0  0  0
  135.3483  122.9892   97.9213 C   0  0  0  0  0
  133.5511  122.7845   99.0144 C   0  0  0  0  0
  132.3784  122.3460   99.6581 C   0  0  0  0  0
  131.6391  123.3307  100.3530 C   0  0  0  0  0
  132.0651  124.6749  100.3910 C   0  0  0  0  0
  133.2422  125.0686   99.7347 C   0  0  0  0  0
  133.9570  124.0875   99.0561 C   0  0  0  0  0
  131.9072  120.9342   99.6341 C   0  0  0  0  0
  132.6241  119.9346   98.9555 C   0  0  0  0  0
  132.1703  118.6127   98.9413 C   0  0  0  0  0
  130.9911  118.2725   99.6072 C   0  0  0  0  0
  130.2665  119.2538  100.2866 C   0  0  0  0  0
  130.7219  120.5752  100.2996 C   0  0  0  0  0
  138.7033  119.8533   96.5747 C   0  0  0  0  0
  139.2317  120.3791   97.8970 C   0  0  0  0  0
  137.8732  118.6064   96.8190 C   0  0  0  0  0
  139.8786  119.4894   95.6927 C   0  0  0  0  0
  136.7171  121.3104   96.6647 N   0  0  0  0  0
  134.4263  122.0647   98.2938 N   0  0  0  0  0
  135.0975  124.2463   98.3695 N   0  0  0  0  0
  137.3476  123.5539   96.7958 O   0  0  0  0  0
  1 20  1  0  0  0
  1 16  1  0  0  0
  2  3  1  0  0  0
  4 21  1  0  0  0
  5  6  1  0  0  0
  5 10  1  0  0  0
  7  8  1  0  0  0
  9 22  1  0  0  0
  9  4  1  0  0  0
 11 12  1  0  0  0
 13 14  1  0  0  0
 15 10  1  0  0  0
 16 17  1  0  0  0
 16 18  1  0  0  0
 16 19  1  0  0  0
 20  2  1  0  0  0
 22  3  1  0  0  0
  2 23  2  0  0  0
  3 21  2  0  0  0
  4  5  2  0  0  0
  6  7  2  0  0  0
  8  9  2  0  0  0
 10 11  2  0  0  0
 12 13  2  0  0  0
 14 15  2  0  0  0
M  END
> <rmsd>
0.53778559

$$$$
CHEMBL3353439_8GUT


 30 33  0  0  0  0  0  0  0  0999 V2000
  132.0133  125.6684   99.5707 C   0  0  0  0  0
  131.4650  124.7414  100.4594 C   0  0  0  0  0
  133.1950  123.1799   99.9649 C   0  0  0  0  0
  133.7710  124.0966   99.0654 C   0  0  0  0  0
  133.1746  125.3421   98.8703 C   0  0  0  0  0
  134.9281  123.7519   98.3814 C   0  0  0  0  0
  135.5267  122.5045   98.5809 C   0  0  0  0  0
  134.9249  121.6046   99.4933 C   0  0  0  0  0
  133.1541  120.9974  101.0788 C   0  0  0  0  0
  132.1780  120.1291  100.3551 C   0  0  0  0  0
  132.6059  118.9358   99.7626 C   0  0  0  0  0
  131.6967  118.1337   99.0661 C   0  0  0  0  0
  130.3590  118.5257   98.9582 C   0  0  0  0  0
  129.9305  119.7204   99.5449 C   0  0  0  0  0
  130.8397  120.5223  100.2413 C   0  0  0  0  0
  136.7638  122.1874   97.8227 C   0  0  0  0  0
  138.6115  120.5572   97.2269 C   0  0  0  0  0
  138.2534  120.2645   95.7700 C   0  0  0  0  0
  139.5062  119.9508   94.9413 C   0  0  0  0  0
  140.6292  119.2925   95.7543 C   0  0  0  0  0
  140.0738  118.4684   96.9124 C   0  0  0  0  0
  139.2778  119.3439   97.8901 C   0  0  0  0  0
  141.4659  118.4135   94.8492 C   0  0  0  0  0
  132.0601  123.5311  100.6367 N   0  0  0  0  0
  133.7751  121.9541  100.1581 N   0  0  0  0  0
  137.4187  120.9237   97.9750 N   0  0  0  0  0
  135.4460  120.4740   99.7022 O   0  0  0  0  0
  137.2475  123.0451   97.0330 O   0  0  0  0  0
  129.4782  117.7488   98.2835 F   0  0  0  0  0
  131.1834  127.3644   99.3179 Br  0  0  0  0  0
  1 30  1  0  0  0
  2 24  1  0  0  0
  3  4  1  0  0  0
  4  6  1  0  0  0
  5  1  1  0  0  0
  7  8  1  0  0  0
  7 16  1  0  0  0
  8 25  1  0  0  0
  9 25  1  0  0  0
  9 10  1  0  0  0
 11 12  1  0  0  0
 13 14  1  0  0  0
 13 29  1  0  0  0
 15 10  1  0  0  0
 16 26  1  0  0  0
 17 26  1  0  0  0
 17 18  1  0  0  0
 18 19  1  0  0  0
 19 20  1  0  0  0
 20 21  1  0  0  0
 20 23  1  0  0  0
 21 22  1  0  0  0
 22 17  1  0  0  0
 25  3  1  0  0  0
  1  2  2  0  0  0
  3 24  2  0  0  0
  4  5  2  0  0  0
  6  7  2  0  0  0
  8 27  2  0  0  0
 10 11  2  0  0  0
 12 13  2  0  0  0
 14 15  2  0  0  0
 16 28  2  0  0  0
M  END
> <rmsd>
0.334276766

$$$$
CHEMBL3938697_8GUQ


 31 34  0  0  0  0  0  0  0  0999 V2000
  139.5849  124.3677   94.0853 C   0  0  0  0  0
  138.4843  124.6441   93.0909 C   0  0  0  0  0
  138.5712  123.2810   93.7613 C   0  0  0  0  0
  137.5538  123.1622   94.8649 C   0  0  0  0  0
  137.9037  122.7489   96.1686 C   0  0  0  0  0
  135.6237  122.8626   96.8587 C   0  0  0  0  0
  135.2362  123.2528   95.5737 C   0  0  0  0  0
  136.2027  123.3946   94.5797 C   0  0  0  0  0
  134.6234  122.7029   97.9246 C   0  0  0  0  0
  132.1286  122.8406   98.5978 C   0  0  0  0  0
  131.9174  121.4354   99.0796 C   0  0  0  0  0
  130.8686  120.6828   98.5441 C   0  0  0  0  0
  130.6707  119.3733   98.9854 C   0  0  0  0  0
  131.5183  118.8297   99.9517 C   0  0  0  0  0
  132.5565  119.6103  100.4639 C   0  0  0  0  0
  132.1587  123.9043   99.7017 C   0  0  0  0  0
  139.3131  122.3950   96.5283 C   0  0  0  0  0
  139.5329  120.9250   96.4070 C   0  0  0  0  0
  139.9830  120.3810   95.1986 C   0  0  0  0  0
  140.1685  119.0005   95.0782 C   0  0  0  0  0
  139.9008  118.1618   96.1646 C   0  0  0  0  0
  139.4458  118.7030   97.3709 C   0  0  0  0  0
  139.2602  120.0835   97.4918 C   0  0  0  0  0
  136.9368  122.6151   97.1173 N   0  0  0  0  0
  133.2378  122.9523   97.6490 N   0  0  0  0  0
  132.7332  120.8844  100.0215 N   0  0  0  0  0
  134.9939  122.3439   99.0739 O   0  0  0  0  0
  130.9639  123.8770  100.3972 F   0  0  0  0  0
  133.1974  123.6812  100.5864 F   0  0  0  0  0
  132.3111  125.1556   99.1333 F   0  0  0  0  0
  140.0807  116.8244   96.0476 F   0  0  0  0  0
  1  2  1  0  0  0
  2  3  1  0  0  0
  3  4  1  0  0  0
  3  1  1  0  0  0
  4  5  1  0  0  0
  6 24  1  0  0  0
  6  9  1  0  0  0
  7  8  1  0  0  0
  9 25  1  0  0  0
 10 25  1  0  0  0
 10 11  1  0  0  0
 10 16  1  0  0  0
 11 26  1  0  0  0
 12 13  1  0  0  0
 14 15  1  0  0  0
 16 28  1  0  0  0
 16 29  1  0  0  0
 16 30  1  0  0  0
 17  5  1  0  0  0
 17 18  1  0  0  0
 19 20  1  0  0  0
 21 22  1  0  0  0
 21 31  1  0  0  0
 23 18  1  0  0  0
  5 24  2  0  0  0
  6  7  2  0  0  0
  8  4  2  0  0  0
  9 27  2  0  0  0
 11 12  2  0  0  0
 13 14  2  0  0  0
 15 26  2  0  0  0
 18 19  2  0  0  0
 20 21  2  0  0  0
 22 23  2  0  0  0
M  END
> <rmsd>
0.734884739

$$$$
CHEMBL1631297_5ZTY


 28 30  0  0  0  0  0  0  0  0999 V2000
  131.5238  120.4612   99.9439 C   0  0  0  0  0
  130.5669  119.6240  100.5200 C   0  0  0  0  0
  130.4114  118.3188  100.0521 C   0  0  0  0  0
  131.2091  117.8528   99.0056 C   0  0  0  0  0
  132.1719  118.6840   98.4240 C   0  0  0  0  0
  132.3353  120.0062   98.8924 C   0  0  0  0  0
  135.2427  121.5921   97.6127 C   0  0  0  0  0
  134.4128  122.7023   97.6519 C   0  0  0  0  0
  133.2093  122.2140   98.1149 C   0  0  0  0  0
  131.7973  124.0560   99.0154 C   0  0  0  0  0
  130.5021  124.5210   98.8894 C   0  0  0  0  0
  129.8760  123.6720   97.9855 C   0  0  0  0  0
  130.8248  122.7354   97.6222 C   0  0  0  0  0
  130.5933  121.6485   96.6280 C   0  0  0  0  0
  132.8195  124.6536   99.9212 C   0  0  0  0  0
  134.7134  124.0946   97.2103 C   0  0  0  0  0
  136.6462  121.5438   97.1764 C   0  0  0  0  0
  138.7333  120.1021   96.7807 C   0  0  0  0  0
  139.0950  118.6404   96.9381 C   0  0  0  0  0
  138.9162  120.4938   95.3258 C   0  0  0  0  0
  139.6588  120.9284   97.6550 C   0  0  0  0  0
  133.3253  120.8850   98.3302 N   0  0  0  0  0
  134.5614  120.5064   98.0366 N   0  0  0  0  0
  131.9932  122.9670   98.2494 N   0  0  0  0  0
  137.3435  120.2912   97.1885 N   0  0  0  0  0
  137.2301  122.5943   96.7958 O   0  0  0  0  0
  133.0984  118.0478   97.0737 Cl  0  0  0  0  0
  129.2112  117.2683  100.7719 Cl  0  0  0  0  0
  2  3  1  0  0  0
  3 28  1  0  0  0
  4  5  1  0  0  0
  5 27  1  0  0  0
  6 22  1  0  0  0
  6  1  1  0  0  0
  7  8  1  0  0  0
  7 17  1  0  0  0
  9 24  1  0  0  0
  9 22  1  0  0  0
 11 12  1  0  0  0
 13 24  1  0  0  0
 14 13  1  0  0  0
 15 10  1  0  0  0
 16  8  1  0  0  0
 17 25  1  0  0  0
 18 25  1  0  0  0
 18 19  1  0  0  0
 18 20  1  0  0  0
 18 21  1  0  0  0
 22 23  1  0  0  0
 24 10  1  0  0  0
  1  2  2  0  0  0
  3  4  2  0  0  0
  5  6  2  0  0  0
  7 23  2  0  0  0
  8  9  2  0  0  0
 10 11  2  0  0  0
 12 13  2  0  0  0
 17 26  2  0  0  0
M  END
> <rmsd>
0.50654161

$$$$
CHEMBL524884_5ZTY


 33 37  0  0  0  0  0  0  0  0999 V2000
  132.9473  126.8966  100.5880 C   0  0  0  0  0
  133.7201  125.6989  100.0692 C   0  0  0  0  0
  133.1874  124.4150  100.6868 C   0  0  0  0  0
  131.8448  124.0217  100.0825 C   0  0  0  0  0
  132.0053  123.5147   98.6521 C   0  0  0  0  0
  133.9736  122.2304   98.1398 C   0  0  0  0  0
  134.7317  121.0562   98.0594 C   0  0  0  0  0
  136.1146  121.1435   97.5269 C   0  0  0  0  0
  138.3056  119.9575   96.9100 C   0  0  0  0  0
  138.3417  120.4532   95.4512 C   0  0  0  0  0
  139.7826  120.4179   94.9183 C   0  0  0  0  0
  140.3058  118.9738   94.9763 C   0  0  0  0  0
  140.2808  118.4642   96.4263 C   0  0  0  0  0
  141.1713  119.3675   97.2945 C   0  0  0  0  0
  140.6532  120.8139   97.2502 C   0  0  0  0  0
  140.6707  121.3149   95.7966 C   0  0  0  0  0
  139.2117  120.8490   97.7815 C   0  0  0  0  0
  138.8381  118.5150   96.9562 C   0  0  0  0  0
  134.1449  119.8475   98.4890 C   0  0  0  0  0
  132.8276  119.8490   98.9751 C   0  0  0  0  0
  132.2158  118.6587   99.3969 C   0  0  0  0  0
  130.9030  118.6595   99.8837 C   0  0  0  0  0
  130.2433  117.3716  100.2825 C   0  0  0  0  0
  130.1843  119.8601   99.9133 C   0  0  0  0  0
  130.7809  121.0512   99.4971 C   0  0  0  0  0
  132.1068  121.0653   99.0315 C   0  0  0  0  0
  132.7030  122.2302   98.6234 N   0  0  0  0  0
  136.9373  119.9732   97.4182 N   0  0  0  0  0
  136.5717  122.2630   97.1654 O   0  0  0  0  0
  134.7909  118.7644   98.4384 O   0  0  0  0  0
  131.1804  116.4831  100.7809 F   0  0  0  0  0
  129.6322  116.8101   99.1768 F   0  0  0  0  0
  129.2892  117.5998  101.2592 F   0  0  0  0  0
  1  2  1  0  0  0
  2  3  1  0  0  0
  3  4  1  0  0  0
  4  5  1  0  0  0
  5 27  1  0  0  0
  7  8  1  0  0  0
  7 19  1  0  0  0
  8 28  1  0  0  0
  9 28  1  0  0  0
  9 10  1  0  0  0
 11 10  1  0  0  0
 11 12  1  0  0  0
 13 12  1  0  0  0
 13 14  1  0  0  0
 13 18  1  0  0  0
 15 14  1  0  0  0
 15 16  1  0  0  0
 15 17  1  0  0  0
 16 11  1  0  0  0
 17  9  1  0  0  0
 18  9  1  0  0  0
 19 20  1  0  0  0
 21 22  1  0  0  0
 23 22  1  0  0  0
 23 31  1  0  0  0
 23 32  1  0  0  0
 23 33  1  0  0  0
 24 25  1  0  0  0
 26 27  1  0  0  0
 26 20  1  0  0  0
 27  6  1  0  0  0
  6  7  2  0  0  0
  8 29  2  0  0  0
 19 30  2  0  0  0
 20 21  2  0  0  0
 22 24  2  0  0  0
 25 26  2  0  0  0
M  END
> <rmsd>
0.686700881

$$$$
CHEMBL2179754_5ZTY


 32 35  0  0  0  0  0  0  0  0999 V2000
  135.8227  119.0055   99.5255 O   0  0  0  0  0
  136.8848  123.3924   96.9831 O   0  0  0  0  0
  135.0583  118.7872   98.5480 C   0  0  0  0  0
  133.9356  117.8191   98.6961 C   0  0  0  0  0
  132.6921  118.5389   99.0998 C   0  0  0  0  0
  131.8015  118.9996   98.1224 C   0  0  0  0  0
  130.6555  119.7090   98.4956 C   0  0  0  0  0
  130.3993  119.9631   99.8465 C   0  0  0  0  0
  131.2902  119.5088  100.8245 C   0  0  0  0  0
  132.4372  118.7998  100.4517 C   0  0  0  0  0
  136.1297  120.6247   97.1187 C   0  0  0  0  0
  136.3545  122.9761   98.0473 C   0  0  0  0  0
  136.0871  123.9283   99.1636 C   0  0  0  0  0
  134.6185  124.0491   99.4016 C   0  0  0  0  0
  133.8624  124.9704   98.6666 C   0  0  0  0  0
  132.4801  125.0573   98.8640 C   0  0  0  0  0
  131.8505  124.2204   99.7921 C   0  0  0  0  0
  132.6030  123.2931  100.5205 C   0  0  0  0  0
  133.9854  123.2056  100.3240 C   0  0  0  0  0
  137.5452  120.1478   96.9773 C   0  0  0  0  0
  138.0670  119.9505   95.6953 C   0  0  0  0  0
  139.3717  119.4787   95.5300 C   0  0  0  0  0
  140.1717  119.1925   96.6462 C   0  0  0  0  0
  142.3799  118.3388   97.5795 C   0  0  0  0  0
  143.6033  117.7045   96.9468 C   0  0  0  0  0
  143.5531  118.0631   95.4681 C   0  0  0  0  0
  142.1224  118.4763   95.1801 C   0  0  0  0  0
  139.6419  119.3852   97.9309 C   0  0  0  0  0
  138.3371  119.8574   98.0960 C   0  0  0  0  0
  135.2061  119.5115   97.3215 N   0  0  0  0  0
  135.9841  121.6045   98.1885 N   0  0  0  0  0
  141.5102  118.6990   96.4755 N   0  0  0  0  0
  3 30  1  0  0  0
  4  3  1  0  0  0
  4  5  1  0  0  0
  6  7  1  0  0  0
  8  9  1  0  0  0
 10  5  1  0  0  0
 11 30  1  0  0  0
 11 31  1  0  0  0
 11 20  1  0  0  0
 13 12  1  0  0  0
 13 14  1  0  0  0
 15 16  1  0  0  0
 17 18  1  0  0  0
 19 14  1  0  0  0
 21 22  1  0  0  0
 23 32  1  0  0  0
 23 28  1  0  0  0
 24 32  1  0  0  0
 24 25  1  0  0  0
 25 26  1  0  0  0
 26 27  1  0  0  0
 27 32  1  0  0  0
 29 20  1  0  0  0
 31 12  1  0  0  0
  3  1  2  0  0  0
  5  6  2  0  0  0
  7  8  2  0  0  0
  9 10  2  0  0  0
 12  2  2  0  0  0
 14 15  2  0  0  0
 16 17  2  0  0  0
 18 19  2  0  0  0
 20 21  2  0  0  0
 22 23  2  0  0  0
 28 29  2  0  0  0
M  END
> <rmsd>
0.324161142

$$$$
CHEMBL3949331_6KPF


 29 32  0  0  0  0  0  0  0  0999 V2000
  130.9111  119.0841   97.1817 C   0  0  0  0  0
  131.6339  119.5616   98.3897 C   0  0  0  0  0
  132.9038  120.5964   99.6792 C   0  0  0  0  0
  133.8682  121.6090  100.2474 C   0  0  0  0  0
  134.6620  120.9890  101.3884 C   0  0  0  0  0
  133.0939  122.7962  100.8212 C   0  0  0  0  0
  132.3326  123.5742   99.7561 C   0  0  0  0  0
  132.8683  124.9898   99.6998 C   0  0  0  0  0
  131.5696  124.7010  100.4197 C   0  0  0  0  0
  135.7118  121.2606   98.4863 C   0  0  0  0  0
  136.5752  121.8661   97.4622 C   0  0  0  0  0
  137.2866  123.8011   96.2824 C   0  0  0  0  0
  138.2072  123.0506   95.5385 C   0  0  0  0  0
  138.2796  121.6608   95.7466 C   0  0  0  0  0
  137.4628  121.0769   96.7244 C   0  0  0  0  0
  139.3083  119.4693   95.0026 C   0  0  0  0  0
  139.6054  118.9253   96.3918 C   0  0  0  0  0
  138.1501  118.7528   94.3166 C   0  0  0  0  0
  139.0311  123.7199   94.4737 C   0  0  0  0  0
  139.7463  124.9435   95.0262 C   0  0  0  0  0
  140.5069  123.6536   94.8322 C   0  0  0  0  0
  132.5434  120.5527   98.3774 N   0  0  0  0  0
  132.2286  119.7005  100.4293 N   0  0  0  0  0
  134.7960  122.0862   99.2187 N   0  0  0  0  0
  136.5051  123.2025   97.2188 N   0  0  0  0  0
  131.4596  119.0748   99.5918 O   0  0  0  0  0
  135.7743  120.0215   98.7151 O   0  0  0  0  0
  139.1723  120.8942   94.9762 O   0  0  0  0  0
  136.9908  118.8183   95.0674 F   0  0  0  0  0
  1  2  1  0  0  0
  2 26  1  0  0  0
  3 22  1  0  0  0
  4  3  1  0  0  0
  4  5  1  0  0  0
  4  6  1  0  0  0
  4 24  1  0  0  0
  6  7  1  0  0  0
  7  8  1  0  0  0
  8  9  1  0  0  0
  9  7  1  0  0  0
 10 11  1  0  0  0
 12 25  1  0  0  0
 13 14  1  0  0  0
 14 28  1  0  0  0
 15 11  1  0  0  0
 16 28  1  0  0  0
 16 17  1  0  0  0
 16 18  1  0  0  0
 18 29  1  0  0  0
 19 13  1  0  0  0
 19 20  1  0  0  0
 20 21  1  0  0  0
 21 19  1  0  0  0
 23 26  1  0  0  0
 24 10  1  0  0  0
  2 22  2  0  0  0
  3 23  2  0  0  0
 10 27  2  0  0  0
 11 25  2  0  0  0
 12 13  2  0  0  0
 14 15  2  0  0  0
M  END
> <rmsd>
0.713316977

$$$$
CHEMBL3354954_8GUQ


 26 30  0  0  0  0  0  0  0  0999 V2000
  138.3683  120.4875   96.1591 C   0  0  0  0  0
  139.4466  120.8294   97.1659 C   0  0  0  0  0
  139.9015  119.3799   97.1548 C   0  0  0  0  0
  138.8210  119.0435   96.1411 C   0  0  0  0  0
  136.4341  121.8771   97.0777 C   0  0  0  0  0
  135.0693  121.9052   97.6166 C   0  0  0  0  0
  133.2655  122.5196   98.6591 C   0  0  0  0  0
  134.3926  123.0015   98.1094 C   0  0  0  0  0
  134.8564  124.2416   98.7599 C   0  0  0  0  0
  133.8360  124.4484   99.9063 C   0  0  0  0  0
  132.7787  123.3305   99.8048 C   0  0  0  0  0
  132.4473  124.7490   99.3676 C   0  0  0  0  0
  132.2602  120.2644   99.0573 C   0  0  0  0  0
  131.0501  120.7578   99.5733 C   0  0  0  0  0
  130.0864  119.8905  100.0921 C   0  0  0  0  0
  130.3188  118.5147  100.0994 C   0  0  0  0  0
  131.5140  118.0070   99.5875 C   0  0  0  0  0
  132.4827  118.8703   99.0660 C   0  0  0  0  0
  138.5520  121.1916   94.8191 C   0  0  0  0  0
  137.0239  120.6245   96.7130 N   0  0  0  0  0
  134.3288  120.8001   97.8566 N   0  0  0  0  0
  133.2363  121.1766   98.5135 N   0  0  0  0  0
  137.0792  122.9511   96.9361 O   0  0  0  0  0
  137.6545  120.6854   93.8774 O   0  0  0  0  0
  133.6329  118.3376   98.5845 F   0  0  0  0  0
  129.3851  117.6724  100.6027 F   0  0  0  0  0
  1  2  1  0  0  0
  1 20  1  0  0  0
  1 19  1  0  0  0
  2  3  1  0  0  0
  3  4  1  0  0  0
  4  1  1  0  0  0
  5  6  1  0  0  0
  8  6  1  0  0  0
  9  8  1  0  0  0
 10  9  1  0  0  0
 10 11  1  0  0  0
 11 12  1  0  0  0
 11  7  1  0  0  0
 12 10  1  0  0  0
 14 15  1  0  0  0
 16 17  1  0  0  0
 16 26  1  0  0  0
 18 25  1  0  0  0
 18 13  1  0  0  0
 19 24  1  0  0  0
 20  5  1  0  0  0
 22 21  1  0  0  0
 22  7  1  0  0  0
 22 13  1  0  0  0
  5 23  2  0  0  0
  6 21  2  0  0  0
  7  8  2  0  0  0
 13 14  2  0  0  0
 15 16  2  0  0  0
 17 18  2  0  0  0
M  END
> <rmsd>
0.332740724

$$$$
CHEMBL3354953_8GUQ


 25 29  0  0  0  0  0  0  0  0999 V2000
  139.1719  119.2169   96.7328 C   0  0  0  0  0
  138.3945  120.3867   96.1835 C   0  0  0  0  0
  139.4912  120.6385   97.1896 C   0  0  0  0  0
  136.4704  121.7830   97.0686 C   0  0  0  0  0
  135.1053  121.8329   97.6052 C   0  0  0  0  0
  133.3091  122.4779   98.6425 C   0  0  0  0  0
  134.4435  122.9411   98.0918 C   0  0  0  0  0
  134.9241  124.1777   98.7367 C   0  0  0  0  0
  133.9056  124.4045   99.8810 C   0  0  0  0  0
  132.8328  123.3012   99.7837 C   0  0  0  0  0
  132.5219  124.7221   99.3394 C   0  0  0  0  0
  132.2713  120.2391   99.0505 C   0  0  0  0  0
  131.0692  120.7524   99.5657 C   0  0  0  0  0
  130.0926  119.9015  100.0874 C   0  0  0  0  0
  130.3039  118.5223  100.0985 C   0  0  0  0  0
  131.4909  117.9948   99.5874 C   0  0  0  0  0
  132.4725  118.8416   99.0630 C   0  0  0  0  0
  138.6758  120.8107   94.7536 C   0  0  0  0  0
  137.0434  120.5224   96.7105 N   0  0  0  0  0
  134.3490  120.7396   97.8499 N   0  0  0  0  0
  133.2610  121.1347   98.5035 N   0  0  0  0  0
  137.1302  122.8471   96.9197 O   0  0  0  0  0
  137.9220  120.0354   93.8724 O   0  0  0  0  0
  133.6139  118.2900   98.5822 F   0  0  0  0  0
  129.3577  117.6959  100.6046 F   0  0  0  0  0
  1  2  1  0  0  0
  2  3  1  0  0  0
  2 19  1  0  0  0
  2 18  1  0  0  0
  3  1  1  0  0  0
  4  5  1  0  0  0
  7  5  1  0  0  0
  8  7  1  0  0  0
  9  8  1  0  0  0
  9 10  1  0  0  0
 10 11  1  0  0  0
 10  6  1  0  0  0
 11  9  1  0  0  0
 13 14  1  0  0  0
 15 16  1  0  0  0
 15 25  1  0  0  0
 17 24  1  0  0  0
 17 12  1  0  0  0
 18 23  1  0  0  0
 19  4  1  0  0  0
 21 20  1  0  0  0
 21  6  1  0  0  0
 21 12  1  0  0  0
  4 22  2  0  0  0
  5 20  2  0  0  0
  6  7  2  0  0  0
 12 13  2  0  0  0
 14 15  2  0  0  0
 16 17  2  0  0  0
M  END
> <rmsd>
0.428086758

$$$$
CHEMBL3889602_5ZTY


 37 43  0  0  0  0  0  0  0  0999 V2000
  133.9288  124.9972  100.1218 C   0  0  0  0  0
  132.4242  125.0795  100.0022 C   0  0  0  0  0
  131.8230  124.0107  100.8417 C   0  0  0  0  0
  132.0799  122.6352  100.6235 C   0  0  0  0  0
  131.5171  121.7078  101.5166 C   0  0  0  0  0
  130.7018  122.1168  102.5722 C   0  0  0  0  0
  130.4374  123.4715  102.7591 C   0  0  0  0  0
  131.0017  124.4139  101.9005 C   0  0  0  0  0
  132.9345  122.1281   99.5029 C   0  0  0  0  0
  134.0038  122.7757   98.8709 C   0  0  0  0  0
  134.4835  124.2007   98.9597 C   0  0  0  0  0
  134.5139  121.8334   97.9874 C   0  0  0  0  0
  131.8710  119.8671   99.2471 C   0  0  0  0  0
  130.5094  120.0652   98.9388 C   0  0  0  0  0
  129.5817  119.0550   99.2102 C   0  0  0  0  0
  129.9990  117.8483   99.7765 C   0  0  0  0  0
  131.3503  117.6401  100.0610 C   0  0  0  0  0
  132.2831  118.6447   99.7930 C   0  0  0  0  0
  135.6467  121.9944   97.0603 C   0  0  0  0  0
  137.1770  120.9549   95.3278 C   0  0  0  0  0
  138.4127  120.3602   96.0009 C   0  0  0  0  0
  138.1474  118.8997   96.4165 C   0  0  0  0  0
  139.4037  118.2975   97.0652 C   0  0  0  0  0
  139.7838  119.1283   98.3017 C   0  0  0  0  0
  140.0686  120.5827   97.8925 C   0  0  0  0  0
  138.8117  121.1816   97.2424 C   0  0  0  0  0
  141.2216  120.6075   96.8765 C   0  0  0  0  0
  140.8431  119.7864   95.6334 C   0  0  0  0  0
  140.5602  118.3351   96.0535 C   0  0  0  0  0
  139.5780  120.3853   94.9966 C   0  0  0  0  0
  129.4123  123.9909  104.0788 Cl  0  0  0  0  0
  128.8301  116.5909  100.1148 Cl  0  0  0  0  0
  129.9407  121.5417   98.1760 Cl  0  0  0  0  0
  133.8019  120.6972   98.0745 N   0  0  0  0  0
  132.8517  120.8771   98.9760 N   0  0  0  0  0
  136.0105  120.9102   96.2025 N   0  0  0  0  0
  136.2920  123.0766   97.0187 O   0  0  0  0  0
  1  2  1  0  0  0
  2  3  1  0  0  0
  4  5  1  0  0  0
  4  9  1  0  0  0
  6  7  1  0  0  0
  7 31  1  0  0  0
  8  3  1  0  0  0
 10 12  1  0  0  0
 11 10  1  0  0  0
 11  1  1  0  0  0
 12 19  1  0  0  0
 14 15  1  0  0  0
 14 33  1  0  0  0
 16 17  1  0  0  0
 16 32  1  0  0  0
 18 13  1  0  0  0
 19 36  1  0  0  0
 20 36  1  0  0  0
 21 20  1  0  0  0
 21 22  1  0  0  0
 23 22  1  0  0  0
 23 24  1  0  0  0
 25 24  1  0  0  0
 25 26  1  0  0  0
 25 27  1  0  0  0
 26 21  1  0  0  0
 28 27  1  0  0  0
 28 29  1  0  0  0
 28 30  1  0  0  0
 29 23  1  0  0  0
 30 21  1  0  0  0
 35 34  1  0  0  0
 35 13  1  0  0  0
 35  9  1  0  0  0
  3  4  2  0  0  0
  5  6  2  0  0  0
  7  8  2  0  0  0
  9 10  2  0  0  0
 12 34  2  0  0  0
 13 14  2  0  0  0
 15 16  2  0  0  0
 17 18  2  0  0  0
 19 37  2  0  0  0
M  END
> <rmsd>
0.68356514

$$$$
CHEMBL375791_6PT0


 32 35  0  0  0  0  0  0  0  0999 V2000
  139.5087  118.5866   96.6063 C   0  0  0  0  0
  138.1431  118.5092   96.3394 C   0  0  0  0  0
  137.3306  119.6299   96.5155 C   0  0  0  0  0
  137.8610  120.8498   96.9644 C   0  0  0  0  0
  139.2506  120.9300   97.2349 C   0  0  0  0  0
  140.0677  119.7844   97.0519 C   0  0  0  0  0
  141.4375  119.8450   97.3228 C   0  0  0  0  0
  142.0103  121.0331   97.7818 C   0  0  0  0  0
  141.2152  122.1647   97.9743 C   0  0  0  0  0
  139.8452  122.1130   97.7050 C   0  0  0  0  0
  136.9523  122.0193   97.1028 C   0  0  0  0  0
  135.5507  121.8765   97.5485 C   0  0  0  0  0
  134.6193  122.8964   97.5720 C   0  0  0  0  0
  133.6587  121.1002   98.3582 C   0  0  0  0  0
  134.9591  120.7304   98.0541 C   0  0  0  0  0
  132.6483  120.1718   98.9248 C   0  0  0  0  0
  133.0330  118.8805   99.3176 C   0  0  0  0  0
  132.0970  117.9880   99.8466 C   0  0  0  0  0
  130.7595  118.3750  100.0014 C   0  0  0  0  0
  130.3654  119.6537   99.5864 C   0  0  0  0  0
  131.3033  120.5441   99.0575 C   0  0  0  0  0
  129.7433  117.3998  100.5206 C   0  0  0  0  0
  132.2729  123.2168   98.2781 C   0  0  0  0  0
  132.2316  123.7409   99.7057 C   0  0  0  0  0
  133.2532  124.8496   99.8959 C   0  0  0  0  0
  133.2251  125.3565  101.3264 C   0  0  0  0  0
  132.0087  126.2343  101.5538 C   0  0  0  0  0
  137.3792  123.1721   96.8216 O   0  0  0  0  0
  133.4666  122.4078   98.0607 N   0  0  0  0  0
  130.3309  116.5190  101.4122 F   0  0  0  0  0
  128.7207  118.0686  101.1712 F   0  0  0  0  0
  129.2139  116.6851   99.4624 F   0  0  0  0  0
  2  3  1  0  0  0
  4  5  1  0  0  0
  4 11  1  0  0  0
  6  7  1  0  0  0
  6  1  1  0  0  0
  8  9  1  0  0  0
 10  5  1  0  0  0
 11 12  1  0  0  0
 13 29  1  0  0  0
 14 16  1  0  0  0
 15 12  1  0  0  0
 17 18  1  0  0  0
 19 20  1  0  0  0
 21 16  1  0  0  0
 22 19  1  0  0  0
 22 30  1  0  0  0
 22 31  1  0  0  0
 22 32  1  0  0  0
 23 29  1  0  0  0
 23 24  1  0  0  0
 24 25  1  0  0  0
 25 26  1  0  0  0
 26 27  1  0  0  0
 29 14  1  0  0  0
  1  2  2  0  0  0
  3  4  2  0  0  0
  5  6  2  0  0  0
  7  8  2  0  0  0
  9 10  2  0  0  0
 11 28  2  0  0  0
 12 13  2  0  0  0
 14 15  2  0  0  0
 16 17  2  0  0  0
 18 19  2  0  0  0
 20 21  2  0  0  0
M  END
> <rmsd>
0.425403386

$$$$
CHEMBL2163951_5ZTY


 33 39  0  0  0  0  0  0  0  0999 V2000
  137.1231  122.9232   96.9148 O   0  0  0  0  0
  135.3044  124.7236   97.5404 O   0  0  0  0  0
  131.5975  122.8156  101.8245 O   0  0  0  0  0
  136.5598  122.1567   97.7430 C   0  0  0  0  0
  138.2034  120.2524   97.2332 C   0  0  0  0  0
  138.4166  118.8091   97.7207 C   0  0  0  0  0
  139.6163  118.1758   96.9967 C   0  0  0  0  0
  140.8775  119.0059   97.2850 C   0  0  0  0  0
  140.6792  120.4493   96.7950 C   0  0  0  0  0
  140.4024  120.4382   95.2824 C   0  0  0  0  0
  139.1421  119.6098   94.9823 C   0  0  0  0  0
  139.3496  118.1714   95.4829 C   0  0  0  0  0
  137.9416  120.2296   95.7147 C   0  0  0  0  0
  139.4775  121.0685   97.5259 C   0  0  0  0  0
  135.3841  122.6176   98.5201 C   0  0  0  0  0
  134.7981  121.7324   99.4339 C   0  0  0  0  0
  133.1755  123.3419  100.0662 C   0  0  0  0  0
  132.0805  123.7087  100.8677 C   0  0  0  0  0
  131.4819  124.9608  100.7106 C   0  0  0  0  0
  131.9915  125.8676   99.7780 C   0  0  0  0  0
  133.1018  125.5261   99.0007 C   0  0  0  0  0
  133.7045  124.2662   99.1388 C   0  0  0  0  0
  134.8187  123.9019   98.3663 C   0  0  0  0  0
  132.3831  121.7006  102.2418 C   0  0  0  0  0
  133.1136  121.0698  101.0492 C   0  0  0  0  0
  132.2131  120.1604  100.2654 C   0  0  0  0  0
  131.0866  120.6537   99.5893 C   0  0  0  0  0
  130.2732  119.7872   98.8537 C   0  0  0  0  0
  130.5827  118.4257   98.7878 C   0  0  0  0  0
  131.7061  117.9308   99.4566 C   0  0  0  0  0
  132.5202  118.7973  100.1927 C   0  0  0  0  0
  137.0601  120.8255   97.9370 N   0  0  0  0  0
  133.7202  122.0908  100.1825 N   0  0  0  0  0
  4 32  1  0  0  0
  4 15  1  0  0  0
  5 32  1  0  0  0
  5  6  1  0  0  0
  7  6  1  0  0  0
  7  8  1  0  0  0
  9  8  1  0  0  0
  9 10  1  0  0  0
  9 14  1  0  0  0
 11 10  1  0  0  0
 11 12  1  0  0  0
 11 13  1  0  0  0
 12  7  1  0  0  0
 13  5  1  0  0  0
 14  5  1  0  0  0
 16 33  1  0  0  0
 18 19  1  0  0  0
 18  3  1  0  0  0
 20 21  1  0  0  0
 22 23  1  0  0  0
 22 17  1  0  0  0
 23 15  1  0  0  0
 24  3  1  0  0  0
 24 25  1  0  0  0
 25 26  1  0  0  0
 25 33  1  0  0  0
 27 28  1  0  0  0
 29 30  1  0  0  0
 31 26  1  0  0  0
 33 17  1  0  0  0
  4  1  2  0  0  0
 15 16  2  0  0  0
 17 18  2  0  0  0
 19 20  2  0  0  0
 21 22  2  0  0  0
 23  2  2  0  0  0
 26 27  2  0  0  0
 28 29  2  0  0  0
 30 31  2  0  0  0
M  END
> <rmsd>
0.343683869

$$$$
CHEMBL216735_8GUQ


 30 34  0  0  0  0  0  0  0  0999 V2000
  132.3687  126.8209  101.6532 C   0  0  0  0  0
  132.5108  125.6234  100.7851 C   0  0  0  0  0
  133.6179  125.5114   99.9270 C   0  0  0  0  0
  133.7205  124.3790   99.1201 C   0  0  0  0  0
  132.7561  123.3853   99.1683 C   0  0  0  0  0
  131.6624  123.4616  100.0283 C   0  0  0  0  0
  131.5423  124.6015  100.8387 C   0  0  0  0  0
  133.1629  122.3363   98.2579 C   0  0  0  0  0
  134.3598  122.6846   97.7139 C   0  0  0  0  0
  134.8451  124.0226   98.1875 C   0  0  0  0  0
  135.0361  121.4880   97.5557 C   0  0  0  0  0
  132.0574  120.2501   99.0556 C   0  0  0  0  0
  130.7246  120.6245   98.8243 C   0  0  0  0  0
  129.6720  119.9078   99.3963 C   0  0  0  0  0
  129.9401  118.8048  100.2071 C   0  0  0  0  0
  131.2603  118.4229  100.4511 C   0  0  0  0  0
  132.3218  119.1333   99.8811 C   0  0  0  0  0
  136.4441  121.3192   97.1771 C   0  0  0  0  0
  138.4109  119.7165   96.8293 C   0  0  0  0  0
  138.6985  120.1092   95.3792 C   0  0  0  0  0
  140.1482  119.7916   95.0242 C   0  0  0  0  0
  141.0957  120.5173   95.9755 C   0  0  0  0  0
  140.8179  120.0969   97.4161 C   0  0  0  0  0
  139.3734  120.4170   97.7901 C   0  0  0  0  0
  134.2445  120.4741   97.9764 N   0  0  0  0  0
  133.1131  121.0006   98.4311 N   0  0  0  0  0
  137.0246  120.0090   97.1804 N   0  0  0  0  0
  128.6221  117.9058  100.9259 Cl  0  0  0  0  0
  133.9536  118.6244  100.2883 Cl  0  0  0  0  0
  137.1334  122.3225   96.8485 O   0  0  0  0  0
  1  2  1  0  0  0
  3  4  1  0  0  0
  5  6  1  0  0  0
  5  8  1  0  0  0
  7  2  1  0  0  0
  9 11  1  0  0  0
 10  9  1  0  0  0
 10  4  1  0  0  0
 11 18  1  0  0  0
 13 14  1  0  0  0
 15 28  1  0  0  0
 15 16  1  0  0  0
 17 29  1  0  0  0
 17 12  1  0  0  0
 18 27  1  0  0  0
 19 27  1  0  0  0
 19 20  1  0  0  0
 20 21  1  0  0  0
 21 22  1  0  0  0
 22 23  1  0  0  0
 23 24  1  0  0  0
 24 19  1  0  0  0
 26 25  1  0  0  0
 26 12  1  0  0  0
 26  8  1  0  0  0
  2  3  2  0  0  0
  4  5  2  0  0  0
  6  7  2  0  0  0
  8  9  2  0  0  0
 11 25  2  0  0  0
 12 13  2  0  0  0
 14 15  2  0  0  0
 16 17  2  0  0  0
 18 30  2  0  0  0
M  END
> <rmsd>
0.730853915

$$$$
CHEMBL1215943_5ZTY


 38 43  0  0  0  0  0  0  0  0999 V2000
  132.9409  126.8880  100.6075 C   0  0  0  0  0
  133.7185  125.6920  100.0915 C   0  0  0  0  0
  133.1791  124.4056  100.6984 C   0  0  0  0  0
  131.8398  124.0178  100.0830 C   0  0  0  0  0
  132.0082  123.5201   98.6500 C   0  0  0  0  0
  133.9720  122.2329   98.1281 C   0  0  0  0  0
  134.7281  121.0576   98.0438 C   0  0  0  0  0
  136.1113  121.1440   97.5117 C   0  0  0  0  0
  138.3037  119.9563   96.9017 C   0  0  0  0  0
  138.8308  118.5117   96.9406 C   0  0  0  0  0
  140.2779  118.4603   96.4233 C   0  0  0  0  0
  140.3176  118.9817   94.9777 C   0  0  0  0  0
  139.7996  120.4279   94.9270 C   0  0  0  0  0
  140.6828  121.3149   95.8204 C   0  0  0  0  0
  140.6508  120.8020   97.2697 C   0  0  0  0  0
  141.1636  119.3534   97.3069 C   0  0  0  0  0
  139.2048  120.8377   97.7883 C   0  0  0  0  0
  138.3540  120.4635   95.4472 C   0  0  0  0  0
  134.1408  119.8490   98.4728 C   0  0  0  0  0
  132.8252  119.8516   98.9626 C   0  0  0  0  0
  132.2145  118.6621   99.3876 C   0  0  0  0  0
  130.9041  118.6689   99.8710 C   0  0  0  0  0
  131.1966  116.3916  101.5938 C   0  0  0  0  0
  131.5121  115.0335  101.4714 C   0  0  0  0  0
  132.3354  114.4167  102.4182 C   0  0  0  0  0
  132.8443  115.1567  103.4899 C   0  0  0  0  0
  132.5295  116.5133  103.6152 C   0  0  0  0  0
  131.7056  117.1296  102.6688 C   0  0  0  0  0
  130.1905  119.8680   99.9271 C   0  0  0  0  0
  130.7859  121.0585   99.5070 C   0  0  0  0  0
  132.1067  121.0696   99.0255 C   0  0  0  0  0
  132.7030  122.2341   98.6161 N   0  0  0  0  0
  136.9312  119.9722   97.3985 N   0  0  0  0  0
  136.5716  122.2642   97.1560 O   0  0  0  0  0
  134.7854  118.7652   98.4198 O   0  0  0  0  0
  129.9718  116.2725   99.2177 O   0  0  0  0  0
  128.8260  117.4479  101.0335 O   0  0  0  0  0
  130.1642  117.1709  100.4073 S   0  0  0  0  0
  1  2  1  0  0  0
  2  3  1  0  0  0
  3  4  1  0  0  0
  4  5  1  0  0  0
  5 32  1  0  0  0
  7  8  1  0  0  0
  7 19  1  0  0  0
  8 33  1  0  0  0
  9 33  1  0  0  0
  9 10  1  0  0  0
 11 10  1  0  0  0
 11 12  1  0  0  0
 13 12  1  0  0  0
 13 14  1  0  0  0
 13 18  1  0  0  0
 15 14  1  0  0  0
 15 16  1  0  0  0
 15 17  1  0  0  0
 16 11  1  0  0  0
 17  9  1  0  0  0
 18  9  1  0  0  0
 19 20  1  0  0  0
 21 22  1  0  0  0
 24 25  1  0  0  0
 26 27  1  0  0  0
 28 23  1  0  0  0
 29 30  1  0  0  0
 31 32  1  0  0  0
 31 20  1  0  0  0
 32  6  1  0  0  0
 38 22  1  0  0  0
 38 23  1  0  0  0
  6  7  2  0  0  0
  8 34  2  0  0  0
 19 35  2  0  0  0
 20 21  2  0  0  0
 22 29  2  0  0  0
 23 24  2  0  0  0
 25 26  2  0  0  0
 27 28  2  0  0  0
 30 31  2  0  0  0
 38 36  2  0  0  0
 38 37  2  0  0  0
M  END
> <rmsd>
0.688680589

$$$$
CHEMBL2163960_6PT0


 24 27  0  0  0  0  0  0  0  0999 V2000
  132.9512  124.4594   99.8135 C   0  0  0  0  0
  132.0812  123.2989   99.3465 C   0  0  0  0  0
  131.0898  122.9794  100.4665 C   0  0  0  0  0
  131.1389  120.6489   99.7455 C   0  0  0  0  0
  130.6064  119.3640   99.8724 C   0  0  0  0  0
  131.3291  118.2594   99.4182 C   0  0  0  0  0
  132.5823  118.4370   98.8282 C   0  0  0  0  0
  133.1226  119.7239   98.6791 C   0  0  0  0  0
  134.3645  119.9182   98.0566 C   0  0  0  0  0
  134.8527  121.2280   97.8724 C   0  0  0  0  0
  136.1461  121.5256   97.2073 C   0  0  0  0  0
  138.2656  120.7122   96.0711 C   0  0  0  0  0
  138.7228  119.4689   95.3044 C   0  0  0  0  0
  139.0455  118.3163   96.2551 C   0  0  0  0  0
  140.1115  118.7433   97.2584 C   0  0  0  0  0
  139.6231  119.9448   98.0606 C   0  0  0  0  0
  139.3063  121.1103   97.1243 C   0  0  0  0  0
  134.0759  122.3006   98.3281 C   0  0  0  0  0
  132.3929  120.8446   99.1396 C   0  0  0  0  0
  130.4256  121.7472  100.2175 O   0  0  0  0  0
  135.0278  118.9207   97.6594 O   0  0  0  0  0
  136.5276  122.7232   97.0934 O   0  0  0  0  0
  136.9665  120.4736   96.6891 N   0  0  0  0  0
  132.8857  122.1143   98.9697 N   0  0  0  0  0
  2  1  1  0  0  0
  2  3  1  0  0  0
  2 24  1  0  0  0
  3 20  1  0  0  0
  4 20  1  0  0  0
  4  5  1  0  0  0
  6  7  1  0  0  0
  8  9  1  0  0  0
  9 10  1  0  0  0
 10 11  1  0  0  0
 11 23  1  0  0  0
 12 23  1  0  0  0
 12 13  1  0  0  0
 13 14  1  0  0  0
 14 15  1  0  0  0
 15 16  1  0  0  0
 16 17  1  0  0  0
 17 12  1  0  0  0
 18 24  1  0  0  0
 19  8  1  0  0  0
 24 19  1  0  0  0
  5  6  2  0  0  0
  7  8  2  0  0  0
  9 21  2  0  0  0
 10 18  2  0  0  0
 11 22  2  0  0  0
 19  4  2  0  0  0
M  END
> <rmsd>
0.393793166

$$$$
CHEMBL2087091_5ZTY


 30 35  0  0  0  0  0  0  0  0999 V2000
  139.3094  118.7706   96.4734 C   0  0  0  0  0
  137.9758  120.7875   95.8540 C   0  0  0  0  0
  136.6881  121.2692   96.0831 C   0  0  0  0  0
  136.1376  122.5669   95.5821 C   0  0  0  0  0
  135.6321  123.3943   96.7140 C   0  0  0  0  0
  133.6342  123.9512   98.2174 C   0  0  0  0  0
  132.1120  123.7321   98.1686 C   0  0  0  0  0
  131.4526  124.2944   99.4389 C   0  0  0  0  0
  132.0347  123.5811  100.6706 C   0  0  0  0  0
  133.5551  123.7999  100.7341 C   0  0  0  0  0
  133.8483  125.3066  100.8232 C   0  0  0  0  0
  133.2699  126.0304   99.5950 C   0  0  0  0  0
  131.7506  125.7988   99.5381 C   0  0  0  0  0
  133.9155  125.4623   98.3204 C   0  0  0  0  0
  134.1990  123.2336   99.4593 C   0  0  0  0  0
  136.0421  120.3202   96.8515 C   0  0  0  0  0
  134.7579  120.2973   97.3905 C   0  0  0  0  0
  134.3865  119.1925   98.1864 C   0  0  0  0  0
  133.0492  119.1486   98.8237 C   0  0  0  0  0
  132.6742  118.0573   99.6244 C   0  0  0  0  0
  131.4260  118.0322  100.2530 C   0  0  0  0  0
  130.5400  119.1007  100.0909 C   0  0  0  0  0
  130.9015  120.1942   99.3004 C   0  0  0  0  0
  132.1489  120.2184   98.6711 C   0  0  0  0  0
  135.3218  118.1468   98.4001 C   0  0  0  0  0
  136.6129  118.1973   97.8421 C   0  0  0  0  0
  136.9388  119.3120   97.0709 C   0  0  0  0  0
  138.1085  119.5886   96.4677 N   0  0  0  0  0
  134.2308  123.3996   97.0055 N   0  0  0  0  0
  136.4443  124.0327   97.4350 O   0  0  0  0  0
  1 28  1  0  0  0
  3 16  1  0  0  0
  4  3  1  0  0  0
  4  5  1  0  0  0
  5 29  1  0  0  0
  6 29  1  0  0  0
  6  7  1  0  0  0
  8  7  1  0  0  0
  8  9  1  0  0  0
 10  9  1  0  0  0
 10 11  1  0  0  0
 10 15  1  0  0  0
 12 11  1  0  0  0
 12 13  1  0  0  0
 12 14  1  0  0  0
 13  8  1  0  0  0
 14  6  1  0  0  0
 15  6  1  0  0  0
 17 18  1  0  0  0
 18 19  1  0  0  0
 20 21  1  0  0  0
 22 23  1  0  0  0
 24 19  1  0  0  0
 25 26  1  0  0  0
 27 28  1  0  0  0
 27 16  1  0  0  0
 28  2  1  0  0  0
  2  3  2  0  0  0
  5 30  2  0  0  0
 16 17  2  0  0  0
 18 25  2  0  0  0
 19 20  2  0  0  0
 21 22  2  0  0  0
 23 24  2  0  0  0
 26 27  2  0  0  0
M  END
> <rmsd>
0.663206816

$$$$
CHEMBL2163958_6PT0


 30 34  0  0  0  0  0  0  0  0999 V2000
  131.4443  127.1685   99.8918 C   0  0  0  0  0
  132.0801  125.8271   99.9595 C   0  0  0  0  0
  131.6176  124.8819  100.8789 C   0  0  0  0  0
  132.2165  123.6222  100.9483 C   0  0  0  0  0
  133.2646  123.2877  100.0733 C   0  0  0  0  0
  133.7494  124.2509   99.1613 C   0  0  0  0  0
  133.1473  125.5175   99.1113 C   0  0  0  0  0
  134.8197  123.9177   98.3157 C   0  0  0  0  0
  135.3847  122.6258   98.3815 C   0  0  0  0  0
  136.5196  122.1987   97.5278 C   0  0  0  0  0
  138.1250  120.3709   96.8198 C   0  0  0  0  0
  138.1065  118.8458   96.7672 C   0  0  0  0  0
  139.2390  118.3042   95.8837 C   0  0  0  0  0
  140.4788  119.2088   95.8510 C   0  0  0  0  0
  140.6417  119.9739   97.1610 C   0  0  0  0  0
  139.4395  120.8921   97.4240 C   0  0  0  0  0
  134.8413  121.7020   99.2831 C   0  0  0  0  0
  133.2406  120.9730  100.9548 C   0  0  0  0  0
  132.2920  120.1037  100.1824 C   0  0  0  0  0
  132.5790  118.7413  100.0422 C   0  0  0  0  0
  131.7162  117.9110   99.3199 C   0  0  0  0  0
  130.5656  118.4419   98.7301 C   0  0  0  0  0
  130.2785  119.8044   98.8597 C   0  0  0  0  0
  131.1395  120.6345   99.5829 C   0  0  0  0  0
  132.5804  121.5528  102.2127 C   0  0  0  0  0
  135.2666  124.7743   97.5027 O   0  0  0  0  0
  137.0731  123.0121   96.7385 O   0  0  0  0  0
  131.7796  122.6877  101.8879 O   0  0  0  0  0
  136.9927  120.8490   97.5984 N   0  0  0  0  0
  133.8063  122.0300  100.1027 N   0  0  0  0  0
  1  2  1  0  0  0
  3  4  1  0  0  0
  4 28  1  0  0  0
  5  6  1  0  0  0
  6  8  1  0  0  0
  7  2  1  0  0  0
  8  9  1  0  0  0
  9 10  1  0  0  0
 10 29  1  0  0  0
 11 29  1  0  0  0
 11 12  1  0  0  0
 12 13  1  0  0  0
 13 14  1  0  0  0
 14 15  1  0  0  0
 15 16  1  0  0  0
 16 11  1  0  0  0
 17 30  1  0  0  0
 18 30  1  0  0  0
 18 19  1  0  0  0
 18 25  1  0  0  0
 20 21  1  0  0  0
 22 23  1  0  0  0
 24 19  1  0  0  0
 25 28  1  0  0  0
 30  5  1  0  0  0
  2  3  2  0  0  0
  4  5  2  0  0  0
  6  7  2  0  0  0
  8 26  2  0  0  0
  9 17  2  0  0  0
 10 27  2  0  0  0
 19 20  2  0  0  0
 21 22  2  0  0  0
 23 24  2  0  0  0
M  END
> <rmsd>
0.341430396

$$$$
CHEMBL2163577_6PT0


 26 29  0  0  0  0  0  0  0  0999 V2000
  133.1936  125.1918   99.1346 C   0  0  0  0  0
  132.9021  124.2081  100.2514 C   0  0  0  0  0
  132.0355  123.0635   99.7331 C   0  0  0  0  0
  131.1167  122.6226  100.8730 C   0  0  0  0  0
  131.1253  120.3817   99.9100 C   0  0  0  0  0
  130.5975  119.0888   99.9242 C   0  0  0  0  0
  131.2984  118.0406   99.3255 C   0  0  0  0  0
  132.5263  118.2831   98.7059 C   0  0  0  0  0
  133.0612  119.5804   98.6697 C   0  0  0  0  0
  134.2801  119.8412   98.0266 C   0  0  0  0  0
  134.7647  121.1635   97.9652 C   0  0  0  0  0
  136.0360  121.5314   97.2931 C   0  0  0  0  0
  138.1197  120.8438   96.0149 C   0  0  0  0  0
  139.1997  121.1677   97.0559 C   0  0  0  0  0
  139.3062  120.0767   98.1183 C   0  0  0  0  0
  140.3163  118.9842   97.7604 C   0  0  0  0  0
  140.2790  118.5043   96.3072 C   0  0  0  0  0
  138.8694  118.4172   95.7419 C   0  0  0  0  0
  138.5223  119.7296   95.0472 C   0  0  0  0  0
  134.0052  122.1810   98.5556 C   0  0  0  0  0
  132.3505  120.6454   99.2709 C   0  0  0  0  0
  130.4383  121.4207  100.5320 O   0  0  0  0  0
  134.9267  118.8921   97.5031 O   0  0  0  0  0
  136.4149  122.7353   97.2923 O   0  0  0  0  0
  136.8379  120.5408   96.6422 N   0  0  0  0  0
  132.8353  121.9287   99.2121 N   0  0  0  0  0
  1  2  1  0  0  0
  3  2  1  0  0  0
  3  4  1  0  0  0
  3 26  1  0  0  0
  4 22  1  0  0  0
  5 22  1  0  0  0
  5  6  1  0  0  0
  7  8  1  0  0  0
  9 10  1  0  0  0
 10 11  1  0  0  0
 11 12  1  0  0  0
 12 25  1  0  0  0
 13 25  1  0  0  0
 13 14  1  0  0  0
 14 15  1  0  0  0
 15 16  1  0  0  0
 16 17  1  0  0  0
 17 18  1  0  0  0
 18 19  1  0  0  0
 19 13  1  0  0  0
 20 26  1  0  0  0
 21  9  1  0  0  0
 26 21  1  0  0  0
  6  7  2  0  0  0
  8  9  2  0  0  0
 10 23  2  0  0  0
 11 20  2  0  0  0
 12 24  2  0  0  0
 21  5  2  0  0  0
M  END
> <rmsd>
0.418191552

$$$$
CHEMBL4164954_8GUT


 27 29  0  0  0  0  0  0  0  0999 V2000
  133.2700  123.6829   98.7868 C   0  0  0  0  0
  132.3918  122.6792   98.3942 C   0  0  0  0  0
  134.1727  121.3959   97.4857 C   0  0  0  0  0
  135.1129  122.3812   97.8684 C   0  0  0  0  0
  134.6412  123.5408   98.5295 C   0  0  0  0  0
  135.5821  124.6041   99.0045 C   0  0  0  0  0
  136.5593  122.1904   97.5756 C   0  0  0  0  0
  138.5253  120.6141   97.2845 C   0  0  0  0  0
  138.9331  119.2471   97.8464 C   0  0  0  0  0
  138.4370  118.0519   97.0214 C   0  0  0  0  0
  139.0254  117.9657   95.6036 C   0  0  0  0  0
  140.3290  118.7533   95.4384 C   0  0  0  0  0
  140.1131  120.2691   95.2922 C   0  0  0  0  0
  138.7453  120.7667   95.7736 C   0  0  0  0  0
  131.8654  120.5472   97.3908 C   0  0  0  0  0
  131.6798  119.5711   98.5047 C   0  0  0  0  0
  130.7311  119.8197   99.5029 C   0  0  0  0  0
  130.5746  118.9179  100.5600 C   0  0  0  0  0
  131.3694  117.7692  100.6225 C   0  0  0  0  0
  132.3225  117.5231   99.6295 C   0  0  0  0  0
  132.4793  118.4246   98.5723 C   0  0  0  0  0
  132.8433  121.5656   97.7613 N   0  0  0  0  0
  137.1315  120.8789   97.6103 N   0  0  0  0  0
  134.5549  120.3615   96.8699 O   0  0  0  0  0
  137.2875  123.1811   97.2944 O   0  0  0  0  0
  131.2176  116.8958  101.6465 F   0  0  0  0  0
  132.5488  125.2148   99.6825 Br  0  0  0  0  0
  1 27  1  0  0  0
  2 22  1  0  0  0
  3  4  1  0  0  0
  4  7  1  0  0  0
  5  1  1  0  0  0
  6  5  1  0  0  0
  7 23  1  0  0  0
  8 23  1  0  0  0
  8  9  1  0  0  0
  9 10  1  0  0  0
 10 11  1  0  0  0
 11 12  1  0  0  0
 12 13  1  0  0  0
 13 14  1  0  0  0
 14  8  1  0  0  0
 15 22  1  0  0  0
 15 16  1  0  0  0
 17 18  1  0  0  0
 19 20  1  0  0  0
 19 26  1  0  0  0
 21 16  1  0  0  0
 22  3  1  0  0  0
  1  2  2  0  0  0
  3 24  2  0  0  0
  4  5  2  0  0  0
  7 25  2  0  0  0
 16 17  2  0  0  0
 18 19  2  0  0  0
 20 21  2  0  0  0
M  END
> <rmsd>
0.604096472

$$$$
CHEMBL3917142_8GUQ


 33 37  0  0  0  0  0  0  0  0999 V2000
  140.9378  118.2598   96.9799 C   0  0  0  0  0
  139.5255  117.8009   96.6309 C   0  0  0  0  0
  138.9139  118.6866   95.5387 C   0  0  0  0  0
  139.3706  120.1532   95.6147 C   0  0  0  0  0
  139.7872  120.5580   97.0296 C   0  0  0  0  0
  140.9396  119.6863   97.5467 C   0  0  0  0  0
  138.3029  121.0896   95.0630 C   0  0  0  0  0
  136.5359  122.1279   96.5399 C   0  0  0  0  0
  135.3216  121.9900   97.3638 C   0  0  0  0  0
  133.5614  121.2430   98.4707 C   0  0  0  0  0
  134.5989  120.8315   97.6242 C   0  0  0  0  0
  135.0020  119.4550   97.1622 C   0  0  0  0  0
  133.9808  118.3636   97.4047 C   0  0  0  0  0
  133.7168  118.2421   98.8876 C   0  0  0  0  0
  132.5020  119.0324   99.2167 C   0  0  0  0  0
  132.4199  120.4286   98.9959 C   0  0  0  0  0
  131.2012  121.0716   99.2700 C   0  0  0  0  0
  130.1069  120.3694   99.7762 C   0  0  0  0  0
  130.2108  119.0010  100.0137 C   0  0  0  0  0
  131.4020  118.3354   99.7283 C   0  0  0  0  0
  132.9478  123.4318   99.5390 C   0  0  0  0  0
  132.9130  123.2307  100.9343 C   0  0  0  0  0
  132.1604  124.0893  101.7413 C   0  0  0  0  0
  131.4514  125.1500  101.1730 C   0  0  0  0  0
  131.5029  125.3658   99.7945 C   0  0  0  0  0
  132.2519  124.5119   98.9814 C   0  0  0  0  0
  137.0800  121.0020   95.8494 N   0  0  0  0  0
  134.7644  123.0268   98.0125 N   0  0  0  0  0
  133.7156  122.5778   98.6805 N   0  0  0  0  0
  137.0969  123.2532   96.4484 O   0  0  0  0  0
  128.8434  118.1161  100.6533 Cl  0  0  0  0  0
  130.5123  126.2196  102.1913 Cl  0  0  0  0  0
  133.8331  121.9491  101.7058 Cl  0  0  0  0  0
  1  2  1  0  0  0
  2  3  1  0  0  0
  3  4  1  0  0  0
  4  5  1  0  0  0
  4  7  1  0  0  0
  5  6  1  0  0  0
  6  1  1  0  0  0
  7 27  1  0  0  0
  8  9  1  0  0  0
 11  9  1  0  0  0
 12 11  1  0  0  0
 12 13  1  0  0  0
 13 14  1  0  0  0
 14 15  1  0  0  0
 16 17  1  0  0  0
 16 10  1  0  0  0
 18 19  1  0  0  0
 19 31  1  0  0  0
 20 15  1  0  0  0
 22 23  1  0  0  0
 22 33  1  0  0  0
 24 25  1  0  0  0
 24 32  1  0  0  0
 26 21  1  0  0  0
 27  8  1  0  0  0
 29 28  1  0  0  0
 29 10  1  0  0  0
 29 21  1  0  0  0
  8 30  2  0  0  0
  9 28  2  0  0  0
 10 11  2  0  0  0
 15 16  2  0  0  0
 17 18  2  0  0  0
 19 20  2  0  0  0
 21 22  2  0  0  0
 23 24  2  0  0  0
 25 26  2  0  0  0
M  END
> <rmsd>
0.77173394

$$$$
CHEMBL1224631_5ZTY


 29 32  0  0  0  0  0  0  0  0999 V2000
  133.7519  126.5116  101.3603 C   0  0  0  0  0
  132.3715  126.1697  100.8323 C   0  0  0  0  0
  132.0161  124.7289  101.1671 C   0  0  0  0  0
  132.7821  123.7511  100.2895 C   0  0  0  0  0
  132.2130  123.7450   98.8808 C   0  0  0  0  0
  132.9730  122.7912   98.0234 C   0  0  0  0  0
  135.9662  121.8311   96.3764 C   0  0  0  0  0
  137.6848  120.5234   95.0568 C   0  0  0  0  0
  138.4440  119.5997   96.0002 C   0  0  0  0  0
  138.7389  120.2809   97.3738 C   0  0  0  0  0
  140.1578  119.9765   97.9470 C   0  0  0  0  0
  141.1023  119.3131   96.9109 C   0  0  0  0  0
  140.3027  118.1212   96.3933 C   0  0  0  0  0
  139.7185  119.0351   95.3204 C   0  0  0  0  0
  140.9188  119.9700   95.5387 C   0  0  0  0  0
  142.0671  119.6171   94.6020 C   0  0  0  0  0
  140.6793  121.4824   95.5017 C   0  0  0  0  0
  133.5633  120.9940   96.6064 C   0  0  0  0  0
  132.3825  121.5612   97.4022 C   0  0  0  0  0
  131.9127  120.5838   98.4390 C   0  0  0  0  0
  132.7766  120.0945   99.4333 C   0  0  0  0  0
  132.3083  119.1863  100.3869 C   0  0  0  0  0
  130.9771  118.7618  100.3525 C   0  0  0  0  0
  130.1143  119.2447   99.3643 C   0  0  0  0  0
  130.5817  120.1533   98.4100 C   0  0  0  0  0
  134.2080  122.9720   97.7094 N   0  0  0  0  0
  134.6319  121.9401   96.8751 N   0  0  0  0  0
  136.3252  120.7341   95.5323 N   0  0  0  0  0
  136.8217  122.7067   96.6782 O   0  0  0  0  0
  1  2  1  0  0  0
  2  3  1  0  0  0
  3  4  1  0  0  0
  4  5  1  0  0  0
  5  6  1  0  0  0
  7 28  1  0  0  0
  8 28  1  0  0  0
  9  8  1  0  0  0
  9 10  1  0  0  0
 10 11  1  0  0  0
 12 11  1  0  0  0
 12 13  1  0  0  0
 14 13  1  0  0  0
 14 15  1  0  0  0
 14  9  1  0  0  0
 15 16  1  0  0  0
 15 17  1  0  0  0
 15 12  1  0  0  0
 18 27  1  0  0  0
 18 19  1  0  0  0
 19 20  1  0  0  0
 19  6  1  0  0  0
 21 22  1  0  0  0
 23 24  1  0  0  0
 25 20  1  0  0  0
 27 26  1  0  0  0
 27  7  1  0  0  0
  6 26  2  0  0  0
  7 29  2  0  0  0
 20 21  2  0  0  0
 22 23  2  0  0  0
 24 25  2  0  0  0
M  END
> <rmsd>
0.68770647

$$$$
CHEMBL2087102_5ZTY


 33 38  0  0  0  0  0  0  0  0999 V2000
  133.7228  128.8313   97.7848 C   0  0  0  0  0
  132.9585  128.3723   98.7727 C   0  0  0  0  0
  133.5704  127.7841  100.0041 C   0  0  0  0  0
  135.5191  126.3290   99.4273 C   0  0  0  0  0
  135.7513  124.9785   99.1657 C   0  0  0  0  0
  137.0708  124.3838   98.8718 C   0  0  0  0  0
  137.2227  123.1516   98.0795 C   0  0  0  0  0
  138.6989  121.1528   97.4573 C   0  0  0  0  0
  140.1069  120.6517   97.8212 C   0  0  0  0  0
  140.4039  119.3293   97.0943 C   0  0  0  0  0
  139.3622  118.2779   97.5093 C   0  0  0  0  0
  137.9507  118.7645   97.1437 C   0  0  0  0  0
  137.8719  118.9990   95.6260 C   0  0  0  0  0
  138.9106  120.0495   95.1995 C   0  0  0  0  0
  140.3165  119.5551   95.5764 C   0  0  0  0  0
  138.6278  121.3698   95.9331 C   0  0  0  0  0
  137.6685  120.0854   97.8759 C   0  0  0  0  0
  134.5297  124.3397   99.3102 C   0  0  0  0  0
  134.1773  122.9938   99.2326 C   0  0  0  0  0
  132.8309  122.6357   99.4604 C   0  0  0  0  0
  132.4111  121.2171   99.3714 C   0  0  0  0  0
  133.3426  120.2147   99.0503 C   0  0  0  0  0
  132.9472  118.8769   98.9647 C   0  0  0  0  0
  131.6158  118.5258   99.1992 C   0  0  0  0  0
  130.6796  119.5121   99.5189 C   0  0  0  0  0
  131.0750  120.8501   99.6045 C   0  0  0  0  0
  131.8888  123.6475   99.7753 C   0  0  0  0  0
  132.2741  124.9960   99.8680 C   0  0  0  0  0
  133.6129  125.3039   99.6295 C   0  0  0  0  0
  134.2061  126.5084   99.7016 N   0  0  0  0  0
  138.4444  122.4061   98.1616 N   0  0  0  0  0
  138.1055  124.9608   99.3014 O   0  0  0  0  0
  136.2993  122.7714   97.3102 O   0  0  0  0  0
  3  2  1  0  0  0
  3 30  1  0  0  0
  5  6  1  0  0  0
  5 18  1  0  0  0
  6  7  1  0  0  0
  7 31  1  0  0  0
  8 31  1  0  0  0
  8  9  1  0  0  0
 10  9  1  0  0  0
 10 11  1  0  0  0
 12 11  1  0  0  0
 12 13  1  0  0  0
 12 17  1  0  0  0
 14 13  1  0  0  0
 14 15  1  0  0  0
 14 16  1  0  0  0
 15 10  1  0  0  0
 16  8  1  0  0  0
 17  8  1  0  0  0
 19 20  1  0  0  0
 20 21  1  0  0  0
 22 23  1  0  0  0
 24 25  1  0  0  0
 26 21  1  0  0  0
 27 28  1  0  0  0
 29 30  1  0  0  0
 29 18  1  0  0  0
 30  4  1  0  0  0
  1  2  2  0  0  0
  4  5  2  0  0  0
  6 32  2  0  0  0
  7 33  2  0  0  0
 18 19  2  0  0  0
 20 27  2  0  0  0
 21 22  2  0  0  0
 23 24  2  0  0  0
 25 26  2  0  0  0
 28 29  2  0  0  0
M  END
> <rmsd>
0.625220299

$$$$
CHEMBL2019086_8GUT


 33 36  0  0  0  0  0  0  0  0999 V2000
  138.1902  120.1540   96.0479 C   0  0  0  0  0
  139.4116  121.0597   96.2840 C   0  0  0  0  0
  139.9678  120.9020   97.6988 C   0  0  0  0  0
  140.3464  119.4481   97.9536 C   0  0  0  0  0
  139.1249  118.5536   97.7791 C   0  0  0  0  0
  138.5630  118.6999   96.3650 C   0  0  0  0  0
  137.7950  120.2217   94.5958 C   0  0  0  0  0
  136.5009  121.8721   96.9716 C   0  0  0  0  0
  135.3824  122.1733   97.9007 C   0  0  0  0  0
  134.8697  121.2400   98.8234 C   0  0  0  0  0
  133.3000  120.5599  100.5670 C   0  0  0  0  0
  132.2923  119.6946   99.8817 C   0  0  0  0  0
  130.9577  120.1060   99.7884 C   0  0  0  0  0
  130.0206  119.3031   99.1311 C   0  0  0  0  0
  130.4170  118.0884   98.5636 C   0  0  0  0  0
  131.7502  117.6770   98.6523 C   0  0  0  0  0
  132.6871  118.4800   99.3097 C   0  0  0  0  0
  133.2652  122.8362   99.6291 C   0  0  0  0  0
  133.7646  123.7912   98.7042 C   0  0  0  0  0
  134.8157  123.4439   97.8653 C   0  0  0  0  0
  133.2871  125.2093   98.6369 C   0  0  0  0  0
  134.0076  126.0988   99.6555 C   0  0  0  0  0
  134.0288  125.4948  101.0633 C   0  0  0  0  0
  132.6398  125.3521  101.6846 C   0  0  0  0  0
  131.6622  124.5613  100.8158 C   0  0  0  0  0
  132.0922  123.1146  100.5698 C   0  0  0  0  0
  136.6052  120.4631   94.2572 O   0  0  0  0  0
  138.7446  119.9832   93.6086 O   0  0  0  0  0
  136.9451  122.7817   96.2180 O   0  0  0  0  0
  135.3767  120.0860   98.8983 O   0  0  0  0  0
  137.0787  120.5594   96.9161 N   0  0  0  0  0
  133.8243  121.5777   99.6473 N   0  0  0  0  0
  129.5093  117.3106   97.9267 F   0  0  0  0  0
  1  2  1  0  0  0
  1  7  1  0  0  0
  1 31  1  0  0  0
  2  3  1  0  0  0
  3  4  1  0  0  0
  4  5  1  0  0  0
  5  6  1  0  0  0
  6  1  1  0  0  0
  7 28  1  0  0  0
  8  9  1  0  0  0
  9 10  1  0  0  0
 10 32  1  0  0  0
 11 32  1  0  0  0
 11 12  1  0  0  0
 13 14  1  0  0  0
 15 16  1  0  0  0
 15 33  1  0  0  0
 17 12  1  0  0  0
 19 20  1  0  0  0
 21 19  1  0  0  0
 21 22  1  0  0  0
 22 23  1  0  0  0
 23 24  1  0  0  0
 24 25  1  0  0  0
 25 26  1  0  0  0
 26 18  1  0  0  0
 31  8  1  0  0  0
 32 18  1  0  0  0
  7 27  2  0  0  0
  8 29  2  0  0  0
 10 30  2  0  0  0
 12 13  2  0  0  0
 14 15  2  0  0  0
 16 17  2  0  0  0
 18 19  2  0  0  0
 20  9  2  0  0  0
M  END
> <rmsd>
0.772909045

$$$$
CHEMBL1909846_5ZTY


 30 33  0  0  0  0  0  0  0  0999 V2000
  135.4406  124.6412   98.1138 C   0  0  0  0  0
  134.9462  123.2351   98.1579 C   0  0  0  0  0
  135.5628  122.0928   97.6704 C   0  0  0  0  0
  136.8364  122.0098   96.9404 C   0  0  0  0  0
  138.6069  120.5565   95.8535 C   0  0  0  0  0
  138.6643  119.1614   95.2113 C   0  0  0  0  0
  139.4975  118.1456   96.0021 C   0  0  0  0  0
  139.3189  118.3508   97.5018 C   0  0  0  0  0
  139.8204  119.7319   97.9423 C   0  0  0  0  0
  139.7679  120.7896   96.8289 C   0  0  0  0  0
  132.6998  120.5536   99.1001 C   0  0  0  0  0
  131.3645  120.9677   98.9724 C   0  0  0  0  0
  130.3181  120.1367   99.3759 C   0  0  0  0  0
  130.5949  118.8785   99.9114 C   0  0  0  0  0
  131.9177  118.4539  100.0479 C   0  0  0  0  0
  132.9723  119.2787   99.6439 C   0  0  0  0  0
  133.8045  122.7705   98.7745 C   0  0  0  0  0
  132.5831  123.4645  100.8254 C   0  0  0  0  0
  131.6386  124.4027  101.1952 C   0  0  0  0  0
  131.3300  125.1124  100.0417 C   0  0  0  0  0
  132.1116  124.5705   99.0393 C   0  0  0  0  0
  137.4904  123.0551   96.6777 O   0  0  0  0  0
  137.3278  120.7317   96.5291 N   0  0  0  0  0
  134.8175  121.0114   97.9827 N   0  0  0  0  0
  133.7569  121.4250   98.6621 N   0  0  0  0  0
  132.8687  123.5667   99.5151 N   0  0  0  0  0
  129.2846  117.8361  100.4198 Cl  0  0  0  0  0
  134.6113  118.7006   99.9021 Cl  0  0  0  0  0
  133.3456  122.3362  101.9341 Cl  0  0  0  0  0
  132.0666  125.0835   97.3607 Cl  0  0  0  0  0
  1  2  1  0  0  0
  2  3  1  0  0  0
  3  4  1  0  0  0
  4 23  1  0  0  0
  5 23  1  0  0  0
  5  6  1  0  0  0
  6  7  1  0  0  0
  7  8  1  0  0  0
  8  9  1  0  0  0
  9 10  1  0  0  0
 10  5  1  0  0  0
 12 13  1  0  0  0
 14 27  1  0  0  0
 14 15  1  0  0  0
 16 28  1  0  0  0
 16 11  1  0  0  0
 17 26  1  0  0  0
 18 29  1  0  0  0
 19 20  1  0  0  0
 21 30  1  0  0  0
 21 26  1  0  0  0
 25 24  1  0  0  0
 25 11  1  0  0  0
 25 17  1  0  0  0
 26 18  1  0  0  0
  3 24  2  0  0  0
  4 22  2  0  0  0
 11 12  2  0  0  0
 13 14  2  0  0  0
 15 16  2  0  0  0
 17  2  2  0  0  0
 18 19  2  0  0  0
 20 21  2  0  0  0
M  END
> <rmsd>
0.646038175

$$$$
CHEMBL514706_8GUT


 29 32  0  0  0  0  0  0  0  0999 V2000
  133.2968  125.7863   99.4415 C   0  0  0  0  0
  133.1091  124.2846   99.3344 C   0  0  0  0  0
  134.1484  123.6071  100.2186 C   0  0  0  0  0
  133.2405  123.8615   97.8643 C   0  0  0  0  0
  134.6452  124.0446   97.2917 C   0  0  0  0  0
  135.4322  122.7738   97.3460 C   0  0  0  0  0
  136.9755  121.3723   97.1820 C   0  0  0  0  0
  138.2910  120.7474   96.9027 C   0  0  0  0  0
  139.2990  121.5640   96.3653 C   0  0  0  0  0
  140.5639  121.0504   96.0749 C   0  0  0  0  0
  140.8412  119.7065   96.3188 C   0  0  0  0  0
  139.8541  118.8778   96.8525 C   0  0  0  0  0
  138.5822  119.3806   97.1479 C   0  0  0  0  0
  131.1997  122.6404   99.8839 C   0  0  0  0  0
  129.8981  122.4812  100.3699 C   0  0  0  0  0
  130.0102  120.1317  100.0494 C   0  0  0  0  0
  129.4074  118.8736  100.1347 C   0  0  0  0  0
  130.1099  117.7342   99.7277 C   0  0  0  0  0
  131.4148  117.8502   99.2353 C   0  0  0  0  0
  132.0240  119.1061   99.1472 C   0  0  0  0  0
  131.3260  120.2464   99.5527 C   0  0  0  0  0
  131.9144  121.5069   99.4733 C   0  0  0  0  0
  136.7131  122.6776   96.9465 N   0  0  0  0  0
  135.9083  120.7259   97.6928 N   0  0  0  0  0
  131.7687  123.9563   99.8173 N   0  0  0  0  0
  129.3348  121.2443  100.4426 N   0  0  0  0  0
  142.0678  119.2056   96.0378 F   0  0  0  0  0
  137.4205  118.2430   97.8173 Cl  0  0  0  0  0
  134.9761  121.6240   97.7787 O   0  0  0  0  0
  1  2  1  0  0  0
  2  3  1  0  0  0
  2  4  1  0  0  0
  2 25  1  0  0  0
  4  5  1  0  0  0
  5  6  1  0  0  0
  6 29  1  0  0  0
  7 23  1  0  0  0
  7  8  1  0  0  0
  9 10  1  0  0  0
 11 27  1  0  0  0
 11 12  1  0  0  0
 13 28  1  0  0  0
 13  8  1  0  0  0
 15 26  1  0  0  0
 16 17  1  0  0  0
 18 19  1  0  0  0
 20 21  1  0  0  0
 21 16  1  0  0  0
 22 14  1  0  0  0
 24 29  1  0  0  0
 25 14  1  0  0  0
  6 23  2  0  0  0
  7 24  2  0  0  0
  8  9  2  0  0  0
 10 11  2  0  0  0
 12 13  2  0  0  0
 14 15  2  0  0  0
 16 26  2  0  0  0
 17 18  2  0  0  0
 19 20  2  0  0  0
 21 22  2  0  0  0
M  END
> <rmsd>
0.731465638

$$$$
CHEMBL2163961_6PT0


 25 28  0  0  0  0  0  0  0  0999 V2000
  132.1307  124.3780   99.5356 C   0  0  0  0  0
  132.8942  123.4586  100.4745 C   0  0  0  0  0
  132.0005  123.0540  101.6502 C   0  0  0  0  0
  131.4627  121.0078  100.4187 C   0  0  0  0  0
  130.6828  119.8536  100.3165 C   0  0  0  0  0
  131.1082  118.7918   99.5141 C   0  0  0  0  0
  132.3148  118.8801   98.8140 C   0  0  0  0  0
  133.1010  120.0399   98.8973 C   0  0  0  0  0
  134.3157  120.1500   98.2021 C   0  0  0  0  0
  135.0691  121.3409   98.2970 C   0  0  0  0  0
  136.3658  121.5375   97.6015 C   0  0  0  0  0
  138.2161  120.6346   96.1195 C   0  0  0  0  0
  139.3503  120.5633   97.1506 C   0  0  0  0  0
  140.7178  120.3361   96.5230 C   0  0  0  0  0
  141.0082  118.8417   96.4642 C   0  0  0  0  0
  140.2957  118.1590   95.3006 C   0  0  0  0  0
  138.7794  118.2396   95.4240 C   0  0  0  0  0
  138.3047  119.6161   94.9770 C   0  0  0  0  0
  134.5629  122.3927   99.0735 C   0  0  0  0  0
  132.6587  121.1214   99.6899 C   0  0  0  0  0
  131.0653  122.0539  101.2511 O   0  0  0  0  0
  134.7223  119.1839   97.4992 O   0  0  0  0  0
  136.9789  122.6339   97.7244 O   0  0  0  0  0
  136.9307  120.5025   96.7899 N   0  0  0  0  0
  133.3845  122.2816   99.7441 N   0  0  0  0  0
  2  1  1  0  0  0
  2  3  1  0  0  0
  2 25  1  0  0  0
  3 21  1  0  0  0
  4 21  1  0  0  0
  4  5  1  0  0  0
  6  7  1  0  0  0
  8  9  1  0  0  0
  9 10  1  0  0  0
 10 11  1  0  0  0
 11 24  1  0  0  0
 12 24  1  0  0  0
 12 13  1  0  0  0
 13 14  1  0  0  0
 14 15  1  0  0  0
 15 16  1  0  0  0
 16 17  1  0  0  0
 17 18  1  0  0  0
 18 12  1  0  0  0
 19 25  1  0  0  0
 20  8  1  0  0  0
 25 20  1  0  0  0
  5  6  2  0  0  0
  7  8  2  0  0  0
  9 22  2  0  0  0
 10 19  2  0  0  0
 11 23  2  0  0  0
 20  4  2  0  0  0
M  END
> <rmsd>
0.764453471

$$$$
CHEMBL3422786_6PT0


 24 26  0  0  0  0  0  0  0  0999 V2000
  132.8422  118.7545   99.4264 C   0  0  0  0  0
  131.5239  118.5673   99.8480 C   0  0  0  0  0
  130.6158  119.6272   99.7956 C   0  0  0  0  0
  131.0246  120.8770   99.3226 C   0  0  0  0  0
  132.3498  121.0842   98.8961 C   0  0  0  0  0
  133.2549  120.0027   98.9521 C   0  0  0  0  0
  134.5639  120.1843   98.5290 C   0  0  0  0  0
  134.9910  121.4227   98.0462 C   0  0  0  0  0
  134.0616  122.4880   97.9990 C   0  0  0  0  0
  131.8382  123.4390   98.3781 C   0  0  0  0  0
  131.6846  124.0837   99.7500 C   0  0  0  0  0
  132.9270  124.8727  100.1148 C   0  0  0  0  0
  136.4001  121.5605   97.6029 C   0  0  0  0  0
  138.6647  120.4819   97.2279 C   0  0  0  0  0
  139.4296  119.2943   97.8269 C   0  0  0  0  0
  140.6545  118.9425   96.9856 C   0  0  0  0  0
  140.2669  118.5443   95.5534 C   0  0  0  0  0
  138.9360  119.1474   95.0875 C   0  0  0  0  0
  138.7228  120.5330   95.6909 C   0  0  0  0  0
  140.2054  117.0353   95.4339 C   0  0  0  0  0
  134.4194  123.6150   97.5553 O   0  0  0  0  0
  136.8334  122.6614   97.1653 O   0  0  0  0  0
  132.7702  122.3057   98.4294 N   0  0  0  0  0
  137.2809  120.4337   97.6766 N   0  0  0  0  0
  2  3  1  0  0  0
  4  5  1  0  0  0
  6  7  1  0  0  0
  6  1  1  0  0  0
  8  9  1  0  0  0
  8 13  1  0  0  0
  9 23  1  0  0  0
 10 23  1  0  0  0
 10 11  1  0  0  0
 11 12  1  0  0  0
 13 24  1  0  0  0
 14 24  1  0  0  0
 14 15  1  0  0  0
 15 16  1  0  0  0
 16 17  1  0  0  0
 17 18  1  0  0  0
 17 20  1  0  0  0
 18 19  1  0  0  0
 19 14  1  0  0  0
 23  5  1  0  0  0
  1  2  2  0  0  0
  3  4  2  0  0  0
  5  6  2  0  0  0
  7  8  2  0  0  0
  9 21  2  0  0  0
 13 22  2  0  0  0
M  END
> <rmsd>
0.56413871

$$$$
CHEMBL3400947_8GUQ


 28 29  0  0  0  0  0  0  0  0999 V2000
  128.3045  117.7467   98.5673 C   0  0  0  0  0
  129.5444  117.3254   99.3393 C   0  0  0  0  0
  130.1879  116.1569   98.6190 C   0  0  0  0  0
  129.1214  116.8761  100.7240 C   0  0  0  0  0
  130.5397  118.4473   99.4602 C   0  0  0  0  0
  130.4117  119.7327   98.9512 C   0  0  0  0  0
  131.5964  120.3129   99.3561 C   0  0  0  0  0
  133.1891  122.2895   99.4850 C   0  0  0  0  0
  133.4919  123.6988   99.0408 C   0  0  0  0  0
  132.2514  124.5651   99.1814 C   0  0  0  0  0
  134.5891  124.3183   99.8947 C   0  0  0  0  0
  135.3985  122.6288   97.1241 C   0  0  0  0  0
  137.7530  122.3197   97.1680 C   0  0  0  0  0
  137.6084  120.9610   96.8601 C   0  0  0  0  0
  136.3201  120.4516   96.6595 C   0  0  0  0  0
  135.2088  121.2833   96.7983 C   0  0  0  0  0
  138.8150  120.0907   96.6628 C   0  0  0  0  0
  132.3592  119.4443  100.0437 N   0  0  0  0  0
  131.9659  121.6652   99.0710 N   0  0  0  0  0
  136.6571  123.1143   97.2988 N   0  0  0  0  0
  131.6900  118.3328  100.0859 O   0  0  0  0  0
  134.0366  121.6396  100.1579 O   0  0  0  0  0
  132.8897  123.2108   96.4527 O   0  0  0  0  0
  134.3947  125.0802   96.9026 O   0  0  0  0  0
  134.0146  123.6893   97.3286 S   0  0  0  0  0
  139.2315  120.1782   95.3476 F   0  0  0  0  0
  139.8446  120.5013   97.4918 F   0  0  0  0  0
  138.5129  118.7717   96.9546 F   0  0  0  0  0
  1  2  1  0  0  0
  2  3  1  0  0  0
  2  4  1  0  0  0
  2  5  1  0  0  0
  5 21  1  0  0  0
  6  7  1  0  0  0
  7 19  1  0  0  0
  9  8  1  0  0  0
  9 10  1  0  0  0
  9 11  1  0  0  0
  9 25  1  0  0  0
 13 20  1  0  0  0
 14 15  1  0  0  0
 16 12  1  0  0  0
 17 14  1  0  0  0
 17 26  1  0  0  0
 17 27  1  0  0  0
 17 28  1  0  0  0
 18 21  1  0  0  0
 19  8  1  0  0  0
 25 12  1  0  0  0
  5  6  2  0  0  0
  7 18  2  0  0  0
  8 22  2  0  0  0
 12 20  2  0  0  0
 13 14  2  0  0  0
 15 16  2  0  0  0
 25 23  2  0  0  0
 25 24  2  0  0  0
M  END
> <rmsd>
0.416612774

$$$$
CHEMBL3400945_8GUQ


 25 27  0  0  0  0  0  0  0  0999 V2000
  131.3003  119.8213  100.7695 C   0  0  0  0  0
  130.6524  118.9378   99.9017 C   0  0  0  0  0
  130.8360  119.0537   98.5220 C   0  0  0  0  0
  131.6663  120.0530   98.0098 C   0  0  0  0  0
  132.3134  120.9361   98.8780 C   0  0  0  0  0
  132.1390  120.8302  100.2679 C   0  0  0  0  0
  133.7330  122.7959  100.7723 C   0  0  0  0  0
  134.2144  123.4296  102.0675 C   0  0  0  0  0
  133.3281  122.8896  103.1795 C   0  0  0  0  0
  132.5988  121.6908  102.6069 C   0  0  0  0  0
  134.9178  122.2241  100.0322 C   0  0  0  0  0
  136.3396  122.2287   97.9142 C   0  0  0  0  0
  137.9916  121.1256   97.0928 C   0  0  0  0  0
  137.1815  121.1722   98.2173 C   0  0  0  0  0
  139.1128  120.1508   96.8596 C   0  0  0  0  0
  139.7930  120.4180   95.5288 C   0  0  0  0  0
  140.1461  120.2776   97.9633 C   0  0  0  0  0
  138.5701  118.7344   96.8489 C   0  0  0  0  0
  132.9984  123.8577   99.9607 C   0  0  0  0  0
  132.8062  121.7385  101.1705 N   0  0  0  0  0
  135.2768  122.7247   98.7357 N   0  0  0  0  0
  136.6320  122.7531   96.7120 N   0  0  0  0  0
  135.5883  121.2981  100.5657 O   0  0  0  0  0
  137.6304  122.0653   96.2478 O   0  0  0  0  0
  130.0255  117.9471   97.4351 Cl  0  0  0  0  0
  2  3  1  0  0  0
  3 25  1  0  0  0
  4  5  1  0  0  0
  6 20  1  0  0  0
  6  1  1  0  0  0
  7 20  1  0  0  0
  7  8  1  0  0  0
  7 11  1  0  0  0
  7 19  1  0  0  0
  8  9  1  0  0  0
  9 10  1  0  0  0
 10 20  1  0  0  0
 11 21  1  0  0  0
 13 24  1  0  0  0
 14 12  1  0  0  0
 15 13  1  0  0  0
 15 16  1  0  0  0
 15 17  1  0  0  0
 15 18  1  0  0  0
 21 12  1  0  0  0
 22 24  1  0  0  0
  1  2  2  0  0  0
  3  4  2  0  0  0
  5  6  2  0  0  0
 11 23  2  0  0  0
 12 22  2  0  0  0
 13 14  2  0  0  0
M  END
> <rmsd>
0.606865942

$$$$
CHEMBL2022703_8GUT


 25 27  0  0  0  0  0  0  0  0999 V2000
  136.7366  123.4538   97.4390 O   0  0  0  0  0
  134.3244  121.4798  100.2472 O   0  0  0  0  0
  136.0486  122.8029   98.2731 C   0  0  0  0  0
  137.7763  120.9136   98.3310 C   0  0  0  0  0
  137.7455  120.5823   96.8423 C   0  0  0  0  0
  138.4993  119.2821   96.5936 C   0  0  0  0  0
  140.0105  119.4881   96.5611 C   0  0  0  0  0
  140.5567  119.9746   97.8975 C   0  0  0  0  0
  140.2924  121.4660   98.0435 C   0  0  0  0  0
  138.9749  121.7709   98.7604 C   0  0  0  0  0
  134.7556  123.3567   98.7433 C   0  0  0  0  0
  134.3185  124.5826   98.2223 C   0  0  0  0  0
  133.1072  125.1387   98.6280 C   0  0  0  0  0
  132.3295  124.4604   99.5626 C   0  0  0  0  0
  133.9348  122.7026   99.6902 C   0  0  0  0  0
  133.4920  120.7309  101.1257 C   0  0  0  0  0
  132.4634  119.9806  100.3499 C   0  0  0  0  0
  131.1309  120.4065  100.3610 C   0  0  0  0  0
  130.1684  119.7138   99.6203 C   0  0  0  0  0
  130.5379  118.5958   98.8660 C   0  0  0  0  0
  131.8700  118.1710   98.8513 C   0  0  0  0  0
  132.8328  118.8636   99.5919 C   0  0  0  0  0
  136.5250  121.5368   98.7491 N   0  0  0  0  0
  132.7545  123.2734  100.0672 N   0  0  0  0  0
  129.6053  117.9250   98.1486 F   0  0  0  0  0
  3 23  1  0  0  0
  3 11  1  0  0  0
  4 23  1  0  0  0
  4  5  1  0  0  0
  5  6  1  0  0  0
  6  7  1  0  0  0
  7  8  1  0  0  0
  8  9  1  0  0  0
  9 10  1  0  0  0
 10  4  1  0  0  0
 12 13  1  0  0  0
 14 24  1  0  0  0
 15  2  1  0  0  0
 15 11  1  0  0  0
 16  2  1  0  0  0
 16 17  1  0  0  0
 18 19  1  0  0  0
 20 25  1  0  0  0
 20 21  1  0  0  0
 22 17  1  0  0  0
  3  1  2  0  0  0
 11 12  2  0  0  0
 13 14  2  0  0  0
 15 24  2  0  0  0
 17 18  2  0  0  0
 19 20  2  0  0  0
 21 22  2  0  0  0
M  END
> <rmsd>
0.580681801

$$$$
CHEMBL3967292_8GUT


 29 31  0  0  0  0  0  0  0  0999 V2000
  132.0197  123.6214   96.2019 C   0  0  0  0  0
  133.5032  123.3443   96.4081 C   0  0  0  0  0
  133.8819  123.1967   97.8895 C   0  0  0  0  0
  133.6161  124.5311   98.5980 C   0  0  0  0  0
  133.8782  124.4659  100.0964 C   0  0  0  0  0
  135.3563  122.8719   97.9868 C   0  0  0  0  0
  137.2117  121.4168   98.9148 C   0  0  0  0  0
  137.6407  120.6804   97.6604 C   0  0  0  0  0
  139.2081  119.4757   96.6832 C   0  0  0  0  0
  132.9879  120.7831   98.0660 C   0  0  0  0  0
  132.1534  119.8163   98.7941 C   0  0  0  0  0
  131.3236  117.5851   98.9958 C   0  0  0  0  0
  130.5593  117.9555  100.1319 C   0  0  0  0  0
  130.6629  119.2709  100.6041 C   0  0  0  0  0
  131.4560  120.2029   99.9402 C   0  0  0  0  0
  129.6589  116.9875  100.8522 C   0  0  0  0  0
  128.2996  117.6016  101.1555 C   0  0  0  0  0
  128.4544  116.6631   99.9830 C   0  0  0  0  0
  131.2675  115.1048   99.2730 C   0  0  0  0  0
  132.6108  114.8267   99.9219 C   0  0  0  0  0
  132.5403  115.1713  101.3952 C   0  0  0  0  0
  132.4430  113.7280  100.9502 C   0  0  0  0  0
  136.1954  123.5811   97.3646 O   0  0  0  0  0
  138.9858  120.3286   97.7639 O   0  0  0  0  0
  133.6338  120.4088   97.0498 O   0  0  0  0  0
  131.3435  116.2821   98.4776 O   0  0  0  0  0
  135.8106  121.7947   98.8139 N   0  0  0  0  0
  133.0672  122.1451   98.5123 N   0  0  0  0  0
  132.0692  118.5297   98.3597 N   0  0  0  0  0
  1  2  1  0  0  0
  2  3  1  0  0  0
  3  4  1  0  0  0
  3  6  1  0  0  0
  3 28  1  0  0  0
  4  5  1  0  0  0
  6 27  1  0  0  0
  7 27  1  0  0  0
  7  8  1  0  0  0
  8 24  1  0  0  0
  9 24  1  0  0  0
 10 11  1  0  0  0
 12 29  1  0  0  0
 12 26  1  0  0  0
 13 14  1  0  0  0
 15 11  1  0  0  0
 16 13  1  0  0  0
 16 17  1  0  0  0
 17 18  1  0  0  0
 18 16  1  0  0  0
 19 26  1  0  0  0
 19 20  1  0  0  0
 20 21  1  0  0  0
 21 22  1  0  0  0
 22 20  1  0  0  0
 28 10  1  0  0  0
  6 23  2  0  0  0
 10 25  2  0  0  0
 11 29  2  0  0  0
 12 13  2  0  0  0
 14 15  2  0  0  0
M  END
> <rmsd>
0.653115213

$$$$
CHEMBL3353833_6PT0


 30 34  0  0  0  0  0  0  0  0999 V2000
  132.1271  118.0414   99.9157 C   0  0  0  0  0
  132.5147  118.0902   98.5730 C   0  0  0  0  0
  132.3462  119.2684   97.8395 C   0  0  0  0  0
  131.7848  120.3974   98.4463 C   0  0  0  0  0
  131.4050  120.3497   99.7923 C   0  0  0  0  0
  131.5732  119.1712  100.5256 C   0  0  0  0  0
  131.6388  121.6640   97.6737 C   0  0  0  0  0
  133.0621  123.4481   98.7590 C   0  0  0  0  0
  132.1832  123.9162   99.7358 C   0  0  0  0  0
  132.6514  124.9135  100.6115 C   0  0  0  0  0
  133.9689  125.4131  100.5018 C   0  0  0  0  0
  134.8441  124.9250   99.5148 C   0  0  0  0  0
  134.3526  123.9445   98.6593 C   0  0  0  0  0
  134.9312  123.2480   97.6286 C   0  0  0  0  0
  133.9954  122.3788   97.1530 C   0  0  0  0  0
  135.5502  121.5404   95.6383 C   0  0  0  0  0
  136.3946  119.0514   95.4905 C   0  0  0  0  0
  137.6862  119.2965   96.2090 C   0  0  0  0  0
  137.6357  119.5786   97.5791 C   0  0  0  0  0
  138.8106  119.8140   98.2970 C   0  0  0  0  0
  140.0467  119.7617   97.6494 C   0  0  0  0  0
  140.1088  119.4685   96.2848 C   0  0  0  0  0
  138.9369  119.2312   95.5584 C   0  0  0  0  0
  139.0475  118.9093   94.1586 C   0  0  0  0  0
  132.8317  122.4870   97.8293 N   0  0  0  0  0
  134.2857  121.5109   96.1564 N   0  0  0  0  0
  136.4799  122.4251   96.1299 N   0  0  0  0  0
  136.1826  123.2747   97.1221 N   0  0  0  0  0
  139.1357  118.6509   93.0339 N   0  0  0  0  0
  136.0037  120.4061   94.3325 S   0  0  0  0  0
  2  3  1  0  0  0
  4  5  1  0  0  0
  6  1  1  0  0  0
  7  4  1  0  0  0
  7 25  1  0  0  0
  9 10  1  0  0  0
 11 12  1  0  0  0
 13 14  1  0  0  0
 13  8  1  0  0  0
 14 28  1  0  0  0
 15 26  1  0  0  0
 15 25  1  0  0  0
 16 27  1  0  0  0
 16 30  1  0  0  0
 17 30  1  0  0  0
 17 18  1  0  0  0
 19 20  1  0  0  0
 21 22  1  0  0  0
 23 24  1  0  0  0
 23 18  1  0  0  0
 25  8  1  0  0  0
  1  2  2  0  0  0
  3  4  2  0  0  0
  5  6  2  0  0  0
  8  9  2  0  0  0
 10 11  2  0  0  0
 12 13  2  0  0  0
 14 15  2  0  0  0
 16 26  2  0  0  0
 18 19  2  0  0  0
 20 21  2  0  0  0
 22 23  2  0  0  0
 27 28  2  0  0  0
 24 29  3  0  0  0
M  END
> <rmsd>
0.581061482

$$$$
CHEMBL467681_8GUT


 28 31  0  0  0  0  0  0  0  0999 V2000
  139.6833  117.7952   95.3272 C   0  0  0  0  0
  138.4607  118.2066   96.1317 C   0  0  0  0  0
  137.7859  119.4394   95.5268 C   0  0  0  0  0
  138.6313  120.7003   95.7247 C   0  0  0  0  0
  138.9560  120.9293   97.2043 C   0  0  0  0  0
  136.9975  122.4405   97.7904 C   0  0  0  0  0
  135.7334  122.6667   98.5360 C   0  0  0  0  0
  135.0526  123.8716   98.3383 C   0  0  0  0  0
  133.8658  124.1296   99.0094 C   0  0  0  0  0
  133.1873  125.3330   98.8168 C   0  0  0  0  0
  131.9967  125.5734   99.5034 C   0  0  0  0  0
  131.5027  124.6014  100.3761 C   0  0  0  0  0
  133.3425  123.1671   99.8930 C   0  0  0  0  0
  133.4365  120.9762  100.9869 C   0  0  0  0  0
  132.5420  120.0428  100.2391 C   0  0  0  0  0
  133.0671  118.8823   99.6595 C   0  0  0  0  0
  132.2344  118.0196   98.9404 C   0  0  0  0  0
  130.8759  118.3178   98.7967 C   0  0  0  0  0
  130.3504  119.4794   99.3708 C   0  0  0  0  0
  131.1831  120.3421  100.0899 C   0  0  0  0  0
  135.1827  121.7189   99.4323 C   0  0  0  0  0
  139.6543  119.7025   97.7916 C   0  0  0  0  0
  138.8144  118.4362   97.6026 C   0  0  0  0  0
  137.7490  121.2347   97.9642 N   0  0  0  0  0
  132.1771  123.4331  100.5515 N   0  0  0  0  0
  134.0031  121.9823  100.0840 N   0  0  0  0  0
  137.4181  123.3243   96.9938 O   0  0  0  0  0
  135.7769  120.6241   99.6377 O   0  0  0  0  0
  2  1  1  0  0  0
  2  3  1  0  0  0
  3  4  1  0  0  0
  4  5  1  0  0  0
  5 24  1  0  0  0
  5 22  1  0  0  0
  6  7  1  0  0  0
  8  9  1  0  0  0
 10 11  1  0  0  0
 12 25  1  0  0  0
 13 26  1  0  0  0
 13  9  1  0  0  0
 14 26  1  0  0  0
 14 15  1  0  0  0
 16 17  1  0  0  0
 18 19  1  0  0  0
 20 15  1  0  0  0
 21  7  1  0  0  0
 22 23  1  0  0  0
 23  2  1  0  0  0
 24  6  1  0  0  0
 26 21  1  0  0  0
  6 27  2  0  0  0
  7  8  2  0  0  0
  9 10  2  0  0  0
 11 12  2  0  0  0
 13 25  2  0  0  0
 15 16  2  0  0  0
 17 18  2  0  0  0
 19 20  2  0  0  0
 21 28  2  0  0  0
M  END
> <rmsd>
0.397183865

$$$$
CHEMBL2152805_5ZTY


 30 33  0  0  0  0  0  0  0  0999 V2000
  132.7885  123.8404  100.8560 C   0  0  0  0  0
  131.8999  125.8289  100.0370 C   0  0  0  0  0
  131.3058  123.8016   99.0535 C   0  0  0  0  0
  131.7423  123.1136   97.7648 C   0  0  0  0  0
  133.9933  122.2721   97.6652 C   0  0  0  0  0
  134.9979  121.3207   97.8783 C   0  0  0  0  0
  136.3814  121.6467   97.4514 C   0  0  0  0  0
  138.8328  121.0122   97.2729 C   0  0  0  0  0
  139.6544  119.7352   96.9560 C   0  0  0  0  0
  138.8905  118.4312   97.1780 C   0  0  0  0  0
  140.1269  119.7591   95.5089 C   0  0  0  0  0
  140.8252  119.8168   97.9624 C   0  0  0  0  0
  141.7397  120.9925   97.5855 C   0  0  0  0  0
  140.8945  122.2251   97.9132 C   0  0  0  0  0
  139.6136  121.6112   98.4559 C   0  0  0  0  0
  138.8469  122.5666   99.3547 C   0  0  0  0  0
  140.1330  120.3983   99.1684 C   0  0  0  0  0
  134.6479  120.0998   98.4921 C   0  0  0  0  0
  133.3138  119.8657   98.8625 C   0  0  0  0  0
  132.9358  118.6551   99.4640 C   0  0  0  0  0
  131.6058  118.4267   99.8212 C   0  0  0  0  0
  130.6399  119.4044   99.5798 C   0  0  0  0  0
  131.0026  120.6134   98.9833 C   0  0  0  0  0
  132.3383  120.8631   98.6209 C   0  0  0  0  0
  132.4184  124.5345   99.6352 N   0  0  0  0  0
  132.7052  122.0482   98.0381 N   0  0  0  0  0
  137.4471  120.7098   97.6320 N   0  0  0  0  0
  136.6228  122.7649   96.9182 O   0  0  0  0  0
  135.5209  119.2147   98.7096 O   0  0  0  0  0
  129.3495  119.1807   99.9249 F   0  0  0  0  0
  1 25  1  0  0  0
  2 25  1  0  0  0
  3 25  1  0  0  0
  3  4  1  0  0  0
  4 26  1  0  0  0
  6  7  1  0  0  0
  6 18  1  0  0  0
  7 27  1  0  0  0
  8 27  1  0  0  0
  8  9  1  0  0  0
  9 10  1  0  0  0
  9 11  1  0  0  0
 12  9  1  0  0  0
 12 13  1  0  0  0
 13 14  1  0  0  0
 14 15  1  0  0  0
 15 16  1  0  0  0
 15 17  1  0  0  0
 15  8  1  0  0  0
 17 12  1  0  0  0
 18 19  1  0  0  0
 20 21  1  0  0  0
 22 30  1  0  0  0
 22 23  1  0  0  0
 24 26  1  0  0  0
 24 19  1  0  0  0
 26  5  1  0  0  0
  5  6  2  0  0  0
  7 28  2  0  0  0
 18 29  2  0  0  0
 19 20  2  0  0  0
 21 22  2  0  0  0
 23 24  2  0  0  0
M  END
> <rmsd>
0.616625547

$$$$
CHEMBL579249_5ZTY


 31 34  0  0  0  0  0  0  0  0999 V2000
  133.0434  121.0006   98.4746 N   0  0  0  0  0
  134.2551  120.5485   98.1805 N   0  0  0  0  0
  131.8168  123.1435   98.2735 N   0  0  0  0  0
  137.0214  120.1630   97.3349 N   0  0  0  0  0
  134.9924  121.5836   97.7252 C   0  0  0  0  0
  134.2221  122.7358   97.7319 C   0  0  0  0  0
  132.9961  122.3270   98.2108 C   0  0  0  0  0
  131.6315  124.2346   99.0380 C   0  0  0  0  0
  130.3898  124.7947   98.8044 C   0  0  0  0  0
  129.7904  124.0056   97.8301 C   0  0  0  0  0
  130.7007  123.0091   97.5336 C   0  0  0  0  0
  130.4874  121.9533   96.5025 C   0  0  0  0  0
  132.6178  124.7549  100.0273 C   0  0  0  0  0
  134.5908  124.0956   97.2435 C   0  0  0  0  0
  136.3892  121.4486   97.2854 C   0  0  0  0  0
  138.3981  119.8941   96.9288 C   0  0  0  0  0
  138.5926  120.2300   95.4532 C   0  0  0  0  0
  139.6015  119.3143   94.7537 C   0  0  0  0  0
  140.8466  118.9547   95.5701 C   0  0  0  0  0
  141.3959  120.1247   96.3737 C   0  0  0  0  0
  140.7807  120.1169   97.7674 C   0  0  0  0  0
  139.3724  120.7029   97.7826 C   0  0  0  0  0
  132.0110  120.1660   99.0297 C   0  0  0  0  0
  132.1013  118.7721   98.9086 C   0  0  0  0  0
  131.1212  117.9410   99.4591 C   0  0  0  0  0
  130.0357  118.5057  100.1492 C   0  0  0  0  0
  129.9474  119.8934  100.2846 C   0  0  0  0  0
  130.9298  120.7178   99.7322 C   0  0  0  0  0
  137.0247  122.4551   96.8698 O   0  0  0  0  0
  128.7776  117.5074  100.8586 Cl  0  0  0  0  0
  131.2858  116.2035   99.2681 Cl  0  0  0  0  0
  1  2  1  0  0  0
  1 23  1  0  0  0
  3  8  1  0  0  0
  5  6  1  0  0  0
  5 15  1  0  0  0
  7  3  1  0  0  0
  7  1  1  0  0  0
  9 10  1  0  0  0
 11  3  1  0  0  0
 12 11  1  0  0  0
 13  8  1  0  0  0
 14  6  1  0  0  0
 15  4  1  0  0  0
 16  4  1  0  0  0
 16 17  1  0  0  0
 17 18  1  0  0  0
 18 19  1  0  0  0
 19 20  1  0  0  0
 20 21  1  0  0  0
 21 22  1  0  0  0
 22 16  1  0  0  0
 24 25  1  0  0  0
 25 31  1  0  0  0
 26 27  1  0  0  0
 26 30  1  0  0  0
 28 23  1  0  0  0
  5  2  2  0  0  0
  6  7  2  0  0  0
  8  9  2  0  0  0
 10 11  2  0  0  0
 15 29  2  0  0  0
 23 24  2  0  0  0
 25 26  2  0  0  0
 27 28  2  0  0  0
M  END
> <rmsd>
0.685436785

$$$$
CHEMBL218956_6PT0


 28 31  0  0  0  0  0  0  0  0999 V2000
  139.5062  118.6427   96.4786 C   0  0  0  0  0
  139.8926  119.6926   97.3116 C   0  0  0  0  0
  139.0369  120.7766   97.5167 C   0  0  0  0  0
  137.7787  120.8263   96.9012 C   0  0  0  0  0
  137.3912  119.7744   96.0369 C   0  0  0  0  0
  138.2663  118.6763   95.8387 C   0  0  0  0  0
  137.9002  117.6297   94.9877 C   0  0  0  0  0
  136.6750  117.6662   94.3177 C   0  0  0  0  0
  135.8136  118.7518   94.4915 C   0  0  0  0  0
  136.1708  119.8009   95.3422 C   0  0  0  0  0
  136.9203  121.9997   97.1708 C   0  0  0  0  0
  135.5345  121.8549   97.6533 C   0  0  0  0  0
  134.6225  122.8841   97.7771 C   0  0  0  0  0
  133.6621  121.0519   98.4773 C   0  0  0  0  0
  134.9453  120.6853   98.1044 C   0  0  0  0  0
  132.6562  120.1006   99.0118 C   0  0  0  0  0
  131.3280  120.4820   99.2441 C   0  0  0  0  0
  130.7713  118.2997   99.9937 C   0  0  0  0  0
  132.0801  117.8689   99.7755 C   0  0  0  0  0
  133.0203  118.7742   99.2823 C   0  0  0  0  0
  132.3059  123.1865   98.5817 C   0  0  0  0  0
  132.3241  123.6319  100.0400 C   0  0  0  0  0
  133.4030  124.6736  100.2920 C   0  0  0  0  0
  133.0057  126.0067   99.6872 C   0  0  0  0  0
  134.1057  127.0178   99.9299 C   0  0  0  0  0
  137.4033  123.1553   97.0269 O   0  0  0  0  0
  133.4802  122.3789   98.2736 N   0  0  0  0  0
  130.4246  119.5864   99.7253 N   0  0  0  0  0
  2  3  1  0  0  0
  4  5  1  0  0  0
  4 11  1  0  0  0
  6  7  1  0  0  0
  6  1  1  0  0  0
  8  9  1  0  0  0
 10  5  1  0  0  0
 11 12  1  0  0  0
 13 27  1  0  0  0
 14 16  1  0  0  0
 15 12  1  0  0  0
 17 28  1  0  0  0
 18 19  1  0  0  0
 20 16  1  0  0  0
 21 27  1  0  0  0
 21 22  1  0  0  0
 22 23  1  0  0  0
 23 24  1  0  0  0
 24 25  1  0  0  0
 27 14  1  0  0  0
  1  2  2  0  0  0
  3  4  2  0  0  0
  5  6  2  0  0  0
  7  8  2  0  0  0
  9 10  2  0  0  0
 11 26  2  0  0  0
 12 13  2  0  0  0
 14 15  2  0  0  0
 16 17  2  0  0  0
 18 28  2  0  0  0
 19 20  2  0  0  0
M  END
> <rmsd>
0.409448892

$$$$
CHEMBL2152808_5ZTY


 30 33  0  0  0  0  0  0  0  0999 V2000
  137.6879  122.6467   93.0499 C   0  0  0  0  0
  137.4676  121.2538   93.6238 C   0  0  0  0  0
  136.0398  120.8284   93.2879 C   0  0  0  0  0
  138.4587  120.2133   93.0518 C   0  0  0  0  0
  139.8908  120.7593   93.1643 C   0  0  0  0  0
  140.1677  120.7359   94.6692 C   0  0  0  0  0
  138.8775  120.1603   95.2318 C   0  0  0  0  0
  139.0667  119.5267   96.5998 C   0  0  0  0  0
  138.4803  119.1902   94.1594 C   0  0  0  0  0
  137.7914  121.2417   95.1400 C   0  0  0  0  0
  136.1390  121.7748   96.9806 C   0  0  0  0  0
  134.9637  121.3987   97.8055 C   0  0  0  0  0
  134.5319  122.2899   98.7950 C   0  0  0  0  0
  133.0897  123.0159  100.5850 C   0  0  0  0  0
  131.9489  123.8921  100.0756 C   0  0  0  0  0
  132.4099  124.8167   98.9595 C   0  0  0  0  0
  133.2678  125.9360   99.5180 C   0  0  0  0  0
  132.7693  120.8405   99.4508 C   0  0  0  0  0
  131.6696  120.5452  100.2762 C   0  0  0  0  0
  130.9676  119.3477  100.1259 C   0  0  0  0  0
  131.3539  118.4288   99.1493 C   0  0  0  0  0
  132.4448  118.7039   98.3229 C   0  0  0  0  0
  133.1604  119.9032   98.4643 C   0  0  0  0  0
  134.2616  120.1863   97.6403 C   0  0  0  0  0
  136.6297  120.9027   95.9600 N   0  0  0  0  0
  133.4632  122.0134   99.5894 N   0  0  0  0  0
  136.7157  122.8790   97.1824 O   0  0  0  0  0
  133.7029  126.7520   98.4753 O   0  0  0  0  0
  134.6134  119.3530   96.7598 O   0  0  0  0  0
  129.9096  119.0789  100.9277 F   0  0  0  0  0
  1  2  1  0  0  0
  2  3  1  0  0  0
  4  2  1  0  0  0
  4  5  1  0  0  0
  5  6  1  0  0  0
  6  7  1  0  0  0
  7  8  1  0  0  0
  7  9  1  0  0  0
  7 10  1  0  0  0
  9  4  1  0  0  0
 10 25  1  0  0  0
 10  2  1  0  0  0
 11 12  1  0  0  0
 13 26  1  0  0  0
 14 26  1  0  0  0
 14 15  1  0  0  0
 15 16  1  0  0  0
 16 17  1  0  0  0
 17 28  1  0  0  0
 19 20  1  0  0  0
 20 30  1  0  0  0
 21 22  1  0  0  0
 23 24  1  0  0  0
 23 18  1  0  0  0
 24 12  1  0  0  0
 25 11  1  0  0  0
 26 18  1  0  0  0
 11 27  2  0  0  0
 12 13  2  0  0  0
 18 19  2  0  0  0
 20 21  2  0  0  0
 22 23  2  0  0  0
 24 29  2  0  0  0
M  END
> <rmsd>
0.394608647

$$$$
CHEMBL574270_5ZTY


 32 35  0  0  0  0  0  0  0  0999 V2000
  133.5859  121.2944   98.6549 N   0  0  0  0  0
  134.5728  120.7900   97.9266 N   0  0  0  0  0
  132.9561  123.5156   99.5535 N   0  0  0  0  0
  136.9693  120.2914   96.3400 N   0  0  0  0  0
  135.4749  121.7692   97.7028 C   0  0  0  0  0
  135.0471  122.9376   98.3130 C   0  0  0  0  0
  133.8489  122.5985   98.9032 C   0  0  0  0  0
  133.1883  124.1983  100.6890 C   0  0  0  0  0
  132.1189  125.0170  100.9988 C   0  0  0  0  0
  131.1873  124.8314   99.9846 C   0  0  0  0  0
  131.7432  123.9065   99.1212 C   0  0  0  0  0
  131.0977  123.4348   97.8626 C   0  0  0  0  0
  134.4187  124.0680  101.5206 C   0  0  0  0  0
  135.6815  124.2865   98.2724 C   0  0  0  0  0
  136.6989  121.5737   96.9117 C   0  0  0  0  0
  138.1712  120.0096   95.5664 C   0  0  0  0  0
  137.9967  118.7464   94.7858 C   0  0  0  0  0
  137.7299  117.5266   95.4273 C   0  0  0  0  0
  137.5633  116.3597   94.6756 C   0  0  0  0  0
  137.6607  116.4065   93.2818 C   0  0  0  0  0
  137.9240  117.6199   92.6393 C   0  0  0  0  0
  138.0908  118.7875   93.3902 C   0  0  0  0  0
  139.3790  119.9107   96.4850 C   0  0  0  0  0
  132.4721  120.5078   99.1151 C   0  0  0  0  0
  131.6860  120.9266  100.1985 C   0  0  0  0  0
  130.6171  120.1495  100.6513 C   0  0  0  0  0
  130.3294  118.9270  100.0221 C   0  0  0  0  0
  131.1174  118.4971   98.9511 C   0  0  0  0  0
  132.1834  119.2805   98.5021 C   0  0  0  0  0
  137.5033  122.5284   96.7354 O   0  0  0  0  0
  128.9981  117.9120  100.5514 Cl  0  0  0  0  0
  129.6643  120.7368  102.0036 Cl  0  0  0  0  0
  1  2  1  0  0  0
  1 24  1  0  0  0
  3  8  1  0  0  0
  5  6  1  0  0  0
  5 15  1  0  0  0
  7  3  1  0  0  0
  7  1  1  0  0  0
  9 10  1  0  0  0
 11  3  1  0  0  0
 12 11  1  0  0  0
 13  8  1  0  0  0
 14  6  1  0  0  0
 15  4  1  0  0  0
 16  4  1  0  0  0
 16 17  1  0  0  0
 16 23  1  0  0  0
 18 19  1  0  0  0
 20 21  1  0  0  0
 22 17  1  0  0  0
 25 26  1  0  0  0
 26 32  1  0  0  0
 27 28  1  0  0  0
 27 31  1  0  0  0
 29 24  1  0  0  0
  5  2  2  0  0  0
  6  7  2  0  0  0
  8  9  2  0  0  0
 10 11  2  0  0  0
 15 30  2  0  0  0
 17 18  2  0  0  0
 19 20  2  0  0  0
 21 22  2  0  0  0
 24 25  2  0  0  0
 26 27  2  0  0  0
 28 29  2  0  0  0
M  END
> <rmsd>
0.704836607

$$$$
CHEMBL574480_8GUQ


 30 33  0  0  0  0  0  0  0  0999 V2000
  135.5728  124.4802   98.3069 C   0  0  0  0  0
  134.9116  123.1455   98.2238 C   0  0  0  0  0
  135.2451  122.0816   97.4007 C   0  0  0  0  0
  136.3762  121.9993   96.4643 C   0  0  0  0  0
  137.7060  120.6135   94.8080 C   0  0  0  0  0
  137.3000  119.7505   93.6285 C   0  0  0  0  0
  138.8750  119.9686   95.5573 C   0  0  0  0  0
  139.5787  120.9887   96.4662 C   0  0  0  0  0
  140.2720  120.3519   97.6765 C   0  0  0  0  0
  140.8136  118.9684   97.3311 C   0  0  0  0  0
  139.6833  118.0055   96.9423 C   0  0  0  0  0
  138.4662  118.7026   96.3199 C   0  0  0  0  0
  132.4127  120.6167   98.9456 C   0  0  0  0  0
  131.8584  119.6543   98.0913 C   0  0  0  0  0
  130.8700  118.7826   98.5549 C   0  0  0  0  0
  130.4318  118.8549   99.8801 C   0  0  0  0  0
  130.9964  119.8031  100.7495 C   0  0  0  0  0
  131.9865  120.6706  100.2803 C   0  0  0  0  0
  133.7685  122.7315   98.8810 C   0  0  0  0  0
  133.4154  124.4513  100.6218 C   0  0  0  0  0
  132.3440  125.0921  101.2123 C   0  0  0  0  0
  131.1985  124.5616  100.6413 C   0  0  0  0  0
  131.6138  123.6170   99.7237 C   0  0  0  0  0
  137.1770  122.9657   96.3457 O   0  0  0  0  0
  136.5567  120.8161   95.6827 N   0  0  0  0  0
  134.3515  121.0854   97.5708 N   0  0  0  0  0
  133.4585  121.4786   98.4685 N   0  0  0  0  0
  132.9562  123.5528   99.7346 N   0  0  0  0  0
  129.1858  117.7413  100.4186 Cl  0  0  0  0  0
  130.4917  119.9302  102.4262 Cl  0  0  0  0  0
  1  2  1  0  0  0
  2  3  1  0  0  0
  3  4  1  0  0  0
  4 25  1  0  0  0
  5 25  1  0  0  0
  5  6  1  0  0  0
  5  7  1  0  0  0
  7  8  1  0  0  0
  8  9  1  0  0  0
  9 10  1  0  0  0
 10 11  1  0  0  0
 11 12  1  0  0  0
 12  7  1  0  0  0
 14 15  1  0  0  0
 16 29  1  0  0  0
 16 17  1  0  0  0
 17 30  1  0  0  0
 18 13  1  0  0  0
 19 28  1  0  0  0
 21 22  1  0  0  0
 23 28  1  0  0  0
 27 26  1  0  0  0
 27 13  1  0  0  0
 27 19  1  0  0  0
 28 20  1  0  0  0
  3 26  2  0  0  0
  4 24  2  0  0  0
 13 14  2  0  0  0
 15 16  2  0  0  0
 17 18  2  0  0  0
 19  2  2  0  0  0
 20 21  2  0  0  0
 22 23  2  0  0  0
M  END
> <rmsd>
0.718460023

$$$$
CHEMBL3353423_5ZTY


 25 27  0  0  0  0  0  0  0  0999 V2000
  131.3357  118.7445   99.6166 C   0  0  0  0  0
  130.6038  119.9023   99.8893 C   0  0  0  0  0
  132.3342  121.2650   98.9814 C   0  0  0  0  0
  133.0933  120.1152   98.6927 C   0  0  0  0  0
  132.5892  118.8549   99.0138 C   0  0  0  0  0
  134.3367  120.2470   98.0902 C   0  0  0  0  0
  134.8370  121.5107   97.7662 C   0  0  0  0  0
  134.0503  122.6481   98.0670 C   0  0  0  0  0
  132.0350  123.6998   98.9846 C   0  0  0  0  0
  132.1514  124.0595  100.4631 C   0  0  0  0  0
  133.5270  124.6138  100.7981 C   0  0  0  0  0
  133.6661  126.0325  100.2793 C   0  0  0  0  0
  136.1706  121.5995   97.1224 C   0  0  0  0  0
  138.2339  120.4105   96.2490 C   0  0  0  0  0
  138.5549  119.0169   95.6891 C   0  0  0  0  0
  139.3023  118.1578   96.7082 C   0  0  0  0  0
  140.6355  118.7978   97.1241 C   0  0  0  0  0
  140.6481  120.3265   96.9995 C   0  0  0  0  0
  139.2654  120.9083   97.2751 C   0  0  0  0  0
  141.7686  118.2154   96.3043 C   0  0  0  0  0
  131.1110  121.1236   99.5700 N   0  0  0  0  0
  132.8257  122.5058   98.6711 N   0  0  0  0  0
  136.9066  120.4025   96.8463 N   0  0  0  0  0
  134.4740  123.8018   97.7769 O   0  0  0  0  0
  136.6636  122.7184   96.8128 O   0  0  0  0  0
  2 21  1  0  0  0
  3  4  1  0  0  0
  4  6  1  0  0  0
  5  1  1  0  0  0
  7  8  1  0  0  0
  7 13  1  0  0  0
  8 22  1  0  0  0
  9 22  1  0  0  0
  9 10  1  0  0  0
 10 11  1  0  0  0
 11 12  1  0  0  0
 13 23  1  0  0  0
 14 23  1  0  0  0
 14 15  1  0  0  0
 15 16  1  0  0  0
 16 17  1  0  0  0
 17 18  1  0  0  0
 17 20  1  0  0  0
 18 19  1  0  0  0
 19 14  1  0  0  0
 22  3  1  0  0  0
  1  2  2  0  0  0
  3 21  2  0  0  0
  4  5  2  0  0  0
  6  7  2  0  0  0
  8 24  2  0  0  0
 13 25  2  0  0  0
M  END
> <rmsd>
0.600893378

$$$$
CHEMBL1765248_5ZTY


 25 28  0  0  0  0  0  0  0  0999 V2000
  139.1116  119.4821   96.4072 C   0  0  0  0  0
  139.9777  121.5406   97.0953 C   0  0  0  0  0
  139.4152  122.6783   97.9219 C   0  0  0  0  0
  138.2257  122.0951   98.6545 C   0  0  0  0  0
  136.9503  122.8601   98.4143 C   0  0  0  0  0
  135.8265  121.6600  100.3199 C   0  0  0  0  0
  134.6891  120.6543  100.2212 C   0  0  0  0  0
  133.3299  121.3603  100.1656 C   0  0  0  0  0
  132.2561  120.3063   99.9844 C   0  0  0  0  0
  131.2504  120.1232  100.9487 C   0  0  0  0  0
  130.2619  119.1516  100.7691 C   0  0  0  0  0
  130.2674  118.3526   99.6233 C   0  0  0  0  0
  131.2608  118.5246   98.6565 C   0  0  0  0  0
  132.2495  119.4958   98.8353 C   0  0  0  0  0
  133.2869  122.3662   98.9861 C   0  0  0  0  0
  131.9610  123.1573   98.9775 C   0  0  0  0  0
  132.1467  124.6133   98.5554 C   0  0  0  0  0
  133.1253  125.3309   99.4926 C   0  0  0  0  0
  134.3805  124.5086   99.8241 C   0  0  0  0  0
  134.5265  123.2915   98.9103 C   0  0  0  0  0
  138.0966  120.6791   98.1361 C   0  0  0  0  0
  139.3831  120.3016   97.5742 N   0  0  0  0  0
  135.7689  122.5683   99.1799 N   0  0  0  0  0
  136.9141  123.7622   97.5316 O   0  0  0  0  0
  133.1371  122.0469  101.3728 O   0  0  0  0  0
  1 22  1  0  0  0
  2 22  1  0  0  0
  2  3  1  0  0  0
  3  4  1  0  0  0
  4  5  1  0  0  0
  4 21  1  0  0  0
  5 23  1  0  0  0
  6 23  1  0  0  0
  6  7  1  0  0  0
  7  8  1  0  0  0
  8 25  1  0  0  0
  8  9  1  0  0  0
  8 15  1  0  0  0
 10 11  1  0  0  0
 12 13  1  0  0  0
 14  9  1  0  0  0
 15 16  1  0  0  0
 16 17  1  0  0  0
 17 18  1  0  0  0
 18 19  1  0  0  0
 20 19  1  0  0  0
 20 23  1  0  0  0
 20 15  1  0  0  0
 21 22  1  0  0  0
  5 24  2  0  0  0
  9 10  2  0  0  0
 11 12  2  0  0  0
 13 14  2  0  0  0
M  END
> <rmsd>
0.591377199

$$$$
CHEMBL576549_5ZTY


 29 32  0  0  0  0  0  0  0  0999 V2000
  135.3822  124.3845   98.1009 C   0  0  0  0  0
  134.7964  123.0267   98.2971 C   0  0  0  0  0
  135.3886  121.8002   98.0406 C   0  0  0  0  0
  136.7135  121.5561   97.4499 C   0  0  0  0  0
  138.4598  119.8466   96.6999 C   0  0  0  0  0
  139.6099  120.3413   97.5912 C   0  0  0  0  0
  140.9971  119.8012   97.2063 C   0  0  0  0  0
  140.9378  118.5423   96.3363 C   0  0  0  0  0
  140.6271  118.8394   94.8603 C   0  0  0  0  0
  139.9389  120.1870   94.6145 C   0  0  0  0  0
  138.5421  120.2877   95.2319 C   0  0  0  0  0
  132.3358  120.5850   99.3672 C   0  0  0  0  0
  132.5364  119.3095   99.9113 C   0  0  0  0  0
  131.4463  118.5261  100.2977 C   0  0  0  0  0
  130.1427  119.0033  100.1350 C   0  0  0  0  0
  129.9311  120.2728   99.5715 C   0  0  0  0  0
  131.0258  121.0505   99.1847 C   0  0  0  0  0
  133.5795  122.7117   98.8714 C   0  0  0  0  0
  132.3733  124.8683   98.9550 C   0  0  0  0  0
  131.5055  125.5127   99.8145 C   0  0  0  0  0
  131.2827  124.6505  100.8760 C   0  0  0  0  0
  132.0231  123.5125  100.6246 C   0  0  0  0  0
  137.4424  122.5237   97.1004 O   0  0  0  0  0
  137.1682  120.2089   97.2735 N   0  0  0  0  0
  134.5598  120.8109   98.4332 N   0  0  0  0  0
  133.4635  121.3631   98.9342 N   0  0  0  0  0
  132.6651  123.6548   99.4526 N   0  0  0  0  0
  128.8029  117.9859  100.6373 Cl  0  0  0  0  0
  128.3153  120.9167   99.3337 Cl  0  0  0  0  0
  1  2  1  0  0  0
  2  3  1  0  0  0
  3  4  1  0  0  0
  4 24  1  0  0  0
  5 24  1  0  0  0
  5  6  1  0  0  0
  6  7  1  0  0  0
  7  8  1  0  0  0
  8  9  1  0  0  0
  9 10  1  0  0  0
 10 11  1  0  0  0
 11  5  1  0  0  0
 13 14  1  0  0  0
 15 28  1  0  0  0
 15 16  1  0  0  0
 16 29  1  0  0  0
 17 12  1  0  0  0
 18 27  1  0  0  0
 20 21  1  0  0  0
 22 27  1  0  0  0
 26 25  1  0  0  0
 26 12  1  0  0  0
 26 18  1  0  0  0
 27 19  1  0  0  0
  3 25  2  0  0  0
  4 23  2  0  0  0
 12 13  2  0  0  0
 14 15  2  0  0  0
 16 17  2  0  0  0
 18  2  2  0  0  0
 19 20  2  0  0  0
 21 22  2  0  0  0
M  END
> <rmsd>
0.849212468

$$$$
CHEMBL2152801_5ZTY


 28 31  0  0  0  0  0  0  0  0999 V2000
  131.6385  124.3667   99.4446 C   0  0  0  0  0
  133.0254  124.4254  100.0553 C   0  0  0  0  0
  133.3700  123.0983  100.7185 C   0  0  0  0  0
  134.7145  122.1593   98.9379 C   0  0  0  0  0
  135.0267  121.1972   97.9695 C   0  0  0  0  0
  136.2513  121.3895   97.1523 C   0  0  0  0  0
  137.7840  120.4565   95.2476 C   0  0  0  0  0
  139.1521  120.2051   95.9256 C   0  0  0  0  0
  139.6949  118.8415   95.5219 C   0  0  0  0  0
  139.1236  120.2635   97.4489 C   0  0  0  0  0
  140.0129  121.3684   95.3743 C   0  0  0  0  0
  140.2299  121.1732   93.8643 C   0  0  0  0  0
  138.8486  121.4506   93.2608 C   0  0  0  0  0
  138.0103  121.7729   94.4878 C   0  0  0  0  0
  136.7673  122.5787   94.1523 C   0  0  0  0  0
  139.0103  122.4951   95.3429 C   0  0  0  0  0
  134.1632  120.0918   97.8188 C   0  0  0  0  0
  133.0267  119.9813   98.6360 C   0  0  0  0  0
  132.1538  118.8891   98.5108 C   0  0  0  0  0
  131.0275  118.7852   99.3290 C   0  0  0  0  0
  130.7618  119.7707  100.2805 C   0  0  0  0  0
  131.6213  120.8627  100.4152 C   0  0  0  0  0
  132.7604  120.9842   99.5993 C   0  0  0  0  0
  133.6060  122.0544   99.7211 N   0  0  0  0  0
  136.6159  120.4353   96.1422 N   0  0  0  0  0
  136.9727  122.4036   97.3529 O   0  0  0  0  0
  134.4026  119.2000   96.9586 O   0  0  0  0  0
  129.6687  119.6685  101.0737 F   0  0  0  0  0
  1  2  1  0  0  0
  2  3  1  0  0  0
  3 24  1  0  0  0
  5  6  1  0  0  0
  5 17  1  0  0  0
  6 25  1  0  0  0
  7 25  1  0  0  0
  7  8  1  0  0  0
  8  9  1  0  0  0
  8 10  1  0  0  0
 11  8  1  0  0  0
 11 12  1  0  0  0
 12 13  1  0  0  0
 13 14  1  0  0  0
 14 15  1  0  0  0
 14 16  1  0  0  0
 14  7  1  0  0  0
 16 11  1  0  0  0
 17 18  1  0  0  0
 19 20  1  0  0  0
 21 28  1  0  0  0
 21 22  1  0  0  0
 23 24  1  0  0  0
 23 18  1  0  0  0
 24  4  1  0  0  0
  4  5  2  0  0  0
  6 26  2  0  0  0
 17 27  2  0  0  0
 18 19  2  0  0  0
 20 21  2  0  0  0
 22 23  2  0  0  0
M  END
> <rmsd>
0.639769852

$$$$
CHEMBL1765258_5ZTY


 29 33  0  0  0  0  0  0  0  0999 V2000
  136.6804  123.5655   97.6927 O   0  0  0  0  0
  130.7629  122.6650   98.2987 O   0  0  0  0  0
  136.1640  122.4145   97.6497 C   0  0  0  0  0
  137.0307  121.2645   97.2995 C   0  0  0  0  0
  136.6938  119.9528   97.6661 C   0  0  0  0  0
  138.6949  119.1064   96.7115 C   0  0  0  0  0
  139.5225  118.0202   96.4132 C   0  0  0  0  0
  140.7331  118.2290   95.7428 C   0  0  0  0  0
  141.1177  119.5222   95.3700 C   0  0  0  0  0
  140.2934  120.6134   95.6651 C   0  0  0  0  0
  139.0831  120.4092   96.3336 C   0  0  0  0  0
  138.2466  121.4830   96.6368 C   0  0  0  0  0
  134.0027  121.1227   97.4287 C   0  0  0  0  0
  132.5323  121.4857   97.2692 C   0  0  0  0  0
  131.8792  121.8784   98.6034 C   0  0  0  0  0
  131.3996  120.6158   99.2977 C   0  0  0  0  0
  130.4043  119.8290   98.6924 C   0  0  0  0  0
  129.9485  118.6583   99.3063 C   0  0  0  0  0
  130.4830  118.2582  100.5333 C   0  0  0  0  0
  131.4735  119.0280  101.1468 C   0  0  0  0  0
  131.9296  120.1986  100.5332 C   0  0  0  0  0
  132.8657  122.6856   99.5103 C   0  0  0  0  0
  132.2045  123.7447  100.4055 C   0  0  0  0  0
  131.8925  125.0206   99.6197 C   0  0  0  0  0
  133.1482  125.5635   98.9412 C   0  0  0  0  0
  133.7403  124.5163   98.0023 C   0  0  0  0  0
  134.1032  123.2635   98.7991 C   0  0  0  0  0
  137.5195  118.9132   97.3660 N   0  0  0  0  0
  134.7613  122.2636   97.9496 N   0  0  0  0  0
  3  4  1  0  0  0
  3 29  1  0  0  0
  5 28  1  0  0  0
  6  7  1  0  0  0
  8  9  1  0  0  0
 10 11  1  0  0  0
 11  6  1  0  0  0
 12  4  1  0  0  0
 13 29  1  0  0  0
 13 14  1  0  0  0
 14 15  1  0  0  0
 15  2  1  0  0  0
 15 16  1  0  0  0
 15 22  1  0  0  0
 17 18  1  0  0  0
 19 20  1  0  0  0
 21 16  1  0  0  0
 22 23  1  0  0  0
 23 24  1  0  0  0
 24 25  1  0  0  0
 25 26  1  0  0  0
 27 26  1  0  0  0
 27 29  1  0  0  0
 27 22  1  0  0  0
  3  1  2  0  0  0
  4  5  2  0  0  0
  6 28  2  0  0  0
  7  8  2  0  0  0
  9 10  2  0  0  0
 11 12  2  0  0  0
 16 17  2  0  0  0
 18 19  2  0  0  0
 20 21  2  0  0  0
M  END
> <rmsd>
0.749201059

$$$$
CHEMBL2163963_6PT0


 25 28  0  0  0  0  0  0  0  0999 V2000
  133.6444  124.6869  100.0657 C   0  0  0  0  0
  132.3147  123.9595  100.1101 C   0  0  0  0  0
  131.9589  123.4039   98.7359 C   0  0  0  0  0
  130.4590  123.1012   98.6847 C   0  0  0  0  0
  130.9980  120.8004   99.3226 C   0  0  0  0  0
  130.5499  119.5453   99.7403 C   0  0  0  0  0
  131.3717  118.4251   99.5909 C   0  0  0  0  0
  132.6404  118.5560   99.0185 C   0  0  0  0  0
  133.1073  119.8140   98.6067 C   0  0  0  0  0
  134.3734  119.9671   98.0196 C   0  0  0  0  0
  134.8089  121.2514   97.6249 C   0  0  0  0  0
  136.1257  121.4996   96.9863 C   0  0  0  0  0
  138.3317  120.6142   96.0952 C   0  0  0  0  0
  138.8744  119.2889   95.5550 C   0  0  0  0  0
  139.1842  118.3113   96.6886 C   0  0  0  0  0
  140.1771  118.9334   97.6646 C   0  0  0  0  0
  139.6028  120.2216   98.2446 C   0  0  0  0  0
  139.2975  121.2145   97.1236 C   0  0  0  0  0
  133.9673  122.3464   97.8644 C   0  0  0  0  0
  132.2889  120.9499   98.7880 C   0  0  0  0  0
  130.1640  121.9146   99.4197 O   0  0  0  0  0
  135.1093  118.9560   97.8501 O   0  0  0  0  0
  136.4693  122.6809   96.7049 O   0  0  0  0  0
  137.0096  120.4172   96.6780 N   0  0  0  0  0
  132.7462  122.1947   98.4452 N   0  0  0  0  0
  1  2  1  0  0  0
  3  2  1  0  0  0
  3  4  1  0  0  0
  3 25  1  0  0  0
  4 21  1  0  0  0
  5 21  1  0  0  0
  5  6  1  0  0  0
  7  8  1  0  0  0
  9 10  1  0  0  0
 10 11  1  0  0  0
 11 12  1  0  0  0
 12 24  1  0  0  0
 13 24  1  0  0  0
 13 14  1  0  0  0
 14 15  1  0  0  0
 15 16  1  0  0  0
 16 17  1  0  0  0
 17 18  1  0  0  0
 18 13  1  0  0  0
 19 25  1  0  0  0
 20  9  1  0  0  0
 25 20  1  0  0  0
  6  7  2  0  0  0
  8  9  2  0  0  0
 10 22  2  0  0  0
 11 19  2  0  0  0
 12 23  2  0  0  0
 20  5  2  0  0  0
M  END
> <rmsd>
0.56431824

$$$$
CHEMBL2381811_8GUR


 29 31  0  0  0  0  0  0  0  0999 V2000
  131.9146  123.3524   98.5276 C   0  0  0  0  0
  131.5215  123.8133   99.9277 C   0  0  0  0  0
  132.6992  124.4544  100.6519 C   0  0  0  0  0
  133.0318  125.8203  100.0710 C   0  0  0  0  0
  131.9971  126.8439  100.4986 C   0  0  0  0  0
  134.1339  122.4157   98.1804 C   0  0  0  0  0
  135.0714  121.3601   98.2009 C   0  0  0  0  0
  134.6258  120.0943   98.6481 C   0  0  0  0  0
  132.4655  120.9904   99.0026 C   0  0  0  0  0
  131.2148  120.5756   99.4220 C   0  0  0  0  0
  131.4441  119.2253   99.7176 C   0  0  0  0  0
  130.3870  118.2422  100.1480 C   0  0  0  0  0
  131.0110  117.0640  100.8753 C   0  0  0  0  0
  129.3876  118.9004  101.0834 C   0  0  0  0  0
  129.6519  117.7275   98.9262 C   0  0  0  0  0
  136.4600  121.6212   97.7537 C   0  0  0  0  0
  138.8123  120.7751   97.3068 C   0  0  0  0  0
  138.8582  120.9165   95.7815 C   0  0  0  0  0
  138.4977  119.6329   95.0419 C   0  0  0  0  0
  139.6988  118.6993   95.0405 C   0  0  0  0  0
  139.7003  117.7177   96.2152 C   0  0  0  0  0
  139.2015  118.2843   97.5465 C   0  0  0  0  0
  139.7400  119.6811   97.8450 C   0  0  0  0  0
  132.8447  122.2297   98.5861 N   0  0  0  0  0
  133.3304  119.9719   99.0310 N   0  0  0  0  0
  132.7279  118.8780   99.4550 N   0  0  0  0  0
  137.4455  120.5841   97.7799 N   0  0  0  0  0
  135.3954  119.0965   98.6924 O   0  0  0  0  0
  136.7787  122.7730   97.3491 O   0  0  0  0  0
  1  2  1  0  0  0
  1 24  1  0  0  0
  2  3  1  0  0  0
  3  4  1  0  0  0
  4  5  1  0  0  0
  7  8  1  0  0  0
  7 16  1  0  0  0
  8 25  1  0  0  0
  9 24  1  0  0  0
 10 11  1  0  0  0
 12 11  1  0  0  0
 12 13  1  0  0  0
 12 14  1  0  0  0
 12 15  1  0  0  0
 16 27  1  0  0  0
 17 27  1  0  0  0
 17 18  1  0  0  0
 18 19  1  0  0  0
 19 20  1  0  0  0
 20 21  1  0  0  0
 21 22  1  0  0  0
 22 23  1  0  0  0
 23 17  1  0  0  0
 24  6  1  0  0  0
 25  9  1  0  0  0
 25 26  1  0  0  0
  6  7  2  0  0  0
  8 28  2  0  0  0
  9 10  2  0  0  0
 11 26  2  0  0  0
 16 29  2  0  0  0
M  END
> <rmsd>
0.633132339

$$$$
CHEMBL4112675_8GUQ


 29 31  0  0  0  0  0  0  0  0999 V2000
  134.4706  122.7144   93.7441 C   0  0  0  0  0
  135.8949  122.4608   94.2037 C   0  0  0  0  0
  136.5869  123.7986   94.3955 C   0  0  0  0  0
  136.6075  121.7010   93.0989 C   0  0  0  0  0
  135.8810  121.6168   95.4973 C   0  0  0  0  0
  137.2137  121.1426   96.0062 C   0  0  0  0  0
  138.6417  119.2342   96.8213 C   0  0  0  0  0
  135.3320  123.2599   97.4233 C   0  0  0  0  0
  134.3350  123.6945   98.4125 C   0  0  0  0  0
  132.1659  123.4197   99.3696 C   0  0  0  0  0
  132.4122  124.4625  100.2804 C   0  0  0  0  0
  133.6621  125.0945  100.2560 C   0  0  0  0  0
  134.6248  124.7172   99.3209 C   0  0  0  0  0
  131.3978  124.8398  101.3244 C   0  0  0  0  0
  130.1743  125.4558  100.6656 C   0  0  0  0  0
  131.1813  126.3451  101.3560 C   0  0  0  0  0
  130.6435  121.6590   98.5167 C   0  0  0  0  0
  131.3627  120.4204   98.9342 C   0  0  0  0  0
  132.4853  119.9897   98.2204 C   0  0  0  0  0
  133.1652  118.8461   98.6421 C   0  0  0  0  0
  132.7193  118.1476   99.7657 C   0  0  0  0  0
  131.5951  118.6104  100.4544 C   0  0  0  0  0
  138.1597  121.9564   96.1861 O   0  0  0  0  0
  136.4472  123.8435   97.3517 O   0  0  0  0  0
  130.9460  122.7338   99.4009 O   0  0  0  0  0
  137.3920  119.7557   96.2948 N   0  0  0  0  0
  135.0281  122.1559   96.5601 N   0  0  0  0  0
  133.1237  123.0780   98.4624 N   0  0  0  0  0
  130.9469  119.7288  100.0299 N   0  0  0  0  0
  1  2  1  0  0  0
  2  3  1  0  0  0
  2  4  1  0  0  0
  5  2  1  0  0  0
  5  6  1  0  0  0
  5 27  1  0  0  0
  6 26  1  0  0  0
  7 26  1  0  0  0
  8  9  1  0  0  0
 10 28  1  0  0  0
 10 25  1  0  0  0
 11 12  1  0  0  0
 13  9  1  0  0  0
 14 11  1  0  0  0
 14 15  1  0  0  0
 15 16  1  0  0  0
 16 14  1  0  0  0
 17 25  1  0  0  0
 17 18  1  0  0  0
 18 29  1  0  0  0
 19 20  1  0  0  0
 21 22  1  0  0  0
 27  8  1  0  0  0
  6 23  2  0  0  0
  8 24  2  0  0  0
  9 28  2  0  0  0
 10 11  2  0  0  0
 12 13  2  0  0  0
 18 19  2  0  0  0
 20 21  2  0  0  0
 22 29  2  0  0  0
M  END
> <rmsd>
0.674231589

$$$$
CHEMBL1215888_5ZTY


 31 35  0  0  0  0  0  0  0  0999 V2000
  129.7566  116.9031  100.9605 C   0  0  0  0  0
  130.2886  117.8870  100.5103 C   0  0  0  0  0
  130.9221  119.0585   99.9745 C   0  0  0  0  0
  130.2264  120.2674   99.9249 C   0  0  0  0  0
  130.8414  121.4077   99.4049 C   0  0  0  0  0
  132.1630  121.3551   98.9266 C   0  0  0  0  0
  132.8643  120.1264   98.9762 C   0  0  0  0  0
  132.2341  118.9878   99.5022 C   0  0  0  0  0
  134.1827  120.0630   98.4974 C   0  0  0  0  0
  134.7904  121.2217   97.9704 C   0  0  0  0  0
  136.1774  121.2424   97.4416 C   0  0  0  0  0
  138.3541  119.9759   96.9459 C   0  0  0  0  0
  138.8643  118.5353   97.1202 C   0  0  0  0  0
  140.3095  118.4181   96.6078 C   0  0  0  0  0
  140.3517  118.8004   95.1196 C   0  0  0  0  0
  139.8507  120.2416   94.9335 C   0  0  0  0  0
  140.7465  121.1981   95.7382 C   0  0  0  0  0
  140.7120  120.8245   97.2295 C   0  0  0  0  0
  141.2080  119.3798   97.4020 C   0  0  0  0  0
  139.2678  120.9260   97.7444 C   0  0  0  0  0
  138.4071  120.3436   95.4502 C   0  0  0  0  0
  134.0513  122.4105   97.9478 C   0  0  0  0  0
  132.0874  123.7582   98.3617 C   0  0  0  0  0
  132.6538  124.7408   99.3833 C   0  0  0  0  0
  132.2161  124.3958  100.8015 C   0  0  0  0  0
  133.1239  123.3482  101.4285 C   0  0  0  0  0
  134.4752  123.9478  101.7677 C   0  0  0  0  0
  134.8112  118.9694   98.5417 O   0  0  0  0  0
  136.6534  122.3197   96.9881 O   0  0  0  0  0
  136.9829  120.0552   97.4403 N   0  0  0  0  0
  132.7769  122.4702   98.4213 N   0  0  0  0  0
  3  2  1  0  0  0
  4  5  1  0  0  0
  6  7  1  0  0  0
  7  9  1  0  0  0
  8  3  1  0  0  0
  9 10  1  0  0  0
 10 11  1  0  0  0
 11 30  1  0  0  0
 12 30  1  0  0  0
 12 13  1  0  0  0
 14 13  1  0  0  0
 14 15  1  0  0  0
 16 15  1  0  0  0
 16 17  1  0  0  0
 16 21  1  0  0  0
 18 17  1  0  0  0
 18 19  1  0  0  0
 18 20  1  0  0  0
 19 14  1  0  0  0
 20 12  1  0  0  0
 21 12  1  0  0  0
 22 31  1  0  0  0
 23 31  1  0  0  0
 23 24  1  0  0  0
 24 25  1  0  0  0
 25 26  1  0  0  0
 26 27  1  0  0  0
 31  6  1  0  0  0
  3  4  2  0  0  0
  5  6  2  0  0  0
  7  8  2  0  0  0
  9 28  2  0  0  0
 10 22  2  0  0  0
 11 29  2  0  0  0
  1  2  3  0  0  0
M  END
> <rmsd>
0.799483836

$$$$
CHEMBL577165_5ZTY


 27 30  0  0  0  0  0  0  0  0999 V2000
  135.3764  124.5809   98.0531 C   0  0  0  0  0
  134.8564  123.1878   98.1709 C   0  0  0  0  0
  135.4779  122.0126   97.7787 C   0  0  0  0  0
  136.7715  121.8742   97.0923 C   0  0  0  0  0
  138.5472  120.3499   96.1253 C   0  0  0  0  0
  138.6453  118.9056   95.6767 C   0  0  0  0  0
  140.0493  118.4636   96.0160 C   0  0  0  0  0
  140.4299  119.2688   97.2356 C   0  0  0  0  0
  139.6852  120.5823   97.1082 C   0  0  0  0  0
  132.5644  120.5637   99.1819 C   0  0  0  0  0
  132.8480  119.2586   99.6055 C   0  0  0  0  0
  131.8156  118.4001   99.9909 C   0  0  0  0  0
  130.4869  118.8318   99.9472 C   0  0  0  0  0
  130.1912  120.1320   99.5045 C   0  0  0  0  0
  131.2284  120.9850   99.1179 C   0  0  0  0  0
  133.6914  122.7752   98.7893 C   0  0  0  0  0
  132.2204  123.3649  100.6934 C   0  0  0  0  0
  131.4543  124.4460  101.0822 C   0  0  0  0  0
  131.5758  125.3991  100.0840 C   0  0  0  0  0
  132.4111  124.8638   99.1232 C   0  0  0  0  0
  137.4396  122.8965   96.7790 O   0  0  0  0  0
  137.2650  120.5695   96.7777 N   0  0  0  0  0
  134.7142  120.9599   98.1375 N   0  0  0  0  0
  133.6315  121.4222   98.7474 N   0  0  0  0  0
  132.7803  123.6282   99.5004 N   0  0  0  0  0
  129.2218  117.7201  100.4437 Cl  0  0  0  0  0
  128.5401  120.7221   99.4189 Cl  0  0  0  0  0
  1  2  1  0  0  0
  2  3  1  0  0  0
  3  4  1  0  0  0
  4 22  1  0  0  0
  5 22  1  0  0  0
  5  6  1  0  0  0
  6  7  1  0  0  0
  7  8  1  0  0  0
  8  9  1  0  0  0
  9  5  1  0  0  0
 11 12  1  0  0  0
 13 26  1  0  0  0
 13 14  1  0  0  0
 14 27  1  0  0  0
 15 10  1  0  0  0
 16 25  1  0  0  0
 18 19  1  0  0  0
 20 25  1  0  0  0
 24 23  1  0  0  0
 24 10  1  0  0  0
 24 16  1  0  0  0
 25 17  1  0  0  0
  3 23  2  0  0  0
  4 21  2  0  0  0
 10 11  2  0  0  0
 12 13  2  0  0  0
 14 15  2  0  0  0
 16  2  2  0  0  0
 17 18  2  0  0  0
 19 20  2  0  0  0
M  END
> <rmsd>
0.642002463

$$$$
CHEMBL2152804_5ZTY


 33 37  0  0  0  0  0  0  0  0999 V2000
  132.9489  116.9889   98.0910 C   0  0  0  0  0
  132.3147  118.1357   98.7913 C   0  0  0  0  0
  130.9337  118.3353   98.6988 C   0  0  0  0  0
  130.3380  119.4178   99.3537 C   0  0  0  0  0
  131.1231  120.3003  100.1018 C   0  0  0  0  0
  132.5041  120.0979  100.2006 C   0  0  0  0  0
  133.3480  121.0575  100.9721 C   0  0  0  0  0
  134.9591  121.8700   99.3702 C   0  0  0  0  0
  135.4926  122.8185   98.4913 C   0  0  0  0  0
  136.7071  122.4619   97.7200 C   0  0  0  0  0
  138.4521  120.7227   97.1075 C   0  0  0  0  0
  138.0677  120.1843   95.7021 C   0  0  0  0  0
  136.5635  120.1242   95.4430 C   0  0  0  0  0
  138.6967  121.0463   94.6162 C   0  0  0  0  0
  138.6338  118.7456   95.7179 C   0  0  0  0  0
  140.1694  118.8019   95.7309 C   0  0  0  0  0
  140.4982  119.3328   97.1278 C   0  0  0  0  0
  139.1204  119.4979   97.7491 C   0  0  0  0  0
  139.1585  119.4848   99.2679 C   0  0  0  0  0
  138.3723  118.3459   97.1478 C   0  0  0  0  0
  134.8437  124.0642   98.3696 C   0  0  0  0  0
  133.6886  124.3220   99.1254 C   0  0  0  0  0
  133.0216  125.5529   99.0245 C   0  0  0  0  0
  131.8736  125.7999   99.7796 C   0  0  0  0  0
  131.3808  124.8206  100.6428 C   0  0  0  0  0
  132.0345  123.5919  100.7529 C   0  0  0  0  0
  133.1909  123.3248   99.9990 C   0  0  0  0  0
  133.0996  119.0179   99.5394 C   0  0  0  0  0
  133.8391  122.1222  100.0998 N   0  0  0  0  0
  137.2947  121.1672   97.8841 N   0  0  0  0  0
  137.2267  123.2846   96.9176 O   0  0  0  0  0
  135.2916  124.9475   97.5869 O   0  0  0  0  0
  130.2672  125.0620  101.3749 F   0  0  0  0  0
  1  2  1  0  0  0
  3  4  1  0  0  0
  5  6  1  0  0  0
  7  6  1  0  0  0
  7 29  1  0  0  0
  9 10  1  0  0  0
  9 21  1  0  0  0
 10 30  1  0  0  0
 11 30  1  0  0  0
 11 12  1  0  0  0
 12 13  1  0  0  0
 12 14  1  0  0  0
 15 12  1  0  0  0
 15 16  1  0  0  0
 16 17  1  0  0  0
 17 18  1  0  0  0
 18 19  1  0  0  0
 18 20  1  0  0  0
 18 11  1  0  0  0
 20 15  1  0  0  0
 21 22  1  0  0  0
 23 24  1  0  0  0
 25 33  1  0  0  0
 25 26  1  0  0  0
 27 29  1  0  0  0
 27 22  1  0  0  0
 28  2  1  0  0  0
 29  8  1  0  0  0
  2  3  2  0  0  0
  4  5  2  0  0  0
  6 28  2  0  0  0
  8  9  2  0  0  0
 10 31  2  0  0  0
 21 32  2  0  0  0
 22 23  2  0  0  0
 24 25  2  0  0  0
 26 27  2  0  0  0
M  END
> <rmsd>
0.34139353

$$$$
CHEMBL2152799_5ZTY


 26 29  0  0  0  0  0  0  0  0999 V2000
  132.5438  123.7957   99.7902 C   0  0  0  0  0
  134.3483  122.8827   98.4882 C   0  0  0  0  0
  135.0486  121.8479   97.8555 C   0  0  0  0  0
  136.3010  122.1811   97.1320 C   0  0  0  0  0
  138.2853  121.4558   95.7246 C   0  0  0  0  0
  137.9996  121.9295   94.2733 C   0  0  0  0  0
  136.5232  121.8984   93.8826 C   0  0  0  0  0
  138.5084  123.3502   94.0716 C   0  0  0  0  0
  138.7693  120.8979   93.4167 C   0  0  0  0  0
  140.2800  121.0903   93.6221 C   0  0  0  0  0
  140.5120  120.6108   95.0566 C   0  0  0  0  0
  139.1179  120.1869   95.4908 C   0  0  0  0  0
  139.1401  119.1897   96.6369 C   0  0  0  0  0
  138.5529  119.6375   94.2152 C   0  0  0  0  0
  134.5288  120.5384   97.9345 C   0  0  0  0  0
  133.3362  120.3055   98.6383 C   0  0  0  0  0
  132.7962  119.0133   98.7336 C   0  0  0  0  0
  131.6098  118.7917   99.4355 C   0  0  0  0  0
  130.9510  119.8581  100.0490 C   0  0  0  0  0
  131.4770  121.1486   99.9620 C   0  0  0  0  0
  132.6708  121.3901   99.2592 C   0  0  0  0  0
  133.1947  122.6510   99.1676 N   0  0  0  0  0
  137.0672  121.1636   96.4805 N   0  0  0  0  0
  136.6983  123.3783   97.0908 O   0  0  0  0  0
  135.1243  119.5744   97.3783 O   0  0  0  0  0
  129.8002  119.6412  100.7294 F   0  0  0  0  0
  1 22  1  0  0  0
  3  4  1  0  0  0
  3 15  1  0  0  0
  4 23  1  0  0  0
  5 23  1  0  0  0
  5  6  1  0  0  0
  6  7  1  0  0  0
  6  8  1  0  0  0
  9  6  1  0  0  0
  9 10  1  0  0  0
 10 11  1  0  0  0
 11 12  1  0  0  0
 12 13  1  0  0  0
 12 14  1  0  0  0
 12  5  1  0  0  0
 14  9  1  0  0  0
 15 16  1  0  0  0
 17 18  1  0  0  0
 19 26  1  0  0  0
 19 20  1  0  0  0
 21 22  1  0  0  0
 21 16  1  0  0  0
 22  2  1  0  0  0
  2  3  2  0  0  0
  4 24  2  0  0  0
 15 25  2  0  0  0
 16 17  2  0  0  0
 18 19  2  0  0  0
 20 21  2  0  0  0
M  END
> <rmsd>
0.656127334

$$$$
CHEMBL2381803_5ZTY


 26 28  0  0  0  0  0  0  0  0999 V2000
  131.8767  123.4443   98.3270 C   0  0  0  0  0
  132.2922  124.5632   99.2716 C   0  0  0  0  0
  132.0057  124.1716  100.7118 C   0  0  0  0  0
  132.4322  125.2797  101.6574 C   0  0  0  0  0
  131.4367  126.4238  101.6161 C   0  0  0  0  0
  134.0711  122.4011   98.0297 C   0  0  0  0  0
  134.9596  121.3072   98.1167 C   0  0  0  0  0
  134.4584  120.0940   98.6440 C   0  0  0  0  0
  132.3402  121.1080   98.9371 C   0  0  0  0  0
  131.0768  120.7863   99.4018 C   0  0  0  0  0
  131.2514  119.4519   99.7692 C   0  0  0  0  0
  130.1877  118.5889  100.3461 C   0  0  0  0  0
  136.3579  121.4766   97.6555 C   0  0  0  0  0
  138.6661  120.5009   97.2635 C   0  0  0  0  0
  138.6889  120.5149   95.7295 C   0  0  0  0  0
  140.0951  120.4110   95.1283 C   0  0  0  0  0
  140.8152  119.0832   95.4147 C   0  0  0  0  0
  139.8612  117.9426   95.7827 C   0  0  0  0  0
  139.3488  118.0165   97.2312 C   0  0  0  0  0
  139.5121  119.3898   97.8964 C   0  0  0  0  0
  132.7739  122.2992   98.4453 N   0  0  0  0  0
  133.1589  120.0546   99.0314 N   0  0  0  0  0
  132.5128  119.0233   99.5402 N   0  0  0  0  0
  137.2931  120.3963   97.7362 N   0  0  0  0  0
  135.1834  119.0687   98.7565 O   0  0  0  0  0
  136.7303  122.5888   97.1899 O   0  0  0  0  0
  1  2  1  0  0  0
  1 21  1  0  0  0
  2  3  1  0  0  0
  3  4  1  0  0  0
  4  5  1  0  0  0
  7  8  1  0  0  0
  7 13  1  0  0  0
  8 22  1  0  0  0
  9 21  1  0  0  0
 10 11  1  0  0  0
 12 11  1  0  0  0
 13 24  1  0  0  0
 14 24  1  0  0  0
 14 15  1  0  0  0
 15 16  1  0  0  0
 16 17  1  0  0  0
 17 18  1  0  0  0
 18 19  1  0  0  0
 19 20  1  0  0  0
 20 14  1  0  0  0
 21  6  1  0  0  0
 22  9  1  0  0  0
 22 23  1  0  0  0
  6  7  2  0  0  0
  8 25  2  0  0  0
  9 10  2  0  0  0
 11 23  2  0  0  0
 13 26  2  0  0  0
M  END
> <rmsd>
0.744906485

$$$$
CHEMBL374982_6PT0


 29 32  0  0  0  0  0  0  0  0999 V2000
  132.5519  129.1041   99.5724 C   0  0  0  0  0
  132.0938  127.6612   99.5840 C   0  0  0  0  0
  133.0175  126.8307   98.7130 C   0  0  0  0  0
  132.5814  125.3768   98.7137 C   0  0  0  0  0
  132.9668  124.7083  100.0228 C   0  0  0  0  0
  132.5433  123.2436  100.0081 C   0  0  0  0  0
  134.5860  122.7811   98.6299 C   0  0  0  0  0
  135.1433  121.6995   97.9789 C   0  0  0  0  0
  136.4273  121.7186   97.2480 C   0  0  0  0  0
  136.8965  120.5587   96.4433 C   0  0  0  0  0
  135.9501  119.7923   95.7449 C   0  0  0  0  0
  136.3379  118.7121   94.9512 C   0  0  0  0  0
  137.6857  118.3770   94.8364 C   0  0  0  0  0
  138.6515  119.1195   95.5158 C   0  0  0  0  0
  139.9989  118.7670   95.3971 C   0  0  0  0  0
  140.9770  119.4922   96.0809 C   0  0  0  0  0
  140.6117  120.5713   96.8882 C   0  0  0  0  0
  139.2673  120.9309   97.0117 C   0  0  0  0  0
  138.2684  120.2195   96.3260 C   0  0  0  0  0
  134.3186  120.6052   98.1689 C   0  0  0  0  0
  133.2624  121.0756   98.9334 C   0  0  0  0  0
  132.1269  120.2230   99.3725 C   0  0  0  0  0
  131.0553  120.7450  100.1127 C   0  0  0  0  0
  129.9961  119.9252  100.5124 C   0  0  0  0  0
  129.9964  118.5702  100.1745 C   0  0  0  0  0
  131.0554  118.0363   99.4370 C   0  0  0  0  0
  132.1133  118.8584   99.0387 C   0  0  0  0  0
  133.4296  122.3937   99.2056 N   0  0  0  0  0
  137.1352  122.7607   97.3041 O   0  0  0  0  0
  1  2  1  0  0  0
  2  3  1  0  0  0
  3  4  1  0  0  0
  4  5  1  0  0  0
  5  6  1  0  0  0
  6 28  1  0  0  0
  8  9  1  0  0  0
  8 20  1  0  0  0
  9 10  1  0  0  0
 11 12  1  0  0  0
 13 14  1  0  0  0
 15 16  1  0  0  0
 17 18  1  0  0  0
 19 10  1  0  0  0
 19 14  1  0  0  0
 21 22  1  0  0  0
 21 28  1  0  0  0
 23 24  1  0  0  0
 25 26  1  0  0  0
 27 22  1  0  0  0
 28  7  1  0  0  0
  7  8  2  0  0  0
  9 29  2  0  0  0
 10 11  2  0  0  0
 12 13  2  0  0  0
 14 15  2  0  0  0
 16 17  2  0  0  0
 18 19  2  0  0  0
 20 21  2  0  0  0
 22 23  2  0  0  0
 24 25  2  0  0  0
 26 27  2  0  0  0
M  END
> <rmsd>
0.526166856

$$$$
CHEMBL3421688_8GUR


 29 32  0  0  0  0  0  0  0  0999 V2000
  132.7265  122.3837   98.6555 N   0  0  0  0  0
  135.6710  119.6309   97.9097 N   0  0  0  0  0
  136.6161  120.4441   97.4346 N   0  0  0  0  0
  133.9421  122.7469   98.1371 C   0  0  0  0  0
  134.8819  121.7568   97.9143 C   0  0  0  0  0
  134.6027  120.3944   98.2120 C   0  0  0  0  0
  133.3729  120.0254   98.7326 C   0  0  0  0  0
  132.4197  121.0637   98.9531 C   0  0  0  0  0
  131.1633  120.7113   99.4765 C   0  0  0  0  0
  130.8617  119.3789   99.7741 C   0  0  0  0  0
  131.8087  118.3750   99.5535 C   0  0  0  0  0
  133.0643  118.6952   99.0329 C   0  0  0  0  0
  136.1620  121.7280   97.4290 C   0  0  0  0  0
  137.9082  119.9714   97.0071 C   0  0  0  0  0
  138.8781  120.8552   96.5083 C   0  0  0  0  0
  140.1372  120.3902   96.1041 C   0  0  0  0  0
  140.4142  119.0183   96.1700 C   0  0  0  0  0
  139.4572  118.1290   96.6632 C   0  0  0  0  0
  138.2121  118.6039   97.0818 C   0  0  0  0  0
  141.1444  121.3402   95.5244 C   0  0  0  0  0
  131.7611  123.4560   98.8871 C   0  0  0  0  0
  131.7879  123.9084  100.3442 C   0  0  0  0  0
  133.0699  124.6570  100.6744 C   0  0  0  0  0
  133.0584  126.0352  100.0409 C   0  0  0  0  0
  134.3557  126.7470  100.3600 C   0  0  0  0  0
  136.8200  122.7295   97.0385 O   0  0  0  0  0
  140.9542  121.4296   94.1581 F   0  0  0  0  0
  140.9999  122.5979   96.0843 F   0  0  0  0  0
  142.4302  120.8919   95.7736 F   0  0  0  0  0
  1  4  1  0  0  0
  3  2  1  0  0  0
  3 13  1  0  0  0
  3 14  1  0  0  0
  5  6  1  0  0  0
  6  7  1  0  0  0
  8  9  1  0  0  0
  8  1  1  0  0  0
 10 11  1  0  0  0
 12  7  1  0  0  0
 13  5  1  0  0  0
 15 16  1  0  0  0
 17 18  1  0  0  0
 19 14  1  0  0  0
 20 16  1  0  0  0
 20 27  1  0  0  0
 20 28  1  0  0  0
 20 29  1  0  0  0
 21  1  1  0  0  0
 21 22  1  0  0  0
 22 23  1  0  0  0
 23 24  1  0  0  0
 24 25  1  0  0  0
  4  5  2  0  0  0
  6  2  2  0  0  0
  7  8  2  0  0  0
  9 10  2  0  0  0
 11 12  2  0  0  0
 13 26  2  0  0  0
 14 15  2  0  0  0
 16 17  2  0  0  0
 18 19  2  0  0  0
M  END
> <rmsd>
0.531593621

$$$$
CHEMBL3422790_8GUT


 30 33  0  0  0  0  0  0  0  0999 V2000
  133.0177  125.3785   98.8771 C   0  0  0  0  0
  131.9153  125.6266   99.6938 C   0  0  0  0  0
  131.4961  124.6429  100.5892 C   0  0  0  0  0
  133.2386  123.1821   99.8727 C   0  0  0  0  0
  133.6917  124.1547   98.9598 C   0  0  0  0  0
  134.7978  123.8834   98.1505 C   0  0  0  0  0
  135.4602  122.6446   98.2578 C   0  0  0  0  0
  134.9783  121.6992   99.1941 C   0  0  0  0  0
  133.3857  120.9667  100.9066 C   0  0  0  0  0
  132.3941  120.0708  100.2398 C   0  0  0  0  0
  132.8259  118.9126   99.5837 C   0  0  0  0  0
  131.9006  118.0856   98.9400 C   0  0  0  0  0
  130.5423  118.4176   98.9481 C   0  0  0  0  0
  130.1095  119.5772   99.5984 C   0  0  0  0  0
  131.0350  120.4042  100.2421 C   0  0  0  0  0
  136.6409  122.3447   97.4022 C   0  0  0  0  0
  138.1271  120.6313   96.2664 C   0  0  0  0  0
  139.4062  120.8134   97.1004 C   0  0  0  0  0
  140.5069  119.8602   96.6464 C   0  0  0  0  0
  140.0820  118.3991   96.8395 C   0  0  0  0  0
  138.5754  118.1665   96.6500 C   0  0  0  0  0
  137.9540  119.2070   95.7192 C   0  0  0  0  0
  140.8664  117.5162   95.8907 C   0  0  0  0  0
  132.1576  123.4573  100.6597 N   0  0  0  0  0
  133.8807  121.9776   99.9674 N   0  0  0  0  0
  136.9634  120.9918   97.0628 N   0  0  0  0  0
  135.5739  120.5943   99.3343 O   0  0  0  0  0
  137.3598  123.2829   96.9619 O   0  0  0  0  0
  135.2246  124.8401   97.2314 O   0  0  0  0  0
  129.6459  117.6164   98.3244 F   0  0  0  0  0
  2  3  1  0  0  0
  4 24  1  0  0  0
  5  6  1  0  0  0
  5  1  1  0  0  0
  6 29  1  0  0  0
  7  8  1  0  0  0
  7 16  1  0  0  0
  8 25  1  0  0  0
  9 25  1  0  0  0
  9 10  1  0  0  0
 11 12  1  0  0  0
 13 14  1  0  0  0
 13 30  1  0  0  0
 15 10  1  0  0  0
 16 26  1  0  0  0
 17 26  1  0  0  0
 17 18  1  0  0  0
 18 19  1  0  0  0
 19 20  1  0  0  0
 20 21  1  0  0  0
 20 23  1  0  0  0
 21 22  1  0  0  0
 22 17  1  0  0  0
 25  4  1  0  0  0
  1  2  2  0  0  0
  3 24  2  0  0  0
  4  5  2  0  0  0
  6  7  2  0  0  0
  8 27  2  0  0  0
 10 11  2  0  0  0
 12 13  2  0  0  0
 14 15  2  0  0  0
 16 28  2  0  0  0
M  END
> <rmsd>
0.316841871

$$$$
CHEMBL2163950_6PT0


 30 34  0  0  0  0  0  0  0  0999 V2000
  137.0395  122.9053   96.7894 O   0  0  0  0  0
  135.2827  124.7223   97.5371 O   0  0  0  0  0
  131.6905  122.7556  101.8918 O   0  0  0  0  0
  136.4906  122.1264   97.6159 C   0  0  0  0  0
  138.1005  120.2715   96.9882 C   0  0  0  0  0
  138.0795  118.7406   97.0286 C   0  0  0  0  0
  139.3857  118.0489   96.6260 C   0  0  0  0  0
  140.0822  118.7194   95.4502 C   0  0  0  0  0
  141.0681  119.7594   95.9684 C   0  0  0  0  0
  140.3802  121.0590   96.3759 C   0  0  0  0  0
  139.4011  120.8586   97.5256 C   0  0  0  0  0
  135.3521  122.5852   98.4478 C   0  0  0  0  0
  134.7802  121.6836   99.3545 C   0  0  0  0  0
  133.2155  123.3049  100.0941 C   0  0  0  0  0
  132.1578  123.6683  100.9456 C   0  0  0  0  0
  131.5809  124.9365  100.8490 C   0  0  0  0  0
  132.0760  125.8617   99.9266 C   0  0  0  0  0
  133.1504  125.5225   99.0995 C   0  0  0  0  0
  133.7308  124.2470   99.1769 C   0  0  0  0  0
  134.8090  123.8849   98.3542 C   0  0  0  0  0
  132.4667  121.6125  102.2458 C   0  0  0  0  0
  133.1401  121.0047  101.0085 C   0  0  0  0  0
  132.1924  120.1392  100.2306 C   0  0  0  0  0
  131.0538  120.6767   99.6110 C   0  0  0  0  0
  130.1955  119.8509   98.8799 C   0  0  0  0  0
  130.4721  118.4858   98.7619 C   0  0  0  0  0
  131.6073  117.9469   99.3743 C   0  0  0  0  0
  132.4662  118.7728  100.1059 C   0  0  0  0  0
  136.9708  120.7837   97.7485 N   0  0  0  0  0
  133.7372  122.0400  100.1521 N   0  0  0  0  0
  4 29  1  0  0  0
  4 12  1  0  0  0
  5 29  1  0  0  0
  5  6  1  0  0  0
  6  7  1  0  0  0
  7  8  1  0  0  0
  8  9  1  0  0  0
  9 10  1  0  0  0
 10 11  1  0  0  0
 11  5  1  0  0  0
 13 30  1  0  0  0
 15 16  1  0  0  0
 15  3  1  0  0  0
 17 18  1  0  0  0
 19 20  1  0  0  0
 19 14  1  0  0  0
 20 12  1  0  0  0
 21  3  1  0  0  0
 21 22  1  0  0  0
 22 23  1  0  0  0
 22 30  1  0  0  0
 24 25  1  0  0  0
 26 27  1  0  0  0
 28 23  1  0  0  0
 30 14  1  0  0  0
  4  1  2  0  0  0
 12 13  2  0  0  0
 14 15  2  0  0  0
 16 17  2  0  0  0
 18 19  2  0  0  0
 20  2  2  0  0  0
 23 24  2  0  0  0
 25 26  2  0  0  0
 27 28  2  0  0  0
M  END
> <rmsd>
0.386116803

$$$$
CHEMBL2152800_5ZTY


 27 30  0  0  0  0  0  0  0  0999 V2000
  133.0958  124.8482   99.5299 C   0  0  0  0  0
  132.2913  123.5701   99.7478 C   0  0  0  0  0
  134.1579  122.4287   98.6150 C   0  0  0  0  0
  134.8092  121.2988   98.1080 C   0  0  0  0  0
  136.1312  121.4780   97.4572 C   0  0  0  0  0
  138.1628  120.4894   96.2998 C   0  0  0  0  0
  138.4439  119.3795   95.2534 C   0  0  0  0  0
  137.3364  118.3334   95.1412 C   0  0  0  0  0
  138.6468  119.9946   93.8755 C   0  0  0  0  0
  139.7259  118.7071   95.7959 C   0  0  0  0  0
  140.9040  119.6861   95.6765 C   0  0  0  0  0
  140.5880  120.7583   96.7213 C   0  0  0  0  0
  139.2861  120.2559   97.3253 C   0  0  0  0  0
  139.0461  120.8004   98.7233 C   0  0  0  0  0
  139.4816  118.7698   97.2819 C   0  0  0  0  0
  134.1798  120.0455   98.2414 C   0  0  0  0  0
  132.9290  119.9621   98.8710 C   0  0  0  0  0
  132.2811  118.7250   99.0159 C   0  0  0  0  0
  131.0367  118.6453   99.6428 C   0  0  0  0  0
  130.4265  119.8003  100.1317 C   0  0  0  0  0
  131.0594  121.0370   99.9946 C   0  0  0  0  0
  132.3146  121.1395   99.3655 C   0  0  0  0  0
  132.9403  122.3527   99.2289 N   0  0  0  0  0
  136.8371  120.3628   96.9057 N   0  0  0  0  0
  136.6398  122.6308   97.3847 O   0  0  0  0  0
  134.7298  118.9981   97.8015 O   0  0  0  0  0
  129.2189  119.7221  100.7399 F   0  0  0  0  0
  1  2  1  0  0  0
  2 23  1  0  0  0
  4  5  1  0  0  0
  4 16  1  0  0  0
  5 24  1  0  0  0
  6 24  1  0  0  0
  6  7  1  0  0  0
  7  8  1  0  0  0
  7  9  1  0  0  0
 10  7  1  0  0  0
 10 11  1  0  0  0
 11 12  1  0  0  0
 12 13  1  0  0  0
 13 14  1  0  0  0
 13 15  1  0  0  0
 13  6  1  0  0  0
 15 10  1  0  0  0
 16 17  1  0  0  0
 18 19  1  0  0  0
 20 27  1  0  0  0
 20 21  1  0  0  0
 22 23  1  0  0  0
 22 17  1  0  0  0
 23  3  1  0  0  0
  3  4  2  0  0  0
  5 25  2  0  0  0
 16 26  2  0  0  0
 17 18  2  0  0  0
 19 20  2  0  0  0
 21 22  2  0  0  0
M  END
> <rmsd>
0.524822116

$$$$
CHEMBL575382_5ZTY


 34 39  0  0  0  0  0  0  0  0999 V2000
  141.1455  119.1139   97.4346 C   0  0  0  0  0
  140.8349  120.6091   97.2595 C   0  0  0  0  0
  139.3874  120.8778   97.7001 C   0  0  0  0  0
  138.4113  120.0515   96.8401 C   0  0  0  0  0
  138.7366  118.5586   97.0176 C   0  0  0  0  0
  140.1828  118.2744   96.5794 C   0  0  0  0  0
  140.3500  118.6632   95.1016 C   0  0  0  0  0
  140.0347  120.1557   94.9128 C   0  0  0  0  0
  140.9935  120.9903   95.7783 C   0  0  0  0  0
  138.5879  120.4248   95.3553 C   0  0  0  0  0
  136.3810  121.5652   97.2397 C   0  0  0  0  0
  134.9867  121.6698   97.6949 C   0  0  0  0  0
  132.9830  122.3713   98.2110 C   0  0  0  0  0
  134.1972  122.8083   97.7266 C   0  0  0  0  0
  134.5379  124.1814   97.2553 C   0  0  0  0  0
  131.5944  124.2425   99.0803 C   0  0  0  0  0
  130.3411  124.7846   98.8671 C   0  0  0  0  0
  129.7457  124.0002   97.8867 C   0  0  0  0  0
  130.6700  123.0241   97.5662 C   0  0  0  0  0
  130.4645  121.9804   96.5213 C   0  0  0  0  0
  132.5814  124.7647  100.0679 C   0  0  0  0  0
  132.0433  120.1815   99.0063 C   0  0  0  0  0
  132.1568  118.7913   98.8638 C   0  0  0  0  0
  131.1968  117.9352   99.4112 C   0  0  0  0  0
  130.1082  118.4705  100.1197 C   0  0  0  0  0
  129.9969  119.8544  100.2763 C   0  0  0  0  0
  130.9594  120.7039   99.7269 C   0  0  0  0  0
  137.0347  120.2899   97.2634 N   0  0  0  0  0
  134.2719  120.6155   98.1414 N   0  0  0  0  0
  133.0556  121.0421   98.4540 N   0  0  0  0  0
  131.7907  123.1664   98.2975 N   0  0  0  0  0
  136.9957  122.5884   96.8335 O   0  0  0  0  0
  128.8746  117.4399  100.8261 Cl  0  0  0  0  0
  131.3898  116.2038   99.1930 Cl  0  0  0  0  0
  1  2  1  0  0  0
  2  3  1  0  0  0
  3  4  1  0  0  0
  4  5  1  0  0  0
  4 28  1  0  0  0
  5  6  1  0  0  0
  6  7  1  0  0  0
  6  1  1  0  0  0
  7  8  1  0  0  0
  8  9  1  0  0  0
  8 10  1  0  0  0
  9  2  1  0  0  0
 10  4  1  0  0  0
 11 12  1  0  0  0
 13 31  1  0  0  0
 14 12  1  0  0  0
 15 14  1  0  0  0
 17 18  1  0  0  0
 19 31  1  0  0  0
 20 19  1  0  0  0
 21 16  1  0  0  0
 23 24  1  0  0  0
 24 34  1  0  0  0
 25 26  1  0  0  0
 25 33  1  0  0  0
 27 22  1  0  0  0
 28 11  1  0  0  0
 30 29  1  0  0  0
 30 13  1  0  0  0
 30 22  1  0  0  0
 31 16  1  0  0  0
 11 32  2  0  0  0
 12 29  2  0  0  0
 13 14  2  0  0  0
 16 17  2  0  0  0
 18 19  2  0  0  0
 22 23  2  0  0  0
 24 25  2  0  0  0
 26 27  2  0  0  0
M  END
> <rmsd>
0.640545845

$$$$
CHEMBL573546_8GUQ


 30 33  0  0  0  0  0  0  0  0999 V2000
  135.3461  124.6852   98.0415 C   0  0  0  0  0
  134.8694  123.2756   98.1457 C   0  0  0  0  0
  135.5229  122.1252   97.7331 C   0  0  0  0  0
  136.8129  122.0355   97.0326 C   0  0  0  0  0
  138.5862  120.5899   95.9532 C   0  0  0  0  0
  139.3284  119.3888   96.5121 C   0  0  0  0  0
  138.3084  120.3943   94.4544 C   0  0  0  0  0
  137.3976  121.5014   93.8849 C   0  0  0  0  0
  138.1362  122.5577   93.0547 C   0  0  0  0  0
  139.5140  122.8397   93.6409 C   0  0  0  0  0
  140.4021  121.5900   93.6047 C   0  0  0  0  0
  139.6112  120.2731   93.6489 C   0  0  0  0  0
  132.6661  120.5697   99.1372 C   0  0  0  0  0
  131.3159  120.9418   99.0684 C   0  0  0  0  0
  130.3149  120.0446   99.4477 C   0  0  0  0  0
  130.6496  118.7614   99.8881 C   0  0  0  0  0
  131.9987  118.3724   99.9401 C   0  0  0  0  0
  132.9961  119.2746   99.5586 C   0  0  0  0  0
  133.7219  122.8199   98.7668 C   0  0  0  0  0
  132.2391  123.3310  100.6846 C   0  0  0  0  0
  131.4500  124.3854  101.0996 C   0  0  0  0  0
  131.5490  125.3643  100.1243 C   0  0  0  0  0
  132.3947  124.8705   99.1505 C   0  0  0  0  0
  137.4499  123.0815   96.7327 O   0  0  0  0  0
  137.3422  120.7512   96.6943 N   0  0  0  0  0
  134.7940  121.0453   98.0827 N   0  0  0  0  0
  133.7027  121.4664   98.7067 N   0  0  0  0  0
  132.7919  123.6348   99.4979 N   0  0  0  0  0
  129.3587  117.6672  100.3563 Cl  0  0  0  0  0
  132.4729  116.7673  100.4706 Cl  0  0  0  0  0
  1  2  1  0  0  0
  2  3  1  0  0  0
  3  4  1  0  0  0
  4 25  1  0  0  0
  5 25  1  0  0  0
  5  6  1  0  0  0
  5  7  1  0  0  0
  7  8  1  0  0  0
  8  9  1  0  0  0
  9 10  1  0  0  0
 10 11  1  0  0  0
 11 12  1  0  0  0
 12  7  1  0  0  0
 14 15  1  0  0  0
 16 29  1  0  0  0
 16 17  1  0  0  0
 17 30  1  0  0  0
 18 13  1  0  0  0
 19 28  1  0  0  0
 21 22  1  0  0  0
 23 28  1  0  0  0
 27 26  1  0  0  0
 27 13  1  0  0  0
 27 19  1  0  0  0
 28 20  1  0  0  0
  3 26  2  0  0  0
  4 24  2  0  0  0
 13 14  2  0  0  0
 15 16  2  0  0  0
 17 18  2  0  0  0
 19  2  2  0  0  0
 20 21  2  0  0  0
 22 23  2  0  0  0
M  END
> <rmsd>
0.625323772

$$$$
CHEMBL3400946_8GUQ


 28 30  0  0  0  0  0  0  0  0999 V2000
  135.3679  123.2939  101.5644 C   0  0  0  0  0
  134.2916  123.1095  100.4994 C   0  0  0  0  0
  133.2682  124.2205  100.6662 C   0  0  0  0  0
  133.1022  124.8823   99.3056 C   0  0  0  0  0
  134.2348  124.3784   98.4332 C   0  0  0  0  0
  135.9022  122.4898   98.5810 C   0  0  0  0  0
  137.3273  122.0375   96.7262 C   0  0  0  0  0
  137.8988  120.9459   97.3901 C   0  0  0  0  0
  137.4686  120.6510   98.6879 C   0  0  0  0  0
  136.4665  121.4161   99.2839 C   0  0  0  0  0
  139.0131  120.1643   96.7580 C   0  0  0  0  0
  133.6006  121.7719  100.6047 C   0  0  0  0  0
  131.9257  120.1615   99.5536 C   0  0  0  0  0
  131.1829  118.1739   99.8973 C   0  0  0  0  0
  132.0810  119.0924  100.4193 C   0  0  0  0  0
  130.9209  116.7966  100.4417 C   0  0  0  0  0
  129.8567  116.0861   99.6246 C   0  0  0  0  0
  130.4429  116.8910  101.8784 C   0  0  0  0  0
  132.1944  115.9737  100.3959 C   0  0  0  0  0
  134.8588  123.2934   99.1661 N   0  0  0  0  0
  136.3512  122.7709   97.3250 N   0  0  0  0  0
  132.6275  121.4079   99.6156 N   0  0  0  0  0
  131.0149  119.8889   98.6039 N   0  0  0  0  0
  140.2231  120.7462   97.0870 F   0  0  0  0  0
  139.0021  118.8564   97.2111 F   0  0  0  0  0
  138.8752  120.1553   95.3807 F   0  0  0  0  0
  133.8743  120.9839  101.5516 O   0  0  0  0  0
  130.5893  118.6857   98.8422 O   0  0  0  0  0
  2  1  1  0  0  0
  2  3  1  0  0  0
  2 12  1  0  0  0
  2 20  1  0  0  0
  3  4  1  0  0  0
  4  5  1  0  0  0
  5 20  1  0  0  0
  7 21  1  0  0  0
  8  9  1  0  0  0
 10  6  1  0  0  0
 11  8  1  0  0  0
 11 24  1  0  0  0
 11 25  1  0  0  0
 11 26  1  0  0  0
 12 22  1  0  0  0
 14 28  1  0  0  0
 15 13  1  0  0  0
 16 14  1  0  0  0
 16 17  1  0  0  0
 16 18  1  0  0  0
 16 19  1  0  0  0
 20  6  1  0  0  0
 22 13  1  0  0  0
 23 28  1  0  0  0
  6 21  2  0  0  0
  7  8  2  0  0  0
  9 10  2  0  0  0
 12 27  2  0  0  0
 13 23  2  0  0  0
 14 15  2  0  0  0
M  END
> <rmsd>
0.54481411

$$$$
CHEMBL2381802_5ZTY


 25 27  0  0  0  0  0  0  0  0999 V2000
  132.0744  123.2385   99.0625 C   0  0  0  0  0
  132.5622  124.1132  100.2072 C   0  0  0  0  0
  131.7021  125.3608  100.3318 C   0  0  0  0  0
  132.1659  126.4476   99.3741 C   0  0  0  0  0
  131.5814  126.2300   97.9914 C   0  0  0  0  0
  134.2089  122.1929   98.4848 C   0  0  0  0  0
  135.0492  121.0702   98.3210 C   0  0  0  0  0
  134.5103  119.7970   98.6209 C   0  0  0  0  0
  132.4508  120.8140   99.1915 C   0  0  0  0  0
  131.1891  120.4557   99.6334 C   0  0  0  0  0
  131.3142  119.0693   99.7249 C   0  0  0  0  0
  130.2307  118.1508  100.1625 C   0  0  0  0  0
  136.4382  121.2734   97.8454 C   0  0  0  0  0
  138.6852  120.3074   97.1761 C   0  0  0  0  0
  139.4836  119.0419   97.5175 C   0  0  0  0  0
  140.6407  118.8384   96.5438 C   0  0  0  0  0
  140.1349  118.6508   95.1068 C   0  0  0  0  0
  138.8070  119.3667   94.8248 C   0  0  0  0  0
  138.6678  120.6295   95.6713 C   0  0  0  0  0
  132.9224  122.0610   98.9242 N   0  0  0  0  0
  133.2234  119.7321   99.0452 N   0  0  0  0  0
  132.5471  118.6462   99.3669 N   0  0  0  0  0
  137.3255  120.1633   97.6751 N   0  0  0  0  0
  135.1909  118.7425   98.5013 O   0  0  0  0  0
  136.8454  122.4404   97.5913 O   0  0  0  0  0
  1  2  1  0  0  0
  1 20  1  0  0  0
  2  3  1  0  0  0
  3  4  1  0  0  0
  4  5  1  0  0  0
  7  8  1  0  0  0
  7 13  1  0  0  0
  8 21  1  0  0  0
  9 20  1  0  0  0
 10 11  1  0  0  0
 12 11  1  0  0  0
 13 23  1  0  0  0
 14 23  1  0  0  0
 14 15  1  0  0  0
 15 16  1  0  0  0
 16 17  1  0  0  0
 17 18  1  0  0  0
 18 19  1  0  0  0
 19 14  1  0  0  0
 20  6  1  0  0  0
 21  9  1  0  0  0
 21 22  1  0  0  0
  6  7  2  0  0  0
  8 24  2  0  0  0
  9 10  2  0  0  0
 11 22  2  0  0  0
 13 25  2  0  0  0
M  END
> <rmsd>
0.769983888

$$$$
CHEMBL2381672_5ZTY


 29 32  0  0  0  0  0  0  0  0999 V2000
  131.9282  123.5552   98.5206 C   0  0  0  0  0
  132.5467  124.5355   99.5070 C   0  0  0  0  0
  132.3602  124.0395  100.9279 C   0  0  0  0  0
  133.0048  125.0126  101.8914 C   0  0  0  0  0
  132.8246  124.5119  103.3086 C   0  0  0  0  0
  133.9608  122.3375   97.9057 C   0  0  0  0  0
  134.7344  121.1602   97.8095 C   0  0  0  0  0
  134.1645  119.9587   98.2917 C   0  0  0  0  0
  132.2034  121.1400   98.8898 C   0  0  0  0  0
  130.9670  120.9007   99.4630 C   0  0  0  0  0
  131.0348  119.5270   99.7062 C   0  0  0  0  0
  129.9642  118.7353  100.3195 C   0  0  0  0  0
  128.0856  118.2697  101.2124 C   0  0  0  0  0
  128.7938  117.0817  101.1466 C   0  0  0  0  0
  130.0147  117.3800  100.5669 C   0  0  0  0  0
  136.0904  121.2358   97.2160 C   0  0  0  0  0
  138.2522  120.0953   96.5457 C   0  0  0  0  0
  138.6958  118.6729   96.2152 C   0  0  0  0  0
  140.1166  118.6802   95.6573 C   0  0  0  0  0
  141.0752  119.3060   96.6670 C   0  0  0  0  0
  140.6331  120.7281   97.0015 C   0  0  0  0  0
  139.2125  120.7194   97.5589 C   0  0  0  0  0
  132.7079  122.3233   98.4493 N   0  0  0  0  0
  132.9131  120.0094   98.8126 N   0  0  0  0  0
  132.2175  119.0039   99.3074 N   0  0  0  0  0
  136.9042  120.0650   97.0927 N   0  0  0  0  0
  134.7867  118.8630   98.2462 O   0  0  0  0  0
  128.8184  119.2332  100.7089 O   0  0  0  0  0
  136.5321  122.3463   96.8107 O   0  0  0  0  0
  1  2  1  0  0  0
  1 23  1  0  0  0
  2  3  1  0  0  0
  3  4  1  0  0  0
  4  5  1  0  0  0
  7  8  1  0  0  0
  7 16  1  0  0  0
  8 24  1  0  0  0
  9 23  1  0  0  0
 10 11  1  0  0  0
 11 12  1  0  0  0
 12 28  1  0  0  0
 13 28  1  0  0  0
 14 15  1  0  0  0
 16 26  1  0  0  0
 17 26  1  0  0  0
 17 18  1  0  0  0
 18 19  1  0  0  0
 19 20  1  0  0  0
 20 21  1  0  0  0
 21 22  1  0  0  0
 22 17  1  0  0  0
 23  6  1  0  0  0
 24  9  1  0  0  0
 24 25  1  0  0  0
  6  7  2  0  0  0
  8 27  2  0  0  0
  9 10  2  0  0  0
 11 25  2  0  0  0
 13 14  2  0  0  0
 15 12  2  0  0  0
 16 29  2  0  0  0
M  END
> <rmsd>
0.79928875

$$$$
CHEMBL3235059_8GUQ


 28 30  0  0  0  0  0  0  0  0999 V2000
  129.4593  116.1973  101.4342 C   0  0  0  0  0
  129.5729  116.5419   99.9612 C   0  0  0  0  0
  128.1832  116.5149   99.3504 C   0  0  0  0  0
  130.4240  115.4928   99.2708 C   0  0  0  0  0
  130.2022  117.8984   99.8000 C   0  0  0  0  0
  131.4651  118.2622  100.2445 C   0  0  0  0  0
  131.5316  119.5817   99.8445 C   0  0  0  0  0
  132.7488  121.8009   99.6616 C   0  0  0  0  0
  134.0048  122.5618   99.9545 C   0  0  0  0  0
  133.7689  123.7486  100.8963 C   0  0  0  0  0
  133.1531  124.9392  100.1597 C   0  0  0  0  0
  134.0216  125.3363   98.9704 C   0  0  0  0  0
  134.1407  124.1603   98.0090 C   0  0  0  0  0
  135.8493  122.3310   98.2411 C   0  0  0  0  0
  136.3705  121.2202   98.9198 C   0  0  0  0  0
  137.5163  120.5906   98.4338 C   0  0  0  0  0
  138.1480  121.0731   97.2828 C   0  0  0  0  0
  139.3497  120.3723   96.7195 C   0  0  0  0  0
  137.5870  122.1706   96.6197 C   0  0  0  0  0
  132.6600  120.4321  100.0688 N   0  0  0  0  0
  134.6684  122.9965   98.7207 N   0  0  0  0  0
  136.4691  122.7706   97.1092 N   0  0  0  0  0
  130.4041  119.9629   99.2172 N   0  0  0  0  0
  131.7919  122.3596   99.0597 O   0  0  0  0  0
  129.6272  118.9230   99.2098 O   0  0  0  0  0
  140.0897  119.7916   97.7351 F   0  0  0  0  0
  140.1577  121.2692   96.0423 F   0  0  0  0  0
  138.9349  119.3871   95.8430 F   0  0  0  0  0
  1  2  1  0  0  0
  2  3  1  0  0  0
  2  4  1  0  0  0
  2  5  1  0  0  0
  5 25  1  0  0  0
  6  7  1  0  0  0
  7 20  1  0  0  0
  9  8  1  0  0  0
  9 10  1  0  0  0
  9 21  1  0  0  0
 10 11  1  0  0  0
 11 12  1  0  0  0
 12 13  1  0  0  0
 13 21  1  0  0  0
 14 22  1  0  0  0
 15 16  1  0  0  0
 17 19  1  0  0  0
 18 17  1  0  0  0
 18 26  1  0  0  0
 18 27  1  0  0  0
 18 28  1  0  0  0
 20  8  1  0  0  0
 21 14  1  0  0  0
 23 25  1  0  0  0
  5  6  2  0  0  0
  7 23  2  0  0  0
  8 24  2  0  0  0
 14 15  2  0  0  0
 16 17  2  0  0  0
 19 22  2  0  0  0
M  END
> <rmsd>
0.830644906

$$$$
CHEMBL3400944_8GUR


 28 30  0  0  0  0  0  0  0  0999 V2000
  132.7246  123.5900   99.4071 C   0  0  0  0  0
  133.6000  122.7587  100.3346 C   0  0  0  0  0
  134.1835  123.6769  101.3950 C   0  0  0  0  0
  133.9764  122.9857  102.7332 C   0  0  0  0  0
  132.9243  121.9192  102.5057 C   0  0  0  0  0
  131.9446  120.7755  100.4678 C   0  0  0  0  0
  131.1938  119.9095  101.2782 C   0  0  0  0  0
  130.3757  118.9308  100.7079 C   0  0  0  0  0
  130.3037  118.7915   99.3158 C   0  0  0  0  0
  131.0350  119.6662   98.5018 C   0  0  0  0  0
  131.8526  120.6444   99.0730 C   0  0  0  0  0
  129.3849  117.7752   98.7022 C   0  0  0  0  0
  134.7243  122.1073   99.5684 C   0  0  0  0  0
  136.6716  122.4418   97.9559 C   0  0  0  0  0
  138.1615  121.2428   96.9744 C   0  0  0  0  0
  137.0895  121.1265   97.8463 C   0  0  0  0  0
  139.0198  120.1094   96.4838 C   0  0  0  0  0
  138.1659  119.0994   95.7408 C   0  0  0  0  0
  139.6896  119.4231   97.6593 C   0  0  0  0  0
  140.0977  120.6164   95.5424 C   0  0  0  0  0
  132.7938  121.7796  101.0658 N   0  0  0  0  0
  135.5744  122.9171   98.7439 N   0  0  0  0  0
  137.4352  123.2577   97.2095 N   0  0  0  0  0
  128.1377  118.3413   98.5147 F   0  0  0  0  0
  129.8786  117.3541   97.4793 F   0  0  0  0  0
  129.2614  116.6732   99.5307 F   0  0  0  0  0
  134.9302  120.8668   99.6725 O   0  0  0  0  0
  138.3204  122.5023   96.6339 O   0  0  0  0  0
  2  1  1  0  0  0
  2  3  1  0  0  0
  2 13  1  0  0  0
  2 21  1  0  0  0
  3  4  1  0  0  0
  4  5  1  0  0  0
  5 21  1  0  0  0
  7  8  1  0  0  0
  9 10  1  0  0  0
 11  6  1  0  0  0
 12  9  1  0  0  0
 12 24  1  0  0  0
 12 25  1  0  0  0
 12 26  1  0  0  0
 13 22  1  0  0  0
 15 28  1  0  0  0
 16 14  1  0  0  0
 17 15  1  0  0  0
 17 18  1  0  0  0
 17 19  1  0  0  0
 17 20  1  0  0  0
 21  6  1  0  0  0
 22 14  1  0  0  0
 23 28  1  0  0  0
  6  7  2  0  0  0
  8  9  2  0  0  0
 10 11  2  0  0  0
 13 27  2  0  0  0
 14 23  2  0  0  0
 15 16  2  0  0  0
M  END
> <rmsd>
0.670975327

$$$$
CHEMBL2163929_5ZTY


 34 40  0  0  0  0  0  0  0  0999 V2000
  136.6759  119.6538   99.1846 O   0  0  0  0  0
  136.0822  123.3723   97.4944 O   0  0  0  0  0
  131.7226  123.8726  101.5553 O   0  0  0  0  0
  136.5729  120.7685   98.6017 C   0  0  0  0  0
  138.5008  120.2039   97.0049 C   0  0  0  0  0
  139.2239  120.9087   95.8444 C   0  0  0  0  0
  140.3316  120.0030   95.2807 C   0  0  0  0  0
  139.7063  118.6930   94.7751 C   0  0  0  0  0
  138.9866  117.9755   95.9283 C   0  0  0  0  0
  139.9984  117.6679   97.0447 C   0  0  0  0  0
  140.6307  118.9721   97.5582 C   0  0  0  0  0
  141.3408  119.6836   96.3953 C   0  0  0  0  0
  139.5270  119.8878   98.1103 C   0  0  0  0  0
  137.8841  118.8920   96.4816 C   0  0  0  0  0
  135.5346  121.7318   99.0457 C   0  0  0  0  0
  134.7011  121.3670  100.1093 C   0  0  0  0  0
  133.5292  123.4218  100.0083 C   0  0  0  0  0
  132.5500  124.2937  100.5178 C   0  0  0  0  0
  132.4065  125.5804   99.9938 C   0  0  0  0  0
  133.2219  126.0036   98.9429 C   0  0  0  0  0
  134.1902  125.1450   98.4190 C   0  0  0  0  0
  134.3574  123.8549   98.9462 C   0  0  0  0  0
  135.3524  122.9977   98.4535 C   0  0  0  0  0
  131.5678  122.4887  101.8406 C   0  0  0  0  0
  132.9082  121.7528  101.7376 C   0  0  0  0  0
  132.6830  120.2312  101.8154 C   0  0  0  0  0
  132.0420  119.6464  100.5915 C   0  0  0  0  0
  130.7211  119.9625  100.2471 C   0  0  0  0  0
  130.1354  119.3939   99.1122 C   0  0  0  0  0
  130.8651  118.5006   98.3223 C   0  0  0  0  0
  132.1788  118.1729   98.6699 C   0  0  0  0  0
  132.7642  118.7416   99.8050 C   0  0  0  0  0
  137.4573  121.0863   97.5178 N   0  0  0  0  0
  133.6968  122.1752  100.5569 N   0  0  0  0  0
  4 33  1  0  0  0
  4 15  1  0  0  0
  5 33  1  0  0  0
  5  6  1  0  0  0
  7  6  1  0  0  0
  7  8  1  0  0  0
  9  8  1  0  0  0
  9 10  1  0  0  0
  9 14  1  0  0  0
 11 10  1  0  0  0
 11 12  1  0  0  0
 11 13  1  0  0  0
 12  7  1  0  0  0
 13  5  1  0  0  0
 14  5  1  0  0  0
 16 34  1  0  0  0
 18 19  1  0  0  0
 18  3  1  0  0  0
 20 21  1  0  0  0
 22 23  1  0  0  0
 22 17  1  0  0  0
 23 15  1  0  0  0
 24  3  1  0  0  0
 24 25  1  0  0  0
 25 26  1  0  0  0
 25 34  1  0  0  0
 26 27  1  0  0  0
 28 29  1  0  0  0
 30 31  1  0  0  0
 32 27  1  0  0  0
 34 17  1  0  0  0
  4  1  2  0  0  0
 15 16  2  0  0  0
 17 18  2  0  0  0
 19 20  2  0  0  0
 21 22  2  0  0  0
 23  2  2  0  0  0
 27 28  2  0  0  0
 29 30  2  0  0  0
 31 32  2  0  0  0
M  END
> <rmsd>
0.61271596

$$$$
CHEMBL3422787_6PT0


 25 27  0  0  0  0  0  0  0  0999 V2000
  132.8222  118.8224   98.6910 C   0  0  0  0  0
  131.6166  118.6211   99.3673 C   0  0  0  0  0
  131.0267  119.6721  100.0732 C   0  0  0  0  0
  131.6409  120.9270  100.1043 C   0  0  0  0  0
  132.8551  121.1475   99.4277 C   0  0  0  0  0
  133.4397  120.0758   98.7195 C   0  0  0  0  0
  134.6379  120.2733   98.0476 C   0  0  0  0  0
  135.2680  121.5192   98.0664 C   0  0  0  0  0
  134.6592  122.5749   98.7845 C   0  0  0  0  0
  132.8634  123.4928  100.1690 C   0  0  0  0  0
  131.9409  124.2689   99.2465 C   0  0  0  0  0
  131.3149  125.4165  100.0091 C   0  0  0  0  0
  130.3936  126.1894   99.0896 C   0  0  0  0  0
  136.5478  121.6750   97.3324 C   0  0  0  0  0
  138.3724  120.6224   95.9154 C   0  0  0  0  0
  139.5441  120.6790   96.9001 C   0  0  0  0  0
  139.6739  119.3743   97.6903 C   0  0  0  0  0
  139.7999  118.1633   96.7638 C   0  0  0  0  0
  138.6458  118.1132   95.7605 C   0  0  0  0  0
  138.5186  119.4233   94.9783 C   0  0  0  0  0
  141.1466  118.1444   96.0586 C   0  0  0  0  0
  135.2083  123.7117   98.8186 O   0  0  0  0  0
  137.1560  122.7799   97.3240 O   0  0  0  0  0
  133.4738  122.3729   99.4473 N   0  0  0  0  0
  137.0987  120.5599   96.6230 N   0  0  0  0  0
  2  3  1  0  0  0
  4  5  1  0  0  0
  6  7  1  0  0  0
  6  1  1  0  0  0
  8  9  1  0  0  0
  8 14  1  0  0  0
  9 24  1  0  0  0
 10 24  1  0  0  0
 10 11  1  0  0  0
 11 12  1  0  0  0
 12 13  1  0  0  0
 14 25  1  0  0  0
 15 25  1  0  0  0
 15 16  1  0  0  0
 16 17  1  0  0  0
 17 18  1  0  0  0
 18 19  1  0  0  0
 18 21  1  0  0  0
 19 20  1  0  0  0
 20 15  1  0  0  0
 24  5  1  0  0  0
  1  2  2  0  0  0
  3  4  2  0  0  0
  5  6  2  0  0  0
  7  8  2  0  0  0
  9 22  2  0  0  0
 14 23  2  0  0  0
M  END
> <rmsd>
0.701855838

$$$$
CHEMBL3354945_8GUQ


 27 31  0  0  0  0  0  0  0  0999 V2000
  139.5010  120.8765   97.4125 C   0  0  0  0  0
  138.5079  120.3685   96.3708 C   0  0  0  0  0
  138.7642  118.8829   96.1929 C   0  0  0  0  0
  136.5421  121.8057   97.1819 C   0  0  0  0  0
  135.1595  121.8465   97.6720 C   0  0  0  0  0
  133.3181  122.4912   98.6295 C   0  0  0  0  0
  134.4632  122.9573   98.1033 C   0  0  0  0  0
  134.9017  124.2197   98.7279 C   0  0  0  0  0
  133.8418  124.4615   99.8308 C   0  0  0  0  0
  132.7903  123.3380   99.7298 C   0  0  0  0  0
  132.4723  124.7405   99.2346 C   0  0  0  0  0
  132.3222  120.2400   99.0711 C   0  0  0  0  0
  131.1315  120.7119   99.6400 C   0  0  0  0  0
  130.1930  119.8152  100.1518 C   0  0  0  0  0
  130.4539  118.4456  100.0865 C   0  0  0  0  0
  132.5371  118.8559   99.0238 C   0  0  0  0  0
  138.6609  121.0585   95.0271 C   0  0  0  0  0
  139.6770  122.0026   94.7911 C   0  0  0  0  0
  139.7941  122.6266   93.5460 C   0  0  0  0  0
  138.8977  122.3147   92.5213 C   0  0  0  0  0
  137.8846  121.3788   92.7406 C   0  0  0  0  0
  137.7671  120.7546   93.9854 C   0  0  0  0  0
  137.1469  120.5422   96.8772 N   0  0  0  0  0
  134.4138  120.7471   97.9236 N   0  0  0  0  0
  133.2980  121.1448   98.5263 N   0  0  0  0  0
  131.6100  117.9976   99.5280 N   0  0  0  0  0
  137.1873  122.8775   97.0252 O   0  0  0  0  0
  1  2  1  0  0  0
  2  3  1  0  0  0
  2 23  1  0  0  0
  2 17  1  0  0  0
  4  5  1  0  0  0
  7  5  1  0  0  0
  8  7  1  0  0  0
  9  8  1  0  0  0
  9 10  1  0  0  0
 10 11  1  0  0  0
 10  6  1  0  0  0
 11  9  1  0  0  0
 13 14  1  0  0  0
 15 26  1  0  0  0
 16 12  1  0  0  0
 18 19  1  0  0  0
 20 21  1  0  0  0
 22 17  1  0  0  0
 23  4  1  0  0  0
 25 24  1  0  0  0
 25  6  1  0  0  0
 25 12  1  0  0  0
  4 27  2  0  0  0
  5 24  2  0  0  0
  6  7  2  0  0  0
 12 13  2  0  0  0
 14 15  2  0  0  0
 16 26  2  0  0  0
 17 18  2  0  0  0
 19 20  2  0  0  0
 21 22  2  0  0  0
M  END
> <rmsd>
0.397971839

$$$$
CHEMBL3354976_8GUQ


 23 26  0  0  0  0  0  0  0  0999 V2000
  138.9018  118.7997   96.6804 C   0  0  0  0  0
  138.7106  120.2664   97.0030 C   0  0  0  0  0
  139.1586  121.0711   95.7917 C   0  0  0  0  0
  136.6461  121.7573   97.4572 C   0  0  0  0  0
  135.2307  121.7991   97.8435 C   0  0  0  0  0
  133.3142  122.4658   98.6228 C   0  0  0  0  0
  134.4843  122.9209   98.1440 C   0  0  0  0  0
  134.8544  124.2337   98.7063 C   0  0  0  0  0
  133.7159  124.5265   99.7143 C   0  0  0  0  0
  132.6952  123.3745   99.6216 C   0  0  0  0  0
  132.3864  124.7312   99.0077 C   0  0  0  0  0
  132.3410  120.2249   99.1586 C   0  0  0  0  0
  131.1052  120.7011   99.6164 C   0  0  0  0  0
  130.4489  118.4950  100.1706 C   0  0  0  0  0
  131.6756  118.0145   99.7115 C   0  0  0  0  0
  139.5715  120.5836   98.2255 C   0  0  0  0  0
  137.2920  120.4883   97.2856 N   0  0  0  0  0
  134.4908  120.7026   98.1233 N   0  0  0  0  0
  133.3284  121.1156   98.6163 N   0  0  0  0  0
  130.1900  119.8276  100.1124 N   0  0  0  0  0
  132.5913  118.8878   99.2154 N   0  0  0  0  0
  137.2748  122.8315   97.2592 O   0  0  0  0  0
  139.5708  121.9479   98.5220 O   0  0  0  0  0
  1  2  1  0  0  0
  2  3  1  0  0  0
  2 17  1  0  0  0
  2 16  1  0  0  0
  4  5  1  0  0  0
  7  5  1  0  0  0
  8  7  1  0  0  0
  9  8  1  0  0  0
  9 10  1  0  0  0
 10 11  1  0  0  0
 10  6  1  0  0  0
 11  9  1  0  0  0
 12 21  1  0  0  0
 13 20  1  0  0  0
 14 15  1  0  0  0
 16 23  1  0  0  0
 17  4  1  0  0  0
 19 18  1  0  0  0
 19  6  1  0  0  0
 19 12  1  0  0  0
  4 22  2  0  0  0
  5 18  2  0  0  0
  6  7  2  0  0  0
 12 13  2  0  0  0
 14 20  2  0  0  0
 15 21  2  0  0  0
M  END
> <rmsd>
0.439510018

$$$$
CHEMBL225622_8GUQ


 32 36  0  0  0  0  0  0  0  0999 V2000
  140.3195  118.4835   97.0510 C   0  0  0  0  0
  139.1746  118.1581   96.0974 C   0  0  0  0  0
  139.0114  119.2759   95.0675 C   0  0  0  0  0
  138.7706  120.6269   95.7453 C   0  0  0  0  0
  139.8896  120.9317   96.7489 C   0  0  0  0  0
  140.0456  119.8021   97.7664 C   0  0  0  0  0
  136.8672  121.8187   96.9334 C   0  0  0  0  0
  135.5798  121.7516   97.6474 C   0  0  0  0  0
  133.7243  121.1005   98.6550 C   0  0  0  0  0
  134.8423  120.6167   97.9630 C   0  0  0  0  0
  135.3023  119.2056   97.7060 C   0  0  0  0  0
  134.2616  118.1328   97.9451 C   0  0  0  0  0
  133.8414  118.1575   99.3967 C   0  0  0  0  0
  132.5991  118.9639   99.5167 C   0  0  0  0  0
  132.5386  120.3301   99.1489 C   0  0  0  0  0
  131.2979  120.9839   99.2367 C   0  0  0  0  0
  130.1594  120.3249   99.7010 C   0  0  0  0  0
  130.2399  118.9879  100.0831 C   0  0  0  0  0
  131.4539  118.3098   99.9847 C   0  0  0  0  0
  132.9956  123.3823   99.4099 C   0  0  0  0  0
  132.8323  123.3386  100.8099 C   0  0  0  0  0
  131.9973  124.2656  101.4409 C   0  0  0  0  0
  131.3323  125.2394  100.6923 C   0  0  0  0  0
  131.5108  125.3000   99.3086 C   0  0  0  0  0
  132.3430  124.3771   98.6707 C   0  0  0  0  0
  137.4671  120.6352   96.3995 N   0  0  0  0  0
  134.9554  122.8436   98.1206 N   0  0  0  0  0
  133.8489  122.4525   98.7292 N   0  0  0  0  0
  137.4359  122.9343   96.7865 O   0  0  0  0  0
  128.8165  118.1565  100.6702 Cl  0  0  0  0  0
  130.2875  126.3939  101.4909 Cl  0  0  0  0  0
  133.6877  122.1697  101.8034 Cl  0  0  0  0  0
  1  2  1  0  0  0
  2  3  1  0  0  0
  3  4  1  0  0  0
  4  5  1  0  0  0
  4 26  1  0  0  0
  5  6  1  0  0  0
  6  1  1  0  0  0
  7  8  1  0  0  0
 10  8  1  0  0  0
 11 10  1  0  0  0
 11 12  1  0  0  0
 12 13  1  0  0  0
 13 14  1  0  0  0
 15 16  1  0  0  0
 15  9  1  0  0  0
 17 18  1  0  0  0
 18 30  1  0  0  0
 19 14  1  0  0  0
 21 22  1  0  0  0
 21 32  1  0  0  0
 23 24  1  0  0  0
 23 31  1  0  0  0
 25 20  1  0  0  0
 26  7  1  0  0  0
 28 27  1  0  0  0
 28  9  1  0  0  0
 28 20  1  0  0  0
  7 29  2  0  0  0
  8 27  2  0  0  0
  9 10  2  0  0  0
 14 15  2  0  0  0
 16 17  2  0  0  0
 18 19  2  0  0  0
 20 21  2  0  0  0
 22 23  2  0  0  0
 24 25  2  0  0  0
M  END
> <rmsd>
0.61530745

$$$$
CHEMBL3353863_8GUT


 24 26  0  0  0  0  0  0  0  0999 V2000
  131.9511  121.0844   99.6254 C   0  0  0  0  0
  132.4749  119.9032  100.1750 C   0  0  0  0  0
  131.8650  118.6716   99.9217 C   0  0  0  0  0
  130.7251  118.6092   99.1166 C   0  0  0  0  0
  130.1947  119.7780   98.5650 C   0  0  0  0  0
  130.8048  121.0097   98.8181 C   0  0  0  0  0
  133.7775  122.5166  100.6909 C   0  0  0  0  0
  134.9791  122.0022   99.9620 C   0  0  0  0  0
  136.3681  122.0420   97.8253 C   0  0  0  0  0
  138.1102  121.0648   97.0313 C   0  0  0  0  0
  137.3128  121.0890   98.1656 C   0  0  0  0  0
  139.3194  120.1939   96.8278 C   0  0  0  0  0
  138.9214  118.7323   96.9079 C   0  0  0  0  0
  140.3526  120.4860   97.8994 C   0  0  0  0  0
  139.9471  120.4501   95.4692 C   0  0  0  0  0
  133.9091  124.0101  100.9338 C   0  0  0  0  0
  132.9559  124.6913   99.9614 C   0  0  0  0  0
  132.0010  123.6189   99.4726 C   0  0  0  0  0
  129.9613  117.0669   98.7992 Cl  0  0  0  0  0
  132.5798  122.3529   99.8826 N   0  0  0  0  0
  135.2738  122.4753   98.6405 N   0  0  0  0  0
  136.5939  122.5320   96.5945 N   0  0  0  0  0
  135.7182  121.1519  100.5251 O   0  0  0  0  0
  137.6492  121.9217   96.1478 O   0  0  0  0  0
  1 20  1  0  0  0
  2  3  1  0  0  0
  4  5  1  0  0  0
  4 19  1  0  0  0
  6  1  1  0  0  0
  7 20  1  0  0  0
  7  8  1  0  0  0
  7 16  1  0  0  0
  8 21  1  0  0  0
 10 24  1  0  0  0
 11  9  1  0  0  0
 12 10  1  0  0  0
 12 13  1  0  0  0
 12 14  1  0  0  0
 12 15  1  0  0  0
 16 17  1  0  0  0
 17 18  1  0  0  0
 18 20  1  0  0  0
 21  9  1  0  0  0
 22 24  1  0  0  0
  1  2  2  0  0  0
  3  4  2  0  0  0
  5  6  2  0  0  0
  8 23  2  0  0  0
  9 22  2  0  0  0
 10 11  2  0  0  0
M  END
> <rmsd>
0.686223567

$$$$
CHEMBL374937_6PT0


 29 32  0  0  0  0  0  0  0  0999 V2000
  139.6026  118.6843   96.9312 C   0  0  0  0  0
  138.6979  118.8363   97.9804 C   0  0  0  0  0
  137.8158  119.9173   97.9932 C   0  0  0  0  0
  137.8141  120.8673   96.9594 C   0  0  0  0  0
  138.7351  120.7145   95.8922 C   0  0  0  0  0
  139.6281  119.6118   95.8896 C   0  0  0  0  0
  140.5357  119.4423   94.8402 C   0  0  0  0  0
  140.5653  120.3548   93.7835 C   0  0  0  0  0
  139.6857  121.4391   93.7704 C   0  0  0  0  0
  138.7758  121.6164   94.8158 C   0  0  0  0  0
  136.8730  122.0164   97.0429 C   0  0  0  0  0
  135.5176  121.8817   97.6158 C   0  0  0  0  0
  134.6501  122.9301   97.8529 C   0  0  0  0  0
  133.6368  121.0846   98.4316 C   0  0  0  0  0
  134.8872  120.7010   97.9736 C   0  0  0  0  0
  132.6103  120.1310   98.9218 C   0  0  0  0  0
  131.3048  120.5474   99.2225 C   0  0  0  0  0
  130.3501  119.6321   99.6746 C   0  0  0  0  0
  130.6911  118.2865   99.8281 C   0  0  0  0  0
  131.9859  117.8575   99.5284 C   0  0  0  0  0
  132.9388  118.7745   99.0766 C   0  0  0  0  0
  132.3792  123.2551   98.7707 C   0  0  0  0  0
  132.4636  123.5665  100.2611 C   0  0  0  0  0
  133.5968  124.5338  100.5659 C   0  0  0  0  0
  133.2425  125.9318  100.0958 C   0  0  0  0  0
  134.3952  126.8686  100.3879 C   0  0  0  0  0
  137.2392  123.1485   96.6255 O   0  0  0  0  0
  133.5061  122.4305   98.3510 N   0  0  0  0  0
  132.4156  116.1716   99.7175 Cl  0  0  0  0  0
  2  3  1  0  0  0
  4  5  1  0  0  0
  4 11  1  0  0  0
  6  7  1  0  0  0
  6  1  1  0  0  0
  8  9  1  0  0  0
 10  5  1  0  0  0
 11 12  1  0  0  0
 13 28  1  0  0  0
 14 16  1  0  0  0
 15 12  1  0  0  0
 17 18  1  0  0  0
 19 20  1  0  0  0
 20 29  1  0  0  0
 21 16  1  0  0  0
 22 28  1  0  0  0
 22 23  1  0  0  0
 23 24  1  0  0  0
 24 25  1  0  0  0
 25 26  1  0  0  0
 28 14  1  0  0  0
  1  2  2  0  0  0
  3  4  2  0  0  0
  5  6  2  0  0  0
  7  8  2  0  0  0
  9 10  2  0  0  0
 11 27  2  0  0  0
 12 13  2  0  0  0
 14 15  2  0  0  0
 16 17  2  0  0  0
 18 19  2  0  0  0
 20 21  2  0  0  0
M  END
> <rmsd>
0.467053771

$$$$
CHEMBL219556_6PT0


 32 35  0  0  0  0  0  0  0  0999 V2000
  139.5254  118.3724   96.3674 C   0  0  0  0  0
  138.1508  118.3924   96.1384 C   0  0  0  0  0
  137.4179  119.5552   96.3791 C   0  0  0  0  0
  138.0383  120.7207   96.8559 C   0  0  0  0  0
  139.4370  120.7020   97.0878 C   0  0  0  0  0
  140.1727  119.5143   96.8392 C   0  0  0  0  0
  141.5506  119.4771   97.0714 C   0  0  0  0  0
  142.2114  120.6078   97.5559 C   0  0  0  0  0
  141.4970  121.7797   97.8128 C   0  0  0  0  0
  140.1197  121.8257   97.5827 C   0  0  0  0  0
  137.2113  121.9397   97.0638 C   0  0  0  0  0
  135.8157  121.8693   97.5446 C   0  0  0  0  0
  134.9530  122.9448   97.6334 C   0  0  0  0  0
  133.9000  121.1833   98.3801 C   0  0  0  0  0
  135.1651  120.7440   98.0241 C   0  0  0  0  0
  132.8494  120.3010   98.9474 C   0  0  0  0  0
  131.5500  120.7683   99.1899 C   0  0  0  0  0
  130.5720  119.9179   99.7109 C   0  0  0  0  0
  130.8849  118.5879   99.9980 C   0  0  0  0  0
  132.1808  118.1036   99.7776 C   0  0  0  0  0
  133.1495  118.9605   99.2367 C   0  0  0  0  0
  132.5050  116.6606  100.0333 C   0  0  0  0  0
  132.6522  123.3822   98.4148 C   0  0  0  0  0
  132.7677  123.9466   99.8180 C   0  0  0  0  0
  131.5666  124.8258  100.1086 C   0  0  0  0  0
  131.6575  125.4002  101.5109 C   0  0  0  0  0
  132.6786  126.5214  101.5594 C   0  0  0  0  0
  137.7041  123.0730   96.8129 O   0  0  0  0  0
  133.7841  122.5103   98.1346 N   0  0  0  0  0
  132.2431  115.9247   98.8927 F   0  0  0  0  0
  133.8408  116.5176  100.3667 F   0  0  0  0  0
  131.7359  116.1701  101.0745 F   0  0  0  0  0
  2  3  1  0  0  0
  4  5  1  0  0  0
  4 11  1  0  0  0
  6  7  1  0  0  0
  6  1  1  0  0  0
  8  9  1  0  0  0
 10  5  1  0  0  0
 11 12  1  0  0  0
 13 29  1  0  0  0
 14 16  1  0  0  0
 15 12  1  0  0  0
 17 18  1  0  0  0
 19 20  1  0  0  0
 21 16  1  0  0  0
 22 20  1  0  0  0
 22 30  1  0  0  0
 22 31  1  0  0  0
 22 32  1  0  0  0
 23 29  1  0  0  0
 23 24  1  0  0  0
 24 25  1  0  0  0
 25 26  1  0  0  0
 26 27  1  0  0  0
 29 14  1  0  0  0
  1  2  2  0  0  0
  3  4  2  0  0  0
  5  6  2  0  0  0
  7  8  2  0  0  0
  9 10  2  0  0  0
 11 28  2  0  0  0
 12 13  2  0  0  0
 14 15  2  0  0  0
 16 17  2  0  0  0
 18 19  2  0  0  0
 20 21  2  0  0  0
M  END
> <rmsd>
0.651741803

$$$$
CHEMBL3958336_8GUQ


 29 30  0  0  0  0  0  0  0  0999 V2000
  138.4509  119.8653   96.4617 C   0  0  0  0  0
  137.6277  121.0078   96.9379 C   0  0  0  0  0
  136.0262  122.2213   97.4955 C   0  0  0  0  0
  134.6357  122.7646   97.6974 C   0  0  0  0  0
  134.2104  123.4099   96.3893 C   0  0  0  0  0
  134.6480  123.7972   98.8513 C   0  0  0  0  0
  133.3874  124.6433   99.1112 C   0  0  0  0  0
  133.2321  125.7231   98.0574 C   0  0  0  0  0
  132.1221  123.8070   99.1700 C   0  0  0  0  0
  133.5576  125.3256  100.4515 C   0  0  0  0  0
  133.7984  120.8128   99.1464 C   0  0  0  0  0
  132.7950  119.7561   99.3407 C   0  0  0  0  0
  130.8445  118.6372   98.5806 C   0  0  0  0  0
  130.8698  117.7686   99.6748 C   0  0  0  0  0
  131.9061  117.9040  100.6345 C   0  0  0  0  0
  132.8595  118.9094  100.4516 C   0  0  0  0  0
  131.2899  115.9424  102.0773 C   0  0  0  0  0
  131.7393  115.3473  103.3994 C   0  0  0  0  0
  136.2840  120.9891   97.0034 N   0  0  0  0  0
  137.1508  122.9432   97.6860 N   0  0  0  0  0
  133.7127  121.6686   97.9983 N   0  0  0  0  0
  131.7933  119.5978   98.4357 N   0  0  0  0  0
  138.1193  122.1529   97.3374 O   0  0  0  0  0
  134.7273  120.9662   99.9861 O   0  0  0  0  0
  132.0546  117.1008  101.7758 O   0  0  0  0  0
  133.0732  114.9917  103.3241 F   0  0  0  0  0
  130.9834  114.2236  103.6719 F   0  0  0  0  0
  131.5641  116.2710  104.4129 F   0  0  0  0  0
  129.5701  116.5890   99.7683 Cl  0  0  0  0  0
  1  2  1  0  0  0
  2 23  1  0  0  0
  3 19  1  0  0  0
  4  3  1  0  0  0
  4  5  1  0  0  0
  4  6  1  0  0  0
  4 21  1  0  0  0
  6  7  1  0  0  0
  7  8  1  0  0  0
  7  9  1  0  0  0
  7 10  1  0  0  0
 11 12  1  0  0  0
 13 22  1  0  0  0
 14 15  1  0  0  0
 14 29  1  0  0  0
 15 25  1  0  0  0
 16 12  1  0  0  0
 17 25  1  0  0  0
 17 18  1  0  0  0
 18 26  1  0  0  0
 18 27  1  0  0  0
 18 28  1  0  0  0
 20 23  1  0  0  0
 21 11  1  0  0  0
  2 19  2  0  0  0
  3 20  2  0  0  0
 11 24  2  0  0  0
 12 22  2  0  0  0
 13 14  2  0  0  0
 15 16  2  0  0  0
M  END
> <rmsd>
0.695387602

$$$$
CHEMBL3354961_8GUQ


 30 35  0  0  0  0  0  0  0  0999 V2000
  138.7961  119.5155   99.0108 C   0  0  0  0  0
  139.5331  120.1184   97.8142 C   0  0  0  0  0
  140.6066  121.0526   98.3465 C   0  0  0  0  0
  140.1768  119.0358   96.9163 C   0  0  0  0  0
  139.1071  117.9998   96.5370 C   0  0  0  0  0
  138.1947  118.7586   95.5706 C   0  0  0  0  0
  138.8540  120.1321   95.5110 C   0  0  0  0  0
  138.6340  120.8923   96.8229 C   0  0  0  0  0
  136.5137  122.1332   97.4112 C   0  0  0  0  0
  135.0995  122.0919   97.8012 C   0  0  0  0  0
  133.1598  122.6323   98.6210 C   0  0  0  0  0
  134.3019  123.1641   98.1474 C   0  0  0  0  0
  134.6280  124.4579   98.7779 C   0  0  0  0  0
  133.5085  124.6395   99.8304 C   0  0  0  0  0
  132.5359  123.4524   99.6922 C   0  0  0  0  0
  132.1525  124.8289   99.1717 C   0  0  0  0  0
  132.3176  120.3309   99.1118 C   0  0  0  0  0
  132.8029  119.1023   99.5851 C   0  0  0  0  0
  131.9316  118.1537  100.1257 C   0  0  0  0  0
  130.5632  118.4213  100.1925 C   0  0  0  0  0
  130.0643  119.6316   99.7064 C   0  0  0  0  0
  130.9317  120.5856   99.1653 C   0  0  0  0  0
  138.5047  120.9273   94.2692 C   0  0  0  0  0
  140.3044  119.7719   95.6049 C   0  0  0  0  0
  137.2243  120.9119   97.2057 N   0  0  0  0  0
  134.4195  120.9508   98.0488 N   0  0  0  0  0
  133.2382  121.2857   98.5560 N   0  0  0  0  0
  137.0958  123.2407   97.2555 O   0  0  0  0  0
  130.4089  121.7281   98.6560 F   0  0  0  0  0
  129.7179  117.5021  100.7170 F   0  0  0  0  0
  1  2  1  0  0  0
  2  3  1  0  0  0
  2  4  1  0  0  0
  4  5  1  0  0  0
  5  6  1  0  0  0
  6  7  1  0  0  0
  7  8  1  0  0  0
  7 23  1  0  0  0
  7 24  1  0  0  0
  8 25  1  0  0  0
  8  2  1  0  0  0
  9 10  1  0  0  0
 12 10  1  0  0  0
 13 12  1  0  0  0
 14 13  1  0  0  0
 14 15  1  0  0  0
 15 16  1  0  0  0
 15 11  1  0  0  0
 16 14  1  0  0  0
 18 19  1  0  0  0
 20 21  1  0  0  0
 20 30  1  0  0  0
 22 29  1  0  0  0
 22 17  1  0  0  0
 24  4  1  0  0  0
 25  9  1  0  0  0
 27 26  1  0  0  0
 27 11  1  0  0  0
 27 17  1  0  0  0
  9 28  2  0  0  0
 10 26  2  0  0  0
 11 12  2  0  0  0
 17 18  2  0  0  0
 19 20  2  0  0  0
 21 22  2  0  0  0
M  END
> <rmsd>
0.224271789

$$$$
CHEMBL4074423_8GUR


 25 26  0  0  0  0  0  0  0  0999 V2000
  131.4455  118.3838   99.5113 C   0  0  0  0  0
  130.9500  119.4728  100.2177 C   0  0  0  0  0
  131.3462  120.7759   99.9055 C   0  0  0  0  0
  132.2840  121.0096   98.8470 C   0  0  0  0  0
  132.7612  119.8810   98.1310 C   0  0  0  0  0
  132.3433  118.5874   98.4717 C   0  0  0  0  0
  133.6563  120.0677   97.0744 C   0  0  0  0  0
  133.6115  122.4113   97.4330 C   0  0  0  0  0
  132.3631  123.4789   99.2090 C   0  0  0  0  0
  133.3867  123.7833  100.2892 C   0  0  0  0  0
  132.9756  125.0350  101.0339 C   0  0  0  0  0
  133.9934  125.3359  102.1134 C   0  0  0  0  0
  135.0135  121.5069   95.6394 C   0  0  0  0  0
  136.4124  121.5023   96.1568 C   0  0  0  0  0
  138.4089  120.1138   96.9738 C   0  0  0  0  0
  138.7325  118.6409   97.1056 C   0  0  0  0  0
  139.4305  120.7555   96.0527 C   0  0  0  0  0
  138.4844  120.7527   98.3486 C   0  0  0  0  0
  130.7024  121.8444  100.7236 C   0  0  0  0  0
  134.0844  119.0695   96.4273 O   0  0  0  0  0
  134.0049  123.5669   97.1001 O   0  0  0  0  0
  136.9939  122.5958   96.3871 O   0  0  0  0  0
  134.0634  121.3240   96.7396 N   0  0  0  0  0
  132.7408  122.2634   98.4838 N   0  0  0  0  0
  137.0645  120.2543   96.4208 N   0  0  0  0  0
  2  3  1  0  0  0
  4  5  1  0  0  0
  5  7  1  0  0  0
  6  1  1  0  0  0
  7 23  1  0  0  0
  8 24  1  0  0  0
  9 24  1  0  0  0
  9 10  1  0  0  0
 10 11  1  0  0  0
 11 12  1  0  0  0
 13 23  1  0  0  0
 13 14  1  0  0  0
 14 25  1  0  0  0
 15 25  1  0  0  0
 15 16  1  0  0  0
 15 17  1  0  0  0
 15 18  1  0  0  0
 19  3  1  0  0  0
 23  8  1  0  0  0
 24  4  1  0  0  0
  1  2  2  0  0  0
  3  4  2  0  0  0
  5  6  2  0  0  0
  7 20  2  0  0  0
  8 21  2  0  0  0
 14 22  2  0  0  0
M  END
> <rmsd>
0.76476109

$$$$
CHEMBL3354968_8GUQ


 24 27  0  0  0  0  0  0  0  0999 V2000
  138.7642  118.8786   96.2078 C   0  0  0  0  0
  138.5019  120.3617   96.3893 C   0  0  0  0  0
  139.4862  120.8936   97.4151 C   0  0  0  0  0
  136.5282  121.8129   97.1598 C   0  0  0  0  0
  135.1383  121.8601   97.6297 C   0  0  0  0  0
  133.2922  122.5097   98.5765 C   0  0  0  0  0
  134.4446  122.9738   98.0592 C   0  0  0  0  0
  134.9016  124.2135   98.7166 C   0  0  0  0  0
  133.8568  124.4352   99.8362 C   0  0  0  0  0
  132.7905  123.3299   99.7098 C   0  0  0  0  0
  132.4860  124.7509   99.2618 C   0  0  0  0  0
  132.3028  120.2595   99.0286 C   0  0  0  0  0
  132.7165  118.9802   99.4301 C   0  0  0  0  0
  131.8044  118.0780   99.9827 C   0  0  0  0  0
  130.4651  118.4429  100.1318 C   0  0  0  0  0
  130.0365  119.7067   99.7206 C   0  0  0  0  0
  130.9451  120.6146   99.1677 C   0  0  0  0  0
  138.7191  121.0849   95.0626 C   0  0  0  0  0
  137.1320  120.5463   96.8661 N   0  0  0  0  0
  134.3870  120.7637   97.8732 N   0  0  0  0  0
  133.2635  121.1649   98.4580 N   0  0  0  0  0
  137.1804  122.8817   97.0118 O   0  0  0  0  0
  137.7975  120.6566   94.1038 O   0  0  0  0  0
  130.4858  121.8129   98.7310 F   0  0  0  0  0
  1  2  1  0  0  0
  2  3  1  0  0  0
  2 19  1  0  0  0
  2 18  1  0  0  0
  4  5  1  0  0  0
  7  5  1  0  0  0
  8  7  1  0  0  0
  9  8  1  0  0  0
  9 10  1  0  0  0
 10 11  1  0  0  0
 10  6  1  0  0  0
 11  9  1  0  0  0
 13 14  1  0  0  0
 15 16  1  0  0  0
 17 24  1  0  0  0
 17 12  1  0  0  0
 18 23  1  0  0  0
 19  4  1  0  0  0
 21 20  1  0  0  0
 21  6  1  0  0  0
 21 12  1  0  0  0
  4 22  2  0  0  0
  5 20  2  0  0  0
  6  7  2  0  0  0
 12 13  2  0  0  0
 14 15  2  0  0  0
 16 17  2  0  0  0
M  END
> <rmsd>
0.399932772

$$$$
CHEMBL3354529_8GUT


 26 28  0  0  0  0  0  0  0  0999 V2000
  139.7178  118.7990   97.5965 C   0  0  0  0  0
  139.5510  119.9096   96.5718 C   0  0  0  0  0
  139.3544  119.2811   95.2063 C   0  0  0  0  0
  140.8178  120.7421   96.5516 C   0  0  0  0  0
  138.3762  120.7949   96.8883 C   0  0  0  0  0
  137.5078  120.6730   97.9647 C   0  0  0  0  0
  136.6480  121.7312   97.7515 C   0  0  0  0  0
  134.6390  123.1411   98.3965 C   0  0  0  0  0
  133.5047  123.3361   99.3571 C   0  0  0  0  0
  133.7857  124.5919  100.1869 C   0  0  0  0  0
  132.6414  124.8581  101.1535 C   0  0  0  0  0
  131.3377  124.9675  100.3800 C   0  0  0  0  0
  131.1153  123.6797   99.5980 C   0  0  0  0  0
  131.9142  122.2406   97.8598 C   0  0  0  0  0
  131.6863  120.9987   98.6806 C   0  0  0  0  0
  132.7501  120.3533   99.3245 C   0  0  0  0  0
  132.5235  119.1856  100.0584 C   0  0  0  0  0
  131.2335  118.6543  100.1442 C   0  0  0  0  0
  130.1718  119.2868   99.4908 C   0  0  0  0  0
  130.3992  120.4548   98.7568 C   0  0  0  0  0
  136.9795  122.4183   96.6435 N   0  0  0  0  0
  135.5417  122.0497   98.6004 N   0  0  0  0  0
  132.2125  123.4507   98.6487 N   0  0  0  0  0
  138.0244  121.8252   96.1517 O   0  0  0  0  0
  134.7954  123.9399   97.4331 O   0  0  0  0  0
  130.9488  117.1928  101.0638 Cl  0  0  0  0  0
  1  2  1  0  0  0
  2  3  1  0  0  0
  2  4  1  0  0  0
  2  5  1  0  0  0
  5 24  1  0  0  0
  6  7  1  0  0  0
  7 22  1  0  0  0
  9  8  1  0  0  0
  9 10  1  0  0  0
  9 23  1  0  0  0
 10 11  1  0  0  0
 11 12  1  0  0  0
 12 13  1  0  0  0
 13 23  1  0  0  0
 14 23  1  0  0  0
 14 15  1  0  0  0
 16 17  1  0  0  0
 18 19  1  0  0  0
 18 26  1  0  0  0
 20 15  1  0  0  0
 21 24  1  0  0  0
 22  8  1  0  0  0
  5  6  2  0  0  0
  7 21  2  0  0  0
  8 25  2  0  0  0
 15 16  2  0  0  0
 17 18  2  0  0  0
 19 20  2  0  0  0
M  END
> <rmsd>
0.798336148

$$$$
CHEMBL3234681_8GUQ


 25 28  0  0  0  0  0  0  0  0999 V2000
  138.7855  118.8534   96.6966 C   0  0  0  0  0
  138.4619  120.3295   96.7870 C   0  0  0  0  0
  138.6873  120.9607   95.4251 C   0  0  0  0  0
  139.3864  120.9680   97.8076 C   0  0  0  0  0
  136.4022  121.7384   97.3882 C   0  0  0  0  0
  134.9947  121.7551   97.8031 C   0  0  0  0  0
  134.2463  122.8732   98.1320 C   0  0  0  0  0
  133.0856  122.3797   98.6498 C   0  0  0  0  0
  132.1639  120.1173   99.1518 C   0  0  0  0  0
  131.5964  119.1706   98.2887 C   0  0  0  0  0
  130.6484  118.2596   98.7615 C   0  0  0  0  0
  130.2670  118.2833  100.1046 C   0  0  0  0  0
  130.8454  119.2071  100.9785 C   0  0  0  0  0
  131.7932  120.1221  100.5099 C   0  0  0  0  0
  132.6853  123.2687   99.7876 C   0  0  0  0  0
  132.2827  124.6120   99.1659 C   0  0  0  0  0
  133.6080  125.1614   98.5931 C   0  0  0  0  0
  134.6318  124.0735   98.9391 C   0  0  0  0  0
  134.0714  123.6406  100.2821 C   0  0  0  0  0
  137.0680  120.4835   97.1956 N   0  0  0  0  0
  133.1394  121.0312   98.6370 N   0  0  0  0  0
  134.2819  120.6428   98.0868 N   0  0  0  0  0
  137.0162  122.8235   97.2003 O   0  0  0  0  0
  132.3823  120.9643  101.3924 F   0  0  0  0  0
  129.3478  117.4007  100.5635 F   0  0  0  0  0
  1  2  1  0  0  0
  2  3  1  0  0  0
  2  4  1  0  0  0
  2 20  1  0  0  0
  5  6  1  0  0  0
  6  7  1  0  0  0
  8 21  1  0  0  0
 10 11  1  0  0  0
 12 13  1  0  0  0
 12 25  1  0  0  0
 14 24  1  0  0  0
 14  9  1  0  0  0
 15  8  1  0  0  0
 15 16  1  0  0  0
 16 17  1  0  0  0
 18 17  1  0  0  0
 18 19  1  0  0  0
 18  7  1  0  0  0
 19 15  1  0  0  0
 20  5  1  0  0  0
 21 22  1  0  0  0
 21  9  1  0  0  0
  5 23  2  0  0  0
  6 22  2  0  0  0
  7  8  2  0  0  0
  9 10  2  0  0  0
 11 12  2  0  0  0
 13 14  2  0  0  0
M  END
> <rmsd>
0.598248601

$$$$
CHEMBL1668515_5ZTY


 25 29  0  0  0  0  0  0  0  0999 V2000
  132.2718  119.3827  100.0238 C   0  0  0  0  0
  131.1438  118.6931  100.4774 C   0  0  0  0  0
  129.8795  119.2773  100.3730 C   0  0  0  0  0
  129.7436  120.5504   99.8150 C   0  0  0  0  0
  130.8723  121.2388   99.3615 C   0  0  0  0  0
  132.1494  120.6632   99.4607 C   0  0  0  0  0
  134.4501  120.8515   98.4770 C   0  0  0  0  0
  135.3044  121.8912   98.1532 C   0  0  0  0  0
  133.5153  122.7159   98.9678 C   0  0  0  0  0
  132.5523  123.7307   99.4854 C   0  0  0  0  0
  136.6479  121.8001   97.5558 C   0  0  0  0  0
  138.5455  120.3346   96.6631 C   0  0  0  0  0
  139.6752  120.8977   97.5150 C   0  0  0  0  0
  140.8465  120.0527   97.0510 C   0  0  0  0  0
  140.2270  118.6708   97.1708 C   0  0  0  0  0
  138.8892  118.8410   96.4556 C   0  0  0  0  0
  139.2574  118.7523   94.9769 C   0  0  0  0  0
  139.8013  120.1407   94.6858 C   0  0  0  0  0
  138.6927  120.9804   95.2917 C   0  0  0  0  0
  141.1043  120.3473   95.5327 C   0  0  0  0  0
  134.6967  119.3964   98.2382 C   0  0  0  0  0
  133.3153  121.3747   98.9917 N   0  0  0  0  0
  134.7184  123.0639   98.4662 N   0  0  0  0  0
  137.2250  120.5241   97.2537 N   0  0  0  0  0
  137.2887  122.8584   97.3131 O   0  0  0  0  0
  2  3  1  0  0  0
  4  5  1  0  0  0
  6 22  1  0  0  0
  6  1  1  0  0  0
  8 23  1  0  0  0
  8 11  1  0  0  0
  9 22  1  0  0  0
 10  9  1  0  0  0
 11 24  1  0  0  0
 12 24  1  0  0  0
 12 13  1  0  0  0
 13 14  1  0  0  0
 14 15  1  0  0  0
 15 16  1  0  0  0
 16 17  1  0  0  0
 16 12  1  0  0  0
 17 18  1  0  0  0
 18 19  1  0  0  0
 18 20  1  0  0  0
 19 12  1  0  0  0
 20 14  1  0  0  0
 21  7  1  0  0  0
 22  7  1  0  0  0
  1  2  2  0  0  0
  3  4  2  0  0  0
  5  6  2  0  0  0
  7  8  2  0  0  0
  9 23  2  0  0  0
 11 25  2  0  0  0
M  END
> <rmsd>
0.775772572

$$$$
CHEMBL1668517_5ZTY


 34 38  0  0  0  0  0  0  0  0999 V2000
  132.6794  126.9450   99.9668 C   0  0  0  0  0
  133.3581  125.8186   99.2108 C   0  0  0  0  0
  132.3671  124.7023   98.9185 C   0  0  0  0  0
  132.0515  123.8954  100.1721 C   0  0  0  0  0
  133.2334  123.0226  100.5847 C   0  0  0  0  0
  134.5613  122.0468   98.8324 C   0  0  0  0  0
  134.8761  121.0715   97.8787 C   0  0  0  0  0
  136.0960  121.2576   97.0541 C   0  0  0  0  0
  137.6768  120.4268   95.2500 C   0  0  0  0  0
  138.9449  119.9011   95.9762 C   0  0  0  0  0
  139.9424  121.0324   96.1831 C   0  0  0  0  0
  138.6695  119.2618   97.3358 C   0  0  0  0  0
  139.4717  118.8174   95.0074 C   0  0  0  0  0
  139.9820  119.4871   93.7218 C   0  0  0  0  0
  138.7037  119.9845   93.0436 C   0  0  0  0  0
  137.6208  119.5263   94.0074 C   0  0  0  0  0
  136.2606  119.4006   93.3421 C   0  0  0  0  0
  138.1803  118.2261   94.5021 C   0  0  0  0  0
  134.0201  119.9580   97.7487 C   0  0  0  0  0
  132.8889  119.8515   98.5736 C   0  0  0  0  0
  132.0278  118.7483   98.4735 C   0  0  0  0  0
  130.9053  118.6373   99.3032 C   0  0  0  0  0
  130.0039  117.4790   99.1958 C   0  0  0  0  0
  130.1454  116.4245   98.3158 C   0  0  0  0  0
  129.0734  115.5913   98.5828 C   0  0  0  0  0
  128.3528  116.1892   99.6023 C   0  0  0  0  0
  130.6449  119.6391  100.2434 C   0  0  0  0  0
  131.4928  120.7425  100.3526 C   0  0  0  0  0
  132.6191  120.8672   99.5213 C   0  0  0  0  0
  133.4571  121.9476   99.6193 N   0  0  0  0  0
  136.4626  120.3000   96.0564 N   0  0  0  0  0
  136.8209  122.2751   97.2329 O   0  0  0  0  0
  134.2626  119.0546   96.9013 O   0  0  0  0  0
  128.9394  117.3120   99.9400 O   0  0  0  0  0
  1  2  1  0  0  0
  2  3  1  0  0  0
  3  4  1  0  0  0
  4  5  1  0  0  0
  5 30  1  0  0  0
  7  8  1  0  0  0
  7 19  1  0  0  0
  8 31  1  0  0  0
  9 31  1  0  0  0
  9 10  1  0  0  0
 10 11  1  0  0  0
 10 12  1  0  0  0
 13 10  1  0  0  0
 13 14  1  0  0  0
 14 15  1  0  0  0
 15 16  1  0  0  0
 16 17  1  0  0  0
 16 18  1  0  0  0
 16  9  1  0  0  0
 18 13  1  0  0  0
 19 20  1  0  0  0
 21 22  1  0  0  0
 22 23  1  0  0  0
 23 34  1  0  0  0
 24 25  1  0  0  0
 26 34  1  0  0  0
 27 28  1  0  0  0
 29 30  1  0  0  0
 29 20  1  0  0  0
 30  6  1  0  0  0
  6  7  2  0  0  0
  8 32  2  0  0  0
 19 33  2  0  0  0
 20 21  2  0  0  0
 22 27  2  0  0  0
 23 24  2  0  0  0
 25 26  2  0  0  0
 28 29  2  0  0  0
M  END
> <rmsd>
0.596827209

$$$$
CHEMBL3353836_6PT0


 32 36  0  0  0  0  0  0  0  0999 V2000
  130.3133  118.6286   98.9739 C   0  0  0  0  0
  130.5406  118.7018  100.3519 C   0  0  0  0  0
  131.7536  119.2029  100.8348 C   0  0  0  0  0
  132.7413  119.6320   99.9403 C   0  0  0  0  0
  132.5122  119.5570   98.5616 C   0  0  0  0  0
  131.2992  119.0561   98.0788 C   0  0  0  0  0
  134.1060  122.8622   99.5730 C   0  0  0  0  0
  132.9972  123.2736  100.3125 C   0  0  0  0  0
  132.5259  124.5839  100.1093 C   0  0  0  0  0
  133.1577  125.4449   99.1838 C   0  0  0  0  0
  134.2724  125.0121   98.4428 C   0  0  0  0  0
  134.7175  123.7134   98.6665 C   0  0  0  0  0
  135.7406  122.9838   98.1162 C   0  0  0  0  0
  135.7127  121.7488   98.6921 C   0  0  0  0  0
  137.5199  121.1009   97.3753 C   0  0  0  0  0
  139.9003  120.3947   98.1371 C   0  0  0  0  0
  141.1646  119.6031   98.0289 C   0  0  0  0  0
  141.1453  118.2393   98.3490 C   0  0  0  0  0
  142.3147  117.4786   98.2708 C   0  0  0  0  0
  143.5126  118.0781   97.8755 C   0  0  0  0  0
  143.5422  119.4389   97.5598 C   0  0  0  0  0
  142.3758  120.2077   97.6366 C   0  0  0  0  0
  142.4459  121.6075   97.3026 C   0  0  0  0  0
  134.2638  120.2641  100.5384 S   0  0  0  0  0
  138.7138  119.8772   96.8601 S   0  0  0  0  0
  135.3204  119.1996  100.4351 O   0  0  0  0  0
  134.1253  120.6752  101.9783 O   0  0  0  0  0
  134.7157  121.6504   99.5981 N   0  0  0  0  0
  136.5940  120.7875   98.3313 N   0  0  0  0  0
  137.5316  122.3513   96.8060 N   0  0  0  0  0
  136.6493  123.2931   97.1664 N   0  0  0  0  0
  142.5015  122.7318   97.0343 N   0  0  0  0  0
  2  3  1  0  0  0
  4  5  1  0  0  0
  6  1  1  0  0  0
  8  9  1  0  0  0
 10 11  1  0  0  0
 12 13  1  0  0  0
 12  7  1  0  0  0
 13 31  1  0  0  0
 14 29  1  0  0  0
 14 28  1  0  0  0
 15 30  1  0  0  0
 15 25  1  0  0  0
 16 25  1  0  0  0
 16 17  1  0  0  0
 18 19  1  0  0  0
 20 21  1  0  0  0
 22 23  1  0  0  0
 22 17  1  0  0  0
 24  4  1  0  0  0
 24 28  1  0  0  0
 28  7  1  0  0  0
  1  2  2  0  0  0
  3  4  2  0  0  0
  5  6  2  0  0  0
  7  8  2  0  0  0
  9 10  2  0  0  0
 11 12  2  0  0  0
 13 14  2  0  0  0
 15 29  2  0  0  0
 17 18  2  0  0  0
 19 20  2  0  0  0
 21 22  2  0  0  0
 24 26  2  0  0  0
 24 27  2  0  0  0
 30 31  2  0  0  0
 23 32  3  0  0  0
M  END
> <rmsd>
0.540742695

$$$$
CHEMBL2381807_5ZTY


 26 28  0  0  0  0  0  0  0  0999 V2000
  131.9599  123.3357   98.5102 C   0  0  0  0  0
  131.5812  123.8077   99.9110 C   0  0  0  0  0
  132.7731  124.4204  100.6305 C   0  0  0  0  0
  133.1055  125.7801  100.0457 C   0  0  0  0  0
  134.3110  126.3540  100.7589 C   0  0  0  0  0
  134.1669  122.3713   98.1615 C   0  0  0  0  0
  135.0929  121.3058   98.1859 C   0  0  0  0  0
  134.6341  120.0467   98.6388 C   0  0  0  0  0
  132.4817  120.9669   98.9858 C   0  0  0  0  0
  131.2285  120.5720   99.4206 C   0  0  0  0  0
  131.4465  119.2220   99.7002 C   0  0  0  0  0
  130.4192  118.2947  100.2479 C   0  0  0  0  0
  130.4941  118.2769  101.7617 C   0  0  0  0  0
  136.4846  121.5508   97.7393 C   0  0  0  0  0
  138.8277  120.6807   97.2973 C   0  0  0  0  0
  138.8698  120.7837   95.7682 C   0  0  0  0  0
  138.4911  119.4568   95.1114 C   0  0  0  0  0
  139.4181  118.3468   95.5951 C   0  0  0  0  0
  139.3239  118.2106   97.1111 C   0  0  0  0  0
  139.7085  119.5277   97.7847 C   0  0  0  0  0
  132.8757  122.2011   98.5679 N   0  0  0  0  0
  133.3364  119.9386   99.0185 N   0  0  0  0  0
  132.7255  118.8556   99.4588 N   0  0  0  0  0
  137.4591  120.5034   97.7683 N   0  0  0  0  0
  135.3942  119.0421   98.6913 O   0  0  0  0  0
  136.8159  122.6983   97.3319 O   0  0  0  0  0
  1  2  1  0  0  0
  1 21  1  0  0  0
  2  3  1  0  0  0
  3  4  1  0  0  0
  4  5  1  0  0  0
  7  8  1  0  0  0
  7 14  1  0  0  0
  8 22  1  0  0  0
  9 21  1  0  0  0
 10 11  1  0  0  0
 12 11  1  0  0  0
 12 13  1  0  0  0
 14 24  1  0  0  0
 15 24  1  0  0  0
 15 16  1  0  0  0
 16 17  1  0  0  0
 17 18  1  0  0  0
 18 19  1  0  0  0
 19 20  1  0  0  0
 20 15  1  0  0  0
 21  6  1  0  0  0
 22  9  1  0  0  0
 22 23  1  0  0  0
  6  7  2  0  0  0
  8 25  2  0  0  0
  9 10  2  0  0  0
 11 23  2  0  0  0
 14 26  2  0  0  0
M  END
> <rmsd>
0.62037605

$$$$
CHEMBL3354947_8GUQ


 29 33  0  0  0  0  0  0  0  0999 V2000
  138.7885  118.8901   96.1920 C   0  0  0  0  0
  138.5250  120.3749   96.3661 C   0  0  0  0  0
  139.5179  120.8911   97.4040 C   0  0  0  0  0
  136.5536  121.8040   97.1785 C   0  0  0  0  0
  135.1721  121.8384   97.6718 C   0  0  0  0  0
  133.3298  122.4728   98.6319 C   0  0  0  0  0
  134.4708  122.9453   98.1029 C   0  0  0  0  0
  134.9030  124.2117   98.7239 C   0  0  0  0  0
  133.8434  124.4492   99.8280 C   0  0  0  0  0
  132.7990  123.3189   99.7314 C   0  0  0  0  0
  132.4711  124.7182   99.2337 C   0  0  0  0  0
  132.3293  120.2238   99.0758 C   0  0  0  0  0
  131.1001  120.7245   99.5365 C   0  0  0  0  0
  130.1263  119.8673  100.0534 C   0  0  0  0  0
  130.3677  118.4944  100.1139 C   0  0  0  0  0
  131.5821  117.9795   99.6572 C   0  0  0  0  0
  132.5611  118.8326   99.1380 C   0  0  0  0  0
  138.6713  121.0619   95.0200 C   0  0  0  0  0
  139.6799  122.0090   94.7779 C   0  0  0  0  0
  139.7749  122.6181   93.5252 C   0  0  0  0  0
  137.9069  121.3829   92.7432 C   0  0  0  0  0
  137.7790  120.7516   93.9820 C   0  0  0  0  0
  137.1642  120.5430   96.8752 N   0  0  0  0  0
  134.4327  120.7359   97.9261 N   0  0  0  0  0
  133.3159  121.1253   98.5328 N   0  0  0  0  0
  138.8938  122.2957   92.5415 N   0  0  0  0  0
  137.1929  122.8787   97.0179 O   0  0  0  0  0
  133.7293  118.2933   98.7108 F   0  0  0  0  0
  129.4243  117.6619  100.6153 F   0  0  0  0  0
  1  2  1  0  0  0
  2  3  1  0  0  0
  2 23  1  0  0  0
  2 18  1  0  0  0
  4  5  1  0  0  0
  7  5  1  0  0  0
  8  7  1  0  0  0
  9  8  1  0  0  0
  9 10  1  0  0  0
 10 11  1  0  0  0
 10  6  1  0  0  0
 11  9  1  0  0  0
 13 14  1  0  0  0
 15 16  1  0  0  0
 15 29  1  0  0  0
 17 28  1  0  0  0
 17 12  1  0  0  0
 19 20  1  0  0  0
 21 26  1  0  0  0
 22 18  1  0  0  0
 23  4  1  0  0  0
 25 24  1  0  0  0
 25  6  1  0  0  0
 25 12  1  0  0  0
  4 27  2  0  0  0
  5 24  2  0  0  0
  6  7  2  0  0  0
 12 13  2  0  0  0
 14 15  2  0  0  0
 16 17  2  0  0  0
 18 19  2  0  0  0
 20 26  2  0  0  0
 21 22  2  0  0  0
M  END
> <rmsd>
0.406207353

$$$$
CHEMBL3354955_8GUQ


 27 31  0  0  0  0  0  0  0  0999 V2000
  139.9052  119.7719   97.7211 C   0  0  0  0  0
  139.7959  118.7145   96.6499 C   0  0  0  0  0
  138.5637  119.0762   95.8461 C   0  0  0  0  0
  138.2940  120.5555   96.0856 C   0  0  0  0  0
  139.3313  121.0224   97.0959 C   0  0  0  0  0
  138.4549  121.3377   94.7843 C   0  0  0  0  0
  136.3621  121.9641   97.0180 C   0  0  0  0  0
  134.9962  121.9889   97.5543 C   0  0  0  0  0
  133.1997  122.5904   98.6211 C   0  0  0  0  0
  134.3280  123.0794   98.0742 C   0  0  0  0  0
  134.8208  124.2821   98.7732 C   0  0  0  0  0
  133.8317  124.4461   99.9516 C   0  0  0  0  0
  132.7561  123.3506   99.8187 C   0  0  0  0  0
  132.4362  124.7937   99.4609 C   0  0  0  0  0
  132.2245  120.3211   99.0018 C   0  0  0  0  0
  130.8765  120.6702   99.2246 C   0  0  0  0  0
  129.9921  119.7360   99.7725 C   0  0  0  0  0
  130.4358  118.4524  100.0978 C   0  0  0  0  0
  131.7639  118.0929   99.8627 C   0  0  0  0  0
  132.6519  119.0216   99.3144 C   0  0  0  0  0
  137.5031  120.9379   93.8434 O   0  0  0  0  0
  137.0117  123.0379   96.8965 O   0  0  0  0  0
  136.9463  120.7140   96.6310 N   0  0  0  0  0
  134.2530  120.8823   97.7758 N   0  0  0  0  0
  133.1602  121.2537   98.4338 N   0  0  0  0  0
  129.5744  117.5526  100.6298 F   0  0  0  0  0
  130.4013  121.8902   98.8734 F   0  0  0  0  0
  1  2  1  0  0  0
  2  3  1  0  0  0
  3  4  1  0  0  0
  4  5  1  0  0  0
  4  6  1  0  0  0
  4 23  1  0  0  0
  5  1  1  0  0  0
  6 21  1  0  0  0
  7  8  1  0  0  0
 10  8  1  0  0  0
 11 10  1  0  0  0
 12 11  1  0  0  0
 12 13  1  0  0  0
 13 14  1  0  0  0
 13  9  1  0  0  0
 14 12  1  0  0  0
 16 17  1  0  0  0
 16 27  1  0  0  0
 18 19  1  0  0  0
 18 26  1  0  0  0
 20 15  1  0  0  0
 23  7  1  0  0  0
 25 24  1  0  0  0
 25  9  1  0  0  0
 25 15  1  0  0  0
  7 22  2  0  0  0
  8 24  2  0  0  0
  9 10  2  0  0  0
 15 16  2  0  0  0
 17 18  2  0  0  0
 19 20  2  0  0  0
M  END
> <rmsd>
0.274628609

$$$$
CHEMBL3354964_8GUQ


 25 29  0  0  0  0  0  0  0  0999 V2000
  139.1832  119.2214   96.4522 C   0  0  0  0  0
  139.5739  120.6553   96.8021 C   0  0  0  0  0
  138.2686  120.3680   96.0983 C   0  0  0  0  0
  138.1746  120.7534   94.6332 C   0  0  0  0  0
  136.6312  121.7087   97.4999 C   0  0  0  0  0
  135.4322  121.7254   98.3462 C   0  0  0  0  0
  133.6698  122.3885   99.4324 C   0  0  0  0  0
  134.8242  122.8317   98.9054 C   0  0  0  0  0
  134.7393  124.2351   98.4565 C   0  0  0  0  0
  133.2613  124.6115   98.7234 C   0  0  0  0  0
  132.5824  123.4010   99.3940 C   0  0  0  0  0
  132.9482  124.6303  100.2103 C   0  0  0  0  0
  132.4229  120.2231   99.4654 C   0  0  0  0  0
  131.5559  120.4574  100.5528 C   0  0  0  0  0
  130.4568  119.6189  100.7662 C   0  0  0  0  0
  130.2142  118.5435   99.9093 C   0  0  0  0  0
  131.0789  118.2924   98.8426 C   0  0  0  0  0
  132.1786  119.1261   98.6243 C   0  0  0  0  0
  137.2788  119.9082   93.9780 O   0  0  0  0  0
  137.2637  122.7768   97.2781 O   0  0  0  0  0
  137.0800  120.4733   96.9345 N   0  0  0  0  0
  134.6469  120.6471   98.5645 N   0  0  0  0  0
  133.5675  121.0589   99.2210 N   0  0  0  0  0
  129.1511  117.7332  100.1249 F   0  0  0  0  0
  131.7929  121.4594  101.4354 F   0  0  0  0  0
  1  2  1  0  0  0
  2  3  1  0  0  0
  3  4  1  0  0  0
  3 21  1  0  0  0
  3  1  1  0  0  0
  4 19  1  0  0  0
  5  6  1  0  0  0
  8  6  1  0  0  0
  9  8  1  0  0  0
 10  9  1  0  0  0
 10 11  1  0  0  0
 11 12  1  0  0  0
 11  7  1  0  0  0
 12 10  1  0  0  0
 14 15  1  0  0  0
 14 25  1  0  0  0
 16 17  1  0  0  0
 16 24  1  0  0  0
 18 13  1  0  0  0
 21  5  1  0  0  0
 23 22  1  0  0  0
 23  7  1  0  0  0
 23 13  1  0  0  0
  5 20  2  0  0  0
  6 22  2  0  0  0
  7  8  2  0  0  0
 13 14  2  0  0  0
 15 16  2  0  0  0
 17 18  2  0  0  0
M  END
> <rmsd>
0.464971662

$$$$
CHEMBL3921132_5ZTY


 26 29  0  0  0  0  0  0  0  0999 V2000
  133.2991  121.4123   99.0169 N   0  0  0  0  0
  137.1846  120.4879   97.2357 N   0  0  0  0  0
  134.4250  120.8869   98.4828 C   0  0  0  0  0
  135.3114  121.9038   98.1590 C   0  0  0  0  0
  134.7110  123.1044   98.4995 C   0  0  0  0  0
  133.4813  122.7544   99.0255 C   0  0  0  0  0
  132.4735  123.7548   99.4822 C   0  0  0  0  0
  136.6561  121.7805   97.5654 C   0  0  0  0  0
  138.4655  120.2022   96.6578 C   0  0  0  0  0
  139.3804  121.2185   96.3411 C   0  0  0  0  0
  140.6196  120.9027   95.7791 C   0  0  0  0  0
  141.5295  121.9157   95.4642 C   0  0  0  0  0
  142.7682  121.5912   94.9017 C   0  0  0  0  0
  143.0995  120.2547   94.6531 C   0  0  0  0  0
  142.1937  119.2358   94.9657 C   0  0  0  0  0
  140.9540  119.5528   95.5280 C   0  0  0  0  0
  140.0437  118.5418   95.8432 C   0  0  0  0  0
  138.8056  118.8676   96.4056 C   0  0  0  0  0
  134.6902  119.4227   98.3339 C   0  0  0  0  0
  132.1388  120.6911   99.4842 C   0  0  0  0  0
  131.7174  119.5187   98.8364 C   0  0  0  0  0
  130.5939  118.8207   99.2883 C   0  0  0  0  0
  129.8791  119.2884  100.3934 C   0  0  0  0  0
  130.2877  120.4537  101.0463 C   0  0  0  0  0
  131.4114  121.1508  100.5938 C   0  0  0  0  0
  137.3316  122.8230   97.3507 O   0  0  0  0  0
  1  3  1  0  0  0
  1 20  1  0  0  0
  2  9  1  0  0  0
  4  5  1  0  0  0
  4  8  1  0  0  0
  6  1  1  0  0  0
  7  6  1  0  0  0
  8  2  1  0  0  0
 10 11  1  0  0  0
 12 13  1  0  0  0
 14 15  1  0  0  0
 16 17  1  0  0  0
 16 11  1  0  0  0
 18  9  1  0  0  0
 19  3  1  0  0  0
 21 22  1  0  0  0
 23 24  1  0  0  0
 25 20  1  0  0  0
  3  4  2  0  0  0
  5  6  2  0  0  0
  8 26  2  0  0  0
  9 10  2  0  0  0
 11 12  2  0  0  0
 13 14  2  0  0  0
 15 16  2  0  0  0
 17 18  2  0  0  0
 20 21  2  0  0  0
 22 23  2  0  0  0
 24 25  2  0  0  0
M  END
> <rmsd>
0.814843953

$$$$
CHEMBL3941942_6KPF


 30 33  0  0  0  0  0  0  0  0999 V2000
  138.5396  119.8294   96.5489 C   0  0  0  0  0
  137.6702  120.9829   96.9006 C   0  0  0  0  0
  136.0185  122.1925   97.2931 C   0  0  0  0  0
  134.6081  122.7112   97.3928 C   0  0  0  0  0
  134.2078  123.2417   96.0261 C   0  0  0  0  0
  134.5326  123.8477   98.4220 C   0  0  0  0  0
  133.1135  124.3553   98.6334 C   0  0  0  0  0
  133.1715  125.6973   99.3327 C   0  0  0  0  0
  132.8414  124.4502  100.1221 C   0  0  0  0  0
  133.7510  120.8819   98.9831 C   0  0  0  0  0
  132.7616  119.8240   99.2354 C   0  0  0  0  0
  130.8598  118.6023   98.5099 C   0  0  0  0  0
  130.8426  117.8466   99.6922 C   0  0  0  0  0
  131.8661  118.0682  100.6495 C   0  0  0  0  0
  132.8041  119.0769  100.4169 C   0  0  0  0  0
  131.5562  115.9957  102.0072 C   0  0  0  0  0
  131.7781  115.5487  103.4403 C   0  0  0  0  0
  129.7541  116.8247   99.8880 C   0  0  0  0  0
  128.3860  117.3736   99.5074 C   0  0  0  0  0
  128.7886  117.3067  100.9602 C   0  0  0  0  0
  136.3258  120.9359   96.9031 N   0  0  0  0  0
  137.1165  122.9539   97.4842 N   0  0  0  0  0
  133.6944  121.6266   97.7589 N   0  0  0  0  0
  131.8025  119.5593   98.3097 N   0  0  0  0  0
  138.1174  122.1643   97.2411 O   0  0  0  0  0
  134.6424  121.1334   99.8393 O   0  0  0  0  0
  131.9997  117.3364  101.8384 O   0  0  0  0  0
  131.0345  116.3403  104.2962 F   0  0  0  0  0
  133.1184  115.6523  103.7629 F   0  0  0  0  0
  131.3778  114.2334  103.5738 F   0  0  0  0  0
  1  2  1  0  0  0
  2 25  1  0  0  0
  3 21  1  0  0  0
  4  3  1  0  0  0
  4  5  1  0  0  0
  4  6  1  0  0  0
  4 23  1  0  0  0
  6  7  1  0  0  0
  7  8  1  0  0  0
  8  9  1  0  0  0
  9  7  1  0  0  0
 10 11  1  0  0  0
 12 24  1  0  0  0
 13 14  1  0  0  0
 14 27  1  0  0  0
 15 11  1  0  0  0
 16 27  1  0  0  0
 16 17  1  0  0  0
 17 28  1  0  0  0
 17 29  1  0  0  0
 17 30  1  0  0  0
 18 13  1  0  0  0
 18 19  1  0  0  0
 19 20  1  0  0  0
 20 18  1  0  0  0
 22 25  1  0  0  0
 23 10  1  0  0  0
  2 21  2  0  0  0
  3 22  2  0  0  0
 10 26  2  0  0  0
 11 24  2  0  0  0
 12 13  2  0  0  0
 14 15  2  0  0  0
M  END
> <rmsd>
0.573617339

$$$$
CHEMBL575395_5ZTY


 29 32  0  0  0  0  0  0  0  0999 V2000
  133.1932  121.0805   98.2715 N   0  0  0  0  0
  134.3944  120.7048   97.8527 N   0  0  0  0  0
  131.8838  123.1820   98.3540 N   0  0  0  0  0
  137.1017  120.5103   96.7810 N   0  0  0  0  0
  135.0583  121.8039   97.4361 C   0  0  0  0  0
  134.2512  122.9189   97.5981 C   0  0  0  0  0
  133.0800  122.4212   98.1270 C   0  0  0  0  0
  130.7192  123.0745   97.6883 C   0  0  0  0  0
  129.8004  123.9972   98.1515 C   0  0  0  0  0
  130.4459  124.7103   99.1545 C   0  0  0  0  0
  131.7206  124.1827   99.2377 C   0  0  0  0  0
  132.7617  124.6424  100.2006 C   0  0  0  0  0
  130.4622  122.1152   96.5764 C   0  0  0  0  0
  134.5361  124.3298   97.2093 C   0  0  0  0  0
  136.4227  121.7642   96.8885 C   0  0  0  0  0
  138.4618  120.3930   96.2766 C   0  0  0  0  0
  139.4498  120.8762   97.3228 C   0  0  0  0  0
  140.5893  119.8855   97.2988 C   0  0  0  0  0
  139.9582  118.5726   96.9000 C   0  0  0  0  0
  138.7846  118.9329   96.0111 C   0  0  0  0  0
  132.2356  120.1612   98.8272 C   0  0  0  0  0
  131.1777  120.6124   99.6300 C   0  0  0  0  0
  130.2617  119.7128  100.1808 C   0  0  0  0  0
  130.4051  118.3368   99.9380 C   0  0  0  0  0
  131.4651  117.8794   99.1507 C   0  0  0  0  0
  132.3761  118.7848   98.6012 C   0  0  0  0  0
  136.9906  122.8260   96.5146 O   0  0  0  0  0
  129.2824  117.1637  100.6061 Cl  0  0  0  0  0
  128.9525  120.3433  101.1656 Cl  0  0  0  0  0
  1  2  1  0  0  0
  1 21  1  0  0  0
  3  8  1  0  0  0
  5  6  1  0  0  0
  5 15  1  0  0  0
  7  3  1  0  0  0
  7  1  1  0  0  0
  9 10  1  0  0  0
 11  3  1  0  0  0
 12 11  1  0  0  0
 13  8  1  0  0  0
 14  6  1  0  0  0
 15  4  1  0  0  0
 16  4  1  0  0  0
 16 17  1  0  0  0
 17 18  1  0  0  0
 18 19  1  0  0  0
 19 20  1  0  0  0
 20 16  1  0  0  0
 22 23  1  0  0  0
 23 29  1  0  0  0
 24 25  1  0  0  0
 24 28  1  0  0  0
 26 21  1  0  0  0
  5  2  2  0  0  0
  6  7  2  0  0  0
  8  9  2  0  0  0
 10 11  2  0  0  0
 15 27  2  0  0  0
 21 22  2  0  0  0
 23 24  2  0  0  0
 25 26  2  0  0  0
M  END
> <rmsd>
0.51927346

$$$$
CHEMBL1215976_5ZTY


 31 35  0  0  0  0  0  0  0  0999 V2000
  132.9492  126.8974  100.5868 C   0  0  0  0  0
  133.7213  125.6996  100.0671 C   0  0  0  0  0
  133.1899  124.4159  100.6863 C   0  0  0  0  0
  131.8465  124.0219  100.0843 C   0  0  0  0  0
  132.0048  123.5143   98.6539 C   0  0  0  0  0
  133.9729  122.2301   98.1408 C   0  0  0  0  0
  134.7314  121.0561   98.0606 C   0  0  0  0  0
  136.1143  121.1438   97.5279 C   0  0  0  0  0
  138.3055  119.9585   96.9103 C   0  0  0  0  0
  138.8383  118.5163   96.9560 C   0  0  0  0  0
  140.2809  118.4660   96.4259 C   0  0  0  0  0
  141.1713  119.3692   97.2943 C   0  0  0  0  0
  140.6529  120.8155   97.2506 C   0  0  0  0  0
  140.6699  121.3170   95.7971 C   0  0  0  0  0
  139.7821  120.4200   94.9186 C   0  0  0  0  0
  140.3057  118.9761   94.9760 C   0  0  0  0  0
  138.3413  120.4548   95.4518 C   0  0  0  0  0
  139.2113  120.8500   97.7820 C   0  0  0  0  0
  134.1452  119.8472   98.4902 C   0  0  0  0  0
  132.8275  119.8479   98.9755 C   0  0  0  0  0
  132.2159  118.6571   99.3971 C   0  0  0  0  0
  130.9021  118.6635   99.8723 C   0  0  0  0  0
  130.2585  117.3908  100.3007 C   0  0  0  0  0
  129.5734  116.7278   99.1207 C   0  0  0  0  0
  130.1841  119.8604   99.9188 C   0  0  0  0  0
  130.7813  121.0519   99.5036 C   0  0  0  0  0
  132.1064  121.0649   99.0329 C   0  0  0  0  0
  132.7024  122.2298   98.6246 N   0  0  0  0  0
  136.9372  119.9737   97.4188 N   0  0  0  0  0
  136.5710  122.2635   97.1668 O   0  0  0  0  0
  134.7916  118.7643   98.4400 O   0  0  0  0  0
  1  2  1  0  0  0
  2  3  1  0  0  0
  3  4  1  0  0  0
  4  5  1  0  0  0
  5 28  1  0  0  0
  7  8  1  0  0  0
  7 19  1  0  0  0
  8 29  1  0  0  0
  9 29  1  0  0  0
  9 10  1  0  0  0
 11 10  1  0  0  0
 11 12  1  0  0  0
 13 12  1  0  0  0
 13 14  1  0  0  0
 13 18  1  0  0  0
 15 14  1  0  0  0
 15 16  1  0  0  0
 15 17  1  0  0  0
 16 11  1  0  0  0
 17  9  1  0  0  0
 18  9  1  0  0  0
 19 20  1  0  0  0
 21 22  1  0  0  0
 23 22  1  0  0  0
 23 24  1  0  0  0
 25 26  1  0  0  0
 27 28  1  0  0  0
 27 20  1  0  0  0
 28  6  1  0  0  0
  6  7  2  0  0  0
  8 30  2  0  0  0
 19 31  2  0  0  0
 20 21  2  0  0  0
 22 25  2  0  0  0
 26 27  2  0  0  0
M  END
> <rmsd>
0.687219501

$$$$
CHEMBL3953330_5ZTY


 27 30  0  0  0  0  0  0  0  0999 V2000
  133.2910  121.4139   98.9998 N   0  0  0  0  0
  137.1846  120.4863   97.2401 N   0  0  0  0  0
  134.4216  120.8857   98.4772 C   0  0  0  0  0
  135.3029  121.9046   98.1411 C   0  0  0  0  0
  134.7004  123.1056   98.4759 C   0  0  0  0  0
  133.4672  122.7565   98.9942 C   0  0  0  0  0
  132.4944  123.7522   99.5306 C   0  0  0  0  0
  136.6427  121.7813   97.5363 C   0  0  0  0  0
  138.4729  120.1978   96.6797 C   0  0  0  0  0
  138.8157  118.8621   96.4405 C   0  0  0  0  0
  140.0613  118.5383   95.8965 C   0  0  0  0  0
  140.3998  117.2036   95.6560 C   0  0  0  0  0
  141.6476  116.8875   95.1088 C   0  0  0  0  0
  142.5584  117.9039   94.8004 C   0  0  0  0  0
  142.2263  119.2418   95.0381 C   0  0  0  0  0
  140.9812  119.5651   95.5848 C   0  0  0  0  0
  140.6419  120.8985   95.8255 C   0  0  0  0  0
  139.3935  121.2127   96.3706 C   0  0  0  0  0
  134.6287  119.4282   98.2006 C   0  0  0  0  0
  134.0368  119.0674   96.8519 C   0  0  0  0  0
  132.1298  120.6932   99.4645 C   0  0  0  0  0
  132.2688  119.4464  100.0955 C   0  0  0  0  0
  131.1451  118.7475  100.5451 C   0  0  0  0  0
  129.8694  119.2893  100.3692 C   0  0  0  0  0
  129.7178  120.5289   99.7432 C   0  0  0  0  0
  130.8423  121.2266   99.2933 C   0  0  0  0  0
  137.3029  122.8255   97.2849 O   0  0  0  0  0
  1  3  1  0  0  0
  1 21  1  0  0  0
  2  9  1  0  0  0
  4  5  1  0  0  0
  4  8  1  0  0  0
  6  1  1  0  0  0
  7  6  1  0  0  0
  8  2  1  0  0  0
 10 11  1  0  0  0
 12 13  1  0  0  0
 14 15  1  0  0  0
 16 17  1  0  0  0
 16 11  1  0  0  0
 18  9  1  0  0  0
 19  3  1  0  0  0
 19 20  1  0  0  0
 22 23  1  0  0  0
 24 25  1  0  0  0
 26 21  1  0  0  0
  3  4  2  0  0  0
  5  6  2  0  0  0
  8 27  2  0  0  0
  9 10  2  0  0  0
 11 12  2  0  0  0
 13 14  2  0  0  0
 15 16  2  0  0  0
 17 18  2  0  0  0
 21 22  2  0  0  0
 23 24  2  0  0  0
 25 26  2  0  0  0
M  END
> <rmsd>
0.797457516

$$$$
CHEMBL3354400_6PT0


 32 36  0  0  0  0  0  0  0  0999 V2000
  142.3061  117.3466   98.5294 C   0  0  0  0  0
  143.4557  117.9013   97.9620 C   0  0  0  0  0
  143.4322  119.2102   97.4733 C   0  0  0  0  0
  142.2613  119.9719   97.5502 C   0  0  0  0  0
  141.1023  119.4146   98.1279 C   0  0  0  0  0
  141.1328  118.1009   98.6101 C   0  0  0  0  0
  139.8231  120.1812   98.2146 C   0  0  0  0  0
  137.5967  121.0911   97.2360 C   0  0  0  0  0
  135.6119  121.5760   98.3543 C   0  0  0  0  0
  135.7421  122.8870   98.0068 C   0  0  0  0  0
  134.6799  123.5598   98.5515 C   0  0  0  0  0
  134.3377  124.9081   98.5552 C   0  0  0  0  0
  133.1862  125.2768   99.2729 C   0  0  0  0  0
  132.4270  124.3088   99.9667 C   0  0  0  0  0
  132.8017  122.9529   99.9502 C   0  0  0  0  0
  133.9347  122.5971   99.2154 C   0  0  0  0  0
  134.0760  120.1198   99.6755 C   0  0  0  0  0
  132.6607  119.6968   99.6592 C   0  0  0  0  0
  132.2202  118.6822  100.5222 C   0  0  0  0  0
  130.8884  118.2581  100.4947 C   0  0  0  0  0
  129.9882  118.8405   99.5986 C   0  0  0  0  0
  130.4208  119.8420   98.7259 C   0  0  0  0  0
  131.7526  120.2653   98.7536 C   0  0  0  0  0
  142.2741  121.3169   97.0336 C   0  0  0  0  0
  138.8430  119.9277   96.7055 S   0  0  0  0  0
  136.5312  120.6574   97.9750 N   0  0  0  0  0
  134.4960  121.3630   99.0885 N   0  0  0  0  0
  136.7966  123.3188   97.2820 N   0  0  0  0  0
  137.7121  122.4183   96.9006 N   0  0  0  0  0
  142.2833  122.3971   96.6187 N   0  0  0  0  0
  134.9413  119.3601  100.1898 O   0  0  0  0  0
  128.6976  118.4302   99.5724 F   0  0  0  0  0
  2  3  1  0  0  0
  4  5  1  0  0  0
  4 24  1  0  0  0
  6  1  1  0  0  0
  7  5  1  0  0  0
  7 25  1  0  0  0
  8 25  1  0  0  0
  8 29  1  0  0  0
  9 26  1  0  0  0
 10 11  1  0  0  0
 10 28  1  0  0  0
 12 13  1  0  0  0
 14 15  1  0  0  0
 16 27  1  0  0  0
 16 11  1  0  0  0
 17 18  1  0  0  0
 19 20  1  0  0  0
 21 22  1  0  0  0
 21 32  1  0  0  0
 23 18  1  0  0  0
 27 17  1  0  0  0
 27  9  1  0  0  0
  1  2  2  0  0  0
  3  4  2  0  0  0
  5  6  2  0  0  0
  8 26  2  0  0  0
  9 10  2  0  0  0
 11 12  2  0  0  0
 13 14  2  0  0  0
 15 16  2  0  0  0
 17 31  2  0  0  0
 18 19  2  0  0  0
 20 21  2  0  0  0
 22 23  2  0  0  0
 28 29  2  0  0  0
 24 30  3  0  0  0
M  END
> <rmsd>
0.551858306

$$$$
CHEMBL219027_6PT0


 29 32  0  0  0  0  0  0  0  0999 V2000
  139.5699  118.6451   96.6678 C   0  0  0  0  0
  139.9207  119.7572   97.4332 C   0  0  0  0  0
  139.0450  120.8394   97.5403 C   0  0  0  0  0
  137.8020  120.8257   96.8929 C   0  0  0  0  0
  137.4510  119.7095   96.0963 C   0  0  0  0  0
  138.3461  118.6140   95.9976 C   0  0  0  0  0
  138.0159  117.5043   95.2144 C   0  0  0  0  0
  136.8076  117.4742   94.5145 C   0  0  0  0  0
  135.9270  118.5557   94.5900 C   0  0  0  0  0
  136.2482  119.6678   95.3724 C   0  0  0  0  0
  136.9208  122.0016   97.0582 C   0  0  0  0  0
  135.5254  121.8691   97.5163 C   0  0  0  0  0
  134.5964  122.8901   97.5458 C   0  0  0  0  0
  133.6445  121.0961   98.3494 C   0  0  0  0  0
  134.9418  120.7249   98.0342 C   0  0  0  0  0
  132.6393  120.1684   98.9262 C   0  0  0  0  0
  133.0266  118.8740   99.3099 C   0  0  0  0  0
  132.0949  117.9806   99.8458 C   0  0  0  0  0
  130.7633  118.3717  100.0015 C   0  0  0  0  0
  130.3637  119.6542   99.6195 C   0  0  0  0  0
  131.2972  120.5456   99.0836 C   0  0  0  0  0
  132.2568  123.2118   98.2731 C   0  0  0  0  0
  132.2298  123.7454   99.6976 C   0  0  0  0  0
  133.2512  124.8571   99.8693 C   0  0  0  0  0
  133.2372  125.3737  101.2966 C   0  0  0  0  0
  132.0217  126.2510  101.5309 C   0  0  0  0  0
  137.3910  123.1516   96.8445 O   0  0  0  0  0
  133.4490  122.4028   98.0486 N   0  0  0  0  0
  129.5954  117.2544  100.6729 Cl  0  0  0  0  0
  2  3  1  0  0  0
  4  5  1  0  0  0
  4 11  1  0  0  0
  6  7  1  0  0  0
  6  1  1  0  0  0
  8  9  1  0  0  0
 10  5  1  0  0  0
 11 12  1  0  0  0
 13 28  1  0  0  0
 14 16  1  0  0  0
 15 12  1  0  0  0
 17 18  1  0  0  0
 19 20  1  0  0  0
 19 29  1  0  0  0
 21 16  1  0  0  0
 22 28  1  0  0  0
 22 23  1  0  0  0
 23 24  1  0  0  0
 24 25  1  0  0  0
 25 26  1  0  0  0
 28 14  1  0  0  0
  1  2  2  0  0  0
  3  4  2  0  0  0
  5  6  2  0  0  0
  7  8  2  0  0  0
  9 10  2  0  0  0
 11 27  2  0  0  0
 12 13  2  0  0  0
 14 15  2  0  0  0
 16 17  2  0  0  0
 18 19  2  0  0  0
 20 21  2  0  0  0
M  END
> <rmsd>
0.424623162

$$$$
CHEMBL226591_8GUQ


 36 38  0  0  0  0  0  0  0  0999 V2000
  139.5043  116.5442   98.5520 C   0  0  0  0  0
  139.2827  117.7860   97.7657 C   0  0  0  0  0
  140.3681  118.5327   97.3055 C   0  0  0  0  0
  140.1472  119.6959   96.5625 C   0  0  0  0  0
  138.8377  120.0978   96.2888 C   0  0  0  0  0
  137.3655  121.8449   95.1985 C   0  0  0  0  0
  137.6141  122.8890   94.1208 C   0  0  0  0  0
  136.4184  120.8133   94.5994 C   0  0  0  0  0
  136.7394  122.4840   96.4185 C   0  0  0  0  0
  135.5589  122.1974   98.6417 C   0  0  0  0  0
  135.5774  121.1795   99.7682 C   0  0  0  0  0
  134.1378  122.6272   98.2429 C   0  0  0  0  0
  133.2875  121.5857   97.4977 C   0  0  0  0  0
  132.6868  120.5314   98.3703 C   0  0  0  0  0
  131.4089  120.7190   98.9065 C   0  0  0  0  0
  130.8205  119.7144   99.6789 C   0  0  0  0  0
  131.5008  118.5055   99.9090 C   0  0  0  0  0
  129.6523  117.5663  101.2755 C   0  0  0  0  0
  128.5727  117.3464  100.2304 C   0  0  0  0  0
  132.7632  118.3121   99.3428 C   0  0  0  0  0
  133.3507  119.3154   98.5672 C   0  0  0  0  0
  133.4092  123.4477   99.2660 C   0  0  0  0  0
  133.1069  122.9382  100.5381 C   0  0  0  0  0
  132.4377  123.7323  101.4725 C   0  0  0  0  0
  132.0629  125.0374  101.1408 C   0  0  0  0  0
  132.3561  125.5481   99.8740 C   0  0  0  0  0
  131.9573  126.8821   99.5323 C   0  0  0  0  0
  133.0314  124.7559   98.9393 C   0  0  0  0  0
  137.9873  118.2198   97.4812 C   0  0  0  0  0
  138.6320  121.2592   95.5276 O   0  0  0  0  0
  136.6296  123.7391   96.5031 O   0  0  0  0  0
  130.9433  117.4851  100.6855 O   0  0  0  0  0
  136.2706  121.6628   97.4912 N   0  0  0  0  0
  131.6306  127.9569   99.2591 N   0  0  0  0  0
  137.7942  119.3523   96.7538 N   0  0  0  0  0
  128.6747  116.0707   99.7038 F   0  0  0  0  0
  1  2  1  0  0  0
  3  4  1  0  0  0
  5 30  1  0  0  0
  5 35  1  0  0  0
  6 30  1  0  0  0
  6  7  1  0  0  0
  6  8  1  0  0  0
  6  9  1  0  0  0
  9 33  1  0  0  0
 10 33  1  0  0  0
 10 11  1  0  0  0
 10 12  1  0  0  0
 12 13  1  0  0  0
 12 22  1  0  0  0
 13 14  1  0  0  0
 15 16  1  0  0  0
 17 32  1  0  0  0
 17 20  1  0  0  0
 18 32  1  0  0  0
 18 19  1  0  0  0
 19 36  1  0  0  0
 21 14  1  0  0  0
 23 24  1  0  0  0
 25 26  1  0  0  0
 26 27  1  0  0  0
 28 22  1  0  0  0
 29  2  1  0  0  0
  2  3  2  0  0  0
  4  5  2  0  0  0
  9 31  2  0  0  0
 14 15  2  0  0  0
 16 17  2  0  0  0
 20 21  2  0  0  0
 22 23  2  0  0  0
 24 25  2  0  0  0
 26 28  2  0  0  0
 29 35  2  0  0  0
 27 34  3  0  0  0
M  END
> <rmsd>
0.729759276

$$$$
CHEMBL446993_5ZTY


 27 30  0  0  0  0  0  0  0  0999 V2000
  137.2449  123.0714   97.0308 O   0  0  0  0  0
  135.4544  120.4875   99.6950 O   0  0  0  0  0
  136.7649  122.2102   97.8188 C   0  0  0  0  0
  138.6186  120.5889   97.2186 C   0  0  0  0  0
  139.2682  119.3655   97.8598 C   0  0  0  0  0
  140.5136  118.9588   97.0767 C   0  0  0  0  0
  140.1478  118.6568   95.6259 C   0  0  0  0  0
  139.4959  119.8776   94.9821 C   0  0  0  0  0
  138.2510  120.2833   95.7660 C   0  0  0  0  0
  135.5271  122.5211   98.5785 C   0  0  0  0  0
  134.9239  123.7669   98.3826 C   0  0  0  0  0
  133.7661  124.1059   99.0684 C   0  0  0  0  0
  133.1652  125.3500   98.8772 C   0  0  0  0  0
  132.0031  125.6720   99.5790 C   0  0  0  0  0
  131.4592  124.7397  100.4651 C   0  0  0  0  0
  133.1939  123.1849   99.9656 C   0  0  0  0  0
  133.1616  120.9998  101.0746 C   0  0  0  0  0
  132.1900  120.1274  100.3495 C   0  0  0  0  0
  130.8504  120.5150  100.2335 C   0  0  0  0  0
  129.9454  119.7090   99.5363 C   0  0  0  0  0
  130.3793  118.5157   98.9509 C   0  0  0  0  0
  131.7185  118.1291   99.0616 C   0  0  0  0  0
  132.6235  118.9351   99.7588 C   0  0  0  0  0
  134.9289  121.6169   99.4891 C   0  0  0  0  0
  137.4243  120.9486   97.9677 N   0  0  0  0  0
  132.0583  123.5307  100.6389 N   0  0  0  0  0
  133.7784  121.9606  100.1553 N   0  0  0  0  0
  3 25  1  0  0  0
  3 10  1  0  0  0
  4 25  1  0  0  0
  4  5  1  0  0  0
  5  6  1  0  0  0
  6  7  1  0  0  0
  7  8  1  0  0  0
  8  9  1  0  0  0
  9  4  1  0  0  0
 11 12  1  0  0  0
 13 14  1  0  0  0
 15 26  1  0  0  0
 16 27  1  0  0  0
 16 12  1  0  0  0
 17 27  1  0  0  0
 17 18  1  0  0  0
 19 20  1  0  0  0
 21 22  1  0  0  0
 23 18  1  0  0  0
 24 10  1  0  0  0
 27 24  1  0  0  0
  3  1  2  0  0  0
 10 11  2  0  0  0
 12 13  2  0  0  0
 14 15  2  0  0  0
 16 26  2  0  0  0
 18 19  2  0  0  0
 20 21  2  0  0  0
 22 23  2  0  0  0
 24  2  2  0  0  0
M  END
> <rmsd>
0.324401557

$$$$
CHEMBL1760943_6PT0


 29 32  0  0  0  0  0  0  0  0999 V2000
  139.4007  118.8871   97.5523 C   0  0  0  0  0
  139.6327  120.5041   95.8120 C   0  0  0  0  0
  138.5063  121.1532   96.3113 C   0  0  0  0  0
  138.2658  119.5520   98.0392 C   0  0  0  0  0
  136.8273  121.5068   97.6043 C   0  0  0  0  0
  137.8456  122.2895   95.8855 C   0  0  0  0  0
  139.4353  122.9512   94.0366 C   0  0  0  0  0
  139.2588  123.4088   92.5890 C   0  0  0  0  0
  137.4058  124.6207   92.9910 C   0  0  0  0  0
  137.3628  124.3062   94.4864 C   0  0  0  0  0
  135.8383  121.3652   98.6860 C   0  0  0  0  0
  133.7351  122.2257   99.8140 C   0  0  0  0  0
  133.0146  123.5676   99.9662 C   0  0  0  0  0
  132.7921  121.0985   99.5029 C   0  0  0  0  0
  132.6111  120.0755  100.4377 C   0  0  0  0  0
  131.0854  118.9688   98.9930 C   0  0  0  0  0
  131.2388  119.9677   98.0293 C   0  0  0  0  0
  132.0982  121.0365   98.2877 C   0  0  0  0  0
  140.0540  119.3765   96.4547 N   0  0  0  0  0
  137.8663  120.6718   97.3842 N   0  0  0  0  0
  136.7833  122.5138   96.6966 N   0  0  0  0  0
  138.1741  123.1197   94.7597 N   0  0  0  0  0
  134.7802  122.3203   98.8002 N   0  0  0  0  0
  131.7689  119.0421  100.1669 N   0  0  0  0  0
  138.7408  124.7152   92.5614 O   0  0  0  0  0
  135.9222  120.4124   99.5072 O   0  0  0  0  0
  132.0190  123.4626  100.9211 F   0  0  0  0  0
  132.4536  123.9607   98.7634 F   0  0  0  0  0
  133.9203  124.5291  100.3748 F   0  0  0  0  0
  1 19  1  0  0  0
  2  3  1  0  0  0
  3 20  1  0  0  0
  5 11  1  0  0  0
  6 21  1  0  0  0
  6 22  1  0  0  0
  7 22  1  0  0  0
  7  8  1  0  0  0
  8 25  1  0  0  0
  9 25  1  0  0  0
  9 10  1  0  0  0
 10 22  1  0  0  0
 11 23  1  0  0  0
 12 23  1  0  0  0
 12 13  1  0  0  0
 12 14  1  0  0  0
 13 27  1  0  0  0
 13 28  1  0  0  0
 13 29  1  0  0  0
 15 24  1  0  0  0
 16 17  1  0  0  0
 18 14  1  0  0  0
 20  4  1  0  0  0
 20  5  1  0  0  0
  2 19  2  0  0  0
  4  1  2  0  0  0
  5 21  2  0  0  0
  6  3  2  0  0  0
 11 26  2  0  0  0
 14 15  2  0  0  0
 16 24  2  0  0  0
 17 18  2  0  0  0
M  END
> <rmsd>
0.742602587

$$$$
CHEMBL3235055_8GUQ


 29 34  0  0  0  0  0  0  0  0999 V2000
  132.9463  121.5156   98.8806 N   0  0  0  0  0
  133.9052  121.3800   97.8787 N   0  0  0  0  0
  135.9906  121.5951   95.9075 N   0  0  0  0  0
  139.5022  121.0384   96.0067 N   0  0  0  0  0
  131.2587  118.2314   99.0113 N   0  0  0  0  0
  131.2787  120.5957  100.3750 N   0  0  0  0  0
  134.7663  122.3340   97.9621 C   0  0  0  0  0
  134.5056  123.2534   99.1166 C   0  0  0  0  0
  133.2083  122.6924   99.6974 C   0  0  0  0  0
  132.0998  123.7156   99.4790 C   0  0  0  0  0
  132.7190  124.9373   98.8252 C   0  0  0  0  0
  134.2052  124.6651   98.6435 C   0  0  0  0  0
  132.3524  124.9654  100.2987 C   0  0  0  0  0
  135.9354  122.4123   97.0797 C   0  0  0  0  0
  137.1985  121.3935   95.1097 C   0  0  0  0  0
  138.2357  120.5682   95.8261 C   0  0  0  0  0
  137.9011  119.2917   96.2901 C   0  0  0  0  0
  138.8648  118.5250   96.9448 C   0  0  0  0  0
  140.1538  119.0323   97.1227 C   0  0  0  0  0
  140.4589  120.3057   96.6374 C   0  0  0  0  0
  137.6994  122.6786   94.4711 C   0  0  0  0  0
  137.3435  122.1263   93.1034 C   0  0  0  0  0
  136.8606  120.8363   93.7428 C   0  0  0  0  0
  132.0739  120.4538   99.2800 C   0  0  0  0  0
  132.0599  119.2427   98.5834 C   0  0  0  0  0
  130.4770  118.3751  100.1131 C   0  0  0  0  0
  130.4840  119.5856  100.8083 C   0  0  0  0  0
  136.8812  123.2002   97.3552 O   0  0  0  0  0
  131.2470  117.0396   98.3276 O   0  0  0  0  0
  1  2  1  0  0  0
  1 24  1  0  0  0
  5 29  1  0  0  0
  7 14  1  0  0  0
  8  7  1  0  0  0
  8  9  1  0  0  0
  9 10  1  0  0  0
  9  1  1  0  0  0
 10 11  1  0  0  0
 10 13  1  0  0  0
 11 12  1  0  0  0
 11 13  1  0  0  0
 12  8  1  0  0  0
 14  3  1  0  0  0
 15  3  1  0  0  0
 15 16  1  0  0  0
 15 21  1  0  0  0
 16  4  1  0  0  0
 17 18  1  0  0  0
 19 20  1  0  0  0
 21 22  1  0  0  0
 22 23  1  0  0  0
 23 15  1  0  0  0
 24  6  1  0  0  0
 25  5  1  0  0  0
 26 27  1  0  0  0
  5 26  2  0  0  0
  7  2  2  0  0  0
 14 28  2  0  0  0
 16 17  2  0  0  0
 18 19  2  0  0  0
 20  4  2  0  0  0
 24 25  2  0  0  0
 27  6  2  0  0  0
M  CHG  2   5   1  29  -1
M  END
> <rmsd>
0.380193681

$$$$
CHEMBL3354406_6PT0


 30 34  0  0  0  0  0  0  0  0999 V2000
  138.5156  118.3123   96.7742 C   0  0  0  0  0
  137.5465  118.8959   95.9554 C   0  0  0  0  0
  137.3090  120.2707   96.0247 C   0  0  0  0  0
  138.0365  121.0697   96.9128 C   0  0  0  0  0
  139.0122  120.4814   97.7446 C   0  0  0  0  0
  139.2462  119.1028   97.6648 C   0  0  0  0  0
  139.8062  121.2975   98.7191 C   0  0  0  0  0
  137.8030  121.8639  100.3286 C   0  0  0  0  0
  135.5344  121.9971   99.8196 C   0  0  0  0  0
  135.5506  123.3264  100.1166 C   0  0  0  0  0
  134.2951  123.8139   99.8664 C   0  0  0  0  0
  133.7680  125.0993   99.9363 C   0  0  0  0  0
  132.4315  125.2686   99.5342 C   0  0  0  0  0
  131.6744  124.1724   99.0656 C   0  0  0  0  0
  132.2380  122.8852   98.9966 C   0  0  0  0  0
  133.5583  122.7259   99.4225 C   0  0  0  0  0
  133.9576  120.2820   98.9321 C   0  0  0  0  0
  132.6766  119.6534   99.2918 C   0  0  0  0  0
  131.8057  120.0864  100.2699 C   0  0  0  0  0
  130.7681  119.1712  100.2540 C   0  0  0  0  0
  131.0769  118.2419   99.2760 C   0  0  0  0  0
  137.7621  122.4836   96.9523 C   0  0  0  0  0
  139.3224  120.9290  100.4390 S   0  0  0  0  0
  136.6542  121.2444   99.9226 N   0  0  0  0  0
  134.3134  121.5929   99.4015 N   0  0  0  0  0
  136.6854  123.9422  100.5135 N   0  0  0  0  0
  137.7998  123.2063  100.6196 N   0  0  0  0  0
  137.5404  123.6189   96.9856 N   0  0  0  0  0
  134.7743  119.6351   98.2233 O   0  0  0  0  0
  132.2238  118.5625   98.7278 O   0  0  0  0  0
  2  3  1  0  0  0
  4  5  1  0  0  0
  4 22  1  0  0  0
  6  1  1  0  0  0
  7  5  1  0  0  0
  7 23  1  0  0  0
  8 23  1  0  0  0
  8 27  1  0  0  0
  9 24  1  0  0  0
 10 11  1  0  0  0
 10 26  1  0  0  0
 12 13  1  0  0  0
 14 15  1  0  0  0
 16 25  1  0  0  0
 16 11  1  0  0  0
 17 18  1  0  0  0
 18 30  1  0  0  0
 19 20  1  0  0  0
 21 30  1  0  0  0
 25 17  1  0  0  0
 25  9  1  0  0  0
  1  2  2  0  0  0
  3  4  2  0  0  0
  5  6  2  0  0  0
  8 24  2  0  0  0
  9 10  2  0  0  0
 11 12  2  0  0  0
 13 14  2  0  0  0
 15 16  2  0  0  0
 17 29  2  0  0  0
 18 19  2  0  0  0
 20 21  2  0  0  0
 26 27  2  0  0  0
 22 28  3  0  0  0
M  END
> <rmsd>
0.671266139

$$$$
CHEMBL2152802_5ZTY


 29 32  0  0  0  0  0  0  0  0999 V2000
  132.6581  125.6239   99.5824 C   0  0  0  0  0
  132.4241  124.2840  100.2540 C   0  0  0  0  0
  131.2784  123.5443   99.5808 C   0  0  0  0  0
  131.6930  122.9974   98.2176 C   0  0  0  0  0
  133.9419  122.1759   97.9852 C   0  0  0  0  0
  134.9494  121.2076   98.0706 C   0  0  0  0  0
  136.3241  121.5800   97.6534 C   0  0  0  0  0
  138.7694  120.9698   97.3499 C   0  0  0  0  0
  139.5805  119.7367   96.8730 C   0  0  0  0  0
  140.0205  119.9232   95.4274 C   0  0  0  0  0
  138.8185  118.4159   96.9641 C   0  0  0  0  0
  140.7738  119.7045   97.8554 C   0  0  0  0  0
  141.6827  120.9152   97.5925 C   0  0  0  0  0
  140.8481  122.1031   98.0757 C   0  0  0  0  0
  139.5782  121.4321   98.5748 C   0  0  0  0  0
  138.8342  122.2803   99.5923 C   0  0  0  0  0
  140.1104  120.1467   99.1346 C   0  0  0  0  0
  134.6102  119.9256   98.5517 C   0  0  0  0  0
  133.2836  119.6507   98.9206 C   0  0  0  0  0
  132.9159  118.3797   99.3898 C   0  0  0  0  0
  131.5928  118.1114   99.7449 C   0  0  0  0  0
  130.6236  119.1091   99.6336 C   0  0  0  0  0
  130.9761  120.3779   99.1700 C   0  0  0  0  0
  132.3047  120.6680   98.8120 C   0  0  0  0  0
  132.6615  121.9111   98.3577 N   0  0  0  0  0
  137.3914  120.6290   97.7038 N   0  0  0  0  0
  136.5565  122.7512   97.2444 O   0  0  0  0  0
  135.4862  119.0224   98.6512 O   0  0  0  0  0
  129.3399  118.8467   99.9765 F   0  0  0  0  0
  1  2  1  0  0  0
  2  3  1  0  0  0
  3  4  1  0  0  0
  4 25  1  0  0  0
  6  7  1  0  0  0
  6 18  1  0  0  0
  7 26  1  0  0  0
  8 26  1  0  0  0
  8  9  1  0  0  0
  9 10  1  0  0  0
  9 11  1  0  0  0
 12  9  1  0  0  0
 12 13  1  0  0  0
 13 14  1  0  0  0
 14 15  1  0  0  0
 15 16  1  0  0  0
 15 17  1  0  0  0
 15  8  1  0  0  0
 17 12  1  0  0  0
 18 19  1  0  0  0
 20 21  1  0  0  0
 22 29  1  0  0  0
 22 23  1  0  0  0
 24 25  1  0  0  0
 24 19  1  0  0  0
 25  5  1  0  0  0
  5  6  2  0  0  0
  7 27  2  0  0  0
 18 28  2  0  0  0
 19 20  2  0  0  0
 21 22  2  0  0  0
 23 24  2  0  0  0
M  END
> <rmsd>
0.541831613

$$$$
CHEMBL3686301_8GUR


 35 38  0  0  0  0  0  0  0  0999 V2000
  139.4033  118.9482   94.9914 C   0  0  0  0  0
  139.5860  119.5718   96.3611 C   0  0  0  0  0
  141.0258  120.0309   96.5019 C   0  0  0  0  0
  139.3184  118.5058   97.4116 C   0  0  0  0  0
  138.6602  120.7513   96.5123 C   0  0  0  0  0
  138.6567  121.8786   95.6887 C   0  0  0  0  0
  137.5414  124.0431   95.2712 C   0  0  0  0  0
  136.4936  123.8437   94.1894 C   0  0  0  0  0
  136.0874  125.1807   93.6220 C   0  0  0  0  0
  135.9068  124.9071   92.1599 C   0  0  0  0  0
  136.3096  123.4594   92.0020 C   0  0  0  0  0
  136.9782  122.4544   97.0980 C   0  0  0  0  0
  135.1459  122.9182   98.6746 C   0  0  0  0  0
  134.1319  123.9159   99.0636 C   0  0  0  0  0
  134.4500  125.2731   98.9025 C   0  0  0  0  0
  133.5836  126.2762   99.3482 C   0  0  0  0  0
  133.9690  127.7197   99.2026 C   0  0  0  0  0
  132.4015  125.9151  100.0023 C   0  0  0  0  0
  132.0600  124.5700  100.1531 C   0  0  0  0  0
  132.8970  123.5618   99.6670 C   0  0  0  0  0
  132.5255  121.3102   98.7193 C   0  0  0  0  0
  131.8938  120.0300   99.1317 C   0  0  0  0  0
  132.5530  118.8830   99.5036 C   0  0  0  0  0
  130.4302  118.5978   99.6295 C   0  0  0  0  0
  137.7263  122.8124   96.0274 N   0  0  0  0  0
  136.0169  123.2002   97.5658 N   0  0  0  0  0
  131.6115  117.9704   99.8180 N   0  0  0  0  0
  137.0166  123.0621   93.1478 O   0  0  0  0  0
  135.2660  121.8557   99.3421 O   0  0  0  0  0
  132.4578  122.2407   99.7920 O   0  0  0  0  0
  130.6049  119.8331   99.2199 O   0  0  0  0  0
  134.5378  127.9360   97.9597 F   0  0  0  0  0
  132.8595  128.5370   99.3271 F   0  0  0  0  0
  134.8844  128.0520  100.1846 F   0  0  0  0  0
  137.4523  120.9441   97.6808 S   0  0  0  0  0
  1  2  1  0  0  0
  2  3  1  0  0  0
  2  4  1  0  0  0
  2  5  1  0  0  0
  5 35  1  0  0  0
  6 25  1  0  0  0
  7 25  1  0  0  0
  8  7  1  0  0  0
  8  9  1  0  0  0
  8 28  1  0  0  0
  9 10  1  0  0  0
 10 11  1  0  0  0
 11 28  1  0  0  0
 12 35  1  0  0  0
 13 26  1  0  0  0
 13 14  1  0  0  0
 15 16  1  0  0  0
 17 16  1  0  0  0
 17 32  1  0  0  0
 17 33  1  0  0  0
 17 34  1  0  0  0
 18 19  1  0  0  0
 20 30  1  0  0  0
 20 14  1  0  0  0
 21 30  1  0  0  0
 21 22  1  0  0  0
 22 31  1  0  0  0
 23 27  1  0  0  0
 24 31  1  0  0  0
 25 12  1  0  0  0
  5  6  2  0  0  0
 12 26  2  0  0  0
 13 29  2  0  0  0
 14 15  2  0  0  0
 16 18  2  0  0  0
 19 20  2  0  0  0
 22 23  2  0  0  0
 24 27  2  0  0  0
M  END
> <rmsd>
0.706903338

$$$$
CHEMBL1224691_5ZTY


 28 30  0  0  0  0  0  0  0  0999 V2000
  133.5436  127.5775   99.4478 C   0  0  0  0  0
  133.0164  126.3581  100.1737 C   0  0  0  0  0
  132.2743  125.4691   99.1942 C   0  0  0  0  0
  131.7503  124.2249   99.8962 C   0  0  0  0  0
  132.8767  123.2513  100.2197 C   0  0  0  0  0
  133.3848  122.5864   98.9826 C   0  0  0  0  0
  136.0298  121.9452   96.7062 C   0  0  0  0  0
  137.3673  121.0027   94.7275 C   0  0  0  0  0
  137.0597  120.1132   93.5365 C   0  0  0  0  0
  137.7983  122.3597   94.1778 C   0  0  0  0  0
  138.4426  120.3411   95.5708 C   0  0  0  0  0
  138.1681  119.1205   96.2119 C   0  0  0  0  0
  139.1398  118.4932   96.9963 C   0  0  0  0  0
  140.3989  119.0780   97.1490 C   0  0  0  0  0
  140.6870  120.2899   96.5173 C   0  0  0  0  0
  139.7155  120.9176   95.7330 C   0  0  0  0  0
  133.5681  121.3258   96.9906 C   0  0  0  0  0
  132.5671  121.7004   98.0889 C   0  0  0  0  0
  132.0758  120.4800   98.8093 C   0  0  0  0  0
  130.7021  120.2142   98.8315 C   0  0  0  0  0
  130.2139  119.0842   99.4945 C   0  0  0  0  0
  131.0984  118.2139  100.1382 C   0  0  0  0  0
  132.4719  118.4724  100.1192 C   0  0  0  0  0
  132.9610  119.6018   99.4566 C   0  0  0  0  0
  134.5962  122.7316   98.5758 N   0  0  0  0  0
  134.7824  122.0100   97.3988 N   0  0  0  0  0
  136.1408  121.1658   95.5074 N   0  0  0  0  0
  137.0280  122.5710   97.1549 O   0  0  0  0  0
  1  2  1  0  0  0
  2  3  1  0  0  0
  3  4  1  0  0  0
  4  5  1  0  0  0
  5  6  1  0  0  0
  7 27  1  0  0  0
  8 27  1  0  0  0
  8  9  1  0  0  0
  8 10  1  0  0  0
  8 11  1  0  0  0
 12 13  1  0  0  0
 14 15  1  0  0  0
 16 11  1  0  0  0
 17 26  1  0  0  0
 17 18  1  0  0  0
 18 19  1  0  0  0
 18  6  1  0  0  0
 20 21  1  0  0  0
 22 23  1  0  0  0
 24 19  1  0  0  0
 26 25  1  0  0  0
 26  7  1  0  0  0
  6 25  2  0  0  0
  7 28  2  0  0  0
 11 12  2  0  0  0
 13 14  2  0  0  0
 15 16  2  0  0  0
 19 20  2  0  0  0
 21 22  2  0  0  0
 23 24  2  0  0  0
M  END
> <rmsd>
0.486710459

$$$$
CHEMBL3353438_5ZTY


 28 30  0  0  0  0  0  0  0  0999 V2000
  131.8238  118.4008   99.7172 C   0  0  0  0  0
  130.9691  119.5015   99.8085 C   0  0  0  0  0
  132.6974  120.9628   99.0655 C   0  0  0  0  0
  133.5813  119.8720   98.9635 C   0  0  0  0  0
  133.1389  118.5904   99.2913 C   0  0  0  0  0
  134.8858  120.0832   98.5382 C   0  0  0  0  0
  135.3257  121.3687   98.2112 C   0  0  0  0  0
  134.4137  122.4451   98.3228 C   0  0  0  0  0
  132.2054  123.3531   98.8694 C   0  0  0  0  0
  132.2970  123.9491  100.2656 C   0  0  0  0  0
  131.4124  125.1807  100.3760 C   0  0  0  0  0
  131.9986  126.3659   99.6173 C   0  0  0  0  0
  133.1141  127.0326  100.4072 C   0  0  0  0  0
  134.4361  126.3321  100.1588 C   0  0  0  0  0
  136.7284  121.5432   97.7615 C   0  0  0  0  0
  138.9698  120.4898   97.2038 C   0  0  0  0  0
  139.7332  119.2138   97.5595 C   0  0  0  0  0
  139.1973  118.0062   96.7856 C   0  0  0  0  0
  139.2169  118.2486   95.2748 C   0  0  0  0  0
  138.4752  119.5369   94.9127 C   0  0  0  0  0
  139.0151  120.7380   95.6932 C   0  0  0  0  0
  140.6380  118.2584   94.7351 C   0  0  0  0  0
  131.4171  120.7447   99.4848 N   0  0  0  0  0
  133.1263  122.2230   98.7444 N   0  0  0  0  0
  137.5931  120.4052   97.6776 N   0  0  0  0  0
  134.7827  123.6173   98.0326 O   0  0  0  0  0
  137.1696  122.6842   97.4542 O   0  0  0  0  0
  135.4300  126.9504  100.8922 F   0  0  0  0  0
  2 23  1  0  0  0
  3  4  1  0  0  0
  4  6  1  0  0  0
  5  1  1  0  0  0
  7  8  1  0  0  0
  7 15  1  0  0  0
  8 24  1  0  0  0
  9 24  1  0  0  0
  9 10  1  0  0  0
 10 11  1  0  0  0
 11 12  1  0  0  0
 12 13  1  0  0  0
 13 14  1  0  0  0
 14 28  1  0  0  0
 15 25  1  0  0  0
 16 25  1  0  0  0
 16 17  1  0  0  0
 17 18  1  0  0  0
 18 19  1  0  0  0
 19 20  1  0  0  0
 19 22  1  0  0  0
 20 21  1  0  0  0
 21 16  1  0  0  0
 24  3  1  0  0  0
  1  2  2  0  0  0
  3 23  2  0  0  0
  4  5  2  0  0  0
  6  7  2  0  0  0
  8 26  2  0  0  0
 15 27  2  0  0  0
M  END
> <rmsd>
0.751332939

$$$$
CHEMBL508336_8GUT


 28 31  0  0  0  0  0  0  0  0999 V2000
  129.5043  117.7351   98.2751 F   0  0  0  0  0
  130.3808  118.5160   98.9510 C   0  0  0  0  0
  131.7199  118.1296   99.0616 C   0  0  0  0  0
  132.6247  118.9357   99.7591 C   0  0  0  0  0
  132.1908  120.1277  100.3501 C   0  0  0  0  0
  133.1622  121.0002  101.0751 C   0  0  0  0  0
  134.9295  121.6172   99.4896 C   0  0  0  0  0
  135.5275  122.5213   98.5787 C   0  0  0  0  0
  134.9241  123.7670   98.3824 C   0  0  0  0  0
  133.7662  124.1059   99.0680 C   0  0  0  0  0
  133.1651  125.3499   98.8765 C   0  0  0  0  0
  132.0028  125.6719   99.5782 C   0  0  0  0  0
  131.4592  124.7397  100.4645 C   0  0  0  0  0
  133.1943  123.1851   99.9657 C   0  0  0  0  0
  136.7653  122.2103   97.8191 C   0  0  0  0  0
  138.6191  120.5888   97.2190 C   0  0  0  0  0
  138.2514  120.2831   95.7665 C   0  0  0  0  0
  139.4962  119.8772   94.9826 C   0  0  0  0  0
  140.1482  118.6565   95.6266 C   0  0  0  0  0
  140.5141  118.9589   97.0773 C   0  0  0  0  0
  139.2687  119.3657   97.8604 C   0  0  0  0  0
  130.8512  120.5153  100.2336 C   0  0  0  0  0
  129.9466  119.7093   99.5362 C   0  0  0  0  0
  133.7790  121.9610  100.1558 N   0  0  0  0  0
  132.0585  123.5308  100.6387 N   0  0  0  0  0
  137.4249  120.9487   97.9681 N   0  0  0  0  0
  135.4551  120.4881   99.6959 O   0  0  0  0  0
  137.2453  123.0714   97.0309 O   0  0  0  0  0
  2  1  1  0  0  0
  3  4  1  0  0  0
  5 22  1  0  0  0
  6  5  1  0  0  0
  6 24  1  0  0  0
  7  8  1  0  0  0
  8 15  1  0  0  0
  9 10  1  0  0  0
 11 12  1  0  0  0
 13 25  1  0  0  0
 14 24  1  0  0  0
 14 10  1  0  0  0
 15 26  1  0  0  0
 16 26  1  0  0  0
 16 17  1  0  0  0
 17 18  1  0  0  0
 18 19  1  0  0  0
 19 20  1  0  0  0
 20 21  1  0  0  0
 21 16  1  0  0  0
 23  2  1  0  0  0
 24  7  1  0  0  0
  2  3  2  0  0  0
  4  5  2  0  0  0
  7 27  2  0  0  0
  8  9  2  0  0  0
 10 11  2  0  0  0
 12 13  2  0  0  0
 14 25  2  0  0  0
 15 28  2  0  0  0
 22 23  2  0  0  0
M  END
> <rmsd>
0.324500322

$$$$
CHEMBL3397517_8GUT


 26 28  0  0  0  0  0  0  0  0999 V2000
  130.8074  117.6974   99.7142 C   0  0  0  0  0
  132.0260  117.6287   99.0351 C   0  0  0  0  0
  132.7679  118.7920   98.8113 C   0  0  0  0  0
  132.2997  120.0374   99.2639 C   0  0  0  0  0
  131.0721  120.0918   99.9457 C   0  0  0  0  0
  130.3303  118.9285  100.1695 C   0  0  0  0  0
  133.0870  121.2710   99.0267 C   0  0  0  0  0
  132.6230  122.5109   99.4730 C   0  0  0  0  0
  133.3555  123.6792   99.2595 C   0  0  0  0  0
  134.6028  123.6248   98.5781 C   0  0  0  0  0
  135.0687  122.3693   98.1099 C   0  0  0  0  0
  134.3060  121.2181   98.3456 C   0  0  0  0  0
  136.3507  122.2095   97.3783 C   0  0  0  0  0
  138.0177  120.6634   96.2518 C   0  0  0  0  0
  137.9503  119.3157   95.5238 C   0  0  0  0  0
  138.1631  118.0970   96.4319 C   0  0  0  0  0
  139.5692  117.9956   97.0470 C   0  0  0  0  0
  140.6153  118.8455   96.3189 C   0  0  0  0  0
  140.5344  120.3410   96.6666 C   0  0  0  0  0
  139.1851  120.7892   97.2395 C   0  0  0  0  0
  135.2240  126.0395   98.9301 C   0  0  0  0  0
  132.7391  124.9453   99.7467 C   0  0  0  0  0
  137.0846  123.2049   97.1321 O   0  0  0  0  0
  135.3976  124.7612   98.3359 O   0  0  0  0  0
  136.7589  120.9082   96.9409 N   0  0  0  0  0
  130.0885  116.5701   99.9311 F   0  0  0  0  0
  1 26  1  0  0  0
  2  3  1  0  0  0
  4  5  1  0  0  0
  4  7  1  0  0  0
  6  1  1  0  0  0
  8  9  1  0  0  0
 10 11  1  0  0  0
 10 24  1  0  0  0
 11 13  1  0  0  0
 12  7  1  0  0  0
 13 25  1  0  0  0
 14 25  1  0  0  0
 14 15  1  0  0  0
 15 16  1  0  0  0
 16 17  1  0  0  0
 17 18  1  0  0  0
 18 19  1  0  0  0
 19 20  1  0  0  0
 20 14  1  0  0  0
 21 24  1  0  0  0
 22  9  1  0  0  0
  1  2  2  0  0  0
  3  4  2  0  0  0
  5  6  2  0  0  0
  7  8  2  0  0  0
  9 10  2  0  0  0
 11 12  2  0  0  0
 13 23  2  0  0  0
M  END
> <rmsd>
0.376945406

$$$$
CHEMBL216837_6PT0


 29 32  0  0  0  0  0  0  0  0999 V2000
  131.5883  126.7916  100.1061 C   0  0  0  0  0
  132.5817  126.1369   99.1649 C   0  0  0  0  0
  133.4266  125.1157   99.9111 C   0  0  0  0  0
  132.6308  123.8532  100.2177 C   0  0  0  0  0
  132.3827  123.0288   98.9597 C   0  0  0  0  0
  134.7004  122.8114   98.0843 C   0  0  0  0  0
  135.6022  121.7906   97.8515 C   0  0  0  0  0
  136.9728  121.9729   97.3308 C   0  0  0  0  0
  137.8438  120.8203   96.9763 C   0  0  0  0  0
  137.2581  119.6797   96.4048 C   0  0  0  0  0
  138.0318  118.5814   96.0275 C   0  0  0  0  0
  139.4130  118.6028   96.2114 C   0  0  0  0  0
  140.0264  119.7219   96.7748 C   0  0  0  0  0
  141.4118  119.7260   96.9605 C   0  0  0  0  0
  142.0397  120.8332   97.5349 C   0  0  0  0  0
  141.2846  121.9398   97.9286 C   0  0  0  0  0
  139.8995  121.9441   97.7460 C   0  0  0  0  0
  139.2492  120.8438   97.1626 C   0  0  0  0  0
  135.0145  120.5920   98.2232 C   0  0  0  0  0
  133.7518  120.9370   98.6735 C   0  0  0  0  0
  132.7270  119.9701   99.1365 C   0  0  0  0  0
  131.3907  120.1712   98.7590 C   0  0  0  0  0
  130.3934  119.2739   99.1453 C   0  0  0  0  0
  130.7207  118.1587   99.9160 C   0  0  0  0  0
  132.0443  117.9438  100.3030 C   0  0  0  0  0
  133.0512  118.8362   99.9197 C   0  0  0  0  0
  133.5739  122.2740   98.5849 N   0  0  0  0  0
  137.4060  123.1472   97.1764 O   0  0  0  0  0
  134.6790  118.5168  100.5037 Cl  0  0  0  0  0
  1  2  1  0  0  0
  2  3  1  0  0  0
  3  4  1  0  0  0
  4  5  1  0  0  0
  5 27  1  0  0  0
  7  8  1  0  0  0
  7 19  1  0  0  0
  8  9  1  0  0  0
 10 11  1  0  0  0
 12 13  1  0  0  0
 14 15  1  0  0  0
 16 17  1  0  0  0
 18  9  1  0  0  0
 18 13  1  0  0  0
 20 21  1  0  0  0
 20 27  1  0  0  0
 22 23  1  0  0  0
 24 25  1  0  0  0
 26 29  1  0  0  0
 26 21  1  0  0  0
 27  6  1  0  0  0
  6  7  2  0  0  0
  8 28  2  0  0  0
  9 10  2  0  0  0
 11 12  2  0  0  0
 13 14  2  0  0  0
 15 16  2  0  0  0
 17 18  2  0  0  0
 19 20  2  0  0  0
 21 22  2  0  0  0
 23 24  2  0  0  0
 25 26  2  0  0  0
M  END
> <rmsd>
0.428099155

$$$$
CHEMBL3397522_8GUS


 30 32  0  0  0  0  0  0  0  0999 V2000
  130.9817  117.6793   99.8937 C   0  0  0  0  0
  130.3451  118.9300   99.8974 C   0  0  0  0  0
  131.0458  120.0781   99.5194 C   0  0  0  0  0
  132.3931  119.9979   99.1313 C   0  0  0  0  0
  133.0229  118.7426   99.1303 C   0  0  0  0  0
  132.3224  117.5940   99.5084 C   0  0  0  0  0
  133.1369  121.2158   98.7304 C   0  0  0  0  0
  132.5129  122.4658   98.7336 C   0  0  0  0  0
  133.1999  123.6213   98.3548 C   0  0  0  0  0
  134.5600  123.5385   97.9509 C   0  0  0  0  0
  135.2053  122.2762   97.9743 C   0  0  0  0  0
  134.4815  121.1394   98.3565 C   0  0  0  0  0
  136.6281  122.0949   97.5926 C   0  0  0  0  0
  138.5842  120.5212   97.2280 C   0  0  0  0  0
  139.0240  119.1571   97.7794 C   0  0  0  0  0
  138.7881  118.0369   96.7670 C   0  0  0  0  0
  139.5679  118.2727   95.4647 C   0  0  0  0  0
  139.8493  119.7527   95.1765 C   0  0  0  0  0
  138.7210  120.6352   95.7005 C   0  0  0  0  0
  140.8753  117.5078   95.4969 C   0  0  0  0  0
  134.7378  125.8530   97.0045 C   0  0  0  0  0
  132.4617  124.9173   98.4796 C   0  0  0  0  0
  132.7498  125.5909   99.8175 C   0  0  0  0  0
  132.0250  124.8990  100.9625 C   0  0  0  0  0
  130.5406  125.2073  100.9143 C   0  0  0  0  0
  128.9468  116.5078  100.6713 C   0  0  0  0  0
  137.3364  123.0795   97.2477 O   0  0  0  0  0
  135.2982  124.6620   97.5387 O   0  0  0  0  0
  130.3089  116.5125  100.2663 O   0  0  0  0  0
  137.2081  120.7856   97.6217 N   0  0  0  0  0
  1 29  1  0  0  0
  2  3  1  0  0  0
  4  5  1  0  0  0
  4  7  1  0  0  0
  6  1  1  0  0  0
  8  9  1  0  0  0
 10 11  1  0  0  0
 10 28  1  0  0  0
 11 13  1  0  0  0
 12  7  1  0  0  0
 13 30  1  0  0  0
 14 30  1  0  0  0
 14 15  1  0  0  0
 15 16  1  0  0  0
 16 17  1  0  0  0
 17 18  1  0  0  0
 17 20  1  0  0  0
 18 19  1  0  0  0
 19 14  1  0  0  0
 21 28  1  0  0  0
 22  9  1  0  0  0
 22 23  1  0  0  0
 23 24  1  0  0  0
 24 25  1  0  0  0
 26 29  1  0  0  0
  1  2  2  0  0  0
  3  4  2  0  0  0
  5  6  2  0  0  0
  7  8  2  0  0  0
  9 10  2  0  0  0
 11 12  2  0  0  0
 13 27  2  0  0  0
M  END
> <rmsd>
0.575760603

$$$$
CHEMBL467680_8GUT


 28 31  0  0  0  0  0  0  0  0999 V2000
  139.6833  117.7952   95.3272 C   0  0  0  0  0
  138.4607  118.2066   96.1317 C   0  0  0  0  0
  137.7859  119.4394   95.5268 C   0  0  0  0  0
  138.6313  120.7003   95.7247 C   0  0  0  0  0
  138.9560  120.9293   97.2043 C   0  0  0  0  0
  136.9975  122.4405   97.7904 C   0  0  0  0  0
  135.7334  122.6667   98.5360 C   0  0  0  0  0
  135.0526  123.8716   98.3383 C   0  0  0  0  0
  133.8658  124.1296   99.0094 C   0  0  0  0  0
  133.1873  125.3330   98.8168 C   0  0  0  0  0
  131.9967  125.5734   99.5034 C   0  0  0  0  0
  131.5027  124.6014  100.3761 C   0  0  0  0  0
  133.3425  123.1671   99.8930 C   0  0  0  0  0
  133.4365  120.9762  100.9869 C   0  0  0  0  0
  132.5420  120.0428  100.2391 C   0  0  0  0  0
  133.0671  118.8823   99.6595 C   0  0  0  0  0
  132.2344  118.0196   98.9404 C   0  0  0  0  0
  130.8759  118.3178   98.7967 C   0  0  0  0  0
  130.3504  119.4794   99.3708 C   0  0  0  0  0
  131.1831  120.3421  100.0899 C   0  0  0  0  0
  135.1827  121.7189   99.4323 C   0  0  0  0  0
  139.6543  119.7025   97.7916 C   0  0  0  0  0
  138.8144  118.4362   97.6026 C   0  0  0  0  0
  137.7490  121.2347   97.9642 N   0  0  0  0  0
  132.1771  123.4331  100.5515 N   0  0  0  0  0
  134.0031  121.9823  100.0840 N   0  0  0  0  0
  137.4181  123.3243   96.9938 O   0  0  0  0  0
  135.7769  120.6241   99.6377 O   0  0  0  0  0
  2  1  1  0  0  0
  2  3  1  0  0  0
  3  4  1  0  0  0
  4  5  1  0  0  0
  5 24  1  0  0  0
  5 22  1  0  0  0
  6  7  1  0  0  0
  8  9  1  0  0  0
 10 11  1  0  0  0
 12 25  1  0  0  0
 13 26  1  0  0  0
 13  9  1  0  0  0
 14 26  1  0  0  0
 14 15  1  0  0  0
 16 17  1  0  0  0
 18 19  1  0  0  0
 20 15  1  0  0  0
 21  7  1  0  0  0
 22 23  1  0  0  0
 23  2  1  0  0  0
 24  6  1  0  0  0
 26 21  1  0  0  0
  6 27  2  0  0  0
  7  8  2  0  0  0
  9 10  2  0  0  0
 11 12  2  0  0  0
 13 25  2  0  0  0
 15 16  2  0  0  0
 17 18  2  0  0  0
 19 20  2  0  0  0
 21 28  2  0  0  0
M  END
> <rmsd>
0.397183865

$$$$
CHEMBL4643391_5ZTY


 31 35  0  0  0  0  0  0  0  0999 V2000
  132.8338  120.0680   98.9775 C   0  0  0  0  0
  134.0643  120.0345   98.3398 C   0  0  0  0  0
  134.9021  121.1749   98.4541 C   0  0  0  0  0
  134.4343  122.2965   99.2137 C   0  0  0  0  0
  132.4306  121.1551   99.6841 C   0  0  0  0  0
  131.1767  120.8693  100.1846 C   0  0  0  0  0
  129.6779  118.8889  100.0490 C   0  0  0  0  0
  129.8955  118.0198  101.2724 C   0  0  0  0  0
  132.7096  123.4173  100.5834 C   0  0  0  0  0
  131.7230  124.2400   99.7660 C   0  0  0  0  0
  132.4429  125.0053   98.6726 C   0  0  0  0  0
  131.4364  125.7953   97.8637 C   0  0  0  0  0
  136.2371  121.2009   97.7966 C   0  0  0  0  0
  138.2157  119.8838   96.8283 C   0  0  0  0  0
  139.2924  120.5649   97.6953 C   0  0  0  0  0
  140.6661  120.4496   97.0165 C   0  0  0  0  0
  141.0194  118.9635   96.8438 C   0  0  0  0  0
  139.9569  118.2688   95.9770 C   0  0  0  0  0
  138.5837  118.4001   96.6566 C   0  0  0  0  0
  139.9068  118.9474   94.5988 C   0  0  0  0  0
  139.5470  120.4332   94.7581 C   0  0  0  0  0
  140.6071  121.1209   95.6342 C   0  0  0  0  0
  138.1740  120.5486   95.4386 C   0  0  0  0  0
  135.1678  123.3153   99.3489 O   0  0  0  0  0
  128.7238  117.3225  101.5609 O   0  0  0  0  0
  136.7865  122.3031   97.5240 O   0  0  0  0  0
  134.4322  118.9132   97.6034 O   0  0  0  0  0
  133.1962  122.2709   99.8147 N   0  0  0  0  0
  130.8939  119.6206   99.7400 N   0  0  0  0  0
  131.8866  119.1180   99.0126 N   0  0  0  0  0
  136.9100  119.9755   97.4746 N   0  0  0  0  0
  1  2  1  0  0  0
  2 27  1  0  0  0
  3  4  1  0  0  0
  3 13  1  0  0  0
  4 28  1  0  0  0
  5  1  1  0  0  0
  6 29  1  0  0  0
  7 29  1  0  0  0
  7  8  1  0  0  0
  8 25  1  0  0  0
  9 28  1  0  0  0
  9 10  1  0  0  0
 10 11  1  0  0  0
 11 12  1  0  0  0
 13 31  1  0  0  0
 14 31  1  0  0  0
 14 15  1  0  0  0
 15 16  1  0  0  0
 16 17  1  0  0  0
 17 18  1  0  0  0
 18 19  1  0  0  0
 18 20  1  0  0  0
 19 14  1  0  0  0
 20 21  1  0  0  0
 21 22  1  0  0  0
 21 23  1  0  0  0
 22 16  1  0  0  0
 23 14  1  0  0  0
 28  5  1  0  0  0
 29 30  1  0  0  0
  1 30  2  0  0  0
  2  3  2  0  0  0
  4 24  2  0  0  0
  5  6  2  0  0  0
 13 26  2  0  0  0
M  END
> <rmsd>
0.812660158

$$$$
CHEMBL426107_5ZTY


 27 29  0  0  0  0  0  0  0  0999 V2000
  132.1636  125.0049   97.4050 C   0  0  0  0  0
  131.5039  124.1361   98.4590 C   0  0  0  0  0
  131.7412  124.7076   99.8491 C   0  0  0  0  0
  133.1874  124.5274  100.2951 C   0  0  0  0  0
  133.4356  123.1238  100.8410 C   0  0  0  0  0
  134.5781  122.2221   98.9063 C   0  0  0  0  0
  134.7437  121.3166   97.8517 C   0  0  0  0  0
  135.9162  121.4822   96.9564 C   0  0  0  0  0
  137.2921  120.6895   94.9768 C   0  0  0  0  0
  137.0475  119.8781   93.7179 C   0  0  0  0  0
  138.5246  120.2117   95.6810 C   0  0  0  0  0
  139.6127  121.0806   95.8195 C   0  0  0  0  0
  140.7695  120.6591   96.4820 C   0  0  0  0  0
  140.8417  119.3667   97.0099 C   0  0  0  0  0
  139.7572  118.4949   96.8763 C   0  0  0  0  0
  138.6001  118.9154   96.2142 C   0  0  0  0  0
  133.7896  120.2902   97.6916 C   0  0  0  0  0
  132.7104  120.1991   98.5852 C   0  0  0  0  0
  131.7488  119.1853   98.4516 C   0  0  0  0  0
  130.6795  119.1010   99.3452 C   0  0  0  0  0
  130.5600  120.0281  100.3812 C   0  0  0  0  0
  131.5092  121.0418  100.5255 C   0  0  0  0  0
  132.5929  121.1423   99.6346 C   0  0  0  0  0
  133.5238  122.1385   99.7635 N   0  0  0  0  0
  136.1302  120.5980   95.8513 N   0  0  0  0  0
  136.7353  122.4184   97.1697 O   0  0  0  0  0
  133.8972  119.4514   96.7547 O   0  0  0  0  0
  1  2  1  0  0  0
  2  3  1  0  0  0
  3  4  1  0  0  0
  4  5  1  0  0  0
  5 24  1  0  0  0
  7  8  1  0  0  0
  7 17  1  0  0  0
  8 25  1  0  0  0
  9 25  1  0  0  0
  9 10  1  0  0  0
  9 11  1  0  0  0
 12 13  1  0  0  0
 14 15  1  0  0  0
 16 11  1  0  0  0
 17 18  1  0  0  0
 19 20  1  0  0  0
 21 22  1  0  0  0
 23 24  1  0  0  0
 23 18  1  0  0  0
 24  6  1  0  0  0
  6  7  2  0  0  0
  8 26  2  0  0  0
 11 12  2  0  0  0
 13 14  2  0  0  0
 15 16  2  0  0  0
 17 27  2  0  0  0
 18 19  2  0  0  0
 20 21  2  0  0  0
 22 23  2  0  0  0
M  END
> <rmsd>
0.705990911

$$$$
CHEMBL467476_8GUT


 28 31  0  0  0  0  0  0  0  0999 V2000
  139.8066  116.8043   96.5574 C   0  0  0  0  0
  140.1801  118.2690   96.4566 C   0  0  0  0  0
  139.9214  118.9552   97.8036 C   0  0  0  0  0
  139.7319  120.4591   97.6245 C   0  0  0  0  0
  138.5225  120.7766   96.7320 C   0  0  0  0  0
  138.1792  119.6547   95.7429 C   0  0  0  0  0
  139.4362  118.9208   95.2810 C   0  0  0  0  0
  136.7075  122.3275   97.5544 C   0  0  0  0  0
  135.5223  122.5826   98.4121 C   0  0  0  0  0
  134.9085  123.8365   98.3396 C   0  0  0  0  0
  133.7981  124.1246   99.1206 C   0  0  0  0  0
  133.2853  123.1437   99.9898 C   0  0  0  0  0
  131.5875  124.6549  100.7037 C   0  0  0  0  0
  132.0728  125.6463   99.8482 C   0  0  0  0  0
  133.1866  125.3764   99.0524 C   0  0  0  0  0
  134.9849  121.6177   99.2980 C   0  0  0  0  0
  133.3249  120.8897  100.9511 C   0  0  0  0  0
  132.3098  120.0615  100.2338 C   0  0  0  0  0
  132.7054  118.9109   99.5425 C   0  0  0  0  0
  131.7587  118.1472   98.8531 C   0  0  0  0  0
  130.4153  118.5350   98.8508 C   0  0  0  0  0
  130.0189  119.6871   99.5369 C   0  0  0  0  0
  130.9657  120.4507  100.2262 C   0  0  0  0  0
  137.3625  121.0561   97.5618 N   0  0  0  0  0
  132.1961  123.4393  100.7570 N   0  0  0  0  0
  133.8805  121.9119  100.0593 N   0  0  0  0  0
  137.1433  123.2443   96.8044 O   0  0  0  0  0
  135.5231  120.4798   99.3947 O   0  0  0  0  0
  1  2  1  0  0  0
  2  3  1  0  0  0
  3  4  1  0  0  0
  4  5  1  0  0  0
  5  6  1  0  0  0
  5 24  1  0  0  0
  6  7  1  0  0  0
  7  2  1  0  0  0
  8  9  1  0  0  0
 10 11  1  0  0  0
 12 25  1  0  0  0
 12 26  1  0  0  0
 13 14  1  0  0  0
 15 11  1  0  0  0
 16  9  1  0  0  0
 17 26  1  0  0  0
 17 18  1  0  0  0
 19 20  1  0  0  0
 21 22  1  0  0  0
 23 18  1  0  0  0
 24  8  1  0  0  0
 26 16  1  0  0  0
  8 27  2  0  0  0
  9 10  2  0  0  0
 11 12  2  0  0  0
 13 25  2  0  0  0
 14 15  2  0  0  0
 16 28  2  0  0  0
 18 19  2  0  0  0
 20 21  2  0  0  0
 22 23  2  0  0  0
M  END
> <rmsd>
0.291487038

$$$$
CHEMBL3780792_8GUQ


 36 42  0  0  0  0  0  0  0  0999 V2000
  132.8081  124.9451   99.4703 Cl  0  0  0  0  0
  130.1159  124.7994  104.1687 Cl  0  0  0  0  0
  132.4562  124.0818  100.9590 C   0  0  0  0  0
  131.5762  124.6843  101.8644 C   0  0  0  0  0
  131.2207  124.0347  103.0475 C   0  0  0  0  0
  131.7433  122.7738  103.3332 C   0  0  0  0  0
  132.6237  122.1649  102.4369 C   0  0  0  0  0
  132.9895  122.8037  101.2420 C   0  0  0  0  0
  133.9625  120.8332  100.0660 C   0  0  0  0  0
  132.8743  119.9036   99.8537 C   0  0  0  0  0
  133.2166  119.0967   98.7814 C   0  0  0  0  0
  132.3381  118.1209   98.3148 C   0  0  0  0  0
  131.1010  117.9556   98.9694 C   0  0  0  0  0
  130.7523  118.8079  100.0404 C   0  0  0  0  0
  131.6412  119.7954  100.4917 C   0  0  0  0  0
  130.1144  116.9405   98.4765 C   0  0  0  0  0
  130.7460  115.5590   98.4184 C   0  0  0  0  0
  129.8290  115.9177   99.5642 C   0  0  0  0  0
  134.5512  119.4744   98.2002 C   0  0  0  0  0
  134.9087  120.6060   99.1168 C   0  0  0  0  0
  135.4405  121.8529   98.8434 C   0  0  0  0  0
  136.3876  122.1854   97.7729 C   0  0  0  0  0
  137.8393  121.4145   95.8440 C   0  0  0  0  0
  138.5016  120.1274   95.3191 C   0  0  0  0  0
  137.4877  119.5531   94.3340 C   0  0  0  0  0
  137.3852  120.8427   93.5334 C   0  0  0  0  0
  138.8564  121.1251   93.1758 C   0  0  0  0  0
  139.6286  120.6088   94.4017 C   0  0  0  0  0
  137.0388  121.8836   94.6166 C   0  0  0  0  0
  138.0098  118.3711   93.5066 C   0  0  0  0  0
  136.1541  119.1253   94.9547 C   0  0  0  0  0
  138.9950  119.1695   96.3962 C   0  0  0  0  0
  133.9113  122.1497  100.3525 N   0  0  0  0  0
  136.9393  121.1473   96.9597 N   0  0  0  0  0
  134.8331  122.7741   99.6279 N   0  0  0  0  0
  136.7301  123.3840   97.5911 O   0  0  0  0  0
  3  1  1  0  0  0
  4  5  1  0  0  0
  5  2  1  0  0  0
  6  7  1  0  0  0
  8 33  1  0  0  0
  8  3  1  0  0  0
  9 10  1  0  0  0
 11 12  1  0  0  0
 13 14  1  0  0  0
 15 10  1  0  0  0
 16 13  1  0  0  0
 16 17  1  0  0  0
 17 18  1  0  0  0
 18 16  1  0  0  0
 19 11  1  0  0  0
 19 20  1  0  0  0
 20 21  1  0  0  0
 21 22  1  0  0  0
 22 34  1  0  0  0
 23 34  1  0  0  0
 23 24  1  0  0  0
 24 25  1  0  0  0
 24 32  1  0  0  0
 25 26  1  0  0  0
 25 30  1  0  0  0
 25 31  1  0  0  0
 26 27  1  0  0  0
 26 29  1  0  0  0
 27 28  1  0  0  0
 28 24  1  0  0  0
 29 23  1  0  0  0
 33  9  1  0  0  0
 33 35  1  0  0  0
  3  4  2  0  0  0
  5  6  2  0  0  0
  7  8  2  0  0  0
 10 11  2  0  0  0
 12 13  2  0  0  0
 14 15  2  0  0  0
 20  9  2  0  0  0
 21 35  2  0  0  0
 22 36  2  0  0  0
M  END
> <rmsd>
0.535601258

$$$$
CHEMBL3397448_5ZTY


 25 27  0  0  0  0  0  0  0  0999 V2000
  130.4821  117.8078   99.8994 C   0  0  0  0  0
  131.7344  117.6460   99.3022 C   0  0  0  0  0
  132.5345  118.7622   99.0424 C   0  0  0  0  0
  132.0917  120.0535   99.3766 C   0  0  0  0  0
  130.8297  120.2018   99.9768 C   0  0  0  0  0
  130.0296  119.0856  100.2367 C   0  0  0  0  0
  132.9404  121.2373   99.1007 C   0  0  0  0  0
  132.5042  122.5218   99.4350 C   0  0  0  0  0
  133.2914  123.6450   99.1784 C   0  0  0  0  0
  134.5649  123.4979   98.5623 C   0  0  0  0  0
  135.0167  122.1934   98.2354 C   0  0  0  0  0
  134.1969  121.0905   98.5068 C   0  0  0  0  0
  136.3347  121.9344   97.6026 C   0  0  0  0  0
  138.0069  120.2551   96.7022 C   0  0  0  0  0
  139.1232  120.4136   97.7456 C   0  0  0  0  0
  140.5491  120.3176   97.1759 C   0  0  0  0  0
  140.6105  120.4720   95.6527 C   0  0  0  0  0
  140.1771  119.2068   94.8944 C   0  0  0  0  0
  139.2882  118.2540   95.7020 C   0  0  0  0  0
  137.9334  118.8519   96.0922 C   0  0  0  0  0
  135.0371  125.9574   98.2977 C   0  0  0  0  0
  132.7354  124.9566   99.6153 C   0  0  0  0  0
  137.1200  122.8828   97.3305 O   0  0  0  0  0
  135.4075  124.5866   98.2675 O   0  0  0  0  0
  136.7201  120.5902   97.2927 N   0  0  0  0  0
  2  3  1  0  0  0
  4  5  1  0  0  0
  4  7  1  0  0  0
  6  1  1  0  0  0
  8  9  1  0  0  0
 10 11  1  0  0  0
 10 24  1  0  0  0
 11 13  1  0  0  0
 12  7  1  0  0  0
 13 25  1  0  0  0
 14 25  1  0  0  0
 14 15  1  0  0  0
 15 16  1  0  0  0
 16 17  1  0  0  0
 17 18  1  0  0  0
 18 19  1  0  0  0
 19 20  1  0  0  0
 20 14  1  0  0  0
 21 24  1  0  0  0
 22  9  1  0  0  0
  1  2  2  0  0  0
  3  4  2  0  0  0
  5  6  2  0  0  0
  7  8  2  0  0  0
  9 10  2  0  0  0
 11 12  2  0  0  0
 13 23  2  0  0  0
M  END
> <rmsd>
0.476038665

$$$$
CHEMBL3941296_6PT0


 29 33  0  0  0  0  0  0  0  0999 V2000
  139.3353  124.8190   96.2250 C   0  0  0  0  0
  138.3567  123.8947   96.8558 C   0  0  0  0  0
  137.4193  122.1969   97.6255 C   0  0  0  0  0
  137.1444  120.7962   98.1124 C   0  0  0  0  0
  137.9202  120.5689   99.4048 C   0  0  0  0  0
  137.5322  119.7611   97.0428 C   0  0  0  0  0
  139.0339  119.6350   96.8201 C   0  0  0  0  0
  139.3540  118.2047   96.4370 C   0  0  0  0  0
  139.2871  119.2739   95.3711 C   0  0  0  0  0
  135.0636  119.4911   98.8854 C   0  0  0  0  0
  133.6176  119.5208   99.1491 C   0  0  0  0  0
  131.5733  120.7510   99.1500 C   0  0  0  0  0
  130.8740  119.6303   99.6323 C   0  0  0  0  0
  131.5887  118.4564   99.9015 C   0  0  0  0  0
  132.9595  118.3949   99.6547 C   0  0  0  0  0
  129.4062  119.7084   99.9495 C   0  0  0  0  0
  128.6015  119.8695   98.6694 C   0  0  0  0  0
  128.6553  118.5255   99.3560 C   0  0  0  0  0
  131.5515  123.1269   98.4541 C   0  0  0  0  0
  132.3678  123.7517   99.5706 C   0  0  0  0  0
  133.1596  124.9139   99.0100 C   0  0  0  0  0
  131.8930  125.1717   99.7953 C   0  0  0  0  0
  138.5767  122.5809   97.0419 N   0  0  0  0  0
  136.5669  123.2292   97.7964 N   0  0  0  0  0
  135.7134  120.6692   98.3885 N   0  0  0  0  0
  132.9131  120.6614   98.9168 N   0  0  0  0  0
  137.1816  124.2589   97.3005 O   0  0  0  0  0
  135.7265  118.4391   99.0988 O   0  0  0  0  0
  130.8954  121.9529   98.9190 O   0  0  0  0  0
  1  2  1  0  0  0
  2 27  1  0  0  0
  3 23  1  0  0  0
  4  3  1  0  0  0
  4  5  1  0  0  0
  4  6  1  0  0  0
  4 25  1  0  0  0
  6  7  1  0  0  0
  7  8  1  0  0  0
  8  9  1  0  0  0
  9  7  1  0  0  0
 10 11  1  0  0  0
 12 26  1  0  0  0
 12 29  1  0  0  0
 13 14  1  0  0  0
 15 11  1  0  0  0
 16 13  1  0  0  0
 16 17  1  0  0  0
 17 18  1  0  0  0
 18 16  1  0  0  0
 19 29  1  0  0  0
 19 20  1  0  0  0
 20 21  1  0  0  0
 21 22  1  0  0  0
 22 20  1  0  0  0
 24 27  1  0  0  0
 25 10  1  0  0  0
  2 23  2  0  0  0
  3 24  2  0  0  0
 10 28  2  0  0  0
 11 26  2  0  0  0
 12 13  2  0  0  0
 14 15  2  0  0  0
M  END
> <rmsd>
0.672939539

$$$$
CHEMBL3781131_8GUQ


 36 42  0  0  0  0  0  0  0  0999 V2000
  133.7155  122.0456  100.4484 N   0  0  0  0  0
  134.7383  122.5351   99.7577 N   0  0  0  0  0
  137.0351  120.5308   97.5495 N   0  0  0  0  0
  135.3445  121.5069   99.1215 C   0  0  0  0  0
  136.3576  121.6763   98.0742 C   0  0  0  0  0
  137.9018  120.5791   96.3704 C   0  0  0  0  0
  139.2892  121.2286   96.6065 C   0  0  0  0  0
  140.2662  120.1168   96.1558 C   0  0  0  0  0
  139.4821  119.4498   95.0519 C   0  0  0  0  0
  138.2739  119.1733   95.8942 C   0  0  0  0  0
  138.8712  118.3593   97.0368 C   0  0  0  0  0
  140.2543  118.9913   97.2014 C   0  0  0  0  0
  137.1598  118.4531   95.1584 C   0  0  0  0  0
  139.5574  121.6777   98.0446 C   0  0  0  0  0
  139.4331  122.4371   95.6966 C   0  0  0  0  0
  134.6971  120.3298   99.4479 C   0  0  0  0  0
  133.6898  120.7061  100.2819 C   0  0  0  0  0
  132.5453  119.8548  100.0123 C   0  0  0  0  0
  132.9136  118.9500   99.0304 C   0  0  0  0  0
  134.3300  119.1635   98.5784 C   0  0  0  0  0
  131.9874  118.0527   98.4994 C   0  0  0  0  0
  130.6710  118.0615   99.0015 C   0  0  0  0  0
  130.3001  119.0089   99.9818 C   0  0  0  0  0
  131.2384  119.9201  100.4932 C   0  0  0  0  0
  129.6430  117.1348   98.4220 C   0  0  0  0  0
  130.0598  115.6891   98.6341 C   0  0  0  0  0
  128.9971  116.2994   99.5191 C   0  0  0  0  0
  132.7827  122.8416  101.2032 C   0  0  0  0  0
  132.1965  122.2940  102.3571 C   0  0  0  0  0
  131.3055  123.0393  103.1306 C   0  0  0  0  0
  130.9892  124.3475  102.7616 C   0  0  0  0  0
  131.5593  124.9071  101.6159 C   0  0  0  0  0
  132.4533  124.1683  100.8331 C   0  0  0  0  0
  136.6359  122.8309   97.6504 O   0  0  0  0  0
  133.0828  124.9403   99.3822 Cl  0  0  0  0  0
  129.8746  125.2853  103.7310 Cl  0  0  0  0  0
  1  2  1  0  0  0
  1 28  1  0  0  0
  4  5  1  0  0  0
  4 16  1  0  0  0
  5  3  1  0  0  0
  6  3  1  0  0  0
  6  7  1  0  0  0
  7  8  1  0  0  0
  7 14  1  0  0  0
  7 15  1  0  0  0
  8  9  1  0  0  0
  9 10  1  0  0  0
 10 11  1  0  0  0
 10 13  1  0  0  0
 10  6  1  0  0  0
 11 12  1  0  0  0
 12  8  1  0  0  0
 17 18  1  0  0  0
 17  1  1  0  0  0
 19 21  1  0  0  0
 20 19  1  0  0  0
 20 16  1  0  0  0
 22 23  1  0  0  0
 24 18  1  0  0  0
 25 22  1  0  0  0
 25 26  1  0  0  0
 26 27  1  0  0  0
 27 25  1  0  0  0
 29 30  1  0  0  0
 31 32  1  0  0  0
 31 36  1  0  0  0
 33 35  1  0  0  0
 33 28  1  0  0  0
  4  2  2  0  0  0
  5 34  2  0  0  0
 16 17  2  0  0  0
 18 19  2  0  0  0
 21 22  2  0  0  0
 23 24  2  0  0  0
 28 29  2  0  0  0
 30 31  2  0  0  0
 32 33  2  0  0  0
M  END
> <rmsd>
0.514661014

$$$$
CHEMBL376028_6PT0


 32 36  0  0  0  0  0  0  0  0999 V2000
  134.5036  126.2746  100.5983 C   0  0  0  0  0
  133.1781  125.7347  101.1018 C   0  0  0  0  0
  132.9113  124.3605  100.5161 C   0  0  0  0  0
  132.4757  124.4772   99.0658 C   0  0  0  0  0
  132.2761  123.1023   98.4374 C   0  0  0  0  0
  134.6642  122.8677   97.7642 C   0  0  0  0  0
  135.5964  121.8486   97.6977 C   0  0  0  0  0
  136.9725  121.9934   97.1794 C   0  0  0  0  0
  137.8690  120.8239   96.9775 C   0  0  0  0  0
  137.3132  119.6134   96.5341 C   0  0  0  0  0
  138.1123  118.4938   96.2995 C   0  0  0  0  0
  139.4896  118.5630   96.5009 C   0  0  0  0  0
  140.0736  119.7517   96.9391 C   0  0  0  0  0
  141.4553  119.8042   97.1440 C   0  0  0  0  0
  142.0538  120.9828   97.5946 C   0  0  0  0  0
  141.2727  122.1129   97.8447 C   0  0  0  0  0
  139.8911  122.0693   97.6417 C   0  0  0  0  0
  139.2704  120.8960   97.1811 C   0  0  0  0  0
  135.0215  120.6913   98.2000 C   0  0  0  0  0
  133.7461  121.0694   98.5770 C   0  0  0  0  0
  132.7139  120.1251   99.0516 C   0  0  0  0  0
  132.3819  119.0404   98.2285 C   0  0  0  0  0
  131.4065  118.1199   98.6165 C   0  0  0  0  0
  130.7521  118.2663   99.8400 C   0  0  0  0  0
  131.0769  119.3293  100.6845 C   0  0  0  0  0
  130.4319  119.4543  101.9181 C   0  0  0  0  0
  130.7698  120.4977  102.7833 C   0  0  0  0  0
  131.7574  121.4165  102.4204 C   0  0  0  0  0
  132.4050  121.2996  101.1877 C   0  0  0  0  0
  132.0681  120.2674  100.3000 C   0  0  0  0  0
  133.5393  122.3781   98.3168 N   0  0  0  0  0
  137.3879  123.1489   96.8920 O   0  0  0  0  0
  1  2  1  0  0  0
  2  3  1  0  0  0
  3  4  1  0  0  0
  4  5  1  0  0  0
  5 31  1  0  0  0
  7  8  1  0  0  0
  7 19  1  0  0  0
  8  9  1  0  0  0
 10 11  1  0  0  0
 12 13  1  0  0  0
 14 15  1  0  0  0
 16 17  1  0  0  0
 18  9  1  0  0  0
 18 13  1  0  0  0
 20 21  1  0  0  0
 20 31  1  0  0  0
 22 23  1  0  0  0
 24 25  1  0  0  0
 26 27  1  0  0  0
 28 29  1  0  0  0
 30 21  1  0  0  0
 30 25  1  0  0  0
 31  6  1  0  0  0
  6  7  2  0  0  0
  8 32  2  0  0  0
  9 10  2  0  0  0
 11 12  2  0  0  0
 13 14  2  0  0  0
 15 16  2  0  0  0
 17 18  2  0  0  0
 19 20  2  0  0  0
 21 22  2  0  0  0
 23 24  2  0  0  0
 25 26  2  0  0  0
 27 28  2  0  0  0
 29 30  2  0  0  0
M  END
> <rmsd>
0.415633589

$$$$
CHEMBL250768_5ZTY


 28 31  0  0  0  0  0  0  0  0999 V2000
  137.2270  123.1341   97.0300 O   0  0  0  0  0
  135.3025  124.8441   97.5919 O   0  0  0  0  0
  136.6691  122.3402   97.8358 C   0  0  0  0  0
  138.4183  120.5695   97.3553 C   0  0  0  0  0
  138.9772  119.3559   98.0921 C   0  0  0  0  0
  140.2884  118.8661   97.4903 C   0  0  0  0  0
  139.9989  118.0381   96.2466 C   0  0  0  0  0
  139.9899  118.8671   94.9584 C   0  0  0  0  0
  139.3251  120.2432   95.0604 C   0  0  0  0  0
  138.0617  120.2370   95.9088 C   0  0  0  0  0
  135.4375  122.7377   98.5601 C   0  0  0  0  0
  134.8621  121.8251   99.4511 C   0  0  0  0  0
  133.1983  121.0938  101.0383 C   0  0  0  0  0
  132.3272  120.1441  100.2843 C   0  0  0  0  0
  132.8852  119.0122   99.6794 C   0  0  0  0  0
  132.0745  118.1354   98.9523 C   0  0  0  0  0
  130.7058  118.3917   98.8251 C   0  0  0  0  0
  130.1479  119.5255   99.4238 C   0  0  0  0  0
  130.9584  120.4024  100.1510 C   0  0  0  0  0
  133.1115  123.3341   99.9964 C   0  0  0  0  0
  131.9451  123.6481  100.7165 C   0  0  0  0  0
  131.3215  124.8872  100.5574 C   0  0  0  0  0
  131.8548  125.8302   99.6779 C   0  0  0  0  0
  133.0134  125.5369   98.9564 C   0  0  0  0  0
  133.6505  124.2952   99.1071 C   0  0  0  0  0
  134.8174  123.9922   98.3874 C   0  0  0  0  0
  137.2339  121.0426   98.0552 N   0  0  0  0  0
  133.7303  122.1210  100.1454 N   0  0  0  0  0
  3 27  1  0  0  0
  3 11  1  0  0  0
  4 27  1  0  0  0
  4  5  1  0  0  0
  5  6  1  0  0  0
  6  7  1  0  0  0
  7  8  1  0  0  0
  8  9  1  0  0  0
  9 10  1  0  0  0
 10  4  1  0  0  0
 12 28  1  0  0  0
 13 28  1  0  0  0
 13 14  1  0  0  0
 15 16  1  0  0  0
 17 18  1  0  0  0
 19 14  1  0  0  0
 21 22  1  0  0  0
 23 24  1  0  0  0
 25 26  1  0  0  0
 25 20  1  0  0  0
 26 11  1  0  0  0
 28 20  1  0  0  0
  3  1  2  0  0  0
 11 12  2  0  0  0
 14 15  2  0  0  0
 16 17  2  0  0  0
 18 19  2  0  0  0
 20 21  2  0  0  0
 22 23  2  0  0  0
 24 25  2  0  0  0
 26  2  2  0  0  0
M  END
> <rmsd>
0.322984487

$$$$
CHEMBL1223835_5ZTY


 30 33  0  0  0  0  0  0  0  0999 V2000
  133.9882  127.3372  100.1295 C   0  0  0  0  0
  132.8667  126.3551   99.8666 C   0  0  0  0  0
  133.0797  125.1090  100.7050 C   0  0  0  0  0
  131.9768  124.0952  100.4422 C   0  0  0  0  0
  132.1425  123.4390   99.0773 C   0  0  0  0  0
  135.3472  121.9755   98.4836 C   0  0  0  0  0
  136.6365  121.9793   97.7854 C   0  0  0  0  0
  138.8625  120.8464   97.3501 C   0  0  0  0  0
  139.8542  119.9842   98.1449 C   0  0  0  0  0
  140.2138  118.8486   97.1661 C   0  0  0  0  0
  138.9692  117.9432   97.1469 C   0  0  0  0  0
  137.9444  118.7568   96.3428 C   0  0  0  0  0
  138.7188  120.0472   96.0376 C   0  0  0  0  0
  138.1298  120.8464   94.8855 C   0  0  0  0  0
  140.1363  119.5387   95.8101 C   0  0  0  0  0
  140.2833  118.5676   94.6321 C   0  0  0  0  0
  141.1879  120.6414   95.6373 C   0  0  0  0  0
  134.9462  120.9527   99.5017 C   0  0  0  0  0
  133.5388  121.4161   99.8915 C   0  0  0  0  0
  132.5132  120.3507   99.6248 C   0  0  0  0  0
  131.7739  119.8633  100.7085 C   0  0  0  0  0
  130.8056  118.8739  100.5174 C   0  0  0  0  0
  130.5698  118.3646   99.2384 C   0  0  0  0  0
  131.3022  118.8443   98.1497 C   0  0  0  0  0
  132.2722  119.8341   98.3350 C   0  0  0  0  0
  133.3235  122.5873   99.0563 N   0  0  0  0  0
  134.4332  122.8557   98.2610 N   0  0  0  0  0
  137.6009  120.9648   98.0735 N   0  0  0  0  0
  136.8918  122.8784   96.9390 O   0  0  0  0  0
  132.9677  120.2824   97.2607 F   0  0  0  0  0
  1  2  1  0  0  0
  2  3  1  0  0  0
  3  4  1  0  0  0
  4  5  1  0  0  0
  5 26  1  0  0  0
  6  7  1  0  0  0
  7 28  1  0  0  0
  8 28  1  0  0  0
  8  9  1  0  0  0
 10  9  1  0  0  0
 10 11  1  0  0  0
 11 12  1  0  0  0
 12 13  1  0  0  0
 13 14  1  0  0  0
 13 15  1  0  0  0
 13  8  1  0  0  0
 15 16  1  0  0  0
 15 17  1  0  0  0
 15 10  1  0  0  0
 18  6  1  0  0  0
 18 19  1  0  0  0
 19 20  1  0  0  0
 19 26  1  0  0  0
 21 22  1  0  0  0
 23 24  1  0  0  0
 25 30  1  0  0  0
 25 20  1  0  0  0
 26 27  1  0  0  0
  6 27  2  0  0  0
  7 29  2  0  0  0
 20 21  2  0  0  0
 22 23  2  0  0  0
 24 25  2  0  0  0
M  END
> <rmsd>
0.42162323

$$$$
CHEMBL477994_8GUT


 28 31  0  0  0  0  0  0  0  0999 V2000
  132.9348  123.6339   99.9555 C   0  0  0  0  0
  133.3031  122.8601   98.7003 C   0  0  0  0  0
  133.7079  123.8263   97.5980 C   0  0  0  0  0
  135.1090  124.3765   97.8288 C   0  0  0  0  0
  136.1456  123.3639   97.4741 C   0  0  0  0  0
  137.7427  122.3726   96.5617 C   0  0  0  0  0
  138.8755  122.0513   95.6600 C   0  0  0  0  0
  139.2289  123.0061   94.6929 C   0  0  0  0  0
  140.2833  122.7785   93.8074 C   0  0  0  0  0
  141.0035  121.5873   93.8755 C   0  0  0  0  0
  140.6686  120.6250   94.8283 C   0  0  0  0  0
  139.6138  120.8414   95.7217 C   0  0  0  0  0
  131.7081  120.8882   98.9152 C   0  0  0  0  0
  132.3857  120.3642  100.0263 C   0  0  0  0  0
  130.8329  118.5778  100.1903 C   0  0  0  0  0
  130.3949  117.4171  100.8342 C   0  0  0  0  0
  129.2572  116.7486  100.3699 C   0  0  0  0  0
  128.5559  117.2382   99.2623 C   0  0  0  0  0
  128.9886  118.3992   98.6131 C   0  0  0  0  0
  130.1243  119.0706   99.0732 C   0  0  0  0  0
  130.5719  120.2298   98.4397 C   0  0  0  0  0
  137.0426  123.5266   96.4848 N   0  0  0  0  0
  137.2881  121.5693   97.5448 N   0  0  0  0  0
  132.1630  122.0721   98.2526 N   0  0  0  0  0
  131.9383  119.2325  100.6348 N   0  0  0  0  0
  142.0272  121.3639   93.0172 F   0  0  0  0  0
  139.2830  119.5574   96.8766 Cl  0  0  0  0  0
  136.3024  122.2172   98.0853 O   0  0  0  0  0
  2  1  1  0  0  0
  2  3  1  0  0  0
  2 24  1  0  0  0
  3  4  1  0  0  0
  4  5  1  0  0  0
  5 28  1  0  0  0
  6 22  1  0  0  0
  6  7  1  0  0  0
  8  9  1  0  0  0
 10 26  1  0  0  0
 10 11  1  0  0  0
 12 27  1  0  0  0
 12  7  1  0  0  0
 14 25  1  0  0  0
 15 16  1  0  0  0
 17 18  1  0  0  0
 19 20  1  0  0  0
 20 15  1  0  0  0
 21 13  1  0  0  0
 23 28  1  0  0  0
 24 13  1  0  0  0
  5 22  2  0  0  0
  6 23  2  0  0  0
  7  8  2  0  0  0
  9 10  2  0  0  0
 11 12  2  0  0  0
 13 14  2  0  0  0
 15 25  2  0  0  0
 16 17  2  0  0  0
 18 19  2  0  0  0
 20 21  2  0  0  0
M  END
> <rmsd>
0.631751359

$$$$
CHEMBL1765284_5ZTY


 29 32  0  0  0  0  0  0  0  0999 V2000
  135.7573  121.7249  100.4119 O   0  0  0  0  0
  130.3713  122.4721   97.6849 O   0  0  0  0  0
  135.5926  122.2014   99.2555 C   0  0  0  0  0
  136.7299  122.1806   98.3141 C   0  0  0  0  0
  137.9245  121.5233   98.5309 C   0  0  0  0  0
  140.0312  121.2700   97.2212 C   0  0  0  0  0
  139.9942  119.9588   96.4464 C   0  0  0  0  0
  137.9769  122.5595   96.6245 C   0  0  0  0  0
  133.8888  122.7956   97.4972 C   0  0  0  0  0
  132.6578  121.9087   97.3046 C   0  0  0  0  0
  131.5440  122.1184   98.3600 C   0  0  0  0  0
  131.2883  120.7915   99.0574 C   0  0  0  0  0
  130.9178  119.6702   98.2936 C   0  0  0  0  0
  130.6624  118.4403   98.9066 C   0  0  0  0  0
  130.7690  118.3154  100.2932 C   0  0  0  0  0
  131.1284  119.4205  101.0675 C   0  0  0  0  0
  131.3834  120.6500  100.4544 C   0  0  0  0  0
  131.9008  123.2500   99.3691 C   0  0  0  0  0
  131.7382  124.6446   98.7381 C   0  0  0  0  0
  132.1444  125.7406   99.7137 C   0  0  0  0  0
  133.5998  125.5537  100.1156 C   0  0  0  0  0
  133.7657  124.2182  100.8304 C   0  0  0  0  0
  133.3257  123.0483   99.9431 C   0  0  0  0  0
  138.6878  121.7777   97.4565 N   0  0  0  0  0
  136.7582  122.8316   97.1319 N   0  0  0  0  0
  134.3140  122.7582   98.8947 N   0  0  0  0  0
  139.2612  119.0150   97.1429 F   0  0  0  0  0
  139.4237  120.1605   95.2028 F   0  0  0  0  0
  141.2855  119.4963   96.2814 F   0  0  0  0  0
  3  4  1  0  0  0
  3 26  1  0  0  0
  4 25  1  0  0  0
  5 24  1  0  0  0
  6 24  1  0  0  0
  6  7  1  0  0  0
  7 27  1  0  0  0
  7 28  1  0  0  0
  7 29  1  0  0  0
  9 26  1  0  0  0
  9 10  1  0  0  0
 10 11  1  0  0  0
 11  2  1  0  0  0
 11 12  1  0  0  0
 11 18  1  0  0  0
 13 14  1  0  0  0
 15 16  1  0  0  0
 17 12  1  0  0  0
 18 19  1  0  0  0
 19 20  1  0  0  0
 20 21  1  0  0  0
 21 22  1  0  0  0
 23 22  1  0  0  0
 23 26  1  0  0  0
 23 18  1  0  0  0
 24  8  1  0  0  0
  3  1  2  0  0  0
  4  5  2  0  0  0
  8 25  2  0  0  0
 12 13  2  0  0  0
 14 15  2  0  0  0
 16 17  2  0  0  0
M  END
> <rmsd>
0.577100337

$$$$
CHEMBL3639489_8GUR


 34 35  0  0  0  0  0  0  0  0999 V2000
  131.9335  114.4003  100.8210 C   0  0  0  0  0
  132.5424  115.4833   99.9542 C   0  0  0  0  0
  133.3088  116.4559  100.8303 C   0  0  0  0  0
  133.9060  117.5729   99.9823 C   0  0  0  0  0
  130.8876  119.5446   99.4676 C   0  0  0  0  0
  129.4055  119.6863   99.6851 C   0  0  0  0  0
  128.6696  119.2773   98.4250 C   0  0  0  0  0
  128.9343  118.8079  100.8310 C   0  0  0  0  0
  129.0577  121.1262  100.0152 C   0  0  0  0  0
  133.2030  119.6184   98.7707 C   0  0  0  0  0
  134.8146  120.9334   97.4685 C   0  0  0  0  0
  136.2517  121.1806   97.2588 C   0  0  0  0  0
  137.0865  120.0690   97.0829 C   0  0  0  0  0
  138.4449  120.2247   96.7841 C   0  0  0  0  0
  139.3066  119.0196   96.5416 C   0  0  0  0  0
  138.9617  121.5130   96.6089 C   0  0  0  0  0
  138.1482  122.6306   96.8000 C   0  0  0  0  0
  136.8035  122.4842   97.1544 C   0  0  0  0  0
  134.3455  124.7500   98.5403 C   0  0  0  0  0
  133.1604  124.7106   99.4740 C   0  0  0  0  0
  133.3467  123.6686  100.5668 C   0  0  0  0  0
  132.9626  126.0599  100.1417 C   0  0  0  0  0
  131.9121  124.3683   98.6839 C   0  0  0  0  0
  132.9094  118.5626   99.5668 N   0  0  0  0  0
  131.6299  118.5164   99.9438 N   0  0  0  0  0
  134.4039  119.8521   98.3210 N   0  0  0  0  0
  135.0372  123.6748   98.3229 N   0  0  0  0  0
  134.6141  125.9290   97.7800 N   0  0  0  0  0
  131.8289  120.5645   98.5021 S   0  0  0  0  0
  133.9655  121.6353   96.8543 O   0  0  0  0  0
  136.0747  123.6507   97.4157 O   0  0  0  0  0
  140.6345  119.3132   96.7994 F   0  0  0  0  0
  138.9179  117.9775   97.3661 F   0  0  0  0  0
  139.1787  118.6240   95.2228 F   0  0  0  0  0
  1  2  1  0  0  0
  2  3  1  0  0  0
  3  4  1  0  0  0
  4 24  1  0  0  0
  5 29  1  0  0  0
  6  5  1  0  0  0
  6  7  1  0  0  0
  6  8  1  0  0  0
  6  9  1  0  0  0
 10 29  1  0  0  0
 10 24  1  0  0  0
 11 26  1  0  0  0
 11 12  1  0  0  0
 13 14  1  0  0  0
 15 14  1  0  0  0
 15 32  1  0  0  0
 15 33  1  0  0  0
 15 34  1  0  0  0
 16 17  1  0  0  0
 18 31  1  0  0  0
 18 12  1  0  0  0
 19 28  1  0  0  0
 20 19  1  0  0  0
 20 21  1  0  0  0
 20 22  1  0  0  0
 20 23  1  0  0  0
 24 25  1  0  0  0
 31 27  1  0  0  0
  5 25  2  0  0  0
 10 26  2  0  0  0
 11 30  2  0  0  0
 12 13  2  0  0  0
 14 16  2  0  0  0
 17 18  2  0  0  0
 19 27  2  0  0  0
M  END
> <rmsd>
0.738327622

$$$$
CHEMBL1223775_5ZTY


 30 33  0  0  0  0  0  0  0  0999 V2000
  139.3292  121.2627   98.2172 C   0  0  0  0  0
  140.3474  121.5112   99.3390 C   0  0  0  0  0
  141.2820  120.2875   99.2518 C   0  0  0  0  0
  141.2763  119.9654   97.7618 C   0  0  0  0  0
  139.7577  119.8837   97.6841 C   0  0  0  0  0
  139.4222  118.8296   98.7494 C   0  0  0  0  0
  140.4591  119.1284   99.8423 C   0  0  0  0  0
  139.1915  119.5586   96.3108 C   0  0  0  0  0
  142.0016  118.6565   97.4260 C   0  0  0  0  0
  141.8994  121.0750   96.9060 C   0  0  0  0  0
  136.9529  122.1182   98.2456 C   0  0  0  0  0
  135.1603  121.1635   99.8429 C   0  0  0  0  0
  133.6709  121.5649  100.0108 C   0  0  0  0  0
  133.5320  122.6897   99.0296 C   0  0  0  0  0
  132.2803  123.4796   98.8268 C   0  0  0  0  0
  132.4603  124.9208   99.2872 C   0  0  0  0  0
  132.5140  125.0170  100.8049 C   0  0  0  0  0
  131.1368  124.7934  101.4005 C   0  0  0  0  0
  132.6516  120.4789   99.7732 C   0  0  0  0  0
  131.8983  120.0131  100.8562 C   0  0  0  0  0
  130.9418  119.0106  100.6702 C   0  0  0  0  0
  130.7331  118.4699   99.3982 C   0  0  0  0  0
  131.4803  118.9315   98.3111 C   0  0  0  0  0
  132.4368  119.9337   98.4960 C   0  0  0  0  0
  135.3925  119.7031   99.4613 C   0  0  0  0  0
  135.8941  121.4656  101.1379 C   0  0  0  0  0
  137.9714  121.2503   98.7459 N   0  0  0  0  0
  135.6239  122.0546   98.7816 N   0  0  0  0  0
  134.6138  122.9252   98.3731 N   0  0  0  0  0
  137.2196  122.9430   97.3300 O   0  0  0  0  0
  1  2  1  0  0  0
  1 27  1  0  0  0
  3  2  1  0  0  0
  3  4  1  0  0  0
  4  5  1  0  0  0
  4  9  1  0  0  0
  4 10  1  0  0  0
  5  6  1  0  0  0
  5  8  1  0  0  0
  5  1  1  0  0  0
  6  7  1  0  0  0
  7  3  1  0  0  0
 11 28  1  0  0  0
 12 28  1  0  0  0
 12 13  1  0  0  0
 12 25  1  0  0  0
 12 26  1  0  0  0
 13 14  1  0  0  0
 13 19  1  0  0  0
 15 14  1  0  0  0
 15 16  1  0  0  0
 16 17  1  0  0  0
 17 18  1  0  0  0
 20 21  1  0  0  0
 22 23  1  0  0  0
 24 19  1  0  0  0
 27 11  1  0  0  0
 28 29  1  0  0  0
 11 30  2  0  0  0
 14 29  2  0  0  0
 19 20  2  0  0  0
 21 22  2  0  0  0
 23 24  2  0  0  0
M  END
> <rmsd>
0.386861354

$$$$
CHEMBL1223650_5ZTY


 29 31  0  0  0  0  0  0  0  0999 V2000
  134.2417  125.6659  102.0953 C   0  0  0  0  0
  133.6371  125.8380  100.7180 C   0  0  0  0  0
  133.0178  124.5306  100.2730 C   0  0  0  0  0
  132.4194  124.6994   98.8893 C   0  0  0  0  0
  131.8175  123.3844   98.4116 C   0  0  0  0  0
  132.8471  122.3941   97.9477 C   0  0  0  0  0
  136.2013  121.5082   97.1848 C   0  0  0  0  0
  138.2185  120.0927   96.4459 C   0  0  0  0  0
  139.1599  121.1094   96.6716 C   0  0  0  0  0
  140.5168  120.8928   96.4273 C   0  0  0  0  0
  140.9498  119.6549   95.9536 C   0  0  0  0  0
  140.0255  118.6346   95.7245 C   0  0  0  0  0
  138.6575  118.8381   95.9658 C   0  0  0  0  0
  137.6806  117.7180   95.7099 C   0  0  0  0  0
  133.8828  120.4387   97.1093 C   0  0  0  0  0
  132.5137  120.9992   97.5093 C   0  0  0  0  0
  131.9094  120.1946   98.6222 C   0  0  0  0  0
  130.6647  119.5878   98.4207 C   0  0  0  0  0
  130.0767  118.8314   99.4390 C   0  0  0  0  0
  130.7319  118.6779  100.6643 C   0  0  0  0  0
  131.9761  119.2801  100.8722 C   0  0  0  0  0
  132.5648  120.0362   99.8548 C   0  0  0  0  0
  134.1055  122.6586   97.8590 N   0  0  0  0  0
  134.7859  121.5437   97.3756 N   0  0  0  0  0
  136.8199  120.3096   96.6954 N   0  0  0  0  0
  136.8903  122.5295   97.4502 O   0  0  0  0  0
  136.7551  118.1156   94.7621 F   0  0  0  0  0
  138.3289  116.5854   95.2459 F   0  0  0  0  0
  137.0213  117.3988   96.8833 F   0  0  0  0  0
  1  2  1  0  0  0
  2  3  1  0  0  0
  3  4  1  0  0  0
  4  5  1  0  0  0
  5  6  1  0  0  0
  7 25  1  0  0  0
  9 10  1  0  0  0
 11 12  1  0  0  0
 13  8  1  0  0  0
 14 13  1  0  0  0
 14 27  1  0  0  0
 14 28  1  0  0  0
 14 29  1  0  0  0
 15 24  1  0  0  0
 15 16  1  0  0  0
 16 17  1  0  0  0
 16  6  1  0  0  0
 18 19  1  0  0  0
 20 21  1  0  0  0
 22 17  1  0  0  0
 24 23  1  0  0  0
 24  7  1  0  0  0
 25  8  1  0  0  0
  6 23  2  0  0  0
  7 26  2  0  0  0
  8  9  2  0  0  0
 10 11  2  0  0  0
 12 13  2  0  0  0
 17 18  2  0  0  0
 19 20  2  0  0  0
 21 22  2  0  0  0
M  END
> <rmsd>
0.536319613

$$$$
CHEMBL235733_5ZTY


 32 36  0  0  0  0  0  0  0  0999 V2000
  132.9482  126.8954  100.5901 C   0  0  0  0  0
  133.7208  125.6974  100.0718 C   0  0  0  0  0
  133.1864  124.4136  100.6884 C   0  0  0  0  0
  131.8441  124.0216  100.0825 C   0  0  0  0  0
  132.0058  123.5150   98.6521 C   0  0  0  0  0
  133.9737  122.2302   98.1396 C   0  0  0  0  0
  134.7319  121.0560   98.0602 C   0  0  0  0  0
  136.1150  121.1434   97.5279 C   0  0  0  0  0
  138.3060  119.9577   96.9113 C   0  0  0  0  0
  139.2125  120.8487   97.7831 C   0  0  0  0  0
  140.6541  120.8145   97.2518 C   0  0  0  0  0
  141.1724  119.3680   97.2946 C   0  0  0  0  0
  140.2808  118.4668   96.4258 C   0  0  0  0  0
  140.7936  117.0435   96.4749 C   0  0  0  0  0
  140.3062  118.9755   94.9758 C   0  0  0  0  0
  139.7826  120.4193   94.9212 C   0  0  0  0  0
  139.8096  120.9169   93.4920 C   0  0  0  0  0
  140.6711  121.3165   95.7983 C   0  0  0  0  0
  138.3416  120.4544   95.4529 C   0  0  0  0  0
  138.8385  118.5153   96.9563 C   0  0  0  0  0
  134.1454  119.8473   98.4901 C   0  0  0  0  0
  132.8276  119.8483   98.9749 C   0  0  0  0  0
  132.2152  118.6579   99.3975 C   0  0  0  0  0
  130.9013  118.6659   99.8686 C   0  0  0  0  0
  130.1855  119.8624   99.9209 C   0  0  0  0  0
  130.7827  121.0537   99.5049 C   0  0  0  0  0
  132.1069  121.0658   99.0319 C   0  0  0  0  0
  132.7031  122.2304   98.6232 N   0  0  0  0  0
  136.9379  119.9731   97.4198 N   0  0  0  0  0
  136.5720  122.2628   97.1659 O   0  0  0  0  0
  134.7918  118.7644   98.4407 O   0  0  0  0  0
  128.5376  119.8708  100.5094 Cl  0  0  0  0  0
  1  2  1  0  0  0
  2  3  1  0  0  0
  3  4  1  0  0  0
  4  5  1  0  0  0
  5 28  1  0  0  0
  7  8  1  0  0  0
  7 21  1  0  0  0
  8 29  1  0  0  0
  9 29  1  0  0  0
  9 10  1  0  0  0
 11 10  1  0  0  0
 11 12  1  0  0  0
 12 13  1  0  0  0
 13 14  1  0  0  0
 13 15  1  0  0  0
 13 20  1  0  0  0
 15 16  1  0  0  0
 16 17  1  0  0  0
 16 18  1  0  0  0
 16 19  1  0  0  0
 18 11  1  0  0  0
 19  9  1  0  0  0
 20  9  1  0  0  0
 21 22  1  0  0  0
 23 24  1  0  0  0
 25 32  1  0  0  0
 25 26  1  0  0  0
 27 28  1  0  0  0
 27 22  1  0  0  0
 28  6  1  0  0  0
  6  7  2  0  0  0
  8 30  2  0  0  0
 21 31  2  0  0  0
 22 23  2  0  0  0
 24 25  2  0  0  0
 26 27  2  0  0  0
M  END
> <rmsd>
0.687785685

$$$$
CHEMBL1909843_5ZTY


 32 35  0  0  0  0  0  0  0  0999 V2000
  135.0196  119.3428   98.1135 C   0  0  0  0  0
  134.2752  120.6343   98.0619 C   0  0  0  0  0
  134.7644  121.8923   97.7405 C   0  0  0  0  0
  136.1190  122.2327   97.2770 C   0  0  0  0  0
  138.4390  121.5002   96.6082 C   0  0  0  0  0
  139.2196  120.2376   96.5116 C   0  0  0  0  0
  140.0049  119.8174   97.5889 C   0  0  0  0  0
  140.7177  118.6184   97.5084 C   0  0  0  0  0
  140.6451  117.8311   96.3545 C   0  0  0  0  0
  139.8488  118.2490   95.2736 C   0  0  0  0  0
  139.1375  119.4498   95.3593 C   0  0  0  0  0
  131.4611  122.8446   98.6271 C   0  0  0  0  0
  130.2687  122.2533   98.1804 C   0  0  0  0  0
  129.0397  122.8812   98.3899 C   0  0  0  0  0
  128.9890  124.1113   99.0463 C   0  0  0  0  0
  130.1665  124.7110   99.4970 C   0  0  0  0  0
  131.4023  124.0898   99.2900 C   0  0  0  0  0
  132.9703  120.8623   98.4491 C   0  0  0  0  0
  131.4517  119.9821  100.1831 C   0  0  0  0  0
  130.6664  118.8583  100.3791 C   0  0  0  0  0
  130.8172  118.0528   99.2595 C   0  0  0  0  0
  131.6955  118.7230   98.4360 C   0  0  0  0  0
  136.4131  123.4375   97.0498 O   0  0  0  0  0
  137.0952  121.2087   97.0804 N   0  0  0  0  0
  133.7959  122.8132   97.9320 N   0  0  0  0  0
  132.7148  122.1871   98.3750 N   0  0  0  0  0
  132.0728  119.8857   98.9953 N   0  0  0  0  0
  141.5580  116.3323   96.2978 Cl  0  0  0  0  0
  139.7184  117.2950   93.8054 Cl  0  0  0  0  0
  127.4492  124.8992   99.3109 Cl  0  0  0  0  0
  132.8363  124.8766   99.9307 Cl  0  0  0  0  0
  132.1633  118.1743   96.8347 Cl  0  0  0  0  0
  1  2  1  0  0  0
  2  3  1  0  0  0
  3  4  1  0  0  0
  4 24  1  0  0  0
  5 24  1  0  0  0
  5  6  1  0  0  0
  7  8  1  0  0  0
  9 28  1  0  0  0
  9 10  1  0  0  0
 10 29  1  0  0  0
 11  6  1  0  0  0
 13 14  1  0  0  0
 15 30  1  0  0  0
 15 16  1  0  0  0
 17 31  1  0  0  0
 17 12  1  0  0  0
 18 27  1  0  0  0
 20 21  1  0  0  0
 22 32  1  0  0  0
 22 27  1  0  0  0
 26 25  1  0  0  0
 26 12  1  0  0  0
 26 18  1  0  0  0
 27 19  1  0  0  0
  3 25  2  0  0  0
  4 23  2  0  0  0
  6  7  2  0  0  0
  8  9  2  0  0  0
 10 11  2  0  0  0
 12 13  2  0  0  0
 14 15  2  0  0  0
 16 17  2  0  0  0
 18  2  2  0  0  0
 19 20  2  0  0  0
 21 22  2  0  0  0
M  END
> <rmsd>
0.613757968

$$$$
CHEMBL1909851_8GUT


 34 37  0  0  0  0  0  0  0  0999 V2000
  134.1526  124.8987   95.8521 C   0  0  0  0  0
  134.1157  124.7181   97.3575 C   0  0  0  0  0
  134.0379  123.2665   97.7039 C   0  0  0  0  0
  135.0125  122.2858   97.5684 C   0  0  0  0  0
  136.3977  122.4582   97.1043 C   0  0  0  0  0
  138.6187  121.4148   96.5218 C   0  0  0  0  0
  139.2334  120.0608   96.4813 C   0  0  0  0  0
  139.1496  119.2889   95.3189 C   0  0  0  0  0
  139.7038  118.0065   95.2900 C   0  0  0  0  0
  140.3391  117.4874   96.4227 C   0  0  0  0  0
  140.4166  118.2599   97.5951 C   0  0  0  0  0
  139.8600  119.5426   97.6189 C   0  0  0  0  0
  132.4115  120.2387   98.8536 C   0  0  0  0  0
  131.5893  120.5156   99.9574 C   0  0  0  0  0
  130.7837  119.5208  100.5142 C   0  0  0  0  0
  130.7923  118.2344   99.9741 C   0  0  0  0  0
  131.6027  117.9443   98.8751 C   0  0  0  0  0
  132.4148  118.9341   98.3123 C   0  0  0  0  0
  132.9389  122.5887   98.1889 C   0  0  0  0  0
  131.3276  124.1573   99.2564 C   0  0  0  0  0
  132.2960  124.8346  100.1654 C   0  0  0  0  0
  129.9774  124.4460   99.2028 C   0  0  0  0  0
  129.4360  123.5757   98.2651 C   0  0  0  0  0
  130.4875  122.8031   97.8102 C   0  0  0  0  0
  130.3658  121.7580   96.7537 C   0  0  0  0  0
  136.8423  123.6057   96.8307 O   0  0  0  0  0
  137.2405  121.3128   96.9734 N   0  0  0  0  0
  134.5060  121.0938   97.9489 N   0  0  0  0  0
  133.2449  121.2785   98.3122 N   0  0  0  0  0
  131.6379  123.1545   98.4143 N   0  0  0  0  0
  141.0207  115.8713   96.3408 Cl  0  0  0  0  0
  141.1967  117.6528   99.0462 Cl  0  0  0  0  0
  129.7816  116.9866  100.6694 Cl  0  0  0  0  0
  133.3638  118.5099   96.8960 Cl  0  0  0  0  0
  1  2  1  0  0  0
  2  3  1  0  0  0
  3  4  1  0  0  0
  4  5  1  0  0  0
  5 27  1  0  0  0
  6 27  1  0  0  0
  6  7  1  0  0  0
  8  9  1  0  0  0
 10 31  1  0  0  0
 10 11  1  0  0  0
 11 32  1  0  0  0
 12  7  1  0  0  0
 14 15  1  0  0  0
 16 33  1  0  0  0
 16 17  1  0  0  0
 18 34  1  0  0  0
 18 13  1  0  0  0
 19 30  1  0  0  0
 21 20  1  0  0  0
 22 23  1  0  0  0
 24 30  1  0  0  0
 25 24  1  0  0  0
 29 28  1  0  0  0
 29 13  1  0  0  0
 29 19  1  0  0  0
 30 20  1  0  0  0
  4 28  2  0  0  0
  5 26  2  0  0  0
  7  8  2  0  0  0
  9 10  2  0  0  0
 11 12  2  0  0  0
 13 14  2  0  0  0
 15 16  2  0  0  0
 17 18  2  0  0  0
 19  3  2  0  0  0
 20 22  2  0  0  0
 23 24  2  0  0  0
M  END
> <rmsd>
0.715393126

$$$$
CHEMBL5093228_5ZTY


 33 36  0  0  0  0  0  0  0  0999 V2000
  135.5799  120.9331   98.0350 N   0  0  0  0  0
  137.9153  121.2966   97.6970 N   0  0  0  0  0
  139.4860  123.5294   98.5755 N   0  0  0  0  0
  137.0681  119.0953   97.3550 N   0  0  0  0  0
  138.0627  117.0981   96.6279 N   0  0  0  0  0
  134.6732  120.0951   98.6809 N   0  0  0  0  0
  136.8922  120.4890   97.6687 C   0  0  0  0  0
  140.3392  123.5962   97.3794 C   0  0  0  0  0
  140.8077  122.2204   96.9074 C   0  0  0  0  0
  141.5145  121.5012   98.0428 C   0  0  0  0  0
  140.5579  121.3619   99.2138 C   0  0  0  0  0
  140.0869  122.7449   99.6653 C   0  0  0  0  0
  138.1077  118.5034   96.8405 C   0  0  0  0  0
  139.3326  119.2413   96.4160 C   0  0  0  0  0
  134.8958  122.0598   97.4219 C   0  0  0  0  0
  133.4474  121.9035   97.8914 C   0  0  0  0  0
  133.0555  123.0459   98.7828 C   0  0  0  0  0
  131.9886  123.8669   98.4014 C   0  0  0  0  0
  131.6006  124.9393   99.2101 C   0  0  0  0  0
  132.2798  125.1964  100.4045 C   0  0  0  0  0
  133.3479  124.3820  100.7910 C   0  0  0  0  0
  133.7362  123.3097   99.9833 C   0  0  0  0  0
  133.4885  120.5991   98.6362 C   0  0  0  0  0
  132.3157  119.9214   99.2206 C   0  0  0  0  0
  131.0329  120.4684   99.0721 C   0  0  0  0  0
  129.9217  119.8270   99.6266 C   0  0  0  0  0
  130.0854  118.6326  100.3330 C   0  0  0  0  0
  131.3594  118.0791  100.4845 C   0  0  0  0  0
  132.4705  118.7210   99.9301 C   0  0  0  0  0
  137.8836  122.9644   98.1892 S   0  0  0  0  0
  137.3219  123.8063   97.0776 O   0  0  0  0  0
  137.0234  123.1145   99.4131 O   0  0  0  0  0
  128.6942  117.8293  101.0275 Cl  0  0  0  0  0
  1  7  1  0  0  0
  1  6  1  0  0  0
  7  4  1  0  0  0
  8  3  1  0  0  0
  8  9  1  0  0  0
  9 10  1  0  0  0
 10 11  1  0  0  0
 11 12  1  0  0  0
 12  3  1  0  0  0
 13  5  1  0  0  0
 14 13  1  0  0  0
 15  1  1  0  0  0
 15 16  1  0  0  0
 16 17  1  0  0  0
 16 23  1  0  0  0
 18 19  1  0  0  0
 20 21  1  0  0  0
 22 17  1  0  0  0
 23 24  1  0  0  0
 25 26  1  0  0  0
 27 33  1  0  0  0
 27 28  1  0  0  0
 29 24  1  0  0  0
 30  2  1  0  0  0
 30  3  1  0  0  0
  7  2  2  0  0  0
 13  4  2  0  0  0
 17 18  2  0  0  0
 19 20  2  0  0  0
 21 22  2  0  0  0
 23  6  2  0  0  0
 24 25  2  0  0  0
 26 27  2  0  0  0
 28 29  2  0  0  0
 30 31  2  0  0  0
 30 32  2  0  0  0
M  END
> <rmsd>
0.515446603

$$$$
CHEMBL1909850_5ZTY


 29 32  0  0  0  0  0  0  0  0999 V2000
  134.7066  119.0177   96.0963 C   0  0  0  0  0
  134.9764  119.2050   97.5771 C   0  0  0  0  0
  134.7335  120.6265   97.9733 C   0  0  0  0  0
  135.5046  121.7464   97.6814 C   0  0  0  0  0
  136.7857  121.7914   96.9573 C   0  0  0  0  0
  138.6998  120.5654   95.8310 C   0  0  0  0  0
  139.8362  120.8606   96.8168 C   0  0  0  0  0
  140.0008  119.7280   97.8297 C   0  0  0  0  0
  140.2523  118.4084   97.1078 C   0  0  0  0  0
  139.0884  118.0930   96.1740 C   0  0  0  0  0
  138.9164  119.2130   95.1480 C   0  0  0  0  0
  132.9413  123.3864   99.4863 C   0  0  0  0  0
  132.3175  124.4086   98.7597 C   0  0  0  0  0
  131.4839  125.3259   99.4038 C   0  0  0  0  0
  131.2753  125.2321  100.7815 C   0  0  0  0  0
  131.9115  124.2302  101.5181 C   0  0  0  0  0
  132.7471  123.3084  100.8805 C   0  0  0  0  0
  133.6552  121.1248   98.6855 C   0  0  0  0  0
  132.5008  119.0427   99.3760 C   0  0  0  0  0
  131.2368  118.6692   99.7874 C   0  0  0  0  0
  130.4669  119.8199   99.7989 C   0  0  0  0  0
  131.2908  120.8508   99.3938 C   0  0  0  0  0
  137.3372  122.9045   96.7422 O   0  0  0  0  0
  137.4086  120.5859   96.5074 N   0  0  0  0  0
  134.9111  122.8454   98.1917 N   0  0  0  0  0
  133.7984  122.4657   98.8008 N   0  0  0  0  0
  132.5205  120.3672   99.1466 N   0  0  0  0  0
  130.2294  126.3801  101.5881 Cl  0  0  0  0  0
  133.5680  122.1038  101.8606 Cl  0  0  0  0  0
  1  2  1  0  0  0
  2  3  1  0  0  0
  3  4  1  0  0  0
  4  5  1  0  0  0
  5 24  1  0  0  0
  6 24  1  0  0  0
  6  7  1  0  0  0
  7  8  1  0  0  0
  8  9  1  0  0  0
  9 10  1  0  0  0
 10 11  1  0  0  0
 11  6  1  0  0  0
 13 14  1  0  0  0
 15 28  1  0  0  0
 15 16  1  0  0  0
 17 29  1  0  0  0
 17 12  1  0  0  0
 18 27  1  0  0  0
 20 21  1  0  0  0
 22 27  1  0  0  0
 26 25  1  0  0  0
 26 12  1  0  0  0
 26 18  1  0  0  0
 27 19  1  0  0  0
  4 25  2  0  0  0
  5 23  2  0  0  0
 12 13  2  0  0  0
 14 15  2  0  0  0
 16 17  2  0  0  0
 18  3  2  0  0  0
 19 20  2  0  0  0
 21 22  2  0  0  0
M  END
> <rmsd>
0.633018374

$$$$
CHEMBL1223646_5ZTY


 25 27  0  0  0  0  0  0  0  0999 V2000
  134.0845  127.0675  100.1302 C   0  0  0  0  0
  132.9182  126.1282   99.9090 C   0  0  0  0  0
  133.3339  124.7141  100.2673 C   0  0  0  0  0
  132.1835  123.7461  100.0351 C   0  0  0  0  0
  131.9443  123.5032   98.5495 C   0  0  0  0  0
  132.9641  122.5708   97.9801 C   0  0  0  0  0
  136.2975  121.8750   96.9798 C   0  0  0  0  0
  138.3662  120.7009   96.1075 C   0  0  0  0  0
  139.1469  120.5433   97.4245 C   0  0  0  0  0
  139.4584  119.0787   97.7215 C   0  0  0  0  0
  140.3262  118.4590   96.6178 C   0  0  0  0  0
  140.0835  119.0694   95.2304 C   0  0  0  0  0
  138.6544  119.5858   95.0932 C   0  0  0  0  0
  134.0181  120.7210   96.9530 C   0  0  0  0  0
  132.6528  121.2002   97.4586 C   0  0  0  0  0
  132.1320  120.2982   98.5384 C   0  0  0  0  0
  130.8933  119.6727   98.3593 C   0  0  0  0  0
  130.3811  118.8278   99.3487 C   0  0  0  0  0
  131.1068  118.6043  100.5223 C   0  0  0  0  0
  132.3455  119.2248  100.7077 C   0  0  0  0  0
  132.8584  120.0693   99.7192 C   0  0  0  0  0
  134.2023  122.8936   97.8410 N   0  0  0  0  0
  134.8944  121.8412   97.2465 N   0  0  0  0  0
  136.9359  120.7478   96.3731 N   0  0  0  0  0
  136.9680  122.9001   97.2783 O   0  0  0  0  0
  1  2  1  0  0  0
  2  3  1  0  0  0
  3  4  1  0  0  0
  4  5  1  0  0  0
  5  6  1  0  0  0
  7 24  1  0  0  0
  8 24  1  0  0  0
  8  9  1  0  0  0
  9 10  1  0  0  0
 10 11  1  0  0  0
 11 12  1  0  0  0
 12 13  1  0  0  0
 13  8  1  0  0  0
 14 23  1  0  0  0
 14 15  1  0  0  0
 15 16  1  0  0  0
 15  6  1  0  0  0
 17 18  1  0  0  0
 19 20  1  0  0  0
 21 16  1  0  0  0
 23 22  1  0  0  0
 23  7  1  0  0  0
  6 22  2  0  0  0
  7 25  2  0  0  0
 16 17  2  0  0  0
 18 19  2  0  0  0
 20 21  2  0  0  0
M  END
> <rmsd>
0.288927794

$$$$
CHEMBL3914978_8GUT


 31 35  0  0  0  0  0  0  0  0999 V2000
  138.5189  119.8315   96.4987 C   0  0  0  0  0
  137.6772  120.9861   96.9088 C   0  0  0  0  0
  136.0566  122.2038   97.3933 C   0  0  0  0  0
  134.6619  122.7389   97.5513 C   0  0  0  0  0
  134.5997  123.8511   98.5947 C   0  0  0  0  0
  133.2684  124.5751   98.5253 C   0  0  0  0  0
  133.2376  125.6450   99.5966 C   0  0  0  0  0
  132.5059  124.3384   99.8139 C   0  0  0  0  0
  133.7484  120.8866   99.0721 C   0  0  0  0  0
  132.7560  119.8235   99.2869 C   0  0  0  0  0
  131.8918  118.0926  100.6806 C   0  0  0  0  0
  130.8868  117.8006   99.7347 C   0  0  0  0  0
  130.8601  118.5349   98.5422 C   0  0  0  0  0
  131.7867  119.5511   98.3177 C   0  0  0  0  0
  129.9140  116.6694   99.9386 C   0  0  0  0  0
  128.4927  117.0955   99.6023 C   0  0  0  0  0
  128.9320  117.0189  101.0454 C   0  0  0  0  0
  132.0330  117.2988  101.9417 C   0  0  0  0  0
  133.0671  116.2362  101.7810 C   0  0  0  0  0
  134.4082  116.5157  102.0663 C   0  0  0  0  0
  135.3813  115.5265  101.8957 C   0  0  0  0  0
  135.0151  114.2577  101.4369 C   0  0  0  0  0
  133.6756  113.9776  101.1486 C   0  0  0  0  0
  132.7022  114.9666  101.3186 C   0  0  0  0  0
  136.3332  120.9534   96.9630 N   0  0  0  0  0
  137.1689  122.9496   97.5568 N   0  0  0  0  0
  133.7166  121.6683   97.8699 N   0  0  0  0  0
  132.7866  119.0872  100.4310 N   0  0  0  0  0
  138.1509  122.1559   97.2557 O   0  0  0  0  0
  134.6282  121.1057   99.9486 O   0  0  0  0  0
  135.9575  113.2990  101.2728 F   0  0  0  0  0
  1  2  1  0  0  0
  2 29  1  0  0  0
  3 25  1  0  0  0
  4  3  1  0  0  0
  4  5  1  0  0  0
  4 27  1  0  0  0
  5  6  1  0  0  0
  6  7  1  0  0  0
  7  8  1  0  0  0
  8  6  1  0  0  0
  9 10  1  0  0  0
 11 28  1  0  0  0
 12 13  1  0  0  0
 14 10  1  0  0  0
 15 12  1  0  0  0
 15 16  1  0  0  0
 16 17  1  0  0  0
 17 15  1  0  0  0
 18 11  1  0  0  0
 18 19  1  0  0  0
 20 21  1  0  0  0
 22 23  1  0  0  0
 22 31  1  0  0  0
 24 19  1  0  0  0
 26 29  1  0  0  0
 27  9  1  0  0  0
  2 25  2  0  0  0
  3 26  2  0  0  0
  9 30  2  0  0  0
 10 28  2  0  0  0
 11 12  2  0  0  0
 13 14  2  0  0  0
 19 20  2  0  0  0
 21 22  2  0  0  0
 23 24  2  0  0  0
M  END
> <rmsd>
0.611420333

$$$$
CHEMBL3930443_8GUT


 24 27  0  0  0  0  0  0  0  0999 V2000
  133.0237  124.9305   98.9988 C   0  0  0  0  0
  131.8356  124.8328   99.9318 C   0  0  0  0  0
  132.5301  123.5742   99.4559 C   0  0  0  0  0
  131.7109  122.9445   98.3436 C   0  0  0  0  0
  131.8088  120.5738   99.0598 C   0  0  0  0  0
  131.1412  119.4332   99.5413 C   0  0  0  0  0
  131.8925  118.2880   99.8336 C   0  0  0  0  0
  133.2688  118.2733   99.6118 C   0  0  0  0  0
  133.8954  119.4169   99.1068 C   0  0  0  0  0
  135.3451  119.4320   98.8623 C   0  0  0  0  0
  137.3825  120.6987   98.0369 C   0  0  0  0  0
  137.6177  120.2015   96.6153 C   0  0  0  0  0
  139.0542  119.7365   96.4676 C   0  0  0  0  0
  137.9456  118.7214   96.6367 C   0  0  0  0  0
  137.8482  122.1119   98.1786 C   0  0  0  0  0
  129.6659  119.4591   99.8287 C   0  0  0  0  0
  128.9686  118.2588   99.2067 C   0  0  0  0  0
  128.8820  119.6085   98.5350 C   0  0  0  0  0
  131.0913  121.7469   98.7991 O   0  0  0  0  0
  136.0398  118.4063   99.1000 O   0  0  0  0  0
  137.3250  123.0312   97.4940 O   0  0  0  0  0
  133.1549  120.5292   98.8496 N   0  0  0  0  0
  135.9654  120.6212   98.3656 N   0  0  0  0  0
  138.8879  122.4211   99.0984 N   0  0  0  0  0
  1  2  1  0  0  0
  2  3  1  0  0  0
  3  4  1  0  0  0
  3  1  1  0  0  0
  4 19  1  0  0  0
  5 19  1  0  0  0
  5  6  1  0  0  0
  7  8  1  0  0  0
  9 22  1  0  0  0
  9 10  1  0  0  0
 10 23  1  0  0  0
 11 23  1  0  0  0
 11 12  1  0  0  0
 11 15  1  0  0  0
 12 13  1  0  0  0
 13 14  1  0  0  0
 14 12  1  0  0  0
 15 24  1  0  0  0
 16  6  1  0  0  0
 16 17  1  0  0  0
 17 18  1  0  0  0
 18 16  1  0  0  0
  5 22  2  0  0  0
  6  7  2  0  0  0
  8  9  2  0  0  0
 10 20  2  0  0  0
 15 21  2  0  0  0
M  END
> <rmsd>
0.797686934

$$$$
CHEMBL1909860_8GUQ


 29 32  0  0  0  0  0  0  0  0999 V2000
  135.8033  125.1857   99.4016 C   0  0  0  0  0
  135.4044  124.6568   98.0369 C   0  0  0  0  0
  134.9129  123.2488   98.1470 C   0  0  0  0  0
  135.5320  122.0982   97.6830 C   0  0  0  0  0
  136.8034  122.0042   96.9494 C   0  0  0  0  0
  138.5672  120.5381   95.8693 C   0  0  0  0  0
  138.6246  119.1302   95.2556 C   0  0  0  0  0
  139.4897  118.1416   96.0460 C   0  0  0  0  0
  139.3360  118.3694   97.5453 C   0  0  0  0  0
  139.8214  119.7660   97.9538 C   0  0  0  0  0
  139.7410  120.8012   96.8214 C   0  0  0  0  0
  132.6794  120.5534   99.1102 C   0  0  0  0  0
  132.9880  119.2287   99.4470 C   0  0  0  0  0
  131.9781  118.3416   99.8277 C   0  0  0  0  0
  130.6466  118.7647   99.8663 C   0  0  0  0  0
  130.3249  120.0854   99.5116 C   0  0  0  0  0
  131.3396  120.9669   99.1292 C   0  0  0  0  0
  133.7670  122.7940   98.7754 C   0  0  0  0  0
  132.3530  123.3250  100.7367 C   0  0  0  0  0
  131.5491  124.3687  101.1503 C   0  0  0  0  0
  131.5768  125.3172  100.1404 C   0  0  0  0  0
  132.3965  124.8168   99.1478 C   0  0  0  0  0
  137.4534  123.0459   96.6634 O   0  0  0  0  0
  137.2967  120.7202   96.5594 N   0  0  0  0  0
  134.7925  121.0216   98.0209 N   0  0  0  0  0
  133.7227  121.4434   98.6808 N   0  0  0  0  0
  132.8463  123.6066   99.5189 N   0  0  0  0  0
  129.4104  117.6168  100.3533 Cl  0  0  0  0  0
  128.6686  120.6669   99.5319 Cl  0  0  0  0  0
  1  2  1  0  0  0
  2  3  1  0  0  0
  3  4  1  0  0  0
  4  5  1  0  0  0
  5 24  1  0  0  0
  6 24  1  0  0  0
  6  7  1  0  0  0
  7  8  1  0  0  0
  8  9  1  0  0  0
  9 10  1  0  0  0
 10 11  1  0  0  0
 11  6  1  0  0  0
 13 14  1  0  0  0
 15 28  1  0  0  0
 15 16  1  0  0  0
 16 29  1  0  0  0
 17 12  1  0  0  0
 18 27  1  0  0  0
 20 21  1  0  0  0
 22 27  1  0  0  0
 26 25  1  0  0  0
 26 12  1  0  0  0
 26 18  1  0  0  0
 27 19  1  0  0  0
  4 25  2  0  0  0
  5 23  2  0  0  0
 12 13  2  0  0  0
 14 15  2  0  0  0
 16 17  2  0  0  0
 18  3  2  0  0  0
 19 20  2  0  0  0
 21 22  2  0  0  0
M  END
> <rmsd>
0.619261503

$$$$
CHEMBL1909957_8GUQ


 31 34  0  0  0  0  0  0  0  0999 V2000
  135.2529  125.1634   96.6513 C   0  0  0  0  0
  135.3015  124.6582   98.0804 C   0  0  0  0  0
  134.8064  123.2499   98.1501 C   0  0  0  0  0
  135.4339  122.0849   97.7280 C   0  0  0  0  0
  136.7408  121.9612   97.0635 C   0  0  0  0  0
  138.5095  120.4556   96.0519 C   0  0  0  0  0
  139.6362  120.6545   97.0811 C   0  0  0  0  0
  140.0599  119.3311   97.7134 C   0  0  0  0  0
  140.5952  118.3552   96.6569 C   0  0  0  0  0
  139.9521  118.5332   95.2745 C   0  0  0  0  0
  138.5289  119.0712   95.3894 C   0  0  0  0  0
  132.5477  120.5896   99.1557 C   0  0  0  0  0
  131.2603  121.0761   99.4265 C   0  0  0  0  0
  130.2518  120.2129   99.8593 C   0  0  0  0  0
  130.5134  118.8499  100.0207 C   0  0  0  0  0
  131.7957  118.3490   99.7406 C   0  0  0  0  0
  132.8007  119.2188   99.3076 C   0  0  0  0  0
  133.6481  122.8122   98.7570 C   0  0  0  0  0
  132.5315  123.6565  100.8130 C   0  0  0  0  0
  133.2425  122.7782  101.7855 C   0  0  0  0  0
  131.6021  124.6175  101.1627 C   0  0  0  0  0
  131.2146  125.2260   99.9749 C   0  0  0  0  0
  131.9359  124.6029   98.9740 C   0  0  0  0  0
  131.8208  124.9295   97.5243 C   0  0  0  0  0
  137.4428  122.9835   96.8377 O   0  0  0  0  0
  137.2128  120.6675   96.6782 N   0  0  0  0  0
  134.6752  121.0203   98.0640 N   0  0  0  0  0
  133.5920  121.4623   98.6880 N   0  0  0  0  0
  132.7292  123.6429   99.4821 N   0  0  0  0  0
  129.2160  117.8011  100.5680 Cl  0  0  0  0  0
  132.1758  116.6441   99.9180 Cl  0  0  0  0  0
  1  2  1  0  0  0
  2  3  1  0  0  0
  3  4  1  0  0  0
  4  5  1  0  0  0
  5 26  1  0  0  0
  6 26  1  0  0  0
  6  7  1  0  0  0
  7  8  1  0  0  0
  8  9  1  0  0  0
  9 10  1  0  0  0
 10 11  1  0  0  0
 11  6  1  0  0  0
 13 14  1  0  0  0
 15 30  1  0  0  0
 15 16  1  0  0  0
 16 31  1  0  0  0
 17 12  1  0  0  0
 18 29  1  0  0  0
 20 19  1  0  0  0
 21 22  1  0  0  0
 23 29  1  0  0  0
 24 23  1  0  0  0
 28 27  1  0  0  0
 28 12  1  0  0  0
 28 18  1  0  0  0
 29 19  1  0  0  0
  4 27  2  0  0  0
  5 25  2  0  0  0
 12 13  2  0  0  0
 14 15  2  0  0  0
 16 17  2  0  0  0
 18  3  2  0  0  0
 19 21  2  0  0  0
 22 23  2  0  0  0
M  END
> <rmsd>
0.675277948

$$$$
CHEMBL1909855_5ZTY


 32 35  0  0  0  0  0  0  0  0999 V2000
  135.6956  123.6814   99.4483 C   0  0  0  0  0
  134.8762  122.5082   99.0286 C   0  0  0  0  0
  135.1176  121.6265   97.9870 C   0  0  0  0  0
  136.2035  121.6928   96.9974 C   0  0  0  0  0
  137.3957  120.6273   95.0297 C   0  0  0  0  0
  138.6484  120.1337   95.6704 C   0  0  0  0  0
  138.8171  118.7686   95.9218 C   0  0  0  0  0
  139.9838  118.3104   96.5393 C   0  0  0  0  0
  140.9856  119.2126   96.9113 C   0  0  0  0  0
  140.8154  120.5860   96.6625 C   0  0  0  0  0
  139.6460  121.0392   96.0440 C   0  0  0  0  0
  132.2622  120.0082   99.3371 C   0  0  0  0  0
  131.1695  120.4839  100.0764 C   0  0  0  0  0
  130.0732  119.6580  100.3334 C   0  0  0  0  0
  130.0498  118.3480   99.8480 C   0  0  0  0  0
  131.1325  117.8654   99.0940 C   0  0  0  0  0
  132.2268  118.6976   98.8402 C   0  0  0  0  0
  133.7711  121.9890   99.6708 C   0  0  0  0  0
  133.2053  121.7698  102.0632 C   0  0  0  0  0
  132.6574  122.5635  103.0576 C   0  0  0  0  0
  132.3514  123.7891  102.4827 C   0  0  0  0  0
  132.7326  123.6842  101.1628 C   0  0  0  0  0
  137.0293  122.6452   97.0213 O   0  0  0  0  0
  136.3123  120.6714   96.0024 N   0  0  0  0  0
  134.2006  120.6365   98.0154 N   0  0  0  0  0
  133.3857  120.8560   99.0385 N   0  0  0  0  0
  133.2367  122.4642  100.9131 N   0  0  0  0  0
  142.4342  118.5919   97.6854 Cl  0  0  0  0  0
  142.0396  121.7607   97.1134 Cl  0  0  0  0  0
  128.6517  117.3445  100.1959 Cl  0  0  0  0  0
  131.1497  116.2315   98.4516 Cl  0  0  0  0  0
  132.5242  124.9502   99.9643 Cl  0  0  0  0  0
  1  2  1  0  0  0
  2  3  1  0  0  0
  3  4  1  0  0  0
  4 24  1  0  0  0
  5 24  1  0  0  0
  5  6  1  0  0  0
  7  8  1  0  0  0
  9 28  1  0  0  0
  9 10  1  0  0  0
 10 29  1  0  0  0
 11  6  1  0  0  0
 13 14  1  0  0  0
 15 30  1  0  0  0
 15 16  1  0  0  0
 16 31  1  0  0  0
 17 12  1  0  0  0
 18 27  1  0  0  0
 20 21  1  0  0  0
 22 32  1  0  0  0
 22 27  1  0  0  0
 26 25  1  0  0  0
 26 12  1  0  0  0
 26 18  1  0  0  0
 27 19  1  0  0  0
  3 25  2  0  0  0
  4 23  2  0  0  0
  6  7  2  0  0  0
  8  9  2  0  0  0
 10 11  2  0  0  0
 12 13  2  0  0  0
 14 15  2  0  0  0
 16 17  2  0  0  0
 18  2  2  0  0  0
 19 20  2  0  0  0
 21 22  2  0  0  0
M  END
> <rmsd>
0.621872962

$$$$
CHEMBL374791_8GUQ


 30 32  0  0  0  0  0  0  0  0999 V2000
  135.0468  118.0552   99.6341 C   0  0  0  0  0
  135.0304  119.2387   98.6816 C   0  0  0  0  0
  137.0684  119.7955   97.2969 C   0  0  0  0  0
  138.4433  120.4084   97.2244 C   0  0  0  0  0
  138.8464  120.7302   95.7893 C   0  0  0  0  0
  139.4408  119.4063   97.7706 C   0  0  0  0  0
  137.7450  122.7478   97.8154 C   0  0  0  0  0
  137.8789  123.8231   98.6975 C   0  0  0  0  0
  137.1219  124.9779   98.4916 C   0  0  0  0  0
  136.2413  125.0490   97.4114 C   0  0  0  0  0
  136.1326  123.9565   96.5490 C   0  0  0  0  0
  134.1013  120.3421   99.2006 C   0  0  0  0  0
  134.1771  121.5801   98.3078 C   0  0  0  0  0
  133.7619  122.8081   99.0455 C   0  0  0  0  0
  132.6389  123.5243   98.6197 C   0  0  0  0  0
  132.2572  124.6906   99.2894 C   0  0  0  0  0
  133.0009  125.1442  100.3831 C   0  0  0  0  0
  134.1271  124.4327  100.8071 C   0  0  0  0  0
  134.5089  123.2665  100.1381 C   0  0  0  0  0
  132.6790  119.8737   99.3214 C   0  0  0  0  0
  132.0594  119.8912  100.5760 C   0  0  0  0  0
  130.7340  119.4675  100.7115 C   0  0  0  0  0
  130.0231  119.0250   99.5921 C   0  0  0  0  0
  130.6367  119.0062   98.3362 C   0  0  0  0  0
  131.9616  119.4298   98.1994 C   0  0  0  0  0
  136.3870  119.7509   98.5529 N   0  0  0  0  0
  136.8783  122.8398   96.7663 N   0  0  0  0  0
  136.5341  119.2885   96.2718 O   0  0  0  0  0
  138.5093  121.5912   98.0283 O   0  0  0  0  0
  132.5236  126.6053  101.2196 Cl  0  0  0  0  0
  2  1  1  0  0  0
  2 26  1  0  0  0
  2 12  1  0  0  0
  4  3  1  0  0  0
  4  5  1  0  0  0
  4  6  1  0  0  0
  4 29  1  0  0  0
  7 29  1  0  0  0
  7 27  1  0  0  0
  8  9  1  0  0  0
 10 11  1  0  0  0
 12 13  1  0  0  0
 12 20  1  0  0  0
 13 14  1  0  0  0
 15 16  1  0  0  0
 17 30  1  0  0  0
 17 18  1  0  0  0
 19 14  1  0  0  0
 21 22  1  0  0  0
 23 24  1  0  0  0
 25 20  1  0  0  0
 26  3  1  0  0  0
  3 28  2  0  0  0
  7  8  2  0  0  0
  9 10  2  0  0  0
 11 27  2  0  0  0
 14 15  2  0  0  0
 16 17  2  0  0  0
 18 19  2  0  0  0
 20 21  2  0  0  0
 22 23  2  0  0  0
 24 25  2  0  0  0
M  END
> <rmsd>
0.575699329

$$$$
CHEMBL4649714_5ZTY


 30 34  0  0  0  0  0  0  0  0999 V2000
  132.8348  120.0671   98.9805 C   0  0  0  0  0
  134.0647  120.0342   98.3417 C   0  0  0  0  0
  134.9026  121.1745   98.4565 C   0  0  0  0  0
  134.4348  122.2961   99.2162 C   0  0  0  0  0
  132.4314  121.1540   99.6874 C   0  0  0  0  0
  131.1756  120.8700  100.1839 C   0  0  0  0  0
  129.6659  118.9030  100.0219 C   0  0  0  0  0
  132.7092  123.4175  100.5841 C   0  0  0  0  0
  131.7239  124.2399   99.7648 C   0  0  0  0  0
  132.4456  125.0048   98.6724 C   0  0  0  0  0
  131.4405  125.7944   97.8614 C   0  0  0  0  0
  136.2374  121.2007   97.7986 C   0  0  0  0  0
  138.2157  119.8838   96.8293 C   0  0  0  0  0
  139.2927  120.5648   97.6963 C   0  0  0  0  0
  140.6665  120.4498   97.0170 C   0  0  0  0  0
  140.6069  121.1216   95.6349 C   0  0  0  0  0
  139.5465  120.4342   94.7586 C   0  0  0  0  0
  138.1737  120.5492   95.4398 C   0  0  0  0  0
  139.9063  118.9485   94.5984 C   0  0  0  0  0
  139.9563  118.2715   95.9772 C   0  0  0  0  0
  141.0199  118.9641   96.8438 C   0  0  0  0  0
  138.5836  118.4002   96.6571 C   0  0  0  0  0
  135.1682  123.3149   99.3513 O   0  0  0  0  0
  136.7868  122.3030   97.5262 O   0  0  0  0  0
  140.2796  116.9244   95.8261 O   0  0  0  0  0
  134.4320  118.9137   97.6036 O   0  0  0  0  0
  133.1965  122.2704   99.8170 N   0  0  0  0  0
  130.8951  119.6204   99.7422 N   0  0  0  0  0
  131.8855  119.1187   99.0118 N   0  0  0  0  0
  136.9102  119.9754   97.4760 N   0  0  0  0  0
  1  2  1  0  0  0
  2 26  1  0  0  0
  3  4  1  0  0  0
  3 12  1  0  0  0
  4 27  1  0  0  0
  5  1  1  0  0  0
  6 28  1  0  0  0
  7 28  1  0  0  0
  8 27  1  0  0  0
  8  9  1  0  0  0
  9 10  1  0  0  0
 10 11  1  0  0  0
 12 30  1  0  0  0
 13 30  1  0  0  0
 13 14  1  0  0  0
 14 15  1  0  0  0
 15 16  1  0  0  0
 16 17  1  0  0  0
 17 18  1  0  0  0
 17 19  1  0  0  0
 18 13  1  0  0  0
 19 20  1  0  0  0
 20 21  1  0  0  0
 20 22  1  0  0  0
 20 25  1  0  0  0
 21 15  1  0  0  0
 22 13  1  0  0  0
 27  5  1  0  0  0
 28 29  1  0  0  0
  1 29  2  0  0  0
  2  3  2  0  0  0
  4 23  2  0  0  0
  5  6  2  0  0  0
 12 24  2  0  0  0
M  END
> <rmsd>
0.812478364

$$$$
CHEMBL3409151_8GUS


 25 27  0  0  0  0  0  0  0  0999 V2000
  131.3646  117.9024   99.7314 C   0  0  0  0  0
  130.4261  118.9267   99.6871 C   0  0  0  0  0
  130.7816  120.2217   99.2770 C   0  0  0  0  0
  132.1322  120.4976   98.9083 C   0  0  0  0  0
  133.0755  119.4325   98.9465 C   0  0  0  0  0
  132.6797  118.1535   99.3605 C   0  0  0  0  0
  134.4080  119.6603   98.5653 C   0  0  0  0  0
  134.8046  120.9426   98.1456 C   0  0  0  0  0
  133.8497  121.9604   98.1339 C   0  0  0  0  0
  131.6968  122.9259   98.4740 C   0  0  0  0  0
  131.6621  123.6184   99.8342 C   0  0  0  0  0
  132.9610  124.3547  100.1230 C   0  0  0  0  0
  133.0566  125.6119   99.2796 C   0  0  0  0  0
  136.1897  121.2684   97.7206 C   0  0  0  0  0
  138.5758  120.5354   97.2777 C   0  0  0  0  0
  138.6248  120.6366   95.7631 C   0  0  0  0  0
  139.8364  119.8430   95.3338 C   0  0  0  0  0
  139.9913  118.7673   96.3818 C   0  0  0  0  0
  139.4742  119.3752   97.6695 C   0  0  0  0  0
  128.4412  120.9923   99.5870 C   0  0  0  0  0
  135.2396  118.7111   98.6001 O   0  0  0  0  0
  136.4704  122.4451   97.3608 O   0  0  0  0  0
  129.7986  121.2182   99.2286 O   0  0  0  0  0
  132.5599  121.7477   98.5095 N   0  0  0  0  0
  137.2139  120.2683   97.7155 N   0  0  0  0  0
  2  3  1  0  0  0
  3 23  1  0  0  0
  4  5  1  0  0  0
  5  7  1  0  0  0
  6  1  1  0  0  0
  7  8  1  0  0  0
  8 14  1  0  0  0
  9 24  1  0  0  0
 10 24  1  0  0  0
 10 11  1  0  0  0
 11 12  1  0  0  0
 12 13  1  0  0  0
 14 25  1  0  0  0
 15 25  1  0  0  0
 15 16  1  0  0  0
 16 17  1  0  0  0
 17 18  1  0  0  0
 18 19  1  0  0  0
 19 15  1  0  0  0
 20 23  1  0  0  0
 24  4  1  0  0  0
  1  2  2  0  0  0
  3  4  2  0  0  0
  5  6  2  0  0  0
  7 21  2  0  0  0
  8  9  2  0  0  0
 14 22  2  0  0  0
M  END
> <rmsd>
0.573152006

$$$$
CHEMBL2152803_5ZTY


 30 33  0  0  0  0  0  0  0  0999 V2000
  131.4757  126.7516  100.2100 C   0  0  0  0  0
  131.5403  125.6886   99.1291 C   0  0  0  0  0
  132.7373  124.7813   99.3484 C   0  0  0  0  0
  132.4694  123.8171  100.4921 C   0  0  0  0  0
  133.6592  122.8882  100.6935 C   0  0  0  0  0
  134.8048  122.0958   98.7320 C   0  0  0  0  0
  135.0095  121.2308   97.6503 C   0  0  0  0  0
  136.1600  121.4875   96.7483 C   0  0  0  0  0
  137.5576  120.8389   94.7307 C   0  0  0  0  0
  137.3010  120.2907   93.3025 C   0  0  0  0  0
  135.9575  119.5826   93.1386 C   0  0  0  0  0
  137.3595  121.4226   92.2858 C   0  0  0  0  0
  138.4429  119.2658   93.1134 C   0  0  0  0  0
  139.7851  120.0087   93.0285 C   0  0  0  0  0
  139.9985  120.5298   94.4513 C   0  0  0  0  0
  138.7712  120.0068   95.1809 C   0  0  0  0  0
  138.9911  119.8925   96.6798 C   0  0  0  0  0
  138.5493  118.6886   94.5017 C   0  0  0  0  0
  134.1140  120.1558   97.4707 C   0  0  0  0  0
  133.0542  119.9762   98.3740 C   0  0  0  0  0
  132.1559  118.9076   98.2260 C   0  0  0  0  0
  131.1112  118.7297   99.1345 C   0  0  0  0  0
  130.9540  119.6159  100.2006 C   0  0  0  0  0
  131.8397  120.6836  100.3590 C   0  0  0  0  0
  132.8952  120.8816   99.4510 C   0  0  0  0  0
  133.7691  121.9277   99.5965 N   0  0  0  0  0
  136.4085  120.6492   95.6163 N   0  0  0  0  0
  136.9287  122.4614   96.9792 O   0  0  0  0  0
  134.2583  119.3511   96.5091 O   0  0  0  0  0
  129.9413  119.4407  101.0828 F   0  0  0  0  0
  1  2  1  0  0  0
  2  3  1  0  0  0
  3  4  1  0  0  0
  4  5  1  0  0  0
  5 26  1  0  0  0
  7  8  1  0  0  0
  7 19  1  0  0  0
  8 27  1  0  0  0
  9 27  1  0  0  0
  9 10  1  0  0  0
 10 11  1  0  0  0
 10 12  1  0  0  0
 13 10  1  0  0  0
 13 14  1  0  0  0
 14 15  1  0  0  0
 15 16  1  0  0  0
 16 17  1  0  0  0
 16 18  1  0  0  0
 16  9  1  0  0  0
 18 13  1  0  0  0
 19 20  1  0  0  0
 21 22  1  0  0  0
 23 30  1  0  0  0
 23 24  1  0  0  0
 25 26  1  0  0  0
 25 20  1  0  0  0
 26  6  1  0  0  0
  6  7  2  0  0  0
  8 28  2  0  0  0
 19 29  2  0  0  0
 20 21  2  0  0  0
 22 23  2  0  0  0
 24 25  2  0  0  0
M  END
> <rmsd>
0.590161145

$$$$
CHEMBL4453164_5ZTY


 33 38  0  0  0  0  0  0  0  0999 V2000
  131.0374  116.8306  100.2688 C   0  0  0  0  0
  131.3407  118.2688  100.0501 C   0  0  0  0  0
  132.5967  118.6540   99.5779 C   0  0  0  0  0
  132.8807  120.0069   99.3727 C   0  0  0  0  0
  131.9169  120.9939   99.6357 C   0  0  0  0  0
  130.6566  120.5884  100.1104 C   0  0  0  0  0
  130.3699  119.2361  100.3165 C   0  0  0  0  0
  132.2029  122.4414   99.4202 C   0  0  0  0  0
  131.1942  123.3948   99.6667 C   0  0  0  0  0
  131.4469  124.7602   99.4666 C   0  0  0  0  0
  132.7158  125.1855   99.0164 C   0  0  0  0  0
  132.9526  126.5492   98.8214 C   0  0  0  0  0
  131.9321  127.4680   99.0744 C   0  0  0  0  0
  130.6881  127.0094   99.5193 C   0  0  0  0  0
  133.6848  124.2087   98.7858 C   0  0  0  0  0
  134.9877  124.3723   98.3482 C   0  0  0  0  0
  135.4476  123.0576   98.3143 C   0  0  0  0  0
  136.7943  122.6428   97.9091 C   0  0  0  0  0
  138.4284  120.7576   97.4561 C   0  0  0  0  0
  138.6913  119.3492   98.0091 C   0  0  0  0  0
  138.8967  118.4942   96.7428 C   0  0  0  0  0
  137.4851  118.3310   96.1509 C   0  0  0  0  0
  137.1781  119.7168   95.5645 C   0  0  0  0  0
  138.4383  120.5136   95.9322 C   0  0  0  0  0
  139.5441  119.4779   95.7764 C   0  0  0  0  0
  139.6948  118.9157   94.3574 C   0  0  0  0  0
  140.9280  119.9500   96.2386 C   0  0  0  0  0
  138.6179  121.7759   95.1032 C   0  0  0  0  0
  130.4722  125.6782   99.7047 N   0  0  0  0  0
  134.4892  122.1888   98.7009 N   0  0  0  0  0
  133.4172  122.9051   98.9858 N   0  0  0  0  0
  137.1432  121.2572   97.9334 N   0  0  0  0  0
  137.6393  123.5065   97.5491 O   0  0  0  0  0
  1  2  1  0  0  0
  3  4  1  0  0  0
  5  6  1  0  0  0
  5  8  1  0  0  0
  7  2  1  0  0  0
  9 10  1  0  0  0
 10 29  1  0  0  0
 11 12  1  0  0  0
 11 15  1  0  0  0
 13 14  1  0  0  0
 16 17  1  0  0  0
 17 18  1  0  0  0
 18 32  1  0  0  0
 19 32  1  0  0  0
 19 20  1  0  0  0
 20 21  1  0  0  0
 21 22  1  0  0  0
 22 23  1  0  0  0
 23 24  1  0  0  0
 24 25  1  0  0  0
 24 28  1  0  0  0
 24 19  1  0  0  0
 25 26  1  0  0  0
 25 27  1  0  0  0
 25 21  1  0  0  0
 31 30  1  0  0  0
 31  8  1  0  0  0
 31 15  1  0  0  0
  2  3  2  0  0  0
  4  5  2  0  0  0
  6  7  2  0  0  0
  8  9  2  0  0  0
 10 11  2  0  0  0
 12 13  2  0  0  0
 14 29  2  0  0  0
 15 16  2  0  0  0
 17 30  2  0  0  0
 18 33  2  0  0  0
M  END
> <rmsd>
0.725617707

$$$$
CHEMBL3354528_5ZTY


 25 27  0  0  0  0  0  0  0  0999 V2000
  132.0399  124.9983   99.3150 C   0  0  0  0  0
  131.7186  123.5820   98.8033 C   0  0  0  0  0
  134.1210  123.5006   98.3915 C   0  0  0  0  0
  134.4781  124.4238   99.5704 C   0  0  0  0  0
  133.2305  124.9744  100.2655 C   0  0  0  0  0
  135.2935  122.6796   97.9303 C   0  0  0  0  0
  136.2334  120.3637   97.4186 C   0  0  0  0  0
  138.0839  119.4950   96.7546 C   0  0  0  0  0
  137.5176  120.7260   97.0495 C   0  0  0  0  0
  139.4961  119.2682   96.2899 C   0  0  0  0  0
  139.7578  117.7906   96.0579 C   0  0  0  0  0
  140.4710  119.7725   97.3370 C   0  0  0  0  0
  139.7374  120.0108   94.9892 C   0  0  0  0  0
  133.0277  121.8766   99.8277 C   0  0  0  0  0
  132.2014  120.6394   99.7050 C   0  0  0  0  0
  132.4885  119.6872   98.7191 C   0  0  0  0  0
  131.7153  118.5269   98.6190 C   0  0  0  0  0
  130.6556  118.3147   99.5062 C   0  0  0  0  0
  130.3703  119.2622  100.4943 C   0  0  0  0  0
  131.1438  120.4228  100.5945 C   0  0  0  0  0
  132.8961  122.7084   98.6279 N   0  0  0  0  0
  135.1911  121.2526   97.8340 N   0  0  0  0  0
  136.0645  119.0325   97.3465 N   0  0  0  0  0
  136.3588  123.2678   97.6018 O   0  0  0  0  0
  137.1975  118.5431   96.9437 O   0  0  0  0  0
  1  2  1  0  0  0
  2 21  1  0  0  0
  3 21  1  0  0  0
  3  4  1  0  0  0
  3  6  1  0  0  0
  4  5  1  0  0  0
  5  1  1  0  0  0
  6 22  1  0  0  0
  8 25  1  0  0  0
  9  7  1  0  0  0
 10  8  1  0  0  0
 10 11  1  0  0  0
 10 12  1  0  0  0
 10 13  1  0  0  0
 14 21  1  0  0  0
 14 15  1  0  0  0
 16 17  1  0  0  0
 18 19  1  0  0  0
 20 15  1  0  0  0
 22  7  1  0  0  0
 23 25  1  0  0  0
  6 24  2  0  0  0
  7 23  2  0  0  0
  8  9  2  0  0  0
 15 16  2  0  0  0
 17 18  2  0  0  0
 19 20  2  0  0  0
M  END
> <rmsd>
0.585333943

$$$$
CHEMBL3984538_5ZTY


 36 41  0  0  0  0  0  0  0  0999 V2000
  131.6283  116.8890  101.4568 C   0  0  0  0  0
  131.4623  117.9048  100.3850 C   0  0  0  0  0
  132.0004  117.6752   99.1149 C   0  0  0  0  0
  131.8446  118.6311   98.1064 C   0  0  0  0  0
  131.1454  119.8151   98.3657 C   0  0  0  0  0
  130.6146  120.0472   99.6394 C   0  0  0  0  0
  130.7707  119.0914  100.6477 C   0  0  0  0  0
  131.0092  120.8490   97.3003 C   0  0  0  0  0
  132.2726  122.9015   98.0602 C   0  0  0  0  0
  133.5694  123.3523   97.8890 C   0  0  0  0  0
  134.2116  124.4976   98.5741 C   0  0  0  0  0
  133.9778  124.3217  100.0520 C   0  0  0  0  0
  132.6976  125.0259  100.4516 C   0  0  0  0  0
  131.3879  124.5048   99.9086 C   0  0  0  0  0
  131.1861  123.5546   98.8551 C   0  0  0  0  0
  129.8637  123.2406   98.4963 C   0  0  0  0  0
  128.7695  123.8098   99.1431 C   0  0  0  0  0
  128.9745  124.7239  100.1686 C   0  0  0  0  0
  130.2713  125.0681  100.5399 C   0  0  0  0  0
  134.1786  122.4297   97.0554 C   0  0  0  0  0
  135.5772  122.4209   96.6000 C   0  0  0  0  0
  137.4248  121.2342   95.3359 C   0  0  0  0  0
  138.3232  120.8410   96.5011 C   0  0  0  0  0
  139.8239  120.9970   96.1124 C   0  0  0  0  0
  140.7450  119.8597   96.6546 C   0  0  0  0  0
  139.9525  118.6453   97.2059 C   0  0  0  0  0
  138.9742  119.2637   98.1998 C   0  0  0  0  0
  137.9825  119.4293   97.0524 C   0  0  0  0  0
  138.7587  118.3409   96.2948 C   0  0  0  0  0
  138.1861  116.9585   96.5811 C   0  0  0  0  0
  138.9566  118.5061   94.7852 C   0  0  0  0  0
  132.1479  121.7583   97.3364 N   0  0  0  0  0
  133.2936  121.4675   96.7400 N   0  0  0  0  0
  136.0405  121.3499   95.7736 N   0  0  0  0  0
  127.6067  125.4469  100.9863 Cl  0  0  0  0  0
  136.3631  123.3483   96.9343 O   0  0  0  0  0
  1  2  1  0  0  0
  3  4  1  0  0  0
  5  6  1  0  0  0
  7  2  1  0  0  0
  8  5  1  0  0  0
  8 32  1  0  0  0
 10 20  1  0  0  0
 11 10  1  0  0  0
 11 12  1  0  0  0
 12 13  1  0  0  0
 13 14  1  0  0  0
 15 16  1  0  0  0
 15  9  1  0  0  0
 17 18  1  0  0  0
 18 35  1  0  0  0
 19 14  1  0  0  0
 20 21  1  0  0  0
 21 34  1  0  0  0
 22 34  1  0  0  0
 23 22  1  0  0  0
 23 24  1  0  0  0
 24 25  1  0  0  0
 26 25  1  0  0  0
 26 27  1  0  0  0
 28 27  1  0  0  0
 28 29  1  0  0  0
 28 23  1  0  0  0
 29 30  1  0  0  0
 29 31  1  0  0  0
 29 26  1  0  0  0
 32  9  1  0  0  0
 32 33  1  0  0  0
  2  3  2  0  0  0
  4  5  2  0  0  0
  6  7  2  0  0  0
  9 10  2  0  0  0
 14 15  2  0  0  0
 16 17  2  0  0  0
 18 19  2  0  0  0
 20 33  2  0  0  0
 21 36  2  0  0  0
M  END
> <rmsd>
0.556216359

$$$$
CHEMBL3409152_6PT0


 24 26  0  0  0  0  0  0  0  0999 V2000
  130.9511  118.7257   99.4334 C   0  0  0  0  0
  130.5526  119.8088  100.2081 C   0  0  0  0  0
  131.3114  120.9894  100.2522 C   0  0  0  0  0
  132.5103  121.0849   99.4844 C   0  0  0  0  0
  132.9060  119.9628   98.7038 C   0  0  0  0  0
  132.1209  118.8020   98.6879 C   0  0  0  0  0
  134.0879  120.0158   97.9465 C   0  0  0  0  0
  134.8760  121.1807   97.9622 C   0  0  0  0  0
  134.4470  122.2602   98.7368 C   0  0  0  0  0
  132.9822  123.4344  100.2027 C   0  0  0  0  0
  132.1779  124.3759   99.3236 C   0  0  0  0  0
  131.8248  125.6200  100.1098 C   0  0  0  0  0
  131.0148  126.5545   99.2368 C   0  0  0  0  0
  136.1391  121.3201   97.1938 C   0  0  0  0  0
  137.8734  120.3341   95.6288 C   0  0  0  0  0
  139.0513  120.2048   96.5761 C   0  0  0  0  0
  140.3156  120.0027   95.7679 C   0  0  0  0  0
  139.6500  118.8204   96.4395 C   0  0  0  0  0
  129.6896  122.0066  101.8343 C   0  0  0  0  0
  134.4347  119.0163   97.2579 O   0  0  0  0  0
  136.7950  122.3962   97.2638 O   0  0  0  0  0
  130.8785  122.0519  101.0558 O   0  0  0  0  0
  133.3032  122.2141   99.4712 N   0  0  0  0  0
  136.6234  120.2537   96.3705 N   0  0  0  0  0
  2  3  1  0  0  0
  3 22  1  0  0  0
  4  5  1  0  0  0
  5  7  1  0  0  0
  6  1  1  0  0  0
  7  8  1  0  0  0
  8 14  1  0  0  0
  9 23  1  0  0  0
 10 23  1  0  0  0
 10 11  1  0  0  0
 11 12  1  0  0  0
 12 13  1  0  0  0
 14 24  1  0  0  0
 15 24  1  0  0  0
 15 16  1  0  0  0
 16 17  1  0  0  0
 17 18  1  0  0  0
 18 16  1  0  0  0
 19 22  1  0  0  0
 23  4  1  0  0  0
  1  2  2  0  0  0
  3  4  2  0  0  0
  5  6  2  0  0  0
  7 20  2  0  0  0
  8  9  2  0  0  0
 14 21  2  0  0  0
M  END
> <rmsd>
0.672308207

$$$$
CHEMBL223278_8GUQ


 33 37  0  0  0  0  0  0  0  0999 V2000
  136.6553  122.5948   97.5838 O   0  0  0  0  0
  136.0186  121.5245   97.7797 C   0  0  0  0  0
  138.8840  120.6605   97.9770 C   0  0  0  0  0
  140.3511  120.6079   97.5248 C   0  0  0  0  0
  140.6557  119.4803   96.5452 C   0  0  0  0  0
  140.3674  119.9450   95.1217 C   0  0  0  0  0
  138.8816  119.8812   94.7791 C   0  0  0  0  0
  138.0462  120.7450   95.7138 C   0  0  0  0  0
  134.6377  121.5612   98.2907 C   0  0  0  0  0
  131.7555  119.8507   99.3892 C   0  0  0  0  0
  131.1995  118.9973   98.4276 C   0  0  0  0  0
  130.2478  118.0433   98.7951 C   0  0  0  0  0
  129.8517  117.9304  100.1295 C   0  0  0  0  0
  130.4178  118.7610  101.0994 C   0  0  0  0  0
  131.3712  119.7182  100.7394 C   0  0  0  0  0
  132.6658  122.1707   99.0774 C   0  0  0  0  0
  133.8946  122.6814   98.6400 C   0  0  0  0  0
  134.4322  124.0885   98.6404 C   0  0  0  0  0
  133.4001  125.1736   98.8635 C   0  0  0  0  0
  132.7560  124.9836  100.2177 C   0  0  0  0  0
  131.4855  124.2341  100.0372 C   0  0  0  0  0
  130.3018  124.8812  100.4090 C   0  0  0  0  0
  129.0669  124.2599  100.2287 C   0  0  0  0  0
  129.0060  122.9892   99.6619 C   0  0  0  0  0
  130.1824  122.3368   99.2920 C   0  0  0  0  0
  131.4412  122.9314   99.4835 C   0  0  0  0  0
  136.6320  120.2544   97.5031 N   0  0  0  0  0
  137.9420  120.0833   97.0117 N   0  0  0  0  0
  133.9127  120.4505   98.5059 N   0  0  0  0  0
  132.7354  120.8158   98.9839 N   0  0  0  0  0
  128.6573  116.7370  100.5896 Cl  0  0  0  0  0
  132.0918  120.6998  102.0052 Cl  0  0  0  0  0
  127.5952  125.0817  100.6986 Cl  0  0  0  0  0
  2 27  1  0  0  0
  2  9  1  0  0  0
  3 28  1  0  0  0
  3  4  1  0  0  0
  4  5  1  0  0  0
  5  6  1  0  0  0
  6  7  1  0  0  0
  7  8  1  0  0  0
  8 28  1  0  0  0
 11 12  1  0  0  0
 13 31  1  0  0  0
 13 14  1  0  0  0
 15 32  1  0  0  0
 15 10  1  0  0  0
 17  9  1  0  0  0
 18 17  1  0  0  0
 18 19  1  0  0  0
 19 20  1  0  0  0
 20 21  1  0  0  0
 22 23  1  0  0  0
 23 33  1  0  0  0
 24 25  1  0  0  0
 26 21  1  0  0  0
 26 16  1  0  0  0
 27 28  1  0  0  0
 30 29  1  0  0  0
 30 10  1  0  0  0
 30 16  1  0  0  0
  2  1  2  0  0  0
  9 29  2  0  0  0
 10 11  2  0  0  0
 12 13  2  0  0  0
 14 15  2  0  0  0
 16 17  2  0  0  0
 21 22  2  0  0  0
 23 24  2  0  0  0
 25 26  2  0  0  0
M  END
> <rmsd>
0.832305014

$$$$
CHEMBL3114519_5ZTY


 28 31  0  0  0  0  0  0  0  0999 V2000
  133.5321  124.9451  100.0777 C   0  0  0  0  0
  132.3856  124.6230  100.8208 C   0  0  0  0  0
  131.7856  123.3522  100.6991 C   0  0  0  0  0
  132.3147  122.3691   99.8311 C   0  0  0  0  0
  131.6594  121.0370   99.7219 C   0  0  0  0  0
  132.1712  120.0363   98.8791 C   0  0  0  0  0
  131.5462  118.7897   98.7866 C   0  0  0  0  0
  130.3989  118.5268   99.5377 C   0  0  0  0  0
  129.8773  119.5103  100.3805 C   0  0  0  0  0
  130.5037  120.7564  100.4715 C   0  0  0  0  0
  133.4646  122.7306   99.1037 C   0  0  0  0  0
  135.1560  122.8208   97.8149 C   0  0  0  0  0
  134.0409  123.9649   99.2291 C   0  0  0  0  0
  135.9807  125.1883   98.2241 C   0  0  0  0  0
  135.4195  126.0730   97.1270 C   0  0  0  0  0
  136.1681  122.4078   96.8271 C   0  0  0  0  0
  137.0861  120.5847   95.3210 C   0  0  0  0  0
  138.3121  120.1684   96.0688 C   0  0  0  0  0
  138.3552  118.9663   96.8012 C   0  0  0  0  0
  139.5160  118.6214   97.5011 C   0  0  0  0  0
  140.6300  119.4644   97.4774 C   0  0  0  0  0
  140.5876  120.6580   96.7529 C   0  0  0  0  0
  139.4311  121.0085   96.0516 C   0  0  0  0  0
  134.1557  121.9915   98.2126 N   0  0  0  0  0
  135.1127  124.0343   98.4265 N   0  0  0  0  0
  136.0837  121.1065   96.2400 N   0  0  0  0  0
  137.1009  123.1898   96.4999 O   0  0  0  0  0
  136.9803  117.8735   96.8621 Cl  0  0  0  0  0
  2  3  1  0  0  0
  4  5  1  0  0  0
  4 11  1  0  0  0
  6  7  1  0  0  0
  8  9  1  0  0  0
 10  5  1  0  0  0
 11 24  1  0  0  0
 12 25  1  0  0  0
 12 16  1  0  0  0
 13  1  1  0  0  0
 14 25  1  0  0  0
 14 15  1  0  0  0
 16 26  1  0  0  0
 17 26  1  0  0  0
 17 18  1  0  0  0
 19 20  1  0  0  0
 19 28  1  0  0  0
 21 22  1  0  0  0
 23 18  1  0  0  0
 25 13  1  0  0  0
  1  2  2  0  0  0
  3  4  2  0  0  0
  5  6  2  0  0  0
  7  8  2  0  0  0
  9 10  2  0  0  0
 12 24  2  0  0  0
 13 11  2  0  0  0
 16 27  2  0  0  0
 18 19  2  0  0  0
 20 21  2  0  0  0
 22 23  2  0  0  0
M  END
> <rmsd>
0.66960299

$$$$
CHEMBL3647327_8GUR


 31 33  0  0  0  0  0  0  0  0999 V2000
  132.8120  124.3417  100.5034 C   0  0  0  0  0
  133.4944  123.9360   99.2106 C   0  0  0  0  0
  133.0611  122.5413   98.7977 C   0  0  0  0  0
  133.7408  121.4960   99.6681 C   0  0  0  0  0
  134.1600  119.2778   98.6268 C   0  0  0  0  0
  136.3606  118.7695   97.6359 C   0  0  0  0  0
  137.6934  119.3264   97.2932 C   0  0  0  0  0
  138.5836  118.5228   96.5631 C   0  0  0  0  0
  139.8548  118.9846   96.2030 C   0  0  0  0  0
  140.2313  120.2858   96.5478 C   0  0  0  0  0
  139.3625  121.0993   97.2740 C   0  0  0  0  0
  138.0938  120.6349   97.6581 C   0  0  0  0  0
  137.5175  122.8225   98.6949 C   0  0  0  0  0
  136.8655  123.7230   97.6603 C   0  0  0  0  0
  136.9883  125.1655   98.1022 C   0  0  0  0  0
  140.7668  118.1250   95.3766 C   0  0  0  0  0
  131.9507  118.3125   99.0327 C   0  0  0  0  0
  130.7600  117.6133   99.1901 C   0  0  0  0  0
  129.7084  118.2788   99.8372 C   0  0  0  0  0
  131.0410  120.2420  100.1313 C   0  0  0  0  0
  132.1072  119.6101   99.4882 C   0  0  0  0  0
  133.3354  120.1537   99.2587 N   0  0  0  0  0
  135.3843  119.5855   98.3039 N   0  0  0  0  0
  129.8691  119.5601  100.2882 N   0  0  0  0  0
  136.0955  117.5748   97.3289 O   0  0  0  0  0
  137.2390  121.4574   98.4040 O   0  0  0  0  0
  137.4916  123.5638   96.4243 O   0  0  0  0  0
  140.5550  116.7863   95.6583 F   0  0  0  0  0
  140.5153  118.3495   94.0361 F   0  0  0  0  0
  142.0905  118.4278   95.6453 F   0  0  0  0  0
  133.3814  117.7967   98.3190 S   0  0  0  0  0
  1  2  1  0  0  0
  2  3  1  0  0  0
  3  4  1  0  0  0
  4 22  1  0  0  0
  5 31  1  0  0  0
  6 23  1  0  0  0
  6  7  1  0  0  0
  8  9  1  0  0  0
 10 11  1  0  0  0
 12 26  1  0  0  0
 12  7  1  0  0  0
 13 26  1  0  0  0
 13 14  1  0  0  0
 14 15  1  0  0  0
 14 27  1  0  0  0
 16  9  1  0  0  0
 16 28  1  0  0  0
 16 29  1  0  0  0
 16 30  1  0  0  0
 17 31  1  0  0  0
 18 19  1  0  0  0
 20 24  1  0  0  0
 21 22  1  0  0  0
 21 17  1  0  0  0
 22  5  1  0  0  0
  5 23  2  0  0  0
  6 25  2  0  0  0
  7  8  2  0  0  0
  9 10  2  0  0  0
 11 12  2  0  0  0
 17 18  2  0  0  0
 19 24  2  0  0  0
 20 21  2  0  0  0
M  END
> <rmsd>
0.699361861

$$$$
CHEMBL3114528_5ZTY


 27 30  0  0  0  0  0  0  0  0999 V2000
  138.1266  119.3207   96.4098 C   0  0  0  0  0
  138.6879  119.7386   97.7821 C   0  0  0  0  0
  139.8076  120.7713   97.6537 C   0  0  0  0  0
  140.9260  120.2254   96.7753 C   0  0  0  0  0
  140.3838  119.8996   95.3892 C   0  0  0  0  0
  139.2674  118.8592   95.4895 C   0  0  0  0  0
  137.3876  120.4870   95.7435 C   0  0  0  0  0
  136.2739  122.3305   97.0589 C   0  0  0  0  0
  135.1782  122.7702   97.9280 C   0  0  0  0  0
  133.4132  122.7351   99.0898 C   0  0  0  0  0
  132.2258  122.4105   99.7731 C   0  0  0  0  0
  131.6249  123.4529  100.5156 C   0  0  0  0  0
  132.1950  124.7423  100.5608 C   0  0  0  0  0
  133.3814  125.0222   99.8641 C   0  0  0  0  0
  133.9590  123.9857   99.1388 C   0  0  0  0  0
  131.6044  121.0581   99.7430 C   0  0  0  0  0
  130.4135  120.8136  100.4489 C   0  0  0  0  0
  129.8182  119.5492  100.4308 C   0  0  0  0  0
  130.4065  118.5109   99.7057 C   0  0  0  0  0
  131.5895  118.7375   98.9993 C   0  0  0  0  0
  132.1832  120.0026   99.0187 C   0  0  0  0  0
  137.1464  118.1626   96.5927 C   0  0  0  0  0
  136.3069  120.9830   96.5862 N   0  0  0  0  0
  134.1767  121.9419   98.3210 N   0  0  0  0  0
  135.0824  124.0365   98.4091 N   0  0  0  0  0
  137.1840  123.1408   96.7355 O   0  0  0  0  0
  137.7677  117.0619   97.1896 O   0  0  0  0  0
  1  2  1  0  0  0
  1  7  1  0  0  0
  1 22  1  0  0  0
  2  3  1  0  0  0
  3  4  1  0  0  0
  4  5  1  0  0  0
  5  6  1  0  0  0
  6  1  1  0  0  0
  7 23  1  0  0  0
  8  9  1  0  0  0
 10 24  1  0  0  0
 11 12  1  0  0  0
 11 16  1  0  0  0
 13 14  1  0  0  0
 15 25  1  0  0  0
 15 10  1  0  0  0
 17 18  1  0  0  0
 19 20  1  0  0  0
 21 16  1  0  0  0
 22 27  1  0  0  0
 23  8  1  0  0  0
 25  9  1  0  0  0
  8 26  2  0  0  0
  9 24  2  0  0  0
 10 11  2  0  0  0
 12 13  2  0  0  0
 14 15  2  0  0  0
 16 17  2  0  0  0
 18 19  2  0  0  0
 20 21  2  0  0  0
M  END
> <rmsd>
0.617474377

$$$$
CHEMBL3114178_8GUT


 26 28  0  0  0  0  0  0  0  0999 V2000
  136.8426  122.9581   96.9309 O   0  0  0  0  0
  135.3717  119.7839   99.1195 O   0  0  0  0  0
  136.4480  121.9244   97.5381 C   0  0  0  0  0
  138.1721  120.5152   96.3230 C   0  0  0  0  0
  138.2710  119.0488   95.8916 C   0  0  0  0  0
  139.5883  118.7112   95.2083 C   0  0  0  0  0
  140.5880  118.2179   96.2468 C   0  0  0  0  0
  141.2234  119.3638   97.0283 C   0  0  0  0  0
  140.1997  120.1481   97.8392 C   0  0  0  0  0
  139.4543  121.1102   96.9237 C   0  0  0  0  0
  135.3470  122.0316   98.5281 C   0  0  0  0  0
  134.7566  123.2834   98.7387 C   0  0  0  0  0
  133.7213  123.4338   99.6549 C   0  0  0  0  0
  133.2727  122.3241  100.3638 C   0  0  0  0  0
  133.3147  119.9752  100.9318 C   0  0  0  0  0
  132.1761  119.3370  100.2075 C   0  0  0  0  0
  130.8714  119.8030  100.4047 C   0  0  0  0  0
  129.8076  119.2216   99.7082 C   0  0  0  0  0
  130.0477  118.1767   98.8105 C   0  0  0  0  0
  131.3517  117.7147   98.6072 C   0  0  0  0  0
  132.4156  118.2960   99.3037 C   0  0  0  0  0
  134.8633  120.9290   99.2723 C   0  0  0  0  0
  137.0646  120.6639   97.2559 N   0  0  0  0  0
  133.8399  121.1026  100.1677 N   0  0  0  0  0
  132.9226  125.1405   99.9334 Br  0  0  0  0  0
  129.0171  117.6135   98.1357 F   0  0  0  0  0
  3 23  1  0  0  0
  3 11  1  0  0  0
  4 23  1  0  0  0
  4  5  1  0  0  0
  5  6  1  0  0  0
  6  7  1  0  0  0
  7  8  1  0  0  0
  8  9  1  0  0  0
  9 10  1  0  0  0
 10  4  1  0  0  0
 12 13  1  0  0  0
 13 25  1  0  0  0
 14 24  1  0  0  0
 15 24  1  0  0  0
 15 16  1  0  0  0
 17 18  1  0  0  0
 19 26  1  0  0  0
 19 20  1  0  0  0
 21 16  1  0  0  0
 22 11  1  0  0  0
 24 22  1  0  0  0
  3  1  2  0  0  0
 11 12  2  0  0  0
 13 14  2  0  0  0
 16 17  2  0  0  0
 18 19  2  0  0  0
 20 21  2  0  0  0
 22  2  2  0  0  0
M  END
> <rmsd>
0.591794848

$$$$
CHEMBL4761606_8GUR


 35 37  0  0  0  0  0  0  0  0999 V2000
  131.3528  120.7233  100.7772 C   0  0  0  0  0
  130.2427  119.8821  100.8500 C   0  0  0  0  0
  130.1079  118.8145   99.9573 C   0  0  0  0  0
  131.1208  118.5739   99.0216 C   0  0  0  0  0
  132.2497  119.4033   98.9410 C   0  0  0  0  0
  132.3574  120.5053   99.8202 C   0  0  0  0  0
  133.5654  122.5789  100.4883 C   0  0  0  0  0
  133.0906  123.7948   99.6951 C   0  0  0  0  0
  133.8439  123.8986   98.3825 C   0  0  0  0  0
  131.6040  123.7025   99.4109 C   0  0  0  0  0
  133.2870  119.0894   97.9318 C   0  0  0  0  0
  135.5989  119.5010   97.2257 C   0  0  0  0  0
  136.8395  119.0717   95.4821 C   0  0  0  0  0
  135.5480  118.8894   95.9788 C   0  0  0  0  0
  137.3417  118.5970   94.1353 C   0  0  0  0  0
  136.2578  117.8694   93.3556 C   0  0  0  0  0
  138.5055  117.6427   94.3248 C   0  0  0  0  0
  137.8003  119.7832   93.3081 C   0  0  0  0  0
  138.9779  120.1394   96.2629 C   0  0  0  0  0
  137.2658  120.7299   98.6369 C   0  0  0  0  0
  136.7998  122.1746   98.5767 C   0  0  0  0  0
  137.4717  124.2014   97.9495 C   0  0  0  0  0
  137.5147  124.2487   99.4599 C   0  0  0  0  0
  137.1139  122.8672   99.8795 C   0  0  0  0  0
  128.9378  117.8801  100.0633 C   0  0  0  0  0
  133.4513  121.3762   99.7300 O   0  0  0  0  0
  133.3341  124.9435  100.4456 O   0  0  0  0  0
  132.9990  118.3290   96.9663 O   0  0  0  0  0
  137.4587  122.8586   97.5452 O   0  0  0  0  0
  134.6196  119.6090   98.0777 N   0  0  0  0  0
  136.8267  120.0035   97.4486 N   0  0  0  0  0
  137.5793  119.7484   96.3924 N   0  0  0  0  0
  129.2489  116.8560  100.9382 F   0  0  0  0  0
  128.6374  117.3406   98.8245 F   0  0  0  0  0
  127.8230  118.5531  100.5330 F   0  0  0  0  0
  2  3  1  0  0  0
  4  5  1  0  0  0
  5 11  1  0  0  0
  6 26  1  0  0  0
  6  1  1  0  0  0
  7 26  1  0  0  0
  7  8  1  0  0  0
  8  9  1  0  0  0
  8 10  1  0  0  0
  8 27  1  0  0  0
 11 30  1  0  0  0
 12 31  1  0  0  0
 14 12  1  0  0  0
 15 13  1  0  0  0
 15 16  1  0  0  0
 15 17  1  0  0  0
 15 18  1  0  0  0
 19 32  1  0  0  0
 20 31  1  0  0  0
 21 20  1  0  0  0
 21 29  1  0  0  0
 22 29  1  0  0  0
 22 23  1  0  0  0
 23 24  1  0  0  0
 24 21  1  0  0  0
 25  3  1  0  0  0
 25 33  1  0  0  0
 25 34  1  0  0  0
 25 35  1  0  0  0
 31 32  1  0  0  0
 32 13  1  0  0  0
  1  2  2  0  0  0
  3  4  2  0  0  0
  5  6  2  0  0  0
 11 28  2  0  0  0
 12 30  2  0  0  0
 13 14  2  0  0  0
M  END
> <rmsd>
0.730187654

$$$$
CHEMBL2336546_8GUT


 31 33  0  0  0  0  0  0  0  0999 V2000
  143.3481  119.3689   96.8118 C   0  0  0  0  0
  142.3295  119.8774   97.8155 C   0  0  0  0  0
  141.5122  117.6877   98.6973 C   0  0  0  0  0
  141.4846  116.4949   97.7578 C   0  0  0  0  0
  139.9035  119.2625   97.5457 C   0  0  0  0  0
  139.6666  120.4347   96.8087 C   0  0  0  0  0
  138.3712  120.7759   96.4118 C   0  0  0  0  0
  137.2936  119.9511   96.7480 C   0  0  0  0  0
  135.9070  120.3242   96.3036 C   0  0  0  0  0
  134.8272  119.8886   98.4160 C   0  0  0  0  0
  133.3823  119.8376   98.7826 C   0  0  0  0  0
  132.3698  119.3652   97.9748 C   0  0  0  0  0
  131.2207  119.5068   98.7348 C   0  0  0  0  0
  131.6115  120.0540   99.9475 C   0  0  0  0  0
  134.4516  123.1495   98.9667 C   0  0  0  0  0
  133.4638  123.8782   98.3010 C   0  0  0  0  0
  132.4590  124.5252   99.0262 C   0  0  0  0  0
  132.4360  124.4491  100.4208 C   0  0  0  0  0
  131.3342  125.1310  101.1705 C   0  0  0  0  0
  131.8790  126.0594  102.2426 C   0  0  0  0  0
  130.3952  124.1132  101.7901 C   0  0  0  0  0
  133.4265  123.7121  101.0889 C   0  0  0  0  0
  134.4325  123.0686  100.3625 C   0  0  0  0  0
  137.5226  118.7682   97.4609 C   0  0  0  0  0
  138.8164  118.4303   97.8613 C   0  0  0  0  0
  141.2407  118.9181   97.9616 N   0  0  0  0  0
  135.0438  120.8714   97.3617 N   0  0  0  0  0
  132.9111  120.2365   99.9362 O   0  0  0  0  0
  136.1804  123.2457   96.9542 O   0  0  0  0  0
  136.8603  122.0104   98.9551 O   0  0  0  0  0
  135.7029  122.3306   98.0482 S   0  0  0  0  0
  1  2  1  0  0  0
  2 26  1  0  0  0
  3 26  1  0  0  0
  3  4  1  0  0  0
  6  7  1  0  0  0
  8 24  1  0  0  0
  9  8  1  0  0  0
  9 27  1  0  0  0
 10 27  1  0  0  0
 10 11  1  0  0  0
 11 28  1  0  0  0
 12 13  1  0  0  0
 14 28  1  0  0  0
 16 17  1  0  0  0
 18 22  1  0  0  0
 19 18  1  0  0  0
 19 20  1  0  0  0
 19 21  1  0  0  0
 23 15  1  0  0  0
 25  5  1  0  0  0
 26  5  1  0  0  0
 31 27  1  0  0  0
 31 15  1  0  0  0
  5  6  2  0  0  0
  7  8  2  0  0  0
 11 12  2  0  0  0
 13 14  2  0  0  0
 15 16  2  0  0  0
 17 18  2  0  0  0
 22 23  2  0  0  0
 24 25  2  0  0  0
 31 29  2  0  0  0
 31 30  2  0  0  0
M  END
> <rmsd>
0.842221141

$$$$
CHEMBL2336567_5ZTY


 33 35  0  0  0  0  0  0  0  0999 V2000
  142.5356  120.4644   94.0620 C   0  0  0  0  0
  141.1346  121.0456   94.1167 C   0  0  0  0  0
  139.8678  119.0354   93.3362 C   0  0  0  0  0
  140.3969  117.6621   93.7094 C   0  0  0  0  0
  139.4008  120.0129   95.6237 C   0  0  0  0  0
  138.3405  119.1126   95.8235 C   0  0  0  0  0
  137.6056  119.1309   97.0116 C   0  0  0  0  0
  137.9149  120.0549   98.0152 C   0  0  0  0  0
  137.1401  120.0715   99.3039 C   0  0  0  0  0
  134.9557  120.1099   98.2740 C   0  0  0  0  0
  133.5476  120.0083   98.7815 C   0  0  0  0  0
  132.5505  119.5695   97.9036 C   0  0  0  0  0
  131.2234  119.4740   98.3331 C   0  0  0  0  0
  130.8869  119.8156   99.6462 C   0  0  0  0  0
  131.8775  120.2493  100.5311 C   0  0  0  0  0
  133.2043  120.3441  100.1013 C   0  0  0  0  0
  134.5260  123.2886   99.1716 C   0  0  0  0  0
  134.2579  123.7155  100.4761 C   0  0  0  0  0
  133.0449  124.3431  100.7733 C   0  0  0  0  0
  132.0899  124.5450   99.7715 C   0  0  0  0  0
  129.8656  125.4588   99.1508 C   0  0  0  0  0
  130.2326  126.7005   98.3602 C   0  0  0  0  0
  128.5576  125.7014   99.8736 C   0  0  0  0  0
  132.3605  124.1114   98.4634 C   0  0  0  0  0
  133.5732  123.4848   98.1662 C   0  0  0  0  0
  138.9766  120.9463   97.8317 C   0  0  0  0  0
  139.7119  120.9278   96.6437 C   0  0  0  0  0
  140.1600  119.9963   94.3970 N   0  0  0  0  0
  135.8425  120.7625   99.2359 N   0  0  0  0  0
  136.0227  122.4449   98.8151 S   0  0  0  0  0
  137.1358  123.0602   99.6175 O   0  0  0  0  0
  136.3381  122.5929   97.3514 O   0  0  0  0  0
  130.8830  125.1700  100.1036 O   0  0  0  0  0
  1  2  1  0  0  0
  2 28  1  0  0  0
  3 28  1  0  0  0
  3  4  1  0  0  0
  6  7  1  0  0  0
  8 26  1  0  0  0
  9  8  1  0  0  0
  9 29  1  0  0  0
 10 29  1  0  0  0
 10 11  1  0  0  0
 12 13  1  0  0  0
 14 15  1  0  0  0
 16 11  1  0  0  0
 18 19  1  0  0  0
 20 33  1  0  0  0
 20 24  1  0  0  0
 21 33  1  0  0  0
 21 22  1  0  0  0
 21 23  1  0  0  0
 25 17  1  0  0  0
 27  5  1  0  0  0
 28  5  1  0  0  0
 30 29  1  0  0  0
 30 17  1  0  0  0
  5  6  2  0  0  0
  7  8  2  0  0  0
 11 12  2  0  0  0
 13 14  2  0  0  0
 15 16  2  0  0  0
 17 18  2  0  0  0
 19 20  2  0  0  0
 24 25  2  0  0  0
 26 27  2  0  0  0
 30 31  2  0  0  0
 30 32  2  0  0  0
M  END
> <rmsd>
0.80963552

$$$$
CHEMBL3981363_8GUT


 28 30  0  0  0  0  0  0  0  0999 V2000
  138.5176  119.8328   96.5262 C   0  0  0  0  0
  137.6472  120.9740   96.9132 C   0  0  0  0  0
  135.9945  122.1691   97.3474 C   0  0  0  0  0
  134.5836  122.6815   97.4695 C   0  0  0  0  0
  134.1736  123.2452   96.1189 C   0  0  0  0  0
  134.5124  123.7913   98.5282 C   0  0  0  0  0
  133.0956  124.3020   98.7500 C   0  0  0  0  0
  133.1516  125.7850   99.0533 C   0  0  0  0  0
  132.9708  124.7916  100.1784 C   0  0  0  0  0
  133.7398  120.8147   99.0225 C   0  0  0  0  0
  132.7630  119.7399   99.2515 C   0  0  0  0  0
  130.8818  118.5038   98.4949 C   0  0  0  0  0
  130.8908  117.7158   99.6482 C   0  0  0  0  0
  131.8834  117.9489  100.6302 C   0  0  0  0  0
  132.8073  118.9758  100.4221 C   0  0  0  0  0
  131.5393  115.8855  102.0121 C   0  0  0  0  0
  132.5514  114.8856  101.4730 C   0  0  0  0  0
  136.3029  120.9228   96.9250 N   0  0  0  0  0
  137.0917  122.9286   97.5501 N   0  0  0  0  0
  133.6746  121.5857   97.8147 N   0  0  0  0  0
  131.8071  119.4825   98.3193 N   0  0  0  0  0
  138.0933  122.1491   97.2785 O   0  0  0  0  0
  134.6298  121.0557   99.8837 O   0  0  0  0  0
  131.9954  117.2208  101.8241 O   0  0  0  0  0
  133.7733  115.0770  102.0906 F   0  0  0  0  0
  132.1051  113.6051  101.7365 F   0  0  0  0  0
  132.6964  115.0423  100.1073 F   0  0  0  0  0
  129.5994  116.5368   99.8222 Cl  0  0  0  0  0
  1  2  1  0  0  0
  2 22  1  0  0  0
  3 18  1  0  0  0
  4  3  1  0  0  0
  4  5  1  0  0  0
  4  6  1  0  0  0
  4 20  1  0  0  0
  6  7  1  0  0  0
  7  8  1  0  0  0
  8  9  1  0  0  0
  9  7  1  0  0  0
 10 11  1  0  0  0
 12 21  1  0  0  0
 13 14  1  0  0  0
 13 28  1  0  0  0
 14 24  1  0  0  0
 15 11  1  0  0  0
 16 24  1  0  0  0
 16 17  1  0  0  0
 17 25  1  0  0  0
 17 26  1  0  0  0
 17 27  1  0  0  0
 19 22  1  0  0  0
 20 10  1  0  0  0
  2 18  2  0  0  0
  3 19  2  0  0  0
 10 23  2  0  0  0
 11 21  2  0  0  0
 12 13  2  0  0  0
 14 15  2  0  0  0
M  END
> <rmsd>
0.646205842

$$$$
CHEMBL4163771_5ZTY


 26 28  0  0  0  0  0  0  0  0999 V2000
  133.8300  124.9701  100.0874 C   0  0  0  0  0
  132.5423  124.4658   99.9381 C   0  0  0  0  0
  133.3112  122.8470   98.3711 C   0  0  0  0  0
  134.6375  123.3200   98.4914 C   0  0  0  0  0
  134.8817  124.4054   99.3666 C   0  0  0  0  0
  136.2487  124.9579   99.5973 C   0  0  0  0  0
  135.7354  122.6776   97.7232 C   0  0  0  0  0
  136.7305  120.5819   96.6996 C   0  0  0  0  0
  137.9651  120.4164   97.5957 C   0  0  0  0  0
  139.0451  119.4900   97.0297 C   0  0  0  0  0
  139.3595  119.7380   95.5498 C   0  0  0  0  0
  138.2029  119.4145   94.5883 C   0  0  0  0  0
  137.1303  118.5118   95.2064 C   0  0  0  0  0
  136.1809  119.2567   96.1594 C   0  0  0  0  0
  131.7286  121.1911   97.4247 C   0  0  0  0  0
  131.5630  120.2110   98.5355 C   0  0  0  0  0
  132.2360  118.9846   98.4944 C   0  0  0  0  0
  132.0968  118.0745   99.5467 C   0  0  0  0  0
  131.2873  118.3910  100.6421 C   0  0  0  0  0
  130.6182  119.6180  100.6861 C   0  0  0  0  0
  130.7571  120.5283   99.6340 C   0  0  0  0  0
  132.3132  123.4289   99.0941 N   0  0  0  0  0
  135.6809  121.2783   97.4267 N   0  0  0  0  0
  136.7186  123.3611   97.3270 O   0  0  0  0  0
  133.0136  121.7980   97.4938 O   0  0  0  0  0
  131.1526  117.5093  101.6615 F   0  0  0  0  0
  2 22  1  0  0  0
  3  4  1  0  0  0
  3 25  1  0  0  0
  4  7  1  0  0  0
  5  1  1  0  0  0
  6  5  1  0  0  0
  7 23  1  0  0  0
  8 23  1  0  0  0
  8  9  1  0  0  0
  9 10  1  0  0  0
 10 11  1  0  0  0
 11 12  1  0  0  0
 12 13  1  0  0  0
 13 14  1  0  0  0
 14  8  1  0  0  0
 15 25  1  0  0  0
 15 16  1  0  0  0
 17 18  1  0  0  0
 19 20  1  0  0  0
 19 26  1  0  0  0
 21 16  1  0  0  0
  1  2  2  0  0  0
  3 22  2  0  0  0
  4  5  2  0  0  0
  7 24  2  0  0  0
 16 17  2  0  0  0
 18 19  2  0  0  0
 20 21  2  0  0  0
M  END
> <rmsd>
0.573208809

$$$$
CHEMBL4780771_8GUT


 27 29  0  0  0  0  0  0  0  0999 V2000
  133.1184  125.1144   98.5921 C   0  0  0  0  0
  132.3289  124.4418   99.5329 C   0  0  0  0  0
  133.9381  122.6859   99.6847 C   0  0  0  0  0
  134.7642  123.3300   98.7376 C   0  0  0  0  0
  134.3314  124.5501   98.2026 C   0  0  0  0  0
  136.0586  122.7699   98.2793 C   0  0  0  0  0
  137.7665  120.8973   98.3072 C   0  0  0  0  0
  138.1249  119.7542   99.2457 C   0  0  0  0  0
  139.6353  119.5400   99.3840 C   0  0  0  0  0
  140.4440  119.6786   98.0906 C   0  0  0  0  0
  139.7568  119.0538   96.8846 C   0  0  0  0  0
  138.9002  120.1023   96.1855 C   0  0  0  0  0
  137.5735  120.3359   96.9011 C   0  0  0  0  0
  133.4852  120.7286  101.1366 C   0  0  0  0  0
  132.4490  119.9862  100.3633 C   0  0  0  0  0
  132.8076  118.8663   99.6046 C   0  0  0  0  0
  131.8378  118.1821   98.8654 C   0  0  0  0  0
  130.5094  118.6185   98.8821 C   0  0  0  0  0
  130.1507  119.7395   99.6371 C   0  0  0  0  0
  131.1202  120.4237  100.3765 C   0  0  0  0  0
  131.0223  124.9970   99.9841 C   0  0  0  0  0
  132.7563  123.2603  100.0486 N   0  0  0  0  0
  136.5251  121.5053   98.7601 N   0  0  0  0  0
  136.7589  123.4158   97.4516 O   0  0  0  0  0
  134.3235  121.4683  100.2558 O   0  0  0  0  0
  129.5701  117.9558   98.1659 F   0  0  0  0  0
  132.5868  126.7831   97.8204 Br  0  0  0  0  0
  1 27  1  0  0  0
  2 22  1  0  0  0
  3  4  1  0  0  0
  3 25  1  0  0  0
  4  6  1  0  0  0
  5  1  1  0  0  0
  6 23  1  0  0  0
  7 23  1  0  0  0
  7  8  1  0  0  0
  8  9  1  0  0  0
  9 10  1  0  0  0
 10 11  1  0  0  0
 11 12  1  0  0  0
 12 13  1  0  0  0
 13  7  1  0  0  0
 14 25  1  0  0  0
 14 15  1  0  0  0
 16 17  1  0  0  0
 18 19  1  0  0  0
 18 26  1  0  0  0
 20 15  1  0  0  0
 21  2  1  0  0  0
  1  2  2  0  0  0
  3 22  2  0  0  0
  4  5  2  0  0  0
  6 24  2  0  0  0
 15 16  2  0  0  0
 17 18  2  0  0  0
 19 20  2  0  0  0
M  END
> <rmsd>
0.595772147

$$$$
CHEMBL3686328_8GUR


 34 36  0  0  0  0  0  0  0  0999 V2000
  131.1411  122.8795   95.9214 C   0  0  0  0  0
  130.8695  123.0622   97.4018 C   0  0  0  0  0
  131.9084  123.7411   99.4260 C   0  0  0  0  0
  133.2248  124.2495   99.9808 C   0  0  0  0  0
  131.9560  120.7738   99.0027 C   0  0  0  0  0
  130.6934  120.9805   99.5830 C   0  0  0  0  0
  130.0433  119.9574  100.2715 C   0  0  0  0  0
  130.6383  118.6983  100.3865 C   0  0  0  0  0
  129.9677  117.6104  101.1737 C   0  0  0  0  0
  131.9038  118.4882   99.8284 C   0  0  0  0  0
  132.5711  119.5040   99.1253 C   0  0  0  0  0
  133.9047  119.1990   98.5495 C   0  0  0  0  0
  135.7407  120.0598   97.1520 C   0  0  0  0  0
  138.0613  119.5862   96.4709 C   0  0  0  0  0
  139.4894  119.1287   96.3255 C   0  0  0  0  0
  140.0845  119.6062   95.0118 C   0  0  0  0  0
  140.3144  119.6881   97.4674 C   0  0  0  0  0
  139.5723  117.6133   96.3562 C   0  0  0  0  0
  137.5197  120.7565   95.9353 C   0  0  0  0  0
  135.4986  122.1697   95.8509 C   0  0  0  0  0
  135.4877  123.2453   96.9263 C   0  0  0  0  0
  134.6515  124.4142   96.4684 C   0  0  0  0  0
  135.3834  125.6059   97.0067 C   0  0  0  0  0
  136.6234  125.0192   97.6420 C   0  0  0  0  0
  132.1294  123.1044   98.1337 N   0  0  0  0  0
  134.5373  120.1236   97.6486 N   0  0  0  0  0
  136.2331  120.9955   96.3059 N   0  0  0  0  0
  132.6175  121.8140   98.3164 O   0  0  0  0  0
  134.4631  118.1055   98.8402 O   0  0  0  0  0
  136.7884  123.7086   97.1709 O   0  0  0  0  0
  128.5917  117.7486  101.1149 F   0  0  0  0  0
  130.3079  116.3684  100.6658 F   0  0  0  0  0
  130.3728  117.6848  102.4931 F   0  0  0  0  0
  136.9000  118.8792   97.4768 S   0  0  0  0  0
  1  2  1  0  0  0
  2 25  1  0  0  0
  3 25  1  0  0  0
  3  4  1  0  0  0
  5 28  1  0  0  0
  6  7  1  0  0  0
  8 10  1  0  0  0
  9  8  1  0  0  0
  9 31  1  0  0  0
  9 32  1  0  0  0
  9 33  1  0  0  0
 11 12  1  0  0  0
 11  5  1  0  0  0
 12 26  1  0  0  0
 13 34  1  0  0  0
 14 34  1  0  0  0
 15 14  1  0  0  0
 15 16  1  0  0  0
 15 17  1  0  0  0
 15 18  1  0  0  0
 19 27  1  0  0  0
 20 27  1  0  0  0
 21 20  1  0  0  0
 21 22  1  0  0  0
 21 30  1  0  0  0
 22 23  1  0  0  0
 23 24  1  0  0  0
 24 30  1  0  0  0
 25 28  1  0  0  0
 27 13  1  0  0  0
  5  6  2  0  0  0
  7  8  2  0  0  0
 10 11  2  0  0  0
 12 29  2  0  0  0
 13 26  2  0  0  0
 14 19  2  0  0  0
M  END
> <rmsd>
0.653490663

$$$$
CHEMBL4856531_8GUT


 27 29  0  0  0  0  0  0  0  0999 V2000
  135.9801  123.8292   99.2774 C   0  0  0  0  0
  134.8815  122.9863   98.7133 C   0  0  0  0  0
  135.1680  121.8204   97.9727 C   0  0  0  0  0
  134.1086  120.9923   97.5679 C   0  0  0  0  0
  132.5289  122.4778   98.5350 C   0  0  0  0  0
  133.5456  123.3193   98.9804 C   0  0  0  0  0
  131.7023  120.4892   97.4358 C   0  0  0  0  0
  131.3656  119.4985   98.5055 C   0  0  0  0  0
  130.6586  119.9174   99.6391 C   0  0  0  0  0
  130.3497  119.0056  100.6524 C   0  0  0  0  0
  130.7471  117.6710  100.5361 C   0  0  0  0  0
  131.4527  117.2477   99.4064 C   0  0  0  0  0
  131.7637  118.1572   98.3906 C   0  0  0  0  0
  137.5075  122.2769   97.0878 C   0  0  0  0  0
  138.9277  121.8251   97.0059 C   0  0  0  0  0
  139.4811  121.5561   98.4097 C   0  0  0  0  0
  140.9135  121.0112   98.4159 C   0  0  0  0  0
  141.0839  119.6570   97.7114 C   0  0  0  0  0
  139.8005  118.8217   97.6934 C   0  0  0  0  0
  138.7852  119.2759   96.6302 C   0  0  0  0  0
  139.0699  120.6559   96.0201 C   0  0  0  0  0
  134.3577  119.9325   96.9290 O   0  0  0  0  0
  137.1866  123.3916   96.5962 O   0  0  0  0  0
  132.8154  121.3381   97.8505 N   0  0  0  0  0
  136.5147  121.4240   97.6709 N   0  0  0  0  0
  133.0606  124.8871   99.9672 Br  0  0  0  0  0
  132.4417  117.7271   97.2977 F   0  0  0  0  0
  1  2  1  0  0  0
  3  4  1  0  0  0
  3 25  1  0  0  0
  4 24  1  0  0  0
  6 26  1  0  0  0
  6  2  1  0  0  0
  7 24  1  0  0  0
  7  8  1  0  0  0
  9 10  1  0  0  0
 11 12  1  0  0  0
 13 27  1  0  0  0
 13  8  1  0  0  0
 15 14  1  0  0  0
 15 16  1  0  0  0
 16 17  1  0  0  0
 17 18  1  0  0  0
 18 19  1  0  0  0
 19 20  1  0  0  0
 20 21  1  0  0  0
 21 15  1  0  0  0
 24  5  1  0  0  0
 25 14  1  0  0  0
  2  3  2  0  0  0
  4 22  2  0  0  0
  5  6  2  0  0  0
  8  9  2  0  0  0
 10 11  2  0  0  0
 12 13  2  0  0  0
 14 23  2  0  0  0
M  END
> <rmsd>
0.619890213

$$$$
CHEMBL2414041_8GUS


 28 29  0  0  0  0  0  0  0  0999 V2000
  134.4702  126.6535   98.4118 C   0  0  0  0  0
  133.1663  126.0456   98.8831 C   0  0  0  0  0
  133.4531  124.7701   99.6456 C   0  0  0  0  0
  132.1476  124.1427  100.0956 C   0  0  0  0  0
  132.4182  122.8313  100.8095 C   0  0  0  0  0
  132.3392  120.6489   99.6281 C   0  0  0  0  0
  131.1957  120.2521  100.3423 C   0  0  0  0  0
  130.5920  119.0191  100.0921 C   0  0  0  0  0
  131.1239  118.1675   99.1247 C   0  0  0  0  0
  132.2575  118.5504   98.4059 C   0  0  0  0  0
  132.8757  119.7868   98.6427 C   0  0  0  0  0
  134.0654  120.1365   97.8351 C   0  0  0  0  0
  134.7845  121.3197   97.8776 C   0  0  0  0  0
  135.7694  121.1058   96.9294 C   0  0  0  0  0
  136.8056  122.0902   96.5531 C   0  0  0  0  0
  138.2713  120.3747   95.3830 C   0  0  0  0  0
  139.3018  119.8484   96.3717 C   0  0  0  0  0
  138.6629  119.5581   97.7157 C   0  0  0  0  0
  139.9109  118.5747   95.8267 C   0  0  0  0  0
  138.6234  122.8058   94.9667 C   0  0  0  0  0
  139.4965  123.6257   95.9059 C   0  0  0  0  0
  140.7479  122.8522   96.2717 C   0  0  0  0  0
  139.8939  124.9152   95.2198 C   0  0  0  0  0
  132.9454  121.8828   99.8900 O   0  0  0  0  0
  136.7003  123.2671   96.9951 O   0  0  0  0  0
  134.5966  119.3379   96.9386 O   0  0  0  0  0
  137.9121  121.7554   95.6891 N   0  0  0  0  0
  135.6243  119.8903   96.3697 N   0  0  0  0  0
  1  2  1  0  0  0
  2  3  1  0  0  0
  3  4  1  0  0  0
  4  5  1  0  0  0
  5 24  1  0  0  0
  6 24  1  0  0  0
  7  8  1  0  0  0
  9 10  1  0  0  0
 11 12  1  0  0  0
 11  6  1  0  0  0
 12 26  1  0  0  0
 13 14  1  0  0  0
 14 15  1  0  0  0
 15 27  1  0  0  0
 16 27  1  0  0  0
 16 17  1  0  0  0
 17 18  1  0  0  0
 17 19  1  0  0  0
 20 27  1  0  0  0
 20 21  1  0  0  0
 21 22  1  0  0  0
 21 23  1  0  0  0
 28 26  1  0  0  0
  6  7  2  0  0  0
  8  9  2  0  0  0
 10 11  2  0  0  0
 12 13  2  0  0  0
 14 28  2  0  0  0
 15 25  2  0  0  0
M  END
> <rmsd>
0.238898337

$$$$
CHEMBL4075654_6PT0


 25 26  0  0  0  0  0  0  0  0999 V2000
  131.4436  118.3830   99.5113 C   0  0  0  0  0
  130.9484  119.4716  100.2186 C   0  0  0  0  0
  131.3445  120.7749   99.9074 C   0  0  0  0  0
  132.2825  121.0093   98.8491 C   0  0  0  0  0
  132.7596  119.8813   98.1321 C   0  0  0  0  0
  132.3415  118.5874   98.4719 C   0  0  0  0  0
  133.6546  120.0688   97.0757 C   0  0  0  0  0
  133.6099  122.4120   97.4361 C   0  0  0  0  0
  132.3618  123.4783   99.2128 C   0  0  0  0  0
  133.3880  123.7847  100.2908 C   0  0  0  0  0
  132.9945  125.0249  101.0145 C   0  0  0  0  0
  133.8105  126.0739  101.0292 C   0  0  0  0  0
  135.0118  121.5091   95.6416 C   0  0  0  0  0
  136.4107  121.5042   96.1588 C   0  0  0  0  0
  138.4076  120.1153   96.9740 C   0  0  0  0  0
  138.7315  118.6422   97.1043 C   0  0  0  0  0
  139.4289  120.7581   96.0536 C   0  0  0  0  0
  138.4831  120.7527   98.3496 C   0  0  0  0  0
  130.7010  121.8428  100.7263 C   0  0  0  0  0
  134.0825  119.0710   96.4276 O   0  0  0  0  0
  134.0033  123.5680   97.1041 O   0  0  0  0  0
  136.9919  122.5977   96.3903 O   0  0  0  0  0
  134.0616  121.3253   96.7418 N   0  0  0  0  0
  132.7392  122.2633   98.4869 N   0  0  0  0  0
  137.0631  120.2561   96.4214 N   0  0  0  0  0
  2  3  1  0  0  0
  4  5  1  0  0  0
  5  7  1  0  0  0
  6  1  1  0  0  0
  7 23  1  0  0  0
  8 24  1  0  0  0
  9 24  1  0  0  0
  9 10  1  0  0  0
 10 11  1  0  0  0
 13 23  1  0  0  0
 13 14  1  0  0  0
 14 25  1  0  0  0
 15 25  1  0  0  0
 15 16  1  0  0  0
 15 17  1  0  0  0
 15 18  1  0  0  0
 19  3  1  0  0  0
 23  8  1  0  0  0
 24  4  1  0  0  0
  1  2  2  0  0  0
  3  4  2  0  0  0
  5  6  2  0  0  0
  7 20  2  0  0  0
  8 21  2  0  0  0
 11 12  2  0  0  0
 14 22  2  0  0  0
M  END
> <rmsd>
0.762957454

$$$$
CHEMBL4084719_5ZTY


 25 26  0  0  0  0  0  0  0  0999 V2000
  131.3333  118.5988   99.7505 C   0  0  0  0  0
  130.4875  119.6509   99.3971 C   0  0  0  0  0
  131.0225  120.9005   99.0765 C   0  0  0  0  0
  132.4131  121.1164   99.1056 C   0  0  0  0  0
  133.2611  120.0471   99.4605 C   0  0  0  0  0
  132.7151  118.7948   99.7822 C   0  0  0  0  0
  134.6418  120.2634   99.4811 C   0  0  0  0  0
  134.3076  122.5205   98.8123 C   0  0  0  0  0
  132.0816  123.4669   98.4390 C   0  0  0  0  0
  131.4859  124.1119   99.6838 C   0  0  0  0  0
  132.5439  124.8881  100.4434 C   0  0  0  0  0
  131.9307  125.4911  101.6887 C   0  0  0  0  0
  132.9899  126.2588  102.4506 C   0  0  0  0  0
  136.5934  121.7038   99.1557 C   0  0  0  0  0
  137.1627  121.4209   97.8063 C   0  0  0  0  0
  138.0506  119.7278   96.1458 C   0  0  0  0  0
  139.5060  120.1684   96.0546 C   0  0  0  0  0
  140.3938  119.3304   96.9613 C   0  0  0  0  0
  140.6026  117.9493   96.3694 C   0  0  0  0  0
  135.4218  119.3222   99.8020 O   0  0  0  0  0
  134.7933  123.6481   98.5100 O   0  0  0  0  0
  137.3208  122.3640   96.9860 O   0  0  0  0  0
  135.1441  121.4912   99.1535 N   0  0  0  0  0
  132.9500  122.3382   98.7955 N   0  0  0  0  0
  137.4888  120.0778   97.4433 N   0  0  0  0  0
  2  3  1  0  0  0
  4  5  1  0  0  0
  5  7  1  0  0  0
  6  1  1  0  0  0
  7 23  1  0  0  0
  8 24  1  0  0  0
  9 24  1  0  0  0
  9 10  1  0  0  0
 10 11  1  0  0  0
 11 12  1  0  0  0
 12 13  1  0  0  0
 14 23  1  0  0  0
 14 15  1  0  0  0
 15 25  1  0  0  0
 16 25  1  0  0  0
 16 17  1  0  0  0
 17 18  1  0  0  0
 18 19  1  0  0  0
 23  8  1  0  0  0
 24  4  1  0  0  0
  1  2  2  0  0  0
  3  4  2  0  0  0
  5  6  2  0  0  0
  7 20  2  0  0  0
  8 21  2  0  0  0
 15 22  2  0  0  0
M  END
> <rmsd>
0.771692455

$$$$
CHEMBL3354401_6PT0


 35 39  0  0  0  0  0  0  0  0999 V2000
  142.3039  117.3447   98.5256 C   0  0  0  0  0
  143.4544  117.9007   97.9616 C   0  0  0  0  0
  143.4323  119.2112   97.4770 C   0  0  0  0  0
  142.2616  119.9731   97.5543 C   0  0  0  0  0
  141.1015  119.4145   98.1288 C   0  0  0  0  0
  141.1308  118.0993   98.6069 C   0  0  0  0  0
  139.8225  120.1813   98.2154 C   0  0  0  0  0
  137.5964  121.0920   97.2365 C   0  0  0  0  0
  135.6113  121.5766   98.3542 C   0  0  0  0  0
  135.7413  122.8878   98.0068 C   0  0  0  0  0
  134.6788  123.5602   98.5509 C   0  0  0  0  0
  134.3363  124.9085   98.5547 C   0  0  0  0  0
  133.1844  125.2769   99.2720 C   0  0  0  0  0
  132.4251  124.3086   99.9654 C   0  0  0  0  0
  132.8000  122.9527   99.9488 C   0  0  0  0  0
  133.9335  122.5974   99.2145 C   0  0  0  0  0
  134.0748  120.1203   99.6746 C   0  0  0  0  0
  132.6598  119.6970   99.6569 C   0  0  0  0  0
  132.2179  118.6875  100.5240 C   0  0  0  0  0
  130.8865  118.2485  100.4947 C   0  0  0  0  0
  129.9869  118.8472   99.6022 C   0  0  0  0  0
  130.4206  119.8456   98.7271 C   0  0  0  0  0
  131.7531  120.2636   98.7503 C   0  0  0  0  0
  130.4096  117.2097  101.4676 C   0  0  0  0  0
  142.2758  121.3196   97.0419 C   0  0  0  0  0
  138.8428  119.9288   96.7060 S   0  0  0  0  0
  136.5308  120.6581   97.9751 N   0  0  0  0  0
  134.4950  121.3634   99.0878 N   0  0  0  0  0
  136.7959  123.3196   97.2822 N   0  0  0  0  0
  137.7117  122.4192   96.9011 N   0  0  0  0  0
  142.2859  122.4011   96.6304 N   0  0  0  0  0
  134.9398  119.3610  100.1903 O   0  0  0  0  0
  129.3786  116.4693  100.9155 F   0  0  0  0  0
  131.4413  116.3489  101.8004 F   0  0  0  0  0
  129.9543  117.8330  102.6144 F   0  0  0  0  0
  2  3  1  0  0  0
  4  5  1  0  0  0
  4 25  1  0  0  0
  6  1  1  0  0  0
  7  5  1  0  0  0
  7 26  1  0  0  0
  8 26  1  0  0  0
  8 30  1  0  0  0
  9 27  1  0  0  0
 10 11  1  0  0  0
 10 29  1  0  0  0
 12 13  1  0  0  0
 14 15  1  0  0  0
 16 28  1  0  0  0
 16 11  1  0  0  0
 17 18  1  0  0  0
 19 20  1  0  0  0
 21 22  1  0  0  0
 23 18  1  0  0  0
 24 20  1  0  0  0
 24 33  1  0  0  0
 24 34  1  0  0  0
 24 35  1  0  0  0
 28 17  1  0  0  0
 28  9  1  0  0  0
  1  2  2  0  0  0
  3  4  2  0  0  0
  5  6  2  0  0  0
  8 27  2  0  0  0
  9 10  2  0  0  0
 11 12  2  0  0  0
 13 14  2  0  0  0
 15 16  2  0  0  0
 17 32  2  0  0  0
 18 19  2  0  0  0
 20 21  2  0  0  0
 22 23  2  0  0  0
 29 30  2  0  0  0
 25 31  3  0  0  0
M  END
> <rmsd>
0.552178264

$$$$
CHEMBL3354949_8GUQ


 29 33  0  0  0  0  0  0  0  0999 V2000
  139.5211  120.8946   97.4001 C   0  0  0  0  0
  138.5266  120.3736   96.3689 C   0  0  0  0  0
  138.7923  118.8897   96.1912 C   0  0  0  0  0
  136.5550  121.8032   97.1798 C   0  0  0  0  0
  135.1733  121.8377   97.6728 C   0  0  0  0  0
  133.3307  122.4723   98.6323 C   0  0  0  0  0
  134.4719  122.9447   98.1035 C   0  0  0  0  0
  134.9040  124.2111   98.7245 C   0  0  0  0  0
  133.8442  124.4490   99.8283 C   0  0  0  0  0
  132.7996  123.3188   99.7315 C   0  0  0  0  0
  132.4720  124.7180   99.2335 C   0  0  0  0  0
  132.3299  120.2237   99.0762 C   0  0  0  0  0
  131.0999  120.7243   99.5348 C   0  0  0  0  0
  130.1258  119.8672  100.0512 C   0  0  0  0  0
  130.3678  118.4946  100.1137 C   0  0  0  0  0
  131.5829  117.9796   99.6592 C   0  0  0  0  0
  132.5621  118.8325   99.1403 C   0  0  0  0  0
  138.6796  121.0676   95.0318 C   0  0  0  0  0
  139.8123  122.6407   93.6454 C   0  0  0  0  0
  138.9571  122.3564   92.5799 C   0  0  0  0  0
  137.9475  121.4095   92.7514 C   0  0  0  0  0
  137.8042  120.7607   93.9783 C   0  0  0  0  0
  137.1656  120.5420   96.8770 N   0  0  0  0  0
  134.4337  120.7353   97.9271 N   0  0  0  0  0
  133.3168  121.1249   98.5335 N   0  0  0  0  0
  139.6578  121.9986   94.8344 N   0  0  0  0  0
  137.1942  122.8780   97.0188 O   0  0  0  0  0
  133.7313  118.2934   98.7154 F   0  0  0  0  0
  129.4241  117.6623  100.6147 F   0  0  0  0  0
  1  2  1  0  0  0
  2  3  1  0  0  0
  2 23  1  0  0  0
  2 18  1  0  0  0
  4  5  1  0  0  0
  7  5  1  0  0  0
  8  7  1  0  0  0
  9  8  1  0  0  0
  9 10  1  0  0  0
 10 11  1  0  0  0
 10  6  1  0  0  0
 11  9  1  0  0  0
 13 14  1  0  0  0
 15 16  1  0  0  0
 15 29  1  0  0  0
 17 28  1  0  0  0
 17 12  1  0  0  0
 19 26  1  0  0  0
 20 21  1  0  0  0
 22 18  1  0  0  0
 23  4  1  0  0  0
 25 24  1  0  0  0
 25  6  1  0  0  0
 25 12  1  0  0  0
  4 27  2  0  0  0
  5 24  2  0  0  0
  6  7  2  0  0  0
 12 13  2  0  0  0
 14 15  2  0  0  0
 16 17  2  0  0  0
 18 26  2  0  0  0
 19 20  2  0  0  0
 21 22  2  0  0  0
M  END
> <rmsd>
0.406440973

$$$$
CHEMBL4641147_5ZTY


 33 37  0  0  0  0  0  0  0  0999 V2000
  132.8655  120.0650   99.1443 C   0  0  0  0  0
  134.1786  120.0335   98.7011 C   0  0  0  0  0
  134.6953  121.1978   98.0743 C   0  0  0  0  0
  133.8417  122.3409   97.9401 C   0  0  0  0  0
  132.0942  121.1730   98.9992 C   0  0  0  0  0
  130.8639  120.8842   99.5527 C   0  0  0  0  0
  129.9108  118.8847  100.6885 C   0  0  0  0  0
  129.9731  119.1583  102.1819 C   0  0  0  0  0
  131.6842  123.4874   98.3002 C   0  0  0  0  0
  131.5393  124.2080   99.6378 C   0  0  0  0  0
  132.8251  124.9155  100.0326 C   0  0  0  0  0
  133.7039  123.9889  100.8502 C   0  0  0  0  0
  135.0090  124.6844  101.1722 C   0  0  0  0  0
  136.0966  121.2281   97.5742 C   0  0  0  0  0
  138.1492  119.9197   96.7613 C   0  0  0  0  0
  138.5063  118.4400   96.5393 C   0  0  0  0  0
  139.9487  118.3134   96.0208 C   0  0  0  0  0
  140.9124  118.9245   97.0510 C   0  0  0  0  0
  140.5701  120.4061   97.2760 C   0  0  0  0  0
  139.1268  120.5167   97.7924 C   0  0  0  0  0
  140.6914  121.1631   95.9431 C   0  0  0  0  0
  139.7308  120.5585   94.9061 C   0  0  0  0  0
  140.0784  119.0768   94.6930 C   0  0  0  0  0
  138.2881  120.6701   95.4224 C   0  0  0  0  0
  134.2699  123.3832   97.3703 O   0  0  0  0  0
  131.1211  118.5809  102.7248 O   0  0  0  0  0
  136.6916  122.3304   97.4260 O   0  0  0  0  0
  139.8506  121.2459   93.6998 O   0  0  0  0  0
  134.9479  118.8909   98.8949 O   0  0  0  0  0
  132.5510  122.3139   98.4178 N   0  0  0  0  0
  130.9656  119.6075   99.9968 N   0  0  0  0  0
  132.1716  119.0985   99.7650 N   0  0  0  0  0
  136.7774  120.0070   97.2525 N   0  0  0  0  0
  1  2  1  0  0  0
  2 29  1  0  0  0
  3  4  1  0  0  0
  3 14  1  0  0  0
  4 30  1  0  0  0
  5  1  1  0  0  0
  6 31  1  0  0  0
  7 31  1  0  0  0
  7  8  1  0  0  0
  8 26  1  0  0  0
  9 30  1  0  0  0
  9 10  1  0  0  0
 10 11  1  0  0  0
 11 12  1  0  0  0
 12 13  1  0  0  0
 14 33  1  0  0  0
 15 33  1  0  0  0
 15 16  1  0  0  0
 16 17  1  0  0  0
 17 18  1  0  0  0
 18 19  1  0  0  0
 19 20  1  0  0  0
 19 21  1  0  0  0
 20 15  1  0  0  0
 21 22  1  0  0  0
 22 23  1  0  0  0
 22 24  1  0  0  0
 22 28  1  0  0  0
 23 17  1  0  0  0
 24 15  1  0  0  0
 30  5  1  0  0  0
 31 32  1  0  0  0
  1 32  2  0  0  0
  2  3  2  0  0  0
  4 25  2  0  0  0
  5  6  2  0  0  0
 14 27  2  0  0  0
M  END
> <rmsd>
0.765158117

$$$$
CHEMBL3354539_5ZTY


 27 29  0  0  0  0  0  0  0  0999 V2000
  140.3387  118.2060   97.5232 C   0  0  0  0  0
  139.5769  119.3449   96.8694 C   0  0  0  0  0
  140.5653  120.4303   96.4888 C   0  0  0  0  0
  138.9088  118.8189   95.6130 C   0  0  0  0  0
  138.5398  119.9018   97.8051 C   0  0  0  0  0
  137.6693  120.9435   97.5204 C   0  0  0  0  0
  136.9523  121.0407   98.7002 C   0  0  0  0  0
  135.4336  122.9897   98.0795 C   0  0  0  0  0
  134.2405  123.8185   98.4473 C   0  0  0  0  0
  134.6156  124.6829   99.6547 C   0  0  0  0  0
  133.4037  125.4237  100.2008 C   0  0  0  0  0
  132.3374  124.4182  100.6030 C   0  0  0  0  0
  131.9036  123.6340   99.3740 C   0  0  0  0  0
  132.7927  121.7751   98.0099 C   0  0  0  0  0
  132.1575  120.6118   98.6653 C   0  0  0  0  0
  131.7975  119.4863   97.9086 C   0  0  0  0  0
  131.2211  118.3726   98.5257 C   0  0  0  0  0
  131.0022  118.3740   99.9058 C   0  0  0  0  0
  131.3615  119.4876  100.6687 C   0  0  0  0  0
  131.9388  120.6005  100.0511 C   0  0  0  0  0
  137.3667  120.1299   99.5974 N   0  0  0  0  0
  135.8910  121.9624   98.9693 N   0  0  0  0  0
  133.0545  122.9883   98.7403 N   0  0  0  0  0
  138.3227  119.4637   99.0250 O   0  0  0  0  0
  136.0300  123.2195   96.9944 O   0  0  0  0  0
  133.1198  121.6984   96.7934 O   0  0  0  0  0
  130.2834  116.9782  100.6792 Cl  0  0  0  0  0
  1  2  1  0  0  0
  2  3  1  0  0  0
  2  4  1  0  0  0
  2  5  1  0  0  0
  5 24  1  0  0  0
  6  7  1  0  0  0
  7 22  1  0  0  0
  9  8  1  0  0  0
  9 10  1  0  0  0
  9 23  1  0  0  0
 10 11  1  0  0  0
 11 12  1  0  0  0
 12 13  1  0  0  0
 13 23  1  0  0  0
 14 15  1  0  0  0
 16 17  1  0  0  0
 18 19  1  0  0  0
 18 27  1  0  0  0
 20 15  1  0  0  0
 21 24  1  0  0  0
 22  8  1  0  0  0
 23 14  1  0  0  0
  5  6  2  0  0  0
  7 21  2  0  0  0
  8 25  2  0  0  0
 14 26  2  0  0  0
 15 16  2  0  0  0
 17 18  2  0  0  0
 19 20  2  0  0  0
M  END
> <rmsd>
0.616831839

$$$$
CHEMBL3354951_8GUQ


 25 28  0  0  0  0  0  0  0  0999 V2000
  138.6839  121.6115   95.3455 C   0  0  0  0  0
  138.5239  120.9102   96.6853 C   0  0  0  0  0
  139.4382  121.5552   97.7150 C   0  0  0  0  0
  136.4218  122.2090   97.3865 C   0  0  0  0  0
  135.0244  122.1485   97.8312 C   0  0  0  0  0
  133.1080  122.6590   98.7175 C   0  0  0  0  0
  134.2287  123.2067   98.2184 C   0  0  0  0  0
  134.5444  124.5111   98.8307 C   0  0  0  0  0
  133.4325  124.6866   99.8942 C   0  0  0  0  0
  132.4782  123.4804   99.7830 C   0  0  0  0  0
  132.0654  124.8435   99.2494 C   0  0  0  0  0
  132.2614  120.3492   99.1685 C   0  0  0  0  0
  130.9828  120.7640   99.5773 C   0  0  0  0  0
  130.0575  119.8450  100.0768 C   0  0  0  0  0
  130.3980  118.4953  100.1720 C   0  0  0  0  0
  131.6627  118.0651   99.7671 C   0  0  0  0  0
  132.5934  118.9805   99.2654 C   0  0  0  0  0
  138.8946  119.4419   96.5325 C   0  0  0  0  0
  137.1346  120.9919   97.1295 N   0  0  0  0  0
  134.3599  120.9981   98.0808 N   0  0  0  0  0
  133.1971  121.3129   98.6426 N   0  0  0  0  0
  136.9855  123.3259   97.2291 O   0  0  0  0  0
  133.8130  118.5231   98.8890 F   0  0  0  0  0
  129.5017  117.6030  100.6566 F   0  0  0  0  0
  140.2064  119.2960   96.1114 F   0  0  0  0  0
  1  2  1  0  0  0
  2  3  1  0  0  0
  2 19  1  0  0  0
  2 18  1  0  0  0
  4  5  1  0  0  0
  7  5  1  0  0  0
  8  7  1  0  0  0
  9  8  1  0  0  0
  9 10  1  0  0  0
 10 11  1  0  0  0
 10  6  1  0  0  0
 11  9  1  0  0  0
 13 14  1  0  0  0
 15 16  1  0  0  0
 15 24  1  0  0  0
 17 23  1  0  0  0
 17 12  1  0  0  0
 18 25  1  0  0  0
 19  4  1  0  0  0
 21 20  1  0  0  0
 21  6  1  0  0  0
 21 12  1  0  0  0
  4 22  2  0  0  0
  5 20  2  0  0  0
  6  7  2  0  0  0
 12 13  2  0  0  0
 14 15  2  0  0  0
 16 17  2  0  0  0
M  END
> <rmsd>
0.332261771

$$$$
CHEMBL3942094_8GUQ


 30 31  0  0  0  0  0  0  0  0999 V2000
  138.7910  124.5282   96.8853 C   0  0  0  0  0
  138.0632  123.2937   97.2842 C   0  0  0  0  0
  136.8690  121.5821   97.2675 C   0  0  0  0  0
  135.9441  120.4673   96.8519 C   0  0  0  0  0
  135.4975  120.6506   95.4032 C   0  0  0  0  0
  136.6307  119.1017   97.0366 C   0  0  0  0  0
  139.4594  119.8708   96.6891 C   0  0  0  0  0
  133.6414  119.6346   97.6517 C   0  0  0  0  0
  132.5134  119.8079   98.5788 C   0  0  0  0  0
  130.4092  119.0622   99.3968 C   0  0  0  0  0
  130.3735  120.0998  100.3303 C   0  0  0  0  0
  131.4336  121.0126  100.3857 C   0  0  0  0  0
  132.5148  120.8554   99.5073 C   0  0  0  0  0
  132.4219  123.0457  101.4233 C   0  0  0  0  0
  132.3241  124.0366  100.2699 C   0  0  0  0  0
  132.3007  123.7670  102.7639 C   0  0  0  0  0
  137.2857  122.5768   96.4506 N   0  0  0  0  0
  137.3659  121.7024   98.5168 N   0  0  0  0  0
  134.7665  120.5246   97.7170 N   0  0  0  0  0
  131.4651  118.9399   98.5490 N   0  0  0  0  0
  138.0999  122.7728   98.4846 O   0  0  0  0  0
  138.5447  117.4066   96.2345 O   0  0  0  0  0
  137.8888  119.1345   94.6304 O   0  0  0  0  0
  133.6082  118.7141   96.7914 O   0  0  0  0  0
  131.3953  122.0634  101.3099 O   0  0  0  0  0
  138.1327  118.8447   96.0865 S   0  0  0  0  0
  133.3081  124.7060  102.8828 F   0  0  0  0  0
  131.0727  124.3992  102.8585 F   0  0  0  0  0
  132.4199  122.8536  103.7939 F   0  0  0  0  0
  129.0061  120.2334  101.4214 Cl  0  0  0  0  0
  1  2  1  0  0  0
  2 21  1  0  0  0
  3 17  1  0  0  0
  4  3  1  0  0  0
  4  5  1  0  0  0
  4  6  1  0  0  0
  4 19  1  0  0  0
  6 26  1  0  0  0
  8  9  1  0  0  0
 10 20  1  0  0  0
 11 12  1  0  0  0
 11 30  1  0  0  0
 12 25  1  0  0  0
 13  9  1  0  0  0
 14 25  1  0  0  0
 14 15  1  0  0  0
 14 16  1  0  0  0
 16 27  1  0  0  0
 16 28  1  0  0  0
 16 29  1  0  0  0
 18 21  1  0  0  0
 19  8  1  0  0  0
 26  7  1  0  0  0
  2 17  2  0  0  0
  3 18  2  0  0  0
  8 24  2  0  0  0
  9 20  2  0  0  0
 10 11  2  0  0  0
 12 13  2  0  0  0
 26 22  2  0  0  0
 26 23  2  0  0  0
M  END
> <rmsd>
0.788871408

$$$$
CHEMBL3354963_8GUQ


 25 28  0  0  0  0  0  0  0  0999 V2000
  139.0208  120.8787   95.6373 C   0  0  0  0  0
  138.7436  120.4209   97.0613 C   0  0  0  0  0
  139.0993  118.9505   97.1760 C   0  0  0  0  0
  136.6106  121.8190   97.3560 C   0  0  0  0  0
  135.1798  121.8354   97.6835 C   0  0  0  0  0
  133.2134  122.4857   98.3201 C   0  0  0  0  0
  134.3742  122.9481   97.8258 C   0  0  0  0  0
  134.6764  124.3124   98.3014 C   0  0  0  0  0
  133.4061  124.7081   99.0933 C   0  0  0  0  0
  132.4771  123.4795   99.1414 C   0  0  0  0  0
  133.2794  123.8869  100.3667 C   0  0  0  0  0
  132.2935  120.2822   99.0685 C   0  0  0  0  0
  130.9957  120.7635   99.3093 C   0  0  0  0  0
  130.0204  119.9404   99.8767 C   0  0  0  0  0
  130.3297  118.6213  100.2094 C   0  0  0  0  0
  131.6131  118.1255   99.9739 C   0  0  0  0  0
  132.5938  118.9445   99.4053 C   0  0  0  0  0
  139.5772  121.2271   98.0572 C   0  0  0  0  0
  137.3231  120.5751   97.3647 N   0  0  0  0  0
  134.4808  120.7416   98.0621 N   0  0  0  0  0
  133.2824  121.1451   98.4699 N   0  0  0  0  0
  137.2032  122.8934   97.0657 O   0  0  0  0  0
  140.9441  121.0977   97.7954 O   0  0  0  0  0
  133.8296  118.4266   99.1988 F   0  0  0  0  0
  129.3850  117.8220  100.7601 F   0  0  0  0  0
  1  2  1  0  0  0
  2  3  1  0  0  0
  2 19  1  0  0  0
  2 18  1  0  0  0
  4  5  1  0  0  0
  7  5  1  0  0  0
  8  7  1  0  0  0
  9  8  1  0  0  0
  9 10  1  0  0  0
 10 11  1  0  0  0
 10  6  1  0  0  0
 11  9  1  0  0  0
 13 14  1  0  0  0
 15 16  1  0  0  0
 15 25  1  0  0  0
 17 24  1  0  0  0
 17 12  1  0  0  0
 18 23  1  0  0  0
 19  4  1  0  0  0
 21 20  1  0  0  0
 21  6  1  0  0  0
 21 12  1  0  0  0
  4 22  2  0  0  0
  5 20  2  0  0  0
  6  7  2  0  0  0
 12 13  2  0  0  0
 14 15  2  0  0  0
 16 17  2  0  0  0
M  END
> <rmsd>
0.454498827

$$$$
CHEMBL1081624_8GUS


 24 26  0  0  0  0  0  0  0  0999 V2000
  133.1369  123.9794   99.5608 C   0  0  0  0  0
  133.7153  121.6829   98.8253 C   0  0  0  0  0
  134.9452  122.1158   98.3055 C   0  0  0  0  0
  135.8414  121.2195   97.7133 C   0  0  0  0  0
  137.1195  121.7244   97.1563 C   0  0  0  0  0
  138.2658  120.8496   96.8223 C   0  0  0  0  0
  139.3821  121.2535   96.1026 C   0  0  0  0  0
  140.3477  120.2454   95.9660 C   0  0  0  0  0
  140.0159  119.0418   96.5815 C   0  0  0  0  0
  135.4828  119.8713   97.6268 C   0  0  0  0  0
  134.2651  119.4156   98.1335 C   0  0  0  0  0
  133.3643  120.3163   98.7423 C   0  0  0  0  0
  132.0687  119.8342   99.2824 C   0  0  0  0  0
  132.0102  118.6624  100.0529 C   0  0  0  0  0
  130.7904  118.2078  100.5612 C   0  0  0  0  0
  129.6169  118.9208  100.3045 C   0  0  0  0  0
  129.6636  120.0881   99.5389 C   0  0  0  0  0
  130.8833  120.5422   99.0300 C   0  0  0  0  0
  132.8459  122.5934   99.4400 O   0  0  0  0  0
  137.2419  122.9640   96.9561 O   0  0  0  0  0
  133.9537  118.0666   98.0049 O   0  0  0  0  0
  138.5092  119.2551   97.2951 S   0  0  0  0  0
  130.7334  116.7447  101.5195 Cl  0  0  0  0  0
  128.1947  120.9829   99.2168 Cl  0  0  0  0  0
  1 19  1  0  0  0
  2 19  1  0  0  0
  3  4  1  0  0  0
  4  5  1  0  0  0
  5  6  1  0  0  0
  6 22  1  0  0  0
  7  8  1  0  0  0
  9 22  1  0  0  0
 10 11  1  0  0  0
 11 21  1  0  0  0
 12 13  1  0  0  0
 12  2  1  0  0  0
 14 15  1  0  0  0
 15 23  1  0  0  0
 16 17  1  0  0  0
 17 24  1  0  0  0
 18 13  1  0  0  0
  2  3  2  0  0  0
  4 10  2  0  0  0
  5 20  2  0  0  0
  6  7  2  0  0  0
  8  9  2  0  0  0
 11 12  2  0  0  0
 13 14  2  0  0  0
 15 16  2  0  0  0
 17 18  2  0  0  0
M  END
> <rmsd>
0.595006824

$$$$
CHEMBL4061136_8GUR


 25 26  0  0  0  0  0  0  0  0999 V2000
  131.4143  118.4850   99.5766 C   0  0  0  0  0
  130.9794  119.6150  100.2605 C   0  0  0  0  0
  131.4356  120.8730   99.8806 C   0  0  0  0  0
  132.3353  121.0261   98.8107 C   0  0  0  0  0
  132.7813  119.8783   98.1077 C   0  0  0  0  0
  132.3063  118.5964   98.5083 C   0  0  0  0  0
  132.7108  117.3222   97.8434 C   0  0  0  0  0
  133.6831  120.0768   97.0385 C   0  0  0  0  0
  133.6480  122.4256   97.4089 C   0  0  0  0  0
  132.3280  123.4602   99.1820 C   0  0  0  0  0
  133.2833  123.7582  100.3278 C   0  0  0  0  0
  132.8415  125.0033  101.0748 C   0  0  0  0  0
  133.1763  126.2475  100.2737 C   0  0  0  0  0
  135.0529  121.5262   95.6193 C   0  0  0  0  0
  136.4500  121.5048   96.1405 C   0  0  0  0  0
  138.4345  120.0912   96.9436 C   0  0  0  0  0
  138.7477  118.6142   97.0547 C   0  0  0  0  0
  138.5093  120.7091   98.3280 C   0  0  0  0  0
  139.4635  120.7396   96.0357 C   0  0  0  0  0
  134.1130  119.0948   96.3710 O   0  0  0  0  0
  134.0420  123.5829   97.0856 O   0  0  0  0  0
  137.0378  122.5910   96.3889 O   0  0  0  0  0
  134.0981  121.3381   96.7150 N   0  0  0  0  0
  132.7745  122.2719   98.4484 N   0  0  0  0  0
  137.0930  120.2489   96.3881 N   0  0  0  0  0
  2  3  1  0  0  0
  4  5  1  0  0  0
  5  8  1  0  0  0
  6  1  1  0  0  0
  7  6  1  0  0  0
  8 23  1  0  0  0
  9 24  1  0  0  0
 10 24  1  0  0  0
 10 11  1  0  0  0
 11 12  1  0  0  0
 12 13  1  0  0  0
 14 23  1  0  0  0
 14 15  1  0  0  0
 15 25  1  0  0  0
 16 25  1  0  0  0
 16 17  1  0  0  0
 16 18  1  0  0  0
 16 19  1  0  0  0
 23  9  1  0  0  0
 24  4  1  0  0  0
  1  2  2  0  0  0
  3  4  2  0  0  0
  5  6  2  0  0  0
  8 20  2  0  0  0
  9 21  2  0  0  0
 15 22  2  0  0  0
M  END
> <rmsd>
0.770766199

$$$$
CHEMBL4083950_5ZTY


 25 26  0  0  0  0  0  0  0  0999 V2000
  131.7115  118.3411   99.8050 C   0  0  0  0  0
  130.8106  119.3122   99.3660 C   0  0  0  0  0
  131.2623  120.5982   99.0617 C   0  0  0  0  0
  132.6233  120.9323   99.1929 C   0  0  0  0  0
  133.5277  119.9442   99.6338 C   0  0  0  0  0
  133.0653  118.6546   99.9384 C   0  0  0  0  0
  134.8796  120.2775   99.7552 C   0  0  0  0  0
  134.4109  122.4879   99.0149 C   0  0  0  0  0
  132.1494  123.2360   98.4532 C   0  0  0  0  0
  131.3997  123.8427   99.6359 C   0  0  0  0  0
  132.3117  124.7111  100.4930 C   0  0  0  0  0
  132.6397  126.0238   99.7982 C   0  0  0  0  0
  131.4428  126.9551   99.8332 C   0  0  0  0  0
  136.7237  121.8725   99.5452 C   0  0  0  0  0
  137.4117  121.6204   98.2463 C   0  0  0  0  0
  138.4756  119.9054   96.6625 C   0  0  0  0  0
  138.7670  118.4203   96.6991 C   0  0  0  0  0
  139.7839  120.6533   96.4818 C   0  0  0  0  0
  137.5548  120.1909   95.4900 C   0  0  0  0  0
  135.7083  119.4107  100.1539 O   0  0  0  0  0
  134.8230  123.6472   98.7244 O   0  0  0  0  0
  137.5828  122.5717   97.4383 O   0  0  0  0  0
  135.3013  121.5387   99.4409 N   0  0  0  0  0
  133.0785  122.1909   98.8995 N   0  0  0  0  0
  137.8362  120.2923   97.9172 N   0  0  0  0  0
  2  3  1  0  0  0
  4  5  1  0  0  0
  5  7  1  0  0  0
  6  1  1  0  0  0
  7 23  1  0  0  0
  8 24  1  0  0  0
  9 24  1  0  0  0
  9 10  1  0  0  0
 10 11  1  0  0  0
 11 12  1  0  0  0
 12 13  1  0  0  0
 14 23  1  0  0  0
 14 15  1  0  0  0
 15 25  1  0  0  0
 16 25  1  0  0  0
 16 17  1  0  0  0
 16 18  1  0  0  0
 16 19  1  0  0  0
 23  8  1  0  0  0
 24  4  1  0  0  0
  1  2  2  0  0  0
  3  4  2  0  0  0
  5  6  2  0  0  0
  7 20  2  0  0  0
  8 21  2  0  0  0
 15 22  2  0  0  0
M  END
> <rmsd>
0.790329099

$$$$
CHEMBL3899976_8GUT


 28 30  0  0  0  0  0  0  0  0999 V2000
  138.6831  118.5264   97.1946 C   0  0  0  0  0
  138.4683  119.9195   96.6054 C   0  0  0  0  0
  138.6223  119.8410   95.0987 C   0  0  0  0  0
  137.0627  120.4169   96.9203 C   0  0  0  0  0
  136.9550  120.8310   98.3900 C   0  0  0  0  0
  137.4256  122.2410   98.5818 C   0  0  0  0  0
  139.0818  123.8463   99.5698 C   0  0  0  0  0
  135.0459  119.3905   99.1608 C   0  0  0  0  0
  133.5985  119.2125   99.3581 C   0  0  0  0  0
  131.4032  120.1800   99.4740 C   0  0  0  0  0
  130.8195  118.9020   99.5772 C   0  0  0  0  0
  131.6551  117.7750   99.5359 C   0  0  0  0  0
  133.0445  117.9250   99.4375 C   0  0  0  0  0
  129.3137  118.6982   99.5435 C   0  0  0  0  0
  128.8964  117.6443  100.5834 C   0  0  0  0  0
  128.6719  119.1180  100.8727 C   0  0  0  0  0
  130.9951  122.5794   99.9595 C   0  0  0  0  0
  132.2217  123.1436   99.2534 C   0  0  0  0  0
  132.8674  124.1830  100.1435 C   0  0  0  0  0
  133.0981  125.3563   99.2414 C   0  0  0  0  0
  132.7455  124.8092   97.8800 C   0  0  0  0  0
  136.8102  123.1859   98.0163 O   0  0  0  0  0
  135.8253  118.4018   99.2661 O   0  0  0  0  0
  130.5876  121.3240   99.4331 O   0  0  0  0  0
  131.8464  123.7493   98.0471 O   0  0  0  0  0
  138.5651  122.4981   99.4057 N   0  0  0  0  0
  135.5737  120.6886   98.8382 N   0  0  0  0  0
  132.7751  120.2995   99.3878 N   0  0  0  0  0
  1  2  1  0  0  0
  2  3  1  0  0  0
  2  4  1  0  0  0
  5  4  1  0  0  0
  5  6  1  0  0  0
  5 27  1  0  0  0
  6 26  1  0  0  0
  7 26  1  0  0  0
  8  9  1  0  0  0
 10 28  1  0  0  0
 10 24  1  0  0  0
 11 12  1  0  0  0
 13  9  1  0  0  0
 14 11  1  0  0  0
 14 15  1  0  0  0
 15 16  1  0  0  0
 16 14  1  0  0  0
 17 24  1  0  0  0
 18 17  1  0  0  0
 18 19  1  0  0  0
 18 25  1  0  0  0
 19 20  1  0  0  0
 20 21  1  0  0  0
 21 25  1  0  0  0
 27  8  1  0  0  0
  6 22  2  0  0  0
  8 23  2  0  0  0
  9 28  2  0  0  0
 10 11  2  0  0  0
 12 13  2  0  0  0
M  END
> <rmsd>
0.746100068

$$$$
CHEMBL3422789_5ZTY


 25 27  0  0  0  0  0  0  0  0999 V2000
  132.8225  118.8258   98.6910 C   0  0  0  0  0
  131.6172  118.6254   99.3677 C   0  0  0  0  0
  131.0285  119.6766  100.0744 C   0  0  0  0  0
  131.6440  120.9308  100.1059 C   0  0  0  0  0
  132.8581  121.1504   99.4289 C   0  0  0  0  0
  133.4414  120.0785   98.7198 C   0  0  0  0  0
  134.6395  120.2753   98.0476 C   0  0  0  0  0
  135.2709  121.5206   98.0668 C   0  0  0  0  0
  134.6635  122.5764   98.7858 C   0  0  0  0  0
  132.8690  123.4951  100.1718 C   0  0  0  0  0
  131.9431  124.2722   99.2496 C   0  0  0  0  0
  131.2867  125.4116  100.0059 C   0  0  0  0  0
  136.5506  121.6755   97.3324 C   0  0  0  0  0
  138.3736  120.6219   95.9142 C   0  0  0  0  0
  138.5183  119.4231   94.9764 C   0  0  0  0  0
  138.6444  118.1124   95.7578 C   0  0  0  0  0
  139.7990  118.1608   96.7607 C   0  0  0  0  0
  139.6745  119.3716   97.6880 C   0  0  0  0  0
  139.5456  120.6768   96.8985 C   0  0  0  0  0
  141.1454  118.1411   96.0550 C   0  0  0  0  0
  135.2136  123.7127   98.8203 O   0  0  0  0  0
  130.3601  124.9067  100.9187 O   0  0  0  0  0
  137.1598  122.7798   97.3243 O   0  0  0  0  0
  133.4781  122.3752   99.4489 N   0  0  0  0  0
  137.1001  120.5602   96.6223 N   0  0  0  0  0
  2  3  1  0  0  0
  4  5  1  0  0  0
  6  7  1  0  0  0
  6  1  1  0  0  0
  8  9  1  0  0  0
  8 13  1  0  0  0
  9 24  1  0  0  0
 10 24  1  0  0  0
 10 11  1  0  0  0
 11 12  1  0  0  0
 12 22  1  0  0  0
 13 25  1  0  0  0
 14 25  1  0  0  0
 14 15  1  0  0  0
 15 16  1  0  0  0
 16 17  1  0  0  0
 17 18  1  0  0  0
 17 20  1  0  0  0
 18 19  1  0  0  0
 19 14  1  0  0  0
 24  5  1  0  0  0
  1  2  2  0  0  0
  3  4  2  0  0  0
  5  6  2  0  0  0
  7  8  2  0  0  0
  9 21  2  0  0  0
 13 23  2  0  0  0
M  END
> <rmsd>
0.706030726

$$$$
CHEMBL3422792_6PT0


 26 28  0  0  0  0  0  0  0  0999 V2000
  132.4128  118.8901   98.4045 C   0  0  0  0  0
  131.2414  118.7738   99.1518 C   0  0  0  0  0
  130.8638  119.8199   99.9936 C   0  0  0  0  0
  132.7842  121.0829   99.3620 C   0  0  0  0  0
  133.1968  120.0453   98.5031 C   0  0  0  0  0
  134.3727  120.1856   97.7611 C   0  0  0  0  0
  135.1443  121.3590   97.8821 C   0  0  0  0  0
  134.6941  122.3763   98.7575 C   0  0  0  0  0
  133.0867  123.2973  100.3572 C   0  0  0  0  0
  132.1966  124.2672   99.5952 C   0  0  0  0  0
  131.7501  125.3994  100.5020 C   0  0  0  0  0
  132.8864  126.3803  100.7223 C   0  0  0  0  0
  136.4046  121.5229   97.1060 C   0  0  0  0  0
  138.4150  120.4735   95.9654 C   0  0  0  0  0
  138.7762  119.1211   95.3469 C   0  0  0  0  0
  139.1161  118.0904   96.4233 C   0  0  0  0  0
  140.2587  118.5974   97.2972 C   0  0  0  0  0
  139.8689  119.9163   97.9562 C   0  0  0  0  0
  139.5359  120.9604   96.8911 C   0  0  0  0  0
  140.5693  117.5717   98.3663 C   0  0  0  0  0
  131.6324  120.9380  100.0803 N   0  0  0  0  0
  133.5340  122.2216   99.4711 N   0  0  0  0  0
  137.1514  120.3764   96.6866 N   0  0  0  0  0
  135.3739  123.4320   98.8962 O   0  0  0  0  0
  136.8262  122.6765   96.8177 O   0  0  0  0  0
  134.7570  119.1662   96.8925 O   0  0  0  0  0
  2  3  1  0  0  0
  4 21  1  0  0  0
  5  6  1  0  0  0
  5  1  1  0  0  0
  6 26  1  0  0  0
  7  8  1  0  0  0
  7 13  1  0  0  0
  8 22  1  0  0  0
  9 22  1  0  0  0
  9 10  1  0  0  0
 10 11  1  0  0  0
 11 12  1  0  0  0
 13 23  1  0  0  0
 14 23  1  0  0  0
 14 15  1  0  0  0
 15 16  1  0  0  0
 16 17  1  0  0  0
 17 18  1  0  0  0
 17 20  1  0  0  0
 18 19  1  0  0  0
 19 14  1  0  0  0
 22  4  1  0  0  0
  1  2  2  0  0  0
  3 21  2  0  0  0
  4  5  2  0  0  0
  6  7  2  0  0  0
  8 24  2  0  0  0
 13 25  2  0  0  0
M  END
> <rmsd>
0.638542295

$$$$
CHEMBL3234680_5ZTY


 30 35  0  0  0  0  0  0  0  0999 V2000
  136.9113  122.7712   97.5229 O   0  0  0  0  0
  136.2614  121.7099   97.7248 C   0  0  0  0  0
  138.1575  120.2432   96.8163 C   0  0  0  0  0
  138.2580  120.9539   95.4525 C   0  0  0  0  0
  139.6515  120.7316   94.8440 C   0  0  0  0  0
  139.8813  119.2245   94.6486 C   0  0  0  0  0
  139.7886  118.4997   96.0010 C   0  0  0  0  0
  140.8588  119.0628   96.9501 C   0  0  0  0  0
  140.6348  120.5691   97.1591 C   0  0  0  0  0
  140.7182  121.2875   95.8020 C   0  0  0  0  0
  139.2406  120.7915   97.7657 C   0  0  0  0  0
  138.3963  118.7378   96.6090 C   0  0  0  0  0
  134.9115  121.7688   98.3018 C   0  0  0  0  0
  131.9539  120.1684   99.4554 C   0  0  0  0  0
  130.7764  120.6212  100.0687 C   0  0  0  0  0
  129.7703  119.7216  100.4283 C   0  0  0  0  0
  129.9263  118.3555  100.1812 C   0  0  0  0  0
  131.1012  117.8888   99.5692 C   0  0  0  0  0
  132.1040  118.7949   99.2120 C   0  0  0  0  0
  133.0290  122.4284   99.1970 C   0  0  0  0  0
  134.2137  122.8979   98.6860 C   0  0  0  0  0
  134.6315  124.3362   98.7107 C   0  0  0  0  0
  133.4018  125.2388   98.8824 C   0  0  0  0  0
  132.4877  124.7245  100.0045 C   0  0  0  0  0
  131.9289  123.3337   99.6707 C   0  0  0  0  0
  136.8307  120.4370   97.3934 N   0  0  0  0  0
  134.1517  120.6785   98.5438 N   0  0  0  0  0
  133.0048  121.0801   99.0806 N   0  0  0  0  0
  128.6362  117.2606  100.6497 Cl  0  0  0  0  0
  131.3497  116.1828   99.2367 Cl  0  0  0  0  0
  2 26  1  0  0  0
  2 13  1  0  0  0
  3 26  1  0  0  0
  3  4  1  0  0  0
  5  4  1  0  0  0
  5  6  1  0  0  0
  7  6  1  0  0  0
  7  8  1  0  0  0
  7 12  1  0  0  0
  9  8  1  0  0  0
  9 10  1  0  0  0
  9 11  1  0  0  0
 10  5  1  0  0  0
 11  3  1  0  0  0
 12  3  1  0  0  0
 15 16  1  0  0  0
 17 29  1  0  0  0
 17 18  1  0  0  0
 18 30  1  0  0  0
 19 14  1  0  0  0
 21 13  1  0  0  0
 22 21  1  0  0  0
 22 23  1  0  0  0
 23 24  1  0  0  0
 24 25  1  0  0  0
 25 20  1  0  0  0
 28 27  1  0  0  0
 28 14  1  0  0  0
 28 20  1  0  0  0
  2  1  2  0  0  0
 13 27  2  0  0  0
 14 15  2  0  0  0
 16 17  2  0  0  0
 18 19  2  0  0  0
 20 21  2  0  0  0
M  END
> <rmsd>
0.609644353

$$$$
CHEMBL3397449_5ZTY


 25 27  0  0  0  0  0  0  0  0999 V2000
  130.8281  117.6831   99.7085 C   0  0  0  0  0
  130.3527  118.9171  100.1583 C   0  0  0  0  0
  131.0982  120.0778   99.9329 C   0  0  0  0  0
  132.3277  120.0182   99.2551 C   0  0  0  0  0
  132.7941  118.7701   98.8081 C   0  0  0  0  0
  132.0486  117.6094   99.0335 C   0  0  0  0  0
  133.1189  121.2490   99.0162 C   0  0  0  0  0
  132.6564  122.4915   99.4571 C   0  0  0  0  0
  133.3924  123.6573   99.2421 C   0  0  0  0  0
  134.6415  123.5978   98.5648 C   0  0  0  0  0
  135.1059  122.3397   98.1020 C   0  0  0  0  0
  134.3397  121.1910   98.3391 C   0  0  0  0  0
  136.3898  122.1747   97.3749 C   0  0  0  0  0
  138.0577  120.6226   96.2593 C   0  0  0  0  0
  137.9942  119.2539   95.5676 C   0  0  0  0  0
  139.3810  118.6324   95.4349 C   0  0  0  0  0
  140.0031  118.3774   96.8135 C   0  0  0  0  0
  139.5931  119.4105   97.8739 C   0  0  0  0  0
  139.2320  120.7551   97.2444 C   0  0  0  0  0
  141.5121  118.3357   96.6861 C   0  0  0  0  0
  135.2682  126.0117   98.9125 C   0  0  0  0  0
  132.7773  124.9266   99.7230 C   0  0  0  0  0
  137.1266  123.1679   97.1279 O   0  0  0  0  0
  135.4398  124.7316   98.3215 O   0  0  0  0  0
  136.7969  120.8713   96.9429 N   0  0  0  0  0
  2  3  1  0  0  0
  4  5  1  0  0  0
  4  7  1  0  0  0
  6  1  1  0  0  0
  8  9  1  0  0  0
 10 11  1  0  0  0
 10 24  1  0  0  0
 11 13  1  0  0  0
 12  7  1  0  0  0
 13 25  1  0  0  0
 14 25  1  0  0  0
 14 15  1  0  0  0
 15 16  1  0  0  0
 16 17  1  0  0  0
 17 18  1  0  0  0
 17 20  1  0  0  0
 18 19  1  0  0  0
 19 14  1  0  0  0
 21 24  1  0  0  0
 22  9  1  0  0  0
  1  2  2  0  0  0
  3  4  2  0  0  0
  5  6  2  0  0  0
  7  8  2  0  0  0
  9 10  2  0  0  0
 11 12  2  0  0  0
 13 23  2  0  0  0
M  END
> <rmsd>
0.377589077

$$$$
CHEMBL3234679_5ZTY


 29 31  0  0  0  0  0  0  0  0999 V2000
  138.0498  121.3261   91.8991 C   0  0  0  0  0
  137.8117  120.5691   94.2899 C   0  0  0  0  0
  138.1320  120.7918   95.7383 C   0  0  0  0  0
  136.4068  121.9856   97.1394 C   0  0  0  0  0
  135.1537  121.9365   97.9098 C   0  0  0  0  0
  133.3608  121.1924   98.8137 C   0  0  0  0  0
  132.3048  120.2306   99.2158 C   0  0  0  0  0
  132.4329  118.8796   98.8572 C   0  0  0  0  0
  131.4544  117.9496   99.2193 C   0  0  0  0  0
  130.3338  118.3621   99.9430 C   0  0  0  0  0
  130.1932  119.7042  100.3040 C   0  0  0  0  0
  131.1739  120.6322   99.9414 C   0  0  0  0  0
  134.5455  122.9734   98.5890 C   0  0  0  0  0
  135.0057  124.4007   98.6391 C   0  0  0  0  0
  135.6780  126.0220  100.1759 C   0  0  0  0  0
  133.3916  125.6206   99.8973 C   0  0  0  0  0
  132.2555  124.6635   99.5062 C   0  0  0  0  0
  132.4870  123.2449  100.0165 C   0  0  0  0  0
  139.1811  119.8173   96.3101 C   0  0  0  0  0
  138.6604  118.3886   96.3377 C   0  0  0  0  0
  140.4534  119.8607   95.4809 C   0  0  0  0  0
  139.5395  120.2272   97.7274 C   0  0  0  0  0
  138.2909  121.5002   93.3209 N   0  0  0  0  0
  136.9086  120.7929   96.5329 N   0  0  0  0  0
  134.4183  120.8165   98.0569 N   0  0  0  0  0
  133.4028  122.5095   99.1391 N   0  0  0  0  0
  134.7034  124.9725   99.9447 N   0  0  0  0  0
  137.1358  119.5659   93.9327 O   0  0  0  0  0
  137.0360  123.0710   97.0133 O   0  0  0  0  0
  1 23  1  0  0  0
  3  2  1  0  0  0
  3 24  1  0  0  0
  3 19  1  0  0  0
  4  5  1  0  0  0
  5 25  1  0  0  0
  6  7  1  0  0  0
  6 26  1  0  0  0
  8  9  1  0  0  0
 10 11  1  0  0  0
 12  7  1  0  0  0
 14 13  1  0  0  0
 14 27  1  0  0  0
 15 27  1  0  0  0
 16 27  1  0  0  0
 16 17  1  0  0  0
 17 18  1  0  0  0
 18 26  1  0  0  0
 19 20  1  0  0  0
 19 21  1  0  0  0
 19 22  1  0  0  0
 23  2  1  0  0  0
 24  4  1  0  0  0
 26 13  1  0  0  0
  2 28  2  0  0  0
  4 29  2  0  0  0
  6 25  2  0  0  0
  7  8  2  0  0  0
  9 10  2  0  0  0
 11 12  2  0  0  0
 13  5  2  0  0  0
M  END
> <rmsd>
0.260964543

$$$$
CHEMBL3354973_8GUQ


 25 28  0  0  0  0  0  0  0  0999 V2000
  138.7528  118.8818   96.1827 C   0  0  0  0  0
  138.4988  120.3639   96.3831 C   0  0  0  0  0
  139.4730  120.8731   97.4298 C   0  0  0  0  0
  136.5253  121.8180   97.1490 C   0  0  0  0  0
  135.1298  121.8684   97.6011 C   0  0  0  0  0
  133.2800  122.5157   98.5403 C   0  0  0  0  0
  134.4400  122.9806   98.0417 C   0  0  0  0  0
  134.8995  124.2027   98.7298 C   0  0  0  0  0
  133.8448  124.4098   99.8433 C   0  0  0  0  0
  132.7709  123.3161   99.6838 C   0  0  0  0  0
  132.4827  124.7484   99.2616 C   0  0  0  0  0
  132.2938  120.2719   98.9887 C   0  0  0  0  0
  132.7653  119.1149   99.6264 C   0  0  0  0  0
  131.8763  118.2179  100.2223 C   0  0  0  0  0
  130.5037  118.4657  100.1809 C   0  0  0  0  0
  130.0189  119.6010   99.5290 C   0  0  0  0  0
  130.9014  120.5062   98.9308 C   0  0  0  0  0
  138.7391  121.1052   95.0704 C   0  0  0  0  0
  137.1239  120.5516   96.8442 N   0  0  0  0  0
  134.3690  120.7733   97.8214 N   0  0  0  0  0
  133.2402  121.1748   98.3951 N   0  0  0  0  0
  137.1871  122.8840   97.0257 O   0  0  0  0  0
  137.8272  120.6983   94.0930 O   0  0  0  0  0
  130.2126  121.8612   98.0497 Cl  0  0  0  0  0
  129.3887  117.3428  100.9278 Cl  0  0  0  0  0
  1  2  1  0  0  0
  2  3  1  0  0  0
  2 19  1  0  0  0
  2 18  1  0  0  0
  4  5  1  0  0  0
  7  5  1  0  0  0
  8  7  1  0  0  0
  9  8  1  0  0  0
  9 10  1  0  0  0
 10 11  1  0  0  0
 10  6  1  0  0  0
 11  9  1  0  0  0
 13 14  1  0  0  0
 15 16  1  0  0  0
 15 25  1  0  0  0
 17 24  1  0  0  0
 17 12  1  0  0  0
 18 23  1  0  0  0
 19  4  1  0  0  0
 21 20  1  0  0  0
 21  6  1  0  0  0
 21 12  1  0  0  0
  4 22  2  0  0  0
  5 20  2  0  0  0
  6  7  2  0  0  0
 12 13  2  0  0  0
 14 15  2  0  0  0
 16 17  2  0  0  0
M  END
> <rmsd>
0.400440007

$$$$
CHEMBL3354941_8GUQ


 29 33  0  0  0  0  0  0  0  0999 V2000
  136.9710  120.3302   93.7126 C   0  0  0  0  0
  137.3446  121.1930   94.9037 C   0  0  0  0  0
  137.7017  122.5800   94.3827 C   0  0  0  0  0
  136.0881  122.1036   96.9581 C   0  0  0  0  0
  134.8548  122.0965   97.7535 C   0  0  0  0  0
  133.2737  122.6741   99.1196 C   0  0  0  0  0
  134.5718  122.8895   98.8521 C   0  0  0  0  0
  134.9799  124.2677   99.1894 C   0  0  0  0  0
  133.7207  124.8609   99.8701 C   0  0  0  0  0
  132.5892  123.8187   99.7660 C   0  0  0  0  0
  132.5936  125.0443   98.8664 C   0  0  0  0  0
  131.3831  121.3939   98.1012 C   0  0  0  0  0
  131.0954  120.2232   98.9761 C   0  0  0  0  0
  130.6524  120.4228  100.2883 C   0  0  0  0  0
  130.4088  119.3248  101.1190 C   0  0  0  0  0
  130.6131  118.0269  100.6402 C   0  0  0  0  0
  131.0641  117.8268   99.3318 C   0  0  0  0  0
  131.3078  118.9245   98.5007 C   0  0  0  0  0
  138.5297  120.5596   95.6103 C   0  0  0  0  0
  138.3770  119.9018   96.8439 C   0  0  0  0  0
  139.4691  119.2924   97.4674 C   0  0  0  0  0
  140.7265  119.3233   96.8606 C   0  0  0  0  0
  140.8913  119.9594   95.6283 C   0  0  0  0  0
  139.7993  120.5691   95.0047 C   0  0  0  0  0
  136.1735  121.2916   95.7790 N   0  0  0  0  0
  133.7396  121.4108   97.4098 N   0  0  0  0  0
  132.7763  121.7882   98.2395 N   0  0  0  0  0
  137.0661  122.8136   97.3179 O   0  0  0  0  0
  130.3769  116.9635  101.4449 F   0  0  0  0  0
  1  2  1  0  0  0
  2  3  1  0  0  0
  2 25  1  0  0  0
  2 19  1  0  0  0
  4  5  1  0  0  0
  7  5  1  0  0  0
  8  7  1  0  0  0
  9  8  1  0  0  0
  9 10  1  0  0  0
 10 11  1  0  0  0
 10  6  1  0  0  0
 11  9  1  0  0  0
 12 27  1  0  0  0
 12 13  1  0  0  0
 14 15  1  0  0  0
 16 17  1  0  0  0
 16 29  1  0  0  0
 18 13  1  0  0  0
 20 21  1  0  0  0
 22 23  1  0  0  0
 24 19  1  0  0  0
 25  4  1  0  0  0
 27 26  1  0  0  0
 27  6  1  0  0  0
  4 28  2  0  0  0
  5 26  2  0  0  0
  6  7  2  0  0  0
 13 14  2  0  0  0
 15 16  2  0  0  0
 17 18  2  0  0  0
 19 20  2  0  0  0
 21 22  2  0  0  0
 23 24  2  0  0  0
M  END
> <rmsd>
0.582860887

$$$$
CHEMBL3354974_8GUQ


 23 26  0  0  0  0  0  0  0  0999 V2000
  139.1579  121.0723   95.7924 C   0  0  0  0  0
  138.7093  120.2678   97.0036 C   0  0  0  0  0
  138.8997  118.8010   96.6808 C   0  0  0  0  0
  136.6455  121.7598   97.4577 C   0  0  0  0  0
  135.2301  121.8025   97.8438 C   0  0  0  0  0
  133.3139  122.4703   98.6226 C   0  0  0  0  0
  134.4842  122.9247   98.1438 C   0  0  0  0  0
  134.8549  124.2376   98.7054 C   0  0  0  0  0
  133.7166  124.5313   99.7134 C   0  0  0  0  0
  132.6953  123.3796   99.6211 C   0  0  0  0  0
  132.3870  124.7363   99.0067 C   0  0  0  0  0
  132.3392  120.2296   99.1583 C   0  0  0  0  0
  131.1027  120.7123   99.6106 C   0  0  0  0  0
  130.1594  119.8193  100.1206 C   0  0  0  0  0
  130.4511  118.4561  100.1734 C   0  0  0  0  0
  131.6888  118.0064   99.7106 C   0  0  0  0  0
  139.5699  120.5843   98.2263 C   0  0  0  0  0
  137.2907  120.4905   97.2859 N   0  0  0  0  0
  134.4896  120.7064   98.1237 N   0  0  0  0  0
  133.3272  121.1199   98.6164 N   0  0  0  0  0
  132.5956  118.8921   99.2171 N   0  0  0  0  0
  137.2750  122.8337   97.2601 O   0  0  0  0  0
  139.5703  121.9486   98.5228 O   0  0  0  0  0
  1  2  1  0  0  0
  2  3  1  0  0  0
  2 18  1  0  0  0
  2 17  1  0  0  0
  4  5  1  0  0  0
  7  5  1  0  0  0
  8  7  1  0  0  0
  9  8  1  0  0  0
  9 10  1  0  0  0
 10 11  1  0  0  0
 10  6  1  0  0  0
 11  9  1  0  0  0
 12 21  1  0  0  0
 13 14  1  0  0  0
 15 16  1  0  0  0
 17 23  1  0  0  0
 18  4  1  0  0  0
 20 19  1  0  0  0
 20  6  1  0  0  0
 20 12  1  0  0  0
  4 22  2  0  0  0
  5 19  2  0  0  0
  6  7  2  0  0  0
 12 13  2  0  0  0
 14 15  2  0  0  0
 16 21  2  0  0  0
M  END
> <rmsd>
0.439312577

$$$$
CHEMBL3354942_8GUQ


 29 33  0  0  0  0  0  0  0  0999 V2000
  139.4818  120.8745   97.4344 C   0  0  0  0  0
  138.5020  120.3706   96.3783 C   0  0  0  0  0
  138.7549  118.8840   96.2037 C   0  0  0  0  0
  138.6770  121.0604   95.0372 C   0  0  0  0  0
  137.7972  120.7601   93.9826 C   0  0  0  0  0
  137.9352  121.3842   92.7398 C   0  0  0  0  0
  138.9551  122.3162   92.5353 C   0  0  0  0  0
  139.8375  122.6243   93.5731 C   0  0  0  0  0
  139.7000  122.0005   94.8160 C   0  0  0  0  0
  136.5303  121.8154   97.1614 C   0  0  0  0  0
  135.1408  121.8614   97.6315 C   0  0  0  0  0
  133.2939  122.5095   98.5775 C   0  0  0  0  0
  134.4460  122.9744   98.0606 C   0  0  0  0  0
  134.9018  124.2146   98.7179 C   0  0  0  0  0
  133.8565  124.4357   99.8372 C   0  0  0  0  0
  132.7911  123.3295   99.7107 C   0  0  0  0  0
  132.4856  124.7501   99.2623 C   0  0  0  0  0
  132.3059  120.2587   99.0291 C   0  0  0  0  0
  130.9480  120.6128   99.1679 C   0  0  0  0  0
  130.0398  119.7044   99.7203 C   0  0  0  0  0
  130.4698  118.4417  100.1334 C   0  0  0  0  0
  131.8085  118.0763   99.9819 C   0  0  0  0  0
  132.7202  118.9792   99.4295 C   0  0  0  0  0
  137.1344  120.5496   96.8651 N   0  0  0  0  0
  134.3902  120.7644   97.8746 N   0  0  0  0  0
  133.2662  121.1646   98.4591 N   0  0  0  0  0
  137.1820  122.8846   97.0139 O   0  0  0  0  0
  129.5854  117.5669  100.6693 F   0  0  0  0  0
  130.4879  121.8107   98.7307 F   0  0  0  0  0
  1  2  1  0  0  0
  2  3  1  0  0  0
  2  4  1  0  0  0
  2 24  1  0  0  0
  5  6  1  0  0  0
  7  8  1  0  0  0
  9  4  1  0  0  0
 10 11  1  0  0  0
 13 11  1  0  0  0
 14 13  1  0  0  0
 15 14  1  0  0  0
 15 16  1  0  0  0
 16 17  1  0  0  0
 16 12  1  0  0  0
 17 15  1  0  0  0
 19 20  1  0  0  0
 19 29  1  0  0  0
 21 22  1  0  0  0
 21 28  1  0  0  0
 23 18  1  0  0  0
 24 10  1  0  0  0
 26 25  1  0  0  0
 26 12  1  0  0  0
 26 18  1  0  0  0
  4  5  2  0  0  0
  6  7  2  0  0  0
  8  9  2  0  0  0
 10 27  2  0  0  0
 11 25  2  0  0  0
 12 13  2  0  0  0
 18 19  2  0  0  0
 20 21  2  0  0  0
 22 23  2  0  0  0
M  END
> <rmsd>
0.399253488

$$$$
CHEMBL5081180_5ZTY


 33 35  0  0  0  0  0  0  0  0999 V2000
  135.2022  122.0256   97.1223 N   0  0  0  0  0
  137.0465  121.0933   95.9244 N   0  0  0  0  0
  137.9047  118.3826   95.7734 N   0  0  0  0  0
  137.0039  123.4515   96.2381 N   0  0  0  0  0
  138.9286  122.7927   94.9903 N   0  0  0  0  0
  134.8690  122.9081   98.1478 N   0  0  0  0  0
  136.4315  122.1411   96.3948 C   0  0  0  0  0
  138.5443  118.8057   94.5323 C   0  0  0  0  0
  138.0175  117.9802   93.3751 C   0  0  0  0  0
  138.8758  118.3922   96.8753 C   0  0  0  0  0
  139.5501  119.7462   97.0908 C   0  0  0  0  0
  138.1048  123.7710   95.6213 C   0  0  0  0  0
  137.7111  125.7879   94.0252 C   0  0  0  0  0
  134.0238  121.3226   96.6422 C   0  0  0  0  0
  132.9190  121.7691   97.6027 C   0  0  0  0  0
  132.4274  120.6077   98.4167 C   0  0  0  0  0
  133.2879  119.8812   99.2569 C   0  0  0  0  0
  132.7998  118.8035  100.0009 C   0  0  0  0  0
  131.4520  118.4453   99.9096 C   0  0  0  0  0
  130.5923  119.1638   99.0738 C   0  0  0  0  0
  131.0797  120.2419   98.3289 C   0  0  0  0  0
  133.6226  122.7905   98.4512 C   0  0  0  0  0
  132.9780  123.6157   99.4905 C   0  0  0  0  0
  133.7368  124.5164  100.2529 C   0  0  0  0  0
  133.1263  125.2979  101.2381 C   0  0  0  0  0
  131.7527  125.1846  101.4677 C   0  0  0  0  0
  130.9891  124.2912  100.7121 C   0  0  0  0  0
  131.5997  123.5102   99.7269 C   0  0  0  0  0
  136.5618  119.4362   96.1218 S   0  0  0  0  0
  138.6066  125.4852   95.5745 S   0  0  0  0  0
  136.1054  119.1991   97.5352 O   0  0  0  0  0
  135.4391  119.1232   95.1729 O   0  0  0  0  0
  130.9884  126.1625  102.7015 Cl  0  0  0  0  0
  1  7  1  0  0  0
  1  6  1  0  0  0
  7  4  1  0  0  0
  8  3  1  0  0  0
  8  9  1  0  0  0
 10  3  1  0  0  0
 10 11  1  0  0  0
 12  5  1  0  0  0
 12 30  1  0  0  0
 13 30  1  0  0  0
 14  1  1  0  0  0
 14 15  1  0  0  0
 15 16  1  0  0  0
 15 22  1  0  0  0
 17 18  1  0  0  0
 19 20  1  0  0  0
 21 16  1  0  0  0
 22 23  1  0  0  0
 24 25  1  0  0  0
 26 33  1  0  0  0
 26 27  1  0  0  0
 28 23  1  0  0  0
 29  2  1  0  0  0
 29  3  1  0  0  0
  7  2  2  0  0  0
 12  4  2  0  0  0
 16 17  2  0  0  0
 18 19  2  0  0  0
 20 21  2  0  0  0
 22  6  2  0  0  0
 23 24  2  0  0  0
 25 26  2  0  0  0
 27 28  2  0  0  0
 29 31  2  0  0  0
 29 32  2  0  0  0
M  END
> <rmsd>
0.794062495

$$$$
CHEMBL5198892_5ZTY


 29 33  0  0  0  0  0  0  0  0999 V2000
  140.8154  120.9800   95.7074 C   0  0  0  0  0
  139.8342  120.2287   94.7924 C   0  0  0  0  0
  140.2149  118.7400   94.7538 C   0  0  0  0  0
  140.1573  118.1467   96.1707 C   0  0  0  0  0
  141.1415  118.9046   97.0760 C   0  0  0  0  0
  140.7662  120.3942   97.1282 C   0  0  0  0  0
  139.3412  120.5352   97.6858 C   0  0  0  0  0
  138.3426  119.7906   96.7783 C   0  0  0  0  0
  138.4098  120.3698   95.3516 C   0  0  0  0  0
  138.7326  118.3035   96.7280 C   0  0  0  0  0
  136.2856  121.1438   97.5031 C   0  0  0  0  0
  134.9085  121.1264   98.0542 C   0  0  0  0  0
  134.3335  119.8930   98.3719 C   0  0  0  0  0
  133.0475  119.8279   98.8907 C   0  0  0  0  0
  132.3196  121.0149   99.0974 C   0  0  0  0  0
  130.4781  119.7499   99.9240 C   0  0  0  0  0
  131.1767  118.5563   99.7300 C   0  0  0  0  0
  132.4706  118.5987   99.2094 C   0  0  0  0  0
  134.1519  122.3024   98.2731 C   0  0  0  0  0
  132.1218  123.4539   99.0172 C   0  0  0  0  0
  132.3894  123.9782  100.4193 C   0  0  0  0  0
  131.6480  125.2843  100.6492 C   0  0  0  0  0
  132.4153  126.4581  100.0626 C   0  0  0  0  0
  136.9881  119.9071   97.3104 N   0  0  0  0  0
  131.0561  120.9403   99.6076 N   0  0  0  0  0
  132.8810  122.2246   98.7859 N   0  0  0  0  0
  136.8440  122.2341   97.2027 O   0  0  0  0  0
  134.6454  123.4312   97.9955 O   0  0  0  0  0
  132.3554  126.4306   98.6813 F   0  0  0  0  0
  1  2  1  0  0  0
  2  3  1  0  0  0
  3  4  1  0  0  0
  4  5  1  0  0  0
  5  6  1  0  0  0
  6  7  1  0  0  0
  6  1  1  0  0  0
  7  8  1  0  0  0
  8  9  1  0  0  0
  8 10  1  0  0  0
  8 24  1  0  0  0
  9  2  1  0  0  0
 10  4  1  0  0  0
 11 12  1  0  0  0
 13 14  1  0  0  0
 15 25  1  0  0  0
 15 26  1  0  0  0
 16 17  1  0  0  0
 18 14  1  0  0  0
 19 12  1  0  0  0
 20 26  1  0  0  0
 20 21  1  0  0  0
 21 22  1  0  0  0
 22 23  1  0  0  0
 23 29  1  0  0  0
 24 11  1  0  0  0
 26 19  1  0  0  0
 11 27  2  0  0  0
 12 13  2  0  0  0
 14 15  2  0  0  0
 16 25  2  0  0  0
 17 18  2  0  0  0
 19 28  2  0  0  0
M  END
> <rmsd>
0.803916395

$$$$
CHEMBL5087041_5ZTY


 35 38  0  0  0  0  0  0  0  0999 V2000
  136.1475  120.9053   99.2334 N   0  0  0  0  0
  138.2132  121.2444   98.0787 N   0  0  0  0  0
  139.9374  123.5336   98.1824 N   0  0  0  0  0
  137.3629  119.0254   98.2033 N   0  0  0  0  0
  138.0534  117.0043   97.2303 N   0  0  0  0  0
  135.4212  122.0497   98.9103 N   0  0  0  0  0
  137.2637  120.4373   98.4633 C   0  0  0  0  0
  140.3487  123.4350   96.7746 C   0  0  0  0  0
  140.6764  122.0028   96.3470 C   0  0  0  0  0
  141.7162  121.3863   97.2719 C   0  0  0  0  0
  141.2145  121.4484   98.7070 C   0  0  0  0  0
  140.8869  122.8901   99.1021 C   0  0  0  0  0
  138.0872  118.4241   97.3041 C   0  0  0  0  0
  138.8967  119.1648   96.2932 C   0  0  0  0  0
  135.4110  120.0671  100.1638 C   0  0  0  0  0
  134.1288  120.8611  100.4305 C   0  0  0  0  0
  132.9233  120.0601  100.0333 C   0  0  0  0  0
  132.7404  119.6119   98.7143 C   0  0  0  0  0
  131.6059  118.8694   98.3750 C   0  0  0  0  0
  130.6500  118.5699   99.3497 C   0  0  0  0  0
  130.8286  119.0117  100.6638 C   0  0  0  0  0
  131.9631  119.7544  101.0043 C   0  0  0  0  0
  134.3109  122.0746   99.5620 C   0  0  0  0  0
  133.3597  123.1980   99.4604 C   0  0  0  0  0
  132.2032  123.2244  100.2531 C   0  0  0  0  0
  131.3040  124.2900  100.1572 C   0  0  0  0  0
  131.5557  125.3385   99.2685 C   0  0  0  0  0
  132.7069  125.3223   98.4767 C   0  0  0  0  0
  133.6059  124.2562   98.5727 C   0  0  0  0  0
  138.3149  122.9459   98.4233 S   0  0  0  0  0
  137.9303  123.1973   99.8551 O   0  0  0  0  0
  137.3820  123.6981   97.5157 O   0  0  0  0  0
  142.9172  122.0656   97.1576 F   0  0  0  0  0
  141.9122  120.0656   96.9182 F   0  0  0  0  0
  130.4297  126.6727   99.1482 Cl  0  0  0  0  0
  1  7  1  0  0  0
  1  6  1  0  0  0
  7  4  1  0  0  0
  8  3  1  0  0  0
  8  9  1  0  0  0
  9 10  1  0  0  0
 10 11  1  0  0  0
 10 33  1  0  0  0
 10 34  1  0  0  0
 11 12  1  0  0  0
 12  3  1  0  0  0
 13  5  1  0  0  0
 14 13  1  0  0  0
 15  1  1  0  0  0
 15 16  1  0  0  0
 16 17  1  0  0  0
 16 23  1  0  0  0
 18 19  1  0  0  0
 20 21  1  0  0  0
 22 17  1  0  0  0
 23 24  1  0  0  0
 25 26  1  0  0  0
 27 35  1  0  0  0
 27 28  1  0  0  0
 29 24  1  0  0  0
 30  2  1  0  0  0
 30  3  1  0  0  0
  7  2  2  0  0  0
 13  4  2  0  0  0
 17 18  2  0  0  0
 19 20  2  0  0  0
 21 22  2  0  0  0
 23  6  2  0  0  0
 24 25  2  0  0  0
 26 27  2  0  0  0
 28 29  2  0  0  0
 30 31  2  0  0  0
 30 32  2  0  0  0
M  END
> <rmsd>
0.586778641

$$$$
CHEMBL5076422_5ZTY


 36 39  0  0  0  0  0  0  0  0999 V2000
  135.6349  120.4059   98.5842 N   0  0  0  0  0
  137.1692  120.5620   96.7614 N   0  0  0  0  0
  136.8497  121.7547   94.2229 N   0  0  0  0  0
  137.6711  119.0212   98.5074 N   0  0  0  0  0
  139.3955  117.4719   98.8559 N   0  0  0  0  0
  135.2092  121.7250   98.7268 N   0  0  0  0  0
  136.8391  120.0285   97.9023 C   0  0  0  0  0
  136.8157  120.3790   93.6885 C   0  0  0  0  0
  135.6173  120.1117   92.7734 C   0  0  0  0  0
  135.6106  121.0787   91.5862 C   0  0  0  0  0
  136.1382  122.4680   91.9602 C   0  0  0  0  0
  136.0306  122.7126   93.4634 C   0  0  0  0  0
  138.7524  118.4530   98.0514 C   0  0  0  0  0
  140.5312  120.1154   97.1051 C   0  0  0  0  0
  134.9128  119.5255   99.4861 C   0  0  0  0  0
  133.8653  120.4441  100.1229 C   0  0  0  0  0
  132.4819  120.0259   99.7169 C   0  0  0  0  0
  131.5669  119.6578  100.7095 C   0  0  0  0  0
  130.2708  119.2651  100.3622 C   0  0  0  0  0
  129.8843  119.2376   99.0191 C   0  0  0  0  0
  130.7935  119.6019   98.0220 C   0  0  0  0  0
  132.0892  119.9947   98.3681 C   0  0  0  0  0
  134.2289  121.7893   99.5594 C   0  0  0  0  0
  133.5804  123.0637   99.9214 C   0  0  0  0  0
  133.9662  124.2582   99.2948 C   0  0  0  0  0
  133.3503  125.4659   99.6355 C   0  0  0  0  0
  132.3447  125.4878  100.6055 C   0  0  0  0  0
  131.9555  124.3030  101.2357 C   0  0  0  0  0
  132.5715  123.0956  100.8949 C   0  0  0  0  0
  136.2423  121.7110   95.8473 S   0  0  0  0  0
  139.4609  118.8103   96.4369 S   0  0  0  0  0
  136.3813  123.0750   96.4642 O   0  0  0  0  0
  134.7939  121.3029   95.8290 O   0  0  0  0  0
  136.4001  120.5614   90.5767 F   0  0  0  0  0
  134.3150  121.1993   91.1215 F   0  0  0  0  0
  131.5729  126.9996  101.0314 Cl  0  0  0  0  0
  1  7  1  0  0  0
  1  6  1  0  0  0
  7  4  1  0  0  0
  8  3  1  0  0  0
  8  9  1  0  0  0
  9 10  1  0  0  0
 10 11  1  0  0  0
 10 34  1  0  0  0
 10 35  1  0  0  0
 11 12  1  0  0  0
 12  3  1  0  0  0
 13  5  1  0  0  0
 13 31  1  0  0  0
 14 31  1  0  0  0
 15  1  1  0  0  0
 15 16  1  0  0  0
 16 17  1  0  0  0
 16 23  1  0  0  0
 18 19  1  0  0  0
 20 21  1  0  0  0
 22 17  1  0  0  0
 23 24  1  0  0  0
 25 26  1  0  0  0
 27 36  1  0  0  0
 27 28  1  0  0  0
 29 24  1  0  0  0
 30  2  1  0  0  0
 30  3  1  0  0  0
  7  2  2  0  0  0
 13  4  2  0  0  0
 17 18  2  0  0  0
 19 20  2  0  0  0
 21 22  2  0  0  0
 23  6  2  0  0  0
 24 25  2  0  0  0
 26 27  2  0  0  0
 28 29  2  0  0  0
 30 32  2  0  0  0
 30 33  2  0  0  0
M  END
> <rmsd>
0.715733409

$$$$
CHEMBL5084492_5ZTY


 39 43  0  0  0  0  0  0  0  0999 V2000
  135.9059  120.8482   99.6665 N   0  0  0  0  0
  138.0556  121.0590   98.6349 N   0  0  0  0  0
  139.7803  123.2796   98.3583 N   0  0  0  0  0
  137.2173  118.8707   98.9905 N   0  0  0  0  0
  138.0551  116.7550   98.4274 N   0  0  0  0  0
  135.2590  122.0014   99.2275 N   0  0  0  0  0
  137.0758  120.3015   99.0393 C   0  0  0  0  0
  140.6750  122.6593   99.3561 C   0  0  0  0  0
  141.3644  121.3904   98.8477 C   0  0  0  0  0
  142.1983  121.6963   97.6025 C   0  0  0  0  0
  141.5614  122.7653   96.7099 C   0  0  0  0  0
  140.0614  122.8737   96.9714 C   0  0  0  0  0
  137.9812  118.1598   98.2071 C   0  0  0  0  0
  138.7447  118.7300   97.0789 C   0  0  0  0  0
  140.0903  118.3806   96.9048 C   0  0  0  0  0
  140.8154  118.8850   95.8212 C   0  0  0  0  0
  140.1955  119.7320   94.8987 C   0  0  0  0  0
  138.8469  120.0649   95.0518 C   0  0  0  0  0
  138.1215  119.5602   96.1345 C   0  0  0  0  0
  135.0635  120.0955  100.5803 C   0  0  0  0  0
  133.7973  120.9495  100.6937 C   0  0  0  0  0
  132.5978  120.1723  100.2352 C   0  0  0  0  0
  131.5471  119.9552  101.1336 C   0  0  0  0  0
  130.4165  119.2361  100.7348 C   0  0  0  0  0
  130.3322  118.7292   99.4348 C   0  0  0  0  0
  131.3786  118.9402   98.5327 C   0  0  0  0  0
  132.5094  119.6589   98.9303 C   0  0  0  0  0
  134.1018  122.1052   99.7822 C   0  0  0  0  0
  133.2126  123.2585   99.5450 C   0  0  0  0  0
  131.9945  123.3701  100.2311 C   0  0  0  0  0
  131.1543  124.4642  100.0072 C   0  0  0  0  0
  131.5270  125.4561   99.0964 C   0  0  0  0  0
  132.7401  125.3549   98.4102 C   0  0  0  0  0
  133.5800  124.2604   98.6340 C   0  0  0  0  0
  138.1568  122.7898   98.7241 S   0  0  0  0  0
  137.8046  123.2536  100.1104 O   0  0  0  0  0
  137.2177  123.4107   97.7273 O   0  0  0  0  0
  140.8996  120.2244   93.8516 F   0  0  0  0  0
  130.4747  126.8260   98.8157 Cl  0  0  0  0  0
  1  7  1  0  0  0
  1  6  1  0  0  0
  7  4  1  0  0  0
  8  3  1  0  0  0
  8  9  1  0  0  0
  9 10  1  0  0  0
 10 11  1  0  0  0
 11 12  1  0  0  0
 12  3  1  0  0  0
 13  5  1  0  0  0
 13 14  1  0  0  0
 15 16  1  0  0  0
 17 18  1  0  0  0
 17 38  1  0  0  0
 19 14  1  0  0  0
 20  1  1  0  0  0
 20 21  1  0  0  0
 21 22  1  0  0  0
 21 28  1  0  0  0
 23 24  1  0  0  0
 25 26  1  0  0  0
 27 22  1  0  0  0
 28 29  1  0  0  0
 30 31  1  0  0  0
 32 39  1  0  0  0
 32 33  1  0  0  0
 34 29  1  0  0  0
 35  2  1  0  0  0
 35  3  1  0  0  0
  7  2  2  0  0  0
 13  4  2  0  0  0
 14 15  2  0  0  0
 16 17  2  0  0  0
 18 19  2  0  0  0
 22 23  2  0  0  0
 24 25  2  0  0  0
 26 27  2  0  0  0
 28  6  2  0  0  0
 29 30  2  0  0  0
 31 32  2  0  0  0
 33 34  2  0  0  0
 35 36  2  0  0  0
 35 37  2  0  0  0
M  END
> <rmsd>
0.639462769

$$$$
CHEMBL5087110_5ZTY


 33 36  0  0  0  0  0  0  0  0999 V2000
  135.7495  120.4539   98.4731 N   0  0  0  0  0
  137.2512  120.6516   96.6263 N   0  0  0  0  0
  136.7511  121.8528   94.0700 N   0  0  0  0  0
  137.8149  119.1161   98.3596 N   0  0  0  0  0
  139.6776  117.7367   98.7256 N   0  0  0  0  0
  135.3081  121.7621   98.6614 N   0  0  0  0  0
  136.9609  120.1210   97.7816 C   0  0  0  0  0
  138.0799  122.4659   93.9245 C   0  0  0  0  0
  139.2140  121.5285   94.3368 C   0  0  0  0  0
  139.1211  120.2331   93.5499 C   0  0  0  0  0
  137.7746  119.5849   93.8185 C   0  0  0  0  0
  136.6503  120.5396   93.4149 C   0  0  0  0  0
  139.0240  118.7793   98.0128 C   0  0  0  0  0
  139.7787  119.4719   96.9286 C   0  0  0  0  0
  135.0508  119.5370   99.3567 C   0  0  0  0  0
  133.9979  120.4208  100.0324 C   0  0  0  0  0
  132.6157  119.9961   99.6293 C   0  0  0  0  0
  131.7166  119.5878  100.6207 C   0  0  0  0  0
  130.4216  119.1892  100.2763 C   0  0  0  0  0
  130.0200  119.1963   98.9374 C   0  0  0  0  0
  130.9132  119.6010   97.9414 C   0  0  0  0  0
  132.2080  119.9996   98.2846 C   0  0  0  0  0
  134.3367  121.7874   99.5064 C   0  0  0  0  0
  133.6760  123.0411   99.9156 C   0  0  0  0  0
  132.6800  123.0294  100.9028 C   0  0  0  0  0
  132.0527  124.2171  101.2887 C   0  0  0  0  0
  132.4177  125.4260  100.6904 C   0  0  0  0  0
  133.4102  125.4476   99.7070 C   0  0  0  0  0
  134.0373  124.2594   99.3212 C   0  0  0  0  0
  136.2607  121.7737   95.7402 S   0  0  0  0  0
  136.3813  123.1419   96.3515 O   0  0  0  0  0
  134.8250  121.3292   95.7892 O   0  0  0  0  0
  131.6320  126.9134  101.1732 Cl  0  0  0  0  0
  1  7  1  0  0  0
  1  6  1  0  0  0
  7  4  1  0  0  0
  8  3  1  0  0  0
  8  9  1  0  0  0
  9 10  1  0  0  0
 10 11  1  0  0  0
 11 12  1  0  0  0
 12  3  1  0  0  0
 13  5  1  0  0  0
 14 13  1  0  0  0
 15  1  1  0  0  0
 15 16  1  0  0  0
 16 17  1  0  0  0
 16 23  1  0  0  0
 18 19  1  0  0  0
 20 21  1  0  0  0
 22 17  1  0  0  0
 23 24  1  0  0  0
 25 26  1  0  0  0
 27 33  1  0  0  0
 27 28  1  0  0  0
 29 24  1  0  0  0
 30  2  1  0  0  0
 30  3  1  0  0  0
  7  2  2  0  0  0
 13  4  2  0  0  0
 17 18  2  0  0  0
 19 20  2  0  0  0
 21 22  2  0  0  0
 23  6  2  0  0  0
 24 25  2  0  0  0
 26 27  2  0  0  0
 28 29  2  0  0  0
 30 31  2  0  0  0
 30 32  2  0  0  0
M  END
> <rmsd>
0.70301789

$$$$
CHEMBL4092467_5ZTY


 25 26  0  0  0  0  0  0  0  0999 V2000
  131.4132  118.4907   99.5767 C   0  0  0  0  0
  130.9801  119.6207  100.2620 C   0  0  0  0  0
  131.4376  120.8784   99.8831 C   0  0  0  0  0
  132.3369  121.0315   98.8129 C   0  0  0  0  0
  132.7811  119.8837   98.1085 C   0  0  0  0  0
  132.3047  118.6022   98.5081 C   0  0  0  0  0
  132.7072  117.3282   97.8417 C   0  0  0  0  0
  133.6826  120.0823   97.0391 C   0  0  0  0  0
  133.6505  122.4307   97.4119 C   0  0  0  0  0
  132.3326  123.4652   99.1869 C   0  0  0  0  0
  133.2870  123.7601  100.3308 C   0  0  0  0  0
  132.8286  124.9738  101.0615 C   0  0  0  0  0
  133.6230  126.0357  101.1518 C   0  0  0  0  0
  135.0533  121.5314   95.6206 C   0  0  0  0  0
  136.4507  121.5079   96.1412 C   0  0  0  0  0
  138.4336  120.0911   96.9427 C   0  0  0  0  0
  139.4632  120.7386   96.0347 C   0  0  0  0  0
  138.7449  118.6137   97.0528 C   0  0  0  0  0
  138.5099  120.7082   98.3274 C   0  0  0  0  0
  134.1109  119.1004   96.3703 O   0  0  0  0  0
  134.0457  123.5879   97.0894 O   0  0  0  0  0
  137.0401  122.5932   96.3899 O   0  0  0  0  0
  134.0988  121.3434   96.7166 N   0  0  0  0  0
  132.7773  122.2773   98.4517 N   0  0  0  0  0
  137.0922  120.2509   96.3878 N   0  0  0  0  0
  2  3  1  0  0  0
  4  5  1  0  0  0
  5  8  1  0  0  0
  6  1  1  0  0  0
  7  6  1  0  0  0
  8 23  1  0  0  0
  9 24  1  0  0  0
 10 24  1  0  0  0
 10 11  1  0  0  0
 11 12  1  0  0  0
 14 23  1  0  0  0
 14 15  1  0  0  0
 15 25  1  0  0  0
 16 25  1  0  0  0
 16 17  1  0  0  0
 16 18  1  0  0  0
 16 19  1  0  0  0
 23  9  1  0  0  0
 24  4  1  0  0  0
  1  2  2  0  0  0
  3  4  2  0  0  0
  5  6  2  0  0  0
  8 20  2  0  0  0
  9 21  2  0  0  0
 12 13  2  0  0  0
 15 22  2  0  0  0
M  END
> <rmsd>
0.771202743

$$$$
CHEMBL5089095_5ZTY


 39 43  0  0  0  0  0  0  0  0999 V2000
  135.9013  120.8408   99.6535 N   0  0  0  0  0
  138.0502  121.0482   98.6208 N   0  0  0  0  0
  139.7822  123.2654   98.3555 N   0  0  0  0  0
  137.2008  118.8611   98.9619 N   0  0  0  0  0
  138.0282  116.7442   98.3880 N   0  0  0  0  0
  135.2553  121.9956   99.2176 N   0  0  0  0  0
  137.0672  120.2924   99.0211 C   0  0  0  0  0
  140.0560  122.8802   96.9616 C   0  0  0  0  0
  141.5550  122.7822   96.6905 C   0  0  0  0  0
  142.2015  121.7036   97.5643 C   0  0  0  0  0
  141.3714  121.3695   98.8049 C   0  0  0  0  0
  140.6781  122.6254   99.3400 C   0  0  0  0  0
  137.9651  118.1510   98.1782 C   0  0  0  0  0
  138.7417  118.7252   97.0613 C   0  0  0  0  0
  138.1311  119.5650   96.1171 C   0  0  0  0  0
  138.8704  120.0782   95.0479 C   0  0  0  0  0
  140.2200  119.7442   94.9082 C   0  0  0  0  0
  140.8268  118.8857   95.8289 C   0  0  0  0  0
  140.0880  118.3728   96.8988 C   0  0  0  0  0
  135.0605  120.0890  100.5694 C   0  0  0  0  0
  133.7968  120.9461  100.6887 C   0  0  0  0  0
  132.5932  120.1723  100.2351 C   0  0  0  0  0
  132.4977  119.6598   98.9303 C   0  0  0  0  0
  131.3629  118.9449   98.5372 C   0  0  0  0  0
  130.3195  118.7370   99.4437 C   0  0  0  0  0
  130.4110  119.2431  100.7435 C   0  0  0  0  0
  131.5457  119.9583  101.1378 C   0  0  0  0  0
  134.1003  122.1016   99.7766 C   0  0  0  0  0
  133.2116  123.2557   99.5417 C   0  0  0  0  0
  131.9992  123.3727  100.2367 C   0  0  0  0  0
  131.1591  124.4673  100.0145 C   0  0  0  0  0
  131.5262  125.4543   99.0962 C   0  0  0  0  0
  132.7337  125.3478   98.4010 C   0  0  0  0  0
  133.5735  124.2528   98.6233 C   0  0  0  0  0
  138.1579  122.7780   98.7207 S   0  0  0  0  0
  137.2189  123.4084   97.7297 O   0  0  0  0  0
  137.8092  123.2342  100.1105 O   0  0  0  0  0
  141.1491  120.3966   93.5768 Cl  0  0  0  0  0
  130.4743  126.8249   98.8176 Cl  0  0  0  0  0
  1  7  1  0  0  0
  1  6  1  0  0  0
  7  4  1  0  0  0
  8  3  1  0  0  0
  8  9  1  0  0  0
  9 10  1  0  0  0
 10 11  1  0  0  0
 11 12  1  0  0  0
 12  3  1  0  0  0
 13  5  1  0  0  0
 13 14  1  0  0  0
 15 16  1  0  0  0
 17 18  1  0  0  0
 17 38  1  0  0  0
 19 14  1  0  0  0
 20  1  1  0  0  0
 20 21  1  0  0  0
 21 22  1  0  0  0
 21 28  1  0  0  0
 23 24  1  0  0  0
 25 26  1  0  0  0
 27 22  1  0  0  0
 28 29  1  0  0  0
 30 31  1  0  0  0
 32 39  1  0  0  0
 32 33  1  0  0  0
 34 29  1  0  0  0
 35  2  1  0  0  0
 35  3  1  0  0  0
  7  2  2  0  0  0
 13  4  2  0  0  0
 14 15  2  0  0  0
 16 17  2  0  0  0
 18 19  2  0  0  0
 22 23  2  0  0  0
 24 25  2  0  0  0
 26 27  2  0  0  0
 28  6  2  0  0  0
 29 30  2  0  0  0
 31 32  2  0  0  0
 33 34  2  0  0  0
 35 36  2  0  0  0
 35 37  2  0  0  0
M  END
> <rmsd>
0.643619835

$$$$
