CHEMBL1259244_6KPF


 29 32  0  0  0  0  0  0  0  0999 V2000
  133.1626  147.5480  169.7295 C   0  0  0  0  0
  133.4254  146.0711  169.5264 C   0  0  0  0  0
  133.3620  145.7450  168.0459 C   0  0  0  0  0
  133.6338  144.2692  167.8189 C   0  0  0  0  0
  135.1143  143.9736  167.9850 C   0  0  0  0  0
  135.3751  142.4743  167.8718 C   0  0  0  0  0
  135.3170  141.7258  169.2179 C   0  0  0  0  0
  136.4092  142.1389  170.1933 C   0  0  0  0  0
  136.4286  141.5996  171.4885 C   0  0  0  0  0
  137.4207  141.9551  172.4047 C   0  0  0  0  0
  138.4144  142.8918  172.0469 C   0  0  0  0  0
  138.4466  143.3685  170.7185 C   0  0  0  0  0
  137.4431  143.0087  169.8172 C   0  0  0  0  0
  140.6646  144.4330  171.0369 C   0  0  0  0  0
  141.2884  145.7330  170.5625 C   0  0  0  0  0
  141.6510  143.2995  170.7836 C   0  0  0  0  0
  140.2993  144.5375  172.5257 C   0  0  0  0  0
  141.5101  144.7870  173.4386 C   0  0  0  0  0
  141.0431  145.0647  174.8664 C   0  0  0  0  0
  140.1208  143.9730  175.3145 C   0  0  0  0  0
  138.9811  143.5806  174.4257 C   0  0  0  0  0
  139.5118  143.3014  173.0139 C   0  0  0  0  0
  135.4581  140.2390  168.9114 C   0  0  0  0  0
  134.2434  139.5457  169.4930 C   0  0  0  0  0
  133.1818  140.6123  169.5932 C   0  0  0  0  0
  133.9385  141.8943  169.8568 C   0  0  0  0  0
  137.4100  141.3603  173.6610 O   0  0  0  0  0
  139.4795  144.2038  170.2772 O   0  0  0  0  0
  140.3047  143.4018  176.3763 O   0  0  0  0  0
  1  2  1  0  0  0
  2  3  1  0  0  0
  3  4  1  0  0  0
  4  5  1  0  0  0
  5  6  1  0  0  0
  6  7  1  0  0  0
  7  8  1  0  0  0
  7 23  1  0  0  0
  9 10  1  0  0  0
 10 27  1  0  0  0
 11 12  1  0  0  0
 12 28  1  0  0  0
 13  8  1  0  0  0
 14 28  1  0  0  0
 14 15  1  0  0  0
 14 16  1  0  0  0
 17 14  1  0  0  0
 17 18  1  0  0  0
 18 19  1  0  0  0
 19 20  1  0  0  0
 21 20  1  0  0  0
 22 21  1  0  0  0
 22 17  1  0  0  0
 22 11  1  0  0  0
 23 24  1  0  0  0
 24 25  1  0  0  0
 25 26  1  0  0  0
 26  7  1  0  0  0
  8  9  2  0  0  0
 10 11  2  0  0  0
 12 13  2  0  0  0
 20 29  2  0  0  0
M  END
> <rmsd>
0.592866182

$$$$
CHEMBL303479_6KPF


 28 31  0  0  0  0  0  0  0  0999 V2000
  138.5694  142.8150  171.9315 C   0  0  0  0  0
  137.4497  141.9774  172.1293 C   0  0  0  0  0
  136.5786  141.6917  171.0637 C   0  0  0  0  0
  136.8190  142.2472  169.7878 C   0  0  0  0  0
  137.9842  142.9906  169.5773 C   0  0  0  0  0
  138.8612  143.2612  170.6258 C   0  0  0  0  0
  141.1047  144.0770  171.2915 C   0  0  0  0  0
  140.5237  144.2570  172.7025 C   0  0  0  0  0
  139.5266  143.1443  173.0653 C   0  0  0  0  0
  138.7898  143.5461  174.3524 C   0  0  0  0  0
  139.6986  144.1206  175.4145 C   0  0  0  0  0
  140.9526  144.5208  175.1468 C   0  0  0  0  0
  141.5907  144.3332  173.7972 C   0  0  0  0  0
  139.1439  144.3594  176.7751 C   0  0  0  0  0
  141.9740  142.8276  171.1992 C   0  0  0  0  0
  141.9483  145.2829  170.9207 C   0  0  0  0  0
  135.9230  141.9273  168.6049 C   0  0  0  0  0
  134.6189  141.2212  168.9848 C   0  0  0  0  0
  134.8728  140.1637  170.0456 C   0  0  0  0  0
  135.3603  140.8448  171.3166 C   0  0  0  0  0
  135.6483  143.1416  167.7090 C   0  0  0  0  0
  135.0109  144.3075  168.4583 C   0  0  0  0  0
  133.5009  144.1517  168.5144 C   0  0  0  0  0
  132.8823  145.2932  169.3013 C   0  0  0  0  0
  132.8778  146.5644  168.4730 C   0  0  0  0  0
  132.2894  147.6965  169.2893 C   0  0  0  0  0
  140.0349  143.9736  170.3539 O   0  0  0  0  0
  137.2035  141.4161  173.3799 O   0  0  0  0  0
  2  3  1  0  0  0
  2 28  1  0  0  0
  4  5  1  0  0  0
  6 27  1  0  0  0
  6  1  1  0  0  0
  7 27  1  0  0  0
  7  8  1  0  0  0
  7 15  1  0  0  0
  7 16  1  0  0  0
  8  9  1  0  0  0
  8 13  1  0  0  0
  9 10  1  0  0  0
  9  1  1  0  0  0
 10 11  1  0  0  0
 13 12  1  0  0  0
 14 11  1  0  0  0
 17  4  1  0  0  0
 17 18  1  0  0  0
 17 21  1  0  0  0
 18 19  1  0  0  0
 19 20  1  0  0  0
 20  3  1  0  0  0
 21 22  1  0  0  0
 22 23  1  0  0  0
 23 24  1  0  0  0
 24 25  1  0  0  0
 25 26  1  0  0  0
  1  2  2  0  0  0
  3  4  2  0  0  0
  5  6  2  0  0  0
 11 12  2  0  0  0
M  END
> <rmsd>
0.816606104

$$$$
CHEMBL600602_6KPF


 27 29  0  0  0  0  0  0  0  0999 V2000
  132.8358  147.7300  169.2275 C   0  0  0  0  0
  132.9693  147.0650  167.8704 C   0  0  0  0  0
  134.0486  145.9977  167.9068 C   0  0  0  0  0
  133.5460  144.7608  168.6270 C   0  0  0  0  0
  134.6439  143.7202  168.6640 C   0  0  0  0  0
  134.1463  142.4833  169.4002 C   0  0  0  0  0
  135.1956  141.3719  169.5320 C   0  0  0  0  0
  134.4686  140.1488  170.0754 C   0  0  0  0  0
  135.7366  140.9830  168.1613 C   0  0  0  0  0
  136.3356  141.8005  170.4478 C   0  0  0  0  0
  136.5232  141.2170  171.7108 C   0  0  0  0  0
  137.5603  141.6265  172.5518 C   0  0  0  0  0
  138.4262  142.6685  172.1541 C   0  0  0  0  0
  138.2862  143.2054  170.8553 C   0  0  0  0  0
  137.2402  142.7882  170.0307 C   0  0  0  0  0
  140.4004  144.4951  171.0421 C   0  0  0  0  0
  140.8259  145.8830  170.5997 C   0  0  0  0  0
  141.4850  143.5027  170.6406 C   0  0  0  0  0
  140.1551  144.4817  172.5584 C   0  0  0  0  0
  141.3974  144.7867  173.3947 C   0  0  0  0  0
  141.0234  144.9430  174.8741 C   0  0  0  0  0
  139.9192  144.0165  175.3378 C   0  0  0  0  0
  139.5135  144.0521  176.7696 C   0  0  0  0  0
  139.2258  143.2405  174.4886 C   0  0  0  0  0
  139.5780  143.1386  173.0257 C   0  0  0  0  0
  137.7207  140.9804  173.7718 O   0  0  0  0  0
  139.1864  144.1625  170.3694 O   0  0  0  0  0
  1  2  1  0  0  0
  2  3  1  0  0  0
  3  4  1  0  0  0
  4  5  1  0  0  0
  5  6  1  0  0  0
  6  7  1  0  0  0
  7  8  1  0  0  0
  7  9  1  0  0  0
  7 10  1  0  0  0
 11 12  1  0  0  0
 12 26  1  0  0  0
 13 14  1  0  0  0
 14 27  1  0  0  0
 15 10  1  0  0  0
 16 27  1  0  0  0
 16 17  1  0  0  0
 16 18  1  0  0  0
 19 16  1  0  0  0
 19 20  1  0  0  0
 20 21  1  0  0  0
 21 22  1  0  0  0
 23 22  1  0  0  0
 25 24  1  0  0  0
 25 19  1  0  0  0
 25 13  1  0  0  0
 10 11  2  0  0  0
 12 13  2  0  0  0
 14 15  2  0  0  0
 22 24  2  0  0  0
M  END
> <rmsd>
0.634630442

$$$$
