CHEMBL234239_8GUR


 24 25  0  0  0  0  0  0  0  0999 V2000
  135.9391  118.5824  167.5324 C   0  0  0  0  0
  135.4290  119.9785  167.2453 C   0  0  0  0  0
  134.0042  119.9000  166.7299 C   0  0  0  0  0
  133.4666  121.2904  166.4430 C   0  0  0  0  0
  133.1256  122.0023  167.7378 C   0  0  0  0  0
  132.5872  123.3925  167.4265 C   0  0  0  0  0
  132.2041  124.1761  168.6859 C   0  0  0  0  0
  133.4580  124.4255  169.5209 C   0  0  0  0  0
  131.6836  125.5342  168.2494 C   0  0  0  0  0
  131.1153  123.4542  169.4643 C   0  0  0  0  0
  131.3043  123.0509  170.7941 C   0  0  0  0  0
  130.2931  122.3830  171.4848 C   0  0  0  0  0
  129.0616  122.0966  170.8734 C   0  0  0  0  0
  128.0201  121.3900  171.6706 C   0  0  0  0  0
  126.6560  121.4915  171.3507 C   0  0  0  0  0
  125.6894  120.8390  172.1209 C   0  0  0  0  0
  124.2522  120.9549  171.7628 C   0  0  0  0  0
  126.0745  120.0805  173.2283 C   0  0  0  0  0
  127.4255  119.9759  173.5651 C   0  0  0  0  0
  127.8371  119.1727  174.7454 C   0  0  0  0  0
  128.3905  120.6289  172.7934 C   0  0  0  0  0
  128.8718  122.4934  169.5264 C   0  0  0  0  0
  129.8919  123.1614  168.8430 C   0  0  0  0  0
  127.6724  122.1937  168.8184 N   0  0  0  0  0
  1  2  1  0  0  0
  2  3  1  0  0  0
  3  4  1  0  0  0
  4  5  1  0  0  0
  5  6  1  0  0  0
  6  7  1  0  0  0
  7  8  1  0  0  0
  7  9  1  0  0  0
  7 10  1  0  0  0
 11 12  1  0  0  0
 13 14  1  0  0  0
 13 22  1  0  0  0
 15 16  1  0  0  0
 17 16  1  0  0  0
 18 19  1  0  0  0
 20 19  1  0  0  0
 21 14  1  0  0  0
 22 24  1  0  0  0
 23 10  1  0  0  0
 10 11  2  0  0  0
 12 13  2  0  0  0
 14 15  2  0  0  0
 16 18  2  0  0  0
 19 21  2  0  0  0
 22 23  2  0  0  0
M  END
> <rmsd>
0.589345336

$$$$
CHEMBL294013_8GUS


 28 30  0  0  0  0  0  0  0  0999 V2000
  136.4552  118.7995  166.9674 C   0  0  0  0  0
  135.5827  119.7134  166.1334 C   0  0  0  0  0
  135.1084  120.8720  166.9842 C   0  0  0  0  0
  134.2314  121.7865  166.1499 C   0  0  0  0  0
  133.7343  122.9506  166.9873 C   0  0  0  0  0
  132.6328  122.4887  167.9382 C   0  0  0  0  0
  132.0935  123.6098  168.8360 C   0  0  0  0  0
  133.2363  124.1707  169.6809 C   0  0  0  0  0
  131.5396  124.7446  167.9838 C   0  0  0  0  0
  130.9754  123.0493  169.6975 C   0  0  0  0  0
  129.8347  122.5064  169.0902 C   0  0  0  0  0
  128.7941  121.9771  169.8540 C   0  0  0  0  0
  128.8937  121.9329  171.2620 C   0  0  0  0  0
  127.7538  121.3372  172.0712 C   0  0  0  0  0
  128.2493  120.4813  173.2420 C   0  0  0  0  0
  127.0720  119.9552  174.0037 C   0  0  0  0  0
  126.9782  120.1402  175.3166 C   0  0  0  0  0
  125.9865  119.2450  173.2533 C   0  0  0  0  0
  125.5695  120.0709  172.0357 C   0  0  0  0  0
  126.8021  120.4765  171.2120 C   0  0  0  0  0
  126.4518  121.1589  169.8812 C   0  0  0  0  0
  125.6596  120.2067  169.0036 C   0  0  0  0  0
  125.6245  122.4194  170.1010 C   0  0  0  0  0
  130.0047  122.5434  171.8873 C   0  0  0  0  0
  131.1566  123.2239  173.9749 C   0  0  0  0  0
  131.0359  123.0764  171.0986 C   0  0  0  0  0
  127.6548  121.5000  169.1958 O   0  0  0  0  0
  130.0693  122.6233  173.2840 O   0  0  0  0  0
  1  2  1  0  0  0
  2  3  1  0  0  0
  3  4  1  0  0  0
  4  5  1  0  0  0
  5  6  1  0  0  0
  6  7  1  0  0  0
  7  8  1  0  0  0
  7  9  1  0  0  0
  7 10  1  0  0  0
 11 12  1  0  0  0
 12 27  1  0  0  0
 13 24  1  0  0  0
 14 13  1  0  0  0
 14 15  1  0  0  0
 15 16  1  0  0  0
 18 16  1  0  0  0
 18 19  1  0  0  0
 20 19  1  0  0  0
 20 21  1  0  0  0
 20 14  1  0  0  0
 21 22  1  0  0  0
 21 23  1  0  0  0
 21 27  1  0  0  0
 24 28  1  0  0  0
 25 28  1  0  0  0
 26 10  1  0  0  0
 10 11  2  0  0  0
 12 13  2  0  0  0
 16 17  2  0  0  0
 24 26  2  0  0  0
M  END
> <rmsd>
0.53225261

$$$$
CHEMBL57367_8GUS


 28 30  0  0  0  0  0  0  0  0999 V2000
  136.3769  118.7039  167.2217 C   0  0  0  0  0
  135.5332  119.5811  166.3214 C   0  0  0  0  0
  135.0687  120.7972  167.0940 C   0  0  0  0  0
  134.2205  121.6750  166.1932 C   0  0  0  0  0
  133.7336  122.8961  166.9515 C   0  0  0  0  0
  132.6105  122.5120  167.9121 C   0  0  0  0  0
  132.0797  123.6944  168.7328 C   0  0  0  0  0
  131.5589  124.7854  167.8058 C   0  0  0  0  0
  133.2211  124.2851  169.5593 C   0  0  0  0  0
  130.9397  123.2067  169.6097 C   0  0  0  0  0
  129.7976  122.6485  169.0191 C   0  0  0  0  0
  128.7370  122.1852  169.7981 C   0  0  0  0  0
  128.8164  122.2243  171.2073 C   0  0  0  0  0
  127.6584  121.6913  172.0353 C   0  0  0  0  0
  128.1334  120.8807  173.2519 C   0  0  0  0  0
  127.0236  120.1264  173.9476 C   0  0  0  0  0
  127.3169  119.4666  175.2495 C   0  0  0  0  0
  125.8189  119.9401  173.3837 C   0  0  0  0  0
  125.4407  120.5557  172.0642 C   0  0  0  0  0
  126.6869  120.8242  171.2177 C   0  0  0  0  0
  126.3748  121.4369  169.8438 C   0  0  0  0  0
  125.5562  120.4618  169.0176 C   0  0  0  0  0
  125.5934  122.7390  169.9744 C   0  0  0  0  0
  129.9300  122.8505  171.8114 C   0  0  0  0  0
  131.0666  123.6310  173.8721 C   0  0  0  0  0
  130.9816  123.3171  171.0075 C   0  0  0  0  0
  127.5970  121.6905  169.1548 O   0  0  0  0  0
  129.9773  123.0109  173.2018 O   0  0  0  0  0
  1  2  1  0  0  0
  2  3  1  0  0  0
  3  4  1  0  0  0
  4  5  1  0  0  0
  5  6  1  0  0  0
  6  7  1  0  0  0
  7  8  1  0  0  0
  7  9  1  0  0  0
  7 10  1  0  0  0
 11 12  1  0  0  0
 12 27  1  0  0  0
 13 24  1  0  0  0
 14 13  1  0  0  0
 14 15  1  0  0  0
 15 16  1  0  0  0
 17 16  1  0  0  0
 19 18  1  0  0  0
 20 19  1  0  0  0
 20 21  1  0  0  0
 20 14  1  0  0  0
 21 22  1  0  0  0
 21 23  1  0  0  0
 21 27  1  0  0  0
 24 28  1  0  0  0
 25 28  1  0  0  0
 26 10  1  0  0  0
 10 11  2  0  0  0
 12 13  2  0  0  0
 16 18  2  0  0  0
 24 26  2  0  0  0
M  END
> <rmsd>
0.550028086

$$$$
CHEMBL19847_6KPF


 27 30  0  0  0  0  0  0  0  0999 V2000
  135.5399  119.0260  167.0468 C   0  0  0  0  0
  134.6774  120.0301  166.3056 C   0  0  0  0  0
  133.4621  120.4039  167.1401 C   0  0  0  0  0
  133.8416  121.3295  168.2896 C   0  0  0  0  0
  134.1611  122.7347  167.7929 C   0  0  0  0  0
  132.9098  123.4575  167.3073 C   0  0  0  0  0
  132.0786  123.9893  168.4678 C   0  0  0  0  0
  131.2879  123.0491  169.3257 C   0  0  0  0  0
  131.7260  122.7347  170.6173 C   0  0  0  0  0
  131.0100  121.8326  171.4077 C   0  0  0  0  0
  129.8442  121.2284  170.9060 C   0  0  0  0  0
  129.4078  121.5381  169.6021 C   0  0  0  0  0
  130.1336  122.4400  168.8204 C   0  0  0  0  0
  127.3938  120.0795  169.8006 C   0  0  0  0  0
  126.8034  119.0619  168.8418 C   0  0  0  0  0
  126.2536  120.9189  170.3593 C   0  0  0  0  0
  128.1730  119.3440  170.9162 C   0  0  0  0  0
  127.3082  118.4039  171.7766 C   0  0  0  0  0
  126.9101  118.9683  173.1187 C   0  0  0  0  0
  127.3408  120.1476  173.5890 C   0  0  0  0  0
  126.8680  120.6095  174.9229 C   0  0  0  0  0
  128.2112  121.0596  172.7733 C   0  0  0  0  0
  129.0529  120.2807  171.7636 C   0  0  0  0  0
  131.3262  125.2542  168.1138 C   0  0  0  0  0
  132.5034  125.3106  169.0748 C   0  0  0  0  0
  131.4645  121.5413  172.6887 O   0  0  0  0  0
  128.2715  120.9273  169.0569 O   0  0  0  0  0
  1  2  1  0  0  0
  2  3  1  0  0  0
  3  4  1  0  0  0
  4  5  1  0  0  0
  5  6  1  0  0  0
  6  7  1  0  0  0
  7  8  1  0  0  0
  7 24  1  0  0  0
  9 10  1  0  0  0
 10 26  1  0  0  0
 11 12  1  0  0  0
 12 27  1  0  0  0
 13  8  1  0  0  0
 14 27  1  0  0  0
 14 15  1  0  0  0
 14 16  1  0  0  0
 17 14  1  0  0  0
 17 18  1  0  0  0
 18 19  1  0  0  0
 21 20  1  0  0  0
 22 20  1  0  0  0
 23 22  1  0  0  0
 23 17  1  0  0  0
 23 11  1  0  0  0
 24 25  1  0  0  0
 25  7  1  0  0  0
  8  9  2  0  0  0
 10 11  2  0  0  0
 12 13  2  0  0  0
 19 20  2  0  0  0
M  END
> <rmsd>
0.761769056

$$$$
CHEMBL56288_8GUR


 25 26  0  0  0  0  0  0  0  0999 V2000
  135.7529  118.6507  167.5161 C   0  0  0  0  0
  135.4616  119.4608  166.2668 C   0  0  0  0  0
  134.1724  120.2454  166.4322 C   0  0  0  0  0
  134.3937  121.4437  167.3357 C   0  0  0  0  0
  133.0924  122.1984  167.4978 C   0  0  0  0  0
  133.3103  123.3932  168.4183 C   0  0  0  0  0
  132.0290  124.2019  168.6771 C   0  0  0  0  0
  132.4335  125.4347  169.4652 C   0  0  0  0  0
  131.4497  124.6712  167.3473 C   0  0  0  0  0
  130.9789  123.4401  169.4713 C   0  0  0  0  0
  131.2377  122.1717  170.0115 C   0  0  0  0  0
  130.2707  121.4909  170.7536 C   0  0  0  0  0
  129.0066  122.0762  170.9833 C   0  0  0  0  0
  127.9720  121.3602  171.7714 C   0  0  0  0  0
  126.6347  121.3444  171.3445 C   0  0  0  0  0
  125.6604  120.6706  172.0862 C   0  0  0  0  0
  124.2486  120.6622  171.6232 C   0  0  0  0  0
  126.0139  120.0053  173.2626 C   0  0  0  0  0
  127.3416  120.0140  173.6973 C   0  0  0  0  0
  127.7187  119.3065  174.9482 C   0  0  0  0  0
  128.3153  120.6884  172.9553 C   0  0  0  0  0
  128.7474  123.3576  170.4503 C   0  0  0  0  0
  129.7251  124.0230  169.7079 C   0  0  0  0  0
  130.5746  120.2242  171.2396 O   0  0  0  0  0
  127.5299  123.9928  170.6681 O   0  0  0  0  0
  1  2  1  0  0  0
  2  3  1  0  0  0
  3  4  1  0  0  0
  4  5  1  0  0  0
  5  6  1  0  0  0
  6  7  1  0  0  0
  7  8  1  0  0  0
  7  9  1  0  0  0
  7 10  1  0  0  0
 11 12  1  0  0  0
 12 24  1  0  0  0
 13 14  1  0  0  0
 13 22  1  0  0  0
 15 16  1  0  0  0
 17 16  1  0  0  0
 18 19  1  0  0  0
 20 19  1  0  0  0
 21 14  1  0  0  0
 22 25  1  0  0  0
 23 10  1  0  0  0
 10 11  2  0  0  0
 12 13  2  0  0  0
 14 15  2  0  0  0
 16 18  2  0  0  0
 19 21  2  0  0  0
 22 23  2  0  0  0
M  END
> <rmsd>
0.585655153

$$$$
CHEMBL600602_6KPF


 27 29  0  0  0  0  0  0  0  0999 V2000
  135.4488  118.5324  167.5868 C   0  0  0  0  0
  135.2963  119.4143  166.3618 C   0  0  0  0  0
  134.0596  120.2862  166.4869 C   0  0  0  0  0
  134.3107  121.4253  167.4568 C   0  0  0  0  0
  133.0599  122.2685  167.5760 C   0  0  0  0  0
  133.3051  123.4038  168.5611 C   0  0  0  0  0
  132.0848  124.3049  168.7901 C   0  0  0  0  0
  132.5703  125.4967  169.6049 C   0  0  0  0  0
  131.5761  124.8618  167.4658 C   0  0  0  0  0
  130.9729  123.5495  169.5078 C   0  0  0  0  0
  130.6146  123.8509  170.8313 C   0  0  0  0  0
  129.6057  123.1433  171.4884 C   0  0  0  0  0
  128.9451  122.0796  170.8356 C   0  0  0  0  0
  129.2512  121.8234  169.4809 C   0  0  0  0  0
  130.2666  122.5367  168.8421 C   0  0  0  0  0
  127.3638  120.2267  169.2430 C   0  0  0  0  0
  127.1954  118.8999  168.5257 C   0  0  0  0  0
  126.1615  121.1076  168.9252 C   0  0  0  0  0
  127.5076  119.9900  170.7539 C   0  0  0  0  0
  126.2800  119.3547  171.4061 C   0  0  0  0  0
  126.5801  118.9788  172.8626 C   0  0  0  0  0
  127.4898  119.9527  173.5815 C   0  0  0  0  0
  127.8046  119.7077  175.0157 C   0  0  0  0  0
  128.1018  120.9676  172.9496 C   0  0  0  0  0
  127.8309  121.2906  171.5015 C   0  0  0  0  0
  129.2670  123.5175  172.7833 O   0  0  0  0  0
  128.5487  120.8538  168.7535 O   0  0  0  0  0
  1  2  1  0  0  0
  2  3  1  0  0  0
  3  4  1  0  0  0
  4  5  1  0  0  0
  5  6  1  0  0  0
  6  7  1  0  0  0
  7  8  1  0  0  0
  7  9  1  0  0  0
  7 10  1  0  0  0
 11 12  1  0  0  0
 12 26  1  0  0  0
 13 14  1  0  0  0
 14 27  1  0  0  0
 15 10  1  0  0  0
 16 27  1  0  0  0
 16 17  1  0  0  0
 16 18  1  0  0  0
 19 16  1  0  0  0
 19 20  1  0  0  0
 20 21  1  0  0  0
 21 22  1  0  0  0
 23 22  1  0  0  0
 25 24  1  0  0  0
 25 19  1  0  0  0
 25 13  1  0  0  0
 10 11  2  0  0  0
 12 13  2  0  0  0
 14 15  2  0  0  0
 22 24  2  0  0  0
M  END
> <rmsd>
0.513652027

$$$$
CHEMBL111148_6KPF


 27 29  0  0  0  0  0  0  0  0999 V2000
  136.3268  118.8416  166.9653 C   0  0  0  0  0
  135.6890  120.2107  166.8632 C   0  0  0  0  0
  134.2499  120.0651  166.4049 C   0  0  0  0  0
  133.5851  121.4261  166.3040 C   0  0  0  0  0
  133.2572  121.9572  167.6860 C   0  0  0  0  0
  132.5875  123.3191  167.5613 C   0  0  0  0  0
  132.1982  123.9468  168.9059 C   0  0  0  0  0
  133.4144  124.0496  169.8185 C   0  0  0  0  0
  131.7562  125.3740  168.6097 C   0  0  0  0  0
  131.0933  123.1475  169.5853 C   0  0  0  0  0
  131.3683  121.8783  170.1204 C   0  0  0  0  0
  130.3691  121.1248  170.7398 C   0  0  0  0  0
  129.0639  121.6353  170.8434 C   0  0  0  0  0
  128.7751  122.9022  170.3057 C   0  0  0  0  0
  129.7816  123.6428  169.6821 C   0  0  0  0  0
  126.4405  122.8646  171.1584 C   0  0  0  0  0
  126.5349  123.4459  172.5635 C   0  0  0  0  0
  125.1100  123.2821  170.5589 C   0  0  0  0  0
  126.5427  121.3219  171.1747 C   0  0  0  0  0
  125.4506  120.6753  172.0699 C   0  0  0  0  0
  125.9879  119.6004  173.0239 C   0  0  0  0  0
  127.2354  120.0881  173.7047 C   0  0  0  0  0
  127.3848  119.9660  175.1810 C   0  0  0  0  0
  128.1881  120.6797  172.9778 C   0  0  0  0  0
  127.9771  120.8218  171.4946 C   0  0  0  0  0
  130.6821  119.8679  171.2445 O   0  0  0  0  0
  127.4799  123.4263  170.3581 O   0  0  0  0  0
  1  2  1  0  0  0
  2  3  1  0  0  0
  3  4  1  0  0  0
  4  5  1  0  0  0
  5  6  1  0  0  0
  6  7  1  0  0  0
  7  8  1  0  0  0
  7  9  1  0  0  0
  7 10  1  0  0  0
 11 12  1  0  0  0
 12 26  1  0  0  0
 13 14  1  0  0  0
 14 27  1  0  0  0
 15 10  1  0  0  0
 16 27  1  0  0  0
 16 17  1  0  0  0
 16 18  1  0  0  0
 19 16  1  0  0  0
 19 20  1  0  0  0
 20 21  1  0  0  0
 21 22  1  0  0  0
 23 22  1  0  0  0
 25 24  1  0  0  0
 25 19  1  0  0  0
 25 13  1  0  0  0
 10 11  2  0  0  0
 12 13  2  0  0  0
 14 15  2  0  0  0
 22 24  2  0  0  0
M  END
> <rmsd>
0.550339222

$$$$
CHEMBL233633_8GUR


 24 26  0  0  0  0  0  0  0  0999 V2000
  135.1840  118.8111  167.7344 C   0  0  0  0  0
  134.1839  119.4525  166.7910 C   0  0  0  0  0
  134.7778  120.7004  166.1545 C   0  0  0  0  0
  134.8422  121.8525  167.1459 C   0  0  0  0  0
  133.4555  122.4134  167.3946 C   0  0  0  0  0
  133.5388  123.5377  168.4093 C   0  0  0  0  0
  132.1535  124.0852  168.7106 C   0  0  0  0  0
  131.1472  123.2355  169.4255 C   0  0  0  0  0
  131.2285  123.0619  170.8094 C   0  0  0  0  0
  130.3080  122.2464  171.4685 C   0  0  0  0  0
  129.2895  121.5794  170.7643 C   0  0  0  0  0
  128.3396  120.7167  171.5260 C   0  0  0  0  0
  128.3213  120.7608  172.9321 C   0  0  0  0  0
  127.4462  119.9534  173.6638 C   0  0  0  0  0
  127.4421  120.0174  175.1483 C   0  0  0  0  0
  126.5772  119.0859  172.9998 C   0  0  0  0  0
  126.5845  119.0262  171.6050 C   0  0  0  0  0
  125.6618  118.1024  170.8958 C   0  0  0  0  0
  127.4606  119.8346  170.8757 C   0  0  0  0  0
  129.2169  121.7593  169.3599 C   0  0  0  0  0
  130.1445  122.5770  168.7076 C   0  0  0  0  0
  131.6230  125.1520  167.7755 C   0  0  0  0  0
  132.1614  125.5346  169.1462 C   0  0  0  0  0
  128.2312  121.1472  168.5949 O   0  0  0  0  0
  1  2  1  0  0  0
  2  3  1  0  0  0
  3  4  1  0  0  0
  4  5  1  0  0  0
  5  6  1  0  0  0
  6  7  1  0  0  0
  7  8  1  0  0  0
  7 22  1  0  0  0
  9 10  1  0  0  0
 11 12  1  0  0  0
 11 20  1  0  0  0
 13 14  1  0  0  0
 15 14  1  0  0  0
 16 17  1  0  0  0
 18 17  1  0  0  0
 19 12  1  0  0  0
 20 24  1  0  0  0
 21  8  1  0  0  0
 22 23  1  0  0  0
 23  7  1  0  0  0
  8  9  2  0  0  0
 10 11  2  0  0  0
 12 13  2  0  0  0
 14 16  2  0  0  0
 17 19  2  0  0  0
 20 21  2  0  0  0
M  END
> <rmsd>
0.560652196

$$$$
CHEMBL604746_6KPF


 27 29  0  0  0  0  0  0  0  0999 V2000
  135.4391  118.5271  167.6039 C   0  0  0  0  0
  135.2885  119.4043  166.3750 C   0  0  0  0  0
  134.0534  120.2789  166.4964 C   0  0  0  0  0
  134.3062  121.4217  167.4615 C   0  0  0  0  0
  133.0570  122.2675  167.5770 C   0  0  0  0  0
  133.3040  123.4065  168.5574 C   0  0  0  0  0
  132.0852  124.3107  168.7825 C   0  0  0  0  0
  132.5729  125.5049  169.5923 C   0  0  0  0  0
  131.5776  124.8627  167.4558 C   0  0  0  0  0
  130.9720  123.5602  169.5032 C   0  0  0  0  0
  130.6111  123.8706  170.8237 C   0  0  0  0  0
  129.6027  123.1669  171.4857 C   0  0  0  0  0
  128.9427  122.0964  170.8390 C   0  0  0  0  0
  129.2479  121.8370  169.4838 C   0  0  0  0  0
  130.2647  122.5457  168.8424 C   0  0  0  0  0
  127.3495  120.2550  169.2433 C   0  0  0  0  0
  127.1655  118.9338  168.5196 C   0  0  0  0  0
  126.1565  121.1507  168.9323 C   0  0  0  0  0
  127.4944  120.0096  170.7517 C   0  0  0  0  0
  126.2644  119.3800  171.4048 C   0  0  0  0  0
  126.5693  118.9891  172.8566 C   0  0  0  0  0
  127.4989  119.9438  173.5761 C   0  0  0  0  0
  127.8267  119.6787  175.0038 C   0  0  0  0  0
  128.1162  120.9583  172.9486 C   0  0  0  0  0
  127.8314  121.3020  171.5078 C   0  0  0  0  0
  129.2468  123.5733  172.8041 N   0  0  0  0  0
  128.5407  120.8710  168.7563 O   0  0  0  0  0
  1  2  1  0  0  0
  2  3  1  0  0  0
  3  4  1  0  0  0
  4  5  1  0  0  0
  5  6  1  0  0  0
  6  7  1  0  0  0
  7  8  1  0  0  0
  7  9  1  0  0  0
  7 10  1  0  0  0
 11 12  1  0  0  0
 12 26  1  0  0  0
 13 14  1  0  0  0
 14 27  1  0  0  0
 15 10  1  0  0  0
 16 27  1  0  0  0
 16 17  1  0  0  0
 16 18  1  0  0  0
 19 16  1  0  0  0
 19 20  1  0  0  0
 20 21  1  0  0  0
 21 22  1  0  0  0
 23 22  1  0  0  0
 25 24  1  0  0  0
 25 19  1  0  0  0
 25 13  1  0  0  0
 10 11  2  0  0  0
 12 13  2  0  0  0
 14 15  2  0  0  0
 22 24  2  0  0  0
M  END
> <rmsd>
0.520601928

$$$$
