CHEMBL396628_8GUR


 22 23  0  0  0  0  0  0  0  0999 V2000
  127.7647  116.2558  172.0540 C   0  0  0  0  0
  127.4267  117.2847  171.0368 C   0  0  0  0  0
  126.2560  117.1660  170.2856 C   0  0  0  0  0
  125.9417  118.1332  169.3292 C   0  0  0  0  0
  124.6972  118.0083  168.5269 C   0  0  0  0  0
  126.7983  119.2183  169.1252 C   0  0  0  0  0
  127.9788  119.3571  169.8742 C   0  0  0  0  0
  128.9108  120.5031  169.6626 C   0  0  0  0  0
  130.1838  120.4549  170.2553 C   0  0  0  0  0
  131.0995  121.4936  170.0875 C   0  0  0  0  0
  130.7673  122.6235  169.3262 C   0  0  0  0  0
  131.7679  123.7431  169.0870 C   0  0  0  0  0
  132.9855  123.6420  170.0026 C   0  0  0  0  0
  131.1098  125.0801  169.3848 C   0  0  0  0  0
  132.2297  123.7662  167.6236 C   0  0  0  0  0
  132.9932  122.5148  167.1985 C   0  0  0  0  0
  132.0414  121.4833  166.6250 C   0  0  0  0  0
  129.5010  122.6758  168.7241 C   0  0  0  0  0
  128.5760  121.6408  168.8880 C   0  0  0  0  0
  128.2815  118.3710  170.8309 C   0  0  0  0  0
  132.7541  120.3385  166.2736 O   0  0  0  0  0
  127.3331  121.7709  168.2801 O   0  0  0  0  0
  1  2  1  0  0  0
  3  4  1  0  0  0
  5  4  1  0  0  0
  6  7  1  0  0  0
  7  8  1  0  0  0
  9 10  1  0  0  0
 11 18  1  0  0  0
 12 11  1  0  0  0
 12 13  1  0  0  0
 12 14  1  0  0  0
 12 15  1  0  0  0
 15 16  1  0  0  0
 16 17  1  0  0  0
 17 21  1  0  0  0
 19 22  1  0  0  0
 19  8  1  0  0  0
 20  2  1  0  0  0
  2  3  2  0  0  0
  4  6  2  0  0  0
  7 20  2  0  0  0
  8  9  2  0  0  0
 10 11  2  0  0  0
 18 19  2  0  0  0
M  END
> <rmsd>
0.661034167

$$$$
CHEMBL234675_8GUR


 24 25  0  0  0  0  0  0  0  0999 V2000
  128.8817  115.7955  170.6128 C   0  0  0  0  0
  128.1937  116.9877  170.0534 C   0  0  0  0  0
  126.8925  116.8758  169.5600 C   0  0  0  0  0
  126.2474  117.9980  169.0369 C   0  0  0  0  0
  124.8620  117.8821  168.5131 C   0  0  0  0  0
  126.9047  119.2310  169.0070 C   0  0  0  0  0
  128.2157  119.3618  169.4948 C   0  0  0  0  0
  128.9280  120.6721  169.4812 C   0  0  0  0  0
  130.1023  120.8090  170.2399 C   0  0  0  0  0
  130.8094  122.0108  170.2662 C   0  0  0  0  0
  130.3608  123.1205  169.5356 C   0  0  0  0  0
  131.1748  124.4038  169.5343 C   0  0  0  0  0
  131.3953  124.8543  170.9683 C   0  0  0  0  0
  130.4625  125.5500  168.8195 C   0  0  0  0  0
  132.5555  124.1784  168.8999 C   0  0  0  0  0
  132.5234  123.8913  167.3954 C   0  0  0  0  0
  132.1593  122.4449  167.0955 C   0  0  0  0  0
  133.2830  121.5101  167.5089 C   0  0  0  0  0
  132.8601  120.0663  167.3116 C   0  0  0  0  0
  129.1953  122.9880  168.7650 C   0  0  0  0  0
  128.4804  121.7875  168.7321 C   0  0  0  0  0
  128.8487  118.2218  170.0225 C   0  0  0  0  0
  132.7735  119.7756  165.9498 O   0  0  0  0  0
  127.3423  121.7235  167.9371 O   0  0  0  0  0
  1  2  1  0  0  0
  3  4  1  0  0  0
  5  4  1  0  0  0
  6  7  1  0  0  0
  7  8  1  0  0  0
  9 10  1  0  0  0
 11 20  1  0  0  0
 12 11  1  0  0  0
 12 13  1  0  0  0
 12 14  1  0  0  0
 12 15  1  0  0  0
 15 16  1  0  0  0
 16 17  1  0  0  0
 17 18  1  0  0  0
 18 19  1  0  0  0
 19 23  1  0  0  0
 21 24  1  0  0  0
 21  8  1  0  0  0
 22  2  1  0  0  0
  2  3  2  0  0  0
  4  6  2  0  0  0
  7 22  2  0  0  0
  8  9  2  0  0  0
 10 11  2  0  0  0
 20 21  2  0  0  0
M  END
> <rmsd>
0.584777892

$$$$
CHEMBL334533_6KPF


 28 30  0  0  0  0  0  0  0  0999 V2000
  123.6360  117.4790  167.9753 C   0  0  0  0  0
  123.8999  118.0757  169.3414 C   0  0  0  0  0
  124.5936  119.4118  169.1826 C   0  0  0  0  0
  124.8599  120.0068  170.5486 C   0  0  0  0  0
  125.5654  121.3388  170.3891 C   0  0  0  0  0
  125.8883  121.9446  171.7529 C   0  0  0  0  0
  127.2283  121.4772  172.3397 C   0  0  0  0  0
  127.1304  120.0035  172.7242 C   0  0  0  0  0
  127.4656  122.2512  173.6247 C   0  0  0  0  0
  128.3718  121.7552  171.3763 C   0  0  0  0  0
  128.6213  123.0683  170.9513 C   0  0  0  0  0
  129.6542  123.3506  170.0556 C   0  0  0  0  0
  130.4381  122.3056  169.5204 C   0  0  0  0  0
  131.5459  122.6307  168.5334 C   0  0  0  0  0
  131.6149  121.6184  167.3792 C   0  0  0  0  0
  132.5224  122.0486  166.2473 C   0  0  0  0  0
  132.8320  121.0747  165.1613 C   0  0  0  0  0
  132.9720  123.3090  166.1299 C   0  0  0  0  0
  132.7005  124.3646  167.1664 C   0  0  0  0  0
  131.4205  124.0441  167.9413 C   0  0  0  0  0
  131.0721  125.0935  169.0089 C   0  0  0  0  0
  132.2091  125.2773  170.0071 C   0  0  0  0  0
  130.7895  126.4293  168.3461 C   0  0  0  0  0
  130.2319  120.9930  169.9970 C   0  0  0  0  0
  129.2004  120.7278  170.9002 C   0  0  0  0  0
  133.5759  120.0125  165.6754 O   0  0  0  0  0
  129.8980  124.6836  169.7068 O   0  0  0  0  0
  131.0470  119.9431  169.5903 O   0  0  0  0  0
  1  2  1  0  0  0
  2  3  1  0  0  0
  3  4  1  0  0  0
  4  5  1  0  0  0
  5  6  1  0  0  0
  6  7  1  0  0  0
  7  8  1  0  0  0
  7  9  1  0  0  0
  7 10  1  0  0  0
 11 12  1  0  0  0
 12 27  1  0  0  0
 13 24  1  0  0  0
 14 13  1  0  0  0
 14 15  1  0  0  0
 15 16  1  0  0  0
 17 16  1  0  0  0
 17 26  1  0  0  0
 19 18  1  0  0  0
 20 19  1  0  0  0
 20 21  1  0  0  0
 20 14  1  0  0  0
 21 22  1  0  0  0
 21 23  1  0  0  0
 21 27  1  0  0  0
 24 28  1  0  0  0
 25 10  1  0  0  0
 10 11  2  0  0  0
 12 13  2  0  0  0
 16 18  2  0  0  0
 24 25  2  0  0  0
M  END
> <rmsd>
0.537136972

$$$$
CHEMBL261495_8GUR


 21 22  0  0  0  0  0  0  0  0999 V2000
  124.0589  117.1554  168.6252 C   0  0  0  0  0
  124.7031  118.5249  168.6627 C   0  0  0  0  0
  125.1454  118.8355  170.0767 C   0  0  0  0  0
  125.7906  120.2039  170.1130 C   0  0  0  0  0
  126.2430  120.5138  171.5339 C   0  0  0  0  0
  126.9313  121.8772  171.6540 C   0  0  0  0  0
  127.3316  122.0708  173.1060 C   0  0  0  0  0
  125.9268  122.9767  171.3173 C   0  0  0  0  0
  128.1771  121.9347  170.7840 C   0  0  0  0  0
  129.2083  120.9988  170.9793 C   0  0  0  0  0
  130.3580  121.0274  170.1858 C   0  0  0  0  0
  130.4967  121.9908  169.1833 C   0  0  0  0  0
  131.7352  122.0001  168.3463 C   0  0  0  0  0
  132.5234  123.3068  168.5356 C   0  0  0  0  0
  133.3848  123.6795  167.3225 C   0  0  0  0  0
  133.8714  122.4339  166.5885 C   0  0  0  0  0
  132.6942  121.6243  166.0289 C   0  0  0  0  0
  131.4168  121.7260  166.8749 C   0  0  0  0  0
  129.4751  122.9284  168.9779 C   0  0  0  0  0
  128.3259  122.8994  169.7713 C   0  0  0  0  0
  133.0705  120.2878  165.9028 O   0  0  0  0  0
  1  2  1  0  0  0
  2  3  1  0  0  0
  3  4  1  0  0  0
  4  5  1  0  0  0
  5  6  1  0  0  0
  6  7  1  0  0  0
  6  8  1  0  0  0
  6  9  1  0  0  0
 10 11  1  0  0  0
 12 19  1  0  0  0
 13 12  1  0  0  0
 13 14  1  0  0  0
 14 15  1  0  0  0
 15 16  1  0  0  0
 16 17  1  0  0  0
 17 21  1  0  0  0
 17 18  1  0  0  0
 18 13  1  0  0  0
 20  9  1  0  0  0
  9 10  2  0  0  0
 11 12  2  0  0  0
 19 20  2  0  0  0
M  END
> <rmsd>
0.541067064

$$$$
CHEMBL4578071_5ZTY


 28 32  0  0  0  0  0  0  0  0999 V2000
  132.5784  119.5073  166.0473 O   0  0  0  0  0
  127.2077  120.8999  166.5265 O   0  0  0  0  0
  132.8195  120.8259  165.6657 C   0  0  0  0  0
  132.5914  121.7418  166.8484 C   0  0  0  0  0
  132.8316  123.1799  166.4306 C   0  0  0  0  0
  132.5385  124.1234  167.5860 C   0  0  0  0  0
  131.0615  124.5004  167.6331 C   0  0  0  0  0
  130.2611  122.7989  169.2995 C   0  0  0  0  0
  129.3514  121.7843  169.3657 C   0  0  0  0  0
  129.1954  121.0324  170.5271 C   0  0  0  0  0
  130.0122  121.3643  171.6221 C   0  0  0  0  0
  130.9413  122.4228  171.5130 C   0  0  0  0  0
  128.7280  121.7335  168.1318 C   0  0  0  0  0
  127.6707  120.8093  167.6956 C   0  0  0  0  0
  126.1321  118.8405  168.2718 C   0  0  0  0  0
  126.5762  117.9520  167.0935 C   0  0  0  0  0
  125.4829  116.9221  166.7692 C   0  0  0  0  0
  124.1830  117.6591  166.4061 C   0  0  0  0  0
  123.7250  118.5336  167.5851 C   0  0  0  0  0
  124.8197  119.5623  167.9089 C   0  0  0  0  0
  123.4907  117.6431  168.8160 C   0  0  0  0  0
  124.7900  116.9117  169.1897 C   0  0  0  0  0
  125.2383  116.0411  168.0048 C   0  0  0  0  0
  125.8834  117.9476  169.4994 C   0  0  0  0  0
  129.3028  122.7446  167.3569 C   0  0  0  0  0
  130.2465  123.3823  168.0894 N   0  0  0  0  0
  131.0556  123.1305  170.3491 N   0  0  0  0  0
  127.1727  119.8113  168.5961 N   0  0  0  0  0
  3  1  1  0  0  0
  3  4  1  0  0  0
  4  5  1  0  0  0
  5  6  1  0  0  0
  6  7  1  0  0  0
  7 26  1  0  0  0
  8 27  1  0  0  0
  9 10  1  0  0  0
  9 13  1  0  0  0
 11 12  1  0  0  0
 13 14  1  0  0  0
 14 28  1  0  0  0
 15 28  1  0  0  0
 15 16  1  0  0  0
 16 17  1  0  0  0
 17 18  1  0  0  0
 18 19  1  0  0  0
 19 20  1  0  0  0
 19 21  1  0  0  0
 20 15  1  0  0  0
 21 22  1  0  0  0
 22 23  1  0  0  0
 22 24  1  0  0  0
 23 17  1  0  0  0
 24 15  1  0  0  0
 25 26  1  0  0  0
 26  8  1  0  0  0
  8  9  2  0  0  0
 10 11  2  0  0  0
 12 27  2  0  0  0
 13 25  2  0  0  0
 14  2  2  0  0  0
M  END
> <rmsd>
0.63999474

$$$$
CHEMBL234897_8GUR


 23 24  0  0  0  0  0  0  0  0999 V2000
  124.3532  117.9198  168.8048 C   0  0  0  0  0
  125.4770  118.2626  167.8449 C   0  0  0  0  0
  126.6320  118.9078  168.5894 C   0  0  0  0  0
  126.2971  120.3477  168.9440 C   0  0  0  0  0
  127.4540  120.9923  169.6853 C   0  0  0  0  0
  128.5882  121.3201  168.7172 C   0  0  0  0  0
  129.8083  121.9517  169.4000 C   0  0  0  0  0
  129.3869  123.2539  170.0787 C   0  0  0  0  0
  130.3509  121.0176  170.4743 C   0  0  0  0  0
  130.8874  122.1807  168.3560 C   0  0  0  0  0
  131.3933  123.4630  168.0817 C   0  0  0  0  0
  132.3804  123.6481  167.1120 C   0  0  0  0  0
  132.8815  122.5583  166.3888 C   0  0  0  0  0
  133.9285  122.7910  165.3721 C   0  0  0  0  0
  135.0994  123.4660  165.7483 C   0  0  0  0  0
  136.1116  123.7068  164.8163 C   0  0  0  0  0
  135.9596  123.2816  163.4953 C   0  0  0  0  0
  134.7923  122.6223  163.1041 C   0  0  0  0  0
  133.7746  122.3763  164.0314 C   0  0  0  0  0
  132.3973  121.2666  166.6712 C   0  0  0  0  0
  131.4068  121.0882  167.6405 C   0  0  0  0  0
  132.5741  121.7499  163.5874 N   0  0  0  0  0
  132.9068  120.1526  166.0140 O   0  0  0  0  0
  1  2  1  0  0  0
  2  3  1  0  0  0
  3  4  1  0  0  0
  4  5  1  0  0  0
  5  6  1  0  0  0
  6  7  1  0  0  0
  7  8  1  0  0  0
  7  9  1  0  0  0
  7 10  1  0  0  0
 11 12  1  0  0  0
 13 14  1  0  0  0
 13 20  1  0  0  0
 15 16  1  0  0  0
 17 18  1  0  0  0
 19 22  1  0  0  0
 19 14  1  0  0  0
 20 23  1  0  0  0
 21 10  1  0  0  0
 10 11  2  0  0  0
 12 13  2  0  0  0
 14 15  2  0  0  0
 16 17  2  0  0  0
 18 19  2  0  0  0
 20 21  2  0  0  0
M  END
> <rmsd>
0.566589892

$$$$
CHEMBL307696_6KPF


 28 30  0  0  0  0  0  0  0  0999 V2000
  124.9489  117.1918  167.9645 C   0  0  0  0  0
  124.2230  118.1128  168.9219 C   0  0  0  0  0
  125.1715  119.1912  169.3998 C   0  0  0  0  0
  124.4460  120.1144  170.3605 C   0  0  0  0  0
  125.3842  121.1989  170.8561 C   0  0  0  0  0
  126.3522  120.6310  171.8916 C   0  0  0  0  0
  127.4221  121.6395  172.3397 C   0  0  0  0  0
  126.7432  122.8916  172.8835 C   0  0  0  0  0
  128.1878  120.9963  173.4819 C   0  0  0  0  0
  128.4073  122.0066  171.2406 C   0  0  0  0  0
  129.3864  122.9826  171.4793 C   0  0  0  0  0
  130.3178  123.3243  170.4971 C   0  0  0  0  0
  130.3247  122.6502  169.2569 C   0  0  0  0  0
  131.3562  123.0250  168.2064 C   0  0  0  0  0
  131.9272  121.7948  167.4849 C   0  0  0  0  0
  133.1392  122.0954  166.6223 C   0  0  0  0  0
  133.6908  121.0532  165.6966 C   0  0  0  0  0
  133.8093  123.2553  166.7261 C   0  0  0  0  0
  133.3620  124.3779  167.6217 C   0  0  0  0  0
  132.5237  123.8410  168.7830 C   0  0  0  0  0
  132.0471  124.9356  169.7511 C   0  0  0  0  0
  133.2428  125.5891  170.4196 C   0  0  0  0  0
  131.2451  126.0125  169.0298 C   0  0  0  0  0
  129.3055  121.7101  168.9925 C   0  0  0  0  0
  128.3758  121.3859  169.9824 C   0  0  0  0  0
  132.9229  119.8873  165.7255 O   0  0  0  0  0
  131.2349  124.3469  170.7646 O   0  0  0  0  0
  129.1974  121.0951  167.7507 O   0  0  0  0  0
  1  2  1  0  0  0
  2  3  1  0  0  0
  3  4  1  0  0  0
  4  5  1  0  0  0
  5  6  1  0  0  0
  6  7  1  0  0  0
  7  8  1  0  0  0
  7  9  1  0  0  0
  7 10  1  0  0  0
 11 12  1  0  0  0
 12 27  1  0  0  0
 13 24  1  0  0  0
 14 13  1  0  0  0
 14 15  1  0  0  0
 15 16  1  0  0  0
 17 16  1  0  0  0
 17 26  1  0  0  0
 19 18  1  0  0  0
 20 19  1  0  0  0
 20 21  1  0  0  0
 20 14  1  0  0  0
 21 22  1  0  0  0
 21 23  1  0  0  0
 21 27  1  0  0  0
 24 28  1  0  0  0
 25 10  1  0  0  0
 10 11  2  0  0  0
 12 13  2  0  0  0
 16 18  2  0  0  0
 24 25  2  0  0  0
M  END
> <rmsd>
0.457967848

$$$$
CHEMBL432107_6KPF


 28 30  0  0  0  0  0  0  0  0999 V2000
  124.2508  115.5439  168.8200 C   0  0  0  0  0
  125.2112  116.5577  168.2354 C   0  0  0  0  0
  124.7473  117.9572  168.5921 C   0  0  0  0  0
  125.7037  118.9945  168.0242 C   0  0  0  0  0
  127.0065  119.0379  168.8122 C   0  0  0  0  0
  126.8062  119.6765  170.1880 C   0  0  0  0  0
  127.0232  121.2009  170.2154 C   0  0  0  0  0
  126.0561  121.8777  169.2515 C   0  0  0  0  0
  126.6767  121.6710  171.6167 C   0  0  0  0  0
  128.4529  121.6170  169.9052 C   0  0  0  0  0
  129.4831  120.6742  169.7679 C   0  0  0  0  0
  130.7941  121.0684  169.4931 C   0  0  0  0  0
  131.1012  122.4356  169.3221 C   0  0  0  0  0
  130.0830  123.3914  169.5395 C   0  0  0  0  0
  128.7771  122.9787  169.8086 C   0  0  0  0  0
  131.6898  125.2798  169.3933 C   0  0  0  0  0
  131.6409  126.6988  168.8502 C   0  0  0  0  0
  132.3004  125.3485  170.7853 C   0  0  0  0  0
  132.5391  124.3678  168.4888 C   0  0  0  0  0
  132.0448  124.4319  167.0266 C   0  0  0  0  0
  132.3873  123.2268  166.1904 C   0  0  0  0  0
  132.9501  122.1190  166.6877 C   0  0  0  0  0
  133.2353  120.9781  165.7717 C   0  0  0  0  0
  133.3497  122.0172  168.1331 C   0  0  0  0  0
  132.5150  122.9267  169.0399 C   0  0  0  0  0
  131.7764  120.0893  169.4062 O   0  0  0  0  0
  130.3598  124.7649  169.4838 O   0  0  0  0  0
  132.4179  119.8956  166.0971 O   0  0  0  0  0
  1  2  1  0  0  0
  2  3  1  0  0  0
  3  4  1  0  0  0
  4  5  1  0  0  0
  5  6  1  0  0  0
  6  7  1  0  0  0
  7  8  1  0  0  0
  7  9  1  0  0  0
  7 10  1  0  0  0
 11 12  1  0  0  0
 12 26  1  0  0  0
 13 14  1  0  0  0
 14 27  1  0  0  0
 15 10  1  0  0  0
 16 27  1  0  0  0
 16 17  1  0  0  0
 16 18  1  0  0  0
 19 16  1  0  0  0
 19 20  1  0  0  0
 20 21  1  0  0  0
 23 22  1  0  0  0
 23 28  1  0  0  0
 24 22  1  0  0  0
 25 24  1  0  0  0
 25 19  1  0  0  0
 25 13  1  0  0  0
 10 11  2  0  0  0
 12 13  2  0  0  0
 14 15  2  0  0  0
 21 22  2  0  0  0
M  END
> <rmsd>
0.696988463

$$$$
CHEMBL1800166_8GUQ


 26 28  0  0  0  0  0  0  0  0999 V2000
  124.8002  119.2983  167.9296 C   0  0  0  0  0
  125.2167  118.1248  168.7995 C   0  0  0  0  0
  123.9878  117.2945  169.1023 C   0  0  0  0  0
  126.2059  117.2565  168.0433 C   0  0  0  0  0
  125.8097  118.6080  170.1259 C   0  0  0  0  0
  126.9872  119.5268  169.9685 C   0  0  0  0  0
  128.9359  120.2370  169.5486 C   0  0  0  0  0
  130.2692  120.3895  169.1799 C   0  0  0  0  0
  130.8490  121.6637  169.3409 C   0  0  0  0  0
  132.6192  122.4553  167.1666 C   0  0  0  0  0
  131.9483  123.8070  167.0243 C   0  0  0  0  0
  134.0738  122.5978  166.7531 C   0  0  0  0  0
  131.9053  121.4681  166.2471 C   0  0  0  0  0
  130.0846  122.7353  169.8597 C   0  0  0  0  0
  128.7390  122.5484  170.2245 C   0  0  0  0  0
  128.2034  121.2739  170.0487 C   0  0  0  0  0
  125.8642  121.5896  170.9032 C   0  0  0  0  0
  125.9358  121.5179  172.4167 C   0  0  0  0  0
  124.8194  120.6300  172.9259 C   0  0  0  0  0
  124.6820  122.1354  172.9990 C   0  0  0  0  0
  128.1921  119.1161  169.4894 N   0  0  0  0  0
  126.9657  120.8379  170.3156 N   0  0  0  0  0
  132.5226  121.9272  168.8773 S   0  0  0  0  0
  133.1211  122.9813  169.7672 O   0  0  0  0  0
  133.2951  120.6509  169.0666 O   0  0  0  0  0
  132.5119  120.2098  166.2813 O   0  0  0  0  0
  1  2  1  0  0  0
  2  3  1  0  0  0
  2  4  1  0  0  0
  2  5  1  0  0  0
  5  6  1  0  0  0
  7 21  1  0  0  0
  8  9  1  0  0  0
 10 11  1  0  0  0
 10 12  1  0  0  0
 10 13  1  0  0  0
 13 26  1  0  0  0
 14 15  1  0  0  0
 16 22  1  0  0  0
 16  7  1  0  0  0
 17 22  1  0  0  0
 17 18  1  0  0  0
 18 19  1  0  0  0
 19 20  1  0  0  0
 20 18  1  0  0  0
 22  6  1  0  0  0
 23  9  1  0  0  0
 23 10  1  0  0  0
  6 21  2  0  0  0
  7  8  2  0  0  0
  9 14  2  0  0  0
 15 16  2  0  0  0
 23 24  2  0  0  0
 23 25  2  0  0  0
M  END
> <rmsd>
0.72744441

$$$$
CHEMBL1277685_8GUR


 27 29  0  0  0  0  0  0  0  0999 V2000
  123.9301  117.7378  167.9423 C   0  0  0  0  0
  123.6914  117.2614  169.3629 C   0  0  0  0  0
  124.5467  118.0514  170.3370 C   0  0  0  0  0
  123.9653  119.4401  170.5486 C   0  0  0  0  0
  124.8410  120.2408  171.4946 C   0  0  0  0  0
  126.1098  120.7007  170.7809 C   0  0  0  0  0
  127.0623  121.4960  171.6830 C   0  0  0  0  0
  126.3431  122.7411  172.1997 C   0  0  0  0  0
  127.4688  120.6560  172.8873 C   0  0  0  0  0
  128.3063  121.8500  170.8872 C   0  0  0  0  0
  129.1024  120.8254  170.3473 C   0  0  0  0  0
  130.2448  121.1252  169.6026 C   0  0  0  0  0
  130.6104  122.4576  169.3685 C   0  0  0  0  0
  129.8430  123.4905  169.9393 C   0  0  0  0  0
  128.6958  123.1844  170.6757 C   0  0  0  0  0
  131.4653  125.2252  169.2154 C   0  0  0  0  0
  131.3107  126.6198  168.6364 C   0  0  0  0  0
  132.5044  125.2749  170.3285 C   0  0  0  0  0
  131.8800  124.2383  168.1065 C   0  0  0  0  0
  133.2339  124.5837  167.4659 C   0  0  0  0  0
  133.7877  123.4683  166.6132 C   0  0  0  0  0
  133.2717  122.2287  166.5838 C   0  0  0  0  0
  133.9161  121.2216  165.6796 C   0  0  0  0  0
  132.0387  121.8725  167.3823 C   0  0  0  0  0
  131.8680  122.7835  168.5992 C   0  0  0  0  0
  130.2091  124.8306  169.7685 O   0  0  0  0  0
  133.2555  119.9924  165.7328 O   0  0  0  0  0
  1  2  1  0  0  0
  2  3  1  0  0  0
  3  4  1  0  0  0
  4  5  1  0  0  0
  5  6  1  0  0  0
  6  7  1  0  0  0
  7  8  1  0  0  0
  7  9  1  0  0  0
  7 10  1  0  0  0
 11 12  1  0  0  0
 13 14  1  0  0  0
 14 26  1  0  0  0
 15 10  1  0  0  0
 16 26  1  0  0  0
 16 17  1  0  0  0
 16 18  1  0  0  0
 19 16  1  0  0  0
 19 20  1  0  0  0
 20 21  1  0  0  0
 23 22  1  0  0  0
 23 27  1  0  0  0
 24 22  1  0  0  0
 25 24  1  0  0  0
 25 19  1  0  0  0
 25 13  1  0  0  0
 10 11  2  0  0  0
 12 13  2  0  0  0
 14 15  2  0  0  0
 21 22  2  0  0  0
M  END
> <rmsd>
0.496704429

$$$$
CHEMBL4783200_5ZTY


 23 23  0  0  0  0  0  0  0  0999 V2000
  128.5767  121.9493  171.3886 C   0  0  0  0  0
  130.0894  122.2237  169.8035 C   0  0  0  0  0
  129.6299  122.7730  170.9913 C   0  0  0  0  0
  131.1870  122.7143  168.9551 C   0  0  0  0  0
  132.5448  122.4083  166.7945 C   0  0  0  0  0
  132.3058  123.8132  166.2719 C   0  0  0  0  0
  133.9016  122.3537  167.4800 C   0  0  0  0  0
  132.5347  121.4535  165.6080 C   0  0  0  0  0
  127.3747  119.9989  170.3317 C   0  0  0  0  0
  126.2305  120.5410  169.4914 C   0  0  0  0  0
  125.1169  119.5148  169.3896 C   0  0  0  0  0
  125.5030  118.4086  168.4260 C   0  0  0  0  0
  124.3816  117.3948  168.3465 C   0  0  0  0  0
  127.6295  122.1671  172.5621 C   0  0  0  0  0
  126.4359  122.9776  172.0972 C   0  0  0  0  0
  127.1353  120.8496  173.1325 C   0  0  0  0  0
  128.2973  122.9025  173.7097 C   0  0  0  0  0
  128.4315  120.9953  170.4335 N   0  0  0  0  0
  129.3393  121.1539  169.4846 N   0  0  0  0  0
  131.4838  122.0333  167.7287 N   0  0  0  0  0
  130.1892  124.2687  171.7349 Cl  0  0  0  0  0
  131.8623  123.7200  169.3028 O   0  0  0  0  0
  132.6989  120.1311  166.0284 O   0  0  0  0  0
  1 18  1  0  0  0
  2  3  1  0  0  0
  2  4  1  0  0  0
  3 21  1  0  0  0
  4 20  1  0  0  0
  5 20  1  0  0  0
  5  6  1  0  0  0
  5  7  1  0  0  0
  5  8  1  0  0  0
  8 23  1  0  0  0
  9 18  1  0  0  0
  9 10  1  0  0  0
 10 11  1  0  0  0
 11 12  1  0  0  0
 12 13  1  0  0  0
 14  1  1  0  0  0
 14 15  1  0  0  0
 14 16  1  0  0  0
 14 17  1  0  0  0
 18 19  1  0  0  0
  2 19  2  0  0  0
  3  1  2  0  0  0
  4 22  2  0  0  0
M  END
> <rmsd>
0.585892856

$$$$
CHEMBL331838_8GUR


 27 29  0  0  0  0  0  0  0  0999 V2000
  124.6499  118.1392  168.0022 C   0  0  0  0  0
  125.7993  118.4546  168.9404 C   0  0  0  0  0
  125.4021  118.1722  170.3817 C   0  0  0  0  0
  124.4485  119.2350  170.9165 C   0  0  0  0  0
  125.1648  120.5575  171.1396 C   0  0  0  0  0
  126.0702  120.4730  172.3661 C   0  0  0  0  0
  126.9442  121.7221  172.5603 C   0  0  0  0  0
  127.6575  121.5638  173.8910 C   0  0  0  0  0
  126.0523  122.9547  172.6555 C   0  0  0  0  0
  127.9873  121.9071  171.4687 C   0  0  0  0  0
  128.1920  120.9394  170.4697 C   0  0  0  0  0
  129.1659  121.1233  169.4865 C   0  0  0  0  0
  129.9639  122.2759  169.4885 C   0  0  0  0  0
  129.7793  123.2394  170.4874 C   0  0  0  0  0
  128.7981  123.0555  171.4652 C   0  0  0  0  0
  131.7275  124.6055  169.7053 C   0  0  0  0  0
  132.9497  124.4387  170.5908 C   0  0  0  0  0
  131.6945  126.0386  169.2005 C   0  0  0  0  0
  131.8244  123.6412  168.5341 C   0  0  0  0  0
  132.8119  123.8329  167.5511 C   0  0  0  0  0
  132.9457  122.9369  166.4892 C   0  0  0  0  0
  132.0974  121.8328  166.3969 C   0  0  0  0  0
  132.2547  120.8639  165.2790 C   0  0  0  0  0
  131.1286  121.6156  167.3786 C   0  0  0  0  0
  130.9830  122.5108  168.4501 C   0  0  0  0  0
  130.5571  124.4003  170.5058 O   0  0  0  0  0
  133.1499  119.8599  165.6478 O   0  0  0  0  0
  1  2  1  0  0  0
  2  3  1  0  0  0
  3  4  1  0  0  0
  4  5  1  0  0  0
  5  6  1  0  0  0
  6  7  1  0  0  0
  7  8  1  0  0  0
  7  9  1  0  0  0
  7 10  1  0  0  0
 11 12  1  0  0  0
 13 14  1  0  0  0
 14 26  1  0  0  0
 15 10  1  0  0  0
 16 26  1  0  0  0
 16 17  1  0  0  0
 16 18  1  0  0  0
 16 19  1  0  0  0
 20 21  1  0  0  0
 22 24  1  0  0  0
 23 22  1  0  0  0
 23 27  1  0  0  0
 25 19  1  0  0  0
 25 13  1  0  0  0
 10 11  2  0  0  0
 12 13  2  0  0  0
 14 15  2  0  0  0
 19 20  2  0  0  0
 21 22  2  0  0  0
 24 25  2  0  0  0
M  END
> <rmsd>
0.680288672

$$$$
CHEMBL4791274_5ZTY


 23 23  0  0  0  0  0  0  0  0999 V2000
  128.5513  121.9754  171.3681 C   0  0  0  0  0
  130.0792  122.2245  169.7861 C   0  0  0  0  0
  129.6326  122.7551  170.9806 C   0  0  0  0  0
  131.1946  122.7044  168.9582 C   0  0  0  0  0
  132.5753  122.4053  166.8116 C   0  0  0  0  0
  132.3669  123.8212  166.3057 C   0  0  0  0  0
  133.9217  122.3185  167.5139 C   0  0  0  0  0
  132.5651  121.4673  165.6117 C   0  0  0  0  0
  127.3169  120.0491  170.3188 C   0  0  0  0  0
  126.2088  120.5601  169.4133 C   0  0  0  0  0
  125.0851  119.5435  169.3274 C   0  0  0  0  0
  125.4877  118.3834  168.4364 C   0  0  0  0  0
  124.3556  117.3805  168.3718 C   0  0  0  0  0
  127.6266  122.1805  172.5576 C   0  0  0  0  0
  126.3170  122.7772  172.0807 C   0  0  0  0  0
  127.3441  120.8574  173.2456 C   0  0  0  0  0
  128.2197  123.1083  173.6035 C   0  0  0  0  0
  128.3842  121.0359  170.4035 N   0  0  0  0  0
  129.2975  121.1795  169.4537 N   0  0  0  0  0
  130.1360  123.9225  171.6253 N   0  0  0  0  0
  131.4959  122.0356  167.7263 N   0  0  0  0  0
  131.8800  123.6949  169.3303 O   0  0  0  0  0
  132.7018  120.1367  166.0157 O   0  0  0  0  0
  1 18  1  0  0  0
  2  3  1  0  0  0
  2  4  1  0  0  0
  3 20  1  0  0  0
  4 21  1  0  0  0
  5 21  1  0  0  0
  5  6  1  0  0  0
  5  7  1  0  0  0
  5  8  1  0  0  0
  8 23  1  0  0  0
  9 18  1  0  0  0
  9 10  1  0  0  0
 10 11  1  0  0  0
 11 12  1  0  0  0
 12 13  1  0  0  0
 14  1  1  0  0  0
 14 15  1  0  0  0
 14 16  1  0  0  0
 14 17  1  0  0  0
 18 19  1  0  0  0
  2 19  2  0  0  0
  3  1  2  0  0  0
  4 22  2  0  0  0
M  END
> <rmsd>
0.593117297

$$$$
CHEMBL2181544_8GUR


 29 32  0  0  0  0  0  0  0  0999 V2000
  122.1328  117.0589  168.0299 C   0  0  0  0  0
  123.6058  117.0932  167.6683 C   0  0  0  0  0
  124.2699  118.3178  168.2703 C   0  0  0  0  0
  124.4829  118.1246  169.7696 C   0  0  0  0  0
  125.1479  119.3352  170.4459 C   0  0  0  0  0
  126.5876  119.5628  170.0105 C   0  0  0  0  0
  127.2567  118.6542  169.1702 C   0  0  0  0  0
  128.5856  118.8643  168.7928 C   0  0  0  0  0
  129.2698  119.9937  169.2619 C   0  0  0  0  0
  130.5964  120.2435  168.9104 C   0  0  0  0  0
  131.2396  121.3789  169.4037 C   0  0  0  0  0
  132.6550  121.6587  169.0062 C   0  0  0  0  0
  132.7054  122.4185  167.7191 C   0  0  0  0  0
  132.6402  123.8168  167.7442 C   0  0  0  0  0
  132.6657  124.5443  166.5511 C   0  0  0  0  0
  132.7534  123.8762  165.3271 C   0  0  0  0  0
  132.8151  122.4802  165.2955 C   0  0  0  0  0
  132.7903  121.7481  166.4867 C   0  0  0  0  0
  130.5236  122.2488  170.2438 C   0  0  0  0  0
  128.6162  120.9101  170.1115 C   0  0  0  0  0
  127.2881  120.6880  170.4806 C   0  0  0  0  0
  125.1183  119.0938  171.9494 C   0  0  0  0  0
  124.0080  119.9581  172.5048 C   0  0  0  0  0
  123.9121  121.1306  171.5607 C   0  0  0  0  0
  124.3014  120.5866  170.2020 C   0  0  0  0  0
  129.2120  117.9471  167.9564 O   0  0  0  0  0
  132.8518  120.3604  166.4367 O   0  0  0  0  0
  131.0715  123.2855  170.7043 O   0  0  0  0  0
  129.2584  121.9840  170.5619 O   0  0  0  0  0
  1  2  1  0  0  0
  2  3  1  0  0  0
  3  4  1  0  0  0
  4  5  1  0  0  0
  5  6  1  0  0  0
  5 22  1  0  0  0
  7  8  1  0  0  0
  8 26  1  0  0  0
  9 10  1  0  0  0
 11 19  1  0  0  0
 12 11  1  0  0  0
 12 13  1  0  0  0
 14 15  1  0  0  0
 16 17  1  0  0  0
 18 27  1  0  0  0
 18 13  1  0  0  0
 19 29  1  0  0  0
 20 29  1  0  0  0
 20  9  1  0  0  0
 21  6  1  0  0  0
 22 23  1  0  0  0
 23 24  1  0  0  0
 24 25  1  0  0  0
 25  5  1  0  0  0
  6  7  2  0  0  0
  8  9  2  0  0  0
 10 11  2  0  0  0
 13 14  2  0  0  0
 15 16  2  0  0  0
 17 18  2  0  0  0
 19 28  2  0  0  0
 20 21  2  0  0  0
M  END
> <rmsd>
0.726873457

$$$$
CHEMBL3911641_8GUQ


 21 22  0  0  0  0  0  0  0  0999 V2000
  135.5033  122.0228  167.2086 C   0  0  0  0  0
  134.1937  121.7039  167.9180 C   0  0  0  0  0
  132.9540  122.0727  167.0895 C   0  0  0  0  0
  132.9472  123.5629  166.7773 C   0  0  0  0  0
  132.9438  121.3103  165.7662 C   0  0  0  0  0
  131.3865  122.2612  169.1198 C   0  0  0  0  0
  130.1405  121.8332  169.7735 C   0  0  0  0  0
  128.6587  121.9713  171.6231 C   0  0  0  0  0
  127.7859  121.0486  171.0409 C   0  0  0  0  0
  128.1153  120.4958  169.7771 C   0  0  0  0  0
  129.2964  120.9072  169.1538 C   0  0  0  0  0
  126.2563  118.8192  169.6406 C   0  0  0  0  0
  125.6413  117.9403  168.5726 C   0  0  0  0  0
  124.3032  117.4302  169.0638 C   0  0  0  0  0
  124.3599  118.5801  168.0808 C   0  0  0  0  0
  132.8933  119.9312  165.9846 O   0  0  0  0  0
  132.1373  123.0964  169.6933 O   0  0  0  0  0
  127.3330  119.5583  169.0856 O   0  0  0  0  0
  131.7437  121.7295  167.8355 N   0  0  0  0  0
  129.8031  122.3378  170.9901 N   0  0  0  0  0
  126.3092  120.6950  171.9265 Cl  0  0  0  0  0
  1  2  1  0  0  0
  3  2  1  0  0  0
  3  4  1  0  0  0
  3  5  1  0  0  0
  3 19  1  0  0  0
  5 16  1  0  0  0
  6  7  1  0  0  0
  8 20  1  0  0  0
  9 10  1  0  0  0
  9 21  1  0  0  0
 10 18  1  0  0  0
 11  7  1  0  0  0
 12 18  1  0  0  0
 12 13  1  0  0  0
 13 14  1  0  0  0
 14 15  1  0  0  0
 15 13  1  0  0  0
 19  6  1  0  0  0
  6 17  2  0  0  0
  7 20  2  0  0  0
  8  9  2  0  0  0
 10 11  2  0  0  0
M  END
> <rmsd>
0.61933744

$$$$
CHEMBL3669057_8GUS


 28 30  0  0  0  0  0  0  0  0999 V2000
  133.2679  121.4806  164.2272 C   0  0  0  0  0
  133.4435  120.9991  165.6563 C   0  0  0  0  0
  134.9087  120.6768  165.8903 C   0  0  0  0  0
  132.9875  122.0684  166.6230 C   0  0  0  0  0
  133.6041  123.3309  166.6248 C   0  0  0  0  0
  133.1875  124.3230  167.5151 C   0  0  0  0  0
  132.1501  124.0646  168.4135 C   0  0  0  0  0
  131.5207  122.8124  168.4294 C   0  0  0  0  0
  131.9455  121.8222  167.5320 C   0  0  0  0  0
  130.4247  122.5383  169.3777 C   0  0  0  0  0
  128.8080  121.0662  170.2615 C   0  0  0  0  0
  129.0034  123.2506  171.1191 C   0  0  0  0  0
  127.5482  124.0526  172.9361 C   0  0  0  0  0
  128.5579  118.7179  169.3772 C   0  0  0  0  0
  127.6598  117.5077  169.5830 C   0  0  0  0  0
  126.3368  117.6883  168.9138 C   0  0  0  0  0
  125.4109  118.6233  169.3962 C   0  0  0  0  0
  124.1690  118.7679  168.7705 C   0  0  0  0  0
  123.8471  117.9750  167.6651 C   0  0  0  0  0
  124.7650  117.0345  167.1878 C   0  0  0  0  0
  126.0072  116.8898  167.8133 C   0  0  0  0  0
  129.8181  121.3219  169.3899 N   0  0  0  0  0
  128.4025  122.0310  171.1241 N   0  0  0  0  0
  130.0119  123.4995  170.2462 N   0  0  0  0  0
  128.1662  119.7916  170.2769 N   0  0  0  0  0
  128.5971  124.2527  172.0007 O   0  0  0  0  0
  132.7007  119.8273  165.8229 O   0  0  0  0  0
  122.6441  118.1151  167.0587 F   0  0  0  0  0
  1  2  1  0  0  0
  2  3  1  0  0  0
  2  4  1  0  0  0
  2 27  1  0  0  0
  5  6  1  0  0  0
  7  8  1  0  0  0
  8 10  1  0  0  0
  9  4  1  0  0  0
 10 24  1  0  0  0
 11 22  1  0  0  0
 11 25  1  0  0  0
 12 23  1  0  0  0
 12 26  1  0  0  0
 13 26  1  0  0  0
 14 25  1  0  0  0
 14 15  1  0  0  0
 15 16  1  0  0  0
 17 18  1  0  0  0
 19 20  1  0  0  0
 19 28  1  0  0  0
 21 16  1  0  0  0
  4  5  2  0  0  0
  6  7  2  0  0  0
  8  9  2  0  0  0
 10 22  2  0  0  0
 11 23  2  0  0  0
 12 24  2  0  0  0
 16 17  2  0  0  0
 18 19  2  0  0  0
 20 21  2  0  0  0
M  END
> <rmsd>
0.527813196

$$$$
CHEMBL3669102_8GUT


 32 34  0  0  0  0  0  0  0  0999 V2000
  127.2498  123.9261  173.1028 C   0  0  0  0  0
  128.5477  122.9912  171.2309 C   0  0  0  0  0
  128.1210  120.8303  170.3979 C   0  0  0  0  0
  127.6234  118.5118  169.5399 C   0  0  0  0  0
  126.6322  117.3873  169.7972 C   0  0  0  0  0
  125.2569  117.7651  169.3555 C   0  0  0  0  0
  124.2364  117.8897  170.3027 C   0  0  0  0  0
  122.9434  118.2333  169.8981 C   0  0  0  0  0
  122.6598  118.4517  168.5396 C   0  0  0  0  0
  120.2532  118.9625  168.9617 C   0  0  0  0  0
  123.6839  118.3186  167.5957 C   0  0  0  0  0
  124.9772  117.9749  167.9996 C   0  0  0  0  0
  129.8229  122.1490  169.4352 C   0  0  0  0  0
  130.8973  122.3203  168.4393 C   0  0  0  0  0
  131.6329  123.5101  168.3855 C   0  0  0  0  0
  132.6431  123.6723  167.4369 C   0  0  0  0  0
  132.9352  122.6464  166.5345 C   0  0  0  0  0
  132.2195  121.4309  166.5810 C   0  0  0  0  0
  132.5022  120.3243  165.5801 C   0  0  0  0  0
  131.9419  120.7148  164.2252 C   0  0  0  0  0
  131.8760  118.9975  165.9877 C   0  0  0  0  0
  131.1923  121.2939  167.5324 C   0  0  0  0  0
  128.2709  124.0284  172.1219 O   0  0  0  0  0
  121.3764  118.7987  168.0988 O   0  0  0  0  0
  133.8797  120.1305  165.4620 O   0  0  0  0  0
  127.8410  121.8302  171.2702 N   0  0  0  0  0
  127.3693  119.6182  170.4497 N   0  0  0  0  0
  129.1112  120.9919  169.4820 N   0  0  0  0  0
  129.5356  123.1460  170.3139 N   0  0  0  0  0
  119.9779  117.7803  169.6253 F   0  0  0  0  0
  120.4880  119.9769  169.8724 F   0  0  0  0  0
  133.9079  122.8480  165.6105 F   0  0  0  0  0
  1 23  1  0  0  0
  2 23  1  0  0  0
  2 29  1  0  0  0
  3 26  1  0  0  0
  3 27  1  0  0  0
  4 27  1  0  0  0
  4  5  1  0  0  0
  5  6  1  0  0  0
  7  8  1  0  0  0
  9 24  1  0  0  0
  9 11  1  0  0  0
 10 24  1  0  0  0
 10 30  1  0  0  0
 10 31  1  0  0  0
 12  6  1  0  0  0
 13 28  1  0  0  0
 13 14  1  0  0  0
 15 16  1  0  0  0
 17 32  1  0  0  0
 17 18  1  0  0  0
 19 18  1  0  0  0
 19 20  1  0  0  0
 19 21  1  0  0  0
 19 25  1  0  0  0
 22 14  1  0  0  0
  2 26  2  0  0  0
  3 28  2  0  0  0
  6  7  2  0  0  0
  8  9  2  0  0  0
 11 12  2  0  0  0
 13 29  2  0  0  0
 14 15  2  0  0  0
 16 17  2  0  0  0
 18 22  2  0  0  0
M  END
> <rmsd>
0.925705791

$$$$
CHEMBL3950558_5ZTY


 25 27  0  0  0  0  0  0  0  0999 V2000
  132.0531  122.9148  165.5127 C   0  0  0  0  0
  132.7709  122.5649  166.8080 C   0  0  0  0  0
  133.6726  123.7272  167.1653 C   0  0  0  0  0
  133.6581  121.3328  166.6325 C   0  0  0  0  0
  130.6730  121.5100  167.8972 C   0  0  0  0  0
  129.8675  121.3500  169.1173 C   0  0  0  0  0
  127.9978  120.3525  170.2141 C   0  0  0  0  0
  128.3185  121.0204  171.4069 C   0  0  0  0  0
  129.4341  121.8604  171.4347 C   0  0  0  0  0
  130.2130  122.0286  170.2907 C   0  0  0  0  0
  126.3253  120.1186  173.0120 C   0  0  0  0  0
  126.3279  120.6230  174.4053 C   0  0  0  0  0
  127.5359  121.3624  173.9691 C   0  0  0  0  0
  126.5197  118.8147  168.9798 C   0  0  0  0  0
  125.2747  117.9936  169.2415 C   0  0  0  0  0
  124.6590  117.5943  167.9175 C   0  0  0  0  0
  124.0673  118.7388  168.7125 C   0  0  0  0  0
  132.9350  120.2338  166.1650 O   0  0  0  0  0
  130.3401  120.8956  166.8480 O   0  0  0  0  0
  126.8871  119.5075  170.1632 O   0  0  0  0  0
  131.8177  122.3764  167.9023 N   0  0  0  0  0
  128.7765  120.5351  169.1098 N   0  0  0  0  0
  127.5273  120.8569  172.5855 N   0  0  0  0  0
  125.2545  121.4427  174.6976 F   0  0  0  0  0
  126.5885  119.6451  175.3460 F   0  0  0  0  0
  1  2  1  0  0  0
  2  3  1  0  0  0
  2  4  1  0  0  0
  2 21  1  0  0  0
  4 18  1  0  0  0
  5  6  1  0  0  0
  7 22  1  0  0  0
  7 20  1  0  0  0
  8  9  1  0  0  0
  8 23  1  0  0  0
 10  6  1  0  0  0
 11 23  1  0  0  0
 11 12  1  0  0  0
 12 13  1  0  0  0
 12 24  1  0  0  0
 12 25  1  0  0  0
 13 23  1  0  0  0
 14 20  1  0  0  0
 14 15  1  0  0  0
 15 16  1  0  0  0
 16 17  1  0  0  0
 17 15  1  0  0  0
 21  5  1  0  0  0
  5 19  2  0  0  0
  6 22  2  0  0  0
  7  8  2  0  0  0
  9 10  2  0  0  0
M  END
> <rmsd>
0.682382107

$$$$
CHEMBL3354953_8GUQ


 25 29  0  0  0  0  0  0  0  0999 V2000
  132.3155  123.2928  165.6160 C   0  0  0  0  0
  132.6328  122.4321  166.8131 C   0  0  0  0  0
  132.9378  123.9094  166.8667 C   0  0  0  0  0
  131.4662  121.9995  169.0238 C   0  0  0  0  0
  130.2527  121.5820  169.7366 C   0  0  0  0  0
  128.9046  120.8267  171.2658 C   0  0  0  0  0
  130.1115  121.3977  171.0975 C   0  0  0  0  0
  131.0812  120.9871  172.1315 C   0  0  0  0  0
  130.2937  119.9586  172.9776 C   0  0  0  0  0
  128.8592  119.8898  172.4187 C   0  0  0  0  0
  129.1450  120.6166  173.7236 C   0  0  0  0  0
  127.1007  119.9628  169.7674 C   0  0  0  0  0
  126.9699  119.3070  168.5337 C   0  0  0  0  0
  125.8017  118.6087  168.2193 C   0  0  0  0  0
  124.7477  118.5646  169.1336 C   0  0  0  0  0
  124.8567  119.2297  170.3566 C   0  0  0  0  0
  126.0240  119.9294  170.6775 C   0  0  0  0  0
  133.8240  121.4969  166.7125 C   0  0  0  0  0
  131.4734  122.0220  167.5936 N   0  0  0  0  0
  129.1308  121.1448  169.1235 N   0  0  0  0  0
  128.3132  120.6778  170.0610 N   0  0  0  0  0
  132.4942  122.3381  169.6705 O   0  0  0  0  0
  133.4403  120.3054  166.0969 O   0  0  0  0  0
  126.0771  120.6060  171.8510 F   0  0  0  0  0
  123.6150  117.8873  168.8295 F   0  0  0  0  0
  1  2  1  0  0  0
  2  3  1  0  0  0
  2 19  1  0  0  0
  2 18  1  0  0  0
  3  1  1  0  0  0
  4  5  1  0  0  0
  7  5  1  0  0  0
  8  7  1  0  0  0
  9  8  1  0  0  0
  9 10  1  0  0  0
 10 11  1  0  0  0
 10  6  1  0  0  0
 11  9  1  0  0  0
 13 14  1  0  0  0
 15 16  1  0  0  0
 15 25  1  0  0  0
 17 24  1  0  0  0
 17 12  1  0  0  0
 18 23  1  0  0  0
 19  4  1  0  0  0
 21 20  1  0  0  0
 21  6  1  0  0  0
 21 12  1  0  0  0
  4 22  2  0  0  0
  5 20  2  0  0  0
  6  7  2  0  0  0
 12 13  2  0  0  0
 14 15  2  0  0  0
 16 17  2  0  0  0
M  END
> <rmsd>
0.763746977

$$$$
CHEMBL3669058_8GUS


 30 32  0  0  0  0  0  0  0  0999 V2000
  134.6734  124.0145  165.3914 C   0  0  0  0  0
  132.9109  122.6710  166.5027 C   0  0  0  0  0
  132.6522  123.6960  167.4269 C   0  0  0  0  0
  131.6637  123.5462  168.3989 C   0  0  0  0  0
  130.9103  122.3701  168.4644 C   0  0  0  0  0
  131.1659  121.3450  167.5458 C   0  0  0  0  0
  132.1686  121.4682  166.5665 C   0  0  0  0  0
  132.4066  120.3493  165.5642 C   0  0  0  0  0
  131.8983  120.7754  164.1991 C   0  0  0  0  0
  131.6958  119.0580  165.9476 C   0  0  0  0  0
  129.8584  122.2114  169.4861 C   0  0  0  0  0
  128.1604  120.9167  170.4844 C   0  0  0  0  0
  126.3493  119.4893  171.5073 C   0  0  0  0  0
  125.6975  118.1344  171.2766 C   0  0  0  0  0
  124.8876  118.1285  170.0221 C   0  0  0  0  0
  123.7395  118.9238  169.9121 C   0  0  0  0  0
  122.9829  118.9029  168.7365 C   0  0  0  0  0
  123.3699  118.0848  167.6707 C   0  0  0  0  0
  124.5116  117.2852  167.7813 C   0  0  0  0  0
  125.2687  117.3058  168.9567 C   0  0  0  0  0
  128.6398  123.0661  171.3172 C   0  0  0  0  0
  129.0982  125.3066  172.2293 C   0  0  0  0  0
  133.8924  122.8339  165.5166 O   0  0  0  0  0
  133.7727  120.0762  165.4749 O   0  0  0  0  0
  128.3762  124.0843  172.2339 O   0  0  0  0  0
  129.1290  121.0657  169.5465 N   0  0  0  0  0
  127.4044  119.7072  170.5297 N   0  0  0  0  0
  127.9175  121.9191  171.3688 N   0  0  0  0  0
  129.6093  123.2094  170.3750 N   0  0  0  0  0
  122.6371  118.0648  166.5318 F   0  0  0  0  0
  1 23  1  0  0  0
  2 23  1  0  0  0
  3  4  1  0  0  0
  5  6  1  0  0  0
  5 11  1  0  0  0
  7  2  1  0  0  0
  8  7  1  0  0  0
  8  9  1  0  0  0
  8 10  1  0  0  0
  8 24  1  0  0  0
 11 29  1  0  0  0
 12 26  1  0  0  0
 12 27  1  0  0  0
 13 27  1  0  0  0
 13 14  1  0  0  0
 14 15  1  0  0  0
 16 17  1  0  0  0
 18 30  1  0  0  0
 18 19  1  0  0  0
 20 15  1  0  0  0
 21 28  1  0  0  0
 21 25  1  0  0  0
 22 25  1  0  0  0
  2  3  2  0  0  0
  4  5  2  0  0  0
  6  7  2  0  0  0
 11 26  2  0  0  0
 12 28  2  0  0  0
 15 16  2  0  0  0
 17 18  2  0  0  0
 19 20  2  0  0  0
 21 29  2  0  0  0
M  END
> <rmsd>
0.841208637

$$$$
CHEMBL3099056_8GUT


 29 31  0  0  0  0  0  0  0  0999 V2000
  128.5225  125.1516  171.9217 C   0  0  0  0  0
  128.4128  122.7992  171.2034 C   0  0  0  0  0
  128.2678  120.5400  170.5566 C   0  0  0  0  0
  126.6865  118.9223  171.7047 C   0  0  0  0  0
  125.3538  119.5517  171.3143 C   0  0  0  0  0
  124.7993  118.9318  170.0744 C   0  0  0  0  0
  124.6727  119.7029  168.9139 C   0  0  0  0  0
  124.1465  119.1354  167.7495 C   0  0  0  0  0
  123.7426  117.7968  167.7447 C   0  0  0  0  0
  123.8619  117.0259  168.9050 C   0  0  0  0  0
  124.3882  117.5927  170.0698 C   0  0  0  0  0
  129.7250  121.9978  169.4133 C   0  0  0  0  0
  130.7231  122.2348  168.3535 C   0  0  0  0  0
  131.2799  123.5050  168.1746 C   0  0  0  0  0
  132.2183  123.7268  167.1677 C   0  0  0  0  0
  132.6195  122.6853  166.3262 C   0  0  0  0  0
  132.0779  121.3859  166.4952 C   0  0  0  0  0
  132.4726  120.2280  165.5881 C   0  0  0  0  0
  131.9385  120.4696  164.1877 C   0  0  0  0  0
  131.9211  118.8913  166.0681 C   0  0  0  0  0
  131.1236  121.1903  167.5114 C   0  0  0  0  0
  128.0042  123.8355  172.0433 O   0  0  0  0  0
  133.8630  120.1196  165.5352 O   0  0  0  0  0
  127.8826  121.5613  171.3656 N   0  0  0  0  0
  127.7129  119.2331  170.7177 N   0  0  0  0  0
  129.1876  120.7609  169.5844 N   0  0  0  0  0
  129.3334  123.0145  170.2264 N   0  0  0  0  0
  123.2332  117.2475  166.6162 F   0  0  0  0  0
  133.7885  123.0722  165.0698 Cl  0  0  0  0  0
  1 22  1  0  0  0
  2 22  1  0  0  0
  2 27  1  0  0  0
  3 24  1  0  0  0
  3 25  1  0  0  0
  4 25  1  0  0  0
  4  5  1  0  0  0
  5  6  1  0  0  0
  7  8  1  0  0  0
  9 28  1  0  0  0
  9 10  1  0  0  0
 11  6  1  0  0  0
 12 26  1  0  0  0
 12 13  1  0  0  0
 14 15  1  0  0  0
 16 29  1  0  0  0
 16 17  1  0  0  0
 18 17  1  0  0  0
 18 19  1  0  0  0
 18 20  1  0  0  0
 18 23  1  0  0  0
 21 13  1  0  0  0
  2 24  2  0  0  0
  3 26  2  0  0  0
  6  7  2  0  0  0
  8  9  2  0  0  0
 10 11  2  0  0  0
 12 27  2  0  0  0
 13 14  2  0  0  0
 15 16  2  0  0  0
 17 21  2  0  0  0
M  END
> <rmsd>
0.929716527

$$$$
CHEMBL1259076_6KPF


 28 31  0  0  0  0  0  0  0  0999 V2000
  124.7962  117.4356  168.5425 C   0  0  0  0  0
  124.3045  118.8426  168.8255 C   0  0  0  0  0
  123.6584  118.9145  170.2013 C   0  0  0  0  0
  124.7011  118.8623  171.3078 C   0  0  0  0  0
  125.4620  120.1718  171.3784 C   0  0  0  0  0
  126.5440  120.0729  172.4421 C   0  0  0  0  0
  127.4103  121.3373  172.4950 C   0  0  0  0  0
  128.2997  121.5802  171.2867 C   0  0  0  0  0
  128.4138  120.6226  170.2695 C   0  0  0  0  0
  129.2480  120.8332  169.1697 C   0  0  0  0  0
  130.0248  122.0091  169.0832 C   0  0  0  0  0
  129.8598  123.0031  170.0727 C   0  0  0  0  0
  129.0265  122.7736  171.1690 C   0  0  0  0  0
  131.2103  124.6502  168.7984 C   0  0  0  0  0
  130.2148  125.2810  167.8327 C   0  0  0  0  0
  132.2341  125.6993  169.1927 C   0  0  0  0  0
  131.9143  123.4387  168.1678 C   0  0  0  0  0
  132.6949  123.7739  166.8923 C   0  0  0  0  0
  133.4773  122.5466  166.4315 C   0  0  0  0  0
  132.5366  121.3638  166.2074 C   0  0  0  0  0
  131.7515  121.0569  167.4808 C   0  0  0  0  0
  130.9338  122.2823  167.8976 C   0  0  0  0  0
  126.6132  122.5595  172.9269 C   0  0  0  0  0
  127.3936  122.6031  174.2289 C   0  0  0  0  0
  128.1927  121.3864  173.7939 C   0  0  0  0  0
  129.2848  119.8695  168.1687 O   0  0  0  0  0
  130.5228  124.2326  169.9766 O   0  0  0  0  0
  133.2783  120.2435  165.8369 O   0  0  0  0  0
  1  2  1  0  0  0
  2  3  1  0  0  0
  3  4  1  0  0  0
  4  5  1  0  0  0
  5  6  1  0  0  0
  6  7  1  0  0  0
  7  8  1  0  0  0
  7 23  1  0  0  0
  9 10  1  0  0  0
 10 26  1  0  0  0
 11 12  1  0  0  0
 12 27  1  0  0  0
 13  8  1  0  0  0
 14 27  1  0  0  0
 14 15  1  0  0  0
 14 16  1  0  0  0
 17 14  1  0  0  0
 17 18  1  0  0  0
 18 19  1  0  0  0
 19 20  1  0  0  0
 20 28  1  0  0  0
 20 21  1  0  0  0
 22 21  1  0  0  0
 22 17  1  0  0  0
 22 11  1  0  0  0
 23 24  1  0  0  0
 24 25  1  0  0  0
 25  7  1  0  0  0
  8  9  2  0  0  0
 10 11  2  0  0  0
 12 13  2  0  0  0
M  END
> <rmsd>
0.586142778

$$$$
CHEMBL2152808_5ZTY


 30 33  0  0  0  0  0  0  0  0999 V2000
  125.7305  120.0601  166.8344 C   0  0  0  0  0
  125.5180  118.6108  167.2673 C   0  0  0  0  0
  126.0262  117.7087  166.1510 C   0  0  0  0  0
  124.0179  118.3903  167.5696 C   0  0  0  0  0
  123.7524  116.8894  167.7653 C   0  0  0  0  0
  124.4377  116.5735  169.0964 C   0  0  0  0  0
  124.9936  117.9273  169.5090 C   0  0  0  0  0
  125.2374  118.0277  171.0054 C   0  0  0  0  0
  123.9372  118.8613  168.9994 C   0  0  0  0  0
  126.2005  118.2400  168.6124 C   0  0  0  0  0
  128.3445  119.5936  168.7336 C   0  0  0  0  0
  129.1129  120.7366  169.2867 C   0  0  0  0  0
  130.4216  120.9406  168.8338 C   0  0  0  0  0
  132.5343  122.0984  168.7455 C   0  0  0  0  0
  132.5671  123.1127  167.6064 C   0  0  0  0  0
  131.8508  122.5956  166.3654 C   0  0  0  0  0
  132.7193  121.6149  165.5941 C   0  0  0  0  0
  130.6959  122.8467  170.2227 C   0  0  0  0  0
  131.4832  123.9074  170.7046 C   0  0  0  0  0
  130.9759  124.7968  171.6538 C   0  0  0  0  0
  129.6758  124.6385  172.1354 C   0  0  0  0  0
  128.8804  123.5901  171.6695 C   0  0  0  0  0
  129.3781  122.6885  170.7156 C   0  0  0  0  0
  128.5858  121.6297  170.2430 C   0  0  0  0  0
  127.0057  119.3303  169.1634 N   0  0  0  0  0
  131.1846  121.9692  169.2911 N   0  0  0  0  0
  128.8782  118.8420  167.8716 O   0  0  0  0  0
  132.7302  120.3748  166.2331 O   0  0  0  0  0
  127.4098  121.4868  170.6784 O   0  0  0  0  0
  131.7464  125.8140  172.1075 F   0  0  0  0  0
  1  2  1  0  0  0
  2  3  1  0  0  0
  4  2  1  0  0  0
  4  5  1  0  0  0
  5  6  1  0  0  0
  6  7  1  0  0  0
  7  8  1  0  0  0
  7  9  1  0  0  0
  7 10  1  0  0  0
  9  4  1  0  0  0
 10 25  1  0  0  0
 10  2  1  0  0  0
 11 12  1  0  0  0
 13 26  1  0  0  0
 14 26  1  0  0  0
 14 15  1  0  0  0
 15 16  1  0  0  0
 16 17  1  0  0  0
 17 28  1  0  0  0
 19 20  1  0  0  0
 20 30  1  0  0  0
 21 22  1  0  0  0
 23 24  1  0  0  0
 23 18  1  0  0  0
 24 12  1  0  0  0
 25 11  1  0  0  0
 26 18  1  0  0  0
 11 27  2  0  0  0
 12 13  2  0  0  0
 18 19  2  0  0  0
 20 21  2  0  0  0
 22 23  2  0  0  0
 24 29  2  0  0  0
M  END
> <rmsd>
0.641093254

$$$$
CHEMBL4113646_8GUQ


 24 26  0  0  0  0  0  0  0  0999 V2000
  135.5817  121.8419  167.2922 C   0  0  0  0  0
  134.2597  121.6291  168.0176 C   0  0  0  0  0
  134.1922  120.2044  168.5476 C   0  0  0  0  0
  133.0291  122.0235  167.1644 C   0  0  0  0  0
  133.0874  123.5138  166.8594 C   0  0  0  0  0
  133.0050  121.2893  165.8199 C   0  0  0  0  0
  131.4289  122.2818  169.1634 C   0  0  0  0  0
  130.1508  121.9009  169.7831 C   0  0  0  0  0
  128.1297  120.6304  169.6672 C   0  0  0  0  0
  127.7007  121.1729  170.9073 C   0  0  0  0  0
  128.5626  122.0457  171.5854 C   0  0  0  0  0
  129.7848  122.4125  171.0293 C   0  0  0  0  0
  126.3705  120.8363  171.5276 C   0  0  0  0  0
  125.6625  122.0780  172.0520 C   0  0  0  0  0
  125.2515  121.4840  170.7268 C   0  0  0  0  0
  126.4928  118.7546  169.5074 C   0  0  0  0  0
  125.8002  117.9757  168.4098 C   0  0  0  0  0
  124.4216  118.5596  168.1813 C   0  0  0  0  0
  124.5814  117.2879  168.9872 C   0  0  0  0  0
  132.7525  119.9256  165.9861 O   0  0  0  0  0
  132.2058  123.0810  169.7544 O   0  0  0  0  0
  127.3837  119.6992  168.9311 O   0  0  0  0  0
  131.7859  121.7377  167.8852 N   0  0  0  0  0
  129.3214  121.0315  169.1455 N   0  0  0  0  0
  1  2  1  0  0  0
  2  3  1  0  0  0
  4  2  1  0  0  0
  4  5  1  0  0  0
  4  6  1  0  0  0
  4 23  1  0  0  0
  6 20  1  0  0  0
  7  8  1  0  0  0
  9 24  1  0  0  0
  9 22  1  0  0  0
 10 11  1  0  0  0
 12  8  1  0  0  0
 13 10  1  0  0  0
 13 14  1  0  0  0
 14 15  1  0  0  0
 15 13  1  0  0  0
 16 22  1  0  0  0
 16 17  1  0  0  0
 17 18  1  0  0  0
 18 19  1  0  0  0
 19 17  1  0  0  0
 23  7  1  0  0  0
  7 21  2  0  0  0
  8 24  2  0  0  0
  9 10  2  0  0  0
 11 12  2  0  0  0
M  END
> <rmsd>
0.67340672

$$$$
CHEMBL4473677_5ZTY


 27 28  0  0  0  0  0  0  0  0999 V2000
  123.8459  117.2644  168.3636 C   0  0  0  0  0
  125.9284  117.8837  169.5165 C   0  0  0  0  0
  127.4156  117.7256  169.6429 C   0  0  0  0  0
  127.8536  116.8325  170.8212 C   0  0  0  0  0
  127.4799  117.4506  172.1595 C   0  0  0  0  0
  127.2093  115.4610  170.7153 C   0  0  0  0  0
  129.3586  116.6395  170.7818 C   0  0  0  0  0
  128.8043  119.5595  168.5966 C   0  0  0  0  0
  129.4439  120.8792  168.7023 C   0  0  0  0  0
  129.4361  121.7384  169.7866 C   0  0  0  0  0
  130.1666  122.8312  169.4212 C   0  0  0  0  0
  129.8295  123.8393  171.5122 C   0  0  0  0  0
  129.0656  122.7263  171.9293 C   0  0  0  0  0
  128.8612  121.6474  171.0514 C   0  0  0  0  0
  131.4738  123.6443  167.4430 C   0  0  0  0  0
  132.9319  123.4906  167.8612 C   0  0  0  0  0
  133.5043  122.1571  167.4052 C   0  0  0  0  0
  133.7114  122.1520  165.9001 C   0  0  0  0  0
  134.2057  120.7919  165.4449 C   0  0  0  0  0
  130.1988  121.5060  167.7070 C   0  0  0  0  0
  125.2522  117.1671  168.5294 O   0  0  0  0  0
  133.1826  119.8500  165.5600 O   0  0  0  0  0
  128.9181  118.8926  167.5326 O   0  0  0  0  0
  125.3005  118.6431  170.3051 O   0  0  0  0  0
  128.0579  119.0343  169.6956 N   0  0  0  0  0
  130.3739  123.8789  170.2589 N   0  0  0  0  0
  130.6289  122.7052  168.1671 N   0  0  0  0  0
  1 21  1  0  0  0
  2 21  1  0  0  0
  3  2  1  0  0  0
  3  4  1  0  0  0
  3 25  1  0  0  0
  4  5  1  0  0  0
  4  6  1  0  0  0
  4  7  1  0  0  0
  8  9  1  0  0  0
  9 10  1  0  0  0
 11 26  1  0  0  0
 11 27  1  0  0  0
 12 13  1  0  0  0
 14 10  1  0  0  0
 15 27  1  0  0  0
 15 16  1  0  0  0
 16 17  1  0  0  0
 17 18  1  0  0  0
 18 19  1  0  0  0
 19 22  1  0  0  0
 25  8  1  0  0  0
 27 20  1  0  0  0
  2 24  2  0  0  0
  8 23  2  0  0  0
 10 11  2  0  0  0
 12 26  2  0  0  0
 13 14  2  0  0  0
 20  9  2  0  0  0
M  END
> <rmsd>
0.668656647

$$$$
CHEMBL3354964_8GUQ


 25 29  0  0  0  0  0  0  0  0999 V2000
  132.9442  123.9090  166.8692 C   0  0  0  0  0
  132.3191  123.2950  165.6185 C   0  0  0  0  0
  132.6344  122.4327  166.8151 C   0  0  0  0  0
  133.8227  121.4939  166.7134 C   0  0  0  0  0
  131.4678  122.0040  169.0263 C   0  0  0  0  0
  130.2536  121.5897  169.7399 C   0  0  0  0  0
  128.9110  120.8262  171.2626 C   0  0  0  0  0
  130.1173  121.4015  171.1025 C   0  0  0  0  0
  131.0936  120.9298  172.1052 C   0  0  0  0  0
  130.2523  120.0238  173.0353 C   0  0  0  0  0
  128.8356  119.9235  172.4400 C   0  0  0  0  0
  129.8082  118.7624  172.3117 C   0  0  0  0  0
  127.1032  119.9670  169.7653 C   0  0  0  0  0
  126.0225  119.9400  170.6706 C   0  0  0  0  0
  124.8566  119.2382  170.3490 C   0  0  0  0  0
  124.7535  118.5644  169.1302 C   0  0  0  0  0
  125.8117  118.6023  168.2206 C   0  0  0  0  0
  126.9785  119.3029  168.5357 C   0  0  0  0  0
  133.4351  120.3038  166.0976 O   0  0  0  0  0
  132.4968  122.3410  169.6725 O   0  0  0  0  0
  131.4744  122.0259  167.5962 N   0  0  0  0  0
  129.1315  121.1542  169.1248 N   0  0  0  0  0
  128.3147  120.6831  170.0602 N   0  0  0  0  0
  123.6222  117.8850  168.8255 F   0  0  0  0  0
  126.0700  120.6258  171.8389 F   0  0  0  0  0
  1  2  1  0  0  0
  2  3  1  0  0  0
  3  4  1  0  0  0
  3 21  1  0  0  0
  3  1  1  0  0  0
  4 19  1  0  0  0
  5  6  1  0  0  0
  8  6  1  0  0  0
  9  8  1  0  0  0
 10  9  1  0  0  0
 10 11  1  0  0  0
 11 12  1  0  0  0
 11  7  1  0  0  0
 12 10  1  0  0  0
 14 15  1  0  0  0
 14 25  1  0  0  0
 16 17  1  0  0  0
 16 24  1  0  0  0
 18 13  1  0  0  0
 21  5  1  0  0  0
 23 22  1  0  0  0
 23  7  1  0  0  0
 23 13  1  0  0  0
  5 20  2  0  0  0
  6 22  2  0  0  0
  7  8  2  0  0  0
 13 14  2  0  0  0
 15 16  2  0  0  0
 17 18  2  0  0  0
M  END
> <rmsd>
0.759198129

$$$$
CHEMBL4796229_5ZTY


 23 23  0  0  0  0  0  0  0  0999 V2000
  128.5804  121.9502  171.3923 C   0  0  0  0  0
  130.0929  122.2277  169.8086 C   0  0  0  0  0
  129.6271  122.7832  170.9925 C   0  0  0  0  0
  131.1875  122.7180  168.9558 C   0  0  0  0  0
  132.5393  122.4074  166.7920 C   0  0  0  0  0
  132.2981  123.8110  166.2668 C   0  0  0  0  0
  133.8981  122.3550  167.4734 C   0  0  0  0  0
  132.5260  121.4498  165.6078 C   0  0  0  0  0
  127.3913  119.9888  170.3346 C   0  0  0  0  0
  126.2371  120.5357  169.5110 C   0  0  0  0  0
  125.1289  119.5042  169.4036 C   0  0  0  0  0
  125.5141  118.4140  168.4215 C   0  0  0  0  0
  124.3981  117.3945  168.3365 C   0  0  0  0  0
  127.6335  122.1759  172.5656 C   0  0  0  0  0
  126.5045  123.0877  172.1280 C   0  0  0  0  0
  127.0396  120.8766  173.0798 C   0  0  0  0  0
  128.3426  122.8095  173.7482 C   0  0  0  0  0
  128.4427  120.9903  170.4415 N   0  0  0  0  0
  129.3513  121.1510  169.4944 N   0  0  0  0  0
  131.4812  122.0343  167.7303 N   0  0  0  0  0
  130.2102  124.4324  171.7866 Br  0  0  0  0  0
  131.8642  123.7244  169.2988 O   0  0  0  0  0
  132.6922  120.1285  166.0309 O   0  0  0  0  0
  1 18  1  0  0  0
  2  3  1  0  0  0
  2  4  1  0  0  0
  3 21  1  0  0  0
  4 20  1  0  0  0
  5 20  1  0  0  0
  5  6  1  0  0  0
  5  7  1  0  0  0
  5  8  1  0  0  0
  8 23  1  0  0  0
  9 18  1  0  0  0
  9 10  1  0  0  0
 10 11  1  0  0  0
 11 12  1  0  0  0
 12 13  1  0  0  0
 14  1  1  0  0  0
 14 15  1  0  0  0
 14 16  1  0  0  0
 14 17  1  0  0  0
 18 19  1  0  0  0
  2 19  2  0  0  0
  3  1  2  0  0  0
  4 22  2  0  0  0
M  END
> <rmsd>
0.588110983

$$$$
CHEMBL5092703_6KPF


 33 36  0  0  0  0  0  0  0  0999 V2000
  127.4682  121.0996  172.0590 C   0  0  0  0  0
  127.0003  122.3254  172.8519 C   0  0  0  0  0
  125.6345  122.6918  172.3088 C   0  0  0  0  0
  125.0530  121.3974  171.7911 C   0  0  0  0  0
  126.2365  120.5799  171.3145 C   0  0  0  0  0
  128.5454  121.4454  171.0465 C   0  0  0  0  0
  129.0850  120.4366  170.2296 C   0  0  0  0  0
  130.0788  120.7275  169.2920 C   0  0  0  0  0
  130.5460  122.0467  169.1469 C   0  0  0  0  0
  131.6389  122.3612  168.1615 C   0  0  0  0  0
  132.3259  123.7244  168.4102 C   0  0  0  0  0
  131.3351  124.8390  168.8228 C   0  0  0  0  0
  130.0083  123.0637  169.9572 C   0  0  0  0  0
  129.0228  122.7585  170.8979 C   0  0  0  0  0
  130.4978  125.3094  167.6397 C   0  0  0  0  0
  132.1136  126.0274  169.3619 C   0  0  0  0  0
  133.2393  124.1629  167.2450 C   0  0  0  0  0
  133.6005  123.0024  166.3206 C   0  0  0  0  0
  132.3360  122.3726  165.7144 C   0  0  0  0  0
  131.1727  122.2137  166.7103 C   0  0  0  0  0
  132.6647  121.0460  165.0410 C   0  0  0  0  0
  128.0101  120.0321  173.0215 C   0  0  0  0  0
  126.9853  119.5821  174.0600 C   0  0  0  0  0
  127.3081  118.1756  174.5546 C   0  0  0  0  0
  127.0916  117.1401  173.4551 C   0  0  0  0  0
  125.6113  117.0194  173.1135 C   0  0  0  0  0
  125.4350  116.2242  171.8259 C   0  0  0  0  0
  125.1981  117.3648  169.7687 C   0  0  0  0  0
  130.4562  124.3844  169.8514 O   0  0  0  0  0
  133.1577  120.1250  165.9678 O   0  0  0  0  0
  130.6015  119.6974  168.5146 O   0  0  0  0  0
  125.9716  116.9742  170.7003 N   0  0  0  0  0
  124.2184  117.8681  168.5885 S   0  0  0  0  0
  1  2  1  0  0  0
  1  6  1  0  0  0
  1 22  1  0  0  0
  2  3  1  0  0  0
  3  4  1  0  0  0
  4  5  1  0  0  0
  5  1  1  0  0  0
  7  8  1  0  0  0
  8 31  1  0  0  0
 10  9  1  0  0  0
 10 11  1  0  0  0
 10 20  1  0  0  0
 11 12  1  0  0  0
 11 17  1  0  0  0
 12 29  1  0  0  0
 12 15  1  0  0  0
 12 16  1  0  0  0
 13 29  1  0  0  0
 13  9  1  0  0  0
 14  6  1  0  0  0
 17 18  1  0  0  0
 18 19  1  0  0  0
 19 20  1  0  0  0
 19 21  1  0  0  0
 21 30  1  0  0  0
 22 23  1  0  0  0
 23 24  1  0  0  0
 24 25  1  0  0  0
 25 26  1  0  0  0
 26 27  1  0  0  0
 27 32  1  0  0  0
  6  7  2  0  0  0
  8  9  2  0  0  0
 13 14  2  0  0  0
 28 33  2  0  0  0
 32 28  2  0  0  0
M  END
> <rmsd>
0.29258135

$$$$
CHEMBL338484_6KPF


 28 30  0  0  0  0  0  0  0  0999 V2000
  123.6845  117.9361  167.8635 C   0  0  0  0  0
  124.0469  117.2103  169.1454 C   0  0  0  0  0
  123.0364  117.5237  170.2384 C   0  0  0  0  0
  123.2057  118.9409  170.7729 C   0  0  0  0  0
  124.3255  119.0166  171.8036 C   0  0  0  0  0
  125.6956  119.0972  171.1418 C   0  0  0  0  0
  125.9173  120.4552  170.4874 C   0  0  0  0  0
  126.1519  121.5424  171.5296 C   0  0  0  0  0
  127.5212  121.4005  172.1853 C   0  0  0  0  0
  128.6189  121.7770  171.2459 C   0  0  0  0  0
  129.5414  120.8119  170.8403 C   0  0  0  0  0
  130.5754  121.1451  169.9617 C   0  0  0  0  0
  130.6814  122.4599  169.4558 C   0  0  0  0  0
  129.7896  123.4458  169.9345 C   0  0  0  0  0
  128.7559  123.0958  170.8063 C   0  0  0  0  0
  131.0785  125.2791  168.8732 C   0  0  0  0  0
  132.1611  125.6000  169.8960 C   0  0  0  0  0
  130.6948  126.5605  168.1555 C   0  0  0  0  0
  131.5614  124.2308  167.8579 C   0  0  0  0  0
  132.8004  124.6718  167.0630 C   0  0  0  0  0
  133.4194  123.5447  166.2718 C   0  0  0  0  0
  133.0604  122.2576  166.4114 C   0  0  0  0  0
  133.7504  121.2379  165.5564 C   0  0  0  0  0
  131.9512  121.8526  167.3558 C   0  0  0  0  0
  131.7931  122.8545  168.5008 C   0  0  0  0  0
  131.4936  120.1632  169.6080 O   0  0  0  0  0
  129.9246  124.7844  169.5502 O   0  0  0  0  0
  133.2560  119.9540  165.7956 O   0  0  0  0  0
  1  2  1  0  0  0
  2  3  1  0  0  0
  3  4  1  0  0  0
  4  5  1  0  0  0
  5  6  1  0  0  0
  6  7  1  0  0  0
  7  8  1  0  0  0
  8  9  1  0  0  0
  9 10  1  0  0  0
 11 12  1  0  0  0
 12 26  1  0  0  0
 13 14  1  0  0  0
 14 27  1  0  0  0
 15 10  1  0  0  0
 16 27  1  0  0  0
 16 17  1  0  0  0
 16 18  1  0  0  0
 19 16  1  0  0  0
 19 20  1  0  0  0
 20 21  1  0  0  0
 23 22  1  0  0  0
 23 28  1  0  0  0
 24 22  1  0  0  0
 25 24  1  0  0  0
 25 19  1  0  0  0
 25 13  1  0  0  0
 10 11  2  0  0  0
 12 13  2  0  0  0
 14 15  2  0  0  0
 21 22  2  0  0  0
M  END
> <rmsd>
0.348831773

$$$$
CHEMBL4588694_8GUS


 29 31  0  0  0  0  0  0  0  0999 V2000
  126.2820  120.9596  171.2564 C   0  0  0  0  0
  127.4034  120.0563  170.7454 C   0  0  0  0  0
  127.9907  119.3168  171.9408 C   0  0  0  0  0
  128.5060  120.8511  170.0679 C   0  0  0  0  0
  128.4385  122.2492  169.9382 C   0  0  0  0  0
  129.4602  122.9625  169.3093 C   0  0  0  0  0
  130.3315  125.2262  168.5735 C   0  0  0  0  0
  129.6647  125.9726  167.4339 C   0  0  0  0  0
  130.8209  126.2325  169.5973 C   0  0  0  0  0
  131.4981  124.4402  168.0444 C   0  0  0  0  0
  131.6027  123.0893  168.1502 C   0  0  0  0  0
  130.5755  122.2748  168.7963 C   0  0  0  0  0
  130.6655  120.8784  168.9131 C   0  0  0  0  0
  129.6271  120.1804  169.5488 C   0  0  0  0  0
  131.9252  118.7916  168.4682 C   0  0  0  0  0
  133.2249  118.3691  167.8041 C   0  0  0  0  0
  133.1293  118.4871  166.2918 C   0  0  0  0  0
  132.6416  124.8490  167.3838 C   0  0  0  0  0
  126.8255  119.0557  169.7362 C   0  0  0  0  0
  125.7365  118.1626  170.3249 C   0  0  0  0  0
  125.1877  117.2253  169.2606 C   0  0  0  0  0
  124.3043  117.9710  168.2669 C   0  0  0  0  0
  122.9733  118.3614  168.8915 C   0  0  0  0  0
  122.0766  117.1458  169.0309 C   0  0  0  0  0
  129.3567  124.3658  169.1978 O   0  0  0  0  0
  131.7782  120.2043  168.3985 O   0  0  0  0  0
  133.2004  119.8265  165.9079 O   0  0  0  0  0
  132.7239  122.7061  167.5966 O   0  0  0  0  0
  133.3705  123.7368  167.1272 N   0  0  0  0  0
  1  2  1  0  0  0
  2  3  1  0  0  0
  2  4  1  0  0  0
  2 19  1  0  0  0
  5  6  1  0  0  0
  6 25  1  0  0  0
  7 25  1  0  0  0
  7  8  1  0  0  0
  7  9  1  0  0  0
  7 10  1  0  0  0
 11 12  1  0  0  0
 11 28  1  0  0  0
 12 13  1  0  0  0
 13 26  1  0  0  0
 14  4  1  0  0  0
 15 26  1  0  0  0
 15 16  1  0  0  0
 16 17  1  0  0  0
 17 27  1  0  0  0
 18 10  1  0  0  0
 19 20  1  0  0  0
 20 21  1  0  0  0
 21 22  1  0  0  0
 22 23  1  0  0  0
 23 24  1  0  0  0
 28 29  1  0  0  0
  4  5  2  0  0  0
 10 11  2  0  0  0
 12  6  2  0  0  0
 13 14  2  0  0  0
 18 29  2  0  0  0
M  END
> <rmsd>
0.614093304

$$$$
CHEMBL4475022_6KPF


 29 31  0  0  0  0  0  0  0  0999 V2000
  125.0875  116.9331  168.0200 C   0  0  0  0  0
  124.4031  118.1653  168.5809 C   0  0  0  0  0
  124.4892  118.1766  170.0989 C   0  0  0  0  0
  125.8900  118.5388  170.5662 C   0  0  0  0  0
  126.4867  120.8356  171.2340 C   0  0  0  0  0
  126.8148  122.2581  170.8326 C   0  0  0  0  0
  126.4838  123.2049  171.9807 C   0  0  0  0  0
  125.9348  122.6480  169.6524 C   0  0  0  0  0
  128.2756  122.4261  170.4468 C   0  0  0  0  0
  128.7459  123.6788  170.0260 C   0  0  0  0  0
  130.0806  123.8631  169.6619 C   0  0  0  0  0
  130.9796  122.7721  169.6703 C   0  0  0  0  0
  132.4309  123.0183  169.2753 C   0  0  0  0  0
  133.1374  121.8066  168.6404 C   0  0  0  0  0
  133.1019  121.7583  167.1326 C   0  0  0  0  0
  132.6587  122.7841  166.3920 C   0  0  0  0  0
  132.0409  124.0064  167.0006 C   0  0  0  0  0
  132.5992  124.2812  168.4037 C   0  0  0  0  0
  131.8773  125.4707  169.0611 C   0  0  0  0  0
  131.9586  126.7079  168.1819 C   0  0  0  0  0
  132.5393  125.8120  170.3873 C   0  0  0  0  0
  133.7025  120.5754  166.4503 C   0  0  0  0  0
  130.5252  121.5264  170.1584 C   0  0  0  0  0
  129.1876  121.3621  170.5235 C   0  0  0  0  0
  126.1722  119.8948  170.2490 O   0  0  0  0  0
  126.5706  120.4798  172.4431 O   0  0  0  0  0
  130.5047  125.1454  169.2874 O   0  0  0  0  0
  132.7149  119.8694  165.7622 O   0  0  0  0  0
  131.3859  120.4447  170.3004 O   0  0  0  0  0
  1  2  1  0  0  0
  2  3  1  0  0  0
  3  4  1  0  0  0
  4 25  1  0  0  0
  5 25  1  0  0  0
  6  5  1  0  0  0
  6  7  1  0  0  0
  6  8  1  0  0  0
  6  9  1  0  0  0
 10 11  1  0  0  0
 11 27  1  0  0  0
 12 23  1  0  0  0
 13 12  1  0  0  0
 13 14  1  0  0  0
 14 15  1  0  0  0
 17 16  1  0  0  0
 18 17  1  0  0  0
 18 19  1  0  0  0
 18 13  1  0  0  0
 19 27  1  0  0  0
 19 20  1  0  0  0
 19 21  1  0  0  0
 22 15  1  0  0  0
 22 28  1  0  0  0
 23 29  1  0  0  0
 24  9  1  0  0  0
  5 26  2  0  0  0
  9 10  2  0  0  0
 11 12  2  0  0  0
 15 16  2  0  0  0
 23 24  2  0  0  0
M  END
> <rmsd>
0.605456471

$$$$
CHEMBL4760082_6KPF


 33 38  0  0  0  0  0  0  0  0999 V2000
  128.5916  121.2249  171.3273 C   0  0  0  0  0
  129.6982  122.0483  171.5793 C   0  0  0  0  0
  130.4534  122.5750  170.5298 C   0  0  0  0  0
  130.1374  122.2506  169.1931 C   0  0  0  0  0
  128.9800  121.4843  168.9376 C   0  0  0  0  0
  128.2285  120.9723  169.9975 C   0  0  0  0  0
  130.9828  122.8096  168.0629 C   0  0  0  0  0
  132.3183  123.4032  168.5467 C   0  0  0  0  0
  132.1738  124.2208  169.8399 C   0  0  0  0  0
  131.3730  125.4943  169.6012 C   0  0  0  0  0
  133.5438  124.6023  170.3705 C   0  0  0  0  0
  133.0426  124.1633  167.4197 C   0  0  0  0  0
  132.6526  123.6791  166.0156 C   0  0  0  0  0
  132.3513  122.1766  165.9671 C   0  0  0  0  0
  131.2858  121.7477  166.9933 C   0  0  0  0  0
  133.6279  121.3690  166.1476 C   0  0  0  0  0
  127.7699  120.6779  172.4720 C   0  0  0  0  0
  127.0961  121.8565  173.2039 C   0  0  0  0  0
  126.2512  121.3151  174.3567 C   0  0  0  0  0
  127.1583  120.5455  175.3357 C   0  0  0  0  0
  127.8663  119.3842  174.6119 C   0  0  0  0  0
  128.7004  119.9427  173.4597 C   0  0  0  0  0
  126.8176  118.4468  174.0136 C   0  0  0  0  0
  125.9608  119.2351  173.0104 C   0  0  0  0  0
  125.2205  120.3553  173.7644 C   0  0  0  0  0
  124.9459  118.2766  172.4005 C   0  0  0  0  0
  124.1751  118.5324  170.1825 C   0  0  0  0  0
  128.5587  121.2304  167.6375 O   0  0  0  0  0
  131.5172  123.4321  170.8297 O   0  0  0  0  0
  133.4001  120.0340  165.8125 O   0  0  0  0  0
  126.7790  119.7746  171.9716 O   0  0  0  0  0
  124.1474  118.9426  171.3839 N   0  0  0  0  0
  124.2127  118.0140  168.6577 S   0  0  0  0  0
  2  3  1  0  0  0
  3 29  1  0  0  0
  4  5  1  0  0  0
  5 28  1  0  0  0
  6  1  1  0  0  0
  7  4  1  0  0  0
  7  8  1  0  0  0
  7 15  1  0  0  0
  8  9  1  0  0  0
  8 12  1  0  0  0
  9 10  1  0  0  0
  9 11  1  0  0  0
  9 29  1  0  0  0
 12 13  1  0  0  0
 13 14  1  0  0  0
 14 15  1  0  0  0
 14 16  1  0  0  0
 16 30  1  0  0  0
 17  1  1  0  0  0
 17 18  1  0  0  0
 17 31  1  0  0  0
 18 19  1  0  0  0
 19 20  1  0  0  0
 20 21  1  0  0  0
 21 22  1  0  0  0
 21 23  1  0  0  0
 22 17  1  0  0  0
 23 24  1  0  0  0
 24 25  1  0  0  0
 24 31  1  0  0  0
 24 26  1  0  0  0
 25 19  1  0  0  0
 26 32  1  0  0  0
  1  2  2  0  0  0
  3  4  2  0  0  0
  5  6  2  0  0  0
 27 33  2  0  0  0
 32 27  2  0  0  0
M  END
> <rmsd>
0.390141815

$$$$
CHEMBL3669059_8GUT


 26 28  0  0  0  0  0  0  0  0999 V2000
  127.4454  124.1682  172.5883 C   0  0  0  0  0
  128.8689  123.1236  170.8723 C   0  0  0  0  0
  130.2633  122.1759  169.2239 C   0  0  0  0  0
  128.5349  120.8943  170.1862 C   0  0  0  0  0
  126.6975  119.4787  171.1770 C   0  0  0  0  0
  126.1078  118.0869  171.0062 C   0  0  0  0  0
  125.2455  118.0032  169.7895 C   0  0  0  0  0
  123.8654  117.8262  169.9347 C   0  0  0  0  0
  123.0475  117.7271  168.8048 C   0  0  0  0  0
  123.6092  117.7996  167.5266 C   0  0  0  0  0
  124.9893  117.9666  167.3774 C   0  0  0  0  0
  125.8071  118.0655  168.5070 C   0  0  0  0  0
  131.3909  122.2967  168.2805 C   0  0  0  0  0
  131.7612  121.2106  167.4738 C   0  0  0  0  0
  132.8292  121.3218  166.5786 C   0  0  0  0  0
  133.5384  122.5275  166.4836 C   0  0  0  0  0
  133.1741  123.6131  167.2847 C   0  0  0  0  0
  132.1062  123.4988  168.1786 C   0  0  0  0  0
  128.5203  124.2194  171.6623 O   0  0  0  0  0
  133.1777  120.2324  165.7898 O   0  0  0  0  0
  129.9058  123.2306  170.0040 N   0  0  0  0  0
  129.5725  121.0088  169.3201 N   0  0  0  0  0
  128.1838  121.9529  170.9618 N   0  0  0  0  0
  127.8207  119.6617  170.2710 N   0  0  0  0  0
  122.8167  117.7041  166.4323 F   0  0  0  0  0
  134.8829  122.6974  165.3698 Cl  0  0  0  0  0
  1 19  1  0  0  0
  2 19  1  0  0  0
  2 23  1  0  0  0
  3 21  1  0  0  0
  3 13  1  0  0  0
  4 22  1  0  0  0
  4 24  1  0  0  0
  5 24  1  0  0  0
  5  6  1  0  0  0
  6  7  1  0  0  0
  8  9  1  0  0  0
 10 11  1  0  0  0
 10 25  1  0  0  0
 12  7  1  0  0  0
 14 15  1  0  0  0
 15 20  1  0  0  0
 16 17  1  0  0  0
 16 26  1  0  0  0
 18 13  1  0  0  0
  2 21  2  0  0  0
  3 22  2  0  0  0
  4 23  2  0  0  0
  7  8  2  0  0  0
  9 10  2  0  0  0
 11 12  2  0  0  0
 13 14  2  0  0  0
 15 16  2  0  0  0
 17 18  2  0  0  0
M  END
> <rmsd>
0.564372778

$$$$
CHEMBL5077315_6KPF


 33 36  0  0  0  0  0  0  0  0999 V2000
  127.7877  120.0021  172.2800 C   0  0  0  0  0
  128.6429  119.2384  173.2834 C   0  0  0  0  0
  128.7231  120.0956  174.5244 C   0  0  0  0  0
  127.4328  120.8754  174.5434 C   0  0  0  0  0
  127.0739  121.0912  173.0896 C   0  0  0  0  0
  128.6777  120.5716  171.1863 C   0  0  0  0  0
  129.4467  119.7076  170.3933 C   0  0  0  0  0
  130.2575  120.1998  169.3686 C   0  0  0  0  0
  130.2883  121.5841  169.0905 C   0  0  0  0  0
  131.1675  122.1600  167.9943 C   0  0  0  0  0
  130.8017  123.6158  167.6553 C   0  0  0  0  0
  130.6148  124.4712  168.9188 C   0  0  0  0  0
  129.5717  122.4599  169.9349 C   0  0  0  0  0
  128.7615  121.9515  170.9513 C   0  0  0  0  0
  130.0862  125.8430  168.5404 C   0  0  0  0  0
  131.9269  124.6476  169.6732 C   0  0  0  0  0
  131.8231  124.1951  166.6717 C   0  0  0  0  0
  131.8196  123.3775  165.3798 C   0  0  0  0  0
  132.0793  121.8912  165.6458 C   0  0  0  0  0
  131.1081  121.3416  166.6985 C   0  0  0  0  0
  133.5316  121.6541  166.0391 C   0  0  0  0  0
  126.7534  119.0338  171.6976 C   0  0  0  0  0
  125.8331  119.7007  170.6847 C   0  0  0  0  0
  124.8463  118.6840  170.1536 C   0  0  0  0  0
  123.9845  119.3310  169.0858 C   0  0  0  0  0
  122.9814  118.3321  168.5363 C   0  0  0  0  0
  123.6707  117.3330  167.6242 C   0  0  0  0  0
  129.6610  123.8480  169.7771 O   0  0  0  0  0
  133.8142  120.2877  166.0182 O   0  0  0  0  0
  131.0336  119.3019  168.6444 O   0  0  0  0  0
  122.6953  116.3852  167.1188 N   0  0  0  0  0
  122.8223  115.1840  167.3552 N   0  0  0  0  0
  122.9493  113.9836  167.5924 N   0  0  0  0  0
  1  2  1  0  0  0
  1  6  1  0  0  0
  1 22  1  0  0  0
  2  3  1  0  0  0
  3  4  1  0  0  0
  4  5  1  0  0  0
  5  1  1  0  0  0
  7  8  1  0  0  0
  8 30  1  0  0  0
 10  9  1  0  0  0
 10 11  1  0  0  0
 10 20  1  0  0  0
 11 12  1  0  0  0
 11 17  1  0  0  0
 12 28  1  0  0  0
 12 15  1  0  0  0
 12 16  1  0  0  0
 13 28  1  0  0  0
 13  9  1  0  0  0
 14  6  1  0  0  0
 17 18  1  0  0  0
 18 19  1  0  0  0
 19 20  1  0  0  0
 19 21  1  0  0  0
 21 29  1  0  0  0
 22 23  1  0  0  0
 23 24  1  0  0  0
 24 25  1  0  0  0
 25 26  1  0  0  0
 26 27  1  0  0  0
 27 31  1  0  0  0
  6  7  2  0  0  0
  8  9  2  0  0  0
 13 14  2  0  0  0
 31 32  2  0  0  0
 32 33  2  0  0  0
M  CHG  2  32   1  33  -1
M  END
> <rmsd>
0.907032728

$$$$
CHEMBL4079650_5ZTY


 28 32  0  0  0  0  0  0  0  0999 V2000
  125.4687  117.4471  168.2086 C   0  0  0  0  0
  125.0234  118.7635  168.8750 C   0  0  0  0  0
  124.4110  118.4412  170.2487 C   0  0  0  0  0
  123.2003  117.5073  170.0844 C   0  0  0  0  0
  123.6542  116.2043  169.4068 C   0  0  0  0  0
  124.2616  116.5131  168.0290 C   0  0  0  0  0
  123.2065  117.2101  167.1541 C   0  0  0  0  0
  122.7450  118.5156  167.8227 C   0  0  0  0  0
  123.9531  119.4480  168.0026 C   0  0  0  0  0
  122.1464  118.1949  169.2018 C   0  0  0  0  0
  126.9892  120.1629  168.0066 C   0  0  0  0  0
  128.1205  121.0507  168.3161 C   0  0  0  0  0
  128.5388  121.4882  169.5605 C   0  0  0  0  0
  128.0458  121.2363  170.8408 C   0  0  0  0  0
  128.7114  121.8345  171.9256 C   0  0  0  0  0
  129.8381  122.6572  171.7107 C   0  0  0  0  0
  130.3135  122.8929  170.4084 C   0  0  0  0  0
  129.6317  122.2874  169.3517 C   0  0  0  0  0
  128.9951  121.6120  167.3853 C   0  0  0  0  0
  131.0107  123.0869  167.4183 C   0  0  0  0  0
  132.2307  122.1898  167.3412 C   0  0  0  0  0
  133.3730  122.9451  166.6904 C   0  0  0  0  0
  134.6066  122.0624  166.5866 C   0  0  0  0  0
  134.5295  121.1494  165.3730 C   0  0  0  0  0
  126.1677  119.6497  169.0634 N   0  0  0  0  0
  129.9066  122.3703  168.0381 N   0  0  0  0  0
  126.7476  119.8570  166.8075 O   0  0  0  0  0
  133.6391  120.1023  165.6122 O   0  0  0  0  0
  1  2  1  0  0  0
  2  3  1  0  0  0
  2 25  1  0  0  0
  3  4  1  0  0  0
  4  5  1  0  0  0
  5  6  1  0  0  0
  6  7  1  0  0  0
  6  1  1  0  0  0
  7  8  1  0  0  0
  8  9  1  0  0  0
  8 10  1  0  0  0
  9  2  1  0  0  0
 10  4  1  0  0  0
 11 12  1  0  0  0
 12 13  1  0  0  0
 14 15  1  0  0  0
 16 17  1  0  0  0
 18 26  1  0  0  0
 18 13  1  0  0  0
 20 26  1  0  0  0
 20 21  1  0  0  0
 21 22  1  0  0  0
 22 23  1  0  0  0
 23 24  1  0  0  0
 24 28  1  0  0  0
 25 11  1  0  0  0
 26 19  1  0  0  0
 11 27  2  0  0  0
 13 14  2  0  0  0
 15 16  2  0  0  0
 17 18  2  0  0  0
 19 12  2  0  0  0
M  END
> <rmsd>
0.660721362

$$$$
CHEMBL3894398_8GUQ


 24 26  0  0  0  0  0  0  0  0999 V2000
  132.3174  122.9269  165.9874 C   0  0  0  0  0
  133.5170  122.7678  166.9102 C   0  0  0  0  0
  133.6870  124.0423  167.7239 C   0  0  0  0  0
  133.4618  121.4714  167.7606 C   0  0  0  0  0
  134.5764  121.4582  168.8004 C   0  0  0  0  0
  133.7225  120.2637  166.8597 C   0  0  0  0  0
  131.6317  122.0845  169.4951 C   0  0  0  0  0
  130.2481  121.8619  169.9408 C   0  0  0  0  0
  128.1960  120.6621  169.6911 C   0  0  0  0  0
  127.6041  121.4302  170.7283 C   0  0  0  0  0
  128.3967  122.3791  171.3887 C   0  0  0  0  0
  129.7149  122.5989  170.9996 C   0  0  0  0  0
  126.1708  121.2553  171.1556 C   0  0  0  0  0
  125.2437  121.7896  170.0751 C   0  0  0  0  0
  125.4675  122.5941  171.3323 C   0  0  0  0  0
  126.4899  118.8461  169.5674 C   0  0  0  0  0
  125.9397  117.9092  168.5134 C   0  0  0  0  0
  124.6586  118.4906  167.9529 C   0  0  0  0  0
  124.6005  117.3773  168.9773 C   0  0  0  0  0
  132.6449  120.0135  166.0060 O   0  0  0  0  0
  132.3490  122.9464  170.0718 O   0  0  0  0  0
  127.5233  119.6416  169.0042 O   0  0  0  0  0
  132.1598  121.3000  168.4163 N   0  0  0  0  0
  129.4808  120.9228  169.3244 N   0  0  0  0  0
  1  2  1  0  0  0
  2  3  1  0  0  0
  4  2  1  0  0  0
  4  5  1  0  0  0
  4  6  1  0  0  0
  4 23  1  0  0  0
  6 20  1  0  0  0
  7  8  1  0  0  0
  9 24  1  0  0  0
  9 22  1  0  0  0
 10 11  1  0  0  0
 12  8  1  0  0  0
 13 10  1  0  0  0
 13 14  1  0  0  0
 14 15  1  0  0  0
 15 13  1  0  0  0
 16 22  1  0  0  0
 16 17  1  0  0  0
 17 18  1  0  0  0
 18 19  1  0  0  0
 19 17  1  0  0  0
 23  7  1  0  0  0
  7 21  2  0  0  0
  8 24  2  0  0  0
  9 10  2  0  0  0
 11 12  2  0  0  0
M  END
> <rmsd>
0.720650613

$$$$
CHEMBL4783221_5ZTY


 22 22  0  0  0  0  0  0  0  0999 V2000
  129.1038  121.2855  171.2742 C   0  0  0  0  0
  129.6325  121.8434  169.2479 C   0  0  0  0  0
  130.2070  121.4913  170.4617 C   0  0  0  0  0
  130.3715  122.1690  168.0238 C   0  0  0  0  0
  132.6519  122.4404  166.8731 C   0  0  0  0  0
  134.1066  122.3108  167.2830 C   0  0  0  0  0
  132.4171  123.8664  166.4093 C   0  0  0  0  0
  132.3586  121.4828  165.7210 C   0  0  0  0  0
  126.6058  121.3388  171.0337 C   0  0  0  0  0
  126.1345  119.9080  170.8274 C   0  0  0  0  0
  125.8904  119.6376  169.3555 C   0  0  0  0  0
  125.4516  118.2007  169.1725 C   0  0  0  0  0
  125.2164  117.9291  167.7018 C   0  0  0  0  0
  129.1488  120.8438  172.7076 C   0  0  0  0  0
  127.9767  121.4993  170.5659 N   0  0  0  0  0
  128.2879  121.8379  169.3286 N   0  0  0  0  0
  131.8053  122.1429  168.0276 N   0  0  0  0  0
  129.7403  122.4691  166.9745 O   0  0  0  0  0
  132.5168  120.1542  166.1236 O   0  0  0  0  0
  130.4482  120.8762  173.1822 F   0  0  0  0  0
  128.6654  119.5529  172.8082 F   0  0  0  0  0
  128.3701  121.6852  173.4802 F   0  0  0  0  0
  1 15  1  0  0  0
  2  3  1  0  0  0
  2  4  1  0  0  0
  4 17  1  0  0  0
  5 17  1  0  0  0
  5  6  1  0  0  0
  5  7  1  0  0  0
  5  8  1  0  0  0
  8 19  1  0  0  0
  9 15  1  0  0  0
  9 10  1  0  0  0
 10 11  1  0  0  0
 11 12  1  0  0  0
 12 13  1  0  0  0
 14  1  1  0  0  0
 14 20  1  0  0  0
 14 21  1  0  0  0
 14 22  1  0  0  0
 15 16  1  0  0  0
  2 16  2  0  0  0
  3  1  2  0  0  0
  4 18  2  0  0  0
M  END
> <rmsd>
0.811121941

$$$$
