MODEL 1
REMARK VINA RESULT:   -13.324      0.000      0.000
REMARK INTER + INTRA:         -10.734
REMARK INTER:                 -18.777
REMARK INTRA:                   8.043
REMARK UNBOUND:                 8.043
REMARK  7 active torsions:
REMARK  status: ('A' for Active; 'I' for Inactive)
REMARK    1  A    between atoms: C3_3  and  C4_4 
REMARK       I    between atoms: C4_4  and  N6_6 
REMARK    2  A    between atoms: N6_6  and  N7_7 
REMARK    3  A    between atoms: N16_16  and  C17_17 
REMARK    4  A    between atoms: C25_25  and  C26_26 
REMARK    5  A    between atoms: C29_29  and  C30_30 
REMARK    6  A    between atoms: C31_31  and  C32_32 
REMARK    7  A    between atoms: C32_32  and  C33_33 
ROOT
ATOM      1  C33 UNL A   1       1.678   2.773  10.476  1.00  0.00     0.119 C 
ATOM      2  C34 UNL A   1       3.139   2.845  10.324  1.00  0.00     0.075 C 
ATOM      3  N35 UNL A   1       4.292   2.900  10.212  1.00  0.00    -0.196 NA
ENDROOT
BRANCH   1   4
ATOM      4  C32 UNL A   1       0.959   2.727   9.128  1.00  0.00     0.092 C 
BRANCH   4   5
ATOM      5  C31 UNL A   1      -0.106   1.711   9.093  1.00  0.00    -0.085 C 
ATOM      6  C30 UNL A   1      -1.027   0.937   9.113  1.00  0.00    -0.064 C 
BRANCH   6   7
ATOM      7  C29 UNL A   1      -2.194   0.108   9.192  1.00  0.00     0.042 A 
ATOM      8  C28 UNL A   1      -2.152  -1.055   9.958  1.00  0.00     0.008 A 
ATOM      9  C27 UNL A   1      -3.262  -1.910  10.017  1.00  0.00     0.002 A 
ATOM     10  C26 UNL A   1      -4.474  -1.589   9.387  1.00  0.00     0.018 A 
ATOM     11  C37 UNL A   1      -4.496  -0.411   8.618  1.00  0.00     0.002 A 
ATOM     12  C36 UNL A   1      -3.365   0.419   8.505  1.00  0.00     0.008 A 
BRANCH  10  13
ATOM     13  C25 UNL A   1      -5.685  -2.449   9.525  1.00  0.00     0.081 A 
ATOM     14  C2  UNL A   1      -6.589  -2.531  10.592  1.00  0.00     0.020 A 
ATOM     15  C1  UNL A   1      -6.528  -1.779  11.879  1.00  0.00     0.034 C 
ATOM     16  C3  UNL A   1      -7.604  -3.458  10.190  1.00  0.00     0.156 A 
ATOM     17  N15 UNL A   1      -7.357  -3.916   8.953  1.00  0.00    -0.161 NA
ATOM     18  N16 UNL A   1      -6.231  -3.283   8.533  1.00  0.00    -0.229 N 
BRANCH  16  19
ATOM     19  C4  UNL A   1      -8.800  -3.914  10.945  1.00  0.00     0.290 C 
ATOM     20  O5  UNL A   1      -8.787  -4.112  12.160  1.00  0.00    -0.264 OA
ATOM     21  N6  UNL A   1      -9.944  -4.113  10.165  1.00  0.00    -0.265 N 
ATOM     22  H38 UNL A   1      -9.934  -3.888   9.207  1.00  0.00     0.190 HD
BRANCH  21  23
ATOM     23  N7  UNL A   1     -11.097  -4.630  10.745  1.00  0.00    -0.290 N 
ATOM     24  C8  UNL A   1     -12.255  -3.776  10.940  1.00  0.00     0.137 C 
ATOM     25  C9  UNL A   1     -12.767  -3.915  12.364  1.00  0.00     0.148 C 
ATOM     26  S10 UNL A   1     -13.108  -5.615  12.754  1.00  0.00     0.174 S 
ATOM     27  O11 UNL A   1     -13.193  -5.742  14.196  1.00  0.00    -0.226 OA
ATOM     28  O12 UNL A   1     -14.211  -6.062  11.918  1.00  0.00    -0.226 OA
ATOM     29  C13 UNL A   1     -11.637  -6.462  12.215  1.00  0.00     0.148 C 
ATOM     30  C14 UNL A   1     -11.301  -6.064  10.788  1.00  0.00     0.137 C 
ENDBRANCH  21  23
ENDBRANCH  16  19
BRANCH  18  31
ATOM     31  C17 UNL A   1      -5.727  -3.595   7.234  1.00  0.00     0.093 A 
ATOM     32  C18 UNL A   1      -6.131  -2.822   6.130  1.00  0.00     0.021 A 
ATOM     33  C19 UNL A   1      -5.716  -3.154   4.838  1.00  0.00     0.013 A 
ATOM     34  C20 UNL A   1      -4.860  -4.233   4.643  1.00  0.00     0.059 A 
ATOM     35 CL21 UNL A   1      -4.355  -4.645   3.052  1.00  0.00    -0.082 Cl
ATOM     36  C22 UNL A   1      -4.420  -4.988   5.727  1.00  0.00     0.024 A 
ATOM     37  C23 UNL A   1      -4.851  -4.678   7.025  1.00  0.00     0.076 A 
ATOM     38 CL24 UNL A   1      -4.359  -5.790   8.259  1.00  0.00    -0.081 Cl
ENDBRANCH  18  31
ENDBRANCH  10  13
ENDBRANCH   6   7
ENDBRANCH   4   5
ENDBRANCH   1   4
TORSDOF 7
BEGIN_RES SER A 173
REMARK  2 active torsions:
REMARK  status: ('A' for Active; 'I' for Inactive)
REMARK    1  A    between atoms: CA   and  CB  
REMARK    2  A    between atoms: CB   and  OG  
ROOT
ATOM      1  CA  SER A 173      -4.540 -11.597  11.543  1.00127.03     0.292 C 
ENDROOT
BRANCH   1   2
ATOM      2  CB  SER A 173      -4.003 -10.168  11.569  1.00131.20     0.194 C 
BRANCH   2   3
ATOM      3  OG  SER A 173      -3.946  -9.664  12.892  1.00137.49    -0.550 OA
ATOM      4  HG  SER A 173      -3.048  -9.521  13.168  1.00  0.00     0.310 HD
ENDBRANCH   2   3
ENDBRANCH   1   2
END_RES SER A 173
BEGIN_RES SER A 383
REMARK  2 active torsions:
REMARK  status: ('A' for Active; 'I' for Inactive)
REMARK    3  A    between atoms: CA   and  CB  
REMARK    4  A    between atoms: CB   and  OG  
ROOT
ATOM      5  CA  SER A 383      -8.934   0.934   8.031  1.00 88.23     0.292 C 
ENDROOT
BRANCH   5   6
ATOM      6  CB  SER A 383      -8.589   0.249   9.352  1.00 82.13     0.194 C 
BRANCH   6   7
ATOM      7  OG  SER A 383      -7.442   0.832   9.944  1.00 85.59    -0.550 OA
ATOM      8  HG  SER A 383      -7.308   0.503  10.825  1.00  0.00     0.310 HD
ENDBRANCH   6   7
ENDBRANCH   5   6
END_RES SER A 383
ENDMDL
MODEL 2
REMARK VINA RESULT:   -12.873      0.844      1.400
REMARK INTER + INTRA:         -10.097
REMARK INTER:                 -18.314
REMARK INTRA:                   8.217
REMARK UNBOUND:                 8.043
REMARK  7 active torsions:
REMARK  status: ('A' for Active; 'I' for Inactive)
REMARK    1  A    between atoms: C3_3  and  C4_4 
REMARK       I    between atoms: C4_4  and  N6_6 
REMARK    2  A    between atoms: N6_6  and  N7_7 
REMARK    3  A    between atoms: N16_16  and  C17_17 
REMARK    4  A    between atoms: C25_25  and  C26_26 
REMARK    5  A    between atoms: C29_29  and  C30_30 
REMARK    6  A    between atoms: C31_31  and  C32_32 
REMARK    7  A    between atoms: C32_32  and  C33_33 
ROOT
ATOM      1  C33 UNL A   1       1.662   2.554  11.305  1.00  0.00     0.119 C 
ATOM      2  C34 UNL A   1       2.916   1.843  11.591  1.00  0.00     0.075 C 
ATOM      3  N35 UNL A   1       3.905   1.282  11.825  1.00  0.00    -0.196 NA
ENDROOT
BRANCH   1   4
ATOM      4  C32 UNL A   1       1.281   2.482   9.827  1.00  0.00     0.092 C 
BRANCH   4   5
ATOM      5  C31 UNL A   1       0.109   1.623   9.590  1.00  0.00    -0.085 C 
ATOM      6  C30 UNL A   1      -0.866   0.925   9.484  1.00  0.00    -0.064 C 
BRANCH   6   7
ATOM      7  C29 UNL A   1      -2.051   0.118   9.483  1.00  0.00     0.042 A 
ATOM      8  C28 UNL A   1      -1.995  -1.174  10.000  1.00  0.00     0.008 A 
ATOM      9  C27 UNL A   1      -3.125  -2.004   9.970  1.00  0.00     0.002 A 
ATOM     10  C26 UNL A   1      -4.366  -1.542   9.504  1.00  0.00     0.018 A 
ATOM     11  C37 UNL A   1      -4.402  -0.235   8.984  1.00  0.00     0.002 A 
ATOM     12  C36 UNL A   1      -3.254   0.580   8.956  1.00  0.00     0.008 A 
BRANCH  10  13
ATOM     13  C25 UNL A   1      -5.591  -2.391   9.556  1.00  0.00     0.081 A 
ATOM     14  C2  UNL A   1      -6.539  -2.504  10.583  1.00  0.00     0.020 A 
ATOM     15  C1  UNL A   1      -6.521  -1.808  11.902  1.00  0.00     0.034 C 
ATOM     16  C3  UNL A   1      -7.548  -3.399  10.101  1.00  0.00     0.156 A 
ATOM     17  N15 UNL A   1      -7.257  -3.809   8.856  1.00  0.00    -0.161 NA
ATOM     18  N16 UNL A   1      -6.107  -3.174   8.509  1.00  0.00    -0.229 N 
BRANCH  16  19
ATOM     19  C4  UNL A   1      -8.779  -3.870  10.788  1.00  0.00     0.290 C 
ATOM     20  O5  UNL A   1      -8.775  -4.315  11.936  1.00  0.00    -0.264 OA
ATOM     21  N6  UNL A   1      -9.947  -3.780  10.023  1.00  0.00    -0.265 N 
ATOM     22  H38 UNL A   1      -9.922  -3.364   9.131  1.00  0.00     0.190 HD
BRANCH  21  23
ATOM     23  N7  UNL A   1     -11.144  -4.278  10.524  1.00  0.00    -0.290 N 
ATOM     24  C8  UNL A   1     -11.370  -5.712  10.568  1.00  0.00     0.137 C 
ATOM     25  C9  UNL A   1     -12.726  -6.041   9.968  1.00  0.00     0.148 C 
ATOM     26  S10 UNL A   1     -14.018  -5.129  10.779  1.00  0.00     0.174 S 
ATOM     27  O11 UNL A   1     -15.195  -5.159   9.933  1.00  0.00    -0.226 OA
ATOM     28  O12 UNL A   1     -14.102  -5.585  12.157  1.00  0.00    -0.226 OA
ATOM     29  C13 UNL A   1     -13.395  -3.461  10.793  1.00  0.00     0.148 C 
ATOM     30  C14 UNL A   1     -11.984  -3.437  11.353  1.00  0.00     0.137 C 
ENDBRANCH  21  23
ENDBRANCH  16  19
BRANCH  18  31
ATOM     31  C17 UNL A   1      -5.555  -3.439   7.219  1.00  0.00     0.093 A 
ATOM     32  C18 UNL A   1      -5.846  -2.571   6.151  1.00  0.00     0.021 A 
ATOM     33  C19 UNL A   1      -5.384  -2.850   4.862  1.00  0.00     0.013 A 
ATOM     34  C20 UNL A   1      -4.592  -3.972   4.639  1.00  0.00     0.059 A 
ATOM     35 CL21 UNL A   1      -4.029  -4.317   3.052  1.00  0.00    -0.082 Cl
ATOM     36  C22 UNL A   1      -4.263  -4.821   5.691  1.00  0.00     0.024 A 
ATOM     37  C23 UNL A   1      -4.742  -4.565   6.983  1.00  0.00     0.076 A 
ATOM     38 CL24 UNL A   1      -4.393  -5.783   8.164  1.00  0.00    -0.081 Cl
ENDBRANCH  18  31
ENDBRANCH  10  13
ENDBRANCH   6   7
ENDBRANCH   4   5
ENDBRANCH   1   4
TORSDOF 7
BEGIN_RES SER A 173
REMARK  2 active torsions:
REMARK  status: ('A' for Active; 'I' for Inactive)
REMARK    1  A    between atoms: CA   and  CB  
REMARK    2  A    between atoms: CB   and  OG  
ROOT
ATOM      1  CA  SER A 173      -4.540 -11.597  11.543  1.00127.03     0.292 C 
ENDROOT
BRANCH   1   2
ATOM      2  CB  SER A 173      -4.003 -10.168  11.569  1.00131.20     0.194 C 
BRANCH   2   3
ATOM      3  OG  SER A 173      -3.948  -9.663  12.892  1.00137.49    -0.550 OA
ATOM      4  HG  SER A 173      -3.246  -9.032  12.991  1.00  0.00     0.310 HD
ENDBRANCH   2   3
ENDBRANCH   1   2
END_RES SER A 173
BEGIN_RES SER A 383
REMARK  2 active torsions:
REMARK  status: ('A' for Active; 'I' for Inactive)
REMARK    3  A    between atoms: CA   and  CB  
REMARK    4  A    between atoms: CB   and  OG  
ROOT
ATOM      5  CA  SER A 383      -8.934   0.934   8.031  1.00 88.23     0.292 C 
ENDROOT
BRANCH   5   6
ATOM      6  CB  SER A 383      -8.589   0.249   9.352  1.00 82.13     0.194 C 
BRANCH   6   7
ATOM      7  OG  SER A 383      -7.473   0.865   9.969  1.00 85.59    -0.550 OA
ATOM      8  HG  SER A 383      -6.728   0.277   9.992  1.00  0.00     0.310 HD
ENDBRANCH   6   7
ENDBRANCH   5   6
END_RES SER A 383
ENDMDL
