MODEL 1
REMARK VINA RESULT:    -8.781      0.000      0.000
REMARK INTER + INTRA:         -11.251
REMARK INTER:                 -18.791
REMARK INTRA:                   7.540
REMARK UNBOUND:                 7.540
REMARK  20 active torsions:
REMARK  status: ('A' for Active; 'I' for Inactive)
REMARK    1  A    between atoms: C3_3  and  C4_4 
REMARK       I    between atoms: C4_4  and  N6_6 
REMARK    2  A    between atoms: N6_6  and  N7_7 
REMARK    3  A    between atoms: N14_14  and  C15_15 
REMARK    4  A    between atoms: C23_23  and  C24_24 
REMARK    5  A    between atoms: C27_27  and  C28_28 
REMARK    6  A    between atoms: C29_29  and  C30_30 
REMARK    7  A    between atoms: C30_30  and  C31_31 
REMARK    8  A    between atoms: C31_31  and  O32_32 
REMARK    9  A    between atoms: O32_32  and  C33_33 
REMARK   10  A    between atoms: C33_33  and  C35_35 
REMARK   11  A    between atoms: C35_35  and  C36_36 
REMARK   12  A    between atoms: C36_36  and  C37_37 
REMARK   13  A    between atoms: C37_37  and  C38_38 
REMARK   14  A    between atoms: C38_38  and  C39_39 
REMARK   15  A    between atoms: C39_39  and  C40_40 
REMARK   16  A    between atoms: C40_40  and  C41_41 
REMARK   17  A    between atoms: C41_41  and  C42_42 
REMARK   18  A    between atoms: C42_42  and  C43_43 
REMARK   19  A    between atoms: C43_43  and  C44_44 
REMARK   20  A    between atoms: C44_44  and  N45_45 
ROOT
ATOM      1  C24 UNL A   1      -5.542  -0.551  20.397  1.00  0.00     0.018 A 
ATOM      2  C25 UNL A   1      -4.923  -1.669  19.811  1.00  0.00     0.002 A 
ATOM      3  C26 UNL A   1      -5.096  -1.986  18.455  1.00  0.00     0.008 A 
ATOM      4  C27 UNL A   1      -5.963  -1.244  17.662  1.00  0.00     0.042 A 
ATOM      5  C46 UNL A   1      -6.632  -0.158  18.226  1.00  0.00     0.008 A 
ATOM      6  C47 UNL A   1      -6.407   0.191  19.572  1.00  0.00     0.002 A 
ENDROOT
BRANCH   1   7
ATOM      7  C23 UNL A   1      -5.278  -0.162  21.816  1.00  0.00     0.081 A 
ATOM      8  C2  UNL A   1      -4.291   0.689  22.339  1.00  0.00     0.020 A 
ATOM      9  C1  UNL A   1      -3.235   1.397  21.555  1.00  0.00     0.034 C 
ATOM     10  C3  UNL A   1      -4.542   0.785  23.748  1.00  0.00     0.155 A 
ATOM     11  N13 UNL A   1      -5.628   0.067  24.072  1.00  0.00    -0.161 NA
ATOM     12  N14 UNL A   1      -6.069  -0.507  22.923  1.00  0.00    -0.229 N 
BRANCH  10  13
ATOM     13  C4  UNL A   1      -3.804   1.537  24.814  1.00  0.00     0.287 C 
ATOM     14  O5  UNL A   1      -4.314   2.464  25.438  1.00  0.00    -0.265 OA
ATOM     15  N6  UNL A   1      -2.490   1.084  25.006  1.00  0.00    -0.282 N 
ATOM     16  H48 UNL A   1      -2.208   0.300  24.481  1.00  0.00     0.184 HD
BRANCH  15  17
ATOM     17  N7  UNL A   1      -1.518   1.654  25.896  1.00  0.00    -0.199 NA
ATOM     18  C8  UNL A   1      -0.635   0.659  26.525  1.00  0.00     0.094 C 
ATOM     19  C9  UNL A   1       0.293   1.294  27.572  1.00  0.00     0.019 C 
ATOM     20  C10 UNL A   1       1.094   2.451  26.985  1.00  0.00     0.003 C 
ATOM     21  C11 UNL A   1       0.154   3.448  26.319  1.00  0.00     0.019 C 
ATOM     22  C12 UNL A   1      -0.761   2.761  25.294  1.00  0.00     0.094 C 
ENDBRANCH  15  17
ENDBRANCH  10  13
BRANCH  12  23
ATOM     23  C15 UNL A   1      -7.182  -1.403  23.002  1.00  0.00     0.093 A 
ATOM     24  C16 UNL A   1      -8.465  -0.954  22.632  1.00  0.00     0.021 A 
ATOM     25  C17 UNL A   1      -9.577  -1.792  22.757  1.00  0.00     0.013 A 
ATOM     26  C18 UNL A   1      -9.412  -3.096  23.210  1.00  0.00     0.059 A 
ATOM     27 CL19 UNL A   1     -10.779  -4.130  23.357  1.00  0.00    -0.082 Cl
ATOM     28  C20 UNL A   1      -8.150  -3.566  23.557  1.00  0.00     0.024 A 
ATOM     29  C21 UNL A   1      -7.031  -2.727  23.461  1.00  0.00     0.076 A 
ATOM     30 CL22 UNL A   1      -5.555  -3.386  24.086  1.00  0.00    -0.081 Cl
ENDBRANCH  12  23
ENDBRANCH   1   7
BRANCH   4  31
ATOM     31  C28 UNL A   1      -6.176  -1.625  16.296  1.00  0.00    -0.064 C 
ATOM     32  C29 UNL A   1      -6.265  -1.979  15.148  1.00  0.00    -0.084 C 
BRANCH  32  33
ATOM     33  C30 UNL A   1      -6.283  -2.469  13.759  1.00  0.00     0.109 C 
BRANCH  33  34
ATOM     34  C31 UNL A   1      -7.485  -1.908  12.994  1.00  0.00     0.166 C 
BRANCH  34  35
ATOM     35  O32 UNL A   1      -7.346  -2.102  11.575  1.00  0.00    -0.301 OA
BRANCH  35  36
ATOM     36  C33 UNL A   1      -7.466  -3.386  11.146  1.00  0.00     0.272 C 
ATOM     37  O34 UNL A   1      -8.496  -4.045  11.175  1.00  0.00    -0.264 OA
BRANCH  36  38
ATOM     38  C35 UNL A   1      -6.154  -3.902  10.611  1.00  0.00     0.096 C 
BRANCH  38  39
ATOM     39  C36 UNL A   1      -6.114  -3.925   9.086  1.00  0.00     0.010 C 
BRANCH  39  40
ATOM     40  C37 UNL A   1      -4.707  -4.187   8.546  1.00  0.00     0.001 C 
BRANCH  40  41
ATOM     41  C38 UNL A   1      -4.708  -5.375   7.588  1.00  0.00     0.000 C 
BRANCH  41  42
ATOM     42  C39 UNL A   1      -4.107  -4.991   6.239  1.00  0.00     0.000 C 
BRANCH  42  43
ATOM     43  C40 UNL A   1      -5.175  -4.996   5.149  1.00  0.00     0.000 C 
BRANCH  43  44
ATOM     44  C41 UNL A   1      -5.649  -3.578   4.844  1.00  0.00     0.000 C 
BRANCH  44  45
ATOM     45  C42 UNL A   1      -4.633  -2.835   3.981  1.00  0.00     0.002 C 
BRANCH  45  46
ATOM     46  C43 UNL A   1      -4.358  -3.596   2.684  1.00  0.00     0.035 C 
BRANCH  46  47
ATOM     47  C44 UNL A   1      -2.877  -3.540   2.322  1.00  0.00     0.242 C 
BRANCH  47  48
ATOM     48  N45 UNL A   1      -2.645  -2.515   1.313  1.00  0.00     0.094 N 
ATOM     49  H49 UNL A   1      -2.630  -1.597   1.757  1.00  0.00     0.314 HD
ATOM     50  H50 UNL A   1      -3.394  -2.545   0.619  1.00  0.00     0.314 HD
ENDBRANCH  47  48
ENDBRANCH  46  47
ENDBRANCH  45  46
ENDBRANCH  44  45
ENDBRANCH  43  44
ENDBRANCH  42  43
ENDBRANCH  41  42
ENDBRANCH  40  41
ENDBRANCH  39  40
ENDBRANCH  38  39
ENDBRANCH  36  38
ENDBRANCH  35  36
ENDBRANCH  34  35
ENDBRANCH  33  34
ENDBRANCH  32  33
ENDBRANCH   4  31
TORSDOF 20
BEGIN_RES SER A 173
REMARK  2 active torsions:
REMARK  status: ('A' for Active; 'I' for Inactive)
REMARK    1  A    between atoms: CA   and  CB  
REMARK    2  A    between atoms: CB   and  OG  
ROOT
ATOM      1  CA  SER A 173      -4.540 -11.597  11.543  1.00127.03     0.292 C 
ENDROOT
BRANCH   1   2
ATOM      2  CB  SER A 173      -4.003 -10.168  11.569  1.00131.20     0.194 C 
BRANCH   2   3
ATOM      3  OG  SER A 173      -3.943  -9.665  12.893  1.00137.49    -0.550 OA
ATOM      4  HG  SER A 173      -4.156  -8.740  12.920  1.00  0.00     0.310 HD
ENDBRANCH   2   3
ENDBRANCH   1   2
END_RES SER A 173
BEGIN_RES SER A 383
REMARK  2 active torsions:
REMARK  status: ('A' for Active; 'I' for Inactive)
REMARK    3  A    between atoms: CA   and  CB  
REMARK    4  A    between atoms: CB   and  OG  
ROOT
ATOM      5  CA  SER A 383      -8.934   0.934   8.031  1.00 88.23     0.292 C 
ENDROOT
BRANCH   5   6
ATOM      6  CB  SER A 383      -8.589   0.249   9.352  1.00 82.13     0.194 C 
BRANCH   6   7
ATOM      7  OG  SER A 383      -7.191   0.065   9.480  1.00 85.59    -0.550 OA
ATOM      8  HG  SER A 383      -6.758   0.137   8.637  1.00  0.00     0.310 HD
ENDBRANCH   6   7
ENDBRANCH   5   6
END_RES SER A 383
ENDMDL
MODEL 2
REMARK VINA RESULT:    -8.698     10.090     14.000
REMARK INTER + INTRA:         -11.073
REMARK INTER:                 -18.570
REMARK INTRA:                   7.497
REMARK UNBOUND:                 7.540
REMARK  20 active torsions:
REMARK  status: ('A' for Active; 'I' for Inactive)
REMARK    1  A    between atoms: C3_3  and  C4_4 
REMARK       I    between atoms: C4_4  and  N6_6 
REMARK    2  A    between atoms: N6_6  and  N7_7 
REMARK    3  A    between atoms: N14_14  and  C15_15 
REMARK    4  A    between atoms: C23_23  and  C24_24 
REMARK    5  A    between atoms: C27_27  and  C28_28 
REMARK    6  A    between atoms: C29_29  and  C30_30 
REMARK    7  A    between atoms: C30_30  and  C31_31 
REMARK    8  A    between atoms: C31_31  and  O32_32 
REMARK    9  A    between atoms: O32_32  and  C33_33 
REMARK   10  A    between atoms: C33_33  and  C35_35 
REMARK   11  A    between atoms: C35_35  and  C36_36 
REMARK   12  A    between atoms: C36_36  and  C37_37 
REMARK   13  A    between atoms: C37_37  and  C38_38 
REMARK   14  A    between atoms: C38_38  and  C39_39 
REMARK   15  A    between atoms: C39_39  and  C40_40 
REMARK   16  A    between atoms: C40_40  and  C41_41 
REMARK   17  A    between atoms: C41_41  and  C42_42 
REMARK   18  A    between atoms: C42_42  and  C43_43 
REMARK   19  A    between atoms: C43_43  and  C44_44 
REMARK   20  A    between atoms: C44_44  and  N45_45 
ROOT
ATOM      1  C24 UNL A   1     -15.559  -4.391  13.365  1.00  0.00     0.018 A 
ATOM      2  C25 UNL A   1     -14.449  -3.829  14.018  1.00  0.00     0.002 A 
ATOM      3  C26 UNL A   1     -13.177  -3.798  13.426  1.00  0.00     0.008 A 
ATOM      4  C27 UNL A   1     -12.957  -4.406  12.197  1.00  0.00     0.042 A 
ATOM      5  C46 UNL A   1     -14.027  -5.018  11.544  1.00  0.00     0.008 A 
ATOM      6  C47 UNL A   1     -15.315  -4.992  12.117  1.00  0.00     0.002 A 
ENDROOT
BRANCH   1   7
ATOM      7  C23 UNL A   1     -16.930  -4.336  13.959  1.00  0.00     0.081 A 
ATOM      8  C2  UNL A   1     -17.834  -3.263  14.018  1.00  0.00     0.020 A 
ATOM      9  C1  UNL A   1     -17.595  -1.882  13.499  1.00  0.00     0.034 C 
ATOM     10  C3  UNL A   1     -19.034  -3.774  14.612  1.00  0.00     0.155 A 
ATOM     11  N13 UNL A   1     -18.896  -5.082  14.877  1.00  0.00    -0.161 NA
ATOM     12  N14 UNL A   1     -17.638  -5.423  14.494  1.00  0.00    -0.229 N 
BRANCH  10  13
ATOM     13  C4  UNL A   1     -20.324  -3.083  14.939  1.00  0.00     0.287 C 
ATOM     14  O5  UNL A   1     -20.843  -3.150  16.050  1.00  0.00    -0.265 OA
ATOM     15  N6  UNL A   1     -20.866  -2.377  13.855  1.00  0.00    -0.282 N 
ATOM     16  H48 UNL A   1     -20.334  -2.353  13.026  1.00  0.00     0.184 HD
BRANCH  15  17
ATOM     17  N7  UNL A   1     -22.125  -1.684  13.838  1.00  0.00    -0.199 NA
ATOM     18  C8  UNL A   1     -22.125  -0.476  12.997  1.00  0.00     0.094 C 
ATOM     19  C9  UNL A   1     -23.440   0.308  13.118  1.00  0.00     0.019 C 
ATOM     20  C10 UNL A   1     -24.649  -0.573  12.823  1.00  0.00     0.003 C 
ATOM     21  C11 UNL A   1     -24.605  -1.824  13.689  1.00  0.00     0.019 C 
ATOM     22  C12 UNL A   1     -23.265  -2.563  13.543  1.00  0.00     0.094 C 
ENDBRANCH  15  17
ENDBRANCH  10  13
BRANCH  12  23
ATOM     23  C15 UNL A   1     -17.198  -6.761  14.746  1.00  0.00     0.093 A 
ATOM     24  C16 UNL A   1     -17.195  -7.701  13.696  1.00  0.00     0.021 A 
ATOM     25  C17 UNL A   1     -16.825  -9.029  13.929  1.00  0.00     0.013 A 
ATOM     26  C18 UNL A   1     -16.415  -9.419  15.199  1.00  0.00     0.059 A 
ATOM     27 CL19 UNL A   1     -15.953 -11.051  15.485  1.00  0.00    -0.082 Cl
ATOM     28  C20 UNL A   1     -16.387  -8.500  16.243  1.00  0.00     0.024 A 
ATOM     29  C21 UNL A   1     -16.781  -7.172  16.027  1.00  0.00     0.076 A 
ATOM     30 CL22 UNL A   1     -16.860  -6.182  17.448  1.00  0.00    -0.081 Cl
ENDBRANCH  12  23
ENDBRANCH   1   7
BRANCH   4  31
ATOM     31  C28 UNL A   1     -11.636  -4.421  11.639  1.00  0.00    -0.064 C 
ATOM     32  C29 UNL A   1     -10.524  -4.338  11.184  1.00  0.00    -0.084 C 
BRANCH  32  33
ATOM     33  C30 UNL A   1      -9.159  -4.136  10.667  1.00  0.00     0.109 C 
BRANCH  33  34
ATOM     34  C31 UNL A   1      -8.212  -3.682  11.780  1.00  0.00     0.166 C 
BRANCH  34  35
ATOM     35  O32 UNL A   1      -6.879  -3.462  11.283  1.00  0.00    -0.301 OA
BRANCH  35  36
ATOM     36  C33 UNL A   1      -6.234  -2.383  11.797  1.00  0.00     0.272 C 
ATOM     37  O34 UNL A   1      -6.623  -1.715  12.745  1.00  0.00    -0.264 OA
BRANCH  36  38
ATOM     38  C35 UNL A   1      -4.951  -2.113  11.051  1.00  0.00     0.096 C 
BRANCH  38  39
ATOM     39  C36 UNL A   1      -4.943  -0.745  10.378  1.00  0.00     0.010 C 
BRANCH  39  40
ATOM     40  C37 UNL A   1      -3.657  -0.494   9.589  1.00  0.00     0.001 C 
BRANCH  40  41
ATOM     41  C38 UNL A   1      -3.907  -0.627   8.089  1.00  0.00     0.000 C 
BRANCH  41  42
ATOM     42  C39 UNL A   1      -5.396  -0.776   7.793  1.00  0.00     0.000 C 
BRANCH  42  43
ATOM     43  C40 UNL A   1      -5.650  -1.972   6.880  1.00  0.00     0.000 C 
BRANCH  43  44
ATOM     44  C41 UNL A   1      -5.284  -3.279   7.581  1.00  0.00     0.000 C 
BRANCH  44  45
ATOM     45  C42 UNL A   1      -4.781  -4.314   6.579  1.00  0.00     0.002 C 
BRANCH  45  46
ATOM     46  C43 UNL A   1      -5.578  -4.247   5.276  1.00  0.00     0.035 C 
BRANCH  46  47
ATOM     47  C44 UNL A   1      -4.648  -4.256   4.066  1.00  0.00     0.242 C 
BRANCH  47  48
ATOM     48  N45 UNL A   1      -4.641  -2.947   3.429  1.00  0.00     0.094 N 
ATOM     49  H49 UNL A   1      -4.928  -2.238   4.104  1.00  0.00     0.314 HD
ATOM     50  H50 UNL A   1      -5.290  -2.949   2.640  1.00  0.00     0.314 HD
ENDBRANCH  47  48
ENDBRANCH  46  47
ENDBRANCH  45  46
ENDBRANCH  44  45
ENDBRANCH  43  44
ENDBRANCH  42  43
ENDBRANCH  41  42
ENDBRANCH  40  41
ENDBRANCH  39  40
ENDBRANCH  38  39
ENDBRANCH  36  38
ENDBRANCH  35  36
ENDBRANCH  34  35
ENDBRANCH  33  34
ENDBRANCH  32  33
ENDBRANCH   4  31
TORSDOF 20
BEGIN_RES SER A 173
REMARK  2 active torsions:
REMARK  status: ('A' for Active; 'I' for Inactive)
REMARK    1  A    between atoms: CA   and  CB  
REMARK    2  A    between atoms: CB   and  OG  
ROOT
ATOM      1  CA  SER A 173      -4.540 -11.597  11.543  1.00127.03     0.292 C 
ENDROOT
BRANCH   1   2
ATOM      2  CB  SER A 173      -4.003 -10.168  11.569  1.00131.20     0.194 C 
BRANCH   2   3
ATOM      3  OG  SER A 173      -3.931  -9.670  12.894  1.00137.49    -0.550 OA
ATOM      4  HG  SER A 173      -4.776  -9.352  13.189  1.00  0.00     0.310 HD
ENDBRANCH   2   3
ENDBRANCH   1   2
END_RES SER A 173
BEGIN_RES SER A 383
REMARK  2 active torsions:
REMARK  status: ('A' for Active; 'I' for Inactive)
REMARK    3  A    between atoms: CA   and  CB  
REMARK    4  A    between atoms: CB   and  OG  
ROOT
ATOM      5  CA  SER A 383      -8.934   0.934   8.031  1.00 88.23     0.292 C 
ENDROOT
BRANCH   5   6
ATOM      6  CB  SER A 383      -8.589   0.249   9.352  1.00 82.13     0.194 C 
BRANCH   6   7
ATOM      7  OG  SER A 383      -7.901   1.132  10.219  1.00 85.59    -0.550 OA
ATOM      8  HG  SER A 383      -8.019   0.880  11.128  1.00  0.00     0.310 HD
ENDBRANCH   6   7
ENDBRANCH   5   6
END_RES SER A 383
ENDMDL
MODEL 3
REMARK VINA RESULT:    -8.642      9.757     15.023
REMARK INTER + INTRA:         -10.954
REMARK INTER:                 -18.784
REMARK INTRA:                   7.829
REMARK UNBOUND:                 7.540
REMARK  20 active torsions:
REMARK  status: ('A' for Active; 'I' for Inactive)
REMARK    1  A    between atoms: C3_3  and  C4_4 
REMARK       I    between atoms: C4_4  and  N6_6 
REMARK    2  A    between atoms: N6_6  and  N7_7 
REMARK    3  A    between atoms: N14_14  and  C15_15 
REMARK    4  A    between atoms: C23_23  and  C24_24 
REMARK    5  A    between atoms: C27_27  and  C28_28 
REMARK    6  A    between atoms: C29_29  and  C30_30 
REMARK    7  A    between atoms: C30_30  and  C31_31 
REMARK    8  A    between atoms: C31_31  and  O32_32 
REMARK    9  A    between atoms: O32_32  and  C33_33 
REMARK   10  A    between atoms: C33_33  and  C35_35 
REMARK   11  A    between atoms: C35_35  and  C36_36 
REMARK   12  A    between atoms: C36_36  and  C37_37 
REMARK   13  A    between atoms: C37_37  and  C38_38 
REMARK   14  A    between atoms: C38_38  and  C39_39 
REMARK   15  A    between atoms: C39_39  and  C40_40 
REMARK   16  A    between atoms: C40_40  and  C41_41 
REMARK   17  A    between atoms: C41_41  and  C42_42 
REMARK   18  A    between atoms: C42_42  and  C43_43 
REMARK   19  A    between atoms: C43_43  and  C44_44 
REMARK   20  A    between atoms: C44_44  and  N45_45 
ROOT
ATOM      1  C24 UNL A   1     -15.797  -4.430  13.384  1.00  0.00     0.018 A 
ATOM      2  C25 UNL A   1     -14.718  -3.695  13.905  1.00  0.00     0.002 A 
ATOM      3  C26 UNL A   1     -13.460  -3.685  13.284  1.00  0.00     0.008 A 
ATOM      4  C27 UNL A   1     -13.217  -4.479  12.170  1.00  0.00     0.042 A 
ATOM      5  C46 UNL A   1     -14.252  -5.260  11.658  1.00  0.00     0.008 A 
ATOM      6  C47 UNL A   1     -15.530  -5.219  12.251  1.00  0.00     0.002 A 
ENDROOT
BRANCH   1   7
ATOM      7  C23 UNL A   1     -17.161  -4.362  13.994  1.00  0.00     0.081 A 
ATOM      8  C2  UNL A   1     -18.095  -3.314  13.974  1.00  0.00     0.020 A 
ATOM      9  C1  UNL A   1     -17.905  -1.979  13.331  1.00  0.00     0.034 C 
ATOM     10  C3  UNL A   1     -19.271  -3.805  14.631  1.00  0.00     0.155 A 
ATOM     11  N13 UNL A   1     -19.090  -5.080  15.008  1.00  0.00    -0.161 NA
ATOM     12  N14 UNL A   1     -17.828  -5.417  14.635  1.00  0.00    -0.229 N 
BRANCH  10  13
ATOM     13  C4  UNL A   1     -20.576  -3.125  14.917  1.00  0.00     0.287 C 
ATOM     14  O5  UNL A   1     -21.200  -3.310  15.960  1.00  0.00    -0.265 OA
ATOM     15  N6  UNL A   1     -21.003  -2.282  13.880  1.00  0.00    -0.282 N 
ATOM     16  H48 UNL A   1     -20.394  -2.174  13.114  1.00  0.00     0.184 HD
BRANCH  15  17
ATOM     17  N7  UNL A   1     -22.244  -1.560  13.831  1.00  0.00    -0.199 NA
ATOM     18  C8  UNL A   1     -22.173  -0.314  13.051  1.00  0.00     0.094 C 
ATOM     19  C9  UNL A   1     -23.477   0.494  13.140  1.00  0.00     0.019 C 
ATOM     20  C10 UNL A   1     -24.686  -0.343  12.737  1.00  0.00     0.003 C 
ATOM     21  C11 UNL A   1     -24.715  -1.636  13.542  1.00  0.00     0.019 C 
ATOM     22  C12 UNL A   1     -23.384  -2.397  13.432  1.00  0.00     0.094 C 
ENDBRANCH  15  17
ENDBRANCH  10  13
BRANCH  12  23
ATOM     23  C15 UNL A   1     -17.344  -6.714  14.996  1.00  0.00     0.093 A 
ATOM     24  C16 UNL A   1     -17.302  -7.736  14.026  1.00  0.00     0.021 A 
ATOM     25  C17 UNL A   1     -16.889  -9.027  14.368  1.00  0.00     0.013 A 
ATOM     26  C18 UNL A   1     -16.474  -9.298  15.667  1.00  0.00     0.059 A 
ATOM     27 CL19 UNL A   1     -15.959 -10.885  16.086  1.00  0.00    -0.082 Cl
ATOM     28  C20 UNL A   1     -16.485  -8.297  16.633  1.00  0.00     0.024 A 
ATOM     29  C21 UNL A   1     -16.922  -7.006  16.308  1.00  0.00     0.076 A 
ATOM     30 CL22 UNL A   1     -17.045  -5.907  17.643  1.00  0.00    -0.081 Cl
ENDBRANCH  12  23
ENDBRANCH   1   7
BRANCH   4  31
ATOM     31  C28 UNL A   1     -11.905  -4.505  11.590  1.00  0.00    -0.064 C 
ATOM     32  C29 UNL A   1     -10.842  -4.487  11.024  1.00  0.00    -0.084 C 
BRANCH  32  33
ATOM     33  C30 UNL A   1      -9.587  -4.401  10.257  1.00  0.00     0.109 C 
BRANCH  33  34
ATOM     34  C31 UNL A   1      -8.525  -3.614  11.030  1.00  0.00     0.166 C 
BRANCH  34  35
ATOM     35  O32 UNL A   1      -7.682  -2.855  10.143  1.00  0.00    -0.301 OA
BRANCH  35  36
ATOM     36  C33 UNL A   1      -6.574  -3.502   9.694  1.00  0.00     0.272 C 
ATOM     37  O34 UNL A   1      -6.457  -4.010   8.587  1.00  0.00    -0.264 OA
BRANCH  36  38
ATOM     38  C35 UNL A   1      -5.487  -3.504  10.738  1.00  0.00     0.096 C 
BRANCH  38  39
ATOM     39  C36 UNL A   1      -4.751  -2.171  10.818  1.00  0.00     0.010 C 
BRANCH  39  40
ATOM     40  C37 UNL A   1      -4.997  -1.449  12.144  1.00  0.00     0.001 C 
BRANCH  40  41
ATOM     41  C38 UNL A   1      -5.805  -2.326  13.097  1.00  0.00     0.000 C 
BRANCH  41  42
ATOM     42  C39 UNL A   1      -5.145  -2.396  14.471  1.00  0.00     0.000 C 
BRANCH  42  43
ATOM     43  C40 UNL A   1      -6.148  -2.055  15.570  1.00  0.00     0.000 C 
BRANCH  43  44
ATOM     44  C41 UNL A   1      -5.531  -2.257  16.951  1.00  0.00     0.000 C 
BRANCH  44  45
ATOM     45  C42 UNL A   1      -5.696  -1.007  17.812  1.00  0.00     0.002 C 
BRANCH  45  46
ATOM     46  C43 UNL A   1      -6.894  -0.178  17.348  1.00  0.00     0.035 C 
BRANCH  46  47
ATOM     47  C44 UNL A   1      -7.043   1.085  18.190  1.00  0.00     0.242 C 
BRANCH  47  48
ATOM     48  N45 UNL A   1      -6.888   0.767  19.603  1.00  0.00     0.094 N 
ATOM     49  H49 UNL A   1      -5.915   0.523  19.792  1.00  0.00     0.314 HD
ATOM     50  H50 UNL A   1      -7.489  -0.022  19.842  1.00  0.00     0.314 HD
ENDBRANCH  47  48
ENDBRANCH  46  47
ENDBRANCH  45  46
ENDBRANCH  44  45
ENDBRANCH  43  44
ENDBRANCH  42  43
ENDBRANCH  41  42
ENDBRANCH  40  41
ENDBRANCH  39  40
ENDBRANCH  38  39
ENDBRANCH  36  38
ENDBRANCH  35  36
ENDBRANCH  34  35
ENDBRANCH  33  34
ENDBRANCH  32  33
ENDBRANCH   4  31
TORSDOF 20
BEGIN_RES SER A 173
REMARK  2 active torsions:
REMARK  status: ('A' for Active; 'I' for Inactive)
REMARK    1  A    between atoms: CA   and  CB  
REMARK    2  A    between atoms: CB   and  OG  
ROOT
ATOM      1  CA  SER A 173      -4.540 -11.597  11.543  1.00127.03     0.292 C 
ENDROOT
BRANCH   1   2
ATOM      2  CB  SER A 173      -4.003 -10.168  11.569  1.00131.20     0.194 C 
BRANCH   2   3
ATOM      3  OG  SER A 173      -3.923  -9.673  12.894  1.00137.49    -0.550 OA
ATOM      4  HG  SER A 173      -3.237 -10.110  13.385  1.00  0.00     0.310 HD
ENDBRANCH   2   3
ENDBRANCH   1   2
END_RES SER A 173
BEGIN_RES SER A 383
REMARK  2 active torsions:
REMARK  status: ('A' for Active; 'I' for Inactive)
REMARK    3  A    between atoms: CA   and  CB  
REMARK    4  A    between atoms: CB   and  OG  
ROOT
ATOM      5  CA  SER A 383      -8.934   0.934   8.031  1.00 88.23     0.292 C 
ENDROOT
BRANCH   5   6
ATOM      6  CB  SER A 383      -8.589   0.249   9.352  1.00 82.13     0.194 C 
BRANCH   6   7
ATOM      7  OG  SER A 383      -7.187   0.129   9.513  1.00 85.59    -0.550 OA
ATOM      8  HG  SER A 383      -6.927   0.336  10.403  1.00  0.00     0.310 HD
ENDBRANCH   6   7
ENDBRANCH   5   6
END_RES SER A 383
ENDMDL
MODEL 4
REMARK VINA RESULT:    -8.550     10.219     14.233
REMARK INTER + INTRA:         -10.756
REMARK INTER:                 -18.731
REMARK INTRA:                   7.975
REMARK UNBOUND:                 7.540
REMARK  20 active torsions:
REMARK  status: ('A' for Active; 'I' for Inactive)
REMARK    1  A    between atoms: C3_3  and  C4_4 
REMARK       I    between atoms: C4_4  and  N6_6 
REMARK    2  A    between atoms: N6_6  and  N7_7 
REMARK    3  A    between atoms: N14_14  and  C15_15 
REMARK    4  A    between atoms: C23_23  and  C24_24 
REMARK    5  A    between atoms: C27_27  and  C28_28 
REMARK    6  A    between atoms: C29_29  and  C30_30 
REMARK    7  A    between atoms: C30_30  and  C31_31 
REMARK    8  A    between atoms: C31_31  and  O32_32 
REMARK    9  A    between atoms: O32_32  and  C33_33 
REMARK   10  A    between atoms: C33_33  and  C35_35 
REMARK   11  A    between atoms: C35_35  and  C36_36 
REMARK   12  A    between atoms: C36_36  and  C37_37 
REMARK   13  A    between atoms: C37_37  and  C38_38 
REMARK   14  A    between atoms: C38_38  and  C39_39 
REMARK   15  A    between atoms: C39_39  and  C40_40 
REMARK   16  A    between atoms: C40_40  and  C41_41 
REMARK   17  A    between atoms: C41_41  and  C42_42 
REMARK   18  A    between atoms: C42_42  and  C43_43 
REMARK   19  A    between atoms: C43_43  and  C44_44 
REMARK   20  A    between atoms: C44_44  and  N45_45 
ROOT
ATOM      1  C24 UNL A   1     -15.888  -4.475  13.913  1.00  0.00     0.018 A 
ATOM      2  C25 UNL A   1     -14.798  -3.722  14.383  1.00  0.00     0.002 A 
ATOM      3  C26 UNL A   1     -13.539  -3.775  13.766  1.00  0.00     0.008 A 
ATOM      4  C27 UNL A   1     -13.307  -4.650  12.712  1.00  0.00     0.042 A 
ATOM      5  C46 UNL A   1     -14.354  -5.449  12.254  1.00  0.00     0.008 A 
ATOM      6  C47 UNL A   1     -15.632  -5.346  12.838  1.00  0.00     0.002 A 
ENDROOT
BRANCH   1   7
ATOM      7  C23 UNL A   1     -17.251  -4.342  14.512  1.00  0.00     0.081 A 
ATOM      8  C2  UNL A   1     -18.264  -3.412  14.228  1.00  0.00     0.020 A 
ATOM      9  C1  UNL A   1     -18.180  -2.295  13.239  1.00  0.00     0.034 C 
ATOM     10  C3  UNL A   1     -19.397  -3.789  15.023  1.00  0.00     0.155 A 
ATOM     11  N13 UNL A   1     -19.116  -4.893  15.730  1.00  0.00    -0.161 NA
ATOM     12  N14 UNL A   1     -17.833  -5.226  15.434  1.00  0.00    -0.229 N 
BRANCH  10  13
ATOM     13  C4  UNL A   1     -20.750  -3.154  15.142  1.00  0.00     0.287 C 
ATOM     14  O5  UNL A   1     -21.458  -3.297  16.136  1.00  0.00    -0.265 OA
ATOM     15  N6  UNL A   1     -21.115  -2.406  14.013  1.00  0.00    -0.282 N 
ATOM     16  H48 UNL A   1     -20.444  -2.322  13.297  1.00  0.00     0.184 HD
BRANCH  15  17
ATOM     17  N7  UNL A   1     -22.376  -1.750  13.801  1.00  0.00    -0.199 NA
ATOM     18  C8  UNL A   1     -22.253  -0.412  13.201  1.00  0.00     0.094 C 
ATOM     19  C9  UNL A   1     -23.608   0.308  13.122  1.00  0.00     0.019 C 
ATOM     20  C10 UNL A   1     -24.650  -0.533  12.393  1.00  0.00     0.003 C 
ATOM     21  C11 UNL A   1     -24.733  -1.918  13.021  1.00  0.00     0.019 C 
ATOM     22  C12 UNL A   1     -23.351  -2.588  13.090  1.00  0.00     0.094 C 
ENDBRANCH  15  17
ENDBRANCH  10  13
BRANCH  12  23
ATOM     23  C15 UNL A   1     -17.249  -6.334  16.125  1.00  0.00     0.093 A 
ATOM     24  C16 UNL A   1     -16.713  -6.146  17.415  1.00  0.00     0.021 A 
ATOM     25  C17 UNL A   1     -16.086  -7.199  18.087  1.00  0.00     0.013 A 
ATOM     26  C18 UNL A   1     -16.024  -8.457  17.497  1.00  0.00     0.059 A 
ATOM     27 CL19 UNL A   1     -15.258  -9.755  18.325  1.00  0.00    -0.082 Cl
ATOM     28  C20 UNL A   1     -16.569  -8.669  16.234  1.00  0.00     0.024 A 
ATOM     29  C21 UNL A   1     -17.178  -7.614  15.540  1.00  0.00     0.076 A 
ATOM     30 CL22 UNL A   1     -17.658  -7.976  13.914  1.00  0.00    -0.081 Cl
ENDBRANCH  12  23
ENDBRANCH   1   7
BRANCH   4  31
ATOM     31  C28 UNL A   1     -11.995  -4.737  12.138  1.00  0.00    -0.064 C 
ATOM     32  C29 UNL A   1     -10.931  -4.774  11.576  1.00  0.00    -0.084 C 
BRANCH  32  33
ATOM     33  C30 UNL A   1      -9.673  -4.758  10.810  1.00  0.00     0.109 C 
BRANCH  33  34
ATOM     34  C31 UNL A   1      -8.624  -3.877  11.496  1.00  0.00     0.166 C 
BRANCH  34  35
ATOM     35  O32 UNL A   1      -8.111  -2.873  10.601  1.00  0.00    -0.301 OA
BRANCH  35  36
ATOM     36  C33 UNL A   1      -7.491  -3.344   9.487  1.00  0.00     0.272 C 
ATOM     37  O34 UNL A   1      -7.908  -3.219   8.344  1.00  0.00    -0.264 OA
BRANCH  36  38
ATOM     38  C35 UNL A   1      -6.200  -4.038   9.839  1.00  0.00     0.096 C 
BRANCH  38  39
ATOM     39  C36 UNL A   1      -5.267  -4.180   8.642  1.00  0.00     0.010 C 
BRANCH  39  40
ATOM     40  C37 UNL A   1      -4.008  -3.323   8.781  1.00  0.00     0.001 C 
BRANCH  40  41
ATOM     41  C38 UNL A   1      -4.287  -2.085   9.630  1.00  0.00     0.000 C 
BRANCH  41  42
ATOM     42  C39 UNL A   1      -3.034  -1.225   9.770  1.00  0.00     0.000 C 
BRANCH  42  43
ATOM     43  C40 UNL A   1      -3.272   0.173   9.204  1.00  0.00     0.000 C 
BRANCH  43  44
ATOM     44  C41 UNL A   1      -2.065   1.073   9.451  1.00  0.00     0.000 C 
BRANCH  44  45
ATOM     45  C42 UNL A   1      -1.104   1.036   8.266  1.00  0.00     0.002 C 
BRANCH  45  46
ATOM     46  C43 UNL A   1       0.324   1.354   8.710  1.00  0.00     0.035 C 
BRANCH  46  47
ATOM     47  C44 UNL A   1       0.331   2.057  10.064  1.00  0.00     0.242 C 
BRANCH  47  48
ATOM     48  N45 UNL A   1       1.688   2.117  10.591  1.00  0.00     0.094 N 
ATOM     49  H49 UNL A   1       1.809   2.979  11.123  1.00  0.00     0.314 HD
ATOM     50  H50 UNL A   1       2.354   2.098   9.818  1.00  0.00     0.314 HD
ENDBRANCH  47  48
ENDBRANCH  46  47
ENDBRANCH  45  46
ENDBRANCH  44  45
ENDBRANCH  43  44
ENDBRANCH  42  43
ENDBRANCH  41  42
ENDBRANCH  40  41
ENDBRANCH  39  40
ENDBRANCH  38  39
ENDBRANCH  36  38
ENDBRANCH  35  36
ENDBRANCH  34  35
ENDBRANCH  33  34
ENDBRANCH  32  33
ENDBRANCH   4  31
TORSDOF 20
BEGIN_RES SER A 173
REMARK  2 active torsions:
REMARK  status: ('A' for Active; 'I' for Inactive)
REMARK    1  A    between atoms: CA   and  CB  
REMARK    2  A    between atoms: CB   and  OG  
ROOT
ATOM      1  CA  SER A 173      -4.540 -11.597  11.543  1.00127.03     0.292 C 
ENDROOT
BRANCH   1   2
ATOM      2  CB  SER A 173      -4.003 -10.168  11.569  1.00131.20     0.194 C 
BRANCH   2   3
ATOM      3  OG  SER A 173      -4.121  -9.598  12.861  1.00137.49    -0.550 OA
ATOM      4  HG  SER A 173      -3.520 -10.005  13.474  1.00  0.00     0.310 HD
ENDBRANCH   2   3
ENDBRANCH   1   2
END_RES SER A 173
BEGIN_RES SER A 383
REMARK  2 active torsions:
REMARK  status: ('A' for Active; 'I' for Inactive)
REMARK    3  A    between atoms: CA   and  CB  
REMARK    4  A    between atoms: CB   and  OG  
ROOT
ATOM      5  CA  SER A 383      -8.934   0.934   8.031  1.00 88.23     0.292 C 
ENDROOT
BRANCH   5   6
ATOM      6  CB  SER A 383      -8.589   0.249   9.352  1.00 82.13     0.194 C 
BRANCH   6   7
ATOM      7  OG  SER A 383      -7.311   0.647   9.814  1.00 85.59    -0.550 OA
ATOM      8  HG  SER A 383      -7.321   0.807  10.750  1.00  0.00     0.310 HD
ENDBRANCH   6   7
ENDBRANCH   5   6
END_RES SER A 383
ENDMDL
MODEL 5
REMARK VINA RESULT:    -8.460      4.000      4.565
REMARK INTER + INTRA:         -10.563
REMARK INTER:                 -18.152
REMARK INTRA:                   7.589
REMARK UNBOUND:                 7.540
REMARK  20 active torsions:
REMARK  status: ('A' for Active; 'I' for Inactive)
REMARK    1  A    between atoms: C3_3  and  C4_4 
REMARK       I    between atoms: C4_4  and  N6_6 
REMARK    2  A    between atoms: N6_6  and  N7_7 
REMARK    3  A    between atoms: N14_14  and  C15_15 
REMARK    4  A    between atoms: C23_23  and  C24_24 
REMARK    5  A    between atoms: C27_27  and  C28_28 
REMARK    6  A    between atoms: C29_29  and  C30_30 
REMARK    7  A    between atoms: C30_30  and  C31_31 
REMARK    8  A    between atoms: C31_31  and  O32_32 
REMARK    9  A    between atoms: O32_32  and  C33_33 
REMARK   10  A    between atoms: C33_33  and  C35_35 
REMARK   11  A    between atoms: C35_35  and  C36_36 
REMARK   12  A    between atoms: C36_36  and  C37_37 
REMARK   13  A    between atoms: C37_37  and  C38_38 
REMARK   14  A    between atoms: C38_38  and  C39_39 
REMARK   15  A    between atoms: C39_39  and  C40_40 
REMARK   16  A    between atoms: C40_40  and  C41_41 
REMARK   17  A    between atoms: C41_41  and  C42_42 
REMARK   18  A    between atoms: C42_42  and  C43_43 
REMARK   19  A    between atoms: C43_43  and  C44_44 
REMARK   20  A    between atoms: C44_44  and  N45_45 
ROOT
ATOM      1  C24 UNL A   1      -5.622  -0.470  20.512  1.00  0.00     0.018 A 
ATOM      2  C25 UNL A   1      -4.935  -1.514  19.868  1.00  0.00     0.002 A 
ATOM      3  C26 UNL A   1      -5.113  -1.788  18.504  1.00  0.00     0.008 A 
ATOM      4  C27 UNL A   1      -6.050  -1.083  17.759  1.00  0.00     0.042 A 
ATOM      5  C46 UNL A   1      -6.786  -0.074  18.381  1.00  0.00     0.008 A 
ATOM      6  C47 UNL A   1      -6.558   0.237  19.736  1.00  0.00     0.002 A 
ENDROOT
BRANCH   1   7
ATOM      7  C23 UNL A   1      -5.356  -0.119  21.941  1.00  0.00     0.081 A 
ATOM      8  C2  UNL A   1      -4.355   0.699  22.487  1.00  0.00     0.020 A 
ATOM      9  C1  UNL A   1      -3.282   1.405  21.724  1.00  0.00     0.034 C 
ATOM     10  C3  UNL A   1      -4.610   0.768  23.897  1.00  0.00     0.155 A 
ATOM     11  N13 UNL A   1      -5.710   0.063  24.200  1.00  0.00    -0.161 NA
ATOM     12  N14 UNL A   1      -6.158  -0.475  23.036  1.00  0.00    -0.229 N 
BRANCH  10  13
ATOM     13  C4  UNL A   1      -3.861   1.480  24.982  1.00  0.00     0.287 C 
ATOM     14  O5  UNL A   1      -4.406   2.277  25.743  1.00  0.00    -0.265 OA
ATOM     15  N6  UNL A   1      -2.497   1.154  25.024  1.00  0.00    -0.282 N 
ATOM     16  H48 UNL A   1      -2.184   0.464  24.395  1.00  0.00     0.184 HD
BRANCH  15  17
ATOM     17  N7  UNL A   1      -1.514   1.731  25.898  1.00  0.00    -0.199 NA
ATOM     18  C8  UNL A   1      -0.462   0.787  26.310  1.00  0.00     0.094 C 
ATOM     19  C9  UNL A   1       0.486   1.402  27.351  1.00  0.00     0.019 C 
ATOM     20  C10 UNL A   1       1.083   2.717  26.861  1.00  0.00     0.003 C 
ATOM     21  C11 UNL A   1      -0.029   3.659  26.417  1.00  0.00     0.019 C 
ATOM     22  C12 UNL A   1      -0.956   2.992  25.390  1.00  0.00     0.094 C 
ENDBRANCH  15  17
ENDBRANCH  10  13
BRANCH  12  23
ATOM     23  C15 UNL A   1      -7.288  -1.351  23.091  1.00  0.00     0.093 A 
ATOM     24  C16 UNL A   1      -8.586  -0.821  22.952  1.00  0.00     0.021 A 
ATOM     25  C17 UNL A   1      -9.709  -1.648  23.060  1.00  0.00     0.013 A 
ATOM     26  C18 UNL A   1      -9.545  -3.013  23.265  1.00  0.00     0.059 A 
ATOM     27 CL19 UNL A   1     -10.925  -4.031  23.392  1.00  0.00    -0.082 Cl
ATOM     28  C20 UNL A   1      -8.270  -3.559  23.380  1.00  0.00     0.024 A 
ATOM     29  C21 UNL A   1      -7.138  -2.736  23.300  1.00  0.00     0.076 A 
ATOM     30 CL22 UNL A   1      -5.628  -3.519  23.630  1.00  0.00    -0.081 Cl
ENDBRANCH  12  23
ENDBRANCH   1   7
BRANCH   4  31
ATOM     31  C28 UNL A   1      -6.265  -1.424  16.383  1.00  0.00    -0.064 C 
ATOM     32  C29 UNL A   1      -6.357  -1.747  15.226  1.00  0.00    -0.084 C 
BRANCH  32  33
ATOM     33  C30 UNL A   1      -6.380  -2.203  13.826  1.00  0.00     0.109 C 
BRANCH  33  34
ATOM     34  C31 UNL A   1      -5.143  -1.712  13.068  1.00  0.00     0.166 C 
BRANCH  34  35
ATOM     35  O32 UNL A   1      -5.458  -1.375  11.704  1.00  0.00    -0.301 OA
BRANCH  35  36
ATOM     36  C33 UNL A   1      -4.787  -2.082  10.758  1.00  0.00     0.272 C 
ATOM     37  O34 UNL A   1      -5.107  -3.188  10.345  1.00  0.00    -0.264 OA
BRANCH  36  38
ATOM     38  C35 UNL A   1      -3.587  -1.316  10.261  1.00  0.00     0.096 C 
BRANCH  38  39
ATOM     39  C36 UNL A   1      -3.967   0.012   9.616  1.00  0.00     0.010 C 
BRANCH  39  40
ATOM     40  C37 UNL A   1      -2.761   0.933   9.427  1.00  0.00     0.001 C 
BRANCH  40  41
ATOM     41  C38 UNL A   1      -1.746   0.307   8.474  1.00  0.00     0.000 C 
BRANCH  41  42
ATOM     42  C39 UNL A   1      -0.365   0.931   8.658  1.00  0.00     0.000 C 
BRANCH  42  43
ATOM     43  C40 UNL A   1      -0.333   1.815   9.901  1.00  0.00     0.000 C 
BRANCH  43  44
ATOM     44  C41 UNL A   1       1.024   2.499  10.049  1.00  0.00     0.000 C 
BRANCH  44  45
ATOM     45  C42 UNL A   1       1.668   2.151  11.388  1.00  0.00     0.002 C 
BRANCH  45  46
ATOM     46  C43 UNL A   1       3.190   2.262  11.308  1.00  0.00     0.035 C 
BRANCH  46  47
ATOM     47  C44 UNL A   1       3.859   1.360  12.341  1.00  0.00     0.242 C 
BRANCH  47  48
ATOM     48  N45 UNL A   1       4.728   0.397  11.678  1.00  0.00     0.094 N 
ATOM     49  H49 UNL A   1       4.934  -0.371  12.316  1.00  0.00     0.314 HD
ATOM     50  H50 UNL A   1       5.598   0.856  11.404  1.00  0.00     0.314 HD
ENDBRANCH  47  48
ENDBRANCH  46  47
ENDBRANCH  45  46
ENDBRANCH  44  45
ENDBRANCH  43  44
ENDBRANCH  42  43
ENDBRANCH  41  42
ENDBRANCH  40  41
ENDBRANCH  39  40
ENDBRANCH  38  39
ENDBRANCH  36  38
ENDBRANCH  35  36
ENDBRANCH  34  35
ENDBRANCH  33  34
ENDBRANCH  32  33
ENDBRANCH   4  31
TORSDOF 20
BEGIN_RES SER A 173
REMARK  2 active torsions:
REMARK  status: ('A' for Active; 'I' for Inactive)
REMARK    1  A    between atoms: CA   and  CB  
REMARK    2  A    between atoms: CB   and  OG  
ROOT
ATOM      1  CA  SER A 173      -4.540 -11.597  11.543  1.00127.03     0.292 C 
ENDROOT
BRANCH   1   2
ATOM      2  CB  SER A 173      -4.003 -10.168  11.569  1.00131.20     0.194 C 
BRANCH   2   3
ATOM      3  OG  SER A 173      -3.938  -9.667  12.893  1.00137.49    -0.550 OA
ATOM      4  HG  SER A 173      -3.433 -10.243  13.455  1.00  0.00     0.310 HD
ENDBRANCH   2   3
ENDBRANCH   1   2
END_RES SER A 173
BEGIN_RES SER A 383
REMARK  2 active torsions:
REMARK  status: ('A' for Active; 'I' for Inactive)
REMARK    3  A    between atoms: CA   and  CB  
REMARK    4  A    between atoms: CB   and  OG  
ROOT
ATOM      5  CA  SER A 383      -8.934   0.934   8.031  1.00 88.23     0.292 C 
ENDROOT
BRANCH   5   6
ATOM      6  CB  SER A 383      -8.589   0.249   9.352  1.00 82.13     0.194 C 
BRANCH   6   7
ATOM      7  OG  SER A 383      -7.187   0.142   9.520  1.00 85.59    -0.550 OA
ATOM      8  HG  SER A 383      -6.829   0.930   9.914  1.00  0.00     0.310 HD
ENDBRANCH   6   7
ENDBRANCH   5   6
END_RES SER A 383
ENDMDL
MODEL 6
REMARK VINA RESULT:    -8.454      8.191     13.571
REMARK INTER + INTRA:         -10.551
REMARK INTER:                 -18.522
REMARK INTRA:                   7.971
REMARK UNBOUND:                 7.540
REMARK  20 active torsions:
REMARK  status: ('A' for Active; 'I' for Inactive)
REMARK    1  A    between atoms: C3_3  and  C4_4 
REMARK       I    between atoms: C4_4  and  N6_6 
REMARK    2  A    between atoms: N6_6  and  N7_7 
REMARK    3  A    between atoms: N14_14  and  C15_15 
REMARK    4  A    between atoms: C23_23  and  C24_24 
REMARK    5  A    between atoms: C27_27  and  C28_28 
REMARK    6  A    between atoms: C29_29  and  C30_30 
REMARK    7  A    between atoms: C30_30  and  C31_31 
REMARK    8  A    between atoms: C31_31  and  O32_32 
REMARK    9  A    between atoms: O32_32  and  C33_33 
REMARK   10  A    between atoms: C33_33  and  C35_35 
REMARK   11  A    between atoms: C35_35  and  C36_36 
REMARK   12  A    between atoms: C36_36  and  C37_37 
REMARK   13  A    between atoms: C37_37  and  C38_38 
REMARK   14  A    between atoms: C38_38  and  C39_39 
REMARK   15  A    between atoms: C39_39  and  C40_40 
REMARK   16  A    between atoms: C40_40  and  C41_41 
REMARK   17  A    between atoms: C41_41  and  C42_42 
REMARK   18  A    between atoms: C42_42  and  C43_43 
REMARK   19  A    between atoms: C43_43  and  C44_44 
REMARK   20  A    between atoms: C44_44  and  N45_45 
ROOT
ATOM      1  C24 UNL A   1     -13.558  -3.919  12.921  1.00  0.00     0.018 A 
ATOM      2  C25 UNL A   1     -12.761  -2.797  12.635  1.00  0.00     0.002 A 
ATOM      3  C26 UNL A   1     -11.532  -2.911  11.968  1.00  0.00     0.008 A 
ATOM      4  C27 UNL A   1     -11.019  -4.161  11.644  1.00  0.00     0.042 A 
ATOM      5  C46 UNL A   1     -11.761  -5.298  11.960  1.00  0.00     0.008 A 
ATOM      6  C47 UNL A   1     -13.023  -5.173  12.575  1.00  0.00     0.002 A 
ENDROOT
BRANCH   1   7
ATOM      7  C23 UNL A   1     -14.910  -3.783  13.544  1.00  0.00     0.081 A 
ATOM      8  C2  UNL A   1     -16.063  -3.154  13.046  1.00  0.00     0.020 A 
ATOM      9  C1  UNL A   1     -16.178  -2.434  11.742  1.00  0.00     0.034 C 
ATOM     10  C3  UNL A   1     -17.103  -3.395  14.003  1.00  0.00     0.155 A 
ATOM     11  N13 UNL A   1     -16.637  -4.147  15.011  1.00  0.00    -0.161 NA
ATOM     12  N14 UNL A   1     -15.324  -4.377  14.746  1.00  0.00    -0.229 N 
BRANCH  10  13
ATOM     13  C4  UNL A   1     -18.535  -2.952  14.008  1.00  0.00     0.287 C 
ATOM     14  O5  UNL A   1     -19.445  -3.672  14.411  1.00  0.00    -0.265 OA
ATOM     15  N6  UNL A   1     -18.719  -1.657  13.500  1.00  0.00    -0.282 N 
ATOM     16  H48 UNL A   1     -17.908  -1.156  13.253  1.00  0.00     0.184 HD
BRANCH  15  17
ATOM     17  N7  UNL A   1     -19.977  -0.992  13.307  1.00  0.00    -0.199 NA
ATOM     18  C8  UNL A   1     -20.813  -1.601  12.259  1.00  0.00     0.094 C 
ATOM     19  C9  UNL A   1     -22.083  -0.780  11.988  1.00  0.00     0.019 C 
ATOM     20  C10 UNL A   1     -22.882  -0.541  13.265  1.00  0.00     0.003 C 
ATOM     21  C11 UNL A   1     -21.983   0.063  14.335  1.00  0.00     0.019 C 
ATOM     22  C12 UNL A   1     -20.721  -0.786  14.557  1.00  0.00     0.094 C 
ENDBRANCH  15  17
ENDBRANCH  10  13
BRANCH  12  23
ATOM     23  C15 UNL A   1     -14.558  -5.096  15.717  1.00  0.00     0.093 A 
ATOM     24  C16 UNL A   1     -13.411  -4.501  16.278  1.00  0.00     0.021 A 
ATOM     25  C17 UNL A   1     -12.613  -5.205  17.185  1.00  0.00     0.013 A 
ATOM     26  C18 UNL A   1     -12.976  -6.491  17.571  1.00  0.00     0.059 A 
ATOM     27 CL19 UNL A   1     -11.998  -7.355  18.692  1.00  0.00    -0.082 Cl
ATOM     28  C20 UNL A   1     -14.119  -7.087  17.047  1.00  0.00     0.024 A 
ATOM     29  C21 UNL A   1     -14.912  -6.400  16.117  1.00  0.00     0.076 A 
ATOM     30 CL22 UNL A   1     -16.204  -7.323  15.421  1.00  0.00    -0.081 Cl
ENDBRANCH  12  23
ENDBRANCH   1   7
BRANCH   4  31
ATOM     31  C28 UNL A   1      -9.730  -4.259  11.023  1.00  0.00    -0.064 C 
ATOM     32  C29 UNL A   1      -8.672  -4.267  10.447  1.00  0.00    -0.084 C 
BRANCH  32  33
ATOM     33  C30 UNL A   1      -7.405  -4.179   9.701  1.00  0.00     0.109 C 
BRANCH  33  34
ATOM     34  C31 UNL A   1      -7.513  -3.173   8.551  1.00  0.00     0.166 C 
BRANCH  34  35
ATOM     35  O32 UNL A   1      -6.539  -3.438   7.525  1.00  0.00    -0.301 OA
BRANCH  35  36
ATOM     36  C33 UNL A   1      -5.681  -2.419   7.256  1.00  0.00     0.272 C 
ATOM     37  O34 UNL A   1      -5.230  -2.152   6.151  1.00  0.00    -0.264 OA
BRANCH  36  38
ATOM     38  C35 UNL A   1      -5.359  -1.639   8.505  1.00  0.00     0.096 C 
BRANCH  38  39
ATOM     39  C36 UNL A   1      -4.225  -2.264   9.309  1.00  0.00     0.010 C 
BRANCH  39  40
ATOM     40  C37 UNL A   1      -4.161  -1.725  10.739  1.00  0.00     0.001 C 
BRANCH  40  41
ATOM     41  C38 UNL A   1      -5.433  -0.956  11.086  1.00  0.00     0.000 C 
BRANCH  41  42
ATOM     42  C39 UNL A   1      -6.289  -1.736  12.080  1.00  0.00     0.000 C 
BRANCH  42  43
ATOM     43  C40 UNL A   1      -5.413  -2.458  13.100  1.00  0.00     0.000 C 
BRANCH  43  44
ATOM     44  C41 UNL A   1      -5.442  -1.741  14.447  1.00  0.00     0.000 C 
BRANCH  44  45
ATOM     45  C42 UNL A   1      -4.505  -2.415  15.445  1.00  0.00     0.002 C 
BRANCH  45  46
ATOM     46  C43 UNL A   1      -4.714  -1.858  16.853  1.00  0.00     0.035 C 
BRANCH  46  47
ATOM     47  C44 UNL A   1      -6.179  -1.506  17.090  1.00  0.00     0.242 C 
BRANCH  47  48
ATOM     48  N45 UNL A   1      -6.282  -0.253  17.825  1.00  0.00     0.094 N 
ATOM     49  H49 UNL A   1      -5.369  -0.009  18.211  1.00  0.00     0.314 HD
ATOM     50  H50 UNL A   1      -6.956  -0.359  18.585  1.00  0.00     0.314 HD
ENDBRANCH  47  48
ENDBRANCH  46  47
ENDBRANCH  45  46
ENDBRANCH  44  45
ENDBRANCH  43  44
ENDBRANCH  42  43
ENDBRANCH  41  42
ENDBRANCH  40  41
ENDBRANCH  39  40
ENDBRANCH  38  39
ENDBRANCH  36  38
ENDBRANCH  35  36
ENDBRANCH  34  35
ENDBRANCH  33  34
ENDBRANCH  32  33
ENDBRANCH   4  31
TORSDOF 20
BEGIN_RES SER A 173
REMARK  2 active torsions:
REMARK  status: ('A' for Active; 'I' for Inactive)
REMARK    1  A    between atoms: CA   and  CB  
REMARK    2  A    between atoms: CB   and  OG  
ROOT
ATOM      1  CA  SER A 173      -4.540 -11.597  11.543  1.00127.03     0.292 C 
ENDROOT
BRANCH   1   2
ATOM      2  CB  SER A 173      -4.003 -10.168  11.569  1.00131.20     0.194 C 
BRANCH   2   3
ATOM      3  OG  SER A 173      -3.944  -9.665  12.892  1.00137.49    -0.550 OA
ATOM      4  HG  SER A 173      -3.358 -10.182  13.432  1.00  0.00     0.310 HD
ENDBRANCH   2   3
ENDBRANCH   1   2
END_RES SER A 173
BEGIN_RES SER A 383
REMARK  2 active torsions:
REMARK  status: ('A' for Active; 'I' for Inactive)
REMARK    3  A    between atoms: CA   and  CB  
REMARK    4  A    between atoms: CB   and  OG  
ROOT
ATOM      5  CA  SER A 383      -8.934   0.934   8.031  1.00 88.23     0.292 C 
ENDROOT
BRANCH   5   6
ATOM      6  CB  SER A 383      -8.589   0.249   9.352  1.00 82.13     0.194 C 
BRANCH   6   7
ATOM      7  OG  SER A 383      -8.063   1.176  10.284  1.00 85.59    -0.550 OA
ATOM      8  HG  SER A 383      -7.242   1.542   9.975  1.00  0.00     0.310 HD
ENDBRANCH   6   7
ENDBRANCH   5   6
END_RES SER A 383
ENDMDL
MODEL 7
REMARK VINA RESULT:    -8.412     10.155     13.954
REMARK INTER + INTRA:         -10.461
REMARK INTER:                 -18.458
REMARK INTRA:                   7.997
REMARK UNBOUND:                 7.540
REMARK  20 active torsions:
REMARK  status: ('A' for Active; 'I' for Inactive)
REMARK    1  A    between atoms: C3_3  and  C4_4 
REMARK       I    between atoms: C4_4  and  N6_6 
REMARK    2  A    between atoms: N6_6  and  N7_7 
REMARK    3  A    between atoms: N14_14  and  C15_15 
REMARK    4  A    between atoms: C23_23  and  C24_24 
REMARK    5  A    between atoms: C27_27  and  C28_28 
REMARK    6  A    between atoms: C29_29  and  C30_30 
REMARK    7  A    between atoms: C30_30  and  C31_31 
REMARK    8  A    between atoms: C31_31  and  O32_32 
REMARK    9  A    between atoms: O32_32  and  C33_33 
REMARK   10  A    between atoms: C33_33  and  C35_35 
REMARK   11  A    between atoms: C35_35  and  C36_36 
REMARK   12  A    between atoms: C36_36  and  C37_37 
REMARK   13  A    between atoms: C37_37  and  C38_38 
REMARK   14  A    between atoms: C38_38  and  C39_39 
REMARK   15  A    between atoms: C39_39  and  C40_40 
REMARK   16  A    between atoms: C40_40  and  C41_41 
REMARK   17  A    between atoms: C41_41  and  C42_42 
REMARK   18  A    between atoms: C42_42  and  C43_43 
REMARK   19  A    between atoms: C43_43  and  C44_44 
REMARK   20  A    between atoms: C44_44  and  N45_45 
ROOT
ATOM      1  C24 UNL A   1     -15.823  -4.112  13.677  1.00  0.00     0.018 A 
ATOM      2  C25 UNL A   1     -14.790  -3.353  14.254  1.00  0.00     0.002 A 
ATOM      3  C26 UNL A   1     -13.487  -3.357  13.733  1.00  0.00     0.008 A 
ATOM      4  C27 UNL A   1     -13.155  -4.189  12.672  1.00  0.00     0.042 A 
ATOM      5  C46 UNL A   1     -14.145  -4.995  12.109  1.00  0.00     0.008 A 
ATOM      6  C47 UNL A   1     -15.466  -4.939  12.597  1.00  0.00     0.002 A 
ENDROOT
BRANCH   1   7
ATOM      7  C23 UNL A   1     -17.231  -4.030  14.175  1.00  0.00     0.081 A 
ATOM      8  C2  UNL A   1     -18.252  -3.136  13.817  1.00  0.00     0.020 A 
ATOM      9  C1  UNL A   1     -18.136  -2.014  12.837  1.00  0.00     0.034 C 
ATOM     10  C3  UNL A   1     -19.426  -3.555  14.526  1.00  0.00     0.155 A 
ATOM     11  N13 UNL A   1     -19.159  -4.651  15.252  1.00  0.00    -0.161 NA
ATOM     12  N14 UNL A   1     -17.846  -4.936  15.052  1.00  0.00    -0.229 N 
BRANCH  10  13
ATOM     13  C4  UNL A   1     -20.806  -2.969  14.546  1.00  0.00     0.287 C 
ATOM     14  O5  UNL A   1     -21.509  -2.976  15.554  1.00  0.00    -0.265 OA
ATOM     15  N6  UNL A   1     -21.202  -2.436  13.310  1.00  0.00    -0.282 N 
ATOM     16  H48 UNL A   1     -20.534  -2.444  12.587  1.00  0.00     0.184 HD
BRANCH  15  17
ATOM     17  N7  UNL A   1     -22.490  -1.881  12.999  1.00  0.00    -0.199 NA
ATOM     18  C8  UNL A   1     -23.616  -2.747  13.385  1.00  0.00     0.094 C 
ATOM     19  C9  UNL A   1     -24.964  -2.182  12.910  1.00  0.00     0.019 C 
ATOM     20  C10 UNL A   1     -25.175  -0.752  13.393  1.00  0.00     0.003 C 
ATOM     21  C11 UNL A   1     -23.982   0.111  13.002  1.00  0.00     0.019 C 
ATOM     22  C12 UNL A   1     -22.659  -0.505  13.486  1.00  0.00     0.094 C 
ENDBRANCH  15  17
ENDBRANCH  10  13
BRANCH  12  23
ATOM     23  C15 UNL A   1     -17.275  -6.025  15.784  1.00  0.00     0.093 A 
ATOM     24  C16 UNL A   1     -16.686  -5.786  17.041  1.00  0.00     0.021 A 
ATOM     25  C17 UNL A   1     -16.070  -6.822  17.749  1.00  0.00     0.013 A 
ATOM     26  C18 UNL A   1     -16.074  -8.111  17.229  1.00  0.00     0.059 A 
ATOM     27 CL19 UNL A   1     -15.322  -9.388  18.103  1.00  0.00    -0.082 Cl
ATOM     28  C20 UNL A   1     -16.672  -8.373  16.001  1.00  0.00     0.024 A 
ATOM     29  C21 UNL A   1     -17.270  -7.337  15.270  1.00  0.00     0.076 A 
ATOM     30 CL22 UNL A   1     -17.822  -7.771  13.685  1.00  0.00    -0.081 Cl
ENDBRANCH  12  23
ENDBRANCH   1   7
BRANCH   4  31
ATOM     31  C28 UNL A   1     -11.802  -4.228  12.198  1.00  0.00    -0.064 C 
ATOM     32  C29 UNL A   1     -10.688  -4.189  11.740  1.00  0.00    -0.084 C 
BRANCH  32  33
ATOM     33  C30 UNL A   1      -9.354  -4.047  11.133  1.00  0.00     0.109 C 
BRANCH  33  34
ATOM     34  C31 UNL A   1      -8.432  -3.209  12.024  1.00  0.00     0.166 C 
BRANCH  34  35
ATOM     35  O32 UNL A   1      -7.469  -2.476  11.245  1.00  0.00    -0.301 OA
BRANCH  35  36
ATOM     36  C33 UNL A   1      -6.179  -2.886  11.374  1.00  0.00     0.272 C 
ATOM     37  O34 UNL A   1      -5.657  -3.249  12.418  1.00  0.00    -0.264 OA
BRANCH  36  38
ATOM     38  C35 UNL A   1      -5.465  -2.848  10.046  1.00  0.00     0.096 C 
BRANCH  38  39
ATOM     39  C36 UNL A   1      -5.642  -4.136   9.251  1.00  0.00     0.010 C 
BRANCH  39  40
ATOM     40  C37 UNL A   1      -4.357  -4.560   8.537  1.00  0.00     0.001 C 
BRANCH  40  41
ATOM     41  C38 UNL A   1      -4.671  -5.186   7.181  1.00  0.00     0.000 C 
BRANCH  41  42
ATOM     42  C39 UNL A   1      -5.293  -4.162   6.236  1.00  0.00     0.000 C 
BRANCH  42  43
ATOM     43  C40 UNL A   1      -5.490  -4.759   4.846  1.00  0.00     0.000 C 
BRANCH  43  44
ATOM     44  C41 UNL A   1      -4.615  -4.046   3.818  1.00  0.00     0.000 C 
BRANCH  44  45
ATOM     45  C42 UNL A   1      -3.233  -3.746   4.390  1.00  0.00     0.002 C 
BRANCH  45  46
ATOM     46  C43 UNL A   1      -2.301  -3.197   3.311  1.00  0.00     0.035 C 
BRANCH  46  47
ATOM     47  C44 UNL A   1      -2.918  -3.354   1.925  1.00  0.00     0.242 C 
BRANCH  47  48
ATOM     48  N45 UNL A   1      -2.436  -2.304   1.038  1.00  0.00     0.094 N 
ATOM     49  H49 UNL A   1      -3.226  -1.752   0.703  1.00  0.00     0.314 HD
ATOM     50  H50 UNL A   1      -1.952  -2.724   0.244  1.00  0.00     0.314 HD
ENDBRANCH  47  48
ENDBRANCH  46  47
ENDBRANCH  45  46
ENDBRANCH  44  45
ENDBRANCH  43  44
ENDBRANCH  42  43
ENDBRANCH  41  42
ENDBRANCH  40  41
ENDBRANCH  39  40
ENDBRANCH  38  39
ENDBRANCH  36  38
ENDBRANCH  35  36
ENDBRANCH  34  35
ENDBRANCH  33  34
ENDBRANCH  32  33
ENDBRANCH   4  31
TORSDOF 20
BEGIN_RES SER A 173
REMARK  2 active torsions:
REMARK  status: ('A' for Active; 'I' for Inactive)
REMARK    1  A    between atoms: CA   and  CB  
REMARK    2  A    between atoms: CB   and  OG  
ROOT
ATOM      1  CA  SER A 173      -4.540 -11.597  11.543  1.00127.03     0.292 C 
ENDROOT
BRANCH   1   2
ATOM      2  CB  SER A 173      -4.003 -10.168  11.569  1.00131.20     0.194 C 
BRANCH   2   3
ATOM      3  OG  SER A 173      -3.959  -9.659  12.891  1.00137.49    -0.550 OA
ATOM      4  HG  SER A 173      -4.510 -10.167  13.474  1.00  0.00     0.310 HD
ENDBRANCH   2   3
ENDBRANCH   1   2
END_RES SER A 173
BEGIN_RES SER A 383
REMARK  2 active torsions:
REMARK  status: ('A' for Active; 'I' for Inactive)
REMARK    3  A    between atoms: CA   and  CB  
REMARK    4  A    between atoms: CB   and  OG  
ROOT
ATOM      5  CA  SER A 383      -8.934   0.934   8.031  1.00 88.23     0.292 C 
ENDROOT
BRANCH   5   6
ATOM      6  CB  SER A 383      -8.589   0.249   9.352  1.00 82.13     0.194 C 
BRANCH   6   7
ATOM      7  OG  SER A 383      -7.188   0.112   9.504  1.00 85.59    -0.550 OA
ATOM      8  HG  SER A 383      -6.922  -0.797   9.418  1.00  0.00     0.310 HD
ENDBRANCH   6   7
ENDBRANCH   5   6
END_RES SER A 383
ENDMDL
MODEL 8
REMARK VINA RESULT:    -8.360      1.726      2.100
REMARK INTER + INTRA:         -10.350
REMARK INTER:                 -17.873
REMARK INTRA:                   7.523
REMARK UNBOUND:                 7.540
REMARK  20 active torsions:
REMARK  status: ('A' for Active; 'I' for Inactive)
REMARK    1  A    between atoms: C3_3  and  C4_4 
REMARK       I    between atoms: C4_4  and  N6_6 
REMARK    2  A    between atoms: N6_6  and  N7_7 
REMARK    3  A    between atoms: N14_14  and  C15_15 
REMARK    4  A    between atoms: C23_23  and  C24_24 
REMARK    5  A    between atoms: C27_27  and  C28_28 
REMARK    6  A    between atoms: C29_29  and  C30_30 
REMARK    7  A    between atoms: C30_30  and  C31_31 
REMARK    8  A    between atoms: C31_31  and  O32_32 
REMARK    9  A    between atoms: O32_32  and  C33_33 
REMARK   10  A    between atoms: C33_33  and  C35_35 
REMARK   11  A    between atoms: C35_35  and  C36_36 
REMARK   12  A    between atoms: C36_36  and  C37_37 
REMARK   13  A    between atoms: C37_37  and  C38_38 
REMARK   14  A    between atoms: C38_38  and  C39_39 
REMARK   15  A    between atoms: C39_39  and  C40_40 
REMARK   16  A    between atoms: C40_40  and  C41_41 
REMARK   17  A    between atoms: C41_41  and  C42_42 
REMARK   18  A    between atoms: C42_42  and  C43_43 
REMARK   19  A    between atoms: C43_43  and  C44_44 
REMARK   20  A    between atoms: C44_44  and  N45_45 
ROOT
ATOM      1  C24 UNL A   1      -5.571  -0.533  20.360  1.00  0.00     0.018 A 
ATOM      2  C25 UNL A   1      -4.897  -1.600  19.741  1.00  0.00     0.002 A 
ATOM      3  C26 UNL A   1      -5.083  -1.907  18.385  1.00  0.00     0.008 A 
ATOM      4  C27 UNL A   1      -6.015  -1.211  17.625  1.00  0.00     0.042 A 
ATOM      5  C46 UNL A   1      -6.738  -0.179  18.223  1.00  0.00     0.008 A 
ATOM      6  C47 UNL A   1      -6.502   0.164  19.569  1.00  0.00     0.002 A 
ENDROOT
BRANCH   1   7
ATOM      7  C23 UNL A   1      -5.298  -0.149  21.779  1.00  0.00     0.081 A 
ATOM      8  C2  UNL A   1      -4.316   0.711  22.297  1.00  0.00     0.020 A 
ATOM      9  C1  UNL A   1      -3.277   1.437  21.506  1.00  0.00     0.034 C 
ATOM     10  C3  UNL A   1      -4.554   0.796  23.709  1.00  0.00     0.155 A 
ATOM     11  N13 UNL A   1      -5.627   0.063  24.040  1.00  0.00    -0.161 NA
ATOM     12  N14 UNL A   1      -6.073  -0.510  22.891  1.00  0.00    -0.229 N 
BRANCH  10  13
ATOM     13  C4  UNL A   1      -3.814   1.551  24.771  1.00  0.00     0.287 C 
ATOM     14  O5  UNL A   1      -3.296   0.993  25.736  1.00  0.00    -0.265 OA
ATOM     15  N6  UNL A   1      -3.790   2.938  24.554  1.00  0.00    -0.282 N 
ATOM     16  H48 UNL A   1      -4.197   3.265  23.720  1.00  0.00     0.184 HD
BRANCH  15  17
ATOM     17  N7  UNL A   1      -3.229   3.924  25.435  1.00  0.00    -0.199 NA
ATOM     18  C8  UNL A   1      -2.608   5.059  24.733  1.00  0.00     0.094 C 
ATOM     19  C9  UNL A   1      -1.899   6.017  25.703  1.00  0.00     0.019 C 
ATOM     20  C10 UNL A   1      -2.836   6.494  26.807  1.00  0.00     0.003 C 
ATOM     21  C11 UNL A   1      -3.481   5.297  27.495  1.00  0.00     0.019 C 
ATOM     22  C12 UNL A   1      -4.162   4.365  26.481  1.00  0.00     0.094 C 
ENDBRANCH  15  17
ENDBRANCH  10  13
BRANCH  12  23
ATOM     23  C15 UNL A   1      -7.173  -1.421  22.977  1.00  0.00     0.093 A 
ATOM     24  C16 UNL A   1      -8.462  -0.991  22.605  1.00  0.00     0.021 A 
ATOM     25  C17 UNL A   1      -9.563  -1.843  22.735  1.00  0.00     0.013 A 
ATOM     26  C18 UNL A   1      -9.381  -3.142  23.197  1.00  0.00     0.059 A 
ATOM     27 CL19 UNL A   1     -10.734  -4.193  23.350  1.00  0.00    -0.082 Cl
ATOM     28  C20 UNL A   1      -8.112  -3.593  23.546  1.00  0.00     0.024 A 
ATOM     29  C21 UNL A   1      -7.005  -2.739  23.445  1.00  0.00     0.076 A 
ATOM     30 CL22 UNL A   1      -5.520  -3.374  24.074  1.00  0.00    -0.081 Cl
ENDBRANCH  12  23
ENDBRANCH   1   7
BRANCH   4  31
ATOM     31  C28 UNL A   1      -6.237  -1.585  16.258  1.00  0.00    -0.064 C 
ATOM     32  C29 UNL A   1      -6.498  -1.836  15.110  1.00  0.00    -0.084 C 
BRANCH  32  33
ATOM     33  C30 UNL A   1      -6.882  -2.057  13.705  1.00  0.00     0.109 C 
BRANCH  33  34
ATOM     34  C31 UNL A   1      -5.875  -2.968  12.997  1.00  0.00     0.166 C 
BRANCH  34  35
ATOM     35  O32 UNL A   1      -4.705  -2.239  12.581  1.00  0.00    -0.301 OA
BRANCH  35  36
ATOM     36  C33 UNL A   1      -4.781  -1.665  11.352  1.00  0.00     0.272 C 
ATOM     37  O34 UNL A   1      -5.136  -0.514  11.133  1.00  0.00    -0.264 OA
BRANCH  36  38
ATOM     38  C35 UNL A   1      -4.356  -2.631  10.275  1.00  0.00     0.096 C 
BRANCH  38  39
ATOM     39  C36 UNL A   1      -4.161  -1.952   8.924  1.00  0.00     0.010 C 
BRANCH  39  40
ATOM     40  C37 UNL A   1      -5.180  -2.423   7.885  1.00  0.00     0.001 C 
BRANCH  40  41
ATOM     41  C38 UNL A   1      -5.720  -3.805   8.243  1.00  0.00     0.000 C 
BRANCH  41  42
ATOM     42  C39 UNL A   1      -4.833  -4.905   7.668  1.00  0.00     0.000 C 
BRANCH  42  43
ATOM     43  C40 UNL A   1      -4.288  -4.501   6.301  1.00  0.00     0.000 C 
BRANCH  43  44
ATOM     44  C41 UNL A   1      -5.339  -4.706   5.213  1.00  0.00     0.000 C 
BRANCH  44  45
ATOM     45  C42 UNL A   1      -5.320  -3.556   4.210  1.00  0.00     0.002 C 
BRANCH  45  46
ATOM     46  C43 UNL A   1      -4.691  -3.992   2.888  1.00  0.00     0.035 C 
BRANCH  46  47
ATOM     47  C44 UNL A   1      -3.396  -3.231   2.621  1.00  0.00     0.242 C 
BRANCH  47  48
ATOM     48  N45 UNL A   1      -2.691  -3.821   1.491  1.00  0.00     0.094 N 
ATOM     49  H49 UNL A   1      -2.014  -4.505   1.832  1.00  0.00     0.314 HD
ATOM     50  H50 UNL A   1      -2.204  -3.088   0.975  1.00  0.00     0.314 HD
ENDBRANCH  47  48
ENDBRANCH  46  47
ENDBRANCH  45  46
ENDBRANCH  44  45
ENDBRANCH  43  44
ENDBRANCH  42  43
ENDBRANCH  41  42
ENDBRANCH  40  41
ENDBRANCH  39  40
ENDBRANCH  38  39
ENDBRANCH  36  38
ENDBRANCH  35  36
ENDBRANCH  34  35
ENDBRANCH  33  34
ENDBRANCH  32  33
ENDBRANCH   4  31
TORSDOF 20
BEGIN_RES SER A 173
REMARK  2 active torsions:
REMARK  status: ('A' for Active; 'I' for Inactive)
REMARK    1  A    between atoms: CA   and  CB  
REMARK    2  A    between atoms: CB   and  OG  
ROOT
ATOM      1  CA  SER A 173      -4.540 -11.597  11.543  1.00127.03     0.292 C 
ENDROOT
BRANCH   1   2
ATOM      2  CB  SER A 173      -4.003 -10.168  11.569  1.00131.20     0.194 C 
BRANCH   2   3
ATOM      3  OG  SER A 173      -3.938  -9.667  12.893  1.00137.49    -0.550 OA
ATOM      4  HG  SER A 173      -3.106  -9.877  13.301  1.00  0.00     0.310 HD
ENDBRANCH   2   3
ENDBRANCH   1   2
END_RES SER A 173
BEGIN_RES SER A 383
REMARK  2 active torsions:
REMARK  status: ('A' for Active; 'I' for Inactive)
REMARK    3  A    between atoms: CA   and  CB  
REMARK    4  A    between atoms: CB   and  OG  
ROOT
ATOM      5  CA  SER A 383      -8.934   0.934   8.031  1.00 88.23     0.292 C 
ENDROOT
BRANCH   5   6
ATOM      6  CB  SER A 383      -8.589   0.249   9.352  1.00 82.13     0.194 C 
BRANCH   6   7
ATOM      7  OG  SER A 383      -7.190   0.076   9.486  1.00 85.59    -0.550 OA
ATOM      8  HG  SER A 383      -6.716   0.731   8.986  1.00  0.00     0.310 HD
ENDBRANCH   6   7
ENDBRANCH   5   6
END_RES SER A 383
ENDMDL
MODEL 9
REMARK VINA RESULT:    -8.258      2.243      2.752
REMARK INTER + INTRA:         -10.131
REMARK INTER:                 -17.832
REMARK INTRA:                   7.701
REMARK UNBOUND:                 7.540
REMARK  20 active torsions:
REMARK  status: ('A' for Active; 'I' for Inactive)
REMARK    1  A    between atoms: C3_3  and  C4_4 
REMARK       I    between atoms: C4_4  and  N6_6 
REMARK    2  A    between atoms: N6_6  and  N7_7 
REMARK    3  A    between atoms: N14_14  and  C15_15 
REMARK    4  A    between atoms: C23_23  and  C24_24 
REMARK    5  A    between atoms: C27_27  and  C28_28 
REMARK    6  A    between atoms: C29_29  and  C30_30 
REMARK    7  A    between atoms: C30_30  and  C31_31 
REMARK    8  A    between atoms: C31_31  and  O32_32 
REMARK    9  A    between atoms: O32_32  and  C33_33 
REMARK   10  A    between atoms: C33_33  and  C35_35 
REMARK   11  A    between atoms: C35_35  and  C36_36 
REMARK   12  A    between atoms: C36_36  and  C37_37 
REMARK   13  A    between atoms: C37_37  and  C38_38 
REMARK   14  A    between atoms: C38_38  and  C39_39 
REMARK   15  A    between atoms: C39_39  and  C40_40 
REMARK   16  A    between atoms: C40_40  and  C41_41 
REMARK   17  A    between atoms: C41_41  and  C42_42 
REMARK   18  A    between atoms: C42_42  and  C43_43 
REMARK   19  A    between atoms: C43_43  and  C44_44 
REMARK   20  A    between atoms: C44_44  and  N45_45 
ROOT
ATOM      1  C24 UNL A   1      -5.583  -0.569  20.377  1.00  0.00     0.018 A 
ATOM      2  C25 UNL A   1      -4.887  -1.624  19.760  1.00  0.00     0.002 A 
ATOM      3  C26 UNL A   1      -5.055  -1.929  18.401  1.00  0.00     0.008 A 
ATOM      4  C27 UNL A   1      -5.990  -1.244  17.635  1.00  0.00     0.042 A 
ATOM      5  C46 UNL A   1      -6.734  -0.224  18.229  1.00  0.00     0.008 A 
ATOM      6  C47 UNL A   1      -6.516   0.117  19.579  1.00  0.00     0.002 A 
ENDROOT
BRANCH   1   7
ATOM      7  C23 UNL A   1      -5.329  -0.186  21.799  1.00  0.00     0.081 A 
ATOM      8  C2  UNL A   1      -4.350   0.667  22.332  1.00  0.00     0.020 A 
ATOM      9  C1  UNL A   1      -3.293   1.385  21.558  1.00  0.00     0.034 C 
ATOM     10  C3  UNL A   1      -4.609   0.754  23.740  1.00  0.00     0.155 A 
ATOM     11  N13 UNL A   1      -5.692   0.029  24.055  1.00  0.00    -0.161 NA
ATOM     12  N14 UNL A   1      -6.124  -0.541  22.900  1.00  0.00    -0.229 N 
BRANCH  10  13
ATOM     13  C4  UNL A   1      -3.880   1.505  24.814  1.00  0.00     0.287 C 
ATOM     14  O5  UNL A   1      -4.398   2.427  25.439  1.00  0.00    -0.265 OA
ATOM     15  N6  UNL A   1      -2.566   1.055  25.013  1.00  0.00    -0.282 N 
ATOM     16  H48 UNL A   1      -2.277   0.274  24.487  1.00  0.00     0.184 HD
BRANCH  15  17
ATOM     17  N7  UNL A   1      -1.602   1.625  25.912  1.00  0.00    -0.199 NA
ATOM     18  C8  UNL A   1      -0.698   0.634  26.518  1.00  0.00     0.094 C 
ATOM     19  C9  UNL A   1       0.221   1.265  27.575  1.00  0.00     0.019 C 
ATOM     20  C10 UNL A   1       0.998   2.449  27.009  1.00  0.00     0.003 C 
ATOM     21  C11 UNL A   1       0.038   3.441  26.367  1.00  0.00     0.019 C 
ATOM     22  C12 UNL A   1      -0.868   2.759  25.330  1.00  0.00     0.094 C 
ENDBRANCH  15  17
ENDBRANCH  10  13
BRANCH  12  23
ATOM     23  C15 UNL A   1      -7.232  -1.444  22.968  1.00  0.00     0.093 A 
ATOM     24  C16 UNL A   1      -8.508  -1.012  22.555  1.00  0.00     0.021 A 
ATOM     25  C17 UNL A   1      -9.618  -1.855  22.667  1.00  0.00     0.013 A 
ATOM     26  C18 UNL A   1      -9.457  -3.148  23.152  1.00  0.00     0.059 A 
ATOM     27 CL19 UNL A   1     -10.820  -4.188  23.284  1.00  0.00    -0.082 Cl
ATOM     28  C20 UNL A   1      -8.201  -3.602  23.542  1.00  0.00     0.024 A 
ATOM     29  C21 UNL A   1      -7.086  -2.756  23.459  1.00  0.00     0.076 A 
ATOM     30 CL22 UNL A   1      -5.622  -3.391  24.136  1.00  0.00    -0.081 Cl
ENDBRANCH  12  23
ENDBRANCH   1   7
BRANCH   4  31
ATOM     31  C28 UNL A   1      -6.193  -1.615  16.265  1.00  0.00    -0.064 C 
ATOM     32  C29 UNL A   1      -6.269  -1.920  15.102  1.00  0.00    -0.084 C 
BRANCH  32  33
ATOM     33  C30 UNL A   1      -6.254  -2.305  13.680  1.00  0.00     0.109 C 
BRANCH  33  34
ATOM     34  C31 UNL A   1      -7.604  -2.015  13.019  1.00  0.00     0.166 C 
BRANCH  34  35
ATOM     35  O32 UNL A   1      -7.507  -2.050  11.583  1.00  0.00    -0.301 OA
BRANCH  35  36
ATOM     36  C33 UNL A   1      -7.926  -3.202  10.996  1.00  0.00     0.272 C 
ATOM     37  O34 UNL A   1      -8.567  -4.083  11.552  1.00  0.00    -0.264 OA
BRANCH  36  38
ATOM     38  C35 UNL A   1      -7.508  -3.254   9.549  1.00  0.00     0.096 C 
BRANCH  38  39
ATOM     39  C36 UNL A   1      -6.044  -3.643   9.377  1.00  0.00     0.010 C 
BRANCH  39  40
ATOM     40  C37 UNL A   1      -5.621  -3.682   7.908  1.00  0.00     0.001 C 
BRANCH  40  41
ATOM     41  C38 UNL A   1      -4.581  -2.603   7.614  1.00  0.00     0.000 C 
BRANCH  41  42
ATOM     42  C39 UNL A   1      -5.216  -1.216   7.620  1.00  0.00     0.000 C 
BRANCH  42  43
ATOM     43  C40 UNL A   1      -4.159  -0.139   7.852  1.00  0.00     0.000 C 
BRANCH  43  44
ATOM     44  C41 UNL A   1      -3.884   0.041   9.343  1.00  0.00     0.000 C 
BRANCH  44  45
ATOM     45  C42 UNL A   1      -2.402  -0.151   9.652  1.00  0.00     0.002 C 
BRANCH  45  46
ATOM     46  C43 UNL A   1      -1.532   0.626   8.666  1.00  0.00     0.035 C 
BRANCH  46  47
ATOM     47  C44 UNL A   1      -0.449   1.415   9.396  1.00  0.00     0.242 C 
BRANCH  47  48
ATOM     48  N45 UNL A   1       0.608   1.794   8.468  1.00  0.00     0.094 N 
ATOM     49  H49 UNL A   1       0.419   1.386   7.552  1.00  0.00     0.314 HD
ATOM     50  H50 UNL A   1       1.504   1.450   8.815  1.00  0.00     0.314 HD
ENDBRANCH  47  48
ENDBRANCH  46  47
ENDBRANCH  45  46
ENDBRANCH  44  45
ENDBRANCH  43  44
ENDBRANCH  42  43
ENDBRANCH  41  42
ENDBRANCH  40  41
ENDBRANCH  39  40
ENDBRANCH  38  39
ENDBRANCH  36  38
ENDBRANCH  35  36
ENDBRANCH  34  35
ENDBRANCH  33  34
ENDBRANCH  32  33
ENDBRANCH   4  31
TORSDOF 20
BEGIN_RES SER A 173
REMARK  2 active torsions:
REMARK  status: ('A' for Active; 'I' for Inactive)
REMARK    1  A    between atoms: CA   and  CB  
REMARK    2  A    between atoms: CB   and  OG  
ROOT
ATOM      1  CA  SER A 173      -4.540 -11.597  11.543  1.00127.03     0.292 C 
ENDROOT
BRANCH   1   2
ATOM      2  CB  SER A 173      -4.003 -10.168  11.569  1.00131.20     0.194 C 
BRANCH   2   3
ATOM      3  OG  SER A 173      -2.660 -10.115  11.119  1.00137.49    -0.550 OA
ATOM      4  HG  SER A 173      -2.611 -10.194  10.173  1.00  0.00     0.310 HD
ENDBRANCH   2   3
ENDBRANCH   1   2
END_RES SER A 173
BEGIN_RES SER A 383
REMARK  2 active torsions:
REMARK  status: ('A' for Active; 'I' for Inactive)
REMARK    3  A    between atoms: CA   and  CB  
REMARK    4  A    between atoms: CB   and  OG  
ROOT
ATOM      5  CA  SER A 383      -8.934   0.934   8.031  1.00 88.23     0.292 C 
ENDROOT
BRANCH   5   6
ATOM      6  CB  SER A 383      -8.589   0.249   9.352  1.00 82.13     0.194 C 
BRANCH   6   7
ATOM      7  OG  SER A 383      -7.241   0.487   9.713  1.00 85.59    -0.550 OA
ATOM      8  HG  SER A 383      -6.753  -0.327   9.768  1.00  0.00     0.310 HD
ENDBRANCH   6   7
ENDBRANCH   5   6
END_RES SER A 383
ENDMDL
