MODEL 1
REMARK VINA RESULT:   -11.614      0.000      0.000
REMARK INTER + INTRA:          -5.985
REMARK INTER:                 -14.330
REMARK INTRA:                   8.345
REMARK UNBOUND:                 8.345
REMARK  4 active torsions:
REMARK  status: ('A' for Active; 'I' for Inactive)
REMARK    1  A    between atoms: C8_8  and  C9_9 
REMARK    2  A    between atoms: C12_12  and  C13_13 
REMARK       I    between atoms: C13_13  and  N15_15 
REMARK    3  A    between atoms: N15_15  and  N16_16 
REMARK    4  A    between atoms: N23_23  and  C24_24 
ROOT
ATOM      1  C9  UNL A   1      -5.842  -2.368   9.589  1.00  0.00     0.080 A 
ATOM      2  C10 UNL A   1      -6.767  -2.429  10.642  1.00  0.00     0.020 A 
ATOM      3  C11 UNL A   1      -6.825  -1.648  11.913  1.00  0.00     0.034 C 
ATOM      4  C12 UNL A   1      -7.683  -3.462  10.301  1.00  0.00     0.155 A 
ATOM      5  N22 UNL A   1      -7.402  -3.967   9.099  1.00  0.00    -0.161 NA
ATOM      6  N23 UNL A   1      -6.302  -3.309   8.651  1.00  0.00    -0.229 N 
ENDROOT
BRANCH   4   7
ATOM      7  C13 UNL A   1      -8.822  -3.992  11.107  1.00  0.00     0.287 C 
ATOM      8  O14 UNL A   1      -8.709  -4.290  12.295  1.00  0.00    -0.265 OA
ATOM      9  N15 UNL A   1      -9.988  -4.105  10.353  1.00  0.00    -0.282 N 
ATOM     10  H32 UNL A   1      -9.970  -3.843   9.404  1.00  0.00     0.184 HD
BRANCH   9  11
ATOM     11  N16 UNL A   1     -11.206  -4.587  10.913  1.00  0.00    -0.199 NA
ATOM     12  C17 UNL A   1     -12.180  -3.491  11.032  1.00  0.00     0.094 C 
ATOM     13  C18 UNL A   1     -13.508  -3.966  11.629  1.00  0.00     0.019 C 
ATOM     14  C19 UNL A   1     -14.092  -5.134  10.841  1.00  0.00     0.003 C 
ATOM     15  C20 UNL A   1     -13.053  -6.236  10.678  1.00  0.00     0.019 C 
ATOM     16  C21 UNL A   1     -11.741  -5.692  10.102  1.00  0.00     0.094 C 
ENDBRANCH   9  11
ENDBRANCH   4   7
BRANCH   1  17
ATOM     17  C8  UNL A   1      -4.620  -1.513   9.515  1.00  0.00     0.014 A 
ATOM     18  C2  UNL A   1      -4.433  -0.402   8.655  1.00  0.00    -0.020 A 
ATOM     19  C1  UNL A   1      -5.458   0.137   7.691  1.00  0.00     0.031 C 
ATOM     20  C3  UNL A   1      -3.164   0.226   8.601  1.00  0.00     0.007 A 
ATOM     21  C4  UNL A   1      -2.084  -0.249   9.338  1.00  0.00     0.057 A 
ATOM     22 CL5  UNL A   1      -0.537   0.483   9.170  1.00  0.00    -0.082 Cl
ATOM     23  C6  UNL A   1      -2.254  -1.327  10.189  1.00  0.00     0.011 A 
ATOM     24  C7  UNL A   1      -3.515  -1.922  10.299  1.00  0.00     0.002 A 
ENDBRANCH   1  17
BRANCH   6  25
ATOM     25  C24 UNL A   1      -5.822  -3.623   7.340  1.00  0.00     0.093 A 
ATOM     26  C25 UNL A   1      -6.176  -2.797   6.255  1.00  0.00     0.021 A 
ATOM     27  C26 UNL A   1      -5.587  -2.979   4.998  1.00  0.00     0.013 A 
ATOM     28  C27 UNL A   1      -4.674  -4.007   4.799  1.00  0.00     0.059 A 
ATOM     29 CL28 UNL A   1      -3.900  -4.189   3.275  1.00  0.00    -0.082 Cl
ATOM     30  C29 UNL A   1      -4.361  -4.876   5.840  1.00  0.00     0.024 A 
ATOM     31  C30 UNL A   1      -4.931  -4.697   7.108  1.00  0.00     0.076 A 
ATOM     32 CL31 UNL A   1      -4.327  -5.778   8.323  1.00  0.00    -0.081 Cl
ENDBRANCH   6  25
TORSDOF 4
BEGIN_RES SER A 173
REMARK  2 active torsions:
REMARK  status: ('A' for Active; 'I' for Inactive)
REMARK    1  A    between atoms: CA   and  CB  
REMARK    2  A    between atoms: CB   and  OG  
ROOT
ATOM      1  CA  SER A 173      -4.540 -11.597  11.543  1.00127.03     0.292 C 
ENDROOT
BRANCH   1   2
ATOM      2  CB  SER A 173      -4.003 -10.168  11.569  1.00131.20     0.194 C 
BRANCH   2   3
ATOM      3  OG  SER A 173      -3.916  -9.675  12.895  1.00137.49    -0.550 OA
ATOM      4  HG  SER A 173      -4.251  -8.789  12.956  1.00  0.00     0.310 HD
ENDBRANCH   2   3
ENDBRANCH   1   2
END_RES SER A 173
BEGIN_RES SER A 383
REMARK  2 active torsions:
REMARK  status: ('A' for Active; 'I' for Inactive)
REMARK    3  A    between atoms: CA   and  CB  
REMARK    4  A    between atoms: CB   and  OG  
ROOT
ATOM      5  CA  SER A 383      -8.934   0.934   8.031  1.00 88.23     0.292 C 
ENDROOT
BRANCH   5   6
ATOM      6  CB  SER A 383      -8.589   0.249   9.352  1.00 82.13     0.194 C 
BRANCH   6   7
ATOM      7  OG  SER A 383      -7.751   1.068  10.147  1.00 85.59    -0.550 OA
ATOM      8  HG  SER A 383      -7.578   0.664  10.989  1.00  0.00     0.310 HD
ENDBRANCH   6   7
ENDBRANCH   5   6
END_RES SER A 383
ENDMDL
MODEL 2
REMARK VINA RESULT:    -9.864      5.363     10.978
REMARK INTER + INTRA:          -3.826
REMARK INTER:                 -11.874
REMARK INTRA:                   8.048
REMARK UNBOUND:                 8.345
REMARK  4 active torsions:
REMARK  status: ('A' for Active; 'I' for Inactive)
REMARK    1  A    between atoms: C8_8  and  C9_9 
REMARK    2  A    between atoms: C12_12  and  C13_13 
REMARK       I    between atoms: C13_13  and  N15_15 
REMARK    3  A    between atoms: N15_15  and  N16_16 
REMARK    4  A    between atoms: N23_23  and  C24_24 
ROOT
ATOM      1  C9  UNL A   1     -13.572  -4.962  12.793  1.00  0.00     0.080 A 
ATOM      2  C10 UNL A   1     -12.334  -5.085  12.144  1.00  0.00     0.020 A 
ATOM      3  C11 UNL A   1     -11.461  -6.282  11.963  1.00  0.00     0.034 C 
ATOM      4  C12 UNL A   1     -11.997  -3.779  11.692  1.00  0.00     0.155 A 
ATOM      5  N22 UNL A   1     -12.973  -2.913  11.971  1.00  0.00    -0.161 NA
ATOM      6  N23 UNL A   1     -13.935  -3.614  12.624  1.00  0.00    -0.229 N 
ENDROOT
BRANCH   4   7
ATOM      7  C13 UNL A   1     -10.750  -3.330  11.005  1.00  0.00     0.287 C 
ATOM      8  O14 UNL A   1     -10.698  -3.135   9.792  1.00  0.00    -0.265 OA
ATOM      9  N15 UNL A   1      -9.689  -3.176  11.894  1.00  0.00    -0.282 N 
ATOM     10  H32 UNL A   1      -9.837  -3.365  12.850  1.00  0.00     0.184 HD
BRANCH   9  11
ATOM     11  N16 UNL A   1      -8.399  -2.752  11.465  1.00  0.00    -0.199 NA
ATOM     12  C17 UNL A   1      -7.667  -2.138  12.582  1.00  0.00     0.094 C 
ATOM     13  C18 UNL A   1      -6.270  -1.669  12.165  1.00  0.00     0.019 C 
ATOM     14  C19 UNL A   1      -5.462  -2.800  11.538  1.00  0.00     0.003 C 
ATOM     15  C20 UNL A   1      -6.257  -3.463  10.420  1.00  0.00     0.019 C 
ATOM     16  C21 UNL A   1      -7.652  -3.884  10.894  1.00  0.00     0.094 C 
ENDBRANCH   9  11
ENDBRANCH   4   7
BRANCH   1  17
ATOM     17  C8  UNL A   1     -14.308  -6.032  13.532  1.00  0.00     0.014 A 
ATOM     18  C2  UNL A   1     -14.976  -7.136  12.947  1.00  0.00    -0.020 A 
ATOM     19  C1  UNL A   1     -15.022  -7.447  11.473  1.00  0.00     0.031 C 
ATOM     20  C3  UNL A   1     -15.750  -7.992  13.770  1.00  0.00     0.007 A 
ATOM     21  C4  UNL A   1     -15.906  -7.749  15.130  1.00  0.00     0.057 A 
ATOM     22 CL5  UNL A   1     -16.931  -8.757  16.073  1.00  0.00    -0.082 Cl
ATOM     23  C6  UNL A   1     -15.253  -6.680  15.716  1.00  0.00     0.011 A 
ATOM     24  C7  UNL A   1     -14.437  -5.859  14.930  1.00  0.00     0.002 A 
ENDBRANCH   1  17
BRANCH   6  25
ATOM     25  C24 UNL A   1     -15.135  -2.925  12.988  1.00  0.00     0.093 A 
ATOM     26  C25 UNL A   1     -16.235  -2.934  12.108  1.00  0.00     0.021 A 
ATOM     27  C26 UNL A   1     -17.473  -2.416  12.507  1.00  0.00     0.013 A 
ATOM     28  C27 UNL A   1     -17.617  -1.849  13.767  1.00  0.00     0.059 A 
ATOM     29 CL28 UNL A   1     -19.153  -1.275  14.283  1.00  0.00    -0.082 Cl
ATOM     30  C29 UNL A   1     -16.526  -1.770  14.627  1.00  0.00     0.024 A 
ATOM     31  C30 UNL A   1     -15.284  -2.298  14.247  1.00  0.00     0.076 A 
ATOM     32 CL31 UNL A   1     -14.073  -2.242  15.488  1.00  0.00    -0.081 Cl
ENDBRANCH   6  25
TORSDOF 4
BEGIN_RES SER A 173
REMARK  2 active torsions:
REMARK  status: ('A' for Active; 'I' for Inactive)
REMARK    1  A    between atoms: CA   and  CB  
REMARK    2  A    between atoms: CB   and  OG  
ROOT
ATOM      1  CA  SER A 173      -4.540 -11.597  11.543  1.00127.03     0.292 C 
ENDROOT
BRANCH   1   2
ATOM      2  CB  SER A 173      -4.003 -10.168  11.569  1.00131.20     0.194 C 
BRANCH   2   3
ATOM      3  OG  SER A 173      -3.947  -9.664  12.892  1.00137.49    -0.550 OA
ATOM      4  HG  SER A 173      -3.821  -8.722  12.897  1.00  0.00     0.310 HD
ENDBRANCH   2   3
ENDBRANCH   1   2
END_RES SER A 173
BEGIN_RES SER A 383
REMARK  2 active torsions:
REMARK  status: ('A' for Active; 'I' for Inactive)
REMARK    3  A    between atoms: CA   and  CB  
REMARK    4  A    between atoms: CB   and  OG  
ROOT
ATOM      5  CA  SER A 383      -8.934   0.934   8.031  1.00 88.23     0.292 C 
ENDROOT
BRANCH   5   6
ATOM      6  CB  SER A 383      -8.589   0.249   9.352  1.00 82.13     0.194 C 
BRANCH   6   7
ATOM      7  OG  SER A 383      -7.332   0.684   9.838  1.00 85.59    -0.550 OA
ATOM      8  HG  SER A 383      -7.358   1.603  10.079  1.00  0.00     0.310 HD
ENDBRANCH   6   7
ENDBRANCH   5   6
END_RES SER A 383
ENDMDL
MODEL 3
REMARK VINA RESULT:    -9.738      3.314      6.184
REMARK INTER + INTRA:          -3.670
REMARK INTER:                 -12.814
REMARK INTRA:                   9.144
REMARK UNBOUND:                 8.345
REMARK  4 active torsions:
REMARK  status: ('A' for Active; 'I' for Inactive)
REMARK    1  A    between atoms: C8_8  and  C9_9 
REMARK    2  A    between atoms: C12_12  and  C13_13 
REMARK       I    between atoms: C13_13  and  N15_15 
REMARK    3  A    between atoms: N15_15  and  N16_16 
REMARK    4  A    between atoms: N23_23  and  C24_24 
ROOT
ATOM      1  C9  UNL A   1      -5.117  -2.750   9.599  1.00  0.00     0.080 A 
ATOM      2  C10 UNL A   1      -5.915  -3.261  10.633  1.00  0.00     0.020 A 
ATOM      3  C11 UNL A   1      -6.927  -4.358  10.611  1.00  0.00     0.034 C 
ATOM      4  C12 UNL A   1      -5.614  -2.480  11.783  1.00  0.00     0.155 A 
ATOM      5  N22 UNL A   1      -4.656  -1.592  11.516  1.00  0.00    -0.161 NA
ATOM      6  N23 UNL A   1      -4.337  -1.750  10.206  1.00  0.00    -0.229 N 
ENDROOT
BRANCH   4   7
ATOM      7  C13 UNL A   1      -6.233  -2.553  13.140  1.00  0.00     0.287 C 
ATOM      8  O14 UNL A   1      -7.423  -2.813  13.309  1.00  0.00    -0.265 OA
ATOM      9  N15 UNL A   1      -5.312  -2.288  14.150  1.00  0.00    -0.282 N 
ATOM     10  H32 UNL A   1      -4.380  -2.084  13.905  1.00  0.00     0.184 HD
BRANCH   9  11
ATOM     11  N16 UNL A   1      -5.676  -2.303  15.527  1.00  0.00    -0.199 NA
ATOM     12  C17 UNL A   1      -4.540  -2.746  16.349  1.00  0.00     0.094 C 
ATOM     13  C18 UNL A   1      -4.887  -2.776  17.841  1.00  0.00     0.019 C 
ATOM     14  C19 UNL A   1      -5.417  -1.429  18.320  1.00  0.00     0.003 C 
ATOM     15  C20 UNL A   1      -6.555  -0.957  17.425  1.00  0.00     0.019 C 
ATOM     16  C21 UNL A   1      -6.153  -0.976  15.946  1.00  0.00     0.094 C 
ENDBRANCH   9  11
ENDBRANCH   4   7
BRANCH   1  17
ATOM     17  C8  UNL A   1      -5.137  -3.162   8.163  1.00  0.00     0.014 A 
ATOM     18  C2  UNL A   1      -4.762  -4.431   7.658  1.00  0.00    -0.020 A 
ATOM     19  C1  UNL A   1      -4.319  -5.606   8.492  1.00  0.00     0.031 C 
ATOM     20  C3  UNL A   1      -4.701  -4.628   6.255  1.00  0.00     0.007 A 
ATOM     21  C4  UNL A   1      -4.954  -3.592   5.363  1.00  0.00     0.057 A 
ATOM     22 CL5  UNL A   1      -4.774  -3.848   3.672  1.00  0.00    -0.082 Cl
ATOM     23  C6  UNL A   1      -5.329  -2.350   5.842  1.00  0.00     0.011 A 
ATOM     24  C7  UNL A   1      -5.453  -2.154   7.221  1.00  0.00     0.002 A 
ENDBRANCH   1  17
BRANCH   6  25
ATOM     25  C24 UNL A   1      -3.278  -0.949   9.673  1.00  0.00     0.093 A 
ATOM     26  C25 UNL A   1      -1.942  -1.259   9.997  1.00  0.00     0.021 A 
ATOM     27  C26 UNL A   1      -0.882  -0.603   9.359  1.00  0.00     0.013 A 
ATOM     28  C27 UNL A   1      -1.141   0.393   8.425  1.00  0.00     0.059 A 
ATOM     29 CL28 UNL A   1       0.158   1.152   7.592  1.00  0.00    -0.082 Cl
ATOM     30  C29 UNL A   1      -2.453   0.761   8.140  1.00  0.00     0.024 A 
ATOM     31  C30 UNL A   1      -3.524   0.102   8.759  1.00  0.00     0.076 A 
ATOM     32 CL31 UNL A   1      -5.089   0.586   8.187  1.00  0.00    -0.081 Cl
ENDBRANCH   6  25
TORSDOF 4
BEGIN_RES SER A 173
REMARK  2 active torsions:
REMARK  status: ('A' for Active; 'I' for Inactive)
REMARK    1  A    between atoms: CA   and  CB  
REMARK    2  A    between atoms: CB   and  OG  
ROOT
ATOM      1  CA  SER A 173      -4.540 -11.597  11.543  1.00127.03     0.292 C 
ENDROOT
BRANCH   1   2
ATOM      2  CB  SER A 173      -4.003 -10.168  11.569  1.00131.20     0.194 C 
BRANCH   2   3
ATOM      3  OG  SER A 173      -3.928  -9.671  12.894  1.00137.49    -0.550 OA
ATOM      4  HG  SER A 173      -4.759  -9.303  13.171  1.00  0.00     0.310 HD
ENDBRANCH   2   3
ENDBRANCH   1   2
END_RES SER A 173
BEGIN_RES SER A 383
REMARK  2 active torsions:
REMARK  status: ('A' for Active; 'I' for Inactive)
REMARK    3  A    between atoms: CA   and  CB  
REMARK    4  A    between atoms: CB   and  OG  
ROOT
ATOM      5  CA  SER A 383      -8.934   0.934   8.031  1.00 88.23     0.292 C 
ENDROOT
BRANCH   5   6
ATOM      6  CB  SER A 383      -8.589   0.249   9.352  1.00 82.13     0.194 C 
BRANCH   6   7
ATOM      7  OG  SER A 383      -7.772   1.079  10.158  1.00 85.59    -0.550 OA
ATOM      8  HG  SER A 383      -6.853   0.960   9.949  1.00  0.00     0.310 HD
ENDBRANCH   6   7
ENDBRANCH   5   6
END_RES SER A 383
ENDMDL
MODEL 4
REMARK VINA RESULT:    -9.360      1.540      4.322
REMARK INTER + INTRA:          -3.204
REMARK INTER:                 -12.170
REMARK INTRA:                   8.966
REMARK UNBOUND:                 8.345
REMARK  4 active torsions:
REMARK  status: ('A' for Active; 'I' for Inactive)
REMARK    1  A    between atoms: C8_8  and  C9_9 
REMARK    2  A    between atoms: C12_12  and  C13_13 
REMARK       I    between atoms: C13_13  and  N15_15 
REMARK    3  A    between atoms: N15_15  and  N16_16 
REMARK    4  A    between atoms: N23_23  and  C24_24 
ROOT
ATOM      1  C9  UNL A   1      -5.874  -3.003   8.745  1.00  0.00     0.080 A 
ATOM      2  C10 UNL A   1      -7.016  -3.505   9.389  1.00  0.00     0.020 A 
ATOM      3  C11 UNL A   1      -7.977  -4.560   8.951  1.00  0.00     0.034 C 
ATOM      4  C12 UNL A   1      -7.144  -2.762  10.595  1.00  0.00     0.155 A 
ATOM      5  N22 UNL A   1      -6.131  -1.907  10.736  1.00  0.00    -0.161 NA
ATOM      6  N23 UNL A   1      -5.349  -2.049   9.635  1.00  0.00    -0.229 N 
ENDROOT
BRANCH   4   7
ATOM      7  C13 UNL A   1      -8.228  -2.840  11.618  1.00  0.00     0.287 C 
ATOM      8  O14 UNL A   1      -8.113  -2.351  12.741  1.00  0.00    -0.265 OA
ATOM      9  N15 UNL A   1      -9.346  -3.524  11.146  1.00  0.00    -0.282 N 
ATOM     10  H32 UNL A   1      -9.333  -3.883  10.228  1.00  0.00     0.184 HD
BRANCH   9  11
ATOM     11  N16 UNL A   1     -10.507  -3.721  11.948  1.00  0.00    -0.199 NA
ATOM     12  C17 UNL A   1     -11.519  -2.701  11.636  1.00  0.00     0.094 C 
ATOM     13  C18 UNL A   1     -12.788  -2.876  12.476  1.00  0.00     0.019 C 
ATOM     14  C19 UNL A   1     -13.364  -4.281  12.336  1.00  0.00     0.003 C 
ATOM     15  C20 UNL A   1     -12.289  -5.326  12.607  1.00  0.00     0.019 C 
ATOM     16  C21 UNL A   1     -11.038  -5.079  11.756  1.00  0.00     0.094 C 
ENDBRANCH   9  11
ENDBRANCH   4   7
BRANCH   1  17
ATOM     17  C8  UNL A   1      -5.367  -3.382   7.392  1.00  0.00     0.014 A 
ATOM     18  C2  UNL A   1      -4.689  -4.583   7.066  1.00  0.00    -0.020 A 
ATOM     19  C1  UNL A   1      -4.400  -5.711   8.024  1.00  0.00     0.031 C 
ATOM     20  C3  UNL A   1      -4.144  -4.739   5.767  1.00  0.00     0.007 A 
ATOM     21  C4  UNL A   1      -4.218  -3.724   4.819  1.00  0.00     0.057 A 
ATOM     22 CL5  UNL A   1      -3.460  -3.918   3.288  1.00  0.00    -0.082 Cl
ATOM     23  C6  UNL A   1      -4.884  -2.550   5.121  1.00  0.00     0.011 A 
ATOM     24  C7  UNL A   1      -5.480  -2.402   6.378  1.00  0.00     0.002 A 
ENDBRANCH   1  17
BRANCH   6  25
ATOM     25  C24 UNL A   1      -4.145  -1.279   9.565  1.00  0.00     0.093 A 
ATOM     26  C25 UNL A   1      -3.011  -1.696  10.290  1.00  0.00     0.021 A 
ATOM     27  C26 UNL A   1      -1.776  -1.063  10.108  1.00  0.00     0.013 A 
ATOM     28  C27 UNL A   1      -1.667   0.013   9.236  1.00  0.00     0.059 A 
ATOM     29 CL28 UNL A   1      -0.136   0.747   8.962  1.00  0.00    -0.082 Cl
ATOM     30  C29 UNL A   1      -2.788   0.482   8.560  1.00  0.00     0.024 A 
ATOM     31  C30 UNL A   1      -4.029  -0.151   8.721  1.00  0.00     0.076 A 
ATOM     32 CL31 UNL A   1      -5.287   0.472   7.701  1.00  0.00    -0.081 Cl
ENDBRANCH   6  25
TORSDOF 4
BEGIN_RES SER A 173
REMARK  2 active torsions:
REMARK  status: ('A' for Active; 'I' for Inactive)
REMARK    1  A    between atoms: CA   and  CB  
REMARK    2  A    between atoms: CB   and  OG  
ROOT
ATOM      1  CA  SER A 173      -4.540 -11.597  11.543  1.00127.03     0.292 C 
ENDROOT
BRANCH   1   2
ATOM      2  CB  SER A 173      -4.003 -10.168  11.569  1.00131.20     0.194 C 
BRANCH   2   3
ATOM      3  OG  SER A 173      -3.926  -9.672  12.894  1.00137.49    -0.550 OA
ATOM      4  HG  SER A 173      -4.665  -9.963  13.415  1.00  0.00     0.310 HD
ENDBRANCH   2   3
ENDBRANCH   1   2
END_RES SER A 173
BEGIN_RES SER A 383
REMARK  2 active torsions:
REMARK  status: ('A' for Active; 'I' for Inactive)
REMARK    3  A    between atoms: CA   and  CB  
REMARK    4  A    between atoms: CB   and  OG  
ROOT
ATOM      5  CA  SER A 383      -8.934   0.934   8.031  1.00 88.23     0.292 C 
ENDROOT
BRANCH   5   6
ATOM      6  CB  SER A 383      -8.589   0.249   9.352  1.00 82.13     0.194 C 
BRANCH   6   7
ATOM      7  OG  SER A 383      -7.426   0.813   9.930  1.00 85.59    -0.550 OA
ATOM      8  HG  SER A 383      -7.651   1.431  10.617  1.00  0.00     0.310 HD
ENDBRANCH   6   7
ENDBRANCH   5   6
END_RES SER A 383
ENDMDL
MODEL 5
REMARK VINA RESULT:    -9.277      5.369     10.340
REMARK INTER + INTRA:          -3.102
REMARK INTER:                 -11.453
REMARK INTRA:                   8.351
REMARK UNBOUND:                 8.345
REMARK  4 active torsions:
REMARK  status: ('A' for Active; 'I' for Inactive)
REMARK    1  A    between atoms: C8_8  and  C9_9 
REMARK    2  A    between atoms: C12_12  and  C13_13 
REMARK       I    between atoms: C13_13  and  N15_15 
REMARK    3  A    between atoms: N15_15  and  N16_16 
REMARK    4  A    between atoms: N23_23  and  C24_24 
ROOT
ATOM      1  C9  UNL A   1     -13.349  -5.218  11.745  1.00  0.00     0.080 A 
ATOM      2  C10 UNL A   1     -11.955  -5.342  11.648  1.00  0.00     0.020 A 
ATOM      3  C11 UNL A   1     -11.035  -6.336  12.275  1.00  0.00     0.034 C 
ATOM      4  C12 UNL A   1     -11.521  -4.260  10.833  1.00  0.00     0.155 A 
ATOM      5  N22 UNL A   1     -12.560  -3.550  10.394  1.00  0.00    -0.161 NA
ATOM      6  N23 UNL A   1     -13.671  -4.122  10.924  1.00  0.00    -0.229 N 
ENDROOT
BRANCH   4   7
ATOM      7  C13 UNL A   1     -10.124  -3.877  10.471  1.00  0.00     0.287 C 
ATOM      8  O14 UNL A   1      -9.634  -4.131   9.372  1.00  0.00    -0.265 OA
ATOM      9  N15 UNL A   1      -9.474  -3.222  11.515  1.00  0.00    -0.282 N 
ATOM     10  H32 UNL A   1      -9.958  -3.073  12.360  1.00  0.00     0.184 HD
BRANCH   9  11
ATOM     11  N16 UNL A   1      -8.131  -2.760  11.397  1.00  0.00    -0.199 NA
ATOM     12  C17 UNL A   1      -7.729  -2.048  12.619  1.00  0.00     0.094 C 
ATOM     13  C18 UNL A   1      -6.288  -1.535  12.537  1.00  0.00     0.019 C 
ATOM     14  C19 UNL A   1      -5.310  -2.659  12.210  1.00  0.00     0.003 C 
ATOM     15  C20 UNL A   1      -5.771  -3.421  10.975  1.00  0.00     0.019 C 
ATOM     16  C21 UNL A   1      -7.226  -3.883  11.109  1.00  0.00     0.094 C 
ENDBRANCH   9  11
ENDBRANCH   4   7
BRANCH   1  17
ATOM     17  C8  UNL A   1     -14.269  -6.052  12.575  1.00  0.00     0.014 A 
ATOM     18  C2  UNL A   1     -14.527  -5.880  13.957  1.00  0.00    -0.020 A 
ATOM     19  C1  UNL A   1     -13.948  -4.791  14.824  1.00  0.00     0.031 C 
ATOM     20  C3  UNL A   1     -15.318  -6.838  14.639  1.00  0.00     0.007 A 
ATOM     21  C4  UNL A   1     -15.809  -7.969  13.994  1.00  0.00     0.057 A 
ATOM     22 CL5  UNL A   1     -16.683  -9.155  14.880  1.00  0.00    -0.082 Cl
ATOM     23  C6  UNL A   1     -15.573  -8.145  12.643  1.00  0.00     0.011 A 
ATOM     24  C7  UNL A   1     -14.844  -7.179  11.940  1.00  0.00     0.002 A 
ENDBRANCH   1  17
BRANCH   6  25
ATOM     25  C24 UNL A   1     -14.944  -3.582  10.556  1.00  0.00     0.093 A 
ATOM     26  C25 UNL A   1     -15.493  -3.896   9.297  1.00  0.00     0.021 A 
ATOM     27  C26 UNL A   1     -16.805  -3.523   8.977  1.00  0.00     0.013 A 
ATOM     28  C27 UNL A   1     -17.565  -2.802   9.890  1.00  0.00     0.059 A 
ATOM     29 CL28 UNL A   1     -19.198  -2.404   9.525  1.00  0.00    -0.082 Cl
ATOM     30  C29 UNL A   1     -17.019  -2.425  11.112  1.00  0.00     0.024 A 
ATOM     31  C30 UNL A   1     -15.713  -2.803  11.452  1.00  0.00     0.076 A 
ATOM     32 CL31 UNL A   1     -15.239  -2.372  13.065  1.00  0.00    -0.081 Cl
ENDBRANCH   6  25
TORSDOF 4
BEGIN_RES SER A 173
REMARK  2 active torsions:
REMARK  status: ('A' for Active; 'I' for Inactive)
REMARK    1  A    between atoms: CA   and  CB  
REMARK    2  A    between atoms: CB   and  OG  
ROOT
ATOM      1  CA  SER A 173      -4.540 -11.597  11.543  1.00127.03     0.292 C 
ENDROOT
BRANCH   1   2
ATOM      2  CB  SER A 173      -4.003 -10.168  11.569  1.00131.20     0.194 C 
BRANCH   2   3
ATOM      3  OG  SER A 173      -3.919  -9.674  12.895  1.00137.49    -0.550 OA
ATOM      4  HG  SER A 173      -3.071  -9.863  13.280  1.00  0.00     0.310 HD
ENDBRANCH   2   3
ENDBRANCH   1   2
END_RES SER A 173
BEGIN_RES SER A 383
REMARK  2 active torsions:
REMARK  status: ('A' for Active; 'I' for Inactive)
REMARK    3  A    between atoms: CA   and  CB  
REMARK    4  A    between atoms: CB   and  OG  
ROOT
ATOM      5  CA  SER A 383      -8.934   0.934   8.031  1.00 88.23     0.292 C 
ENDROOT
BRANCH   5   6
ATOM      6  CB  SER A 383      -8.589   0.249   9.352  1.00 82.13     0.194 C 
BRANCH   6   7
ATOM      7  OG  SER A 383      -7.324   0.670   9.829  1.00 85.59    -0.550 OA
ATOM      8  HG  SER A 383      -6.911   1.270   9.218  1.00  0.00     0.310 HD
ENDBRANCH   6   7
ENDBRANCH   5   6
END_RES SER A 383
ENDMDL
MODEL 6
REMARK VINA RESULT:    -9.149      5.447     10.906
REMARK INTER + INTRA:          -2.944
REMARK INTER:                 -11.340
REMARK INTRA:                   8.396
REMARK UNBOUND:                 8.345
REMARK  4 active torsions:
REMARK  status: ('A' for Active; 'I' for Inactive)
REMARK    1  A    between atoms: C8_8  and  C9_9 
REMARK    2  A    between atoms: C12_12  and  C13_13 
REMARK       I    between atoms: C13_13  and  N15_15 
REMARK    3  A    between atoms: N15_15  and  N16_16 
REMARK    4  A    between atoms: N23_23  and  C24_24 
ROOT
ATOM      1  C9  UNL A   1     -13.951  -4.277  13.034  1.00  0.00     0.080 A 
ATOM      2  C10 UNL A   1     -12.771  -3.935  12.355  1.00  0.00     0.020 A 
ATOM      3  C11 UNL A   1     -12.309  -2.611  11.843  1.00  0.00     0.034 C 
ATOM      4  C12 UNL A   1     -12.054  -5.150  12.179  1.00  0.00     0.155 A 
ATOM      5  N22 UNL A   1     -12.693  -6.167  12.759  1.00  0.00    -0.161 NA
ATOM      6  N23 UNL A   1     -13.833  -5.654  13.290  1.00  0.00    -0.229 N 
ENDROOT
BRANCH   4   7
ATOM      7  C13 UNL A   1     -10.768  -5.369  11.453  1.00  0.00     0.287 C 
ATOM      8  O14 UNL A   1     -10.550  -6.378  10.785  1.00  0.00    -0.265 OA
ATOM      9  N15 UNL A   1      -9.878  -4.313  11.636  1.00  0.00    -0.282 N 
ATOM     10  H32 UNL A   1     -10.151  -3.551  12.198  1.00  0.00     0.184 HD
BRANCH   9  11
ATOM     11  N16 UNL A   1      -8.586  -4.301  11.036  1.00  0.00    -0.199 NA
ATOM     12  C17 UNL A   1      -8.661  -3.741   9.679  1.00  0.00     0.094 C 
ATOM     13  C18 UNL A   1      -7.291  -3.707   8.995  1.00  0.00     0.019 C 
ATOM     14  C19 UNL A   1      -6.262  -2.962   9.838  1.00  0.00     0.003 C 
ATOM     15  C20 UNL A   1      -6.236  -3.516  11.257  1.00  0.00     0.019 C 
ATOM     16  C21 UNL A   1      -7.639  -3.549  11.873  1.00  0.00     0.094 C 
ENDBRANCH   9  11
ENDBRANCH   4   7
BRANCH   1  17
ATOM     17  C8  UNL A   1     -15.089  -3.369  13.368  1.00  0.00     0.014 A 
ATOM     18  C2  UNL A   1     -15.142  -2.469  14.461  1.00  0.00    -0.020 A 
ATOM     19  C1  UNL A   1     -14.033  -2.239  15.456  1.00  0.00     0.031 C 
ATOM     20  C3  UNL A   1     -16.347  -1.774  14.729  1.00  0.00     0.007 A 
ATOM     21  C4  UNL A   1     -17.495  -1.989  13.973  1.00  0.00     0.057 A 
ATOM     22 CL5  UNL A   1     -18.963  -1.197  14.392  1.00  0.00    -0.082 Cl
ATOM     23  C6  UNL A   1     -17.456  -2.858  12.898  1.00  0.00     0.011 A 
ATOM     24  C7  UNL A   1     -16.258  -3.508  12.582  1.00  0.00     0.002 A 
ENDBRANCH   1  17
BRANCH   6  25
ATOM     25  C24 UNL A   1     -14.682  -6.536  14.031  1.00  0.00     0.093 A 
ATOM     26  C25 UNL A   1     -15.493  -7.460  13.343  1.00  0.00     0.021 A 
ATOM     27  C26 UNL A   1     -16.202  -8.445  14.040  1.00  0.00     0.013 A 
ATOM     28  C27 UNL A   1     -16.143  -8.494  15.427  1.00  0.00     0.059 A 
ATOM     29 CL28 UNL A   1     -16.960  -9.745  16.280  1.00  0.00    -0.082 Cl
ATOM     30  C29 UNL A   1     -15.402  -7.550  16.130  1.00  0.00     0.024 A 
ATOM     31  C30 UNL A   1     -14.674  -6.568  15.445  1.00  0.00     0.076 A 
ATOM     32 CL31 UNL A   1     -13.695  -5.561  16.464  1.00  0.00    -0.081 Cl
ENDBRANCH   6  25
TORSDOF 4
BEGIN_RES SER A 173
REMARK  2 active torsions:
REMARK  status: ('A' for Active; 'I' for Inactive)
REMARK    1  A    between atoms: CA   and  CB  
REMARK    2  A    between atoms: CB   and  OG  
ROOT
ATOM      1  CA  SER A 173      -4.540 -11.597  11.543  1.00127.03     0.292 C 
ENDROOT
BRANCH   1   2
ATOM      2  CB  SER A 173      -4.003 -10.168  11.569  1.00131.20     0.194 C 
BRANCH   2   3
ATOM      3  OG  SER A 173      -3.940  -9.666  12.893  1.00137.49    -0.550 OA
ATOM      4  HG  SER A 173      -3.223  -9.052  12.995  1.00  0.00     0.310 HD
ENDBRANCH   2   3
ENDBRANCH   1   2
END_RES SER A 173
BEGIN_RES SER A 383
REMARK  2 active torsions:
REMARK  status: ('A' for Active; 'I' for Inactive)
REMARK    3  A    between atoms: CA   and  CB  
REMARK    4  A    between atoms: CB   and  OG  
ROOT
ATOM      5  CA  SER A 383      -8.934   0.934   8.031  1.00 88.23     0.292 C 
ENDROOT
BRANCH   5   6
ATOM      6  CB  SER A 383      -8.589   0.249   9.352  1.00 82.13     0.194 C 
BRANCH   6   7
ATOM      7  OG  SER A 383      -7.230   0.456   9.693  1.00 85.59    -0.550 OA
ATOM      8  HG  SER A 383      -7.064   0.210  10.596  1.00  0.00     0.310 HD
ENDBRANCH   6   7
ENDBRANCH   5   6
END_RES SER A 383
ENDMDL
