REMARK  8 active torsions:
REMARK  status: ('A' for Active; 'I' for Inactive)
REMARK    1  A    between atoms: C2_2  and  C3_3 
REMARK    2  A    between atoms: C3_3  and  C4_4 
REMARK    3  A    between atoms: C4_4  and  C5_5 
REMARK    4  A    between atoms: C5_5  and  C6_6 
REMARK    5  A    between atoms: C9_9  and  C10_10 
REMARK    6  A    between atoms: C13_13  and  C14_14 
REMARK       I    between atoms: C14_14  and  N16_16 
REMARK    7  A    between atoms: N16_16  and  N17_17 
REMARK    8  A    between atoms: N25_25  and  C26_26 
ROOT
ATOM      1  C10 UNL A   1      10.648  -1.484  -1.206  1.00  0.00     0.086 A 
ATOM      2  C11 UNL A   1      10.824  -2.333  -2.289  1.00  0.00     0.021 A 
ATOM      3  C12 UNL A   1       9.920  -2.484  -3.457  1.00  0.00     0.034 C 
ATOM      4  C13 UNL A   1      12.037  -3.049  -2.019  1.00  0.00     0.156 A 
ATOM      5  N24 UNL A   1      12.601  -2.587  -0.896  1.00  0.00    -0.161 NA
ATOM      6  N25 UNL A   1      11.744  -1.660  -0.367  1.00  0.00    -0.229 N 
ENDROOT
BRANCH   4   7
ATOM      7  C14 UNL A   1      12.619  -4.166  -2.846  1.00  0.00     0.290 C 
ATOM      8  O15 UNL A   1      12.078  -4.580  -3.847  1.00  0.00    -0.264 OA
ATOM      9  N16 UNL A   1      13.842  -4.686  -2.342  1.00  0.00    -0.265 N 
ATOM     10  H35 UNL A   1      14.199  -4.298  -1.511  1.00  0.00     0.190 HD
BRANCH   9  11
ATOM     11  N17 UNL A   1      14.580  -5.727  -2.958  1.00  0.00    -0.292 N 
ATOM     12  C18 UNL A   1      13.851  -6.984  -3.065  1.00  0.00     0.120 C 
ATOM     13  C19 UNL A   1      14.748  -8.215  -2.911  1.00  0.00     0.026 C 
ATOM     14  C20 UNL A   1      15.576  -8.567  -4.141  1.00  0.00     0.002 C 
ATOM     15  C21 UNL A   1      16.511  -7.462  -4.613  1.00  0.00     0.002 C 
ATOM     16  C22 UNL A   1      15.757  -6.259  -5.168  1.00  0.00     0.026 C 
ATOM     17  C23 UNL A   1      15.335  -5.243  -4.113  1.00  0.00     0.120 C 
ENDBRANCH   9  11
ENDBRANCH   4   7
BRANCH   1  18
ATOM     18  C9  UNL A   1       9.546  -0.576  -1.020  1.00  0.00     0.048 C 
ATOM     19  C8  UNL A   1       8.892  -0.183   0.124  1.00  0.00     0.009 C 
ATOM     20  C7  UNL A   1       8.055   0.958  -0.122  1.00  0.00     0.015 C 
ATOM     21  C6  UNL A   1       8.070   1.326  -1.446  1.00  0.00     0.071 C 
ATOM     22  S34 UNL A   1       8.978   0.284  -2.381  1.00  0.00    -0.077 SA
BRANCH  21  23
ATOM     23  C5  UNL A   1       7.434   2.416  -2.058  1.00  0.00    -0.058 C 
BRANCH  23  24
ATOM     24  C4  UNL A   1       6.753   3.341  -2.674  1.00  0.00    -0.086 C 
BRANCH  24  25
ATOM     25  C3  UNL A   1       5.960   4.421  -3.392  1.00  0.00     0.076 C 
BRANCH  25  26
ATOM     26  C2  UNL A   1       4.789   3.801  -4.149  1.00  0.00     0.014 C 
ATOM     27  C1  UNL A   1       3.981   4.863  -4.875  1.00  0.00     0.001 C 
ENDBRANCH  25  26
ENDBRANCH  24  25
ENDBRANCH  23  24
ENDBRANCH  21  23
ENDBRANCH   1  18
BRANCH   6  28
ATOM     28  C26 UNL A   1      12.028  -1.024   0.897  1.00  0.00     0.093 A 
ATOM     29  C27 UNL A   1      11.604   0.295   1.167  1.00  0.00     0.021 A 
ATOM     30  C28 UNL A   1      11.813   0.893   2.415  1.00  0.00     0.013 A 
ATOM     31  C29 UNL A   1      12.476   0.190   3.418  1.00  0.00     0.059 A 
ATOM     32 CL30 UNL A   1      12.753   0.930   4.943  1.00  0.00    -0.082 Cl
ATOM     33  C31 UNL A   1      12.926  -1.103   3.176  1.00  0.00     0.024 A 
ATOM     34  C32 UNL A   1      12.724  -1.706   1.921  1.00  0.00     0.076 A 
ATOM     35 CL33 UNL A   1      13.381  -3.298   1.753  1.00  0.00    -0.081 Cl
ENDBRANCH   6  28
TORSDOF 8
