REMARK  4 active torsions:
REMARK  status: ('A' for Active; 'I' for Inactive)
REMARK    1  A    between atoms: C3_3  and  C4_4 
REMARK       I    between atoms: C4_4  and  N6_6 
REMARK    2  A    between atoms: N6_6  and  N7_7 
REMARK    3  A    between atoms: N14_14  and  C15_15 
REMARK    4  A    between atoms: C23_23  and  C24_24 
ROOT
ATOM      1  C1  UNL A   1       1.198   0.337  -0.045  1.00  0.00     0.034 C 
ATOM      2  C2  UNL A   1       2.680   0.196   0.018  1.00  0.00     0.020 A 
ATOM      3  C3  UNL A   1       3.426  -1.026   0.033  1.00  0.00     0.156 A 
ATOM      4  N13 UNL A   1       4.742  -0.771   0.061  1.00  0.00    -0.161 NA
ATOM      5  N14 UNL A   1       4.871   0.581   0.034  1.00  0.00    -0.229 N 
ATOM      6  C23 UNL A   1       3.627   1.230   0.042  1.00  0.00     0.081 A 
ENDROOT
BRANCH   3   7
ATOM      7  C4  UNL A   1       2.938  -2.438   0.016  1.00  0.00     0.290 C 
ATOM      8  O5  UNL A   1       1.747  -2.744  -0.008  1.00  0.00    -0.264 OA
ATOM      9  N6  UNL A   1       3.981  -3.356   0.051  1.00  0.00    -0.265 N 
ATOM     10  H31 UNL A   1       4.898  -2.996   0.038  1.00  0.00     0.190 HD
BRANCH   9  11
ATOM     11  N7  UNL A   1       3.841  -4.748   0.102  1.00  0.00    -0.287 N 
ATOM     12  C8  UNL A   1       3.513  -5.469  -1.127  1.00  0.00     0.152 C 
ATOM     13  C9  UNL A   1       2.162  -6.211  -1.113  1.00  0.00     0.168 C 
ATOM     14  O10 UNL A   1       1.953  -6.924   0.110  1.00  0.00    -0.350 OA
ATOM     15  C11 UNL A   1       1.975  -6.003   1.209  1.00  0.00     0.168 C 
ATOM     16  C12 UNL A   1       3.352  -5.348   1.340  1.00  0.00     0.152 C 
ENDBRANCH   9  11
ENDBRANCH   3   7
BRANCH   6  17
ATOM     17  C24 UNL A   1       3.407   2.696  -0.045  1.00  0.00     0.018 A 
ATOM     18  C25 UNL A   1       4.189   3.515  -0.877  1.00  0.00     0.002 A 
ATOM     19  C26 UNL A   1       4.027   4.907  -0.888  1.00  0.00     0.006 A 
ATOM     20  C27 UNL A   1       3.021   5.493  -0.124  1.00  0.00     0.030 A 
ATOM     21  I28 UNL A   1       2.764   7.554  -0.160  1.00  0.00    -0.043 I 
ATOM     22  C29 UNL A   1       2.193   4.700   0.660  1.00  0.00     0.006 A 
ATOM     23  C30 UNL A   1       2.397   3.314   0.711  1.00  0.00     0.002 A 
ENDBRANCH   6  17
BRANCH   5  24
ATOM     24  C15 UNL A   1       6.184   1.144   0.067  1.00  0.00     0.093 A 
ATOM     25  C16 UNL A   1       6.435   2.277   0.867  1.00  0.00     0.021 A 
ATOM     26  C17 UNL A   1       7.686   2.898   0.836  1.00  0.00     0.013 A 
ATOM     27  C18 UNL A   1       8.701   2.385   0.038  1.00  0.00     0.059 A 
ATOM     28 CL19 UNL A   1      10.227   3.171  -0.022  1.00  0.00    -0.082 Cl
ATOM     29  C20 UNL A   1       8.482   1.241  -0.728  1.00  0.00     0.024 A 
ATOM     30  C21 UNL A   1       7.226   0.620  -0.721  1.00  0.00     0.076 A 
ATOM     31 CL22 UNL A   1       7.042  -0.693  -1.839  1.00  0.00    -0.081 Cl
ENDBRANCH   5  24
TORSDOF 4
