REMARK  4 active torsions:
REMARK  status: ('A' for Active; 'I' for Inactive)
REMARK    1  A    between atoms: C3_3  and  C4_4 
REMARK       I    between atoms: C4_4  and  N6_6 
REMARK    2  A    between atoms: N6_6  and  N7_7 
REMARK    3  A    between atoms: N15_15  and  C16_16 
REMARK    4  A    between atoms: C24_24  and  C25_25 
ROOT
ATOM      1  C1  UNL A   1       1.151   0.343   0.009  1.00  0.00     0.034 C 
ATOM      2  C2  UNL A   1       2.637   0.215  -0.008  1.00  0.00     0.020 C 
ATOM      3  C3  UNL A   1       3.389  -1.000  -0.076  1.00  0.00     0.155 C 
ATOM      4  N14 UNL A   1       4.696  -0.732  -0.224  1.00  0.00    -0.161 NA
ATOM      5  N15 UNL A   1       4.822   0.608  -0.042  1.00  0.00    -0.229 N 
ATOM      6  C24 UNL A   1       3.580   1.254  -0.016  1.00  0.00     0.081 C 
ENDROOT
BRANCH   3   7
ATOM      7  C4  UNL A   1       2.925  -2.413  -0.045  1.00  0.00     0.287 C 
ATOM      8  O5  UNL A   1       1.747  -2.730   0.093  1.00  0.00    -0.265 OA
ATOM      9  N6  UNL A   1       3.978  -3.324  -0.179  1.00  0.00    -0.282 N 
ATOM     10  H32 UNL A   1       4.889  -2.959  -0.260  1.00  0.00     0.184 HD
BRANCH   9  11
ATOM     11  N7  UNL A   1       3.831  -4.740  -0.208  1.00  0.00    -0.199 NA
ATOM     12  C8  UNL A   1       3.385  -5.298   1.069  1.00  0.00     0.094 C 
ATOM     13  C9  UNL A   1       3.959  -6.700   1.322  1.00  0.00     0.019 C 
ATOM     14  C10 UNL A   1       3.250  -7.840   0.601  1.00  0.00     0.002 C 
ATOM     15  C11 UNL A   1       3.243  -7.723  -0.917  1.00  0.00     0.002 C 
ATOM     16  C12 UNL A   1       2.413  -6.541  -1.403  1.00  0.00     0.019 C 
ATOM     17  C13 UNL A   1       3.150  -5.198  -1.423  1.00  0.00     0.094 C 
ENDBRANCH   9  11
ENDBRANCH   3   7
BRANCH   6  18
ATOM     18  C25 UNL A   1       3.363   2.721  -0.053  1.00  0.00     0.018 A 
ATOM     19  C26 UNL A   1       4.154   3.571  -0.847  1.00  0.00     0.002 A 
ATOM     20  C27 UNL A   1       4.008   4.964  -0.785  1.00  0.00     0.011 A 
ATOM     21  C28 UNL A   1       3.032   5.529   0.031  1.00  0.00     0.058 A 
ATOM     22 CL29 UNL A   1       2.870   7.236   0.119  1.00  0.00    -0.082 Cl
ATOM     23  C30 UNL A   1       2.201   4.709   0.782  1.00  0.00     0.011 A 
ATOM     24  C31 UNL A   1       2.375   3.320   0.750  1.00  0.00     0.002 A 
ENDBRANCH   6  18
BRANCH   5  25
ATOM     25  C16 UNL A   1       6.149   1.123   0.014  1.00  0.00     0.093 A 
ATOM     26  C17 UNL A   1       7.094   0.544  -0.861  1.00  0.00     0.021 A 
ATOM     27  C18 UNL A   1       8.413   0.998  -0.887  1.00  0.00     0.013 A 
ATOM     28  C19 UNL A   1       8.801   2.026  -0.037  1.00  0.00     0.059 A 
ATOM     29 CL20 UNL A   1      10.429   2.581  -0.059  1.00  0.00    -0.082 Cl
ATOM     30  C21 UNL A   1       7.889   2.585   0.857  1.00  0.00     0.024 A 
ATOM     31  C22 UNL A   1       6.567   2.120   0.906  1.00  0.00     0.076 A 
ATOM     32 CL23 UNL A   1       5.614   2.699   2.227  1.00  0.00    -0.081 Cl
ENDBRANCH   5  25
TORSDOF 4
