MODEL 1
REMARK VINA RESULT:   -11.233      0.000      0.000
REMARK INTER + INTRA:          -5.336
REMARK INTER:                 -13.860
REMARK INTRA:                   8.523
REMARK UNBOUND:                 8.523
REMARK  4 active torsions:
REMARK  status: ('A' for Active; 'I' for Inactive)
REMARK    1  A    between atoms: C3_3  and  C4_4 
REMARK       I    between atoms: C4_4  and  N6_6 
REMARK    2  A    between atoms: N6_6  and  N7_7 
REMARK    3  A    between atoms: N15_15  and  C16_16 
REMARK    4  A    between atoms: C24_24  and  C25_25 
ROOT
ATOM      1  C1  UNL A   1      -6.000  -1.906  12.274  1.00  0.00     0.034 C 
ATOM      2  C2  UNL A   1      -6.190  -2.527  10.933  1.00  0.00     0.020 A 
ATOM      3  C3  UNL A   1      -7.305  -3.313  10.491  1.00  0.00     0.155 A 
ATOM      4  N14 UNL A   1      -7.172  -3.634   9.195  1.00  0.00    -0.161 NA
ATOM      5  N15 UNL A   1      -5.991  -3.112   8.794  1.00  0.00    -0.229 N 
ATOM      6  C24 UNL A   1      -5.349  -2.420   9.822  1.00  0.00     0.086 A 
ENDROOT
BRANCH   3   7
ATOM      7  C4  UNL A   1      -8.509  -3.764  11.241  1.00  0.00     0.287 C 
ATOM      8  O5  UNL A   1      -8.521  -3.904  12.462  1.00  0.00    -0.265 OA
ATOM      9  N6  UNL A   1      -9.597  -4.002  10.403  1.00  0.00    -0.282 N 
ATOM     10  H31 UNL A   1      -9.461  -3.889   9.434  1.00  0.00     0.184 HD
BRANCH   9  11
ATOM     11  N7  UNL A   1     -10.893  -4.398  10.845  1.00  0.00    -0.199 NA
ATOM     12  C8  UNL A   1     -11.862  -3.303  10.836  1.00  0.00     0.094 C 
ATOM     13  C9  UNL A   1     -12.899  -3.440  11.959  1.00  0.00     0.019 C 
ATOM     14  C10 UNL A   1     -14.039  -4.412  11.681  1.00  0.00     0.002 C 
ATOM     15  C11 UNL A   1     -13.598  -5.848  11.429  1.00  0.00     0.002 C 
ATOM     16  C12 UNL A   1     -12.799  -5.991  10.139  1.00  0.00     0.019 C 
ATOM     17  C13 UNL A   1     -11.306  -5.679  10.265  1.00  0.00     0.094 C 
ENDBRANCH   9  11
ENDBRANCH   3   7
BRANCH   6  18
ATOM     18  C25 UNL A   1      -4.106  -1.680   9.681  1.00  0.00     0.047 A 
ATOM     19  C26 UNL A   1      -2.841  -2.037  10.128  1.00  0.00     0.009 A 
ATOM     20  C27 UNL A   1      -1.852  -1.036   9.875  1.00  0.00     0.014 A 
ATOM     21  C28 UNL A   1      -2.388   0.021   9.189  1.00  0.00     0.064 A 
ATOM     22 BR29 UNL A   1      -1.389   1.499   8.618  1.00  0.00    -0.042 Br
ATOM     23  S30 UNL A   1      -4.049  -0.138   8.916  1.00  0.00    -0.079 SA
ENDBRANCH   6  18
BRANCH   5  24
ATOM     24  C16 UNL A   1      -5.524  -3.418   7.484  1.00  0.00     0.093 A 
ATOM     25  C17 UNL A   1      -5.790  -2.521   6.434  1.00  0.00     0.021 A 
ATOM     26  C18 UNL A   1      -5.345  -2.797   5.138  1.00  0.00     0.013 A 
ATOM     27  C19 UNL A   1      -4.617  -3.957   4.891  1.00  0.00     0.059 A 
ATOM     28 CL20 UNL A   1      -4.080  -4.300   3.293  1.00  0.00    -0.082 Cl
ATOM     29  C21 UNL A   1      -4.330  -4.846   5.923  1.00  0.00     0.024 A 
ATOM     30  C22 UNL A   1      -4.781  -4.582   7.223  1.00  0.00     0.076 A 
ATOM     31 CL23 UNL A   1      -4.483  -5.830   8.388  1.00  0.00    -0.081 Cl
ENDBRANCH   5  24
TORSDOF 4
BEGIN_RES SER A 173
REMARK  2 active torsions:
REMARK  status: ('A' for Active; 'I' for Inactive)
REMARK    1  A    between atoms: CA   and  CB  
REMARK    2  A    between atoms: CB   and  OG  
ROOT
ATOM      1  CA  SER A 173      -4.540 -11.597  11.543  1.00127.03     0.292 C 
ENDROOT
BRANCH   1   2
ATOM      2  CB  SER A 173      -4.003 -10.168  11.569  1.00131.20     0.194 C 
BRANCH   2   3
ATOM      3  OG  SER A 173      -3.944  -9.665  12.893  1.00137.49    -0.550 OA
ATOM      4  HG  SER A 173      -4.265 -10.303  13.519  1.00  0.00     0.310 HD
ENDBRANCH   2   3
ENDBRANCH   1   2
END_RES SER A 173
BEGIN_RES SER A 383
REMARK  2 active torsions:
REMARK  status: ('A' for Active; 'I' for Inactive)
REMARK    3  A    between atoms: CA   and  CB  
REMARK    4  A    between atoms: CB   and  OG  
ROOT
ATOM      5  CA  SER A 383      -8.934   0.934   8.031  1.00 88.23     0.292 C 
ENDROOT
BRANCH   5   6
ATOM      6  CB  SER A 383      -8.589   0.249   9.352  1.00 82.13     0.194 C 
BRANCH   6   7
ATOM      7  OG  SER A 383      -7.330   0.679   9.835  1.00 85.59    -0.550 OA
ATOM      8  HG  SER A 383      -6.621   0.297   9.330  1.00  0.00     0.310 HD
ENDBRANCH   6   7
ENDBRANCH   5   6
END_RES SER A 383
ENDMDL
MODEL 2
REMARK VINA RESULT:    -9.715      6.066     10.650
REMARK INTER + INTRA:          -3.463
REMARK INTER:                 -12.249
REMARK INTRA:                   8.786
REMARK UNBOUND:                 8.523
REMARK  4 active torsions:
REMARK  status: ('A' for Active; 'I' for Inactive)
REMARK    1  A    between atoms: C3_3  and  C4_4 
REMARK       I    between atoms: C4_4  and  N6_6 
REMARK    2  A    between atoms: N6_6  and  N7_7 
REMARK    3  A    between atoms: N15_15  and  C16_16 
REMARK    4  A    between atoms: C24_24  and  C25_25 
ROOT
ATOM      1  C1  UNL A   1     -11.341  -6.508  12.091  1.00  0.00     0.034 C 
ATOM      2  C2  UNL A   1     -12.182  -5.280  12.154  1.00  0.00     0.020 A 
ATOM      3  C3  UNL A   1     -11.850  -3.975  11.662  1.00  0.00     0.155 A 
ATOM      4  N14 UNL A   1     -12.886  -3.135  11.818  1.00  0.00    -0.161 NA
ATOM      5  N15 UNL A   1     -13.862  -3.845  12.427  1.00  0.00    -0.229 N 
ATOM      6  C24 UNL A   1     -13.483  -5.169  12.653  1.00  0.00     0.086 A 
ENDROOT
BRANCH   3   7
ATOM      7  C4  UNL A   1     -10.594  -3.485  11.031  1.00  0.00     0.287 C 
ATOM      8  O5  UNL A   1     -10.546  -3.073   9.874  1.00  0.00    -0.265 OA
ATOM      9  N6  UNL A   1      -9.505  -3.549  11.898  1.00  0.00    -0.282 N 
ATOM     10  H31 UNL A   1      -9.656  -3.930  12.794  1.00  0.00     0.184 HD
BRANCH   9  11
ATOM     11  N7  UNL A   1      -8.188  -3.105  11.583  1.00  0.00    -0.199 NA
ATOM     12  C8  UNL A   1      -7.338  -2.950  12.762  1.00  0.00     0.094 C 
ATOM     13  C9  UNL A   1      -6.322  -1.810  12.597  1.00  0.00     0.019 C 
ATOM     14  C10 UNL A   1      -5.081  -2.154  11.784  1.00  0.00     0.002 C 
ATOM     15  C11 UNL A   1      -5.364  -2.586  10.351  1.00  0.00     0.002 C 
ATOM     16  C12 UNL A   1      -6.108  -3.914  10.282  1.00  0.00     0.019 C 
ATOM     17  C13 UNL A   1      -7.629  -3.812  10.427  1.00  0.00     0.094 C 
ENDBRANCH   9  11
ENDBRANCH   3   7
BRANCH   6  18
ATOM     18  C25 UNL A   1     -14.341  -6.198  13.213  1.00  0.00     0.047 A 
ATOM     19  C26 UNL A   1     -14.891  -7.299  12.569  1.00  0.00     0.009 A 
ATOM     20  C27 UNL A   1     -15.746  -8.075  13.412  1.00  0.00     0.014 A 
ATOM     21  C28 UNL A   1     -15.766  -7.572  14.686  1.00  0.00     0.064 A 
ATOM     22 BR29 UNL A   1     -16.721  -8.356  16.094  1.00  0.00    -0.042 Br
ATOM     23  S30 UNL A   1     -14.848  -6.163  14.859  1.00  0.00    -0.079 SA
ENDBRANCH   6  18
BRANCH   5  24
ATOM     24  C16 UNL A   1     -15.040  -3.159  12.841  1.00  0.00     0.093 A 
ATOM     25  C17 UNL A   1     -16.141  -3.098  11.968  1.00  0.00     0.021 A 
ATOM     26  C18 UNL A   1     -17.309  -2.431  12.349  1.00  0.00     0.013 A 
ATOM     27  C19 UNL A   1     -17.388  -1.843  13.607  1.00  0.00     0.059 A 
ATOM     28 CL20 UNL A   1     -18.823  -1.013  14.069  1.00  0.00    -0.082 Cl
ATOM     29  C21 UNL A   1     -16.314  -1.912  14.490  1.00  0.00     0.024 A 
ATOM     30  C22 UNL A   1     -15.136  -2.569  14.113  1.00  0.00     0.076 A 
ATOM     31 CL23 UNL A   1     -13.824  -2.464  15.241  1.00  0.00    -0.081 Cl
ENDBRANCH   5  24
TORSDOF 4
BEGIN_RES SER A 173
REMARK  2 active torsions:
REMARK  status: ('A' for Active; 'I' for Inactive)
REMARK    1  A    between atoms: CA   and  CB  
REMARK    2  A    between atoms: CB   and  OG  
ROOT
ATOM      1  CA  SER A 173      -4.540 -11.597  11.543  1.00127.03     0.292 C 
ENDROOT
BRANCH   1   2
ATOM      2  CB  SER A 173      -4.003 -10.168  11.569  1.00131.20     0.194 C 
BRANCH   2   3
ATOM      3  OG  SER A 173      -3.927  -9.671  12.894  1.00137.49    -0.550 OA
ATOM      4  HG  SER A 173      -3.830 -10.377  13.522  1.00  0.00     0.310 HD
ENDBRANCH   2   3
ENDBRANCH   1   2
END_RES SER A 173
BEGIN_RES SER A 383
REMARK  2 active torsions:
REMARK  status: ('A' for Active; 'I' for Inactive)
REMARK    3  A    between atoms: CA   and  CB  
REMARK    4  A    between atoms: CB   and  OG  
ROOT
ATOM      5  CA  SER A 383      -8.934   0.934   8.031  1.00 88.23     0.292 C 
ENDROOT
BRANCH   5   6
ATOM      6  CB  SER A 383      -8.589   0.249   9.352  1.00 82.13     0.194 C 
BRANCH   6   7
ATOM      7  OG  SER A 383      -7.225   0.438   9.683  1.00 85.59    -0.550 OA
ATOM      8  HG  SER A 383      -6.665   0.258   8.937  1.00  0.00     0.310 HD
ENDBRANCH   6   7
ENDBRANCH   5   6
END_RES SER A 383
ENDMDL
MODEL 3
REMARK VINA RESULT:    -9.513      5.704     10.009
REMARK INTER + INTRA:          -3.215
REMARK INTER:                 -11.597
REMARK INTRA:                   8.382
REMARK UNBOUND:                 8.523
REMARK  4 active torsions:
REMARK  status: ('A' for Active; 'I' for Inactive)
REMARK    1  A    between atoms: C3_3  and  C4_4 
REMARK       I    between atoms: C4_4  and  N6_6 
REMARK    2  A    between atoms: N6_6  and  N7_7 
REMARK    3  A    between atoms: N15_15  and  C16_16 
REMARK    4  A    between atoms: C24_24  and  C25_25 
ROOT
ATOM      1  C1  UNL A   1     -10.856  -5.950  12.927  1.00  0.00     0.034 C 
ATOM      2  C2  UNL A   1     -11.748  -5.034  12.163  1.00  0.00     0.020 A 
ATOM      3  C3  UNL A   1     -11.364  -3.867  11.424  1.00  0.00     0.155 A 
ATOM      4  N14 UNL A   1     -12.425  -3.337  10.794  1.00  0.00    -0.161 NA
ATOM      5  N15 UNL A   1     -13.487  -4.102  11.132  1.00  0.00    -0.229 N 
ATOM      6  C24 UNL A   1     -13.126  -5.160  11.968  1.00  0.00     0.086 A 
ENDROOT
BRANCH   3   7
ATOM      7  C4  UNL A   1     -10.026  -3.233  11.270  1.00  0.00     0.287 C 
ATOM      8  O5  UNL A   1      -9.573  -2.427  12.079  1.00  0.00    -0.265 OA
ATOM      9  N6  UNL A   1      -9.366  -3.660  10.119  1.00  0.00    -0.282 N 
ATOM     10  H31 UNL A   1      -9.842  -4.285   9.525  1.00  0.00     0.184 HD
BRANCH   9  11
ATOM     11  N7  UNL A   1      -8.053  -3.258   9.738  1.00  0.00    -0.199 NA
ATOM     12  C8  UNL A   1      -7.005  -3.884  10.542  1.00  0.00     0.094 C 
ATOM     13  C9  UNL A   1      -5.790  -2.965  10.728  1.00  0.00     0.019 C 
ATOM     14  C10 UNL A   1      -4.821  -2.919   9.553  1.00  0.00     0.002 C 
ATOM     15  C11 UNL A   1      -5.435  -2.437   8.245  1.00  0.00     0.002 C 
ATOM     16  C12 UNL A   1      -6.474  -3.408   7.700  1.00  0.00     0.019 C 
ATOM     17  C13 UNL A   1      -7.880  -3.245   8.283  1.00  0.00     0.094 C 
ENDBRANCH   9  11
ENDBRANCH   3   7
BRANCH   6  18
ATOM     18  C25 UNL A   1     -14.026  -6.200  12.434  1.00  0.00     0.047 A 
ATOM     19  C26 UNL A   1     -14.457  -7.330  11.751  1.00  0.00     0.009 A 
ATOM     20  C27 UNL A   1     -15.399  -8.110  12.492  1.00  0.00     0.014 A 
ATOM     21  C28 UNL A   1     -15.602  -7.581  13.738  1.00  0.00     0.064 A 
ATOM     22 BR29 UNL A   1     -16.718  -8.359  15.025  1.00  0.00    -0.042 Br
ATOM     23  S30 UNL A   1     -14.751  -6.143  13.996  1.00  0.00    -0.079 SA
ENDBRANCH   6  18
BRANCH   5  24
ATOM     24  C16 UNL A   1     -14.783  -3.687  10.710  1.00  0.00     0.093 A 
ATOM     25  C17 UNL A   1     -15.205  -3.978   9.401  1.00  0.00     0.021 A 
ATOM     26  C18 UNL A   1     -16.470  -3.581   8.961  1.00  0.00     0.013 A 
ATOM     27  C19 UNL A   1     -17.325  -2.912   9.831  1.00  0.00     0.059 A 
ATOM     28 CL20 UNL A   1     -18.879  -2.415   9.284  1.00  0.00    -0.082 Cl
ATOM     29  C21 UNL A   1     -16.930  -2.633  11.136  1.00  0.00     0.024 A 
ATOM     30  C22 UNL A   1     -15.659  -3.018  11.583  1.00  0.00     0.076 A 
ATOM     31 CL23 UNL A   1     -15.232  -2.490  13.178  1.00  0.00    -0.081 Cl
ENDBRANCH   5  24
TORSDOF 4
BEGIN_RES SER A 173
REMARK  2 active torsions:
REMARK  status: ('A' for Active; 'I' for Inactive)
REMARK    1  A    between atoms: CA   and  CB  
REMARK    2  A    between atoms: CB   and  OG  
ROOT
ATOM      1  CA  SER A 173      -4.540 -11.597  11.543  1.00127.03     0.292 C 
ENDROOT
BRANCH   1   2
ATOM      2  CB  SER A 173      -4.003 -10.168  11.569  1.00131.20     0.194 C 
BRANCH   2   3
ATOM      3  OG  SER A 173      -3.939  -9.667  12.893  1.00137.49    -0.550 OA
ATOM      4  HG  SER A 173      -4.578 -10.091  13.453  1.00  0.00     0.310 HD
ENDBRANCH   2   3
ENDBRANCH   1   2
END_RES SER A 173
BEGIN_RES SER A 383
REMARK  2 active torsions:
REMARK  status: ('A' for Active; 'I' for Inactive)
REMARK    3  A    between atoms: CA   and  CB  
REMARK    4  A    between atoms: CB   and  OG  
ROOT
ATOM      5  CA  SER A 383      -8.934   0.934   8.031  1.00 88.23     0.292 C 
ENDROOT
BRANCH   5   6
ATOM      6  CB  SER A 383      -8.589   0.249   9.352  1.00 82.13     0.194 C 
BRANCH   6   7
ATOM      7  OG  SER A 383      -7.206   0.359   9.637  1.00 85.59    -0.550 OA
ATOM      8  HG  SER A 383      -7.028   1.120  10.177  1.00  0.00     0.310 HD
ENDBRANCH   6   7
ENDBRANCH   5   6
END_RES SER A 383
ENDMDL
MODEL 4
REMARK VINA RESULT:    -9.354      5.616     10.181
REMARK INTER + INTRA:          -3.018
REMARK INTER:                 -11.835
REMARK INTRA:                   8.817
REMARK UNBOUND:                 8.523
REMARK  4 active torsions:
REMARK  status: ('A' for Active; 'I' for Inactive)
REMARK    1  A    between atoms: C3_3  and  C4_4 
REMARK       I    between atoms: C4_4  and  N6_6 
REMARK    2  A    between atoms: N6_6  and  N7_7 
REMARK    3  A    between atoms: N15_15  and  C16_16 
REMARK    4  A    between atoms: C24_24  and  C25_25 
ROOT
ATOM      1  C1  UNL A   1     -10.535  -6.150  11.288  1.00  0.00     0.034 C 
ATOM      2  C2  UNL A   1     -11.312  -4.951  11.709  1.00  0.00     0.020 A 
ATOM      3  C3  UNL A   1     -10.859  -3.592  11.743  1.00  0.00     0.155 A 
ATOM      4  N14 UNL A   1     -11.859  -2.769  12.096  1.00  0.00    -0.161 NA
ATOM      5  N15 UNL A   1     -12.934  -3.556  12.326  1.00  0.00    -0.229 N 
ATOM      6  C24 UNL A   1     -12.653  -4.905  12.100  1.00  0.00     0.086 A 
ENDROOT
BRANCH   3   7
ATOM      7  C4  UNL A   1      -9.515  -3.027  11.439  1.00  0.00     0.287 C 
ATOM      8  O5  UNL A   1      -8.936  -2.244  12.189  1.00  0.00    -0.265 OA
ATOM      9  N6  UNL A   1      -9.009  -3.488  10.225  1.00  0.00    -0.282 N 
ATOM     10  H31 UNL A   1      -9.578  -4.088   9.691  1.00  0.00     0.184 HD
BRANCH   9  11
ATOM     11  N7  UNL A   1      -7.727  -3.153   9.699  1.00  0.00    -0.199 NA
ATOM     12  C8  UNL A   1      -6.630  -3.831  10.388  1.00  0.00     0.094 C 
ATOM     13  C9  UNL A   1      -5.357  -2.974  10.432  1.00  0.00     0.019 C 
ATOM     14  C10 UNL A   1      -4.522  -2.980   9.158  1.00  0.00     0.002 C 
ATOM     15  C11 UNL A   1      -5.251  -2.468   7.922  1.00  0.00     0.002 C 
ATOM     16  C12 UNL A   1      -6.392  -3.386   7.501  1.00  0.00     0.019 C 
ATOM     17  C13 UNL A   1      -7.715  -3.152   8.234  1.00  0.00     0.094 C 
ENDBRANCH   9  11
ENDBRANCH   3   7
BRANCH   6  18
ATOM     18  C25 UNL A   1     -13.622  -5.984  12.181  1.00  0.00     0.047 A 
ATOM     19  C26 UNL A   1     -14.128  -6.761  11.147  1.00  0.00     0.009 A 
ATOM     20  C27 UNL A   1     -15.121  -7.695  11.580  1.00  0.00     0.014 A 
ATOM     21  C28 UNL A   1     -15.290  -7.638  12.937  1.00  0.00     0.064 A 
ATOM     22 BR29 UNL A   1     -16.457  -8.756  13.883  1.00  0.00    -0.042 Br
ATOM     23  S30 UNL A   1     -14.343  -6.448  13.676  1.00  0.00    -0.079 SA
ENDBRANCH   6  18
BRANCH   5  24
ATOM     24  C16 UNL A   1     -14.113  -2.956  12.853  1.00  0.00     0.093 A 
ATOM     25  C17 UNL A   1     -14.225  -2.765  14.242  1.00  0.00     0.021 A 
ATOM     26  C18 UNL A   1     -15.373  -2.180  14.784  1.00  0.00     0.013 A 
ATOM     27  C19 UNL A   1     -16.400  -1.765  13.943  1.00  0.00     0.059 A 
ATOM     28 CL20 UNL A   1     -17.816  -1.054  14.614  1.00  0.00    -0.082 Cl
ATOM     29  C21 UNL A   1     -16.296  -1.929  12.565  1.00  0.00     0.024 A 
ATOM     30  C22 UNL A   1     -15.154  -2.524  12.012  1.00  0.00     0.076 A 
ATOM     31 CL23 UNL A   1     -15.205  -2.802  10.302  1.00  0.00    -0.081 Cl
ENDBRANCH   5  24
TORSDOF 4
BEGIN_RES SER A 173
REMARK  2 active torsions:
REMARK  status: ('A' for Active; 'I' for Inactive)
REMARK    1  A    between atoms: CA   and  CB  
REMARK    2  A    between atoms: CB   and  OG  
ROOT
ATOM      1  CA  SER A 173      -4.540 -11.597  11.543  1.00127.03     0.292 C 
ENDROOT
BRANCH   1   2
ATOM      2  CB  SER A 173      -4.003 -10.168  11.569  1.00131.20     0.194 C 
BRANCH   2   3
ATOM      3  OG  SER A 173      -3.944  -9.665  12.892  1.00137.49    -0.550 OA
ATOM      4  HG  SER A 173      -4.790  -9.340  13.176  1.00  0.00     0.310 HD
ENDBRANCH   2   3
ENDBRANCH   1   2
END_RES SER A 173
BEGIN_RES SER A 383
REMARK  2 active torsions:
REMARK  status: ('A' for Active; 'I' for Inactive)
REMARK    3  A    between atoms: CA   and  CB  
REMARK    4  A    between atoms: CB   and  OG  
ROOT
ATOM      5  CA  SER A 383      -8.934   0.934   8.031  1.00 88.23     0.292 C 
ENDROOT
BRANCH   5   6
ATOM      6  CB  SER A 383      -8.589   0.249   9.352  1.00 82.13     0.194 C 
BRANCH   6   7
ATOM      7  OG  SER A 383      -7.192   0.050   9.473  1.00 85.59    -0.550 OA
ATOM      8  HG  SER A 383      -6.794  -0.101   8.624  1.00  0.00     0.310 HD
ENDBRANCH   6   7
ENDBRANCH   5   6
END_RES SER A 383
ENDMDL
MODEL 5
REMARK VINA RESULT:    -8.503      3.975      6.360
REMARK INTER + INTRA:          -1.969
REMARK INTER:                 -11.060
REMARK INTRA:                   9.092
REMARK UNBOUND:                 8.523
REMARK  4 active torsions:
REMARK  status: ('A' for Active; 'I' for Inactive)
REMARK    1  A    between atoms: C3_3  and  C4_4 
REMARK       I    between atoms: C4_4  and  N6_6 
REMARK    2  A    between atoms: N6_6  and  N7_7 
REMARK    3  A    between atoms: N15_15  and  C16_16 
REMARK    4  A    between atoms: C24_24  and  C25_25 
ROOT
ATOM      1  C1  UNL A   1      -7.131  -4.153  11.037  1.00  0.00     0.034 C 
ATOM      2  C2  UNL A   1      -6.069  -3.107  11.048  1.00  0.00     0.020 A 
ATOM      3  C3  UNL A   1      -5.708  -2.250  12.139  1.00  0.00     0.155 A 
ATOM      4  N14 UNL A   1      -4.650  -1.491  11.813  1.00  0.00    -0.161 NA
ATOM      5  N15 UNL A   1      -4.340  -1.804  10.534  1.00  0.00    -0.229 N 
ATOM      6  C24 UNL A   1      -5.178  -2.793  10.019  1.00  0.00     0.086 A 
ENDROOT
BRANCH   3   7
ATOM      7  C4  UNL A   1      -6.311  -2.126  13.495  1.00  0.00     0.287 C 
ATOM      8  O5  UNL A   1      -7.486  -2.400  13.729  1.00  0.00    -0.265 OA
ATOM      9  N6  UNL A   1      -5.396  -1.673  14.443  1.00  0.00    -0.282 N 
ATOM     10  H31 UNL A   1      -4.487  -1.452  14.133  1.00  0.00     0.184 HD
BRANCH   9  11
ATOM     11  N7  UNL A   1      -5.678  -1.503  15.830  1.00  0.00    -0.199 NA
ATOM     12  C8  UNL A   1      -4.507  -1.703  16.682  1.00  0.00     0.094 C 
ATOM     13  C9  UNL A   1      -4.880  -2.301  18.046  1.00  0.00     0.019 C 
ATOM     14  C10 UNL A   1      -5.419  -1.309  19.069  1.00  0.00     0.002 C 
ATOM     15  C11 UNL A   1      -6.690  -0.586  18.640  1.00  0.00     0.002 C 
ATOM     16  C12 UNL A   1      -6.455   0.346  17.457  1.00  0.00     0.019 C 
ATOM     17  C13 UNL A   1      -6.513  -0.326  16.083  1.00  0.00     0.094 C 
ENDBRANCH   9  11
ENDBRANCH   3   7
BRANCH   6  18
ATOM     18  C25 UNL A   1      -5.045  -3.399   8.705  1.00  0.00     0.047 A 
ATOM     19  C26 UNL A   1      -4.388  -4.574   8.366  1.00  0.00     0.009 A 
ATOM     20  C27 UNL A   1      -4.399  -4.839   6.961  1.00  0.00     0.014 A 
ATOM     21  C28 UNL A   1      -5.120  -3.889   6.288  1.00  0.00     0.064 A 
ATOM     22 BR29 UNL A   1      -5.417  -3.931   4.440  1.00  0.00    -0.042 Br
ATOM     23  S30 UNL A   1      -5.707  -2.664   7.295  1.00  0.00    -0.079 SA
ENDBRANCH   6  18
BRANCH   5  24
ATOM     24  C16 UNL A   1      -3.330  -1.044   9.877  1.00  0.00     0.093 A 
ATOM     25  C17 UNL A   1      -1.979  -1.288  10.183  1.00  0.00     0.021 A 
ATOM     26  C18 UNL A   1      -0.968  -0.556   9.553  1.00  0.00     0.013 A 
ATOM     27  C19 UNL A   1      -1.301   0.405   8.604  1.00  0.00     0.059 A 
ATOM     28 CL20 UNL A   1      -0.056   1.313   7.839  1.00  0.00    -0.082 Cl
ATOM     29  C21 UNL A   1      -2.632   0.645   8.277  1.00  0.00     0.024 A 
ATOM     30  C22 UNL A   1      -3.653  -0.076   8.910  1.00  0.00     0.076 A 
ATOM     31 CL23 UNL A   1      -5.270   0.413   8.522  1.00  0.00    -0.081 Cl
ENDBRANCH   5  24
TORSDOF 4
BEGIN_RES SER A 173
REMARK  2 active torsions:
REMARK  status: ('A' for Active; 'I' for Inactive)
REMARK    1  A    between atoms: CA   and  CB  
REMARK    2  A    between atoms: CB   and  OG  
ROOT
ATOM      1  CA  SER A 173      -4.540 -11.597  11.543  1.00127.03     0.292 C 
ENDROOT
BRANCH   1   2
ATOM      2  CB  SER A 173      -4.003 -10.168  11.569  1.00131.20     0.194 C 
BRANCH   2   3
ATOM      3  OG  SER A 173      -3.943  -9.665  12.893  1.00137.49    -0.550 OA
ATOM      4  HG  SER A 173      -3.055  -9.680  13.227  1.00  0.00     0.310 HD
ENDBRANCH   2   3
ENDBRANCH   1   2
END_RES SER A 173
BEGIN_RES SER A 383
REMARK  2 active torsions:
REMARK  status: ('A' for Active; 'I' for Inactive)
REMARK    3  A    between atoms: CA   and  CB  
REMARK    4  A    between atoms: CB   and  OG  
ROOT
ATOM      5  CA  SER A 383      -8.934   0.934   8.031  1.00 88.23     0.292 C 
ENDROOT
BRANCH   5   6
ATOM      6  CB  SER A 383      -8.589   0.249   9.352  1.00 82.13     0.194 C 
BRANCH   6   7
ATOM      7  OG  SER A 383      -8.043   1.172  10.277  1.00 85.59    -0.550 OA
ATOM      8  HG  SER A 383      -7.193   0.882  10.587  1.00  0.00     0.310 HD
ENDBRANCH   6   7
ENDBRANCH   5   6
END_RES SER A 383
ENDMDL
