REMARK  9 active torsions:
REMARK  status: ('A' for Active; 'I' for Inactive)
REMARK    1  A    between atoms: C2_2  and  O4_4 
REMARK    2  A    between atoms: O4_4  and  C5_5 
REMARK    3  A    between atoms: C5_5  and  C6_6 
REMARK    4  A    between atoms: C6_6  and  C7_7 
REMARK    5  A    between atoms: C8_8  and  C9_9 
REMARK    6  A    between atoms: C12_12  and  C13_13 
REMARK    7  A    between atoms: C16_16  and  C17_17 
REMARK       I    between atoms: C17_17  and  N19_19 
REMARK    8  A    between atoms: N19_19  and  N20_20 
REMARK    9  A    between atoms: N27_27  and  C28_28 
ROOT
ATOM      1  C13 UNL A   1      11.692  -0.788  -4.993  1.00  0.00     0.081 A 
ATOM      2  C14 UNL A   1      12.233  -1.782  -5.813  1.00  0.00     0.020 A 
ATOM      3  C15 UNL A   1      11.786  -3.196  -6.006  1.00  0.00     0.034 C 
ATOM      4  C16 UNL A   1      13.333  -1.181  -6.478  1.00  0.00     0.155 A 
ATOM      5  N26 UNL A   1      13.444   0.109  -6.149  1.00  0.00    -0.161 NA
ATOM      6  N27 UNL A   1      12.430   0.374  -5.281  1.00  0.00    -0.229 N 
ENDROOT
BRANCH   1   7
ATOM      7  C12 UNL A   1      10.503  -0.940  -4.131  1.00  0.00     0.018 A 
ATOM      8  C11 UNL A   1      10.352  -2.130  -3.394  1.00  0.00     0.002 A 
ATOM      9  C10 UNL A   1       9.159  -2.436  -2.748  1.00  0.00     0.008 A 
ATOM     10  C9  UNL A   1       8.129  -1.506  -2.737  1.00  0.00     0.042 A 
ATOM     11  C37 UNL A   1       8.286  -0.278  -3.379  1.00  0.00     0.008 A 
ATOM     12  C36 UNL A   1       9.453  -0.013  -4.105  1.00  0.00     0.002 A 
BRANCH  10  13
ATOM     13  C8  UNL A   1       6.931  -1.817  -2.036  1.00  0.00    -0.064 C 
ATOM     14  C7  UNL A   1       5.966  -2.058  -1.368  1.00  0.00    -0.084 C 
BRANCH  14  15
ATOM     15  C6  UNL A   1       4.837  -2.230  -0.457  1.00  0.00     0.109 C 
BRANCH  15  16
ATOM     16  C5  UNL A   1       4.653  -0.947   0.348  1.00  0.00     0.166 C 
BRANCH  16  17
ATOM     17  O4  UNL A   1       3.545  -1.066   1.258  1.00  0.00    -0.301 OA
BRANCH  17  18
ATOM     18  C2  UNL A   1       2.329  -0.850   0.697  1.00  0.00     0.272 C 
ATOM     19  C1  UNL A   1       1.265  -0.988   1.741  1.00  0.00     0.106 C 
ATOM     20  O3  UNL A   1       2.114  -0.597  -0.479  1.00  0.00    -0.264 OA
ENDBRANCH  17  18
ENDBRANCH  16  17
ENDBRANCH  15  16
ENDBRANCH  14  15
ENDBRANCH  10  13
ENDBRANCH   1   7
BRANCH   6  21
ATOM     21  C28 UNL A   1      12.324   1.701  -4.741  1.00  0.00     0.093 A 
ATOM     22  C29 UNL A   1      11.867   1.884  -3.423  1.00  0.00     0.021 A 
ATOM     23  C30 UNL A   1      11.729   3.166  -2.879  1.00  0.00     0.013 A 
ATOM     24  C31 UNL A   1      12.085   4.280  -3.628  1.00  0.00     0.059 A 
ATOM     25 CL32 UNL A   1      11.922   5.855  -2.956  1.00  0.00    -0.082 Cl
ATOM     26  C33 UNL A   1      12.570   4.125  -4.922  1.00  0.00     0.024 A 
ATOM     27  C34 UNL A   1      12.687   2.845  -5.487  1.00  0.00     0.076 A 
ATOM     28 CL35 UNL A   1      13.171   2.834  -7.153  1.00  0.00    -0.081 Cl
ENDBRANCH   6  21
BRANCH   4  29
ATOM     29  C17 UNL A   1      14.268  -1.843  -7.414  1.00  0.00     0.287 C 
ATOM     30  O18 UNL A   1      14.186  -3.046  -7.666  1.00  0.00    -0.265 OA
ATOM     31  N19 UNL A   1      15.229  -0.992  -7.948  1.00  0.00    -0.282 N 
ATOM     32  H38 UNL A   1      15.189  -0.039  -7.703  1.00  0.00     0.184 HD
BRANCH  31  33
ATOM     33  N20 UNL A   1      16.271  -1.414  -8.831  1.00  0.00    -0.199 NA
ATOM     34  C21 UNL A   1      17.164  -2.401  -8.199  1.00  0.00     0.094 C 
ATOM     35  C22 UNL A   1      18.310  -2.821  -9.123  1.00  0.00     0.019 C 
ATOM     36  C23 UNL A   1      17.791  -3.314 -10.468  1.00  0.00     0.003 C 
ATOM     37  C24 UNL A   1      16.865  -2.275 -11.086  1.00  0.00     0.019 C 
ATOM     38  C25 UNL A   1      15.741  -1.891 -10.120  1.00  0.00     0.094 C 
ENDBRANCH  31  33
ENDBRANCH   4  29
TORSDOF 9
