REMARK  8 active torsions:
REMARK  status: ('A' for Active; 'I' for Inactive)
REMARK    1  A    between atoms: C2_2  and  O3_3 
REMARK    2  A    between atoms: O3_3  and  C4_4 
REMARK    3  A    between atoms: C4_4  and  C5_5 
REMARK    4  A    between atoms: C6_6  and  C7_7 
REMARK    5  A    between atoms: C10_10  and  C11_11 
REMARK    6  A    between atoms: C14_14  and  C15_15 
REMARK       I    between atoms: C15_15  and  N17_17 
REMARK    7  A    between atoms: N17_17  and  N18_18 
REMARK    8  A    between atoms: N25_25  and  C26_26 
ROOT
ATOM      1  C11 UNL A   1       6.369  -4.449  -7.512  1.00  0.00     0.086 A 
ATOM      2  C12 UNL A   1       5.200  -5.150  -7.813  1.00  0.00     0.020 A 
ATOM      3  C13 UNL A   1       3.826  -4.865  -7.303  1.00  0.00     0.034 C 
ATOM      4  C14 UNL A   1       5.572  -6.160  -8.758  1.00  0.00     0.155 A 
ATOM      5  N24 UNL A   1       6.878  -6.054  -9.055  1.00  0.00    -0.161 NA
ATOM      6  N25 UNL A   1       7.363  -5.015  -8.319  1.00  0.00    -0.229 N 
ENDROOT
BRANCH   1   7
ATOM      7  C10 UNL A   1       6.469  -3.256  -6.682  1.00  0.00     0.048 C 
ATOM      8  C9  UNL A   1       7.339  -2.183  -6.764  1.00  0.00     0.009 C 
ATOM      9  C8  UNL A   1       6.940  -1.068  -5.973  1.00  0.00     0.015 C 
ATOM     10  C7  UNL A   1       5.774  -1.308  -5.312  1.00  0.00     0.071 C 
ATOM     11  S34 UNL A   1       5.385  -2.954  -5.372  1.00  0.00    -0.077 SA
BRANCH  10  12
ATOM     12  C6  UNL A   1       4.983  -0.355  -4.605  1.00  0.00    -0.055 C 
ATOM     13  C5  UNL A   1       4.233   0.324  -3.995  1.00  0.00    -0.053 C 
BRANCH  13  14
ATOM     14  C4  UNL A   1       3.305   1.100  -3.157  1.00  0.00     0.218 C 
BRANCH  14  15
ATOM     15  O3  UNL A   1       2.267   1.661  -3.951  1.00  0.00    -0.341 OA
BRANCH  15  16
ATOM     16  C2  UNL A   1       1.362   2.429  -3.148  1.00  0.00     0.144 C 
ATOM     17  C1  UNL A   1       0.262   3.010  -4.017  1.00  0.00     0.035 C 
ENDBRANCH  15  16
ENDBRANCH  14  15
ENDBRANCH  13  14
ENDBRANCH  10  12
ENDBRANCH   1   7
BRANCH   6  18
ATOM     18  C26 UNL A   1       8.757  -4.692  -8.405  1.00  0.00     0.093 A 
ATOM     19  C27 UNL A   1       9.420  -4.174  -7.271  1.00  0.00     0.021 A 
ATOM     20  C28 UNL A   1      10.761  -3.778  -7.320  1.00  0.00     0.013 A 
ATOM     21  C29 UNL A   1      11.471  -3.946  -8.493  1.00  0.00     0.059 A 
ATOM     22 CL30 UNL A   1      13.122  -3.476  -8.557  1.00  0.00    -0.082 Cl
ATOM     23  C31 UNL A   1      10.856  -4.500  -9.609  1.00  0.00     0.024 A 
ATOM     24  C32 UNL A   1       9.504  -4.875  -9.579  1.00  0.00     0.076 A 
ATOM     25 CL33 UNL A   1       8.857  -5.448 -11.081  1.00  0.00    -0.081 Cl
ENDBRANCH   6  18
BRANCH   4  26
ATOM     26  C15 UNL A   1       4.707  -7.206  -9.390  1.00  0.00     0.287 C 
ATOM     27  O16 UNL A   1       3.510  -7.303  -9.114  1.00  0.00    -0.265 OA
ATOM     28  N17 UNL A   1       5.381  -8.048 -10.288  1.00  0.00    -0.282 N 
ATOM     29  H35 UNL A   1       6.338  -7.871 -10.434  1.00  0.00     0.184 HD
BRANCH  28  30
ATOM     30  N18 UNL A   1       4.807  -9.133 -11.008  1.00  0.00    -0.199 NA
ATOM     31  C19 UNL A   1       4.220 -10.165 -10.146  1.00  0.00     0.094 C 
ATOM     32  C20 UNL A   1       3.723 -11.369 -10.952  1.00  0.00     0.019 C 
ATOM     33  C21 UNL A   1       2.775 -10.937 -12.064  1.00  0.00     0.003 C 
ATOM     34  C22 UNL A   1       3.449  -9.890 -12.944  1.00  0.00     0.019 C 
ATOM     35  C23 UNL A   1       3.930  -8.702 -12.104  1.00  0.00     0.094 C 
ENDBRANCH  28  30
ENDBRANCH   4  26
TORSDOF 8
