@<TRIPOS>MOLECULE
ligand_5tgz.pdb
 33 36 0 0 0
SMALL
GASTEIGER

@<TRIPOS>ATOM
      1  CAA       -0.3880    1.6250    9.1850 C.1   2001  ZDG2001    -0.0864
      2  CAB       -1.3750    0.9630    9.2080 C.1   2001  ZDG2001    -0.0644
      3  CAC       -2.6040    0.0540    9.2590 C.ar  2001  ZDG2001     0.0416
      4  CAD        0.8310    2.5460    9.1460 C.3   2001  ZDG2001     0.0764
      5  CAE        1.5660    2.4710   10.4860 C.3   2001  ZDG2001     0.0150
      6  CAJ       -2.5230   -1.1580    9.9200 C.ar  2001  ZDG2001     0.0083
      7  CAK       -3.6260   -1.9920    9.9800 C.ar  2001  ZDG2001     0.0021
      8  CAL       -4.8130   -1.6120    9.3810 C.ar  2001  ZDG2001     0.0175
      9  CAM       -4.8970   -0.3960    8.7200 C.ar  2001  ZDG2001     0.0021
     10  CAN       -3.7910    0.4370    8.6590 C.ar  2001  ZDG2001     0.0083
     11  CAO       -6.0320   -2.5350    9.4500 C.ar  2001  ZDG2001     0.0804
     12  CAR       -7.8420   -3.5900   10.1680 C.ar  2001  ZDG2001     0.1548
     13  CAS       -6.8850   -2.6710   10.5090 C.ar  2001  ZDG2001     0.0198
     14  CAT       -5.8470   -3.5300    7.1790 C.ar  2001  ZDG2001     0.0933
     15  CAU       -6.1190   -2.6480    6.1410 C.ar  2001  ZDG2001     0.0209
     16  CAV       -5.5320   -2.8450    4.8990 C.ar  2001  ZDG2001     0.0130
     17  CAW       -4.6810   -3.9180    4.6920 C.ar  2001  ZDG2001     0.0586
     18  CAX       -4.4150   -4.7950    5.7290 C.ar  2001  ZDG2001     0.0243
     19  CAY       -4.9950   -4.6040    6.9680 C.ar  2001  ZDG2001     0.0761
     20  NAP       -6.4530   -3.3430    8.4820 N.ar  2001  ZDG2001    -0.2290
     21  NAQ       -7.5820   -4.0030    8.9360 N.ar  2001  ZDG2001    -0.1607
     22  CBB       -6.7750   -1.9250   11.8350 C.3   2001  ZDG2001     0.0344
     23  CBC       -9.0100   -4.0750   11.0230 C.2   2001  ZDG2001     0.2990
     24  CBG      -12.2810   -3.4570   11.0970 C.3   2001  ZDG2001     0.0939
     25  CBH      -13.5960   -3.8000   11.7990 C.3   2001  ZDG2001     0.0192
     26  CBI      -14.1660   -5.1750   11.4670 C.3   2001  ZDG2001     0.0030
     27  CBJ      -13.0500   -6.1710   11.1890 C.3   2001  ZDG2001     0.0192
     28  CBK      -11.8150   -5.5410   10.5620 C.3   2001  ZDG2001     0.0939
     29  NBD      -10.3540   -4.0350   10.4640 N.am  2001  ZDG2001    -0.1224
     30  NBF      -11.3760   -4.4260   11.1270 N.3   2001  ZDG2001    -0.1841
     31  OBE       -8.8210   -4.4760   12.1210 O.2   2001  ZDG2001    -0.2653
     32 CLA        -4.6320   -5.7560    8.2850 Cl    2001  ZDG2001    -0.0806
     33 CLB        -3.9280   -4.1750    3.0940 Cl    2001  ZDG2001    -0.0822
@<TRIPOS>BOND
     1     1     2    3
     2     1     4    1
     3     2     3    1
     4     3     6   ar
     5     3    10   ar
     6     4     5    1
     7     6     7   ar
     8     7     8   ar
     9     8    11    1
    10     8     9   ar
    11     9    10   ar
    12    11    13   ar
    13    11    20   ar
    14    12    23    1
    15    12    13   ar
    16    12    21   ar
    17    13    22    1
    18    14    15   ar
    19    14    19   ar
    20    14    20    1
    21    15    16   ar
    22    16    17   ar
    23    17    33    1
    24    17    18   ar
    25    18    19   ar
    26    19    32    1
    27    20    21   ar
    28    23    29   am
    29    23    31    2
    30    24    25    1
    31    24    30    1
    32    25    26    1
    33    26    27    1
    34    27    28    1
    35    28    30    1
    36    29    30    1
