REMARK  4 active torsions:
REMARK  status: ('A' for Active; 'I' for Inactive)
REMARK    1  A    between atoms: C3_3  and  C4_4 
REMARK       I    between atoms: C4_4  and  N6_6 
REMARK    2  A    between atoms: N6_6  and  N7_7 
REMARK    3  A    between atoms: N14_14  and  C15_15 
REMARK    4  A    between atoms: C23_23  and  C24_24 
ROOT
ATOM      1  C1  UNL A   1       1.266   0.306   0.035  1.00  0.00     0.034 C 
ATOM      2  C2  UNL A   1       2.748   0.156   0.061  1.00  0.00     0.020 A 
ATOM      3  C3  UNL A   1       3.483  -1.071   0.029  1.00  0.00     0.155 A 
ATOM      4  N13 UNL A   1       4.802  -0.828   0.008  1.00  0.00    -0.161 NA
ATOM      5  N14 UNL A   1       4.943   0.522   0.018  1.00  0.00    -0.229 N 
ATOM      6  C23 UNL A   1       3.705   1.181   0.080  1.00  0.00     0.081 A 
ENDROOT
BRANCH   3   7
ATOM      7  C4  UNL A   1       2.966  -2.468   0.016  1.00  0.00     0.287 C 
ATOM      8  O5  UNL A   1       1.767  -2.729   0.062  1.00  0.00    -0.265 OA
ATOM      9  N6  UNL A   1       3.975  -3.432  -0.041  1.00  0.00    -0.282 N 
ATOM     10  H31 UNL A   1       4.904  -3.113  -0.115  1.00  0.00     0.184 HD
BRANCH   9  11
ATOM     11  N7  UNL A   1       3.764  -4.843  -0.002  1.00  0.00    -0.199 NA
ATOM     12  C8  UNL A   1       3.078  -5.284   1.218  1.00  0.00     0.094 C 
ATOM     13  C9  UNL A   1       3.002  -6.816   1.297  1.00  0.00     0.019 C 
ATOM     14  C10 UNL A   1       2.350  -7.406   0.052  1.00  0.00     0.003 C 
ATOM     15  C11 UNL A   1       3.043  -6.892  -1.205  1.00  0.00     0.019 C 
ATOM     16  C12 UNL A   1       3.116  -5.359  -1.216  1.00  0.00     0.094 C 
ENDBRANCH   9  11
ENDBRANCH   3   7
BRANCH   6  17
ATOM     17  C24 UNL A   1       3.488   2.652   0.051  1.00  0.00     0.018 A 
ATOM     18  C25 UNL A   1       4.264   3.504  -0.753  1.00  0.00     0.002 A 
ATOM     19  C26 UNL A   1       4.101   4.896  -0.715  1.00  0.00     0.006 A 
ATOM     20  C27 UNL A   1       3.102   5.455   0.075  1.00  0.00     0.030 A 
ATOM     21  I28 UNL A   1       2.842   7.516   0.118  1.00  0.00    -0.043 I 
ATOM     22  C29 UNL A   1       2.278   4.633   0.836  1.00  0.00     0.006 A 
ATOM     23  C30 UNL A   1       2.486   3.246   0.837  1.00  0.00     0.002 A 
ENDBRANCH   6  17
BRANCH   5  24
ATOM     24  C15 UNL A   1       6.265   1.065   0.048  1.00  0.00     0.093 A 
ATOM     25  C16 UNL A   1       6.548   2.167   0.876  1.00  0.00     0.021 A 
ATOM     26  C17 UNL A   1       7.823   2.744   0.882  1.00  0.00     0.013 A 
ATOM     27  C18 UNL A   1       8.830   2.208   0.087  1.00  0.00     0.059 A 
ATOM     28 CL19 UNL A   1      10.393   2.925   0.086  1.00  0.00    -0.082 Cl
ATOM     29  C20 UNL A   1       8.577   1.101  -0.718  1.00  0.00     0.024 A 
ATOM     30  C21 UNL A   1       7.298   0.527  -0.745  1.00  0.00     0.076 A 
ATOM     31 CL22 UNL A   1       7.080  -0.743  -1.905  1.00  0.00    -0.081 Cl
ENDBRANCH   5  24
TORSDOF 4
