REMARK  7 active torsions:
REMARK  status: ('A' for Active; 'I' for Inactive)
REMARK    1  A    between atoms: C3_3  and  C4_4 
REMARK       I    between atoms: C4_4  and  N6_6 
REMARK    2  A    between atoms: N6_6  and  N7_7 
REMARK    3  A    between atoms: N16_16  and  C17_17 
REMARK    4  A    between atoms: C25_25  and  C26_26 
REMARK    5  A    between atoms: C29_29  and  C30_30 
REMARK    6  A    between atoms: C31_31  and  C32_32 
REMARK    7  A    between atoms: C32_32  and  C33_33 
ROOT
ATOM      1  C33 UNL A   1       4.126  10.240  -0.774  1.00  0.00     0.119 C 
ATOM      2  C34 UNL A   1       4.839   9.689  -1.936  1.00  0.00     0.075 C 
ATOM      3  N35 UNL A   1       5.409   9.258  -2.850  1.00  0.00    -0.196 NA
ENDROOT
BRANCH   1   4
ATOM      4  C32 UNL A   1       2.733   9.633  -0.611  1.00  0.00     0.092 C 
BRANCH   4   5
ATOM      5  C31 UNL A   1       2.778   8.185  -0.346  1.00  0.00    -0.085 C 
ATOM      6  C30 UNL A   1       2.855   6.992  -0.210  1.00  0.00    -0.064 C 
BRANCH   6   7
ATOM      7  C29 UNL A   1       3.015   5.568  -0.157  1.00  0.00     0.042 A 
ATOM      8  C28 UNL A   1       4.038   4.970  -0.890  1.00  0.00     0.008 A 
ATOM      9  C27 UNL A   1       4.190   3.576  -0.895  1.00  0.00     0.002 A 
ATOM     10  C26 UNL A   1       3.384   2.744  -0.103  1.00  0.00     0.018 A 
ATOM     11  C37 UNL A   1       2.356   3.366   0.628  1.00  0.00     0.002 A 
ATOM     12  C36 UNL A   1       2.160   4.760   0.588  1.00  0.00     0.008 A 
BRANCH  10  13
ATOM     13  C25 UNL A   1       3.603   1.270  -0.035  1.00  0.00     0.081 A 
ATOM     14  C2  UNL A   1       2.654   0.239  -0.048  1.00  0.00     0.020 A 
ATOM     15  C1  UNL A   1       1.170   0.385  -0.104  1.00  0.00     0.034 C 
ATOM     16  C3  UNL A   1       3.393  -0.988  -0.030  1.00  0.00     0.156 A 
ATOM     17  N15 UNL A   1       4.712  -0.741  -0.017  1.00  0.00    -0.161 NA
ATOM     18  N16 UNL A   1       4.844   0.610  -0.063  1.00  0.00    -0.229 N 
BRANCH  16  19
ATOM     19  C4  UNL A   1       2.880  -2.383  -0.030  1.00  0.00     0.290 C 
ATOM     20  O5  UNL A   1       1.679  -2.653  -0.049  1.00  0.00    -0.264 OA
ATOM     21  N6  UNL A   1       3.870  -3.371   0.006  1.00  0.00    -0.265 N 
ATOM     22  H38 UNL A   1       4.821  -3.119  -0.039  1.00  0.00     0.190 HD
BRANCH  21  23
ATOM     23  N7  UNL A   1       3.510  -4.710   0.106  1.00  0.00    -0.290 N 
ATOM     24  C8  UNL A   1       3.309  -5.497  -1.097  1.00  0.00     0.137 C 
ATOM     25  C9  UNL A   1       1.990  -6.247  -1.011  1.00  0.00     0.148 C 
ATOM     26  S10 UNL A   1       1.917  -7.236   0.464  1.00  0.00     0.174 S 
ATOM     27  O11 UNL A   1       0.532  -7.593   0.703  1.00  0.00    -0.226 OA
ATOM     28  O12 UNL A   1       2.929  -8.276   0.366  1.00  0.00    -0.226 OA
ATOM     29  C13 UNL A   1       2.420  -6.103   1.742  1.00  0.00     0.148 C 
ATOM     30  C14 UNL A   1       3.719  -5.421   1.351  1.00  0.00     0.137 C 
ENDBRANCH  21  23
ENDBRANCH  16  19
BRANCH  18  31
ATOM     31  C17 UNL A   1       6.162   1.159  -0.048  1.00  0.00     0.093 A 
ATOM     32  C18 UNL A   1       6.432   2.288   0.747  1.00  0.00     0.021 A 
ATOM     33  C19 UNL A   1       7.691   2.893   0.720  1.00  0.00     0.013 A 
ATOM     34  C20 UNL A   1       8.702   2.350  -0.067  1.00  0.00     0.059 A 
ATOM     35 CL21 UNL A   1      10.249   3.099  -0.105  1.00  0.00    -0.082 Cl
ATOM     36  C22 UNL A   1       8.464   1.212  -0.832  1.00  0.00     0.024 A 
ATOM     37  C23 UNL A   1       7.197   0.612  -0.831  1.00  0.00     0.076 A 
ATOM     38 CL24 UNL A   1       6.991  -0.698  -1.946  1.00  0.00    -0.081 Cl
ENDBRANCH  18  31
ENDBRANCH  10  13
ENDBRANCH   6   7
ENDBRANCH   4   5
ENDBRANCH   1   4
TORSDOF 7
