MODEL 1
REMARK VINA RESULT:   -12.635      0.000      0.000
REMARK INTER + INTRA:          -7.253
REMARK INTER:                 -15.590
REMARK INTRA:                   8.337
REMARK UNBOUND:                 8.337
REMARK  4 active torsions:
REMARK  status: ('A' for Active; 'I' for Inactive)
REMARK    1  A    between atoms: C3_3  and  C4_4 
REMARK       I    between atoms: C4_4  and  N6_6 
REMARK    2  A    between atoms: N6_6  and  N7_7 
REMARK    3  A    between atoms: N15_15  and  C16_16 
REMARK    4  A    between atoms: C24_24  and  C25_25 
ROOT
ATOM      1  C1  UNL A   1      -6.160  -1.684  12.062  1.00  0.00     0.034 C 
ATOM      2  C2  UNL A   1      -6.318  -2.397  10.761  1.00  0.00     0.020 C 
ATOM      3  C3  UNL A   1      -7.393  -3.263  10.386  1.00  0.00     0.155 C 
ATOM      4  N14 UNL A   1      -7.285  -3.607   9.093  1.00  0.00    -0.161 NA
ATOM      5  N15 UNL A   1      -6.067  -3.161   8.692  1.00  0.00    -0.229 N 
ATOM      6  C24 UNL A   1      -5.478  -2.316   9.640  1.00  0.00     0.081 C 
ENDROOT
BRANCH   3   7
ATOM      7  C4  UNL A   1      -8.547  -3.754  11.186  1.00  0.00     0.287 C 
ATOM      8  O5  UNL A   1      -8.493  -3.936  12.399  1.00  0.00    -0.265 OA
ATOM      9  N6  UNL A   1      -9.679  -3.991  10.401  1.00  0.00    -0.282 N 
ATOM     10  H32 UNL A   1      -9.603  -3.833   9.432  1.00  0.00     0.184 HD
BRANCH   9  11
ATOM     11  N7  UNL A   1     -10.935  -4.442  10.897  1.00  0.00    -0.199 NA
ATOM     12  C8  UNL A   1     -11.919  -3.367  11.034  1.00  0.00     0.094 C 
ATOM     13  C9  UNL A   1     -12.876  -3.603  12.212  1.00  0.00     0.019 C 
ATOM     14  C10 UNL A   1     -14.014  -4.582  11.948  1.00  0.00     0.002 C 
ATOM     15  C11 UNL A   1     -13.567  -5.985  11.562  1.00  0.00     0.002 C 
ATOM     16  C12 UNL A   1     -12.865  -6.018  10.210  1.00  0.00     0.019 C 
ATOM     17  C13 UNL A   1     -11.371  -5.682  10.247  1.00  0.00     0.094 C 
ENDBRANCH   9  11
ENDBRANCH   3   7
BRANCH   6  18
ATOM     18  C25 UNL A   1      -4.263  -1.490   9.433  1.00  0.00     0.018 A 
ATOM     19  C26 UNL A   1      -3.048  -1.776  10.081  1.00  0.00     0.002 A 
ATOM     20  C27 UNL A   1      -1.943  -0.921   9.960  1.00  0.00     0.011 A 
ATOM     21  C28 UNL A   1      -2.017   0.205   9.145  1.00  0.00     0.058 A 
ATOM     22 CL29 UNL A   1      -0.668   1.260   9.015  1.00  0.00    -0.082 Cl
ATOM     23  C30 UNL A   1      -3.187   0.479   8.450  1.00  0.00     0.011 A 
ATOM     24  C31 UNL A   1      -4.302  -0.354   8.604  1.00  0.00     0.002 A 
ENDBRANCH   6  18
BRANCH   5  25
ATOM     25  C16 UNL A   1      -5.642  -3.550   7.389  1.00  0.00     0.093 A 
ATOM     26  C17 UNL A   1      -6.132  -2.790   6.305  1.00  0.00     0.021 A 
ATOM     27  C18 UNL A   1      -5.754  -3.088   4.996  1.00  0.00     0.013 A 
ATOM     28  C19 UNL A   1      -4.891  -4.150   4.757  1.00  0.00     0.059 A 
ATOM     29 CL20 UNL A   1      -4.431  -4.528   3.143  1.00  0.00    -0.082 Cl
ATOM     30  C21 UNL A   1      -4.425  -4.932   5.813  1.00  0.00     0.024 A 
ATOM     31  C22 UNL A   1      -4.817  -4.654   7.130  1.00  0.00     0.076 A 
ATOM     32 CL23 UNL A   1      -4.394  -5.844   8.309  1.00  0.00    -0.081 Cl
ENDBRANCH   5  25
TORSDOF 4
BEGIN_RES SER A 173
REMARK  2 active torsions:
REMARK  status: ('A' for Active; 'I' for Inactive)
REMARK    1  A    between atoms: CA   and  CB  
REMARK    2  A    between atoms: CB   and  OG  
ROOT
ATOM      1  CA  SER A 173      -4.540 -11.597  11.543  1.00127.03     0.292 C 
ENDROOT
BRANCH   1   2
ATOM      2  CB  SER A 173      -4.003 -10.168  11.569  1.00131.20     0.194 C 
BRANCH   2   3
ATOM      3  OG  SER A 173      -3.946  -9.664  12.892  1.00137.49    -0.550 OA
ATOM      4  HG  SER A 173      -3.353 -10.176  13.431  1.00  0.00     0.310 HD
ENDBRANCH   2   3
ENDBRANCH   1   2
END_RES SER A 173
BEGIN_RES SER A 383
REMARK  2 active torsions:
REMARK  status: ('A' for Active; 'I' for Inactive)
REMARK    3  A    between atoms: CA   and  CB  
REMARK    4  A    between atoms: CB   and  OG  
ROOT
ATOM      5  CA  SER A 383      -8.934   0.934   8.031  1.00 88.23     0.292 C 
ENDROOT
BRANCH   5   6
ATOM      6  CB  SER A 383      -8.589   0.249   9.352  1.00 82.13     0.194 C 
BRANCH   6   7
ATOM      7  OG  SER A 383      -7.362   0.730   9.870  1.00 85.59    -0.550 OA
ATOM      8  HG  SER A 383      -6.633   0.472   9.318  1.00  0.00     0.310 HD
ENDBRANCH   6   7
ENDBRANCH   5   6
END_RES SER A 383
ENDMDL
MODEL 2
REMARK VINA RESULT:    -9.929      5.099     10.921
REMARK INTER + INTRA:          -3.914
REMARK INTER:                 -12.398
REMARK INTRA:                   8.484
REMARK UNBOUND:                 8.337
REMARK  4 active torsions:
REMARK  status: ('A' for Active; 'I' for Inactive)
REMARK    1  A    between atoms: C3_3  and  C4_4 
REMARK       I    between atoms: C4_4  and  N6_6 
REMARK    2  A    between atoms: N6_6  and  N7_7 
REMARK    3  A    between atoms: N15_15  and  C16_16 
REMARK    4  A    between atoms: C24_24  and  C25_25 
ROOT
ATOM      1  C1  UNL A   1     -11.348  -6.456  12.201  1.00  0.00     0.034 C 
ATOM      2  C2  UNL A   1     -12.194  -5.231  12.304  1.00  0.00     0.020 C 
ATOM      3  C3  UNL A   1     -11.914  -3.949  11.735  1.00  0.00     0.155 C 
ATOM      4  N14 UNL A   1     -12.962  -3.127  11.900  1.00  0.00    -0.161 NA
ATOM      5  N15 UNL A   1     -13.813  -3.775  12.736  1.00  0.00    -0.229 N 
ATOM      6  C24 UNL A   1     -13.446  -5.112  12.927  1.00  0.00     0.081 C 
ENDROOT
BRANCH   3   7
ATOM      7  C4  UNL A   1     -10.709  -3.471  11.005  1.00  0.00     0.287 C 
ATOM      8  O5  UNL A   1     -10.730  -3.133   9.825  1.00  0.00    -0.265 OA
ATOM      9  N6  UNL A   1      -9.565  -3.464  11.809  1.00  0.00    -0.282 N 
ATOM     10  H32 UNL A   1      -9.658  -3.779  12.738  1.00  0.00     0.184 HD
BRANCH   9  11
ATOM     11  N7  UNL A   1      -8.275  -3.034  11.386  1.00  0.00    -0.199 NA
ATOM     12  C8  UNL A   1      -7.345  -2.827  12.497  1.00  0.00     0.094 C 
ATOM     13  C9  UNL A   1      -6.347  -1.694  12.215  1.00  0.00     0.019 C 
ATOM     14  C10 UNL A   1      -5.167  -2.065  11.325  1.00  0.00     0.002 C 
ATOM     15  C11 UNL A   1      -5.551  -2.560   9.937  1.00  0.00     0.002 C 
ATOM     16  C12 UNL A   1      -6.284  -3.895   9.980  1.00  0.00     0.019 C 
ATOM     17  C13 UNL A   1      -7.792  -3.797  10.231  1.00  0.00     0.094 C 
ENDBRANCH   9  11
ENDBRANCH   3   7
BRANCH   6  18
ATOM     18  C25 UNL A   1     -14.266  -6.151  13.596  1.00  0.00     0.018 A 
ATOM     19  C26 UNL A   1     -14.913  -7.169  12.873  1.00  0.00     0.002 A 
ATOM     20  C27 UNL A   1     -15.773  -8.076  13.508  1.00  0.00     0.011 A 
ATOM     21  C28 UNL A   1     -15.959  -8.014  14.887  1.00  0.00     0.058 A 
ATOM     22 CL29 UNL A   1     -17.029  -9.114  15.658  1.00  0.00    -0.082 Cl
ATOM     23  C30 UNL A   1     -15.288  -7.054  15.631  1.00  0.00     0.011 A 
ATOM     24  C31 UNL A   1     -14.461  -6.124  14.990  1.00  0.00     0.002 A 
ENDBRANCH   6  18
BRANCH   5  25
ATOM     25  C16 UNL A   1     -14.939  -3.035  13.201  1.00  0.00     0.093 A 
ATOM     26  C17 UNL A   1     -15.989  -2.828  12.280  1.00  0.00     0.021 A 
ATOM     27  C18 UNL A   1     -17.137  -2.129  12.654  1.00  0.00     0.013 A 
ATOM     28  C19 UNL A   1     -17.244  -1.627  13.945  1.00  0.00     0.059 A 
ATOM     29 CL20 UNL A   1     -18.654  -0.757  14.407  1.00  0.00    -0.082 Cl
ATOM     30  C21 UNL A   1     -16.202  -1.794  14.856  1.00  0.00     0.024 A 
ATOM     31  C22 UNL A   1     -15.034  -2.475  14.482  1.00  0.00     0.076 A 
ATOM     32 CL23 UNL A   1     -13.719  -2.382  15.600  1.00  0.00    -0.081 Cl
ENDBRANCH   5  25
TORSDOF 4
BEGIN_RES SER A 173
REMARK  2 active torsions:
REMARK  status: ('A' for Active; 'I' for Inactive)
REMARK    1  A    between atoms: CA   and  CB  
REMARK    2  A    between atoms: CB   and  OG  
ROOT
ATOM      1  CA  SER A 173      -4.540 -11.597  11.543  1.00127.03     0.292 C 
ENDROOT
BRANCH   1   2
ATOM      2  CB  SER A 173      -4.003 -10.168  11.569  1.00131.20     0.194 C 
BRANCH   2   3
ATOM      3  OG  SER A 173      -3.937  -9.668  12.893  1.00137.49    -0.550 OA
ATOM      4  HG  SER A 173      -4.098 -10.354  13.530  1.00  0.00     0.310 HD
ENDBRANCH   2   3
ENDBRANCH   1   2
END_RES SER A 173
BEGIN_RES SER A 383
REMARK  2 active torsions:
REMARK  status: ('A' for Active; 'I' for Inactive)
REMARK    3  A    between atoms: CA   and  CB  
REMARK    4  A    between atoms: CB   and  OG  
ROOT
ATOM      5  CA  SER A 383      -8.934   0.934   8.031  1.00 88.23     0.292 C 
ENDROOT
BRANCH   5   6
ATOM      6  CB  SER A 383      -8.589   0.249   9.352  1.00 82.13     0.194 C 
BRANCH   6   7
ATOM      7  OG  SER A 383      -7.314   0.652   9.817  1.00 85.59    -0.550 OA
ATOM      8  HG  SER A 383      -7.326   1.557  10.108  1.00  0.00     0.310 HD
ENDBRANCH   6   7
ENDBRANCH   5   6
END_RES SER A 383
ENDMDL
