MODEL 1
REMARK VINA RESULT:   -12.674      0.000      0.000
REMARK INTER + INTRA:         -11.191
REMARK INTER:                 -19.343
REMARK INTRA:                   8.151
REMARK UNBOUND:                 8.151
REMARK  9 active torsions:
REMARK  status: ('A' for Active; 'I' for Inactive)
REMARK    1  A    between atoms: C3_3  and  C4_4 
REMARK       I    between atoms: C4_4  and  N6_6 
REMARK    2  A    between atoms: N6_6  and  N7_7 
REMARK    3  A    between atoms: N14_14  and  C15_15 
REMARK    4  A    between atoms: C23_23  and  C24_24 
REMARK    5  A    between atoms: C27_27  and  C28_28 
REMARK    6  A    between atoms: C29_29  and  C30_30 
REMARK    7  A    between atoms: C30_30  and  C31_31 
REMARK    8  A    between atoms: C31_31  and  O32_32 
REMARK    9  A    between atoms: O32_32  and  N33_33 
ROOT
ATOM      1  C1  UNL A   1      -6.497  -1.735  11.951  1.00  0.00     0.034 C 
ATOM      2  C2  UNL A   1      -6.581  -2.482  10.663  1.00  0.00     0.020 A 
ATOM      3  C3  UNL A   1      -7.605  -3.412  10.281  1.00  0.00     0.155 A 
ATOM      4  N13 UNL A   1      -7.394  -3.847   9.034  1.00  0.00    -0.161 NA
ATOM      5  N14 UNL A   1      -6.269  -3.232   8.592  1.00  0.00    -0.229 N 
ATOM      6  C23 UNL A   1      -5.708  -2.387   9.567  1.00  0.00     0.081 A 
ENDROOT
BRANCH   6   7
ATOM      7  C24 UNL A   1      -4.511  -1.509   9.385  1.00  0.00     0.018 A 
ATOM      8  C25 UNL A   1      -3.297  -1.769  10.043  1.00  0.00     0.002 A 
ATOM      9  C26 UNL A   1      -2.203  -0.894   9.947  1.00  0.00     0.008 A 
ATOM     10  C27 UNL A   1      -2.258   0.224   9.124  1.00  0.00     0.042 A 
ATOM     11  C36 UNL A   1      -3.427   0.471   8.405  1.00  0.00     0.008 A 
ATOM     12  C37 UNL A   1      -4.545  -0.377   8.551  1.00  0.00     0.002 A 
BRANCH  10  13
ATOM     13  C28 UNL A   1      -1.106   1.079   9.010  1.00  0.00    -0.064 C 
ATOM     14  C29 UNL A   1      -0.158   1.796   8.823  1.00  0.00    -0.084 C 
BRANCH  14  15
ATOM     15  C30 UNL A   1       0.952   2.711   8.506  1.00  0.00     0.111 C 
BRANCH  15  16
ATOM     16  C31 UNL A   1       1.984   2.818   9.628  1.00  0.00     0.194 C 
BRANCH  16  17
ATOM     17  O32 UNL A   1       1.573   1.937  10.675  1.00  0.00    -0.201 OA
BRANCH  17  18
ATOM     18  N33 UNL A   1       2.484   1.908  11.759  1.00  0.00     0.006 N 
ATOM     19  O34 UNL A   1       2.046   2.205  12.871  1.00  0.00    -0.511 OA
ATOM     20  O35 UNL A   1       3.617   1.578  11.419  1.00  0.00    -0.511 OA
ENDBRANCH  17  18
ENDBRANCH  16  17
ENDBRANCH  15  16
ENDBRANCH  14  15
ENDBRANCH  10  13
ENDBRANCH   6   7
BRANCH   5  21
ATOM     21  C15 UNL A   1      -5.781  -3.577   7.293  1.00  0.00     0.093 A 
ATOM     22  C16 UNL A   1      -6.191  -2.828   6.175  1.00  0.00     0.021 A 
ATOM     23  C17 UNL A   1      -5.761  -3.174   4.890  1.00  0.00     0.013 A 
ATOM     24  C18 UNL A   1      -4.891  -4.245   4.714  1.00  0.00     0.059 A 
ATOM     25 CL19 UNL A   1      -4.368  -4.672   3.133  1.00  0.00    -0.082 Cl
ATOM     26  C20 UNL A   1      -4.450  -4.978   5.812  1.00  0.00     0.024 A 
ATOM     27  C21 UNL A   1      -4.892  -4.654   7.102  1.00  0.00     0.076 A 
ATOM     28 CL22 UNL A   1      -4.390  -5.745   8.352  1.00  0.00    -0.081 Cl
ENDBRANCH   5  21
BRANCH   3  29
ATOM     29  C4  UNL A   1      -8.780  -3.911  11.062  1.00  0.00     0.287 C 
ATOM     30  O5  UNL A   1      -8.695  -4.255  12.239  1.00  0.00    -0.265 OA
ATOM     31  N6  UNL A   1      -9.963  -3.955  10.314  1.00  0.00    -0.282 N 
ATOM     32  H38 UNL A   1      -9.925  -3.612   9.392  1.00  0.00     0.184 HD
BRANCH  31  33
ATOM     33  N7  UNL A   1     -11.225  -4.454  10.773  1.00  0.00    -0.199 NA
ATOM     34  C8  UNL A   1     -12.246  -3.408  10.932  1.00  0.00     0.094 C 
ATOM     35  C9  UNL A   1     -13.531  -3.958  11.564  1.00  0.00     0.019 C 
ATOM     36  C10 UNL A   1     -14.076  -5.146  10.782  1.00  0.00     0.003 C 
ATOM     37  C11 UNL A   1     -12.986  -6.198  10.600  1.00  0.00     0.019 C 
ATOM     38  C12 UNL A   1     -11.717  -5.593   9.983  1.00  0.00     0.094 C 
ENDBRANCH  31  33
ENDBRANCH   3  29
TORSDOF 9
BEGIN_RES SER A 173
REMARK  2 active torsions:
REMARK  status: ('A' for Active; 'I' for Inactive)
REMARK    1  A    between atoms: CA   and  CB  
REMARK    2  A    between atoms: CB   and  OG  
ROOT
ATOM      1  CA  SER A 173      -4.540 -11.597  11.543  1.00127.03     0.292 C 
ENDROOT
BRANCH   1   2
ATOM      2  CB  SER A 173      -4.003 -10.168  11.569  1.00131.20     0.194 C 
BRANCH   2   3
ATOM      3  OG  SER A 173      -3.933  -9.669  12.894  1.00137.49    -0.550 OA
ATOM      4  HG  SER A 173      -3.331 -10.179  13.423  1.00  0.00     0.310 HD
ENDBRANCH   2   3
ENDBRANCH   1   2
END_RES SER A 173
BEGIN_RES SER A 383
REMARK  2 active torsions:
REMARK  status: ('A' for Active; 'I' for Inactive)
REMARK    3  A    between atoms: CA   and  CB  
REMARK    4  A    between atoms: CB   and  OG  
ROOT
ATOM      5  CA  SER A 383      -8.934   0.934   8.031  1.00 88.23     0.292 C 
ENDROOT
BRANCH   5   6
ATOM      6  CB  SER A 383      -8.589   0.249   9.352  1.00 82.13     0.194 C 
BRANCH   6   7
ATOM      7  OG  SER A 383      -7.452   0.843   9.952  1.00 85.59    -0.550 OA
ATOM      8  HG  SER A 383      -6.652   0.557   9.525  1.00  0.00     0.310 HD
ENDBRANCH   6   7
ENDBRANCH   5   6
END_RES SER A 383
ENDMDL
MODEL 2
REMARK VINA RESULT:   -11.127      1.742      2.299
REMARK INTER + INTRA:          -8.831
REMARK INTER:                 -17.109
REMARK INTRA:                   8.278
REMARK UNBOUND:                 8.151
REMARK  9 active torsions:
REMARK  status: ('A' for Active; 'I' for Inactive)
REMARK    1  A    between atoms: C3_3  and  C4_4 
REMARK       I    between atoms: C4_4  and  N6_6 
REMARK    2  A    between atoms: N6_6  and  N7_7 
REMARK    3  A    between atoms: N14_14  and  C15_15 
REMARK    4  A    between atoms: C23_23  and  C24_24 
REMARK    5  A    between atoms: C27_27  and  C28_28 
REMARK    6  A    between atoms: C29_29  and  C30_30 
REMARK    7  A    between atoms: C30_30  and  C31_31 
REMARK    8  A    between atoms: C31_31  and  O32_32 
REMARK    9  A    between atoms: O32_32  and  N33_33 
ROOT
ATOM      1  C1  UNL A   1      -7.196  -2.106  12.089  1.00  0.00     0.034 C 
ATOM      2  C2  UNL A   1      -7.163  -2.729  10.734  1.00  0.00     0.020 A 
ATOM      3  C3  UNL A   1      -8.181  -3.555  10.149  1.00  0.00     0.155 A 
ATOM      4  N13 UNL A   1      -7.844  -3.890   8.899  1.00  0.00    -0.161 NA
ATOM      5  N14 UNL A   1      -6.644  -3.309   8.650  1.00  0.00    -0.229 N 
ATOM      6  C23 UNL A   1      -6.162  -2.590   9.759  1.00  0.00     0.081 A 
ENDROOT
BRANCH   6   7
ATOM      7  C24 UNL A   1      -4.909  -1.775   9.800  1.00  0.00     0.018 A 
ATOM      8  C25 UNL A   1      -4.931  -0.377   9.657  1.00  0.00     0.002 A 
ATOM      9  C26 UNL A   1      -3.749   0.379   9.601  1.00  0.00     0.008 A 
ATOM     10  C27 UNL A   1      -2.510  -0.228   9.768  1.00  0.00     0.042 A 
ATOM     11  C36 UNL A   1      -2.461  -1.605   9.980  1.00  0.00     0.008 A 
ATOM     12  C37 UNL A   1      -3.646  -2.369   9.975  1.00  0.00     0.002 A 
BRANCH  10  13
ATOM     13  C28 UNL A   1      -1.318   0.577   9.750  1.00  0.00    -0.064 C 
ATOM     14  C29 UNL A   1      -0.336   1.270   9.824  1.00  0.00    -0.084 C 
BRANCH  14  15
ATOM     15  C30 UNL A   1       0.868   2.094  10.020  1.00  0.00     0.111 C 
BRANCH  15  16
ATOM     16  C31 UNL A   1       1.320   2.814   8.749  1.00  0.00     0.194 C 
BRANCH  16  17
ATOM     17  O32 UNL A   1       0.145   3.230   8.051  1.00  0.00    -0.201 OA
BRANCH  17  18
ATOM     18  N33 UNL A   1       0.284   3.153   6.644  1.00  0.00     0.006 N 
ATOM     19  O34 UNL A   1       0.724   2.101   6.178  1.00  0.00    -0.511 OA
ATOM     20  O35 UNL A   1      -0.067   4.184   6.075  1.00  0.00    -0.511 OA
ENDBRANCH  17  18
ENDBRANCH  16  17
ENDBRANCH  15  16
ENDBRANCH  14  15
ENDBRANCH  10  13
ENDBRANCH   6   7
BRANCH   5  21
ATOM     21  C15 UNL A   1      -6.022  -3.566   7.388  1.00  0.00     0.093 A 
ATOM     22  C16 UNL A   1      -6.372  -2.788   6.270  1.00  0.00     0.021 A 
ATOM     23  C17 UNL A   1      -5.809  -3.049   5.017  1.00  0.00     0.013 A 
ATOM     24  C18 UNL A   1      -4.868  -4.064   4.877  1.00  0.00     0.059 A 
ATOM     25 CL19 UNL A   1      -4.181  -4.388   3.334  1.00  0.00    -0.082 Cl
ATOM     26  C20 UNL A   1      -4.487  -4.824   5.979  1.00  0.00     0.024 A 
ATOM     27  C21 UNL A   1      -5.060  -4.584   7.235  1.00  0.00     0.076 A 
ATOM     28 CL22 UNL A   1      -4.612  -5.706   8.479  1.00  0.00    -0.081 Cl
ENDBRANCH   5  21
BRANCH   3  29
ATOM     29  C4  UNL A   1      -9.464  -4.049  10.739  1.00  0.00     0.287 C 
ATOM     30  O5  UNL A   1      -9.516  -5.012  11.502  1.00  0.00    -0.265 OA
ATOM     31  N6  UNL A   1     -10.582  -3.314  10.326  1.00  0.00    -0.282 N 
ATOM     32  H38 UNL A   1     -10.418  -2.533   9.750  1.00  0.00     0.184 HD
BRANCH  31  33
ATOM     33  N7  UNL A   1     -11.943  -3.597  10.669  1.00  0.00    -0.199 NA
ATOM     34  C8  UNL A   1     -12.329  -4.996  10.430  1.00  0.00     0.094 C 
ATOM     35  C9  UNL A   1     -13.828  -5.222  10.667  1.00  0.00     0.019 C 
ATOM     36  C10 UNL A   1     -14.251  -4.762  12.057  1.00  0.00     0.003 C 
ATOM     37  C11 UNL A   1     -13.806  -3.322  12.291  1.00  0.00     0.019 C 
ATOM     38  C12 UNL A   1     -12.305  -3.146  12.021  1.00  0.00     0.094 C 
ENDBRANCH  31  33
ENDBRANCH   3  29
TORSDOF 9
BEGIN_RES SER A 173
REMARK  2 active torsions:
REMARK  status: ('A' for Active; 'I' for Inactive)
REMARK    1  A    between atoms: CA   and  CB  
REMARK    2  A    between atoms: CB   and  OG  
ROOT
ATOM      1  CA  SER A 173      -4.540 -11.597  11.543  1.00127.03     0.292 C 
ENDROOT
BRANCH   1   2
ATOM      2  CB  SER A 173      -4.003 -10.168  11.569  1.00131.20     0.194 C 
BRANCH   2   3
ATOM      3  OG  SER A 173      -3.943  -9.665  12.893  1.00137.49    -0.550 OA
ATOM      4  HG  SER A 173      -4.000 -10.366  13.531  1.00  0.00     0.310 HD
ENDBRANCH   2   3
ENDBRANCH   1   2
END_RES SER A 173
BEGIN_RES SER A 383
REMARK  2 active torsions:
REMARK  status: ('A' for Active; 'I' for Inactive)
REMARK    3  A    between atoms: CA   and  CB  
REMARK    4  A    between atoms: CB   and  OG  
ROOT
ATOM      5  CA  SER A 383      -8.934   0.934   8.031  1.00 88.23     0.292 C 
ENDROOT
BRANCH   5   6
ATOM      6  CB  SER A 383      -8.589   0.249   9.352  1.00 82.13     0.194 C 
BRANCH   6   7
ATOM      7  OG  SER A 383      -8.003   1.162  10.262  1.00 85.59    -0.550 OA
ATOM      8  HG  SER A 383      -8.640   1.468  10.897  1.00  0.00     0.310 HD
ENDBRANCH   6   7
ENDBRANCH   5   6
END_RES SER A 383
ENDMDL
MODEL 3
REMARK VINA RESULT:    -9.732      4.805      7.752
REMARK INTER + INTRA:          -6.701
REMARK INTER:                 -15.204
REMARK INTRA:                   8.503
REMARK UNBOUND:                 8.151
REMARK  9 active torsions:
REMARK  status: ('A' for Active; 'I' for Inactive)
REMARK    1  A    between atoms: C3_3  and  C4_4 
REMARK       I    between atoms: C4_4  and  N6_6 
REMARK    2  A    between atoms: N6_6  and  N7_7 
REMARK    3  A    between atoms: N14_14  and  C15_15 
REMARK    4  A    between atoms: C23_23  and  C24_24 
REMARK    5  A    between atoms: C27_27  and  C28_28 
REMARK    6  A    between atoms: C29_29  and  C30_30 
REMARK    7  A    between atoms: C30_30  and  C31_31 
REMARK    8  A    between atoms: C31_31  and  O32_32 
REMARK    9  A    between atoms: O32_32  and  N33_33 
ROOT
ATOM      1  C1  UNL A   1      -7.161  -3.965  10.618  1.00  0.00     0.034 C 
ATOM      2  C2  UNL A   1      -6.049  -2.980  10.751  1.00  0.00     0.020 A 
ATOM      3  C3  UNL A   1      -5.622  -2.332  11.959  1.00  0.00     0.155 A 
ATOM      4  N13 UNL A   1      -4.559  -1.556  11.718  1.00  0.00    -0.161 NA
ATOM      5  N14 UNL A   1      -4.279  -1.678  10.397  1.00  0.00    -0.229 N 
ATOM      6  C23 UNL A   1      -5.182  -2.535   9.740  1.00  0.00     0.081 A 
ENDROOT
BRANCH   6   7
ATOM      7  C24 UNL A   1      -5.118  -2.942   8.302  1.00  0.00     0.018 A 
ATOM      8  C25 UNL A   1      -4.615  -4.195   7.911  1.00  0.00     0.002 A 
ATOM      9  C26 UNL A   1      -4.466  -4.542   6.559  1.00  0.00     0.008 A 
ATOM     10  C27 UNL A   1      -4.893  -3.681   5.554  1.00  0.00     0.042 A 
ATOM     11  C36 UNL A   1      -5.459  -2.458   5.914  1.00  0.00     0.008 A 
ATOM     12  C37 UNL A   1      -5.551  -2.089   7.272  1.00  0.00     0.002 A 
BRANCH  10  13
ATOM     13  C28 UNL A   1      -4.769  -4.080   4.177  1.00  0.00    -0.064 C 
ATOM     14  C29 UNL A   1      -4.580  -4.376   3.026  1.00  0.00    -0.084 C 
BRANCH  14  15
ATOM     15  C30 UNL A   1      -4.244  -4.739   1.639  1.00  0.00     0.111 C 
BRANCH  15  16
ATOM     16  C31 UNL A   1      -2.866  -4.243   1.203  1.00  0.00     0.194 C 
BRANCH  16  17
ATOM     17  O32 UNL A   1      -2.792  -2.851   1.517  1.00  0.00    -0.201 OA
BRANCH  17  18
ATOM     18  N33 UNL A   1      -2.694  -2.031   0.367  1.00  0.00     0.006 N 
ATOM     19  O34 UNL A   1      -3.658  -1.311   0.105  1.00  0.00    -0.511 OA
ATOM     20  O35 UNL A   1      -1.623  -2.164  -0.221  1.00  0.00    -0.511 OA
ENDBRANCH  17  18
ENDBRANCH  16  17
ENDBRANCH  15  16
ENDBRANCH  14  15
ENDBRANCH  10  13
ENDBRANCH   6   7
BRANCH   5  21
ATOM     21  C15 UNL A   1      -3.213  -0.891   9.861  1.00  0.00     0.093 A 
ATOM     22  C16 UNL A   1      -1.882  -1.202  10.197  1.00  0.00     0.021 A 
ATOM     23  C17 UNL A   1      -0.827  -0.420   9.719  1.00  0.00     0.013 A 
ATOM     24  C18 UNL A   1      -1.086   0.655   8.875  1.00  0.00     0.059 A 
ATOM     25 CL19 UNL A   1       0.214   1.619   8.293  1.00  0.00    -0.082 Cl
ATOM     26  C20 UNL A   1      -2.393   0.959   8.507  1.00  0.00     0.024 A 
ATOM     27  C21 UNL A   1      -3.460   0.194   8.997  1.00  0.00     0.076 A 
ATOM     28 CL22 UNL A   1      -5.040   0.780   8.585  1.00  0.00    -0.081 Cl
ENDBRANCH   5  21
BRANCH   3  29
ATOM     29  C4  UNL A   1      -6.193  -2.416  13.339  1.00  0.00     0.287 C 
ATOM     30  O5  UNL A   1      -7.391  -2.593  13.551  1.00  0.00    -0.265 OA
ATOM     31  N6  UNL A   1      -5.232  -2.261  14.346  1.00  0.00    -0.282 N 
ATOM     32  H38 UNL A   1      -4.294  -2.171  14.062  1.00  0.00     0.184 HD
BRANCH  31  33
ATOM     33  N7  UNL A   1      -5.493  -2.224  15.754  1.00  0.00    -0.199 NA
ATOM     34  C8  UNL A   1      -4.368  -2.701  16.572  1.00  0.00     0.094 C 
ATOM     35  C9  UNL A   1      -4.740  -2.786  18.057  1.00  0.00     0.019 C 
ATOM     36  C10 UNL A   1      -5.276  -1.458  18.578  1.00  0.00     0.003 C 
ATOM     37  C11 UNL A   1      -6.416  -0.970  17.690  1.00  0.00     0.019 C 
ATOM     38  C12 UNL A   1      -5.999  -0.922  16.214  1.00  0.00     0.094 C 
ENDBRANCH  31  33
ENDBRANCH   3  29
TORSDOF 9
BEGIN_RES SER A 173
REMARK  2 active torsions:
REMARK  status: ('A' for Active; 'I' for Inactive)
REMARK    1  A    between atoms: CA   and  CB  
REMARK    2  A    between atoms: CB   and  OG  
ROOT
ATOM      1  CA  SER A 173      -4.540 -11.597  11.543  1.00127.03     0.292 C 
ENDROOT
BRANCH   1   2
ATOM      2  CB  SER A 173      -4.003 -10.168  11.569  1.00131.20     0.194 C 
BRANCH   2   3
ATOM      3  OG  SER A 173      -3.947  -9.664  12.892  1.00137.49    -0.550 OA
ATOM      4  HG  SER A 173      -3.154  -9.943  13.334  1.00  0.00     0.310 HD
ENDBRANCH   2   3
ENDBRANCH   1   2
END_RES SER A 173
BEGIN_RES SER A 383
REMARK  2 active torsions:
REMARK  status: ('A' for Active; 'I' for Inactive)
REMARK    3  A    between atoms: CA   and  CB  
REMARK    4  A    between atoms: CB   and  OG  
ROOT
ATOM      5  CA  SER A 383      -8.934   0.934   8.031  1.00 88.23     0.292 C 
ENDROOT
BRANCH   5   6
ATOM      6  CB  SER A 383      -8.589   0.249   9.352  1.00 82.13     0.194 C 
BRANCH   6   7
ATOM      7  OG  SER A 383      -8.057   1.175  10.282  1.00 85.59    -0.550 OA
ATOM      8  HG  SER A 383      -7.206   1.491  10.001  1.00  0.00     0.310 HD
ENDBRANCH   6   7
ENDBRANCH   5   6
END_RES SER A 383
ENDMDL
