REMARK  16 active torsions:
REMARK  status: ('A' for Active; 'I' for Inactive)
REMARK    1  A    between atoms: C3_3  and  C4_4 
REMARK       I    between atoms: C4_4  and  N6_6 
REMARK    2  A    between atoms: N6_6  and  N7_7 
REMARK    3  A    between atoms: N14_14  and  C15_15 
REMARK    4  A    between atoms: C23_23  and  C24_24 
REMARK    5  A    between atoms: C27_27  and  C28_28 
REMARK    6  A    between atoms: C29_29  and  C30_30 
REMARK    7  A    between atoms: C30_30  and  C31_31 
REMARK    8  A    between atoms: C31_31  and  O32_32 
REMARK    9  A    between atoms: O32_32  and  C33_33 
REMARK   10  A    between atoms: C33_33  and  C35_35 
REMARK   11  A    between atoms: C35_35  and  C36_36 
REMARK   12  A    between atoms: C36_36  and  C37_37 
REMARK   13  A    between atoms: C37_37  and  C38_38 
REMARK   14  A    between atoms: C38_38  and  C39_39 
REMARK   15  A    between atoms: C39_39  and  O41_41 
REMARK   16  A    between atoms: O41_41  and  C42_42 
ROOT
ATOM      1  C1  UNL A   1       5.973   0.998  -0.899  1.00  0.00     0.034 C 
ATOM      2  C2  UNL A   1       4.761   0.474  -0.202  1.00  0.00     0.020 C 
ATOM      3  C3  UNL A   1       4.439  -0.927  -0.066  1.00  0.00     0.155 C 
ATOM      4  N13 UNL A   1       3.231  -1.064   0.493  1.00  0.00    -0.161 NA
ATOM      5  N14 UNL A   1       2.787   0.188   0.734  1.00  0.00    -0.229 N 
ATOM      6  C23 UNL A   1       3.759   1.177   0.513  1.00  0.00     0.081 C 
ENDROOT
BRANCH   6   7
ATOM      7  C24 UNL A   1       3.636   2.619   0.975  1.00  0.00     0.018 C 
ATOM      8  C25 UNL A   1       2.723   3.078   1.948  1.00  0.00     0.002 C 
ATOM      9  C26 UNL A   1       2.385   4.459   2.122  1.00  0.00     0.008 C 
ATOM     10  C27 UNL A   1       3.033   5.449   1.393  1.00  0.00     0.042 C 
ATOM     11  C46 UNL A   1       4.114   5.016   0.636  1.00  0.00     0.008 C 
ATOM     12  C47 UNL A   1       4.387   3.638   0.396  1.00  0.00     0.002 C 
BRANCH  10  13
ATOM     13  C28 UNL A   1       2.580   6.820   1.246  1.00  0.00    -0.064 C 
ATOM     14  C29 UNL A   1       2.310   7.964   0.960  1.00  0.00    -0.084 C 
BRANCH  14  15
ATOM     15  C30 UNL A   1       2.139   9.402   0.566  1.00  0.00     0.109 C 
BRANCH  15  16
ATOM     16  C31 UNL A   1       0.742   9.820   0.093  1.00  0.00     0.166 C 
BRANCH  16  17
ATOM     17  O32 UNL A   1       0.551   9.622  -1.335  1.00  0.00    -0.301 OA
BRANCH  17  18
ATOM     18  C33 UNL A   1       0.861  10.686  -2.130  1.00  0.00     0.272 C 
ATOM     19  O34 UNL A   1       1.412  11.711  -1.741  1.00  0.00    -0.264 OA
BRANCH  18  20
ATOM     20  C35 UNL A   1       0.507  10.415  -3.576  1.00  0.00     0.096 C 
BRANCH  20  21
ATOM     21  C36 UNL A   1       1.751  10.308  -4.457  1.00  0.00     0.011 C 
BRANCH  21  22
ATOM     22  C37 UNL A   1       2.662   9.151  -4.068  1.00  0.00     0.011 C 
BRANCH  22  23
ATOM     23  C38 UNL A   1       1.940   7.831  -4.269  1.00  0.00     0.096 C 
BRANCH  23  24
ATOM     24  C39 UNL A   1       2.902   6.700  -4.202  1.00  0.00     0.272 C 
ATOM     25  O40 UNL A   1       3.892   6.559  -4.899  1.00  0.00    -0.264 OA
BRANCH  24  26
ATOM     26  O41 UNL A   1       2.484   5.894  -3.211  1.00  0.00    -0.307 OA
BRANCH  26  27
ATOM     27  C42 UNL A   1       3.276   4.845  -2.675  1.00  0.00     0.101 C 
ATOM     28  C43 UNL A   1       4.676   5.413  -2.319  1.00  0.00     0.030 C 
ATOM     29  C44 UNL A   1       2.223   4.351  -1.663  1.00  0.00     0.030 C 
ATOM     30  C45 UNL A   1       3.500   3.690  -3.637  1.00  0.00     0.030 C 
ENDBRANCH  26  27
ENDBRANCH  24  26
ENDBRANCH  23  24
ENDBRANCH  22  23
ENDBRANCH  21  22
ENDBRANCH  20  21
ENDBRANCH  18  20
ENDBRANCH  17  18
ENDBRANCH  16  17
ENDBRANCH  15  16
ENDBRANCH  14  15
ENDBRANCH  10  13
ENDBRANCH   6   7
BRANCH   5  31
ATOM     31  C15 UNL A   1       1.438   0.336   1.147  1.00  0.00     0.093 A 
ATOM     32  C16 UNL A   1       0.606   1.263   0.495  1.00  0.00     0.021 A 
ATOM     33  C17 UNL A   1      -0.692   1.483   0.967  1.00  0.00     0.013 A 
ATOM     34  C18 UNL A   1      -1.157   0.768   2.068  1.00  0.00     0.059 A 
ATOM     35 CL19 UNL A   1      -2.734   1.072   2.684  1.00  0.00    -0.082 Cl
ATOM     36  C20 UNL A   1      -0.348  -0.177   2.695  1.00  0.00     0.024 A 
ATOM     37  C21 UNL A   1       0.951  -0.403   2.236  1.00  0.00     0.076 A 
ATOM     38 CL22 UNL A   1       1.922  -1.481   3.182  1.00  0.00    -0.081 Cl
ENDBRANCH   5  31
BRANCH   3  39
ATOM     39  C4  UNL A   1       5.228  -2.153  -0.413  1.00  0.00     0.287 C 
ATOM     40  O5  UNL A   1       6.294  -2.114  -1.023  1.00  0.00    -0.265 OA
ATOM     41  N6  UNL A   1       4.629  -3.328   0.060  1.00  0.00    -0.282 N 
ATOM     42  H48 UNL A   1       3.775  -3.228   0.541  1.00  0.00     0.184 HD
BRANCH  41  43
ATOM     43  N7  UNL A   1       5.133  -4.655  -0.084  1.00  0.00    -0.199 NA
ATOM     44  C8  UNL A   1       5.337  -5.057  -1.482  1.00  0.00     0.094 C 
ATOM     45  C9  UNL A   1       5.715  -6.539  -1.596  1.00  0.00     0.019 C 
ATOM     46  C10 UNL A   1       6.933  -6.872  -0.741  1.00  0.00     0.003 C 
ATOM     47  C11 UNL A   1       6.708  -6.410   0.694  1.00  0.00     0.019 C 
ATOM     48  C12 UNL A   1       6.311  -4.928   0.753  1.00  0.00     0.094 C 
ENDBRANCH  41  43
ENDBRANCH   3  39
TORSDOF 16
