REMARK  4 active torsions:
REMARK  status: ('A' for Active; 'I' for Inactive)
REMARK    1  A    between atoms: C3_3  and  C4_4 
REMARK       I    between atoms: C4_4  and  N6_6 
REMARK    2  A    between atoms: N6_6  and  N7_7 
REMARK    3  A    between atoms: N14_14  and  C15_15 
REMARK    4  A    between atoms: C23_23  and  C24_24 
ROOT
ATOM      1  C1  UNL A   1       1.232   0.417  -0.126  1.00  0.00     0.034 C 
ATOM      2  C2  UNL A   1       2.716   0.273  -0.108  1.00  0.00     0.020 A 
ATOM      3  C3  UNL A   1       3.450  -0.955  -0.139  1.00  0.00     0.155 A 
ATOM      4  N13 UNL A   1       4.766  -0.710  -0.128  1.00  0.00    -0.161 NA
ATOM      5  N14 UNL A   1       4.911   0.637  -0.101  1.00  0.00    -0.229 N 
ATOM      6  C23 UNL A   1       3.673   1.301  -0.096  1.00  0.00     0.081 A 
ENDROOT
BRANCH   3   7
ATOM      7  C4  UNL A   1       2.959  -2.365  -0.180  1.00  0.00     0.287 C 
ATOM      8  O5  UNL A   1       1.763  -2.647  -0.126  1.00  0.00    -0.265 OA
ATOM      9  N6  UNL A   1       3.992  -3.291  -0.273  1.00  0.00    -0.282 N 
ATOM     10  H32 UNL A   1       4.907  -2.937  -0.346  1.00  0.00     0.184 HD
BRANCH   9  11
ATOM     11  N7  UNL A   1       3.839  -4.711  -0.273  1.00  0.00    -0.199 NA
ATOM     12  C8  UNL A   1       3.176  -5.226   0.936  1.00  0.00     0.094 C 
ATOM     13  C9  UNL A   1       3.172  -6.757   0.965  1.00  0.00     0.019 C 
ATOM     14  C10 UNL A   1       2.548  -7.338  -0.300  1.00  0.00     0.003 C 
ATOM     15  C11 UNL A   1       3.225  -6.754  -1.535  1.00  0.00     0.019 C 
ATOM     16  C12 UNL A   1       3.221  -5.221  -1.506  1.00  0.00     0.094 C 
ENDBRANCH   9  11
ENDBRANCH   3   7
BRANCH   6  17
ATOM     17  C24 UNL A   1       3.448   2.781  -0.139  1.00  0.00     0.028 A 
ATOM     18  C25 UNL A   1       2.436   3.327   0.680  1.00  0.00     0.003 A 
ATOM     19  C26 UNL A   1       2.140   4.698   0.684  1.00  0.00     0.011 A 
ATOM     20  C27 UNL A   1       2.903   5.569  -0.076  1.00  0.00     0.059 A 
ATOM     21 CL28 UNL A   1       2.571   7.257  -0.043  1.00  0.00    -0.082 Cl
ATOM     22  C29 UNL A   1       3.916   5.076  -0.886  1.00  0.00     0.023 A 
ATOM     23  C30 UNL A   1       4.147   3.691  -0.965  1.00  0.00     0.060 A 
ATOM     24 CL31 UNL A   1       5.254   3.201  -2.203  1.00  0.00    -0.082 Cl
ENDBRANCH   6  17
BRANCH   5  25
ATOM     25  C15 UNL A   1       6.233   1.158   0.012  1.00  0.00     0.093 A 
ATOM     26  C16 UNL A   1       6.481   2.252   0.858  1.00  0.00     0.021 A 
ATOM     27  C17 UNL A   1       7.757   2.826   0.910  1.00  0.00     0.013 A 
ATOM     28  C18 UNL A   1       8.790   2.299   0.139  1.00  0.00     0.059 A 
ATOM     29 CL19 UNL A   1      10.346   3.032   0.177  1.00  0.00    -0.082 Cl
ATOM     30  C20 UNL A   1       8.567   1.198  -0.680  1.00  0.00     0.024 A 
ATOM     31  C21 UNL A   1       7.294   0.621  -0.750  1.00  0.00     0.076 A 
ATOM     32 CL22 UNL A   1       7.113  -0.633  -1.934  1.00  0.00    -0.081 Cl
ENDBRANCH   5  25
TORSDOF 4
