MODEL 1
REMARK VINA RESULT:   -11.931      0.000      0.000
REMARK INTER + INTRA:          -6.396
REMARK INTER:                 -14.721
REMARK INTRA:                   8.325
REMARK UNBOUND:                 8.325
REMARK  4 active torsions:
REMARK  status: ('A' for Active; 'I' for Inactive)
REMARK    1  A    between atoms: C3_3  and  C4_4 
REMARK       I    between atoms: C4_4  and  N6_6 
REMARK    2  A    between atoms: N6_6  and  N7_7 
REMARK    3  A    between atoms: N14_14  and  C15_15 
REMARK    4  A    between atoms: C23_23  and  C24_24 
ROOT
ATOM      1  C1  UNL A   1      -6.013  -1.731  12.097  1.00  0.00     0.034 C 
ATOM      2  C2  UNL A   1      -6.191  -2.420  10.787  1.00  0.00     0.020 A 
ATOM      3  C3  UNL A   1      -7.273  -3.271  10.406  1.00  0.00     0.155 A 
ATOM      4  N13 UNL A   1      -7.127  -3.673   9.134  1.00  0.00    -0.161 NA
ATOM      5  N14 UNL A   1      -5.986  -3.110   8.682  1.00  0.00    -0.229 N 
ATOM      6  C23 UNL A   1      -5.360  -2.328   9.662  1.00  0.00     0.081 A 
ENDROOT
BRANCH   3   7
ATOM      7  C4  UNL A   1      -8.453  -3.721  11.192  1.00  0.00     0.287 C 
ATOM      8  O5  UNL A   1      -8.397  -3.982  12.391  1.00  0.00    -0.265 OA
ATOM      9  N6  UNL A   1      -9.608  -3.813  10.410  1.00  0.00    -0.282 N 
ATOM     10  H31 UNL A   1      -9.534  -3.544   9.467  1.00  0.00     0.184 HD
BRANCH   9  11
ATOM     11  N7  UNL A   1     -10.879  -4.261  10.859  1.00  0.00    -0.199 NA
ATOM     12  C8  UNL A   1     -11.912  -3.216  10.823  1.00  0.00     0.094 C 
ATOM     13  C9  UNL A   1     -13.213  -3.698  11.471  1.00  0.00     0.019 C 
ATOM     14  C10 UNL A   1     -13.707  -4.994  10.835  1.00  0.00     0.003 C 
ATOM     15  C11 UNL A   1     -12.598  -6.040  10.839  1.00  0.00     0.019 C 
ATOM     16  C12 UNL A   1     -11.314  -5.499  10.199  1.00  0.00     0.094 C 
ENDBRANCH   9  11
ENDBRANCH   3   7
BRANCH   6  17
ATOM     17  C24 UNL A   1      -4.141  -1.504   9.466  1.00  0.00     0.018 A 
ATOM     18  C25 UNL A   1      -2.919  -1.842  10.074  1.00  0.00     0.002 A 
ATOM     19  C26 UNL A   1      -1.794  -1.014   9.958  1.00  0.00     0.011 A 
ATOM     20  C27 UNL A   1      -1.854   0.128   9.168  1.00  0.00     0.058 A 
ATOM     21 CL28 UNL A   1      -0.472   1.139   9.014  1.00  0.00    -0.082 Cl
ATOM     22  C29 UNL A   1      -3.032   0.452   8.504  1.00  0.00     0.011 A 
ATOM     23  C30 UNL A   1      -4.171  -0.348   8.668  1.00  0.00     0.002 A 
ENDBRANCH   6  17
BRANCH   5  24
ATOM     24  C15 UNL A   1      -5.543  -3.437   7.364  1.00  0.00     0.093 A 
ATOM     25  C16 UNL A   1      -5.882  -2.591   6.293  1.00  0.00     0.021 A 
ATOM     26  C17 UNL A   1      -5.519  -2.926   4.985  1.00  0.00     0.013 A 
ATOM     27  C18 UNL A   1      -4.792  -4.087   4.745  1.00  0.00     0.059 A 
ATOM     28 CL19 UNL A   1      -4.369  -4.513   3.132  1.00  0.00    -0.082 Cl
ATOM     29  C20 UNL A   1      -4.416  -4.915   5.799  1.00  0.00     0.024 A 
ATOM     30  C21 UNL A   1      -4.788  -4.597   7.113  1.00  0.00     0.076 A 
ATOM     31 CL22 UNL A   1      -4.399  -5.791   8.306  1.00  0.00    -0.081 Cl
ENDBRANCH   5  24
TORSDOF 4
BEGIN_RES SER A 173
REMARK  2 active torsions:
REMARK  status: ('A' for Active; 'I' for Inactive)
REMARK    1  A    between atoms: CA   and  CB  
REMARK    2  A    between atoms: CB   and  OG  
ROOT
ATOM      1  CA  SER A 173      -4.540 -11.597  11.543  1.00127.03     0.292 C 
ENDROOT
BRANCH   1   2
ATOM      2  CB  SER A 173      -4.003 -10.168  11.569  1.00131.20     0.194 C 
BRANCH   2   3
ATOM      3  OG  SER A 173      -3.923  -9.673  12.894  1.00137.49    -0.550 OA
ATOM      4  HG  SER A 173      -4.427  -8.874  12.995  1.00  0.00     0.310 HD
ENDBRANCH   2   3
ENDBRANCH   1   2
END_RES SER A 173
BEGIN_RES SER A 383
REMARK  2 active torsions:
REMARK  status: ('A' for Active; 'I' for Inactive)
REMARK    3  A    between atoms: CA   and  CB  
REMARK    4  A    between atoms: CB   and  OG  
ROOT
ATOM      5  CA  SER A 383      -8.934   0.934   8.031  1.00 88.23     0.292 C 
ENDROOT
BRANCH   5   6
ATOM      6  CB  SER A 383      -8.589   0.249   9.352  1.00 82.13     0.194 C 
BRANCH   6   7
ATOM      7  OG  SER A 383      -7.342   0.700   9.849  1.00 85.59    -0.550 OA
ATOM      8  HG  SER A 383      -6.630   0.163   9.522  1.00  0.00     0.310 HD
ENDBRANCH   6   7
ENDBRANCH   5   6
END_RES SER A 383
ENDMDL
MODEL 2
REMARK VINA RESULT:   -10.121      3.040      6.198
REMARK INTER + INTRA:          -4.162
REMARK INTER:                 -12.944
REMARK INTRA:                   8.782
REMARK UNBOUND:                 8.325
REMARK  4 active torsions:
REMARK  status: ('A' for Active; 'I' for Inactive)
REMARK    1  A    between atoms: C3_3  and  C4_4 
REMARK       I    between atoms: C4_4  and  N6_6 
REMARK    2  A    between atoms: N6_6  and  N7_7 
REMARK    3  A    between atoms: N14_14  and  C15_15 
REMARK    4  A    between atoms: C23_23  and  C24_24 
ROOT
ATOM      1  C1  UNL A   1      -7.109  -4.235  10.404  1.00  0.00     0.034 C 
ATOM      2  C2  UNL A   1      -6.025  -3.220  10.540  1.00  0.00     0.020 A 
ATOM      3  C3  UNL A   1      -5.642  -2.530  11.732  1.00  0.00     0.155 A 
ATOM      4  N13 UNL A   1      -4.594  -1.728  11.491  1.00  0.00    -0.161 NA
ATOM      5  N14 UNL A   1      -4.288  -1.877  10.185  1.00  0.00    -0.229 N 
ATOM      6  C23 UNL A   1      -5.142  -2.784   9.543  1.00  0.00     0.081 A 
ENDROOT
BRANCH   3   7
ATOM      7  C4  UNL A   1      -6.221  -2.599  13.100  1.00  0.00     0.287 C 
ATOM      8  O5  UNL A   1      -7.409  -2.830  13.311  1.00  0.00    -0.265 OA
ATOM      9  N6  UNL A   1      -5.267  -2.367  14.093  1.00  0.00    -0.282 N 
ATOM     10  H31 UNL A   1      -4.339  -2.226  13.799  1.00  0.00     0.184 HD
BRANCH   9  11
ATOM     11  N7  UNL A   1      -5.518  -2.316  15.490  1.00  0.00    -0.199 NA
ATOM     12  C8  UNL A   1      -4.384  -2.776  16.304  1.00  0.00     0.094 C 
ATOM     13  C9  UNL A   1      -4.762  -2.861  17.786  1.00  0.00     0.019 C 
ATOM     14  C10 UNL A   1      -5.318  -1.536  18.298  1.00  0.00     0.003 C 
ATOM     15  C11 UNL A   1      -6.457  -1.059  17.404  1.00  0.00     0.019 C 
ATOM     16  C12 UNL A   1      -6.031  -1.011  15.931  1.00  0.00     0.094 C 
ENDBRANCH   9  11
ENDBRANCH   3   7
BRANCH   6  17
ATOM     17  C24 UNL A   1      -5.024  -3.240   8.136  1.00  0.00     0.018 A 
ATOM     18  C25 UNL A   1      -5.445  -2.434   7.063  1.00  0.00     0.002 A 
ATOM     19  C26 UNL A   1      -5.413  -2.903   5.743  1.00  0.00     0.011 A 
ATOM     20  C27 UNL A   1      -4.888  -4.159   5.467  1.00  0.00     0.058 A 
ATOM     21 CL28 UNL A   1      -4.837  -4.733   3.848  1.00  0.00    -0.082 Cl
ATOM     22  C29 UNL A   1      -4.405  -4.953   6.503  1.00  0.00     0.011 A 
ATOM     23  C30 UNL A   1      -4.491  -4.503   7.827  1.00  0.00     0.002 A 
ENDBRANCH   6  17
BRANCH   5  24
ATOM     24  C15 UNL A   1      -3.246  -1.069   9.635  1.00  0.00     0.093 A 
ATOM     25  C16 UNL A   1      -1.911  -1.326   9.997  1.00  0.00     0.021 A 
ATOM     26  C17 UNL A   1      -0.880  -0.506   9.527  1.00  0.00     0.013 A 
ATOM     27  C18 UNL A   1      -1.174   0.550   8.670  1.00  0.00     0.059 A 
ATOM     28 CL19 UNL A   1       0.091   1.575   8.113  1.00  0.00    -0.082 Cl
ATOM     29  C20 UNL A   1      -2.486   0.793   8.273  1.00  0.00     0.024 A 
ATOM     30  C21 UNL A   1      -3.528  -0.013   8.750  1.00  0.00     0.076 A 
ATOM     31 CL22 UNL A   1      -5.125   0.496   8.310  1.00  0.00    -0.081 Cl
ENDBRANCH   5  24
TORSDOF 4
BEGIN_RES SER A 173
REMARK  2 active torsions:
REMARK  status: ('A' for Active; 'I' for Inactive)
REMARK    1  A    between atoms: CA   and  CB  
REMARK    2  A    between atoms: CB   and  OG  
ROOT
ATOM      1  CA  SER A 173      -4.540 -11.597  11.543  1.00127.03     0.292 C 
ENDROOT
BRANCH   1   2
ATOM      2  CB  SER A 173      -4.003 -10.168  11.569  1.00131.20     0.194 C 
BRANCH   2   3
ATOM      3  OG  SER A 173      -3.932  -9.670  12.894  1.00137.49    -0.550 OA
ATOM      4  HG  SER A 173      -4.662  -9.094  13.085  1.00  0.00     0.310 HD
ENDBRANCH   2   3
ENDBRANCH   1   2
END_RES SER A 173
BEGIN_RES SER A 383
REMARK  2 active torsions:
REMARK  status: ('A' for Active; 'I' for Inactive)
REMARK    3  A    between atoms: CA   and  CB  
REMARK    4  A    between atoms: CB   and  OG  
ROOT
ATOM      5  CA  SER A 383      -8.934   0.934   8.031  1.00 88.23     0.292 C 
ENDROOT
BRANCH   5   6
ATOM      6  CB  SER A 383      -8.589   0.249   9.352  1.00 82.13     0.194 C 
BRANCH   6   7
ATOM      7  OG  SER A 383      -7.894   1.129  10.216  1.00 85.59    -0.550 OA
ATOM      8  HG  SER A 383      -8.220   2.018  10.133  1.00  0.00     0.310 HD
ENDBRANCH   6   7
ENDBRANCH   5   6
END_RES SER A 383
ENDMDL
MODEL 3
REMARK VINA RESULT:    -9.765      5.354     11.051
REMARK INTER + INTRA:          -3.723
REMARK INTER:                 -12.003
REMARK INTRA:                   8.280
REMARK UNBOUND:                 8.325
REMARK  4 active torsions:
REMARK  status: ('A' for Active; 'I' for Inactive)
REMARK    1  A    between atoms: C3_3  and  C4_4 
REMARK       I    between atoms: C4_4  and  N6_6 
REMARK    2  A    between atoms: N6_6  and  N7_7 
REMARK    3  A    between atoms: N14_14  and  C15_15 
REMARK    4  A    between atoms: C23_23  and  C24_24 
ROOT
ATOM      1  C1  UNL A   1     -11.370  -6.330  12.213  1.00  0.00     0.034 C 
ATOM      2  C2  UNL A   1     -12.226  -5.112  12.305  1.00  0.00     0.020 A 
ATOM      3  C3  UNL A   1     -11.941  -3.821  11.763  1.00  0.00     0.155 A 
ATOM      4  N13 UNL A   1     -12.960  -2.981  11.995  1.00  0.00    -0.161 NA
ATOM      5  N14 UNL A   1     -13.894  -3.686  12.669  1.00  0.00    -0.229 N 
ATOM      6  C23 UNL A   1     -13.494  -5.010  12.895  1.00  0.00     0.081 A 
ENDROOT
BRANCH   3   7
ATOM      7  C4  UNL A   1     -10.742  -3.343  11.023  1.00  0.00     0.287 C 
ATOM      8  O5  UNL A   1     -10.742  -3.142   9.812  1.00  0.00    -0.265 OA
ATOM      9  N6  UNL A   1      -9.638  -3.162  11.861  1.00  0.00    -0.282 N 
ATOM     10  H31 UNL A   1      -9.773  -3.324  12.821  1.00  0.00     0.184 HD
BRANCH   9  11
ATOM     11  N7  UNL A   1      -8.340  -2.763  11.446  1.00  0.00    -0.199 NA
ATOM     12  C8  UNL A   1      -7.522  -2.216  12.538  1.00  0.00     0.094 C 
ATOM     13  C9  UNL A   1      -6.200  -1.648  12.011  1.00  0.00     0.019 C 
ATOM     14  C10 UNL A   1      -5.430  -2.686  11.201  1.00  0.00     0.003 C 
ATOM     15  C11 UNL A   1      -6.320  -3.272  10.111  1.00  0.00     0.019 C 
ATOM     16  C12 UNL A   1      -7.636  -3.807  10.689  1.00  0.00     0.094 C 
ENDBRANCH   9  11
ENDBRANCH   3   7
BRANCH   6  17
ATOM     17  C24 UNL A   1     -14.319  -6.071  13.525  1.00  0.00     0.018 A 
ATOM     18  C25 UNL A   1     -14.882  -7.113  12.767  1.00  0.00     0.002 A 
ATOM     19  C26 UNL A   1     -15.732  -8.062  13.351  1.00  0.00     0.011 A 
ATOM     20  C27 UNL A   1     -15.971  -8.027  14.719  1.00  0.00     0.058 A 
ATOM     21 CL28 UNL A   1     -17.004  -9.196  15.441  1.00  0.00    -0.082 Cl
ATOM     22  C29 UNL A   1     -15.376  -7.044  15.504  1.00  0.00     0.011 A 
ATOM     23  C30 UNL A   1     -14.572  -6.064  14.907  1.00  0.00     0.002 A 
ENDBRANCH   6  17
BRANCH   5  24
ATOM     24  C15 UNL A   1     -15.067  -3.005  13.118  1.00  0.00     0.093 A 
ATOM     25  C16 UNL A   1     -16.168  -2.886  12.252  1.00  0.00     0.021 A 
ATOM     26  C17 UNL A   1     -17.301  -2.166  12.642  1.00  0.00     0.013 A 
ATOM     27  C18 UNL A   1     -17.351  -1.589  13.907  1.00  0.00     0.059 A 
ATOM     28 CL19 UNL A   1     -18.733  -0.678  14.377  1.00  0.00    -0.082 Cl
ATOM     29  C20 UNL A   1     -16.283  -1.730  14.790  1.00  0.00     0.024 A 
ATOM     30  C21 UNL A   1     -15.137  -2.437  14.403  1.00  0.00     0.076 A 
ATOM     31 CL22 UNL A   1     -13.822  -2.398  15.530  1.00  0.00    -0.081 Cl
ENDBRANCH   5  24
TORSDOF 4
BEGIN_RES SER A 173
REMARK  2 active torsions:
REMARK  status: ('A' for Active; 'I' for Inactive)
REMARK    1  A    between atoms: CA   and  CB  
REMARK    2  A    between atoms: CB   and  OG  
ROOT
ATOM      1  CA  SER A 173      -4.540 -11.597  11.543  1.00127.03     0.292 C 
ENDROOT
BRANCH   1   2
ATOM      2  CB  SER A 173      -4.003 -10.168  11.569  1.00131.20     0.194 C 
BRANCH   2   3
ATOM      3  OG  SER A 173      -3.935  -9.668  12.893  1.00137.49    -0.550 OA
ATOM      4  HG  SER A 173      -4.154  -8.745  12.925  1.00  0.00     0.310 HD
ENDBRANCH   2   3
ENDBRANCH   1   2
END_RES SER A 173
BEGIN_RES SER A 383
REMARK  2 active torsions:
REMARK  status: ('A' for Active; 'I' for Inactive)
REMARK    3  A    between atoms: CA   and  CB  
REMARK    4  A    between atoms: CB   and  OG  
ROOT
ATOM      5  CA  SER A 383      -8.934   0.934   8.031  1.00 88.23     0.292 C 
ENDROOT
BRANCH   5   6
ATOM      6  CB  SER A 383      -8.589   0.249   9.352  1.00 82.13     0.194 C 
BRANCH   6   7
ATOM      7  OG  SER A 383      -7.335   0.688   9.841  1.00 85.59    -0.550 OA
ATOM      8  HG  SER A 383      -7.255   0.522  10.774  1.00  0.00     0.310 HD
ENDBRANCH   6   7
ENDBRANCH   5   6
END_RES SER A 383
ENDMDL
MODEL 4
REMARK VINA RESULT:    -9.466      5.384     11.068
REMARK INTER + INTRA:          -3.354
REMARK INTER:                 -11.681
REMARK INTRA:                   8.327
REMARK UNBOUND:                 8.325
REMARK  4 active torsions:
REMARK  status: ('A' for Active; 'I' for Inactive)
REMARK    1  A    between atoms: C3_3  and  C4_4 
REMARK       I    between atoms: C4_4  and  N6_6 
REMARK    2  A    between atoms: N6_6  and  N7_7 
REMARK    3  A    between atoms: N14_14  and  C15_15 
REMARK    4  A    between atoms: C23_23  and  C24_24 
ROOT
ATOM      1  C1  UNL A   1     -11.345  -6.244  12.403  1.00  0.00     0.034 C 
ATOM      2  C2  UNL A   1     -12.222  -5.037  12.405  1.00  0.00     0.020 A 
ATOM      3  C3  UNL A   1     -11.949  -3.779  11.787  1.00  0.00     0.155 A 
ATOM      4  N13 UNL A   1     -12.986  -2.943  11.950  1.00  0.00    -0.161 NA
ATOM      5  N14 UNL A   1     -13.918  -3.620  12.654  1.00  0.00    -0.229 N 
ATOM      6  C23 UNL A   1     -13.500  -4.920  12.969  1.00  0.00     0.081 A 
ENDROOT
BRANCH   3   7
ATOM      7  C4  UNL A   1     -10.747  -3.327  11.036  1.00  0.00     0.287 C 
ATOM      8  O5  UNL A   1     -10.745  -3.158   9.819  1.00  0.00    -0.265 OA
ATOM      9  N6  UNL A   1      -9.642  -3.131  11.869  1.00  0.00    -0.282 N 
ATOM     10  H31 UNL A   1      -9.779  -3.268  12.833  1.00  0.00     0.184 HD
BRANCH   9  11
ATOM     11  N7  UNL A   1      -8.341  -2.752  11.445  1.00  0.00    -0.199 NA
ATOM     12  C8  UNL A   1      -7.512  -2.203  12.527  1.00  0.00     0.094 C 
ATOM     13  C9  UNL A   1      -6.187  -1.655  11.990  1.00  0.00     0.019 C 
ATOM     14  C10 UNL A   1      -5.431  -2.711  11.188  1.00  0.00     0.003 C 
ATOM     15  C11 UNL A   1      -6.333  -3.299  10.107  1.00  0.00     0.019 C 
ATOM     16  C12 UNL A   1      -7.652  -3.812  10.697  1.00  0.00     0.094 C 
ENDBRANCH   9  11
ENDBRANCH   3   7
BRANCH   6  17
ATOM     17  C24 UNL A   1     -14.317  -5.953  13.653  1.00  0.00     0.018 A 
ATOM     18  C25 UNL A   1     -14.961  -6.977  12.935  1.00  0.00     0.002 A 
ATOM     19  C26 UNL A   1     -15.802  -7.897  13.574  1.00  0.00     0.011 A 
ATOM     20  C27 UNL A   1     -15.953  -7.853  14.955  1.00  0.00     0.058 A 
ATOM     21 CL28 UNL A   1     -16.975  -8.988  15.743  1.00  0.00    -0.082 Cl
ATOM     22  C29 UNL A   1     -15.278  -6.890  15.697  1.00  0.00     0.011 A 
ATOM     23  C30 UNL A   1     -14.482  -5.937  15.048  1.00  0.00     0.002 A 
ENDBRANCH   6  17
BRANCH   5  24
ATOM     24  C15 UNL A   1     -15.109  -2.933  13.042  1.00  0.00     0.093 A 
ATOM     25  C16 UNL A   1     -15.224  -2.439  14.353  1.00  0.00     0.021 A 
ATOM     26  C17 UNL A   1     -16.406  -1.824  14.777  1.00  0.00     0.013 A 
ATOM     27  C18 UNL A   1     -17.463  -1.672  13.886  1.00  0.00     0.059 A 
ATOM     28 CL19 UNL A   1     -18.928  -0.941  14.415  1.00  0.00    -0.082 Cl
ATOM     29  C20 UNL A   1     -17.350  -2.122  12.574  1.00  0.00     0.024 A 
ATOM     30  C21 UNL A   1     -16.176  -2.753  12.143  1.00  0.00     0.076 A 
ATOM     31 CL22 UNL A   1     -16.227  -3.408  10.540  1.00  0.00    -0.081 Cl
ENDBRANCH   5  24
TORSDOF 4
BEGIN_RES SER A 173
REMARK  2 active torsions:
REMARK  status: ('A' for Active; 'I' for Inactive)
REMARK    1  A    between atoms: CA   and  CB  
REMARK    2  A    between atoms: CB   and  OG  
ROOT
ATOM      1  CA  SER A 173      -4.540 -11.597  11.543  1.00127.03     0.292 C 
ENDROOT
BRANCH   1   2
ATOM      2  CB  SER A 173      -4.003 -10.168  11.569  1.00131.20     0.194 C 
BRANCH   2   3
ATOM      3  OG  SER A 173      -3.943  -9.665  12.893  1.00137.49    -0.550 OA
ATOM      4  HG  SER A 173      -4.727  -9.175  13.111  1.00  0.00     0.310 HD
ENDBRANCH   2   3
ENDBRANCH   1   2
END_RES SER A 173
BEGIN_RES SER A 383
REMARK  2 active torsions:
REMARK  status: ('A' for Active; 'I' for Inactive)
REMARK    3  A    between atoms: CA   and  CB  
REMARK    4  A    between atoms: CB   and  OG  
ROOT
ATOM      5  CA  SER A 383      -8.934   0.934   8.031  1.00 88.23     0.292 C 
ENDROOT
BRANCH   5   6
ATOM      6  CB  SER A 383      -8.589   0.249   9.352  1.00 82.13     0.194 C 
BRANCH   6   7
ATOM      7  OG  SER A 383      -7.333   0.685   9.839  1.00 85.59    -0.550 OA
ATOM      8  HG  SER A 383      -7.212   1.615   9.689  1.00  0.00     0.310 HD
ENDBRANCH   6   7
ENDBRANCH   5   6
END_RES SER A 383
ENDMDL
MODEL 5
REMARK VINA RESULT:    -9.326      5.255     10.323
REMARK INTER + INTRA:          -3.181
REMARK INTER:                 -11.705
REMARK INTRA:                   8.524
REMARK UNBOUND:                 8.325
REMARK  4 active torsions:
REMARK  status: ('A' for Active; 'I' for Inactive)
REMARK    1  A    between atoms: C3_3  and  C4_4 
REMARK       I    between atoms: C4_4  and  N6_6 
REMARK    2  A    between atoms: N6_6  and  N7_7 
REMARK    3  A    between atoms: N14_14  and  C15_15 
REMARK    4  A    between atoms: C23_23  and  C24_24 
ROOT
ATOM      1  C1  UNL A   1     -10.746  -5.976  12.523  1.00  0.00     0.034 C 
ATOM      2  C2  UNL A   1     -11.698  -5.101  11.781  1.00  0.00     0.020 A 
ATOM      3  C3  UNL A   1     -11.367  -4.076  10.842  1.00  0.00     0.155 A 
ATOM      4  N13 UNL A   1     -12.482  -3.530  10.334  1.00  0.00    -0.161 NA
ATOM      5  N14 UNL A   1     -13.521  -4.167  10.914  1.00  0.00    -0.229 N 
ATOM      6  C23 UNL A   1     -13.099  -5.147  11.823  1.00  0.00     0.081 A 
ENDROOT
BRANCH   3   7
ATOM      7  C4  UNL A   1     -10.035  -3.590  10.393  1.00  0.00     0.287 C 
ATOM      8  O5  UNL A   1      -9.689  -3.585   9.215  1.00  0.00    -0.265 OA
ATOM      9  N6  UNL A   1      -9.241  -3.157  11.458  1.00  0.00    -0.282 N 
ATOM     10  H31 UNL A   1      -9.643  -3.180  12.355  1.00  0.00     0.184 HD
BRANCH   9  11
ATOM     11  N7  UNL A   1      -7.904  -2.687  11.358  1.00  0.00    -0.199 NA
ATOM     12  C8  UNL A   1      -7.415  -2.054  12.591  1.00  0.00     0.094 C 
ATOM     13  C9  UNL A   1      -6.039  -1.417  12.381  1.00  0.00     0.019 C 
ATOM     14  C10 UNL A   1      -5.034  -2.426  11.834  1.00  0.00     0.003 C 
ATOM     15  C11 UNL A   1      -5.591  -3.104  10.586  1.00  0.00     0.019 C 
ATOM     16  C12 UNL A   1      -6.977  -3.706  10.847  1.00  0.00     0.094 C 
ENDBRANCH   9  11
ENDBRANCH   3   7
BRANCH   6  17
ATOM     17  C24 UNL A   1     -13.981  -6.085  12.560  1.00  0.00     0.018 A 
ATOM     18  C25 UNL A   1     -14.464  -7.264  11.964  1.00  0.00     0.002 A 
ATOM     19  C26 UNL A   1     -15.366  -8.102  12.632  1.00  0.00     0.011 A 
ATOM     20  C27 UNL A   1     -15.741  -7.813  13.939  1.00  0.00     0.058 A 
ATOM     21 CL28 UNL A   1     -16.839  -8.845  14.765  1.00  0.00    -0.082 Cl
ATOM     22  C29 UNL A   1     -15.229  -6.687  14.575  1.00  0.00     0.011 A 
ATOM     23  C30 UNL A   1     -14.371  -5.821  13.883  1.00  0.00     0.002 A 
ENDBRANCH   6  17
BRANCH   5  24
ATOM     24  C15 UNL A   1     -14.845  -3.725  10.610  1.00  0.00     0.093 A 
ATOM     25  C16 UNL A   1     -15.393  -4.010   9.346  1.00  0.00     0.021 A 
ATOM     26  C17 UNL A   1     -16.659  -3.529   8.999  1.00  0.00     0.013 A 
ATOM     27  C18 UNL A   1     -17.395  -2.791   9.921  1.00  0.00     0.059 A 
ATOM     28 CL19 UNL A   1     -18.941  -2.176   9.485  1.00  0.00    -0.082 Cl
ATOM     29  C20 UNL A   1     -16.881  -2.533  11.189  1.00  0.00     0.024 A 
ATOM     30  C21 UNL A   1     -15.607  -2.997  11.542  1.00  0.00     0.076 A 
ATOM     31 CL22 UNL A   1     -15.023  -2.470  13.085  1.00  0.00    -0.081 Cl
ENDBRANCH   5  24
TORSDOF 4
BEGIN_RES SER A 173
REMARK  2 active torsions:
REMARK  status: ('A' for Active; 'I' for Inactive)
REMARK    1  A    between atoms: CA   and  CB  
REMARK    2  A    between atoms: CB   and  OG  
ROOT
ATOM      1  CA  SER A 173      -4.540 -11.597  11.543  1.00127.03     0.292 C 
ENDROOT
BRANCH   1   2
ATOM      2  CB  SER A 173      -4.003 -10.168  11.569  1.00131.20     0.194 C 
BRANCH   2   3
ATOM      3  OG  SER A 173      -3.935  -9.668  12.893  1.00137.49    -0.550 OA
ATOM      4  HG  SER A 173      -3.194 -10.033  13.362  1.00  0.00     0.310 HD
ENDBRANCH   2   3
ENDBRANCH   1   2
END_RES SER A 173
BEGIN_RES SER A 383
REMARK  2 active torsions:
REMARK  status: ('A' for Active; 'I' for Inactive)
REMARK    3  A    between atoms: CA   and  CB  
REMARK    4  A    between atoms: CB   and  OG  
ROOT
ATOM      5  CA  SER A 383      -8.934   0.934   8.031  1.00 88.23     0.292 C 
ENDROOT
BRANCH   5   6
ATOM      6  CB  SER A 383      -8.589   0.249   9.352  1.00 82.13     0.194 C 
BRANCH   6   7
ATOM      7  OG  SER A 383      -7.195   0.022   9.459  1.00 85.59    -0.550 OA
ATOM      8  HG  SER A 383      -6.853  -0.379   8.669  1.00  0.00     0.310 HD
ENDBRANCH   6   7
ENDBRANCH   5   6
END_RES SER A 383
ENDMDL
