REMARK  8 active torsions:
REMARK  status: ('A' for Active; 'I' for Inactive)
REMARK    1  A    between atoms: C2_2  and  C3_3 
REMARK    2  A    between atoms: C3_3  and  C4_4 
REMARK    3  A    between atoms: C4_4  and  C5_5 
REMARK    4  A    between atoms: C5_5  and  C6_6 
REMARK    5  A    between atoms: C9_9  and  C10_10 
REMARK    6  A    between atoms: C13_13  and  C14_14 
REMARK       I    between atoms: C14_14  and  N16_16 
REMARK    7  A    between atoms: N16_16  and  N17_17 
REMARK    8  A    between atoms: N24_24  and  C25_25 
ROOT
ATOM      1  C10 UNL A   1      10.666  -3.052   0.668  1.00  0.00     0.086 A 
ATOM      2  C11 UNL A   1      10.870  -3.865  -0.446  1.00  0.00     0.020 A 
ATOM      3  C12 UNL A   1       9.972  -3.964  -1.626  1.00  0.00     0.034 C 
ATOM      4  C13 UNL A   1      12.086  -4.568  -0.218  1.00  0.00     0.155 A 
ATOM      5  N23 UNL A   1      12.665  -4.125   0.928  1.00  0.00    -0.161 NA
ATOM      6  N24 UNL A   1      11.808  -3.205   1.463  1.00  0.00    -0.229 N 
ENDROOT
BRANCH   1   7
ATOM      7  C9  UNL A   1       9.573  -2.138   0.858  1.00  0.00     0.048 C 
ATOM      8  C8  UNL A   1       9.505  -0.939   1.526  1.00  0.00     0.009 C 
ATOM      9  C7  UNL A   1       8.356  -0.184   1.230  1.00  0.00     0.015 C 
ATOM     10  C6  UNL A   1       7.574  -0.855   0.283  1.00  0.00     0.071 C 
ATOM     11  S33 UNL A   1       8.027  -2.450   0.165  1.00  0.00    -0.077 SA
BRANCH  10  12
ATOM     12  C5  UNL A   1       6.449  -0.363  -0.388  1.00  0.00    -0.058 C 
BRANCH  12  13
ATOM     13  C4  UNL A   1       5.308  -0.024  -0.920  1.00  0.00    -0.086 C 
BRANCH  13  14
ATOM     14  C3  UNL A   1       3.978   0.372  -1.540  1.00  0.00     0.076 C 
BRANCH  14  15
ATOM     15  C2  UNL A   1       3.743   1.872  -1.387  1.00  0.00     0.014 C 
ATOM     16  C1  UNL A   1       2.417   2.290  -2.001  1.00  0.00     0.001 C 
ENDBRANCH  14  15
ENDBRANCH  13  14
ENDBRANCH  12  13
ENDBRANCH  10  12
ENDBRANCH   1   7
BRANCH   6  17
ATOM     17  C25 UNL A   1      12.089  -2.612   2.739  1.00  0.00     0.093 A 
ATOM     18  C26 UNL A   1      11.035  -2.244   3.600  1.00  0.00     0.021 A 
ATOM     19  C27 UNL A   1      11.243  -1.623   4.814  1.00  0.00     0.013 A 
ATOM     20  C28 UNL A   1      12.545  -1.406   5.254  1.00  0.00     0.059 A 
ATOM     21 CL29 UNL A   1      12.832  -0.686   6.778  1.00  0.00    -0.082 Cl
ATOM     22  C30 UNL A   1      13.616  -1.791   4.440  1.00  0.00     0.024 A 
ATOM     23  C31 UNL A   1      13.410  -2.378   3.185  1.00  0.00     0.076 A 
ATOM     24 CL32 UNL A   1      14.819  -2.660   2.236  1.00  0.00    -0.081 Cl
ENDBRANCH   6  17
BRANCH   4  25
ATOM     25  C14 UNL A   1      12.723  -5.645  -1.048  1.00  0.00     0.287 C 
ATOM     26  O15 UNL A   1      12.170  -6.086  -2.064  1.00  0.00    -0.265 OA
ATOM     27  N16 UNL A   1      13.939  -6.105  -0.551  1.00  0.00    -0.282 N 
ATOM     28  H34 UNL A   1      14.263  -5.705   0.288  1.00  0.00     0.184 HD
BRANCH  27  29
ATOM     29  N17 UNL A   1      14.756  -7.106  -1.157  1.00  0.00    -0.199 NA
ATOM     30  C18 UNL A   1      16.071  -6.540  -1.512  1.00  0.00     0.094 C 
ATOM     31  C19 UNL A   1      16.994  -7.590  -2.134  1.00  0.00     0.019 C 
ATOM     32  C20 UNL A   1      17.195  -8.779  -1.202  1.00  0.00     0.003 C 
ATOM     33  C21 UNL A   1      15.848  -9.334  -0.751  1.00  0.00     0.019 C 
ATOM     34  C22 UNL A   1      14.946  -8.228  -0.203  1.00  0.00     0.094 C 
ENDBRANCH  27  29
ENDBRANCH   4  25
TORSDOF 8
