MODEL 1
REMARK VINA RESULT:   -11.724      0.000      0.000
REMARK INTER + INTRA:          -6.042
REMARK INTER:                 -14.466
REMARK INTRA:                   8.424
REMARK UNBOUND:                 8.424
REMARK  4 active torsions:
REMARK  status: ('A' for Active; 'I' for Inactive)
REMARK    1  A    between atoms: C3_3  and  C4_4 
REMARK       I    between atoms: C4_4  and  N6_6 
REMARK    2  A    between atoms: N6_6  and  N7_7 
REMARK    3  A    between atoms: N14_14  and  C15_15 
REMARK    4  A    between atoms: C23_23  and  C24_24 
ROOT
ATOM      1  C1  UNL A   1      -5.979  -1.706  12.062  1.00  0.00     0.034 C 
ATOM      2  C2  UNL A   1      -6.163  -2.369  10.739  1.00  0.00     0.020 A 
ATOM      3  C3  UNL A   1      -7.244  -3.227  10.363  1.00  0.00     0.155 A 
ATOM      4  N13 UNL A   1      -7.098  -3.630   9.095  1.00  0.00    -0.161 NA
ATOM      5  N14 UNL A   1      -5.962  -3.055   8.632  1.00  0.00    -0.229 N 
ATOM      6  C23 UNL A   1      -5.342  -2.253   9.605  1.00  0.00     0.081 A 
ENDROOT
BRANCH   3   7
ATOM      7  C4  UNL A   1      -8.423  -3.688  11.156  1.00  0.00     0.287 C 
ATOM      8  O5  UNL A   1      -8.348  -3.950  12.355  1.00  0.00    -0.265 OA
ATOM      9  N6  UNL A   1      -9.579  -3.789  10.390  1.00  0.00    -0.282 N 
ATOM     10  H32 UNL A   1      -9.518  -3.514   9.447  1.00  0.00     0.184 HD
BRANCH   9  11
ATOM     11  N7  UNL A   1     -10.846  -4.257  10.853  1.00  0.00    -0.199 NA
ATOM     12  C8  UNL A   1     -11.907  -3.239  10.776  1.00  0.00     0.094 C 
ATOM     13  C9  UNL A   1     -13.205  -3.731  11.424  1.00  0.00     0.019 C 
ATOM     14  C10 UNL A   1     -13.662  -5.056  10.822  1.00  0.00     0.003 C 
ATOM     15  C11 UNL A   1     -12.530  -6.076  10.876  1.00  0.00     0.019 C 
ATOM     16  C12 UNL A   1     -11.250  -5.528  10.234  1.00  0.00     0.094 C 
ENDBRANCH   9  11
ENDBRANCH   3   7
BRANCH   6  17
ATOM     17  C24 UNL A   1      -4.115  -1.414   9.428  1.00  0.00     0.028 A 
ATOM     18  C25 UNL A   1      -2.963  -1.748  10.173  1.00  0.00     0.003 A 
ATOM     19  C26 UNL A   1      -1.779  -1.001  10.089  1.00  0.00     0.011 A 
ATOM     20  C27 UNL A   1      -1.693   0.054   9.196  1.00  0.00     0.059 A 
ATOM     21 CL28 UNL A   1      -0.229   0.948   9.059  1.00  0.00    -0.082 Cl
ATOM     22  C29 UNL A   1      -2.797   0.409   8.435  1.00  0.00     0.023 A 
ATOM     23  C30 UNL A   1      -4.014  -0.277   8.593  1.00  0.00     0.060 A 
ATOM     24 CL31 UNL A   1      -5.369   0.434   7.781  1.00  0.00    -0.082 Cl
ENDBRANCH   6  17
BRANCH   5  25
ATOM     25  C15 UNL A   1      -5.529  -3.406   7.320  1.00  0.00     0.093 A 
ATOM     26  C16 UNL A   1      -5.862  -2.582   6.232  1.00  0.00     0.021 A 
ATOM     27  C17 UNL A   1      -5.517  -2.963   4.930  1.00  0.00     0.013 A 
ATOM     28  C18 UNL A   1      -4.822  -4.150   4.712  1.00  0.00     0.059 A 
ATOM     29 CL19 UNL A   1      -4.435  -4.632   3.107  1.00  0.00    -0.082 Cl
ATOM     30  C20 UNL A   1      -4.459  -4.960   5.782  1.00  0.00     0.024 A 
ATOM     31  C21 UNL A   1      -4.807  -4.598   7.088  1.00  0.00     0.076 A 
ATOM     32 CL22 UNL A   1      -4.445  -5.778   8.306  1.00  0.00    -0.081 Cl
ENDBRANCH   5  25
TORSDOF 4
BEGIN_RES SER A 173
REMARK  2 active torsions:
REMARK  status: ('A' for Active; 'I' for Inactive)
REMARK    1  A    between atoms: CA   and  CB  
REMARK    2  A    between atoms: CB   and  OG  
ROOT
ATOM      1  CA  SER A 173      -4.540 -11.597  11.543  1.00127.03     0.292 C 
ENDROOT
BRANCH   1   2
ATOM      2  CB  SER A 173      -4.003 -10.168  11.569  1.00131.20     0.194 C 
BRANCH   2   3
ATOM      3  OG  SER A 173      -3.925  -9.672  12.894  1.00137.49    -0.550 OA
ATOM      4  HG  SER A 173      -3.633  -8.768  12.908  1.00  0.00     0.310 HD
ENDBRANCH   2   3
ENDBRANCH   1   2
END_RES SER A 173
BEGIN_RES SER A 383
REMARK  2 active torsions:
REMARK  status: ('A' for Active; 'I' for Inactive)
REMARK    3  A    between atoms: CA   and  CB  
REMARK    4  A    between atoms: CB   and  OG  
ROOT
ATOM      5  CA  SER A 383      -8.934   0.934   8.031  1.00 88.23     0.292 C 
ENDROOT
BRANCH   5   6
ATOM      6  CB  SER A 383      -8.589   0.249   9.352  1.00 82.13     0.194 C 
BRANCH   6   7
ATOM      7  OG  SER A 383      -7.748   1.067  10.146  1.00 85.59    -0.550 OA
ATOM      8  HG  SER A 383      -7.975   1.985  10.050  1.00  0.00     0.310 HD
ENDBRANCH   6   7
ENDBRANCH   5   6
END_RES SER A 383
ENDMDL
MODEL 2
REMARK VINA RESULT:   -10.764      2.850      6.214
REMARK INTER + INTRA:          -4.857
REMARK INTER:                 -13.649
REMARK INTRA:                   8.792
REMARK UNBOUND:                 8.424
REMARK  4 active torsions:
REMARK  status: ('A' for Active; 'I' for Inactive)
REMARK    1  A    between atoms: C3_3  and  C4_4 
REMARK       I    between atoms: C4_4  and  N6_6 
REMARK    2  A    between atoms: N6_6  and  N7_7 
REMARK    3  A    between atoms: N14_14  and  C15_15 
REMARK    4  A    between atoms: C23_23  and  C24_24 
ROOT
ATOM      1  C1  UNL A   1      -7.134  -4.231  10.339  1.00  0.00     0.034 C 
ATOM      2  C2  UNL A   1      -6.020  -3.248  10.475  1.00  0.00     0.020 A 
ATOM      3  C3  UNL A   1      -5.627  -2.572  11.673  1.00  0.00     0.155 A 
ATOM      4  N13 UNL A   1      -4.578  -1.775  11.434  1.00  0.00    -0.161 NA
ATOM      5  N14 UNL A   1      -4.271  -1.919  10.122  1.00  0.00    -0.229 N 
ATOM      6  C23 UNL A   1      -5.127  -2.828   9.476  1.00  0.00     0.081 A 
ENDROOT
BRANCH   3   7
ATOM      7  C4  UNL A   1      -6.203  -2.646  13.049  1.00  0.00     0.287 C 
ATOM      8  O5  UNL A   1      -7.391  -2.892  13.253  1.00  0.00    -0.265 OA
ATOM      9  N6  UNL A   1      -5.260  -2.397  14.040  1.00  0.00    -0.282 N 
ATOM     10  H32 UNL A   1      -4.332  -2.248  13.750  1.00  0.00     0.184 HD
BRANCH   9  11
ATOM     11  N7  UNL A   1      -5.522  -2.341  15.443  1.00  0.00    -0.199 NA
ATOM     12  C8  UNL A   1      -4.384  -2.781  16.267  1.00  0.00     0.094 C 
ATOM     13  C9  UNL A   1      -4.759  -2.852  17.750  1.00  0.00     0.019 C 
ATOM     14  C10 UNL A   1      -5.325  -1.525  18.247  1.00  0.00     0.003 C 
ATOM     15  C11 UNL A   1      -6.472  -1.074  17.350  1.00  0.00     0.019 C 
ATOM     16  C12 UNL A   1      -6.052  -1.039  15.876  1.00  0.00     0.094 C 
ENDBRANCH   9  11
ENDBRANCH   3   7
BRANCH   6  17
ATOM     17  C24 UNL A   1      -5.041  -3.285   8.053  1.00  0.00     0.028 A 
ATOM     18  C25 UNL A   1      -5.414  -2.378   7.037  1.00  0.00     0.003 A 
ATOM     19  C26 UNL A   1      -5.389  -2.729   5.679  1.00  0.00     0.011 A 
ATOM     20  C27 UNL A   1      -4.917  -3.975   5.299  1.00  0.00     0.059 A 
ATOM     21 CL28 UNL A   1      -4.846  -4.396   3.633  1.00  0.00    -0.082 Cl
ATOM     22  C29 UNL A   1      -4.529  -4.892   6.265  1.00  0.00     0.023 A 
ATOM     23  C30 UNL A   1      -4.647  -4.575   7.630  1.00  0.00     0.060 A 
ATOM     24 CL31 UNL A   1      -4.379  -5.896   8.717  1.00  0.00    -0.082 Cl
ENDBRANCH   6  17
BRANCH   5  25
ATOM     25  C15 UNL A   1      -3.237  -1.095   9.590  1.00  0.00     0.093 A 
ATOM     26  C16 UNL A   1      -1.900  -1.333   9.952  1.00  0.00     0.021 A 
ATOM     27  C17 UNL A   1      -0.887  -0.477   9.504  1.00  0.00     0.013 A 
ATOM     28  C18 UNL A   1      -1.200   0.602   8.681  1.00  0.00     0.059 A 
ATOM     29 CL19 UNL A   1       0.043   1.674   8.166  1.00  0.00    -0.082 Cl
ATOM     30  C20 UNL A   1      -2.514   0.833   8.290  1.00  0.00     0.024 A 
ATOM     31  C21 UNL A   1      -3.538  -0.009   8.739  1.00  0.00     0.076 A 
ATOM     32 CL22 UNL A   1      -5.145   0.490   8.318  1.00  0.00    -0.081 Cl
ENDBRANCH   5  25
TORSDOF 4
BEGIN_RES SER A 173
REMARK  2 active torsions:
REMARK  status: ('A' for Active; 'I' for Inactive)
REMARK    1  A    between atoms: CA   and  CB  
REMARK    2  A    between atoms: CB   and  OG  
ROOT
ATOM      1  CA  SER A 173      -4.540 -11.597  11.543  1.00127.03     0.292 C 
ENDROOT
BRANCH   1   2
ATOM      2  CB  SER A 173      -4.003 -10.168  11.569  1.00131.20     0.194 C 
BRANCH   2   3
ATOM      3  OG  SER A 173      -3.915  -9.676  12.895  1.00137.49    -0.550 OA
ATOM      4  HG  SER A 173      -4.476 -10.167  13.483  1.00  0.00     0.310 HD
ENDBRANCH   2   3
ENDBRANCH   1   2
END_RES SER A 173
BEGIN_RES SER A 383
REMARK  2 active torsions:
REMARK  status: ('A' for Active; 'I' for Inactive)
REMARK    3  A    between atoms: CA   and  CB  
REMARK    4  A    between atoms: CB   and  OG  
ROOT
ATOM      5  CA  SER A 383      -8.934   0.934   8.031  1.00 88.23     0.292 C 
ENDROOT
BRANCH   5   6
ATOM      6  CB  SER A 383      -8.589   0.249   9.352  1.00 82.13     0.194 C 
BRANCH   6   7
ATOM      7  OG  SER A 383      -7.998   1.161  10.260  1.00 85.59    -0.550 OA
ATOM      8  HG  SER A 383      -8.134   0.885  11.159  1.00  0.00     0.310 HD
ENDBRANCH   6   7
ENDBRANCH   5   6
END_RES SER A 383
ENDMDL
MODEL 3
REMARK VINA RESULT:    -9.902      5.502     11.192
REMARK INTER + INTRA:          -3.793
REMARK INTER:                 -11.937
REMARK INTRA:                   8.144
REMARK UNBOUND:                 8.424
REMARK  4 active torsions:
REMARK  status: ('A' for Active; 'I' for Inactive)
REMARK    1  A    between atoms: C3_3  and  C4_4 
REMARK       I    between atoms: C4_4  and  N6_6 
REMARK    2  A    between atoms: N6_6  and  N7_7 
REMARK    3  A    between atoms: N14_14  and  C15_15 
REMARK    4  A    between atoms: C23_23  and  C24_24 
ROOT
ATOM      1  C1  UNL A   1     -11.454  -6.313  12.336  1.00  0.00     0.034 C 
ATOM      2  C2  UNL A   1     -12.331  -5.109  12.396  1.00  0.00     0.020 A 
ATOM      3  C3  UNL A   1     -12.041  -3.819  11.848  1.00  0.00     0.155 A 
ATOM      4  N13 UNL A   1     -13.059  -2.980  12.072  1.00  0.00    -0.161 NA
ATOM      5  N14 UNL A   1     -14.006  -3.684  12.738  1.00  0.00    -0.229 N 
ATOM      6  C23 UNL A   1     -13.614  -5.015  12.961  1.00  0.00     0.081 A 
ENDROOT
BRANCH   3   7
ATOM      7  C4  UNL A   1     -10.832  -3.339  11.114  1.00  0.00     0.287 C 
ATOM      8  O5  UNL A   1     -10.835  -3.143   9.899  1.00  0.00    -0.265 OA
ATOM      9  N6  UNL A   1      -9.734  -3.157  11.947  1.00  0.00    -0.282 N 
ATOM     10  H32 UNL A   1      -9.870  -3.313  12.909  1.00  0.00     0.184 HD
BRANCH   9  11
ATOM     11  N7  UNL A   1      -8.428  -2.762  11.527  1.00  0.00    -0.199 NA
ATOM     12  C8  UNL A   1      -7.588  -2.262  12.628  1.00  0.00     0.094 C 
ATOM     13  C9  UNL A   1      -6.257  -1.707  12.112  1.00  0.00     0.019 C 
ATOM     14  C10 UNL A   1      -5.512  -2.739  11.270  1.00  0.00     0.003 C 
ATOM     15  C11 UNL A   1      -6.419  -3.271  10.167  1.00  0.00     0.019 C 
ATOM     16  C12 UNL A   1      -7.745  -3.794  10.733  1.00  0.00     0.094 C 
ENDBRANCH   9  11
ENDBRANCH   3   7
BRANCH   6  17
ATOM     17  C24 UNL A   1     -14.429  -6.096  13.600  1.00  0.00     0.028 A 
ATOM     18  C25 UNL A   1     -14.585  -6.074  15.003  1.00  0.00     0.003 A 
ATOM     19  C26 UNL A   1     -15.310  -7.060  15.688  1.00  0.00     0.011 A 
ATOM     20  C27 UNL A   1     -15.964  -8.052  14.975  1.00  0.00     0.059 A 
ATOM     21 CL28 UNL A   1     -16.889  -9.241  15.807  1.00  0.00    -0.082 Cl
ATOM     22  C29 UNL A   1     -15.848  -8.104  13.594  1.00  0.00     0.023 A 
ATOM     23  C30 UNL A   1     -15.039  -7.173  12.917  1.00  0.00     0.060 A 
ATOM     24 CL31 UNL A   1     -14.776  -7.512  11.240  1.00  0.00    -0.082 Cl
ENDBRANCH   6  17
BRANCH   5  25
ATOM     25  C15 UNL A   1     -15.164  -2.981  13.181  1.00  0.00     0.093 A 
ATOM     26  C16 UNL A   1     -16.280  -2.873  12.335  1.00  0.00     0.021 A 
ATOM     27  C17 UNL A   1     -17.388  -2.112  12.725  1.00  0.00     0.013 A 
ATOM     28  C18 UNL A   1     -17.396  -1.478  13.965  1.00  0.00     0.059 A 
ATOM     29 CL19 UNL A   1     -18.744  -0.513  14.425  1.00  0.00    -0.082 Cl
ATOM     30  C20 UNL A   1     -16.312  -1.601  14.826  1.00  0.00     0.024 A 
ATOM     31  C21 UNL A   1     -15.193  -2.350  14.444  1.00  0.00     0.076 A 
ATOM     32 CL22 UNL A   1     -13.847  -2.280  15.536  1.00  0.00    -0.081 Cl
ENDBRANCH   5  25
TORSDOF 4
BEGIN_RES SER A 173
REMARK  2 active torsions:
REMARK  status: ('A' for Active; 'I' for Inactive)
REMARK    1  A    between atoms: CA   and  CB  
REMARK    2  A    between atoms: CB   and  OG  
ROOT
ATOM      1  CA  SER A 173      -4.540 -11.597  11.543  1.00127.03     0.292 C 
ENDROOT
BRANCH   1   2
ATOM      2  CB  SER A 173      -4.003 -10.168  11.569  1.00131.20     0.194 C 
BRANCH   2   3
ATOM      3  OG  SER A 173      -3.929  -9.670  12.894  1.00137.49    -0.550 OA
ATOM      4  HG  SER A 173      -4.789  -9.440  13.224  1.00  0.00     0.310 HD
ENDBRANCH   2   3
ENDBRANCH   1   2
END_RES SER A 173
BEGIN_RES SER A 383
REMARK  2 active torsions:
REMARK  status: ('A' for Active; 'I' for Inactive)
REMARK    3  A    between atoms: CA   and  CB  
REMARK    4  A    between atoms: CB   and  OG  
ROOT
ATOM      5  CA  SER A 383      -8.934   0.934   8.031  1.00 88.23     0.292 C 
ENDROOT
BRANCH   5   6
ATOM      6  CB  SER A 383      -8.589   0.249   9.352  1.00 82.13     0.194 C 
BRANCH   6   7
ATOM      7  OG  SER A 383      -7.319   0.661   9.823  1.00 85.59    -0.550 OA
ATOM      8  HG  SER A 383      -7.047   1.472   9.408  1.00  0.00     0.310 HD
ENDBRANCH   6   7
ENDBRANCH   5   6
END_RES SER A 383
ENDMDL
MODEL 4
REMARK VINA RESULT:    -9.671      1.072      4.525
REMARK INTER + INTRA:          -3.509
REMARK INTER:                 -12.270
REMARK INTRA:                   8.761
REMARK UNBOUND:                 8.424
REMARK  4 active torsions:
REMARK  status: ('A' for Active; 'I' for Inactive)
REMARK    1  A    between atoms: C3_3  and  C4_4 
REMARK       I    between atoms: C4_4  and  N6_6 
REMARK    2  A    between atoms: N6_6  and  N7_7 
REMARK    3  A    between atoms: N14_14  and  C15_15 
REMARK    4  A    between atoms: C23_23  and  C24_24 
ROOT
ATOM      1  C1  UNL A   1      -8.062  -4.185   8.323  1.00  0.00     0.034 C 
ATOM      2  C2  UNL A   1      -7.015  -3.325   8.945  1.00  0.00     0.020 A 
ATOM      3  C3  UNL A   1      -7.041  -2.778  10.267  1.00  0.00     0.155 A 
ATOM      4  N13 UNL A   1      -5.929  -2.068  10.498  1.00  0.00    -0.161 NA
ATOM      5  N14 UNL A   1      -5.178  -2.144   9.372  1.00  0.00    -0.229 N 
ATOM      6  C23 UNL A   1      -5.796  -2.918   8.376  1.00  0.00     0.081 A 
ENDROOT
BRANCH   3   7
ATOM      7  C4  UNL A   1      -8.078  -2.898  11.334  1.00  0.00     0.287 C 
ATOM      8  O5  UNL A   1      -7.918  -2.436  12.463  1.00  0.00    -0.265 OA
ATOM      9  N6  UNL A   1      -9.210  -3.585  10.908  1.00  0.00    -0.282 N 
ATOM     10  H32 UNL A   1      -9.233  -3.873   9.968  1.00  0.00     0.184 HD
BRANCH   9  11
ATOM     11  N7  UNL A   1     -10.342  -3.906  11.718  1.00  0.00    -0.199 NA
ATOM     12  C8  UNL A   1     -11.528  -3.090  11.413  1.00  0.00     0.094 C 
ATOM     13  C9  UNL A   1     -12.664  -3.359  12.403  1.00  0.00     0.019 C 
ATOM     14  C10 UNL A   1     -13.013  -4.843  12.463  1.00  0.00     0.003 C 
ATOM     15  C11 UNL A   1     -11.759  -5.666  12.737  1.00  0.00     0.019 C 
ATOM     16  C12 UNL A   1     -10.646  -5.345  11.732  1.00  0.00     0.094 C 
ENDBRANCH   9  11
ENDBRANCH   3   7
BRANCH   6  17
ATOM     17  C24 UNL A   1      -5.230  -3.275   7.037  1.00  0.00     0.028 A 
ATOM     18  C25 UNL A   1      -5.441  -2.383   5.963  1.00  0.00     0.003 A 
ATOM     19  C26 UNL A   1      -4.968  -2.650   4.670  1.00  0.00     0.011 A 
ATOM     20  C27 UNL A   1      -4.206  -3.782   4.435  1.00  0.00     0.059 A 
ATOM     21 CL28 UNL A   1      -3.589  -4.093   2.859  1.00  0.00    -0.082 Cl
ATOM     22  C29 UNL A   1      -3.965  -4.680   5.465  1.00  0.00     0.023 A 
ATOM     23  C30 UNL A   1      -4.522  -4.462   6.738  1.00  0.00     0.060 A 
ATOM     24 CL31 UNL A   1      -4.361  -5.783   7.846  1.00  0.00    -0.082 Cl
ENDBRANCH   6  17
BRANCH   5  25
ATOM     25  C15 UNL A   1      -3.973  -1.384   9.329  1.00  0.00     0.093 A 
ATOM     26  C16 UNL A   1      -2.876  -1.771  10.117  1.00  0.00     0.021 A 
ATOM     27  C17 UNL A   1      -1.719  -0.983  10.148  1.00  0.00     0.013 A 
ATOM     28  C18 UNL A   1      -1.645   0.176   9.379  1.00  0.00     0.059 A 
ATOM     29 CL19 UNL A   1      -0.236   1.161   9.451  1.00  0.00    -0.082 Cl
ATOM     30  C20 UNL A   1      -2.710   0.555   8.571  1.00  0.00     0.024 A 
ATOM     31  C21 UNL A   1      -3.877  -0.217   8.539  1.00  0.00     0.076 A 
ATOM     32 CL22 UNL A   1      -5.187   0.458   7.626  1.00  0.00    -0.081 Cl
ENDBRANCH   5  25
TORSDOF 4
BEGIN_RES SER A 173
REMARK  2 active torsions:
REMARK  status: ('A' for Active; 'I' for Inactive)
REMARK    1  A    between atoms: CA   and  CB  
REMARK    2  A    between atoms: CB   and  OG  
ROOT
ATOM      1  CA  SER A 173      -4.540 -11.597  11.543  1.00127.03     0.292 C 
ENDROOT
BRANCH   1   2
ATOM      2  CB  SER A 173      -4.003 -10.168  11.569  1.00131.20     0.194 C 
BRANCH   2   3
ATOM      3  OG  SER A 173      -3.945  -9.664  12.892  1.00137.49    -0.550 OA
ATOM      4  HG  SER A 173      -3.328 -10.155  13.421  1.00  0.00     0.310 HD
ENDBRANCH   2   3
ENDBRANCH   1   2
END_RES SER A 173
BEGIN_RES SER A 383
REMARK  2 active torsions:
REMARK  status: ('A' for Active; 'I' for Inactive)
REMARK    3  A    between atoms: CA   and  CB  
REMARK    4  A    between atoms: CB   and  OG  
ROOT
ATOM      5  CA  SER A 383      -8.934   0.934   8.031  1.00 88.23     0.292 C 
ENDROOT
BRANCH   5   6
ATOM      6  CB  SER A 383      -8.589   0.249   9.352  1.00 82.13     0.194 C 
BRANCH   6   7
ATOM      7  OG  SER A 383      -7.343   0.702   9.850  1.00 85.59    -0.550 OA
ATOM      8  HG  SER A 383      -7.464   1.299  10.580  1.00  0.00     0.310 HD
ENDBRANCH   6   7
ENDBRANCH   5   6
END_RES SER A 383
ENDMDL
MODEL 5
REMARK VINA RESULT:    -9.666      5.651     11.222
REMARK INTER + INTRA:          -3.502
REMARK INTER:                 -11.640
REMARK INTRA:                   8.138
REMARK UNBOUND:                 8.424
REMARK  4 active torsions:
REMARK  status: ('A' for Active; 'I' for Inactive)
REMARK    1  A    between atoms: C3_3  and  C4_4 
REMARK       I    between atoms: C4_4  and  N6_6 
REMARK    2  A    between atoms: N6_6  and  N7_7 
REMARK    3  A    between atoms: N14_14  and  C15_15 
REMARK    4  A    between atoms: C23_23  and  C24_24 
ROOT
ATOM      1  C1  UNL A   1     -11.387  -6.228  12.510  1.00  0.00     0.034 C 
ATOM      2  C2  UNL A   1     -12.291  -5.043  12.476  1.00  0.00     0.020 A 
ATOM      3  C3  UNL A   1     -12.022  -3.788  11.843  1.00  0.00     0.155 A 
ATOM      4  N13 UNL A   1     -13.062  -2.958  11.996  1.00  0.00    -0.161 NA
ATOM      5  N14 UNL A   1     -14.001  -3.637  12.698  1.00  0.00    -0.229 N 
ATOM      6  C23 UNL A   1     -13.583  -4.939  13.017  1.00  0.00     0.081 A 
ENDROOT
BRANCH   3   7
ATOM      7  C4  UNL A   1     -10.814  -3.332  11.092  1.00  0.00     0.287 C 
ATOM      8  O5  UNL A   1     -10.822  -3.162   9.874  1.00  0.00    -0.265 OA
ATOM      9  N6  UNL A   1      -9.711  -3.139  11.916  1.00  0.00    -0.282 N 
ATOM     10  H32 UNL A   1      -9.842  -3.273  12.881  1.00  0.00     0.184 HD
BRANCH   9  11
ATOM     11  N7  UNL A   1      -8.404  -2.762  11.481  1.00  0.00    -0.199 NA
ATOM     12  C8  UNL A   1      -7.576  -2.185  12.552  1.00  0.00     0.094 C 
ATOM     13  C9  UNL A   1      -6.246  -1.655  12.011  1.00  0.00     0.019 C 
ATOM     14  C10 UNL A   1      -5.486  -2.733  11.244  1.00  0.00     0.003 C 
ATOM     15  C11 UNL A   1      -6.381  -3.343  10.171  1.00  0.00     0.019 C 
ATOM     16  C12 UNL A   1      -7.707  -3.838  10.760  1.00  0.00     0.094 C 
ENDBRANCH   9  11
ENDBRANCH   3   7
BRANCH   6  17
ATOM     17  C24 UNL A   1     -14.384  -5.992  13.719  1.00  0.00     0.028 A 
ATOM     18  C25 UNL A   1     -15.118  -6.908  12.935  1.00  0.00     0.003 A 
ATOM     19  C26 UNL A   1     -15.914  -7.910  13.509  1.00  0.00     0.011 A 
ATOM     20  C27 UNL A   1     -15.935  -8.068  14.885  1.00  0.00     0.059 A 
ATOM     21 CL28 UNL A   1     -16.878  -9.321  15.593  1.00  0.00    -0.082 Cl
ATOM     22  C29 UNL A   1     -15.218  -7.197  15.693  1.00  0.00     0.023 A 
ATOM     23  C30 UNL A   1     -14.499  -6.132  15.122  1.00  0.00     0.060 A 
ATOM     24 CL31 UNL A   1     -13.874  -4.978  16.251  1.00  0.00    -0.082 Cl
ENDBRANCH   6  17
BRANCH   5  25
ATOM     25  C15 UNL A   1     -15.181  -2.932  13.077  1.00  0.00     0.093 A 
ATOM     26  C16 UNL A   1     -15.306  -2.437  14.386  1.00  0.00     0.021 A 
ATOM     27  C17 UNL A   1     -16.495  -1.820  14.794  1.00  0.00     0.013 A 
ATOM     28  C18 UNL A   1     -17.549  -1.676  13.895  1.00  0.00     0.059 A 
ATOM     29 CL19 UNL A   1     -19.022  -0.952  14.413  1.00  0.00    -0.082 Cl
ATOM     30  C20 UNL A   1     -17.429  -2.134  12.588  1.00  0.00     0.024 A 
ATOM     31  C21 UNL A   1     -16.250  -2.762  12.170  1.00  0.00     0.076 A 
ATOM     32 CL22 UNL A   1     -16.296  -3.435  10.573  1.00  0.00    -0.081 Cl
ENDBRANCH   5  25
TORSDOF 4
BEGIN_RES SER A 173
REMARK  2 active torsions:
REMARK  status: ('A' for Active; 'I' for Inactive)
REMARK    1  A    between atoms: CA   and  CB  
REMARK    2  A    between atoms: CB   and  OG  
ROOT
ATOM      1  CA  SER A 173      -4.540 -11.597  11.543  1.00127.03     0.292 C 
ENDROOT
BRANCH   1   2
ATOM      2  CB  SER A 173      -4.003 -10.168  11.569  1.00131.20     0.194 C 
BRANCH   2   3
ATOM      3  OG  SER A 173      -3.931  -9.670  12.894  1.00137.49    -0.550 OA
ATOM      4  HG  SER A 173      -4.779  -9.366  13.195  1.00  0.00     0.310 HD
ENDBRANCH   2   3
ENDBRANCH   1   2
END_RES SER A 173
BEGIN_RES SER A 383
REMARK  2 active torsions:
REMARK  status: ('A' for Active; 'I' for Inactive)
REMARK    3  A    between atoms: CA   and  CB  
REMARK    4  A    between atoms: CB   and  OG  
ROOT
ATOM      5  CA  SER A 383      -8.934   0.934   8.031  1.00 88.23     0.292 C 
ENDROOT
BRANCH   5   6
ATOM      6  CB  SER A 383      -8.589   0.249   9.352  1.00 82.13     0.194 C 
BRANCH   6   7
ATOM      7  OG  SER A 383      -7.331   0.681   9.837  1.00 85.59    -0.550 OA
ATOM      8  HG  SER A 383      -6.843  -0.042  10.213  1.00  0.00     0.310 HD
ENDBRANCH   6   7
ENDBRANCH   5   6
END_RES SER A 383
ENDMDL
MODEL 6
REMARK VINA RESULT:    -9.350      5.579     10.458
REMARK INTER + INTRA:          -3.113
REMARK INTER:                 -11.601
REMARK INTRA:                   8.488
REMARK UNBOUND:                 8.424
REMARK  4 active torsions:
REMARK  status: ('A' for Active; 'I' for Inactive)
REMARK    1  A    between atoms: C3_3  and  C4_4 
REMARK       I    between atoms: C4_4  and  N6_6 
REMARK    2  A    between atoms: N6_6  and  N7_7 
REMARK    3  A    between atoms: N14_14  and  C15_15 
REMARK    4  A    between atoms: C23_23  and  C24_24 
ROOT
ATOM      1  C1  UNL A   1     -10.857  -5.872  12.650  1.00  0.00     0.034 C 
ATOM      2  C2  UNL A   1     -11.814  -5.070  11.835  1.00  0.00     0.020 A 
ATOM      3  C3  UNL A   1     -11.475  -4.071  10.868  1.00  0.00     0.155 A 
ATOM      4  N13 UNL A   1     -12.584  -3.566  10.314  1.00  0.00    -0.161 NA
ATOM      5  N14 UNL A   1     -13.631  -4.211  10.881  1.00  0.00    -0.229 N 
ATOM      6  C23 UNL A   1     -13.215  -5.163  11.827  1.00  0.00     0.081 A 
ENDROOT
BRANCH   3   7
ATOM      7  C4  UNL A   1     -10.136  -3.566  10.439  1.00  0.00     0.287 C 
ATOM      8  O5  UNL A   1      -9.794  -3.530   9.258  1.00  0.00    -0.265 OA
ATOM      9  N6  UNL A   1      -9.345  -3.166  11.510  1.00  0.00    -0.282 N 
ATOM     10  H32 UNL A   1      -9.747  -3.210  12.407  1.00  0.00     0.184 HD
BRANCH   9  11
ATOM     11  N7  UNL A   1      -7.999  -2.695  11.420  1.00  0.00    -0.199 NA
ATOM     12  C8  UNL A   1      -7.489  -2.141  12.685  1.00  0.00     0.094 C 
ATOM     13  C9  UNL A   1      -6.106  -1.510  12.504  1.00  0.00     0.019 C 
ATOM     14  C10 UNL A   1      -5.117  -2.498  11.892  1.00  0.00     0.003 C 
ATOM     15  C11 UNL A   1      -5.691  -3.087  10.608  1.00  0.00     0.019 C 
ATOM     16  C12 UNL A   1      -7.083  -3.686  10.838  1.00  0.00     0.094 C 
ENDBRANCH   9  11
ENDBRANCH   3   7
BRANCH   6  17
ATOM     17  C24 UNL A   1     -14.089  -6.107  12.595  1.00  0.00     0.028 A 
ATOM     18  C25 UNL A   1     -14.679  -7.185  11.902  1.00  0.00     0.003 A 
ATOM     19  C26 UNL A   1     -15.530  -8.102  12.536  1.00  0.00     0.011 A 
ATOM     20  C27 UNL A   1     -15.751  -8.006  13.900  1.00  0.00     0.059 A 
ATOM     21 CL28 UNL A   1     -16.762  -9.152  14.690  1.00  0.00    -0.082 Cl
ATOM     22  C29 UNL A   1     -15.181  -6.968  14.622  1.00  0.00     0.023 A 
ATOM     23  C30 UNL A   1     -14.408  -5.992  13.968  1.00  0.00     0.060 A 
ATOM     24 CL31 UNL A   1     -13.982  -4.622  14.937  1.00  0.00    -0.082 Cl
ENDBRANCH   6  17
BRANCH   5  25
ATOM     25  C15 UNL A   1     -14.944  -3.784  10.525  1.00  0.00     0.093 A 
ATOM     26  C16 UNL A   1     -15.454  -4.088   9.252  1.00  0.00     0.021 A 
ATOM     27  C17 UNL A   1     -16.706  -3.598   8.861  1.00  0.00     0.013 A 
ATOM     28  C18 UNL A   1     -17.459  -2.826   9.742  1.00  0.00     0.059 A 
ATOM     29 CL19 UNL A   1     -18.979  -2.195   9.243  1.00  0.00    -0.082 Cl
ATOM     30  C20 UNL A   1     -16.980  -2.542  11.016  1.00  0.00     0.024 A 
ATOM     31  C21 UNL A   1     -15.725  -3.016  11.416  1.00  0.00     0.076 A 
ATOM     32 CL22 UNL A   1     -15.177  -2.448  12.960  1.00  0.00    -0.081 Cl
ENDBRANCH   5  25
TORSDOF 4
BEGIN_RES SER A 173
REMARK  2 active torsions:
REMARK  status: ('A' for Active; 'I' for Inactive)
REMARK    1  A    between atoms: CA   and  CB  
REMARK    2  A    between atoms: CB   and  OG  
ROOT
ATOM      1  CA  SER A 173      -4.540 -11.597  11.543  1.00127.03     0.292 C 
ENDROOT
BRANCH   1   2
ATOM      2  CB  SER A 173      -4.003 -10.168  11.569  1.00131.20     0.194 C 
BRANCH   2   3
ATOM      3  OG  SER A 173      -3.908  -9.679  12.895  1.00137.49    -0.550 OA
ATOM      4  HG  SER A 173      -4.522  -8.970  13.047  1.00  0.00     0.310 HD
ENDBRANCH   2   3
ENDBRANCH   1   2
END_RES SER A 173
BEGIN_RES SER A 383
REMARK  2 active torsions:
REMARK  status: ('A' for Active; 'I' for Inactive)
REMARK    3  A    between atoms: CA   and  CB  
REMARK    4  A    between atoms: CB   and  OG  
ROOT
ATOM      5  CA  SER A 383      -8.934   0.934   8.031  1.00 88.23     0.292 C 
ENDROOT
BRANCH   5   6
ATOM      6  CB  SER A 383      -8.589   0.249   9.352  1.00 82.13     0.194 C 
BRANCH   6   7
ATOM      7  OG  SER A 383      -7.211   0.383   9.651  1.00 85.59    -0.550 OA
ATOM      8  HG  SER A 383      -6.852   1.171   9.260  1.00  0.00     0.310 HD
ENDBRANCH   6   7
ENDBRANCH   5   6
END_RES SER A 383
ENDMDL
MODEL 7
REMARK VINA RESULT:    -8.962      5.983     11.342
REMARK INTER + INTRA:          -2.633
REMARK INTER:                 -10.660
REMARK INTRA:                   8.026
REMARK UNBOUND:                 8.424
REMARK  4 active torsions:
REMARK  status: ('A' for Active; 'I' for Inactive)
REMARK    1  A    between atoms: C3_3  and  C4_4 
REMARK       I    between atoms: C4_4  and  N6_6 
REMARK    2  A    between atoms: N6_6  and  N7_7 
REMARK    3  A    between atoms: N14_14  and  C15_15 
REMARK    4  A    between atoms: C23_23  and  C24_24 
ROOT
ATOM      1  C1  UNL A   1     -13.387  -3.033  11.115  1.00  0.00     0.034 C 
ATOM      2  C2  UNL A   1     -13.301  -4.058  12.196  1.00  0.00     0.020 A 
ATOM      3  C3  UNL A   1     -12.251  -5.011  12.380  1.00  0.00     0.155 A 
ATOM      4  N13 UNL A   1     -12.490  -5.764  13.460  1.00  0.00    -0.161 NA
ATOM      5  N14 UNL A   1     -13.657  -5.324  13.990  1.00  0.00    -0.229 N 
ATOM      6  C23 UNL A   1     -14.204  -4.260  13.253  1.00  0.00     0.081 A 
ENDROOT
BRANCH   3   7
ATOM      7  C4  UNL A   1     -11.016  -5.246  11.572  1.00  0.00     0.287 C 
ATOM      8  O5  UNL A   1     -10.865  -6.249  10.877  1.00  0.00    -0.265 OA
ATOM      9  N6  UNL A   1     -10.083  -4.224  11.709  1.00  0.00    -0.282 N 
ATOM     10  H32 UNL A   1     -10.338  -3.455  12.267  1.00  0.00     0.184 HD
BRANCH   9  11
ATOM     11  N7  UNL A   1      -8.787  -4.195  11.108  1.00  0.00    -0.199 NA
ATOM     12  C8  UNL A   1      -8.805  -3.749   9.706  1.00  0.00     0.094 C 
ATOM     13  C9  UNL A   1      -7.424  -3.880   9.058  1.00  0.00     0.019 C 
ATOM     14  C10 UNL A   1      -6.358  -3.142   9.861  1.00  0.00     0.003 C 
ATOM     15  C11 UNL A   1      -6.392  -3.592  11.317  1.00  0.00     0.019 C 
ATOM     16  C12 UNL A   1      -7.799  -3.461  11.913  1.00  0.00     0.094 C 
ENDBRANCH   9  11
ENDBRANCH   3   7
BRANCH   6  17
ATOM     17  C24 UNL A   1     -15.441  -3.483  13.581  1.00  0.00     0.028 A 
ATOM     18  C25 UNL A   1     -16.597  -3.707  12.803  1.00  0.00     0.003 A 
ATOM     19  C26 UNL A   1     -17.791  -3.005  13.024  1.00  0.00     0.011 A 
ATOM     20  C27 UNL A   1     -17.880  -2.115  14.081  1.00  0.00     0.059 A 
ATOM     21 CL28 UNL A   1     -19.356  -1.281  14.381  1.00  0.00    -0.082 Cl
ATOM     22  C29 UNL A   1     -16.771  -1.873  14.878  1.00  0.00     0.023 A 
ATOM     23  C30 UNL A   1     -15.546  -2.503  14.595  1.00  0.00     0.060 A 
ATOM     24 CL31 UNL A   1     -14.192  -1.914  15.499  1.00  0.00    -0.082 Cl
ENDBRANCH   6  17
BRANCH   5  25
ATOM     25  C15 UNL A   1     -14.186  -6.034  15.107  1.00  0.00     0.093 A 
ATOM     26  C16 UNL A   1     -13.637  -5.832  16.385  1.00  0.00     0.021 A 
ATOM     27  C17 UNL A   1     -14.090  -6.587  17.473  1.00  0.00     0.013 A 
ATOM     28  C18 UNL A   1     -15.103  -7.526  17.296  1.00  0.00     0.059 A 
ATOM     29 CL19 UNL A   1     -15.629  -8.479  18.628  1.00  0.00    -0.082 Cl
ATOM     30  C20 UNL A   1     -15.677  -7.716  16.044  1.00  0.00     0.024 A 
ATOM     31  C21 UNL A   1     -15.226  -6.975  14.945  1.00  0.00     0.076 A 
ATOM     32 CL22 UNL A   1     -15.906  -7.430  13.416  1.00  0.00    -0.081 Cl
ENDBRANCH   5  25
TORSDOF 4
BEGIN_RES SER A 173
REMARK  2 active torsions:
REMARK  status: ('A' for Active; 'I' for Inactive)
REMARK    1  A    between atoms: CA   and  CB  
REMARK    2  A    between atoms: CB   and  OG  
ROOT
ATOM      1  CA  SER A 173      -4.540 -11.597  11.543  1.00127.03     0.292 C 
ENDROOT
BRANCH   1   2
ATOM      2  CB  SER A 173      -4.003 -10.168  11.569  1.00131.20     0.194 C 
BRANCH   2   3
ATOM      3  OG  SER A 173      -3.927  -9.671  12.894  1.00137.49    -0.550 OA
ATOM      4  HG  SER A 173      -3.129  -9.956  13.324  1.00  0.00     0.310 HD
ENDBRANCH   2   3
ENDBRANCH   1   2
END_RES SER A 173
BEGIN_RES SER A 383
REMARK  2 active torsions:
REMARK  status: ('A' for Active; 'I' for Inactive)
REMARK    3  A    between atoms: CA   and  CB  
REMARK    4  A    between atoms: CB   and  OG  
ROOT
ATOM      5  CA  SER A 383      -8.934   0.934   8.031  1.00 88.23     0.292 C 
ENDROOT
BRANCH   5   6
ATOM      6  CB  SER A 383      -8.589   0.249   9.352  1.00 82.13     0.194 C 
BRANCH   6   7
ATOM      7  OG  SER A 383      -7.223   0.431   9.679  1.00 85.59    -0.550 OA
ATOM      8  HG  SER A 383      -7.114   1.127  10.316  1.00  0.00     0.310 HD
ENDBRANCH   6   7
ENDBRANCH   5   6
END_RES SER A 383
ENDMDL
