MODEL 1
REMARK VINA RESULT:   -11.543      0.000      0.000
REMARK INTER + INTRA:          -6.257
REMARK INTER:                 -14.580
REMARK INTRA:                   8.322
REMARK UNBOUND:                 8.322
REMARK  5 active torsions:
REMARK  status: ('A' for Active; 'I' for Inactive)
REMARK    1  A    between atoms: C3_3  and  C4_4 
REMARK       I    between atoms: C4_4  and  N6_6 
REMARK    2  A    between atoms: N6_6  and  N7_7 
REMARK    3  A    between atoms: N14_14  and  C15_15 
REMARK    4  A    between atoms: C23_23  and  C24_24 
REMARK    5  A    between atoms: C27_27  and  N28_28 
ROOT
ATOM      1  C1  UNL A   1      -6.015  -1.689  12.089  1.00  0.00     0.034 C 
ATOM      2  C2  UNL A   1      -6.196  -2.392  10.790  1.00  0.00     0.020 A 
ATOM      3  C3  UNL A   1      -7.275  -3.256  10.420  1.00  0.00     0.155 A 
ATOM      4  N13 UNL A   1      -7.133  -3.667   9.151  1.00  0.00    -0.161 NA
ATOM      5  N14 UNL A   1      -5.995  -3.100   8.690  1.00  0.00    -0.229 N 
ATOM      6  C23 UNL A   1      -5.372  -2.302   9.660  1.00  0.00     0.081 A 
ENDROOT
BRANCH   3   7
ATOM      7  C4  UNL A   1      -8.451  -3.706  11.215  1.00  0.00     0.287 C 
ATOM      8  O5  UNL A   1      -8.387  -3.960  12.415  1.00  0.00    -0.265 OA
ATOM      9  N6  UNL A   1      -9.609  -3.808  10.443  1.00  0.00    -0.282 N 
ATOM     10  H31 UNL A   1      -9.539  -3.545   9.497  1.00  0.00     0.184 HD
BRANCH   9  11
ATOM     11  N7  UNL A   1     -10.879  -4.255  10.896  1.00  0.00    -0.199 NA
ATOM     12  C8  UNL A   1     -11.897  -3.196  10.903  1.00  0.00     0.094 C 
ATOM     13  C9  UNL A   1     -13.201  -3.680  11.552  1.00  0.00     0.019 C 
ATOM     14  C10 UNL A   1     -13.718  -4.951  10.887  1.00  0.00     0.003 C 
ATOM     15  C11 UNL A   1     -12.623  -6.011  10.849  1.00  0.00     0.019 C 
ATOM     16  C12 UNL A   1     -11.338  -5.469  10.209  1.00  0.00     0.094 C 
ENDBRANCH   9  11
ENDBRANCH   3   7
BRANCH   6  17
ATOM     17  C24 UNL A   1      -4.157  -1.476   9.450  1.00  0.00     0.018 A 
ATOM     18  C25 UNL A   1      -2.939  -1.782  10.077  1.00  0.00     0.003 A 
ATOM     19  C26 UNL A   1      -1.831  -0.931   9.968  1.00  0.00     0.017 A 
ATOM     20  C27 UNL A   1      -1.861   0.181   9.130  1.00  0.00     0.050 A 
ATOM     21  C29 UNL A   1      -3.061   0.486   8.486  1.00  0.00     0.017 A 
ATOM     22  C30 UNL A   1      -4.192  -0.331   8.642  1.00  0.00     0.003 A 
BRANCH  20  23
ATOM     23  N28 UNL A   1      -0.802   1.093   9.125  1.00  0.00    -0.398 N 
ATOM     24  H32 UNL A   1      -0.427   1.416   9.976  1.00  0.00     0.156 HD
ATOM     25  H33 UNL A   1      -0.432   1.414   8.271  1.00  0.00     0.156 HD
ENDBRANCH  20  23
ENDBRANCH   6  17
BRANCH   5  26
ATOM     26  C15 UNL A   1      -5.555  -3.433   7.373  1.00  0.00     0.093 A 
ATOM     27  C16 UNL A   1      -5.881  -2.582   6.299  1.00  0.00     0.021 A 
ATOM     28  C17 UNL A   1      -5.521  -2.919   4.991  1.00  0.00     0.013 A 
ATOM     29  C18 UNL A   1      -4.804  -4.087   4.750  1.00  0.00     0.059 A 
ATOM     30 CL19 UNL A   1      -4.382  -4.514   3.139  1.00  0.00    -0.082 Cl
ATOM     31  C20 UNL A   1      -4.443  -4.922   5.804  1.00  0.00     0.024 A 
ATOM     32  C21 UNL A   1      -4.816  -4.604   7.116  1.00  0.00     0.076 A 
ATOM     33 CL22 UNL A   1      -4.445  -5.805   8.308  1.00  0.00    -0.081 Cl
ENDBRANCH   5  26
TORSDOF 5
BEGIN_RES SER A 173
REMARK  2 active torsions:
REMARK  status: ('A' for Active; 'I' for Inactive)
REMARK    1  A    between atoms: CA   and  CB  
REMARK    2  A    between atoms: CB   and  OG  
ROOT
ATOM      1  CA  SER A 173      -4.540 -11.597  11.543  1.00127.03     0.292 C 
ENDROOT
BRANCH   1   2
ATOM      2  CB  SER A 173      -4.003 -10.168  11.569  1.00131.20     0.194 C 
BRANCH   2   3
ATOM      3  OG  SER A 173      -3.893  -9.684  12.896  1.00137.49    -0.550 OA
ATOM      4  HG  SER A 173      -3.208 -10.137  13.373  1.00  0.00     0.310 HD
ENDBRANCH   2   3
ENDBRANCH   1   2
END_RES SER A 173
BEGIN_RES SER A 383
REMARK  2 active torsions:
REMARK  status: ('A' for Active; 'I' for Inactive)
REMARK    3  A    between atoms: CA   and  CB  
REMARK    4  A    between atoms: CB   and  OG  
ROOT
ATOM      5  CA  SER A 383      -8.934   0.934   8.031  1.00 88.23     0.292 C 
ENDROOT
BRANCH   5   6
ATOM      6  CB  SER A 383      -8.589   0.249   9.352  1.00 82.13     0.194 C 
BRANCH   6   7
ATOM      7  OG  SER A 383      -7.346   0.705   9.853  1.00 85.59    -0.550 OA
ATOM      8  HG  SER A 383      -6.727  -0.012   9.937  1.00  0.00     0.310 HD
ENDBRANCH   6   7
ENDBRANCH   5   6
END_RES SER A 383
ENDMDL
MODEL 2
REMARK VINA RESULT:    -9.858      3.474      6.167
REMARK INTER + INTRA:          -4.129
REMARK INTER:                 -12.714
REMARK INTRA:                   8.585
REMARK UNBOUND:                 8.322
REMARK  5 active torsions:
REMARK  status: ('A' for Active; 'I' for Inactive)
REMARK    1  A    between atoms: C3_3  and  C4_4 
REMARK       I    between atoms: C4_4  and  N6_6 
REMARK    2  A    between atoms: N6_6  and  N7_7 
REMARK    3  A    between atoms: N14_14  and  C15_15 
REMARK    4  A    between atoms: C23_23  and  C24_24 
REMARK    5  A    between atoms: C27_27  and  N28_28 
ROOT
ATOM      1  C1  UNL A   1      -7.250  -4.196  10.573  1.00  0.00     0.034 C 
ATOM      2  C2  UNL A   1      -6.181  -3.163  10.662  1.00  0.00     0.020 A 
ATOM      3  C3  UNL A   1      -5.819  -2.393  11.811  1.00  0.00     0.155 A 
ATOM      4  N13 UNL A   1      -4.775  -1.598  11.534  1.00  0.00    -0.161 NA
ATOM      5  N14 UNL A   1      -4.452  -1.828  10.241  1.00  0.00    -0.229 N 
ATOM      6  C23 UNL A   1      -5.289  -2.785   9.650  1.00  0.00     0.081 A 
ENDROOT
BRANCH   3   7
ATOM      7  C4  UNL A   1      -6.414  -2.381  13.177  1.00  0.00     0.287 C 
ATOM      8  O5  UNL A   1      -7.619  -2.507  13.380  1.00  0.00    -0.265 OA
ATOM      9  N6  UNL A   1      -5.455  -2.205  14.175  1.00  0.00    -0.282 N 
ATOM     10  H31 UNL A   1      -4.516  -2.149  13.886  1.00  0.00     0.184 HD
BRANCH   9  11
ATOM     11  N7  UNL A   1      -5.709  -2.103  15.569  1.00  0.00    -0.199 NA
ATOM     12  C8  UNL A   1      -4.630  -2.660  16.397  1.00  0.00     0.094 C 
ATOM     13  C9  UNL A   1      -5.019  -2.678  17.881  1.00  0.00     0.019 C 
ATOM     14  C10 UNL A   1      -5.440  -1.295  18.365  1.00  0.00     0.003 C 
ATOM     15  C11 UNL A   1      -6.522  -0.724  17.456  1.00  0.00     0.019 C 
ATOM     16  C12 UNL A   1      -6.090  -0.748  15.984  1.00  0.00     0.094 C 
ENDBRANCH   9  11
ENDBRANCH   3   7
BRANCH   6  17
ATOM     17  C24 UNL A   1      -5.148  -3.323   8.274  1.00  0.00     0.018 A 
ATOM     18  C25 UNL A   1      -5.769  -2.710   7.175  1.00  0.00     0.003 A 
ATOM     19  C26 UNL A   1      -5.730  -3.290   5.900  1.00  0.00     0.017 A 
ATOM     20  C27 UNL A   1      -4.967  -4.429   5.655  1.00  0.00     0.050 A 
ATOM     21  C29 UNL A   1      -4.331  -5.039   6.736  1.00  0.00     0.017 A 
ATOM     22  C30 UNL A   1      -4.418  -4.494   8.027  1.00  0.00     0.003 A 
BRANCH  20  23
ATOM     23  N28 UNL A   1      -5.037  -5.074   4.416  1.00  0.00    -0.398 N 
ATOM     24  H32 UNL A   1      -4.867  -4.570   3.588  1.00  0.00     0.156 HD
ATOM     25  H33 UNL A   1      -5.256  -6.034   4.372  1.00  0.00     0.156 HD
ENDBRANCH  20  23
ENDBRANCH   6  17
BRANCH   5  26
ATOM     26  C15 UNL A   1      -3.410  -1.049   9.652  1.00  0.00     0.093 A 
ATOM     27  C16 UNL A   1      -2.080  -1.241  10.075  1.00  0.00     0.021 A 
ATOM     28  C17 UNL A   1      -1.051  -0.446   9.564  1.00  0.00     0.013 A 
ATOM     29  C18 UNL A   1      -1.334   0.521   8.604  1.00  0.00     0.059 A 
ATOM     30 CL19 UNL A   1      -0.072   1.517   7.993  1.00  0.00    -0.082 Cl
ATOM     31  C20 UNL A   1      -2.637   0.701   8.149  1.00  0.00     0.024 A 
ATOM     32  C21 UNL A   1      -3.680  -0.077   8.669  1.00  0.00     0.076 A 
ATOM     33 CL22 UNL A   1      -5.271   0.357   8.137  1.00  0.00    -0.081 Cl
ENDBRANCH   5  26
TORSDOF 5
BEGIN_RES SER A 173
REMARK  2 active torsions:
REMARK  status: ('A' for Active; 'I' for Inactive)
REMARK    1  A    between atoms: CA   and  CB  
REMARK    2  A    between atoms: CB   and  OG  
ROOT
ATOM      1  CA  SER A 173      -4.540 -11.597  11.543  1.00127.03     0.292 C 
ENDROOT
BRANCH   1   2
ATOM      2  CB  SER A 173      -4.003 -10.168  11.569  1.00131.20     0.194 C 
BRANCH   2   3
ATOM      3  OG  SER A 173      -3.895  -9.683  12.896  1.00137.49    -0.550 OA
ATOM      4  HG  SER A 173      -3.194  -9.047  12.975  1.00  0.00     0.310 HD
ENDBRANCH   2   3
ENDBRANCH   1   2
END_RES SER A 173
BEGIN_RES SER A 383
REMARK  2 active torsions:
REMARK  status: ('A' for Active; 'I' for Inactive)
REMARK    3  A    between atoms: CA   and  CB  
REMARK    4  A    between atoms: CB   and  OG  
ROOT
ATOM      5  CA  SER A 383      -8.934   0.934   8.031  1.00 88.23     0.292 C 
ENDROOT
BRANCH   5   6
ATOM      6  CB  SER A 383      -8.589   0.249   9.352  1.00 82.13     0.194 C 
BRANCH   6   7
ATOM      7  OG  SER A 383      -7.838   1.108  10.191  1.00 85.59    -0.550 OA
ATOM      8  HG  SER A 383      -6.937   0.814  10.263  1.00  0.00     0.310 HD
ENDBRANCH   6   7
ENDBRANCH   5   6
END_RES SER A 383
ENDMDL
MODEL 3
REMARK VINA RESULT:    -9.658      4.856     11.012
REMARK INTER + INTRA:          -3.876
REMARK INTER:                 -12.180
REMARK INTRA:                   8.303
REMARK UNBOUND:                 8.322
REMARK  5 active torsions:
REMARK  status: ('A' for Active; 'I' for Inactive)
REMARK    1  A    between atoms: C3_3  and  C4_4 
REMARK       I    between atoms: C4_4  and  N6_6 
REMARK    2  A    between atoms: N6_6  and  N7_7 
REMARK    3  A    between atoms: N14_14  and  C15_15 
REMARK    4  A    between atoms: C23_23  and  C24_24 
REMARK    5  A    between atoms: C27_27  and  N28_28 
ROOT
ATOM      1  C1  UNL A   1     -11.358  -6.414  12.062  1.00  0.00     0.034 C 
ATOM      2  C2  UNL A   1     -12.230  -5.211  12.167  1.00  0.00     0.020 A 
ATOM      3  C3  UNL A   1     -11.947  -3.896  11.683  1.00  0.00     0.155 A 
ATOM      4  N13 UNL A   1     -12.986  -3.078  11.909  1.00  0.00    -0.161 NA
ATOM      5  N14 UNL A   1     -13.931  -3.824  12.526  1.00  0.00    -0.229 N 
ATOM      6  C23 UNL A   1     -13.519  -5.150  12.714  1.00  0.00     0.081 A 
ENDROOT
BRANCH   3   7
ATOM      7  C4  UNL A   1     -10.730  -3.372  11.002  1.00  0.00     0.287 C 
ATOM      8  O5  UNL A   1     -10.697  -3.115   9.801  1.00  0.00    -0.265 OA
ATOM      9  N6  UNL A   1      -9.653  -3.220  11.876  1.00  0.00    -0.282 N 
ATOM     10  H31 UNL A   1      -9.815  -3.430  12.824  1.00  0.00     0.184 HD
BRANCH   9  11
ATOM     11  N7  UNL A   1      -8.346  -2.787  11.524  1.00  0.00    -0.199 NA
ATOM     12  C8  UNL A   1      -7.575  -2.283  12.668  1.00  0.00     0.094 C 
ATOM     13  C9  UNL A   1      -6.240  -1.678  12.217  1.00  0.00     0.019 C 
ATOM     14  C10 UNL A   1      -5.429  -2.668  11.388  1.00  0.00     0.003 C 
ATOM     15  C11 UNL A   1      -6.273  -3.212  10.241  1.00  0.00     0.019 C 
ATOM     16  C12 UNL A   1      -7.604  -3.786  10.745  1.00  0.00     0.094 C 
ENDBRANCH   9  11
ENDBRANCH   3   7
BRANCH   6  17
ATOM     17  C24 UNL A   1     -14.350  -6.242  13.280  1.00  0.00     0.018 A 
ATOM     18  C25 UNL A   1     -14.800  -7.311  12.492  1.00  0.00     0.003 A 
ATOM     19  C26 UNL A   1     -15.681  -8.273  13.004  1.00  0.00     0.017 A 
ATOM     20  C27 UNL A   1     -16.039  -8.271  14.350  1.00  0.00     0.050 A 
ATOM     21  C29 UNL A   1     -15.583  -7.223  15.150  1.00  0.00     0.017 A 
ATOM     22  C30 UNL A   1     -14.749  -6.223  14.624  1.00  0.00     0.003 A 
BRANCH  20  23
ATOM     23  N28 UNL A   1     -17.016  -9.152  14.824  1.00  0.00    -0.398 N 
ATOM     24  H32 UNL A   1     -17.437  -8.995  15.700  1.00  0.00     0.156 HD
ATOM     25  H33 UNL A   1     -17.281  -9.931  14.283  1.00  0.00     0.156 HD
ENDBRANCH  20  23
ENDBRANCH   6  17
BRANCH   5  26
ATOM     26  C15 UNL A   1     -15.131  -3.179  12.956  1.00  0.00     0.093 A 
ATOM     27  C16 UNL A   1     -16.236  -3.121  12.085  1.00  0.00     0.021 A 
ATOM     28  C17 UNL A   1     -17.397  -2.438  12.456  1.00  0.00     0.013 A 
ATOM     29  C18 UNL A   1     -17.477  -1.838  13.709  1.00  0.00     0.059 A 
ATOM     30 CL19 UNL A   1     -18.897  -0.976  14.156  1.00  0.00    -0.082 Cl
ATOM     31  C20 UNL A   1     -16.408  -1.915  14.596  1.00  0.00     0.024 A 
ATOM     32  C21 UNL A   1     -15.231  -2.581  14.227  1.00  0.00     0.076 A 
ATOM     33 CL22 UNL A   1     -13.923  -2.464  15.357  1.00  0.00    -0.081 Cl
ENDBRANCH   5  26
TORSDOF 5
BEGIN_RES SER A 173
REMARK  2 active torsions:
REMARK  status: ('A' for Active; 'I' for Inactive)
REMARK    1  A    between atoms: CA   and  CB  
REMARK    2  A    between atoms: CB   and  OG  
ROOT
ATOM      1  CA  SER A 173      -4.540 -11.597  11.543  1.00127.03     0.292 C 
ENDROOT
BRANCH   1   2
ATOM      2  CB  SER A 173      -4.003 -10.168  11.569  1.00131.20     0.194 C 
BRANCH   2   3
ATOM      3  OG  SER A 173      -3.913  -9.677  12.895  1.00137.49    -0.550 OA
ATOM      4  HG  SER A 173      -3.058  -9.300  13.066  1.00  0.00     0.310 HD
ENDBRANCH   2   3
ENDBRANCH   1   2
END_RES SER A 173
BEGIN_RES SER A 383
REMARK  2 active torsions:
REMARK  status: ('A' for Active; 'I' for Inactive)
REMARK    3  A    between atoms: CA   and  CB  
REMARK    4  A    between atoms: CB   and  OG  
ROOT
ATOM      5  CA  SER A 383      -8.934   0.934   8.031  1.00 88.23     0.292 C 
ENDROOT
BRANCH   5   6
ATOM      6  CB  SER A 383      -8.589   0.249   9.352  1.00 82.13     0.194 C 
BRANCH   6   7
ATOM      7  OG  SER A 383      -7.303   0.632   9.804  1.00 85.59    -0.550 OA
ATOM      8  HG  SER A 383      -7.324   1.494  10.204  1.00  0.00     0.310 HD
ENDBRANCH   6   7
ENDBRANCH   5   6
END_RES SER A 383
ENDMDL
MODEL 4
REMARK VINA RESULT:    -9.192      4.592     10.482
REMARK INTER + INTRA:          -3.288
REMARK INTER:                 -11.426
REMARK INTRA:                   8.138
REMARK UNBOUND:                 8.322
REMARK  5 active torsions:
REMARK  status: ('A' for Active; 'I' for Inactive)
REMARK    1  A    between atoms: C3_3  and  C4_4 
REMARK       I    between atoms: C4_4  and  N6_6 
REMARK    2  A    between atoms: N6_6  and  N7_7 
REMARK    3  A    between atoms: N14_14  and  C15_15 
REMARK    4  A    between atoms: C23_23  and  C24_24 
REMARK    5  A    between atoms: C27_27  and  N28_28 
ROOT
ATOM      1  C1  UNL A   1     -11.318  -5.764  13.150  1.00  0.00     0.034 C 
ATOM      2  C2  UNL A   1     -12.197  -4.881  12.335  1.00  0.00     0.020 A 
ATOM      3  C3  UNL A   1     -11.804  -3.725  11.589  1.00  0.00     0.155 A 
ATOM      4  N13 UNL A   1     -12.855  -3.210  10.934  1.00  0.00    -0.161 NA
ATOM      5  N14 UNL A   1     -13.915  -3.994  11.235  1.00  0.00    -0.229 N 
ATOM      6  C23 UNL A   1     -13.568  -5.042  12.099  1.00  0.00     0.081 A 
ENDROOT
BRANCH   3   7
ATOM      7  C4  UNL A   1     -10.466  -3.085  11.457  1.00  0.00     0.287 C 
ATOM      8  O5  UNL A   1     -10.115  -2.126  12.140  1.00  0.00    -0.265 OA
ATOM      9  N6  UNL A   1      -9.678  -3.693  10.478  1.00  0.00    -0.282 N 
ATOM     10  H31 UNL A   1     -10.060  -4.475  10.020  1.00  0.00     0.184 HD
BRANCH   9  11
ATOM     11  N7  UNL A   1      -8.375  -3.286  10.083  1.00  0.00    -0.199 NA
ATOM     12  C8  UNL A   1      -7.319  -3.781  10.976  1.00  0.00     0.094 C 
ATOM     13  C9  UNL A   1      -5.953  -3.184  10.607  1.00  0.00     0.019 C 
ATOM     14  C10 UNL A   1      -5.612  -3.434   9.143  1.00  0.00     0.003 C 
ATOM     15  C11 UNL A   1      -6.749  -2.958   8.246  1.00  0.00     0.019 C 
ATOM     16  C12 UNL A   1      -8.092  -3.568   8.670  1.00  0.00     0.094 C 
ENDBRANCH   9  11
ENDBRANCH   3   7
BRANCH   6  17
ATOM     17  C24 UNL A   1     -14.477  -6.125  12.552  1.00  0.00     0.018 A 
ATOM     18  C25 UNL A   1     -15.255  -5.997  13.713  1.00  0.00     0.003 A 
ATOM     19  C26 UNL A   1     -16.019  -7.067  14.198  1.00  0.00     0.017 A 
ATOM     20  C27 UNL A   1     -16.130  -8.253  13.476  1.00  0.00     0.050 A 
ATOM     21  C29 UNL A   1     -15.375  -8.386  12.310  1.00  0.00     0.017 A 
ATOM     22  C30 UNL A   1     -14.561  -7.337  11.853  1.00  0.00     0.003 A 
BRANCH  20  23
ATOM     23  N28 UNL A   1     -16.786  -9.358  14.026  1.00  0.00    -0.398 N 
ATOM     24  H32 UNL A   1     -17.715  -9.274  14.339  1.00  0.00     0.156 HD
ATOM     25  H33 UNL A   1     -16.317 -10.221  14.102  1.00  0.00     0.156 HD
ENDBRANCH  20  23
ENDBRANCH   6  17
BRANCH   5  26
ATOM     26  C15 UNL A   1     -15.198  -3.626  10.727  1.00  0.00     0.093 A 
ATOM     27  C16 UNL A   1     -15.527  -3.931   9.392  1.00  0.00     0.021 A 
ATOM     28  C17 UNL A   1     -16.749  -3.522   8.851  1.00  0.00     0.013 A 
ATOM     29  C18 UNL A   1     -17.664  -2.838   9.645  1.00  0.00     0.059 A 
ATOM     30 CL19 UNL A   1     -19.157  -2.314   8.973  1.00  0.00    -0.082 Cl
ATOM     31  C20 UNL A   1     -17.370  -2.559  10.977  1.00  0.00     0.024 A 
ATOM     32  C21 UNL A   1     -16.140  -2.946  11.524  1.00  0.00     0.076 A 
ATOM     33 CL22 UNL A   1     -15.836  -2.396  13.139  1.00  0.00    -0.081 Cl
ENDBRANCH   5  26
TORSDOF 5
BEGIN_RES SER A 173
REMARK  2 active torsions:
REMARK  status: ('A' for Active; 'I' for Inactive)
REMARK    1  A    between atoms: CA   and  CB  
REMARK    2  A    between atoms: CB   and  OG  
ROOT
ATOM      1  CA  SER A 173      -4.540 -11.597  11.543  1.00127.03     0.292 C 
ENDROOT
BRANCH   1   2
ATOM      2  CB  SER A 173      -4.003 -10.168  11.569  1.00131.20     0.194 C 
BRANCH   2   3
ATOM      3  OG  SER A 173      -3.923  -9.673  12.894  1.00137.49    -0.550 OA
ATOM      4  HG  SER A 173      -3.287  -8.971  12.962  1.00  0.00     0.310 HD
ENDBRANCH   2   3
ENDBRANCH   1   2
END_RES SER A 173
BEGIN_RES SER A 383
REMARK  2 active torsions:
REMARK  status: ('A' for Active; 'I' for Inactive)
REMARK    3  A    between atoms: CA   and  CB  
REMARK    4  A    between atoms: CB   and  OG  
ROOT
ATOM      5  CA  SER A 383      -8.934   0.934   8.031  1.00 88.23     0.292 C 
ENDROOT
BRANCH   5   6
ATOM      6  CB  SER A 383      -8.589   0.249   9.352  1.00 82.13     0.194 C 
BRANCH   6   7
ATOM      7  OG  SER A 383      -7.188   0.198   9.549  1.00 85.59    -0.550 OA
ATOM      8  HG  SER A 383      -6.926   0.741  10.284  1.00  0.00     0.310 HD
ENDBRANCH   6   7
ENDBRANCH   5   6
END_RES SER A 383
ENDMDL
MODEL 5
REMARK VINA RESULT:    -8.884      4.567     10.757
REMARK INTER + INTRA:          -2.899
REMARK INTER:                 -11.929
REMARK INTRA:                   9.030
REMARK UNBOUND:                 8.322
REMARK  5 active torsions:
REMARK  status: ('A' for Active; 'I' for Inactive)
REMARK    1  A    between atoms: C3_3  and  C4_4 
REMARK       I    between atoms: C4_4  and  N6_6 
REMARK    2  A    between atoms: N6_6  and  N7_7 
REMARK    3  A    between atoms: N14_14  and  C15_15 
REMARK    4  A    between atoms: C23_23  and  C24_24 
REMARK    5  A    between atoms: C27_27  and  N28_28 
ROOT
ATOM      1  C1  UNL A   1     -10.967  -6.576  11.954  1.00  0.00     0.034 C 
ATOM      2  C2  UNL A   1     -11.712  -5.298  12.123  1.00  0.00     0.020 A 
ATOM      3  C3  UNL A   1     -11.266  -3.986  11.770  1.00  0.00     0.155 A 
ATOM      4  N13 UNL A   1     -12.225  -3.081  12.018  1.00  0.00    -0.161 NA
ATOM      5  N14 UNL A   1     -13.276  -3.767  12.523  1.00  0.00    -0.229 N 
ATOM      6  C23 UNL A   1     -13.016  -5.142  12.612  1.00  0.00     0.081 A 
ENDROOT
BRANCH   3   7
ATOM      7  C4  UNL A   1      -9.965  -3.544  11.194  1.00  0.00     0.287 C 
ATOM      8  O5  UNL A   1      -9.847  -3.151  10.036  1.00  0.00    -0.265 OA
ATOM      9  N6  UNL A   1      -8.917  -3.636  12.111  1.00  0.00    -0.282 N 
ATOM     10  H31 UNL A   1      -9.145  -3.936  13.020  1.00  0.00     0.184 HD
BRANCH   9  11
ATOM     11  N7  UNL A   1      -7.553  -3.335  11.854  1.00  0.00    -0.199 NA
ATOM     12  C8  UNL A   1      -7.077  -3.858  10.566  1.00  0.00     0.094 C 
ATOM     13  C9  UNL A   1      -5.565  -3.654  10.406  1.00  0.00     0.019 C 
ATOM     14  C10 UNL A   1      -5.175  -2.193  10.596  1.00  0.00     0.003 C 
ATOM     15  C11 UNL A   1      -5.727  -1.666  11.916  1.00  0.00     0.019 C 
ATOM     16  C12 UNL A   1      -7.237  -1.913  12.032  1.00  0.00     0.094 C 
ENDBRANCH   9  11
ENDBRANCH   3   7
BRANCH   6  17
ATOM     17  C24 UNL A   1     -13.987  -6.178  13.042  1.00  0.00     0.018 A 
ATOM     18  C25 UNL A   1     -14.406  -7.201  12.177  1.00  0.00     0.003 A 
ATOM     19  C26 UNL A   1     -15.410  -8.104  12.550  1.00  0.00     0.017 A 
ATOM     20  C27 UNL A   1     -15.937  -8.096  13.839  1.00  0.00     0.050 A 
ATOM     21  C29 UNL A   1     -15.516  -7.096  14.715  1.00  0.00     0.017 A 
ATOM     22  C30 UNL A   1     -14.553  -6.151  14.324  1.00  0.00     0.003 A 
BRANCH  20  23
ATOM     23  N28 UNL A   1     -17.026  -8.911  14.163  1.00  0.00    -0.398 N 
ATOM     24  H32 UNL A   1     -17.429  -9.491  13.477  1.00  0.00     0.156 HD
ATOM     25  H33 UNL A   1     -17.391  -8.905  15.078  1.00  0.00     0.156 HD
ENDBRANCH  20  23
ENDBRANCH   6  17
BRANCH   5  26
ATOM     26  C15 UNL A   1     -14.423  -3.032  12.952  1.00  0.00     0.093 A 
ATOM     27  C16 UNL A   1     -14.567  -2.710  14.315  1.00  0.00     0.021 A 
ATOM     28  C17 UNL A   1     -15.712  -2.051  14.772  1.00  0.00     0.013 A 
ATOM     29  C18 UNL A   1     -16.703  -1.679  13.869  1.00  0.00     0.059 A 
ATOM     30 CL19 UNL A   1     -18.123  -0.891  14.433  1.00  0.00    -0.082 Cl
ATOM     31  C20 UNL A   1     -16.561  -1.959  12.513  1.00  0.00     0.024 A 
ATOM     32  C21 UNL A   1     -15.426  -2.636  12.047  1.00  0.00     0.076 A 
ATOM     33 CL22 UNL A   1     -15.450  -3.063  10.367  1.00  0.00    -0.081 Cl
ENDBRANCH   5  26
TORSDOF 5
BEGIN_RES SER A 173
REMARK  2 active torsions:
REMARK  status: ('A' for Active; 'I' for Inactive)
REMARK    1  A    between atoms: CA   and  CB  
REMARK    2  A    between atoms: CB   and  OG  
ROOT
ATOM      1  CA  SER A 173      -4.540 -11.597  11.543  1.00127.03     0.292 C 
ENDROOT
BRANCH   1   2
ATOM      2  CB  SER A 173      -4.003 -10.168  11.569  1.00131.20     0.194 C 
BRANCH   2   3
ATOM      3  OG  SER A 173      -3.896  -9.683  12.896  1.00137.49    -0.550 OA
ATOM      4  HG  SER A 173      -3.650  -8.766  12.909  1.00  0.00     0.310 HD
ENDBRANCH   2   3
ENDBRANCH   1   2
END_RES SER A 173
BEGIN_RES SER A 383
REMARK  2 active torsions:
REMARK  status: ('A' for Active; 'I' for Inactive)
REMARK    3  A    between atoms: CA   and  CB  
REMARK    4  A    between atoms: CB   and  OG  
ROOT
ATOM      5  CA  SER A 383      -8.934   0.934   8.031  1.00 88.23     0.292 C 
ENDROOT
BRANCH   5   6
ATOM      6  CB  SER A 383      -8.589   0.249   9.352  1.00 82.13     0.194 C 
BRANCH   6   7
ATOM      7  OG  SER A 383      -7.770   1.078  10.157  1.00 85.59    -0.550 OA
ATOM      8  HG  SER A 383      -7.831   0.832  11.073  1.00  0.00     0.310 HD
ENDBRANCH   6   7
ENDBRANCH   5   6
END_RES SER A 383
ENDMDL
MODEL 6
REMARK VINA RESULT:    -8.786      2.361      4.411
REMARK INTER + INTRA:          -2.776
REMARK INTER:                 -11.718
REMARK INTRA:                   8.943
REMARK UNBOUND:                 8.322
REMARK  5 active torsions:
REMARK  status: ('A' for Active; 'I' for Inactive)
REMARK    1  A    between atoms: C3_3  and  C4_4 
REMARK       I    between atoms: C4_4  and  N6_6 
REMARK    2  A    between atoms: N6_6  and  N7_7 
REMARK    3  A    between atoms: N14_14  and  C15_15 
REMARK    4  A    between atoms: C23_23  and  C24_24 
REMARK    5  A    between atoms: C27_27  and  N28_28 
ROOT
ATOM      1  C1  UNL A   1      -8.032  -4.202   8.324  1.00  0.00     0.034 C 
ATOM      2  C2  UNL A   1      -7.015  -3.319   8.958  1.00  0.00     0.020 A 
ATOM      3  C3  UNL A   1      -7.029  -2.807  10.293  1.00  0.00     0.155 A 
ATOM      4  N13 UNL A   1      -5.921  -2.089  10.532  1.00  0.00    -0.161 NA
ATOM      5  N14 UNL A   1      -5.194  -2.118   9.393  1.00  0.00    -0.229 N 
ATOM      6  C23 UNL A   1      -5.821  -2.862   8.384  1.00  0.00     0.081 A 
ENDROOT
BRANCH   3   7
ATOM      7  C4  UNL A   1      -8.046  -2.976  11.368  1.00  0.00     0.287 C 
ATOM      8  O5  UNL A   1      -7.870  -2.586  12.520  1.00  0.00    -0.265 OA
ATOM      9  N6  UNL A   1      -9.197  -3.623  10.917  1.00  0.00    -0.282 N 
ATOM     10  H31 UNL A   1      -9.231  -3.858   9.961  1.00  0.00     0.184 HD
BRANCH   9  11
ATOM     11  N7  UNL A   1     -10.324  -3.973  11.707  1.00  0.00    -0.199 NA
ATOM     12  C8  UNL A   1     -11.527  -3.200  11.375  1.00  0.00     0.094 C 
ATOM     13  C9  UNL A   1     -12.668  -3.492  12.359  1.00  0.00     0.019 C 
ATOM     14  C10 UNL A   1     -12.966  -4.985  12.441  1.00  0.00     0.003 C 
ATOM     15  C11 UNL A   1     -11.689  -5.764  12.735  1.00  0.00     0.019 C 
ATOM     16  C12 UNL A   1     -10.577  -5.419  11.735  1.00  0.00     0.094 C 
ENDBRANCH   9  11
ENDBRANCH   3   7
BRANCH   6  17
ATOM     17  C24 UNL A   1      -5.250  -3.159   7.047  1.00  0.00     0.018 A 
ATOM     18  C25 UNL A   1      -5.377  -2.263   5.974  1.00  0.00     0.003 A 
ATOM     19  C26 UNL A   1      -4.940  -2.602   4.687  1.00  0.00     0.017 A 
ATOM     20  C27 UNL A   1      -4.249  -3.788   4.454  1.00  0.00     0.050 A 
ATOM     21  C29 UNL A   1      -4.100  -4.680   5.517  1.00  0.00     0.017 A 
ATOM     22  C30 UNL A   1      -4.591  -4.370   6.795  1.00  0.00     0.003 A 
BRANCH  20  23
ATOM     23  N28 UNL A   1      -3.931  -4.179   3.150  1.00  0.00    -0.398 N 
ATOM     24  H32 UNL A   1      -4.639  -4.244   2.469  1.00  0.00     0.156 HD
ATOM     25  H33 UNL A   1      -2.999  -4.390   2.913  1.00  0.00     0.156 HD
ENDBRANCH  20  23
ENDBRANCH   6  17
BRANCH   5  26
ATOM     26  C15 UNL A   1      -3.984  -1.360   9.340  1.00  0.00     0.093 A 
ATOM     27  C16 UNL A   1      -2.877  -1.771  10.107  1.00  0.00     0.021 A 
ATOM     28  C17 UNL A   1      -1.705  -1.009  10.125  1.00  0.00     0.013 A 
ATOM     29  C18 UNL A   1      -1.617   0.145   9.354  1.00  0.00     0.059 A 
ATOM     30 CL19 UNL A   1      -0.184   1.095   9.395  1.00  0.00    -0.082 Cl
ATOM     31  C20 UNL A   1      -2.689   0.546   8.562  1.00  0.00     0.024 A 
ATOM     32  C21 UNL A   1      -3.876  -0.198   8.551  1.00  0.00     0.076 A 
ATOM     33 CL22 UNL A   1      -5.184   0.498   7.653  1.00  0.00    -0.081 Cl
ENDBRANCH   5  26
TORSDOF 5
BEGIN_RES SER A 173
REMARK  2 active torsions:
REMARK  status: ('A' for Active; 'I' for Inactive)
REMARK    1  A    between atoms: CA   and  CB  
REMARK    2  A    between atoms: CB   and  OG  
ROOT
ATOM      1  CA  SER A 173      -4.540 -11.597  11.543  1.00127.03     0.292 C 
ENDROOT
BRANCH   1   2
ATOM      2  CB  SER A 173      -4.003 -10.168  11.569  1.00131.20     0.194 C 
BRANCH   2   3
ATOM      3  OG  SER A 173      -3.927  -9.671  12.894  1.00137.49    -0.550 OA
ATOM      4  HG  SER A 173      -4.050  -8.730  12.917  1.00  0.00     0.310 HD
ENDBRANCH   2   3
ENDBRANCH   1   2
END_RES SER A 173
BEGIN_RES SER A 383
REMARK  2 active torsions:
REMARK  status: ('A' for Active; 'I' for Inactive)
REMARK    3  A    between atoms: CA   and  CB  
REMARK    4  A    between atoms: CB   and  OG  
ROOT
ATOM      5  CA  SER A 383      -8.934   0.934   8.031  1.00 88.23     0.292 C 
ENDROOT
BRANCH   5   6
ATOM      6  CB  SER A 383      -8.589   0.249   9.352  1.00 82.13     0.194 C 
BRANCH   6   7
ATOM      7  OG  SER A 383      -7.341   0.698   9.848  1.00 85.59    -0.550 OA
ATOM      8  HG  SER A 383      -6.745   0.903   9.137  1.00  0.00     0.310 HD
ENDBRANCH   6   7
ENDBRANCH   5   6
END_RES SER A 383
ENDMDL
