REMARK  4 active torsions:
REMARK  status: ('A' for Active; 'I' for Inactive)
REMARK    1  A    between atoms: C3_3  and  C4_4 
REMARK       I    between atoms: C4_4  and  N6_6 
REMARK    2  A    between atoms: N6_6  and  N7_7 
REMARK    3  A    between atoms: N14_14  and  C15_15 
REMARK    4  A    between atoms: C23_23  and  C24_24 
ROOT
ATOM      1  C1  UNL A   1       1.236   0.317   0.037  1.00  0.00     0.034 C 
ATOM      2  C2  UNL A   1       2.718   0.156   0.049  1.00  0.00     0.020 A 
ATOM      3  C3  UNL A   1       3.458  -1.063  -0.042  1.00  0.00     0.155 A 
ATOM      4  N13 UNL A   1       4.776  -0.810  -0.063  1.00  0.00    -0.161 NA
ATOM      5  N14 UNL A   1       4.907   0.532   0.025  1.00  0.00    -0.229 N 
ATOM      6  C23 UNL A   1       3.668   1.185   0.099  1.00  0.00     0.081 A 
ENDROOT
BRANCH   3   7
ATOM      7  C4  UNL A   1       2.982  -2.479  -0.110  1.00  0.00     0.287 C 
ATOM      8  O5  UNL A   1       1.792  -2.781  -0.050  1.00  0.00    -0.265 OA
ATOM      9  N6  UNL A   1       4.024  -3.401  -0.240  1.00  0.00    -0.282 N 
ATOM     10  H31 UNL A   1       4.933  -3.033  -0.327  1.00  0.00     0.184 HD
BRANCH   9  11
ATOM     11  N7  UNL A   1       3.901  -4.819  -0.260  1.00  0.00    -0.199 NA
ATOM     12  C8  UNL A   1       3.268  -5.370   0.939  1.00  0.00     0.094 C 
ATOM     13  C9  UNL A   1       3.292  -6.901   0.949  1.00  0.00     0.019 C 
ATOM     14  C10 UNL A   1       2.675  -7.477  -0.322  1.00  0.00     0.003 C 
ATOM     15  C11 UNL A   1       3.331  -6.856  -1.550  1.00  0.00     0.019 C 
ATOM     16  C12 UNL A   1       3.288  -5.322  -1.492  1.00  0.00     0.094 C 
ENDBRANCH   9  11
ENDBRANCH   3   7
BRANCH   6  17
ATOM     17  C24 UNL A   1       3.459   2.658   0.104  1.00  0.00     0.018 A 
ATOM     18  C25 UNL A   1       4.272   3.522  -0.650  1.00  0.00     0.002 A 
ATOM     19  C26 UNL A   1       4.130   4.913  -0.578  1.00  0.00     0.007 A 
ATOM     20  C27 UNL A   1       3.108   5.463   0.186  1.00  0.00     0.035 A 
ATOM     21 BR28 UNL A   1       2.892   7.339   0.257  1.00  0.00    -0.049 Br
ATOM     22  C29 UNL A   1       2.246   4.635   0.893  1.00  0.00     0.007 A 
ATOM     23  C30 UNL A   1       2.438   3.245   0.872  1.00  0.00     0.002 A 
ENDBRANCH   6  17
BRANCH   5  24
ATOM     24  C15 UNL A   1       6.224   1.081   0.096  1.00  0.00     0.093 A 
ATOM     25  C16 UNL A   1       6.481   2.147   0.978  1.00  0.00     0.021 A 
ATOM     26  C17 UNL A   1       7.741   2.752   1.011  1.00  0.00     0.013 A 
ATOM     27  C18 UNL A   1       8.761   2.272   0.197  1.00  0.00     0.059 A 
ATOM     28 CL19 UNL A   1      10.304   3.028   0.226  1.00  0.00    -0.082 Cl
ATOM     29  C20 UNL A   1       8.534   1.195  -0.654  1.00  0.00     0.024 A 
ATOM     30  C21 UNL A   1       7.270   0.595  -0.714  1.00  0.00     0.076 A 
ATOM     31 CL22 UNL A   1       7.077  -0.618  -1.938  1.00  0.00    -0.081 Cl
ENDBRANCH   5  24
TORSDOF 4
