MODEL 1
REMARK VINA RESULT:   -11.579      0.000      0.000
REMARK INTER + INTRA:          -6.838
REMARK INTER:                 -15.641
REMARK INTRA:                   8.803
REMARK UNBOUND:                 8.803
REMARK  6 active torsions:
REMARK  status: ('A' for Active; 'I' for Inactive)
REMARK    1  A    between atoms: C2_2  and  C3_3 
REMARK    2  A    between atoms: C4_4  and  C5_5 
REMARK    3  A    between atoms: C8_8  and  C9_9 
REMARK    4  A    between atoms: C12_12  and  C13_13 
REMARK       I    between atoms: C13_13  and  N15_15 
REMARK    5  A    between atoms: N15_15  and  N16_16 
REMARK    6  A    between atoms: N23_23  and  C24_24 
ROOT
ATOM      1  C9  UNL A   1      -5.108  -2.073   9.394  1.00  0.00     0.086 A 
ATOM      2  C10 UNL A   1      -5.823  -2.114  10.595  1.00  0.00     0.020 A 
ATOM      3  C11 UNL A   1      -5.659  -1.321  11.848  1.00  0.00     0.034 C 
ATOM      4  C12 UNL A   1      -6.850  -3.088  10.413  1.00  0.00     0.155 A 
ATOM      5  N22 UNL A   1      -6.804  -3.602   9.179  1.00  0.00    -0.161 NA
ATOM      6  N23 UNL A   1      -5.757  -2.993   8.545  1.00  0.00    -0.229 N 
ENDROOT
BRANCH   4   7
ATOM      7  C13 UNL A   1      -7.860  -3.495  11.428  1.00  0.00     0.287 C 
ATOM      8  O14 UNL A   1      -7.591  -3.529  12.627  1.00  0.00    -0.265 OA
ATOM      9  N15 UNL A   1      -9.111  -3.831  10.908  1.00  0.00    -0.282 N 
ATOM     10  H33 UNL A   1      -9.239  -3.767   9.934  1.00  0.00     0.184 HD
BRANCH   9  11
ATOM     11  N16 UNL A   1     -10.218  -4.267  11.707  1.00  0.00    -0.199 NA
ATOM     12  C17 UNL A   1     -11.485  -3.629  11.303  1.00  0.00     0.094 C 
ATOM     13  C18 UNL A   1     -12.644  -4.034  12.217  1.00  0.00     0.019 C 
ATOM     14  C19 UNL A   1     -12.801  -5.549  12.273  1.00  0.00     0.003 C 
ATOM     15  C20 UNL A   1     -11.479  -6.195  12.666  1.00  0.00     0.019 C 
ATOM     16  C21 UNL A   1     -10.335  -5.737  11.755  1.00  0.00     0.094 C 
ENDBRANCH   9  11
ENDBRANCH   4   7
BRANCH   1  17
ATOM     17  C8  UNL A   1      -4.012  -1.168   9.060  1.00  0.00     0.048 C 
ATOM     18  C7  UNL A   1      -3.963  -0.143   8.128  1.00  0.00     0.009 C 
ATOM     19  C6  UNL A   1      -2.771   0.650   8.227  1.00  0.00     0.015 C 
ATOM     20  C5  UNL A   1      -1.967   0.242   9.266  1.00  0.00     0.071 C 
ATOM     21  S32 UNL A   1      -2.494  -1.253   9.885  1.00  0.00    -0.077 SA
BRANCH  20  22
ATOM     22  C4  UNL A   1      -0.844   0.966   9.792  1.00  0.00    -0.058 C 
ATOM     23  C3  UNL A   1       0.099   1.617  10.148  1.00  0.00    -0.086 C 
BRANCH  23  24
ATOM     24  C2  UNL A   1       1.237   2.457  10.555  1.00  0.00     0.076 C 
ATOM     25  C1  UNL A   1       1.754   2.091  11.937  1.00  0.00     0.015 C 
ENDBRANCH  23  24
ENDBRANCH  20  22
ENDBRANCH   1  17
BRANCH   6  26
ATOM     26  C24 UNL A   1      -5.420  -3.416   7.213  1.00  0.00     0.093 A 
ATOM     27  C25 UNL A   1      -5.726  -2.581   6.123  1.00  0.00     0.021 A 
ATOM     28  C26 UNL A   1      -5.438  -2.971   4.809  1.00  0.00     0.013 A 
ATOM     29  C27 UNL A   1      -4.797  -4.178   4.569  1.00  0.00     0.059 A 
ATOM     30 CL28 UNL A   1      -4.443  -4.656   2.954  1.00  0.00    -0.082 Cl
ATOM     31  C29 UNL A   1      -4.447  -5.005   5.630  1.00  0.00     0.024 A 
ATOM     32  C30 UNL A   1      -4.755  -4.635   6.950  1.00  0.00     0.076 A 
ATOM     33 CL31 UNL A   1      -4.370  -5.832   8.145  1.00  0.00    -0.081 Cl
ENDBRANCH   6  26
TORSDOF 6
BEGIN_RES SER A 173
REMARK  2 active torsions:
REMARK  status: ('A' for Active; 'I' for Inactive)
REMARK    1  A    between atoms: CA   and  CB  
REMARK    2  A    between atoms: CB   and  OG  
ROOT
ATOM      1  CA  SER A 173      -4.540 -11.597  11.543  1.00127.03     0.292 C 
ENDROOT
BRANCH   1   2
ATOM      2  CB  SER A 173      -4.003 -10.168  11.569  1.00131.20     0.194 C 
BRANCH   2   3
ATOM      3  OG  SER A 173      -3.943  -9.665  12.893  1.00137.49    -0.550 OA
ATOM      4  HG  SER A 173      -3.959  -8.716  12.902  1.00  0.00     0.310 HD
ENDBRANCH   2   3
ENDBRANCH   1   2
END_RES SER A 173
BEGIN_RES SER A 383
REMARK  2 active torsions:
REMARK  status: ('A' for Active; 'I' for Inactive)
REMARK    3  A    between atoms: CA   and  CB  
REMARK    4  A    between atoms: CB   and  OG  
ROOT
ATOM      5  CA  SER A 383      -8.934   0.934   8.031  1.00 88.23     0.292 C 
ENDROOT
BRANCH   5   6
ATOM      6  CB  SER A 383      -8.589   0.249   9.352  1.00 82.13     0.194 C 
BRANCH   6   7
ATOM      7  OG  SER A 383      -7.356   0.721   9.864  1.00 85.59    -0.550 OA
ATOM      8  HG  SER A 383      -6.627   0.226   9.509  1.00  0.00     0.310 HD
ENDBRANCH   6   7
ENDBRANCH   5   6
END_RES SER A 383
ENDMDL
MODEL 2
REMARK VINA RESULT:   -11.221      1.575      1.951
REMARK INTER + INTRA:          -6.354
REMARK INTER:                 -15.301
REMARK INTRA:                   8.947
REMARK UNBOUND:                 8.803
REMARK  6 active torsions:
REMARK  status: ('A' for Active; 'I' for Inactive)
REMARK    1  A    between atoms: C2_2  and  C3_3 
REMARK    2  A    between atoms: C4_4  and  C5_5 
REMARK    3  A    between atoms: C8_8  and  C9_9 
REMARK    4  A    between atoms: C12_12  and  C13_13 
REMARK       I    between atoms: C13_13  and  N15_15 
REMARK    5  A    between atoms: N15_15  and  N16_16 
REMARK    6  A    between atoms: N23_23  and  C24_24 
ROOT
ATOM      1  C9  UNL A   1      -6.006  -2.678   9.832  1.00  0.00     0.086 A 
ATOM      2  C10 UNL A   1      -7.020  -2.800  10.788  1.00  0.00     0.020 A 
ATOM      3  C11 UNL A   1      -7.104  -2.278  12.183  1.00  0.00     0.034 C 
ATOM      4  C12 UNL A   1      -8.073  -3.529  10.159  1.00  0.00     0.155 A 
ATOM      5  N22 UNL A   1      -7.759  -3.820   8.892  1.00  0.00    -0.161 NA
ATOM      6  N23 UNL A   1      -6.510  -3.306   8.675  1.00  0.00    -0.229 N 
ENDROOT
BRANCH   4   7
ATOM      7  C13 UNL A   1      -9.365  -3.919  10.788  1.00  0.00     0.287 C 
ATOM      8  O14 UNL A   1      -9.411  -4.719  11.719  1.00  0.00    -0.265 OA
ATOM      9  N15 UNL A   1     -10.493  -3.311  10.235  1.00  0.00    -0.282 N 
ATOM     10  H33 UNL A   1     -10.361  -2.675   9.496  1.00  0.00     0.184 HD
BRANCH   9  11
ATOM     11  N16 UNL A   1     -11.833  -3.560  10.679  1.00  0.00    -0.199 NA
ATOM     12  C17 UNL A   1     -12.192  -4.988  10.603  1.00  0.00     0.094 C 
ATOM     13  C18 UNL A   1     -13.652  -5.231  10.996  1.00  0.00     0.019 C 
ATOM     14  C19 UNL A   1     -13.950  -4.676  12.384  1.00  0.00     0.003 C 
ATOM     15  C20 UNL A   1     -13.551  -3.208  12.455  1.00  0.00     0.019 C 
ATOM     16  C21 UNL A   1     -12.097  -2.998  12.018  1.00  0.00     0.094 C 
ENDBRANCH   9  11
ENDBRANCH   4   7
BRANCH   1  17
ATOM     17  C8  UNL A   1      -4.755  -1.939   9.975  1.00  0.00     0.048 C 
ATOM     18  C7  UNL A   1      -3.560  -2.325  10.561  1.00  0.00     0.009 C 
ATOM     19  C6  UNL A   1      -2.494  -1.391  10.334  1.00  0.00     0.015 C 
ATOM     20  C5  UNL A   1      -2.891  -0.343   9.536  1.00  0.00     0.071 C 
ATOM     21  S32 UNL A   1      -4.582  -0.336   9.346  1.00  0.00    -0.077 SA
BRANCH  20  22
ATOM     22  C4  UNL A   1      -2.021   0.616   8.918  1.00  0.00    -0.058 C 
ATOM     23  C3  UNL A   1      -1.248   1.425   8.484  1.00  0.00    -0.086 C 
BRANCH  23  24
ATOM     24  C2  UNL A   1      -0.260   2.396   7.984  1.00  0.00     0.076 C 
ATOM     25  C1  UNL A   1       0.717   1.767   7.005  1.00  0.00     0.015 C 
ENDBRANCH  23  24
ENDBRANCH  20  22
ENDBRANCH   1  17
BRANCH   6  26
ATOM     26  C24 UNL A   1      -5.881  -3.545   7.405  1.00  0.00     0.093 A 
ATOM     27  C25 UNL A   1      -6.193  -2.717   6.311  1.00  0.00     0.021 A 
ATOM     28  C26 UNL A   1      -5.621  -2.935   5.051  1.00  0.00     0.013 A 
ATOM     29  C27 UNL A   1      -4.691  -3.952   4.879  1.00  0.00     0.059 A 
ATOM     30 CL28 UNL A   1      -3.988  -4.218   3.331  1.00  0.00    -0.082 Cl
ATOM     31  C29 UNL A   1      -4.334  -4.759   5.952  1.00  0.00     0.024 A 
ATOM     32  C30 UNL A   1      -4.922  -4.566   7.213  1.00  0.00     0.076 A 
ATOM     33 CL31 UNL A   1      -4.467  -5.735   8.410  1.00  0.00    -0.081 Cl
ENDBRANCH   6  26
TORSDOF 6
BEGIN_RES SER A 173
REMARK  2 active torsions:
REMARK  status: ('A' for Active; 'I' for Inactive)
REMARK    1  A    between atoms: CA   and  CB  
REMARK    2  A    between atoms: CB   and  OG  
ROOT
ATOM      1  CA  SER A 173      -4.540 -11.597  11.543  1.00127.03     0.292 C 
ENDROOT
BRANCH   1   2
ATOM      2  CB  SER A 173      -4.003 -10.168  11.569  1.00131.20     0.194 C 
BRANCH   2   3
ATOM      3  OG  SER A 173      -3.948  -9.663  12.892  1.00137.49    -0.550 OA
ATOM      4  HG  SER A 173      -3.128  -9.214  13.056  1.00  0.00     0.310 HD
ENDBRANCH   2   3
ENDBRANCH   1   2
END_RES SER A 173
BEGIN_RES SER A 383
REMARK  2 active torsions:
REMARK  status: ('A' for Active; 'I' for Inactive)
REMARK    3  A    between atoms: CA   and  CB  
REMARK    4  A    between atoms: CB   and  OG  
ROOT
ATOM      5  CA  SER A 383      -8.934   0.934   8.031  1.00 88.23     0.292 C 
ENDROOT
BRANCH   5   6
ATOM      6  CB  SER A 383      -8.589   0.249   9.352  1.00 82.13     0.194 C 
BRANCH   6   7
ATOM      7  OG  SER A 383      -7.715   1.049  10.127  1.00 85.59    -0.550 OA
ATOM      8  HG  SER A 383      -6.812   0.770  10.021  1.00  0.00     0.310 HD
ENDBRANCH   6   7
ENDBRANCH   5   6
END_RES SER A 383
ENDMDL
MODEL 3
REMARK VINA RESULT:    -9.130      5.775     12.378
REMARK INTER + INTRA:          -3.530
REMARK INTER:                 -12.155
REMARK INTRA:                   8.625
REMARK UNBOUND:                 8.803
REMARK  6 active torsions:
REMARK  status: ('A' for Active; 'I' for Inactive)
REMARK    1  A    between atoms: C2_2  and  C3_3 
REMARK    2  A    between atoms: C4_4  and  C5_5 
REMARK    3  A    between atoms: C8_8  and  C9_9 
REMARK    4  A    between atoms: C12_12  and  C13_13 
REMARK       I    between atoms: C13_13  and  N15_15 
REMARK    5  A    between atoms: N15_15  and  N16_16 
REMARK    6  A    between atoms: N23_23  and  C24_24 
ROOT
ATOM      1  C9  UNL A   1     -13.701  -5.110  12.252  1.00  0.00     0.086 A 
ATOM      2  C10 UNL A   1     -12.416  -5.146  11.700  1.00  0.00     0.020 A 
ATOM      3  C11 UNL A   1     -11.545  -6.305  11.349  1.00  0.00     0.034 C 
ATOM      4  C12 UNL A   1     -12.047  -3.788  11.465  1.00  0.00     0.155 A 
ATOM      5  N22 UNL A   1     -13.037  -2.959  11.816  1.00  0.00    -0.161 NA
ATOM      6  N23 UNL A   1     -14.050  -3.745  12.290  1.00  0.00    -0.229 N 
ENDROOT
BRANCH   4   7
ATOM      7  C13 UNL A   1     -10.753  -3.318  10.898  1.00  0.00     0.287 C 
ATOM      8  O14 UNL A   1     -10.621  -3.090   9.698  1.00  0.00    -0.265 OA
ATOM      9  N15 UNL A   1      -9.725  -3.169  11.830  1.00  0.00    -0.282 N 
ATOM     10  H33 UNL A   1      -9.923  -3.367  12.774  1.00  0.00     0.184 HD
BRANCH   9  11
ATOM     11  N16 UNL A   1      -8.397  -2.747  11.494  1.00  0.00    -0.199 NA
ATOM     12  C17 UNL A   1      -7.664  -2.224  12.661  1.00  0.00     0.094 C 
ATOM     13  C18 UNL A   1      -6.279  -1.696  12.275  1.00  0.00     0.019 C 
ATOM     14  C19 UNL A   1      -5.460  -2.763  11.561  1.00  0.00     0.003 C 
ATOM     15  C20 UNL A   1      -6.239  -3.312  10.374  1.00  0.00     0.019 C 
ATOM     16  C21 UNL A   1      -7.633  -3.795  10.790  1.00  0.00     0.094 C 
ENDBRANCH   9  11
ENDBRANCH   4   7
BRANCH   1  17
ATOM     17  C8  UNL A   1     -14.541  -6.257  12.585  1.00  0.00     0.048 C 
ATOM     18  C7  UNL A   1     -14.875  -7.364  11.819  1.00  0.00     0.009 C 
ATOM     19  C6  UNL A   1     -15.567  -8.376  12.564  1.00  0.00     0.015 C 
ATOM     20  C5  UNL A   1     -15.698  -8.038  13.891  1.00  0.00     0.071 C 
ATOM     21  S32 UNL A   1     -15.279  -6.408  14.142  1.00  0.00    -0.077 SA
BRANCH  20  22
ATOM     22  C4  UNL A   1     -16.108  -8.922  14.944  1.00  0.00    -0.058 C 
ATOM     23  C3  UNL A   1     -16.456  -9.731  15.760  1.00  0.00    -0.086 C 
BRANCH  23  24
ATOM     24  C2  UNL A   1     -16.854 -10.761  16.734  1.00  0.00     0.076 C 
ATOM     25  C1  UNL A   1     -17.078 -12.113  16.077  1.00  0.00     0.015 C 
ENDBRANCH  23  24
ENDBRANCH  20  22
ENDBRANCH   1  17
BRANCH   6  26
ATOM     26  C24 UNL A   1     -15.224  -3.107  12.819  1.00  0.00     0.093 A 
ATOM     27  C25 UNL A   1     -16.376  -3.001  12.017  1.00  0.00     0.021 A 
ATOM     28  C26 UNL A   1     -17.530  -2.361  12.487  1.00  0.00     0.013 A 
ATOM     29  C27 UNL A   1     -17.567  -1.863  13.782  1.00  0.00     0.059 A 
ATOM     30 CL28 UNL A   1     -18.985  -1.078  14.359  1.00  0.00    -0.082 Cl
ATOM     31  C29 UNL A   1     -16.458  -1.989  14.610  1.00  0.00     0.024 A 
ATOM     32  C30 UNL A   1     -15.286  -2.605  14.139  1.00  0.00     0.076 A 
ATOM     33 CL31 UNL A   1     -13.953  -2.567  15.247  1.00  0.00    -0.081 Cl
ENDBRANCH   6  26
TORSDOF 6
BEGIN_RES SER A 173
REMARK  2 active torsions:
REMARK  status: ('A' for Active; 'I' for Inactive)
REMARK    1  A    between atoms: CA   and  CB  
REMARK    2  A    between atoms: CB   and  OG  
ROOT
ATOM      1  CA  SER A 173      -4.540 -11.597  11.543  1.00127.03     0.292 C 
ENDROOT
BRANCH   1   2
ATOM      2  CB  SER A 173      -4.003 -10.168  11.569  1.00131.20     0.194 C 
BRANCH   2   3
ATOM      3  OG  SER A 173      -3.928  -9.671  12.894  1.00137.49    -0.550 OA
ATOM      4  HG  SER A 173      -4.558  -8.976  13.038  1.00  0.00     0.310 HD
ENDBRANCH   2   3
ENDBRANCH   1   2
END_RES SER A 173
BEGIN_RES SER A 383
REMARK  2 active torsions:
REMARK  status: ('A' for Active; 'I' for Inactive)
REMARK    3  A    between atoms: CA   and  CB  
REMARK    4  A    between atoms: CB   and  OG  
ROOT
ATOM      5  CA  SER A 383      -8.934   0.934   8.031  1.00 88.23     0.292 C 
ENDROOT
BRANCH   5   6
ATOM      6  CB  SER A 383      -8.589   0.249   9.352  1.00 82.13     0.194 C 
BRANCH   6   7
ATOM      7  OG  SER A 383      -7.320   0.664   9.825  1.00 85.59    -0.550 OA
ATOM      8  HG  SER A 383      -6.712   0.789   9.106  1.00  0.00     0.310 HD
ENDBRANCH   6   7
ENDBRANCH   5   6
END_RES SER A 383
ENDMDL
MODEL 4
REMARK VINA RESULT:    -9.002      3.551      6.447
REMARK INTER + INTRA:          -3.357
REMARK INTER:                 -12.796
REMARK INTRA:                   9.439
REMARK UNBOUND:                 8.803
REMARK  6 active torsions:
REMARK  status: ('A' for Active; 'I' for Inactive)
REMARK    1  A    between atoms: C2_2  and  C3_3 
REMARK    2  A    between atoms: C4_4  and  C5_5 
REMARK    3  A    between atoms: C8_8  and  C9_9 
REMARK    4  A    between atoms: C12_12  and  C13_13 
REMARK       I    between atoms: C13_13  and  N15_15 
REMARK    5  A    between atoms: N15_15  and  N16_16 
REMARK    6  A    between atoms: N23_23  and  C24_24 
ROOT
ATOM      1  C9  UNL A   1      -5.685  -2.586   9.909  1.00  0.00     0.086 A 
ATOM      2  C10 UNL A   1      -6.454  -2.982  11.008  1.00  0.00     0.020 A 
ATOM      3  C11 UNL A   1      -7.647  -3.875  11.085  1.00  0.00     0.034 C 
ATOM      4  C12 UNL A   1      -5.848  -2.383  12.153  1.00  0.00     0.155 A 
ATOM      5  N22 UNL A   1      -4.762  -1.685  11.805  1.00  0.00    -0.161 NA
ATOM      6  N23 UNL A   1      -4.644  -1.802  10.448  1.00  0.00    -0.229 N 
ENDROOT
BRANCH   4   7
ATOM      7  C13 UNL A   1      -6.323  -2.505  13.559  1.00  0.00     0.287 C 
ATOM      8  O14 UNL A   1      -7.392  -3.047  13.832  1.00  0.00    -0.265 OA
ATOM      9  N15 UNL A   1      -5.468  -1.957  14.515  1.00  0.00    -0.282 N 
ATOM     10  H33 UNL A   1      -4.626  -1.550  14.206  1.00  0.00     0.184 HD
BRANCH   9  11
ATOM     11  N16 UNL A   1      -5.742  -1.951  15.923  1.00  0.00    -0.199 NA
ATOM     12  C17 UNL A   1      -4.653  -2.561  16.708  1.00  0.00     0.094 C 
ATOM     13  C18 UNL A   1      -4.993  -2.628  18.199  1.00  0.00     0.019 C 
ATOM     14  C19 UNL A   1      -5.343  -1.251  18.748  1.00  0.00     0.003 C 
ATOM     15  C20 UNL A   1      -6.451  -0.623  17.913  1.00  0.00     0.019 C 
ATOM     16  C21 UNL A   1      -6.093  -0.608  16.423  1.00  0.00     0.094 C 
ENDBRANCH   9  11
ENDBRANCH   4   7
BRANCH   1  17
ATOM     17  C8  UNL A   1      -5.857  -3.012   8.523  1.00  0.00     0.048 C 
ATOM     18  C7  UNL A   1      -6.974  -2.938   7.706  1.00  0.00     0.009 C 
ATOM     19  C6  UNL A   1      -6.697  -3.284   6.341  1.00  0.00     0.015 C 
ATOM     20  C5  UNL A   1      -5.364  -3.562   6.142  1.00  0.00     0.071 C 
ATOM     21  S32 UNL A   1      -4.551  -3.712   7.630  1.00  0.00    -0.077 SA
BRANCH  20  22
ATOM     22  C4  UNL A   1      -4.716  -3.694   4.868  1.00  0.00    -0.058 C 
ATOM     23  C3  UNL A   1      -4.253  -3.846   3.771  1.00  0.00    -0.086 C 
BRANCH  23  24
ATOM     24  C2  UNL A   1      -3.736  -4.024   2.405  1.00  0.00     0.076 C 
ATOM     25  C1  UNL A   1      -2.677  -2.991   2.054  1.00  0.00     0.015 C 
ENDBRANCH  23  24
ENDBRANCH  20  22
ENDBRANCH   1  17
BRANCH   6  26
ATOM     26  C24 UNL A   1      -3.596  -1.077   9.784  1.00  0.00     0.093 A 
ATOM     27  C25 UNL A   1      -2.260  -1.271  10.182  1.00  0.00     0.021 A 
ATOM     28  C26 UNL A   1      -1.214  -0.561   9.578  1.00  0.00     0.013 A 
ATOM     29  C27 UNL A   1      -1.482   0.314   8.535  1.00  0.00     0.059 A 
ATOM     30 CL28 UNL A   1      -0.196   1.184   7.793  1.00  0.00    -0.082 Cl
ATOM     31  C29 UNL A   1      -2.788   0.495   8.094  1.00  0.00     0.024 A 
ATOM     32  C30 UNL A   1      -3.847  -0.191   8.711  1.00  0.00     0.076 A 
ATOM     33 CL31 UNL A   1      -5.424   0.242   8.133  1.00  0.00    -0.081 Cl
ENDBRANCH   6  26
TORSDOF 6
BEGIN_RES SER A 173
REMARK  2 active torsions:
REMARK  status: ('A' for Active; 'I' for Inactive)
REMARK    1  A    between atoms: CA   and  CB  
REMARK    2  A    between atoms: CB   and  OG  
ROOT
ATOM      1  CA  SER A 173      -4.540 -11.597  11.543  1.00127.03     0.292 C 
ENDROOT
BRANCH   1   2
ATOM      2  CB  SER A 173      -4.003 -10.168  11.569  1.00131.20     0.194 C 
BRANCH   2   3
ATOM      3  OG  SER A 173      -4.011  -9.640  12.884  1.00137.49    -0.550 OA
ATOM      4  HG  SER A 173      -4.458 -10.222  13.487  1.00  0.00     0.310 HD
ENDBRANCH   2   3
ENDBRANCH   1   2
END_RES SER A 173
BEGIN_RES SER A 383
REMARK  2 active torsions:
REMARK  status: ('A' for Active; 'I' for Inactive)
REMARK    3  A    between atoms: CA   and  CB  
REMARK    4  A    between atoms: CB   and  OG  
ROOT
ATOM      5  CA  SER A 383      -8.934   0.934   8.031  1.00 88.23     0.292 C 
ENDROOT
BRANCH   5   6
ATOM      6  CB  SER A 383      -8.589   0.249   9.352  1.00 82.13     0.194 C 
BRANCH   6   7
ATOM      7  OG  SER A 383      -7.942   1.145  10.237  1.00 85.59    -0.550 OA
ATOM      8  HG  SER A 383      -8.526   1.415  10.937  1.00  0.00     0.310 HD
ENDBRANCH   6   7
ENDBRANCH   5   6
END_RES SER A 383
ENDMDL
MODEL 5
REMARK VINA RESULT:    -8.632      4.007      7.088
REMARK INTER + INTRA:          -2.857
REMARK INTER:                 -12.265
REMARK INTRA:                   9.408
REMARK UNBOUND:                 8.803
REMARK  6 active torsions:
REMARK  status: ('A' for Active; 'I' for Inactive)
REMARK    1  A    between atoms: C2_2  and  C3_3 
REMARK    2  A    between atoms: C4_4  and  C5_5 
REMARK    3  A    between atoms: C8_8  and  C9_9 
REMARK    4  A    between atoms: C12_12  and  C13_13 
REMARK       I    between atoms: C13_13  and  N15_15 
REMARK    5  A    between atoms: N15_15  and  N16_16 
REMARK    6  A    between atoms: N23_23  and  C24_24 
ROOT
ATOM      1  C9  UNL A   1      -7.117  -3.284  10.688  1.00  0.00     0.086 A 
ATOM      2  C10 UNL A   1      -6.073  -2.775  11.467  1.00  0.00     0.020 A 
ATOM      3  C11 UNL A   1      -4.719  -2.287  11.074  1.00  0.00     0.034 C 
ATOM      4  C12 UNL A   1      -6.554  -2.753  12.811  1.00  0.00     0.155 A 
ATOM      5  N22 UNL A   1      -7.817  -3.189  12.870  1.00  0.00    -0.161 NA
ATOM      6  N23 UNL A   1      -8.177  -3.509  11.590  1.00  0.00    -0.229 N 
ENDROOT
BRANCH   4   7
ATOM      7  C13 UNL A   1      -5.790  -2.303  14.007  1.00  0.00     0.287 C 
ATOM      8  O14 UNL A   1      -4.571  -2.438  14.080  1.00  0.00    -0.265 OA
ATOM      9  N15 UNL A   1      -6.566  -1.731  15.016  1.00  0.00    -0.282 N 
ATOM     10  H33 UNL A   1      -7.536  -1.655  14.867  1.00  0.00     0.184 HD
BRANCH   9  11
ATOM     11  N16 UNL A   1      -6.034  -1.249  16.257  1.00  0.00    -0.199 NA
ATOM     12  C17 UNL A   1      -6.954  -0.318  16.936  1.00  0.00     0.094 C 
ATOM     13  C18 UNL A   1      -6.341   0.257  18.216  1.00  0.00     0.019 C 
ATOM     14  C19 UNL A   1      -5.901  -0.850  19.165  1.00  0.00     0.003 C 
ATOM     15  C20 UNL A   1      -4.973  -1.818  18.443  1.00  0.00     0.019 C 
ATOM     16  C21 UNL A   1      -5.603  -2.343  17.148  1.00  0.00     0.094 C 
ENDBRANCH   9  11
ENDBRANCH   4   7
BRANCH   1  17
ATOM     17  C8  UNL A   1      -7.136  -3.419   9.234  1.00  0.00     0.048 C 
ATOM     18  C7  UNL A   1      -8.148  -3.129   8.331  1.00  0.00     0.009 C 
ATOM     19  C6  UNL A   1      -7.721  -3.211   6.964  1.00  0.00     0.015 C 
ATOM     20  C5  UNL A   1      -6.382  -3.510   6.860  1.00  0.00     0.071 C 
ATOM     21  S32 UNL A   1      -5.754  -3.991   8.367  1.00  0.00    -0.077 SA
BRANCH  20  22
ATOM     22  C4  UNL A   1      -5.593  -3.419   5.665  1.00  0.00    -0.058 C 
ATOM     23  C3  UNL A   1      -5.008  -3.301   4.623  1.00  0.00    -0.086 C 
BRANCH  23  24
ATOM     24  C2  UNL A   1      -4.316  -3.109   3.338  1.00  0.00     0.076 C 
ATOM     25  C1  UNL A   1      -2.832  -3.423   3.434  1.00  0.00     0.015 C 
ENDBRANCH  23  24
ENDBRANCH  20  22
ENDBRANCH   1  17
BRANCH   6  26
ATOM     26  C24 UNL A   1      -9.473  -4.086  11.365  1.00  0.00     0.093 A 
ATOM     27  C25 UNL A   1      -9.570  -5.374  10.806  1.00  0.00     0.021 A 
ATOM     28  C26 UNL A   1     -10.817  -5.959  10.546  1.00  0.00     0.013 A 
ATOM     29  C27 UNL A   1     -11.983  -5.287  10.888  1.00  0.00     0.059 A 
ATOM     30 CL28 UNL A   1     -13.512  -6.007  10.569  1.00  0.00    -0.082 Cl
ATOM     31  C29 UNL A   1     -11.916  -4.031  11.478  1.00  0.00     0.024 A 
ATOM     32  C30 UNL A   1     -10.671  -3.423  11.718  1.00  0.00     0.076 A 
ATOM     33 CL31 UNL A   1     -10.763  -1.806  12.338  1.00  0.00    -0.081 Cl
ENDBRANCH   6  26
TORSDOF 6
BEGIN_RES SER A 173
REMARK  2 active torsions:
REMARK  status: ('A' for Active; 'I' for Inactive)
REMARK    1  A    between atoms: CA   and  CB  
REMARK    2  A    between atoms: CB   and  OG  
ROOT
ATOM      1  CA  SER A 173      -4.540 -11.597  11.543  1.00127.03     0.292 C 
ENDROOT
BRANCH   1   2
ATOM      2  CB  SER A 173      -4.003 -10.168  11.569  1.00131.20     0.194 C 
BRANCH   2   3
ATOM      3  OG  SER A 173      -3.888  -9.686  12.897  1.00137.49    -0.550 OA
ATOM      4  HG  SER A 173      -4.093 -10.365  13.529  1.00  0.00     0.310 HD
ENDBRANCH   2   3
ENDBRANCH   1   2
END_RES SER A 173
BEGIN_RES SER A 383
REMARK  2 active torsions:
REMARK  status: ('A' for Active; 'I' for Inactive)
REMARK    3  A    between atoms: CA   and  CB  
REMARK    4  A    between atoms: CB   and  OG  
ROOT
ATOM      5  CA  SER A 383      -8.934   0.934   8.031  1.00 88.23     0.292 C 
ENDROOT
BRANCH   5   6
ATOM      6  CB  SER A 383      -8.589   0.249   9.352  1.00 82.13     0.194 C 
BRANCH   6   7
ATOM      7  OG  SER A 383      -7.201   0.327   9.619  1.00 85.59    -0.550 OA
ATOM      8  HG  SER A 383      -6.728  -0.367   9.175  1.00  0.00     0.310 HD
ENDBRANCH   6   7
ENDBRANCH   5   6
END_RES SER A 383
ENDMDL
