REMARK  7 active torsions:
REMARK  status: ('A' for Active; 'I' for Inactive)
REMARK    1  A    between atoms: C3_3  and  C4_4 
REMARK       I    between atoms: C4_4  and  N6_6 
REMARK    2  A    between atoms: N6_6  and  N7_7 
REMARK    3  A    between atoms: N14_14  and  C15_15 
REMARK    4  A    between atoms: C23_23  and  C24_24 
REMARK    5  A    between atoms: C27_27  and  C28_28 
REMARK    6  A    between atoms: C28_28  and  C29_29 
REMARK    7  A    between atoms: C29_29  and  C30_30 
ROOT
ATOM      1  C1  UNL A   1       1.218   0.330   0.095  1.00  0.00     0.034 C 
ATOM      2  C2  UNL A   1       2.695   0.071   0.117  1.00  0.00     0.020 A 
ATOM      3  C3  UNL A   1       3.449  -1.160   0.016  1.00  0.00     0.155 A 
ATOM      4  N13 UNL A   1       4.755  -0.889  -0.095  1.00  0.00    -0.161 NA
ATOM      5  N14 UNL A   1       4.891   0.446   0.055  1.00  0.00    -0.229 N 
ATOM      6  C23 UNL A   1       3.663   1.081   0.140  1.00  0.00     0.086 A 
ENDROOT
BRANCH   6   7
ATOM      7  C24 UNL A   1       3.466   2.517   0.105  1.00  0.00     0.048 A 
ATOM      8  C25 UNL A   1       4.206   3.463  -0.585  1.00  0.00     0.009 A 
ATOM      9  C26 UNL A   1       3.737   4.792  -0.364  1.00  0.00     0.015 A 
ATOM     10  C27 UNL A   1       2.637   4.815   0.460  1.00  0.00     0.071 A 
ATOM     11  S34 UNL A   1       2.209   3.269   0.991  1.00  0.00    -0.077 SA
BRANCH  10  12
ATOM     12  C28 UNL A   1       1.910   5.963   0.869  1.00  0.00    -0.058 C 
BRANCH  12  13
ATOM     13  C29 UNL A   1       1.184   6.963   1.285  1.00  0.00    -0.088 C 
BRANCH  13  14
ATOM     14  C30 UNL A   1       0.338   8.130   1.770  1.00  0.00     0.054 C 
ATOM     15  C31 UNL A   1      -0.206   8.892   0.556  1.00  0.00     0.013 C 
ATOM     16  C32 UNL A   1      -0.825   7.589   2.611  1.00  0.00     0.013 C 
ATOM     17  C33 UNL A   1       1.210   9.060   2.623  1.00  0.00     0.013 C 
ENDBRANCH  13  14
ENDBRANCH  12  13
ENDBRANCH  10  12
ENDBRANCH   6   7
BRANCH   5  18
ATOM     18  C15 UNL A   1       6.204   1.001   0.102  1.00  0.00     0.093 A 
ATOM     19  C16 UNL A   1       6.457   2.117   0.921  1.00  0.00     0.021 A 
ATOM     20  C17 UNL A   1       7.724   2.700   0.965  1.00  0.00     0.013 A 
ATOM     21  C18 UNL A   1       8.753   2.171   0.193  1.00  0.00     0.059 A 
ATOM     22 CL19 UNL A   1      10.312   2.895   0.238  1.00  0.00    -0.082 Cl
ATOM     23  C20 UNL A   1       8.521   1.075  -0.634  1.00  0.00     0.024 A 
ATOM     24  C21 UNL A   1       7.252   0.480  -0.680  1.00  0.00     0.076 A 
ATOM     25 CL22 UNL A   1       7.050  -0.766  -1.872  1.00  0.00    -0.081 Cl
ENDBRANCH   5  18
BRANCH   3  26
ATOM     26  C4  UNL A   1       3.019  -2.600  -0.036  1.00  0.00     0.287 C 
ATOM     27  O5  UNL A   1       1.857  -2.915   0.035  1.00  0.00    -0.265 OA
ATOM     28  N6  UNL A   1       4.080  -3.531  -0.170  1.00  0.00    -0.282 N 
ATOM     29  H35 UNL A   1       4.994  -3.172  -0.242  1.00  0.00     0.184 HD
BRANCH  28  30
ATOM     30  N7  UNL A   1       3.924  -4.962  -0.209  1.00  0.00    -0.199 NA
ATOM     31  C8  UNL A   1       3.269  -5.498   0.988  1.00  0.00     0.094 C 
ATOM     32  C9  UNL A   1       3.268  -7.029   0.991  1.00  0.00     0.019 C 
ATOM     33  C10 UNL A   1       2.647  -7.593  -0.282  1.00  0.00     0.003 C 
ATOM     34  C11 UNL A   1       3.329  -6.995  -1.507  1.00  0.00     0.019 C 
ATOM     35  C12 UNL A   1       3.308  -5.461  -1.448  1.00  0.00     0.094 C 
ENDBRANCH  28  30
ENDBRANCH   3  26
TORSDOF 7
