MODEL 1
REMARK VINA RESULT:   -12.118      0.000      0.000
REMARK INTER + INTRA:          -6.633
REMARK INTER:                 -14.952
REMARK INTRA:                   8.319
REMARK UNBOUND:                 8.319
REMARK  4 active torsions:
REMARK  status: ('A' for Active; 'I' for Inactive)
REMARK    1  A    between atoms: C3_3  and  C4_4 
REMARK       I    between atoms: C4_4  and  N6_6 
REMARK    2  A    between atoms: N6_6  and  N7_7 
REMARK    3  A    between atoms: N14_14  and  C15_15 
REMARK    4  A    between atoms: C23_23  and  C24_24 
ROOT
ATOM      1  C1  UNL A   1      -6.462  -1.801  11.939  1.00  0.00     0.034 C 
ATOM      2  C2  UNL A   1      -6.554  -2.541  10.650  1.00  0.00     0.020 A 
ATOM      3  C3  UNL A   1      -7.583  -3.456  10.261  1.00  0.00     0.155 A 
ATOM      4  N13 UNL A   1      -7.377  -3.892   9.010  1.00  0.00    -0.161 NA
ATOM      5  N14 UNL A   1      -6.246  -3.281   8.573  1.00  0.00    -0.229 N 
ATOM      6  C23 UNL A   1      -5.679  -2.456   9.557  1.00  0.00     0.081 A 
ENDROOT
BRANCH   3   7
ATOM      7  C4  UNL A   1      -8.759  -3.924  11.047  1.00  0.00     0.287 C 
ATOM      8  O5  UNL A   1      -8.678  -4.250  12.228  1.00  0.00    -0.265 OA
ATOM      9  N6  UNL A   1      -9.941  -3.964  10.304  1.00  0.00    -0.282 N 
ATOM     10  H31 UNL A   1      -9.904  -3.643   9.373  1.00  0.00     0.184 HD
BRANCH   9  11
ATOM     11  N7  UNL A   1     -11.199  -4.433  10.789  1.00  0.00    -0.199 NA
ATOM     12  C8  UNL A   1     -12.184  -3.357  10.953  1.00  0.00     0.094 C 
ATOM     13  C9  UNL A   1     -13.471  -3.871  11.616  1.00  0.00     0.019 C 
ATOM     14  C10 UNL A   1     -14.061  -5.049  10.849  1.00  0.00     0.003 C 
ATOM     15  C11 UNL A   1     -13.006  -6.130  10.643  1.00  0.00     0.019 C 
ATOM     16  C12 UNL A   1     -11.734  -5.555  10.005  1.00  0.00     0.094 C 
ENDBRANCH   9  11
ENDBRANCH   3   7
BRANCH   6  17
ATOM     17  C24 UNL A   1      -4.473  -1.599   9.400  1.00  0.00     0.018 A 
ATOM     18  C25 UNL A   1      -3.266  -1.883  10.060  1.00  0.00     0.002 A 
ATOM     19  C26 UNL A   1      -2.160  -1.027   9.964  1.00  0.00     0.006 A 
ATOM     20  C27 UNL A   1      -2.220   0.093   9.142  1.00  0.00     0.030 A 
ATOM     21  I28 UNL A   1      -0.577   1.354   8.979  1.00  0.00    -0.043 I 
ATOM     22  C29 UNL A   1      -3.382   0.369   8.429  1.00  0.00     0.006 A 
ATOM     23  C30 UNL A   1      -4.503  -0.461   8.576  1.00  0.00     0.002 A 
ENDBRANCH   6  17
BRANCH   5  24
ATOM     24  C15 UNL A   1      -5.761  -3.606   7.268  1.00  0.00     0.093 A 
ATOM     25  C16 UNL A   1      -6.162  -2.832   6.163  1.00  0.00     0.021 A 
ATOM     26  C17 UNL A   1      -5.738  -3.164   4.871  1.00  0.00     0.013 A 
ATOM     27  C18 UNL A   1      -4.889  -4.248   4.677  1.00  0.00     0.059 A 
ATOM     28 CL19 UNL A   1      -4.379  -4.663   3.088  1.00  0.00    -0.082 Cl
ATOM     29  C20 UNL A   1      -4.460  -5.009   5.761  1.00  0.00     0.024 A 
ATOM     30  C21 UNL A   1      -4.894  -4.696   7.057  1.00  0.00     0.076 A 
ATOM     31 CL22 UNL A   1      -4.411  -5.815   8.291  1.00  0.00    -0.081 Cl
ENDBRANCH   5  24
TORSDOF 4
BEGIN_RES SER A 173
REMARK  2 active torsions:
REMARK  status: ('A' for Active; 'I' for Inactive)
REMARK    1  A    between atoms: CA   and  CB  
REMARK    2  A    between atoms: CB   and  OG  
ROOT
ATOM      1  CA  SER A 173      -4.540 -11.597  11.543  1.00127.03     0.292 C 
ENDROOT
BRANCH   1   2
ATOM      2  CB  SER A 173      -4.003 -10.168  11.569  1.00131.20     0.194 C 
BRANCH   2   3
ATOM      3  OG  SER A 173      -3.942  -9.665  12.893  1.00137.49    -0.550 OA
ATOM      4  HG  SER A 173      -3.061  -9.719  13.242  1.00  0.00     0.310 HD
ENDBRANCH   2   3
ENDBRANCH   1   2
END_RES SER A 173
BEGIN_RES SER A 383
REMARK  2 active torsions:
REMARK  status: ('A' for Active; 'I' for Inactive)
REMARK    3  A    between atoms: CA   and  CB  
REMARK    4  A    between atoms: CB   and  OG  
ROOT
ATOM      5  CA  SER A 383      -8.934   0.934   8.031  1.00 88.23     0.292 C 
ENDROOT
BRANCH   5   6
ATOM      6  CB  SER A 383      -8.589   0.249   9.352  1.00 82.13     0.194 C 
BRANCH   6   7
ATOM      7  OG  SER A 383      -7.381   0.756   9.888  1.00 85.59    -0.550 OA
ATOM      8  HG  SER A 383      -7.286   0.516  10.803  1.00  0.00     0.310 HD
ENDBRANCH   6   7
ENDBRANCH   5   6
END_RES SER A 383
ENDMDL
MODEL 2
REMARK VINA RESULT:    -9.684      3.942      6.291
REMARK INTER + INTRA:          -3.630
REMARK INTER:                 -12.531
REMARK INTRA:                   8.902
REMARK UNBOUND:                 8.319
REMARK  4 active torsions:
REMARK  status: ('A' for Active; 'I' for Inactive)
REMARK    1  A    between atoms: C3_3  and  C4_4 
REMARK       I    between atoms: C4_4  and  N6_6 
REMARK    2  A    between atoms: N6_6  and  N7_7 
REMARK    3  A    between atoms: N14_14  and  C15_15 
REMARK    4  A    between atoms: C23_23  and  C24_24 
ROOT
ATOM      1  C1  UNL A   1      -7.021  -4.197  10.403  1.00  0.00     0.034 C 
ATOM      2  C2  UNL A   1      -5.957  -3.163  10.537  1.00  0.00     0.020 A 
ATOM      3  C3  UNL A   1      -5.562  -2.495  11.739  1.00  0.00     0.155 A 
ATOM      4  N13 UNL A   1      -4.533  -1.668  11.500  1.00  0.00    -0.161 NA
ATOM      5  N14 UNL A   1      -4.245  -1.787  10.179  1.00  0.00    -0.229 N 
ATOM      6  C23 UNL A   1      -5.113  -2.677   9.528  1.00  0.00     0.081 A 
ENDROOT
BRANCH   3   7
ATOM      7  C4  UNL A   1      -6.134  -2.622  13.108  1.00  0.00     0.287 C 
ATOM      8  O5  UNL A   1      -7.298  -2.961  13.309  1.00  0.00    -0.265 OA
ATOM      9  N6  UNL A   1      -5.225  -2.309  14.121  1.00  0.00    -0.282 N 
ATOM     10  H31 UNL A   1      -4.304  -2.088  13.851  1.00  0.00     0.184 HD
BRANCH   9  11
ATOM     11  N7  UNL A   1      -5.526  -2.287  15.516  1.00  0.00    -0.199 NA
ATOM     12  C8  UNL A   1      -4.410  -2.749  16.348  1.00  0.00     0.094 C 
ATOM     13  C9  UNL A   1      -4.817  -2.855  17.825  1.00  0.00     0.019 C 
ATOM     14  C10 UNL A   1      -5.384  -1.538  18.342  1.00  0.00     0.003 C 
ATOM     15  C11 UNL A   1      -6.505  -1.049  17.432  1.00  0.00     0.019 C 
ATOM     16  C12 UNL A   1      -6.051  -0.991  15.968  1.00  0.00     0.094 C 
ENDBRANCH   9  11
ENDBRANCH   3   7
BRANCH   6  17
ATOM     17  C24 UNL A   1      -5.049  -3.083   8.099  1.00  0.00     0.018 A 
ATOM     18  C25 UNL A   1      -4.448  -4.286   7.692  1.00  0.00     0.002 A 
ATOM     19  C26 UNL A   1      -4.326  -4.622   6.337  1.00  0.00     0.006 A 
ATOM     20  C27 UNL A   1      -4.873  -3.791   5.365  1.00  0.00     0.030 A 
ATOM     21  I28 UNL A   1      -4.714  -4.296   3.356  1.00  0.00    -0.043 I 
ATOM     22  C29 UNL A   1      -5.527  -2.623   5.740  1.00  0.00     0.006 A 
ATOM     23  C30 UNL A   1      -5.594  -2.265   7.094  1.00  0.00     0.002 A 
ENDBRANCH   6  17
BRANCH   5  24
ATOM     24  C15 UNL A   1      -3.205  -0.970   9.637  1.00  0.00     0.093 A 
ATOM     25  C16 UNL A   1      -1.867  -1.208  10.004  1.00  0.00     0.021 A 
ATOM     26  C17 UNL A   1      -0.840  -0.388   9.522  1.00  0.00     0.013 A 
ATOM     27  C18 UNL A   1      -1.136   0.654   8.650  1.00  0.00     0.059 A 
ATOM     28 CL19 UNL A   1       0.125   1.668   8.068  1.00  0.00    -0.082 Cl
ATOM     29  C20 UNL A   1      -2.450   0.888   8.253  1.00  0.00     0.024 A 
ATOM     30  C21 UNL A   1      -3.488   0.083   8.745  1.00  0.00     0.076 A 
ATOM     31 CL22 UNL A   1      -5.087   0.582   8.296  1.00  0.00    -0.081 Cl
ENDBRANCH   5  24
TORSDOF 4
BEGIN_RES SER A 173
REMARK  2 active torsions:
REMARK  status: ('A' for Active; 'I' for Inactive)
REMARK    1  A    between atoms: CA   and  CB  
REMARK    2  A    between atoms: CB   and  OG  
ROOT
ATOM      1  CA  SER A 173      -4.540 -11.597  11.543  1.00127.03     0.292 C 
ENDROOT
BRANCH   1   2
ATOM      2  CB  SER A 173      -4.003 -10.168  11.569  1.00131.20     0.194 C 
BRANCH   2   3
ATOM      3  OG  SER A 173      -3.930  -9.670  12.894  1.00137.49    -0.550 OA
ATOM      4  HG  SER A 173      -3.934  -8.720  12.906  1.00  0.00     0.310 HD
ENDBRANCH   2   3
ENDBRANCH   1   2
END_RES SER A 173
BEGIN_RES SER A 383
REMARK  2 active torsions:
REMARK  status: ('A' for Active; 'I' for Inactive)
REMARK    3  A    between atoms: CA   and  CB  
REMARK    4  A    between atoms: CB   and  OG  
ROOT
ATOM      5  CA  SER A 383      -8.934   0.934   8.031  1.00 88.23     0.292 C 
ENDROOT
BRANCH   5   6
ATOM      6  CB  SER A 383      -8.589   0.249   9.352  1.00 82.13     0.194 C 
BRANCH   6   7
ATOM      7  OG  SER A 383      -7.995   1.160  10.259  1.00 85.59    -0.550 OA
ATOM      8  HG  SER A 383      -8.237   2.056  10.051  1.00  0.00     0.310 HD
ENDBRANCH   6   7
ENDBRANCH   5   6
END_RES SER A 383
ENDMDL
MODEL 3
REMARK VINA RESULT:    -9.234      5.912     10.955
REMARK INTER + INTRA:          -3.074
REMARK INTER:                 -11.391
REMARK INTRA:                   8.317
REMARK UNBOUND:                 8.319
REMARK  4 active torsions:
REMARK  status: ('A' for Active; 'I' for Inactive)
REMARK    1  A    between atoms: C3_3  and  C4_4 
REMARK       I    between atoms: C4_4  and  N6_6 
REMARK    2  A    between atoms: N6_6  and  N7_7 
REMARK    3  A    between atoms: N14_14  and  C15_15 
REMARK    4  A    between atoms: C23_23  and  C24_24 
ROOT
ATOM      1  C1  UNL A   1     -11.359  -6.222  12.279  1.00  0.00     0.034 C 
ATOM      2  C2  UNL A   1     -12.210  -5.003  12.376  1.00  0.00     0.020 A 
ATOM      3  C3  UNL A   1     -11.931  -3.719  11.812  1.00  0.00     0.155 A 
ATOM      4  N13 UNL A   1     -12.943  -2.871  12.048  1.00  0.00    -0.161 NA
ATOM      5  N14 UNL A   1     -13.875  -3.572  12.744  1.00  0.00    -0.229 N 
ATOM      6  C23 UNL A   1     -13.461  -4.888  13.000  1.00  0.00     0.081 A 
ENDROOT
BRANCH   3   7
ATOM      7  C4  UNL A   1     -10.728  -3.275  11.052  1.00  0.00     0.287 C 
ATOM      8  O5  UNL A   1     -10.732  -3.137   9.832  1.00  0.00    -0.265 OA
ATOM      9  N6  UNL A   1      -9.613  -3.050  11.861  1.00  0.00    -0.282 N 
ATOM     10  H31 UNL A   1      -9.730  -3.152  12.834  1.00  0.00     0.184 HD
BRANCH   9  11
ATOM     11  N7  UNL A   1      -8.318  -2.681  11.389  1.00  0.00    -0.199 NA
ATOM     12  C8  UNL A   1      -7.419  -2.248  12.465  1.00  0.00     0.094 C 
ATOM     13  C9  UNL A   1      -6.090  -1.717  11.908  1.00  0.00     0.019 C 
ATOM     14  C10 UNL A   1      -5.416  -2.743  11.004  1.00  0.00     0.003 C 
ATOM     15  C11 UNL A   1      -6.384  -3.219   9.927  1.00  0.00     0.019 C 
ATOM     16  C12 UNL A   1      -7.704  -3.710  10.539  1.00  0.00     0.094 C 
ENDBRANCH   9  11
ENDBRANCH   3   7
BRANCH   6  17
ATOM     17  C24 UNL A   1     -14.254  -5.943  13.687  1.00  0.00     0.018 A 
ATOM     18  C25 UNL A   1     -14.406  -5.971  15.083  1.00  0.00     0.002 A 
ATOM     19  C26 UNL A   1     -15.092  -7.011  15.725  1.00  0.00     0.006 A 
ATOM     20  C27 UNL A   1     -15.706  -8.005  14.970  1.00  0.00     0.030 A 
ATOM     21  I28 UNL A   1     -16.743  -9.538  15.914  1.00  0.00    -0.043 I 
ATOM     22  C29 UNL A   1     -15.625  -7.971  13.582  1.00  0.00     0.006 A 
ATOM     23  C30 UNL A   1     -14.887  -6.959  12.951  1.00  0.00     0.002 A 
ENDBRANCH   6  17
BRANCH   5  24
ATOM     24  C15 UNL A   1     -15.054  -2.889  13.174  1.00  0.00     0.093 A 
ATOM     25  C16 UNL A   1     -16.156  -2.784  12.304  1.00  0.00     0.021 A 
ATOM     26  C17 UNL A   1     -17.301  -2.077  12.688  1.00  0.00     0.013 A 
ATOM     27  C18 UNL A   1     -17.367  -1.497  13.950  1.00  0.00     0.059 A 
ATOM     28 CL19 UNL A   1     -18.769  -0.618  14.416  1.00  0.00    -0.082 Cl
ATOM     29  C20 UNL A   1     -16.298  -1.613  14.834  1.00  0.00     0.024 A 
ATOM     30  C21 UNL A   1     -15.139  -2.303  14.453  1.00  0.00     0.076 A 
ATOM     31 CL22 UNL A   1     -13.829  -2.237  15.586  1.00  0.00    -0.081 Cl
ENDBRANCH   5  24
TORSDOF 4
BEGIN_RES SER A 173
REMARK  2 active torsions:
REMARK  status: ('A' for Active; 'I' for Inactive)
REMARK    1  A    between atoms: CA   and  CB  
REMARK    2  A    between atoms: CB   and  OG  
ROOT
ATOM      1  CA  SER A 173      -4.540 -11.597  11.543  1.00127.03     0.292 C 
ENDROOT
BRANCH   1   2
ATOM      2  CB  SER A 173      -4.003 -10.168  11.569  1.00131.20     0.194 C 
BRANCH   2   3
ATOM      3  OG  SER A 173      -3.912  -9.677  12.895  1.00137.49    -0.550 OA
ATOM      4  HG  SER A 173      -3.163 -10.045  13.349  1.00  0.00     0.310 HD
ENDBRANCH   2   3
ENDBRANCH   1   2
END_RES SER A 173
BEGIN_RES SER A 383
REMARK  2 active torsions:
REMARK  status: ('A' for Active; 'I' for Inactive)
REMARK    3  A    between atoms: CA   and  CB  
REMARK    4  A    between atoms: CB   and  OG  
ROOT
ATOM      5  CA  SER A 383      -8.934   0.934   8.031  1.00 88.23     0.292 C 
ENDROOT
BRANCH   5   6
ATOM      6  CB  SER A 383      -8.589   0.249   9.352  1.00 82.13     0.194 C 
BRANCH   6   7
ATOM      7  OG  SER A 383      -7.318   0.659   9.822  1.00 85.59    -0.550 OA
ATOM      8  HG  SER A 383      -7.116   1.542   9.535  1.00  0.00     0.310 HD
ENDBRANCH   6   7
ENDBRANCH   5   6
END_RES SER A 383
ENDMDL
