MODEL 1
REMARK VINA RESULT:   -12.726      0.000      0.000
REMARK INTER + INTRA:         -11.261
REMARK INTER:                 -19.421
REMARK INTRA:                   8.160
REMARK UNBOUND:                 8.160
REMARK  9 active torsions:
REMARK  status: ('A' for Active; 'I' for Inactive)
REMARK    1  A    between atoms: C2_2  and  O4_4 
REMARK    2  A    between atoms: O4_4  and  C5_5 
REMARK    3  A    between atoms: C5_5  and  C6_6 
REMARK    4  A    between atoms: C6_6  and  C7_7 
REMARK    5  A    between atoms: C8_8  and  C9_9 
REMARK    6  A    between atoms: C12_12  and  C13_13 
REMARK    7  A    between atoms: C16_16  and  C17_17 
REMARK       I    between atoms: C17_17  and  N19_19 
REMARK    8  A    between atoms: N19_19  and  N20_20 
REMARK    9  A    between atoms: N27_27  and  C28_28 
ROOT
ATOM      1  C13 UNL A   1      -5.837  -2.412   9.655  1.00  0.00     0.081 A 
ATOM      2  C14 UNL A   1      -6.736  -2.478  10.723  1.00  0.00     0.020 A 
ATOM      3  C15 UNL A   1      -6.748  -1.699  11.999  1.00  0.00     0.034 C 
ATOM      4  C16 UNL A   1      -7.698  -3.456  10.361  1.00  0.00     0.155 A 
ATOM      5  N26 UNL A   1      -7.460  -3.931   9.135  1.00  0.00    -0.161 NA
ATOM      6  N27 UNL A   1      -6.359  -3.276   8.676  1.00  0.00    -0.229 N 
ENDROOT
BRANCH   1   7
ATOM      7  C12 UNL A   1      -4.679  -1.501   9.564  1.00  0.00     0.018 A 
ATOM      8  C11 UNL A   1      -4.784  -0.354   8.755  1.00  0.00     0.002 A 
ATOM      9  C10 UNL A   1      -3.670   0.417   8.442  1.00  0.00     0.008 A 
ATOM     10  C9  UNL A   1      -2.445   0.117   9.022  1.00  0.00     0.042 A 
ATOM     11  C37 UNL A   1      -2.332  -0.958   9.904  1.00  0.00     0.008 A 
ATOM     12  C36 UNL A   1      -3.435  -1.786  10.142  1.00  0.00     0.002 A 
BRANCH  10  13
ATOM     13  C8  UNL A   1      -1.325   0.941   8.726  1.00  0.00    -0.064 C 
ATOM     14  C7  UNL A   1      -0.336   1.560   8.451  1.00  0.00    -0.084 C 
BRANCH  14  15
ATOM     15  C6  UNL A   1       0.893   2.206   7.997  1.00  0.00     0.109 C 
BRANCH  15  16
ATOM     16  C5  UNL A   1       1.549   2.906   9.183  1.00  0.00     0.166 C 
BRANCH  16  17
ATOM     17  O4  UNL A   1       1.457   2.100  10.371  1.00  0.00    -0.301 OA
BRANCH  17  18
ATOM     18  C2  UNL A   1       2.517   2.209  11.211  1.00  0.00     0.272 C 
ATOM     19  C1  UNL A   1       2.030   2.274  12.625  1.00  0.00     0.106 C 
ATOM     20  O3  UNL A   1       3.693   2.263  10.882  1.00  0.00    -0.264 OA
ENDBRANCH  17  18
ENDBRANCH  16  17
ENDBRANCH  15  16
ENDBRANCH  14  15
ENDBRANCH  10  13
ENDBRANCH   1   7
BRANCH   6  21
ATOM     21  C28 UNL A   1      -5.860  -3.613   7.371  1.00  0.00     0.093 A 
ATOM     22  C29 UNL A   1      -6.266  -2.862   6.253  1.00  0.00     0.021 A 
ATOM     23  C30 UNL A   1      -5.816  -3.183   4.967  1.00  0.00     0.013 A 
ATOM     24  C31 UNL A   1      -4.923  -4.231   4.785  1.00  0.00     0.059 A 
ATOM     25 CL32 UNL A   1      -4.366  -4.621   3.205  1.00  0.00    -0.082 Cl
ATOM     26  C33 UNL A   1      -4.481  -4.969   5.878  1.00  0.00     0.024 A 
ATOM     27  C34 UNL A   1      -4.946  -4.673   7.169  1.00  0.00     0.076 A 
ATOM     28 CL35 UNL A   1      -4.411  -5.773   8.398  1.00  0.00    -0.081 Cl
ENDBRANCH   6  21
BRANCH   4  29
ATOM     29  C17 UNL A   1      -8.829  -3.932  11.188  1.00  0.00     0.287 C 
ATOM     30  O18 UNL A   1      -8.676  -4.254  12.367  1.00  0.00    -0.265 OA
ATOM     31  N19 UNL A   1     -10.040  -3.989  10.509  1.00  0.00    -0.282 N 
ATOM     32  H38 UNL A   1     -10.060  -3.681   9.574  1.00  0.00     0.184 HD
BRANCH  31  33
ATOM     33  N20 UNL A   1     -11.259  -4.468  11.083  1.00  0.00    -0.199 NA
ATOM     34  C21 UNL A   1     -12.238  -3.385  11.283  1.00  0.00     0.094 C 
ATOM     35  C22 UNL A   1     -13.526  -3.883  11.942  1.00  0.00     0.019 C 
ATOM     36  C23 UNL A   1     -14.131  -5.051  11.173  1.00  0.00     0.003 C 
ATOM     37  C24 UNL A   1     -13.090  -6.145  10.976  1.00  0.00     0.019 C 
ATOM     38  C25 UNL A   1     -11.824  -5.592  10.316  1.00  0.00     0.094 C 
ENDBRANCH  31  33
ENDBRANCH   4  29
TORSDOF 9
BEGIN_RES SER A 173
REMARK  2 active torsions:
REMARK  status: ('A' for Active; 'I' for Inactive)
REMARK    1  A    between atoms: CA   and  CB  
REMARK    2  A    between atoms: CB   and  OG  
ROOT
ATOM      1  CA  SER A 173      -4.540 -11.597  11.543  1.00127.03     0.292 C 
ENDROOT
BRANCH   1   2
ATOM      2  CB  SER A 173      -4.003 -10.168  11.569  1.00131.20     0.194 C 
BRANCH   2   3
ATOM      3  OG  SER A 173      -3.961  -9.659  12.891  1.00137.49    -0.550 OA
ATOM      4  HG  SER A 173      -4.259  -8.757  12.922  1.00  0.00     0.310 HD
ENDBRANCH   2   3
ENDBRANCH   1   2
END_RES SER A 173
BEGIN_RES SER A 383
REMARK  2 active torsions:
REMARK  status: ('A' for Active; 'I' for Inactive)
REMARK    3  A    between atoms: CA   and  CB  
REMARK    4  A    between atoms: CB   and  OG  
ROOT
ATOM      5  CA  SER A 383      -8.934   0.934   8.031  1.00 88.23     0.292 C 
ENDROOT
BRANCH   5   6
ATOM      6  CB  SER A 383      -8.589   0.249   9.352  1.00 82.13     0.194 C 
BRANCH   6   7
ATOM      7  OG  SER A 383      -7.750   1.067  10.146  1.00 85.59    -0.550 OA
ATOM      8  HG  SER A 383      -7.827   0.844  11.067  1.00  0.00     0.310 HD
ENDBRANCH   6   7
ENDBRANCH   5   6
END_RES SER A 383
ENDMDL
