REMARK  6 active torsions:
REMARK  status: ('A' for Active; 'I' for Inactive)
REMARK    1  A    between atoms: C2_2  and  C3_3 
REMARK    2  A    between atoms: C4_4  and  C5_5 
REMARK    3  A    between atoms: C8_8  and  C9_9 
REMARK    4  A    between atoms: C12_12  and  C13_13 
REMARK       I    between atoms: C13_13  and  N15_15 
REMARK    5  A    between atoms: N15_15  and  N16_16 
REMARK    6  A    between atoms: N23_23  and  C24_24 
ROOT
ATOM      1  C9  UNL A   1       5.587   5.517  -4.736  1.00  0.00     0.086 A 
ATOM      2  C10 UNL A   1       5.283   5.094  -6.034  1.00  0.00     0.020 A 
ATOM      3  C11 UNL A   1       4.278   4.104  -6.520  1.00  0.00     0.034 C 
ATOM      4  C12 UNL A   1       6.125   5.848  -6.905  1.00  0.00     0.155 A 
ATOM      5  N22 UNL A   1       6.883   6.703  -6.210  1.00  0.00    -0.161 NA
ATOM      6  N23 UNL A   1       6.565   6.520  -4.893  1.00  0.00    -0.229 N 
ENDROOT
BRANCH   4   7
ATOM      7  C13 UNL A   1       6.173   5.736  -8.389  1.00  0.00     0.287 C 
ATOM      8  O14 UNL A   1       5.490   4.914  -8.995  1.00  0.00    -0.265 OA
ATOM      9  N15 UNL A   1       7.048   6.625  -9.015  1.00  0.00    -0.282 N 
ATOM     10  H33 UNL A   1       7.550   7.256  -8.450  1.00  0.00     0.184 HD
BRANCH   9  11
ATOM     11  N16 UNL A   1       7.260   6.673 -10.432  1.00  0.00    -0.199 NA
ATOM     12  C17 UNL A   1       7.840   5.422 -10.954  1.00  0.00     0.094 C 
ATOM     13  C18 UNL A   1       8.143   5.515 -12.452  1.00  0.00     0.019 C 
ATOM     14  C19 UNL A   1       6.900   5.901 -13.244  1.00  0.00     0.003 C 
ATOM     15  C20 UNL A   1       6.297   7.180 -12.678  1.00  0.00     0.019 C 
ATOM     16  C21 UNL A   1       6.044   7.064 -11.171  1.00  0.00     0.094 C 
ENDBRANCH   9  11
ENDBRANCH   4   7
BRANCH   1  17
ATOM     17  C8  UNL A   1       4.927   5.097  -3.503  1.00  0.00     0.048 C 
ATOM     18  C7  UNL A   1       4.544   5.849  -2.403  1.00  0.00     0.009 C 
ATOM     19  C6  UNL A   1       3.746   5.110  -1.467  1.00  0.00     0.015 C 
ATOM     20  C5  UNL A   1       3.497   3.829  -1.903  1.00  0.00     0.071 C 
ATOM     21  S32 UNL A   1       4.473   3.448  -3.244  1.00  0.00    -0.077 SA
BRANCH  20  22
ATOM     22  C4  UNL A   1       2.538   2.923  -1.338  1.00  0.00    -0.058 C 
ATOM     23  C3  UNL A   1       1.684   2.177  -0.944  1.00  0.00    -0.086 C 
BRANCH  23  24
ATOM     24  C2  UNL A   1       0.629   1.245  -0.513  1.00  0.00     0.076 C 
ATOM     25  C1  UNL A   1      -0.641   1.970  -0.098  1.00  0.00     0.015 C 
ENDBRANCH  23  24
ENDBRANCH  20  22
ENDBRANCH   1  17
BRANCH   6  26
ATOM     26  C24 UNL A   1       7.295   7.261  -3.901  1.00  0.00     0.093 A 
ATOM     27  C25 UNL A   1       7.580   6.662  -2.660  1.00  0.00     0.021 A 
ATOM     28  C26 UNL A   1       8.265   7.362  -1.658  1.00  0.00     0.013 A 
ATOM     29  C27 UNL A   1       8.718   8.652  -1.900  1.00  0.00     0.059 A 
ATOM     30 CL28 UNL A   1       9.560   9.510  -0.669  1.00  0.00    -0.082 Cl
ATOM     31  C29 UNL A   1       8.486   9.253  -3.131  1.00  0.00     0.024 A 
ATOM     32  C30 UNL A   1       7.776   8.570  -4.133  1.00  0.00     0.076 A 
ATOM     33 CL31 UNL A   1       7.458   9.504  -5.559  1.00  0.00    -0.081 Cl
ENDBRANCH   6  26
TORSDOF 6
