CHEMBL1269771
 OpenBabel12022417373D

129134  0  0  0  0  0  0  0  0999 V2000
   -7.8850   -2.2650   -1.4066 C   0  0  0  0  0  0  0  0  0  0  0  0
   -6.5273   -2.1549   -0.8006 C   0  0  0  0  0  0  0  0  0  0  0  0
   -5.8978   -0.9411   -0.3513 C   0  0  0  0  0  0  0  0  0  0  0  0
   -6.4270    0.4517   -0.4452 C   0  0  0  0  0  0  0  0  0  0  0  0
   -7.4958    0.7051   -0.9750 O   0  0  0  0  0  0  0  0  0  0  0  0
   -5.6233    1.4332    0.1200 N   0  0  0  0  0  0  0  0  0  0  0  0
   -5.9792    2.8438    0.1167 C   0  0  0  0  0  0  0  0  0  0  0  0
   -5.4700    3.5777   -1.1314 C   0  0  0  0  0  0  0  0  0  0  0  0
   -5.8616    5.0608   -1.1319 C   0  0  0  0  0  0  0  0  0  0  0  0
   -5.3464    5.7984   -2.3781 C   0  0  0  0  0  0  0  0  0  0  0  0
   -5.7315    7.2829   -2.4023 C   0  0  0  0  0  0  0  0  0  0  0  0
   -5.1479    8.0425   -1.2152 C   0  0  0  0  0  0  0  0  0  0  0  0
   -5.5270    9.5150   -1.2311 C   0  0  0  0  0  0  0  0  0  0  0  0
   -4.9289   10.2013   -0.0011 C   0  0  0  0  0  0  0  0  0  0  0  0
   -5.2912   11.6821    0.0605 C   0  0  0  0  0  0  0  0  0  0  0  0
   -6.7381   11.9584    0.0935 N   0  0  0  0  0  0  0  0  0  0  0  0
   -7.3726   11.3620    1.2751 C   0  0  0  0  0  0  0  0  0  0  0  0
   -7.0007   13.4110    0.0579 C   0  0  0  0  0  0  0  0  0  0  0  0
   -6.4971   14.0646   -1.2377 C   0  0  0  0  0  0  0  0  0  0  0  0
   -6.7679   15.5667   -1.2822 C   0  0  0  0  0  0  0  0  0  0  0  0
   -6.1937   16.1623   -2.5727 C   0  0  0  0  0  0  0  0  0  0  0  0
   -6.4317   17.6710   -2.6586 C   0  0  0  0  0  0  0  0  0  0  0  0
   -5.8595   18.2540   -3.9564 C   0  0  0  0  0  0  0  0  0  0  0  0
   -6.0965   19.7666   -4.0642 C   0  0  0  0  0  0  0  0  0  0  0  0
   -5.5238   20.3435   -5.3714 C   0  0  0  0  0  0  0  0  0  0  0  0
   -5.7479   21.8546   -5.4934 C   0  0  0  0  0  0  0  0  0  0  0  0
   -5.2227   22.4006   -6.7360 N   0  0  0  0  0  0  0  0  0  0  0  0
   -6.0064   22.5465   -7.8670 C   0  0  0  0  0  0  0  0  0  0  0  0
   -7.1769   22.1828   -7.8806 O   0  0  0  0  0  0  0  0  0  0  0  0
   -5.3495   23.1670   -9.0481 C   0  0  0  0  0  0  0  0  0  0  0  0
   -5.8959   23.3897  -10.3570 C   0  0  0  0  0  0  0  0  0  0  0  0
   -4.8699   23.9717  -11.1161 C   0  0  0  0  0  0  0  0  0  0  0  0
   -4.8602   24.3568  -12.5633 C   0  0  0  0  0  0  0  0  0  0  0  0
   -3.6939   24.2979  -13.3486 C   0  0  0  0  0  0  0  0  0  0  0  0
   -3.6190   24.9002  -14.6114 C   0  0  0  0  0  0  0  0  0  0  0  0
   -4.7651   25.4186  -15.1927 C   0  0  0  0  0  0  0  0  0  0  0  0
   -5.9689   25.3664  -14.5031 C   0  0  0  0  0  0  0  0  0  0  0  0
   -6.0068   24.8680  -13.1918 C   0  0  0  0  0  0  0  0  0  0  0  0
   -4.6932   26.1123  -16.7624 Cl  0  0  0  0  0  0  0  0  0  0  0  0
   -3.7900   24.0877  -10.2156 N   0  0  0  0  0  0  0  0  0  0  0  0
   -2.4947   24.6595  -10.4258 C   0  0  0  0  0  0  0  0  0  0  0  0
   -2.3557   25.7679  -11.2850 C   0  0  0  0  0  0  0  0  0  0  0  0
   -1.0958   26.2173  -11.6826 C   0  0  0  0  0  0  0  0  0  0  0  0
    0.0383   25.6451  -11.1255 C   0  0  0  0  0  0  0  0  0  0  0  0
   -0.0769   24.6073  -10.2042 C   0  0  0  0  0  0  0  0  0  0  0  0
   -1.3366   24.0971   -9.8586 C   0  0  0  0  0  0  0  0  0  0  0  0
   -1.3087   22.6892   -8.8483 Cl  0  0  0  0  0  0  0  0  0  0  0  0
    1.5912   26.2240  -11.5788 Cl  0  0  0  0  0  0  0  0  0  0  0  0
   -4.0925   23.6085   -8.9842 N   0  0  0  0  0  0  0  0  0  0  0  0
   -7.2663   23.0262  -10.8164 C   0  0  0  0  0  0  0  0  0  0  0  0
   -4.7058   -1.2067    0.1985 N   0  0  0  0  0  0  0  0  0  0  0  0
   -4.5195   -2.5462    0.0663 N   0  0  0  0  0  0  0  0  0  0  0  0
   -3.2455   -3.0988    0.3839 C   0  0  0  0  0  0  0  0  0  0  0  0
   -2.6603   -4.0427   -0.4839 C   0  0  0  0  0  0  0  0  0  0  0  0
   -1.3955   -4.5714   -0.2126 C   0  0  0  0  0  0  0  0  0  0  0  0
   -0.6991   -4.1465    0.9135 C   0  0  0  0  0  0  0  0  0  0  0  0
   -1.2787   -3.2436    1.8020 C   0  0  0  0  0  0  0  0  0  0  0  0
   -2.5558   -2.7245    1.5497 C   0  0  0  0  0  0  0  0  0  0  0  0
   -3.2593   -1.7829    2.8211 Cl  0  0  0  0  0  0  0  0  0  0  0  0
    0.8893   -4.7366    1.2083 Cl  0  0  0  0  0  0  0  0  0  0  0  0
   -5.6259   -3.1866   -0.5124 C   0  0  0  0  0  0  0  0  0  0  0  0
   -5.7840   -4.6567   -0.6526 C   0  0  0  0  0  0  0  0  0  0  0  0
   -5.2319   -5.5461    0.2878 C   0  0  0  0  0  0  0  0  0  0  0  0
   -5.3479   -6.9319    0.1443 C   0  0  0  0  0  0  0  0  0  0  0  0
   -6.0990   -7.4556   -0.8988 C   0  0  0  0  0  0  0  0  0  0  0  0
   -6.6920   -6.6048   -1.8233 C   0  0  0  0  0  0  0  0  0  0  0  0
   -6.5012   -5.2209   -1.7200 C   0  0  0  0  0  0  0  0  0  0  0  0
   -6.2981   -9.1561   -1.0394 Cl  0  0  0  0  0  0  0  0  0  0  0  0
   -8.2089   -3.2986   -1.5389 H   0  0  0  0  0  0  0  0  0  0  0  0
   -7.9026   -1.7912   -2.3931 H   0  0  0  0  0  0  0  0  0  0  0  0
   -8.6447   -1.8077   -0.7679 H   0  0  0  0  0  0  0  0  0  0  0  0
   -4.7549    1.1172    0.5416 H   0  0  0  0  0  0  0  0  0  0  0  0
   -5.5500    3.2924    1.0193 H   0  0  0  0  0  0  0  0  0  0  0  0
   -7.0698    2.9392    0.1856 H   0  0  0  0  0  0  0  0  0  0  0  0
   -5.8662    3.0965   -2.0320 H   0  0  0  0  0  0  0  0  0  0  0  0
   -4.3771    3.4960   -1.1775 H   0  0  0  0  0  0  0  0  0  0  0  0
   -5.4508    5.5212   -0.2272 H   0  0  0  0  0  0  0  0  0  0  0  0
   -6.9522    5.1643   -1.0801 H   0  0  0  0  0  0  0  0  0  0  0  0
   -5.7513    5.3225   -3.2792 H   0  0  0  0  0  0  0  0  0  0  0  0
   -4.2544    5.7120   -2.4365 H   0  0  0  0  0  0  0  0  0  0  0  0
   -6.8236    7.3832   -2.4123 H   0  0  0  0  0  0  0  0  0  0  0  0
   -5.3651    7.7326   -3.3345 H   0  0  0  0  0  0  0  0  0  0  0  0
   -4.0561    7.9423   -1.2142 H   0  0  0  0  0  0  0  0  0  0  0  0
   -5.5165    7.6171   -0.2766 H   0  0  0  0  0  0  0  0  0  0  0  0
   -6.6195    9.6086   -1.2338 H   0  0  0  0  0  0  0  0  0  0  0  0
   -5.1576    9.9937   -2.1458 H   0  0  0  0  0  0  0  0  0  0  0  0
   -3.8358   10.1167   -0.0391 H   0  0  0  0  0  0  0  0  0  0  0  0
   -5.2372    9.6886    0.9165 H   0  0  0  0  0  0  0  0  0  0  0  0
   -4.8465   12.1132   -0.8412 H   0  0  0  0  0  0  0  0  0  0  0  0
   -4.7903   12.1477    0.9180 H   0  0  0  0  0  0  0  0  0  0  0  0
   -7.2623   10.2724    1.2857 H   0  0  0  0  0  0  0  0  0  0  0  0
   -8.4536   11.5399    1.2706 H   0  0  0  0  0  0  0  0  0  0  0  0
   -6.9566   11.7574    2.2083 H   0  0  0  0  0  0  0  0  0  0  0  0
   -6.5431   13.9015    0.9265 H   0  0  0  0  0  0  0  0  0  0  0  0
   -8.0833   13.5819    0.1238 H   0  0  0  0  0  0  0  0  0  0  0  0
   -6.9633   13.5755   -2.1021 H   0  0  0  0  0  0  0  0  0  0  0  0
   -5.4150   13.9391   -1.3390 H   0  0  0  0  0  0  0  0  0  0  0  0
   -6.3018   16.0473   -0.4132 H   0  0  0  0  0  0  0  0  0  0  0  0
   -7.8454   15.7531   -1.2242 H   0  0  0  0  0  0  0  0  0  0  0  0
   -6.6512   15.6667   -3.4382 H   0  0  0  0  0  0  0  0  0  0  0  0
   -5.1161   15.9589   -2.6203 H   0  0  0  0  0  0  0  0  0  0  0  0
   -5.9664   18.1619   -1.7950 H   0  0  0  0  0  0  0  0  0  0  0  0
   -7.5085   17.8689   -2.6048 H   0  0  0  0  0  0  0  0  0  0  0  0
   -6.3238   17.7488   -4.8147 H   0  0  0  0  0  0  0  0  0  0  0  0
   -4.7851   18.0462   -4.0042 H   0  0  0  0  0  0  0  0  0  0  0  0
   -5.6304   20.2659   -3.2056 H   0  0  0  0  0  0  0  0  0  0  0  0
   -7.1725   19.9699   -4.0106 H   0  0  0  0  0  0  0  0  0  0  0  0
   -5.9865   19.8333   -6.2252 H   0  0  0  0  0  0  0  0  0  0  0  0
   -4.4490   20.1330   -5.4211 H   0  0  0  0  0  0  0  0  0  0  0  0
   -5.2483   22.3806   -4.6733 H   0  0  0  0  0  0  0  0  0  0  0  0
   -6.8202   22.0782   -5.4259 H   0  0  0  0  0  0  0  0  0  0  0  0
   -4.2635   22.7098   -6.8208 H   0  0  0  0  0  0  0  0  0  0  0  0
   -2.7763   23.8625  -12.9607 H   0  0  0  0  0  0  0  0  0  0  0  0
   -2.6594   24.9707  -15.1178 H   0  0  0  0  0  0  0  0  0  0  0  0
   -6.8812   25.7376  -14.9628 H   0  0  0  0  0  0  0  0  0  0  0  0
   -6.9595   24.9196  -12.6780 H   0  0  0  0  0  0  0  0  0  0  0  0
   -3.2228   26.2662  -11.7156 H   0  0  0  0  0  0  0  0  0  0  0  0
   -1.0149   26.9980  -12.4363 H   0  0  0  0  0  0  0  0  0  0  0  0
    0.8214   24.1650   -9.7799 H   0  0  0  0  0  0  0  0  0  0  0  0
   -7.8594   22.5145  -10.0593 H   0  0  0  0  0  0  0  0  0  0  0  0
   -7.2108   22.3648  -11.6861 H   0  0  0  0  0  0  0  0  0  0  0  0
   -7.8329   23.9221  -11.0831 H   0  0  0  0  0  0  0  0  0  0  0  0
   -3.1674   -4.3802   -1.3868 H   0  0  0  0  0  0  0  0  0  0  0  0
   -0.9565   -5.3014   -0.8904 H   0  0  0  0  0  0  0  0  0  0  0  0
   -0.7417   -2.9541    2.7024 H   0  0  0  0  0  0  0  0  0  0  0  0
   -4.6740   -5.1842    1.1475 H   0  0  0  0  0  0  0  0  0  0  0  0
   -4.8587   -7.5863    0.8606 H   0  0  0  0  0  0  0  0  0  0  0  0
   -7.3016   -7.0042   -2.6298 H   0  0  0  0  0  0  0  0  0  0  0  0
   -6.9375   -4.6006   -2.4981 H   0  0  0  0  0  0  0  0  0  0  0  0
  1  2  1  0  0  0  0
  1 69  1  0  0  0  0
  1 70  1  0  0  0  0
  1 71  1  0  0  0  0
  2 61  2  0  0  0  0
  2  3  1  0  0  0  0
  3  4  1  0  0  0  0
  3 51  2  0  0  0  0
  4  5  2  0  0  0  0
  4  6  1  0  0  0  0
  6  7  1  0  0  0  0
  6 72  1  0  0  0  0
  7  8  1  0  0  0  0
  7 73  1  0  0  0  0
  7 74  1  0  0  0  0
  8  9  1  0  0  0  0
  8 75  1  0  0  0  0
  8 76  1  0  0  0  0
  9 10  1  0  0  0  0
  9 77  1  0  0  0  0
  9 78  1  0  0  0  0
 10 11  1  0  0  0  0
 10 79  1  0  0  0  0
 10 80  1  0  0  0  0
 11 12  1  0  0  0  0
 11 81  1  0  0  0  0
 11 82  1  0  0  0  0
 12 13  1  0  0  0  0
 12 83  1  0  0  0  0
 12 84  1  0  0  0  0
 13 14  1  0  0  0  0
 13 85  1  0  0  0  0
 13 86  1  0  0  0  0
 14 15  1  0  0  0  0
 14 87  1  0  0  0  0
 14 88  1  0  0  0  0
 15 16  1  0  0  0  0
 15 89  1  0  0  0  0
 15 90  1  0  0  0  0
 16 17  1  0  0  0  0
 16 18  1  0  0  0  0
 17 91  1  0  0  0  0
 17 92  1  0  0  0  0
 17 93  1  0  0  0  0
 18 19  1  0  0  0  0
 18 94  1  0  0  0  0
 18 95  1  0  0  0  0
 19 20  1  0  0  0  0
 19 96  1  0  0  0  0
 19 97  1  0  0  0  0
 20 21  1  0  0  0  0
 20 98  1  0  0  0  0
 20 99  1  0  0  0  0
 21 22  1  0  0  0  0
 21100  1  0  0  0  0
 21101  1  0  0  0  0
 22 23  1  0  0  0  0
 22102  1  0  0  0  0
 22103  1  0  0  0  0
 23 24  1  0  0  0  0
 23104  1  0  0  0  0
 23105  1  0  0  0  0
 24 25  1  0  0  0  0
 24106  1  0  0  0  0
 24107  1  0  0  0  0
 25 26  1  0  0  0  0
 25108  1  0  0  0  0
 25109  1  0  0  0  0
 26 27  1  0  0  0  0
 26110  1  0  0  0  0
 26111  1  0  0  0  0
 27 28  1  0  0  0  0
 27112  1  0  0  0  0
 28 29  2  0  0  0  0
 28 30  1  0  0  0  0
 30 49  2  0  0  0  0
 30 31  1  0  0  0  0
 31 32  2  0  0  0  0
 31 50  1  0  0  0  0
 32 33  1  0  0  0  0
 32 40  1  0  0  0  0
 33 38  2  0  0  0  0
 33 34  1  0  0  0  0
 34 35  2  0  0  0  0
 34113  1  0  0  0  0
 35 36  1  0  0  0  0
 35114  1  0  0  0  0
 36 37  2  0  0  0  0
 36 39  1  0  0  0  0
 37 38  1  0  0  0  0
 37115  1  0  0  0  0
 38116  1  0  0  0  0
 40 41  1  0  0  0  0
 40 49  1  0  0  0  0
 41 46  2  0  0  0  0
 41 42  1  0  0  0  0
 42 43  2  0  0  0  0
 42117  1  0  0  0  0
 43 44  1  0  0  0  0
 43118  1  0  0  0  0
 44 45  2  0  0  0  0
 44 48  1  0  0  0  0
 45 46  1  0  0  0  0
 45119  1  0  0  0  0
 46 47  1  0  0  0  0
 50120  1  0  0  0  0
 50121  1  0  0  0  0
 50122  1  0  0  0  0
 51 52  1  0  0  0  0
 52 53  1  0  0  0  0
 52 61  1  0  0  0  0
 53 58  2  0  0  0  0
 53 54  1  0  0  0  0
 54 55  2  0  0  0  0
 54123  1  0  0  0  0
 55 56  1  0  0  0  0
 55124  1  0  0  0  0
 56 57  2  0  0  0  0
 56 60  1  0  0  0  0
 57 58  1  0  0  0  0
 57125  1  0  0  0  0
 58 59  1  0  0  0  0
 61 62  1  0  0  0  0
 62 67  2  0  0  0  0
 62 63  1  0  0  0  0
 63 64  2  0  0  0  0
 63126  1  0  0  0  0
 64 65  1  0  0  0  0
 64127  1  0  0  0  0
 65 66  2  0  0  0  0
 65 68  1  0  0  0  0
 66 67  1  0  0  0  0
 66128  1  0  0  0  0
 67129  1  0  0  0  0
M  END
$$$$
CHEMBL369205
 OpenBabel12022417373D

 48 51  0  0  0  0  0  0  0  0999 V2000
    1.1809    0.3138    0.1432 C   0  0  0  0  0  0  0  0  0  0  0  0
    2.6561    0.1147    0.0485 C   0  0  0  0  0  0  0  0  0  0  0  0
    3.6286    1.1046    0.0080 C   0  0  0  0  0  0  0  0  0  0  0  0
    3.4015    2.5660   -0.0053 C   0  0  0  0  0  0  0  0  0  0  0  0
    2.2836    3.0544   -0.1392 O   0  0  0  0  0  0  0  0  0  0  0  0
    4.5720    3.2988    0.1646 N   0  0  0  0  0  0  0  0  0  0  0  0
    4.6464    4.7104    0.1939 N   0  0  0  0  0  0  0  0  0  0  0  0
    4.2792    5.3792   -1.0558 C   0  0  0  0  0  0  0  0  0  0  0  0
    4.3182    6.8349   -0.6219 C   0  0  0  0  0  0  0  0  0  0  0  0
    3.6895    6.8064    0.7642 C   0  0  0  0  0  0  0  0  0  0  0  0
    3.8787    5.3694    1.2584 C   0  0  0  0  0  0  0  0  0  0  0  0
    4.8820    0.5305   -0.0064 N   0  0  0  0  0  0  0  0  0  0  0  0
    4.7145   -0.7843    0.0091 C   0  0  0  0  0  0  0  0  0  0  0  0
    5.8358   -1.7440   -0.1785 C   0  0  0  0  0  0  0  0  0  0  0  0
    5.6743   -2.8577   -1.0306 C   0  0  0  0  0  0  0  0  0  0  0  0
    6.6991   -3.7922   -1.2151 C   0  0  0  0  0  0  0  0  0  0  0  0
    7.9318   -3.5932   -0.6082 C   0  0  0  0  0  0  0  0  0  0  0  0
    8.1398   -2.4848    0.2056 C   0  0  0  0  0  0  0  0  0  0  0  0
    7.0931   -1.5702    0.4300 C   0  0  0  0  0  0  0  0  0  0  0  0
    7.4423   -0.2676    1.5177 Cl  0  0  0  0  0  0  0  0  0  0  0  0
    9.2010   -4.7260   -0.8645 Cl  0  0  0  0  0  0  0  0  0  0  0  0
    3.3436   -1.0989    0.1001 N   0  0  0  0  0  0  0  0  0  0  0  0
    2.7651   -2.4032    0.2309 C   0  0  0  0  0  0  0  0  0  0  0  0
    3.3769   -3.3739    1.0399 C   0  0  0  0  0  0  0  0  0  0  0  0
    2.8325   -4.6599    1.1341 C   0  0  0  0  0  0  0  0  0  0  0  0
    1.6601   -4.9709    0.4502 C   0  0  0  0  0  0  0  0  0  0  0  0
    1.0400   -4.0147   -0.3495 C   0  0  0  0  0  0  0  0  0  0  0  0
    1.6008   -2.7392   -0.4752 C   0  0  0  0  0  0  0  0  0  0  0  0
    0.9783   -6.5436    0.5880 Cl  0  0  0  0  0  0  0  0  0  0  0  0
    0.6199   -0.5798    0.4138 H   0  0  0  0  0  0  0  0  0  0  0  0
    0.7960    0.6886   -0.8115 H   0  0  0  0  0  0  0  0  0  0  0  0
    0.9486    1.0516    0.9184 H   0  0  0  0  0  0  0  0  0  0  0  0
    5.4346    2.7646    0.2549 H   0  0  0  0  0  0  0  0  0  0  0  0
    3.2706    5.1159   -1.3959 H   0  0  0  0  0  0  0  0  0  0  0  0
    4.9919    5.1801   -1.8612 H   0  0  0  0  0  0  0  0  0  0  0  0
    3.7858    7.5004   -1.3079 H   0  0  0  0  0  0  0  0  0  0  0  0
    5.3563    7.1854   -0.5500 H   0  0  0  0  0  0  0  0  0  0  0  0
    2.6213    7.0451    0.6956 H   0  0  0  0  0  0  0  0  0  0  0  0
    4.1569    7.5419    1.4274 H   0  0  0  0  0  0  0  0  0  0  0  0
    4.4305    5.3499    2.2036 H   0  0  0  0  0  0  0  0  0  0  0  0
    2.8950    4.9198    1.4313 H   0  0  0  0  0  0  0  0  0  0  0  0
    4.7369   -3.0265   -1.5603 H   0  0  0  0  0  0  0  0  0  0  0  0
    6.5232   -4.6649   -1.8417 H   0  0  0  0  0  0  0  0  0  0  0  0
    9.1109   -2.3300    0.6686 H   0  0  0  0  0  0  0  0  0  0  0  0
    4.2701   -3.1539    1.6207 H   0  0  0  0  0  0  0  0  0  0  0  0
    3.3246   -5.4109    1.7477 H   0  0  0  0  0  0  0  0  0  0  0  0
    0.1264   -4.2574   -0.8871 H   0  0  0  0  0  0  0  0  0  0  0  0
    1.1274   -2.0402   -1.1607 H   0  0  0  0  0  0  0  0  0  0  0  0
  1  2  1  0  0  0  0
  1 30  1  0  0  0  0
  1 31  1  0  0  0  0
  1 32  1  0  0  0  0
  2 22  1  0  0  0  0
  2  3  2  0  0  0  0
  3  4  1  0  0  0  0
  3 12  1  0  0  0  0
  4  5  2  0  0  0  0
  4  6  1  0  0  0  0
  6  7  1  0  0  0  0
  6 33  1  0  0  0  0
  7 11  1  0  0  0  0
  7  8  1  0  0  0  0
  8  9  1  0  0  0  0
  8 34  1  0  0  0  0
  8 35  1  0  0  0  0
  9 10  1  0  0  0  0
  9 36  1  0  0  0  0
  9 37  1  0  0  0  0
 10 11  1  0  0  0  0
 10 38  1  0  0  0  0
 10 39  1  0  0  0  0
 11 40  1  0  0  0  0
 11 41  1  0  0  0  0
 12 13  2  0  0  0  0
 13 14  1  0  0  0  0
 13 22  1  0  0  0  0
 14 19  2  0  0  0  0
 14 15  1  0  0  0  0
 15 16  2  0  0  0  0
 15 42  1  0  0  0  0
 16 17  1  0  0  0  0
 16 43  1  0  0  0  0
 17 18  2  0  0  0  0
 17 21  1  0  0  0  0
 18 19  1  0  0  0  0
 18 44  1  0  0  0  0
 19 20  1  0  0  0  0
 22 23  1  0  0  0  0
 23 28  2  0  0  0  0
 23 24  1  0  0  0  0
 24 25  2  0  0  0  0
 24 45  1  0  0  0  0
 25 26  1  0  0  0  0
 25 46  1  0  0  0  0
 26 27  2  0  0  0  0
 26 29  1  0  0  0  0
 27 28  1  0  0  0  0
 27 47  1  0  0  0  0
 28 48  1  0  0  0  0
M  END
$$$$
CHEMBL1269773
 OpenBabel12022417373D

 94 96  0  0  0  0  0  0  0  0999 V2000
    2.6079    0.1494    3.5958 C   0  0  0  0  0  0  0  0  0  0  0  0
    2.5819   -0.0147    2.1058 C   0  0  0  0  0  0  0  0  0  0  0  0
    2.4290    0.9911    1.0686 C   0  0  0  0  0  0  0  0  0  0  0  0
    2.1760    2.4940    1.2421 C   0  0  0  0  0  0  0  0  0  0  0  0
    2.0933    2.9911    2.3475 O   0  0  0  0  0  0  0  0  0  0  0  0
    2.0249    3.2716    0.0771 N   0  0  0  0  0  0  0  0  0  0  0  0
    1.7291    4.7250    0.0815 C   0  0  0  0  0  0  0  0  0  0  0  0
    0.2236    5.0516    0.0741 C   0  0  0  0  0  0  0  0  0  0  0  0
   -0.0697    6.5637    0.0702 C   0  0  0  0  0  0  0  0  0  0  0  0
   -1.5773    6.8406    0.0742 C   0  0  0  0  0  0  0  0  0  0  0  0
   -1.8675    8.3397    0.0763 C   0  0  0  0  0  0  0  0  0  0  0  0
   -3.3710    8.5955    0.0832 C   0  0  0  0  0  0  0  0  0  0  0  0
   -3.6574   10.0904    0.0872 C   0  0  0  0  0  0  0  0  0  0  0  0
   -5.1621   10.3441    0.0939 C   0  0  0  0  0  0  0  0  0  0  0  0
   -5.4244   11.8425    0.0968 C   0  0  0  0  0  0  0  0  0  0  0  0
   -6.8630   12.0755    0.1011 N   0  0  0  0  0  0  0  0  0  0  0  0
   -7.1224   13.5091    0.1049 C   0  0  0  0  0  0  0  0  0  0  0  0
   -8.6229   13.7485    0.1122 C   0  0  0  0  0  0  0  0  0  0  0  0
   -8.9032   15.2439    0.1143 C   0  0  0  0  0  0  0  0  0  0  0  0
  -10.4005   15.4982    0.1212 C   0  0  0  0  0  0  0  0  0  0  0  0
  -10.6782   16.9923    0.1218 C   0  0  0  0  0  0  0  0  0  0  0  0
  -12.1771   17.2447    0.1288 C   0  0  0  0  0  0  0  0  0  0  0  0
  -12.4591   18.7391    0.1275 C   0  0  0  0  0  0  0  0  0  0  0  0
  -13.9606   18.9950    0.1345 C   0  0  0  0  0  0  0  0  0  0  0  0
  -14.2435   20.4907    0.1355 C   0  0  0  0  0  0  0  0  0  0  0  0
  -15.6813   20.7194    0.1420 N   0  0  0  0  0  0  0  0  0  0  0  0
    2.5578    0.4149   -0.1403 N   0  0  0  0  0  0  0  0  0  0  0  0
    2.6791   -0.9239    0.0694 N   0  0  0  0  0  0  0  0  0  0  0  0
    2.6453   -1.8743   -1.0121 C   0  0  0  0  0  0  0  0  0  0  0  0
    1.9561   -3.1061   -0.8816 C   0  0  0  0  0  0  0  0  0  0  0  0
    1.8994   -4.0355   -1.9288 C   0  0  0  0  0  0  0  0  0  0  0  0
    2.5321   -3.7468   -3.1329 C   0  0  0  0  0  0  0  0  0  0  0  0
    3.2290   -2.5488   -3.2816 C   0  0  0  0  0  0  0  0  0  0  0  0
    3.3066   -1.6229   -2.2279 C   0  0  0  0  0  0  0  0  0  0  0  0
    4.3617   -0.2788   -2.4903 Cl  0  0  0  0  0  0  0  0  0  0  0  0
    2.4283   -4.8507   -4.4448 Cl  0  0  0  0  0  0  0  0  0  0  0  0
    2.7532   -1.2274    1.4446 C   0  0  0  0  0  0  0  0  0  0  0  0
    3.0646   -2.5668    1.9934 C   0  0  0  0  0  0  0  0  0  0  0  0
    3.9009   -3.4516    1.3067 C   0  0  0  0  0  0  0  0  0  0  0  0
    4.1481   -4.7349    1.7898 C   0  0  0  0  0  0  0  0  0  0  0  0
    3.6203   -5.1128    3.0101 C   0  0  0  0  0  0  0  0  0  0  0  0
    2.8256   -4.2421    3.7424 C   0  0  0  0  0  0  0  0  0  0  0  0
    2.5159   -2.9916    3.2125 C   0  0  0  0  0  0  0  0  0  0  0  0
    3.9469   -6.6857    3.6318 Cl  0  0  0  0  0  0  0  0  0  0  0  0
    2.8389   -0.7825    4.1107 H   0  0  0  0  0  0  0  0  0  0  0  0
    1.6335    0.4624    3.9796 H   0  0  0  0  0  0  0  0  0  0  0  0
    3.4118    0.7988    3.9397 H   0  0  0  0  0  0  0  0  0  0  0  0
    2.1472    2.8029   -0.8135 H   0  0  0  0  0  0  0  0  0  0  0  0
    2.1940    5.1701   -0.8076 H   0  0  0  0  0  0  0  0  0  0  0  0
    2.1956    5.1885    0.9591 H   0  0  0  0  0  0  0  0  0  0  0  0
   -0.2507    4.6026    0.9540 H   0  0  0  0  0  0  0  0  0  0  0  0
   -0.2470    4.6017   -0.8080 H   0  0  0  0  0  0  0  0  0  0  0  0
    0.3764    7.0359   -0.8144 H   0  0  0  0  0  0  0  0  0  0  0  0
    0.3820    7.0385    0.9501 H   0  0  0  0  0  0  0  0  0  0  0  0
   -2.0383    6.3818    0.9577 H   0  0  0  0  0  0  0  0  0  0  0  0
   -2.0436    6.3834   -0.8074 H   0  0  0  0  0  0  0  0  0  0  0  0
   -1.4196    8.8090   -0.8079 H   0  0  0  0  0  0  0  0  0  0  0  0
   -1.4119    8.8078    0.9576 H   0  0  0  0  0  0  0  0  0  0  0  0
   -3.8243    8.1313    0.9672 H   0  0  0  0  0  0  0  0  0  0  0  0
   -3.8315    8.1344   -0.7988 H   0  0  0  0  0  0  0  0  0  0  0  0
   -3.2040   10.5579   -0.7949 H   0  0  0  0  0  0  0  0  0  0  0  0
   -3.1991   10.5533    0.9698 H   0  0  0  0  0  0  0  0  0  0  0  0
   -5.6140    9.8769    0.9753 H   0  0  0  0  0  0  0  0  0  0  0  0
   -5.6166    9.8837   -0.7915 H   0  0  0  0  0  0  0  0  0  0  0  0
   -4.9736   12.2942   -0.7939 H   0  0  0  0  0  0  0  0  0  0  0  0
   -4.9616   12.2961    0.9810 H   0  0  0  0  0  0  0  0  0  0  0  0
   -7.2807   11.6452    0.9263 H   0  0  0  0  0  0  0  0  0  0  0  0
   -6.6846   13.9724   -0.7874 H   0  0  0  0  0  0  0  0  0  0  0  0
   -6.6706   13.9767    0.9881 H   0  0  0  0  0  0  0  0  0  0  0  0
   -9.0774   13.2863    0.9976 H   0  0  0  0  0  0  0  0  0  0  0  0
   -9.0842   13.2863   -0.7699 H   0  0  0  0  0  0  0  0  0  0  0  0
   -8.4508   15.7101   -0.7699 H   0  0  0  0  0  0  0  0  0  0  0  0
   -8.4431   15.7085    0.9954 H   0  0  0  0  0  0  0  0  0  0  0  0
  -10.8525   15.0349    1.0068 H   0  0  0  0  0  0  0  0  0  0  0  0
  -10.8609   15.0340   -0.7594 H   0  0  0  0  0  0  0  0  0  0  0  0
  -10.2257   17.4557   -0.7636 H   0  0  0  0  0  0  0  0  0  0  0  0
  -10.2173   17.4568    1.0022 H   0  0  0  0  0  0  0  0  0  0  0  0
  -12.6272   16.7804    1.0149 H   0  0  0  0  0  0  0  0  0  0  0  0
  -12.6362   16.7771   -0.7509 H   0  0  0  0  0  0  0  0  0  0  0  0
  -12.0056   19.2000   -0.7586 H   0  0  0  0  0  0  0  0  0  0  0  0
  -11.9967   19.2034    1.0072 H   0  0  0  0  0  0  0  0  0  0  0  0
  -14.4079   18.5258    1.0201 H   0  0  0  0  0  0  0  0  0  0  0  0
  -14.4154   18.5232   -0.7459 H   0  0  0  0  0  0  0  0  0  0  0  0
  -13.7991   20.9599   -0.7493 H   0  0  0  0  0  0  0  0  0  0  0  0
  -13.7974   20.9565    1.0207 H   0  0  0  0  0  0  0  0  0  0  0  0
  -16.0928   20.3171   -0.6994 H   0  0  0  0  0  0  0  0  0  0  0  0
  -15.8627   21.7203    0.1023 H   0  0  0  0  0  0  0  0  0  0  0  0
    1.4495   -3.3826    0.0456 H   0  0  0  0  0  0  0  0  0  0  0  0
    1.3554   -4.9698   -1.8097 H   0  0  0  0  0  0  0  0  0  0  0  0
    3.7169   -2.3348   -4.2341 H   0  0  0  0  0  0  0  0  0  0  0  0
    4.3500   -3.1872    0.3558 H   0  0  0  0  0  0  0  0  0  0  0  0
    4.7567   -5.4143    1.2003 H   0  0  0  0  0  0  0  0  0  0  0  0
    2.4461   -4.5120    4.7225 H   0  0  0  0  0  0  0  0  0  0  0  0
    1.8422   -2.3728    3.7967 H   0  0  0  0  0  0  0  0  0  0  0  0
  1  2  1  0  0  0  0
  1 45  1  0  0  0  0
  1 46  1  0  0  0  0
  1 47  1  0  0  0  0
  2 37  2  0  0  0  0
  2  3  1  0  0  0  0
  3  4  1  0  0  0  0
  3 27  2  0  0  0  0
  4  5  2  0  0  0  0
  4  6  1  0  0  0  0
  6  7  1  0  0  0  0
  6 48  1  0  0  0  0
  7  8  1  0  0  0  0
  7 49  1  0  0  0  0
  7 50  1  0  0  0  0
  8  9  1  0  0  0  0
  8 51  1  0  0  0  0
  8 52  1  0  0  0  0
  9 10  1  0  0  0  0
  9 53  1  0  0  0  0
  9 54  1  0  0  0  0
 10 11  1  0  0  0  0
 10 55  1  0  0  0  0
 10 56  1  0  0  0  0
 11 12  1  0  0  0  0
 11 57  1  0  0  0  0
 11 58  1  0  0  0  0
 12 13  1  0  0  0  0
 12 59  1  0  0  0  0
 12 60  1  0  0  0  0
 13 14  1  0  0  0  0
 13 61  1  0  0  0  0
 13 62  1  0  0  0  0
 14 15  1  0  0  0  0
 14 63  1  0  0  0  0
 14 64  1  0  0  0  0
 15 16  1  0  0  0  0
 15 65  1  0  0  0  0
 15 66  1  0  0  0  0
 16 17  1  0  0  0  0
 16 67  1  0  0  0  0
 17 18  1  0  0  0  0
 17 68  1  0  0  0  0
 17 69  1  0  0  0  0
 18 19  1  0  0  0  0
 18 70  1  0  0  0  0
 18 71  1  0  0  0  0
 19 20  1  0  0  0  0
 19 72  1  0  0  0  0
 19 73  1  0  0  0  0
 20 21  1  0  0  0  0
 20 74  1  0  0  0  0
 20 75  1  0  0  0  0
 21 22  1  0  0  0  0
 21 76  1  0  0  0  0
 21 77  1  0  0  0  0
 22 23  1  0  0  0  0
 22 78  1  0  0  0  0
 22 79  1  0  0  0  0
 23 24  1  0  0  0  0
 23 80  1  0  0  0  0
 23 81  1  0  0  0  0
 24 25  1  0  0  0  0
 24 82  1  0  0  0  0
 24 83  1  0  0  0  0
 25 26  1  0  0  0  0
 25 84  1  0  0  0  0
 25 85  1  0  0  0  0
 26 86  1  0  0  0  0
 26 87  1  0  0  0  0
 27 28  1  0  0  0  0
 28 29  1  0  0  0  0
 28 37  1  0  0  0  0
 29 34  2  0  0  0  0
 29 30  1  0  0  0  0
 30 31  2  0  0  0  0
 30 88  1  0  0  0  0
 31 32  1  0  0  0  0
 31 89  1  0  0  0  0
 32 33  2  0  0  0  0
 32 36  1  0  0  0  0
 33 34  1  0  0  0  0
 33 90  1  0  0  0  0
 34 35  1  0  0  0  0
 37 38  1  0  0  0  0
 38 43  2  0  0  0  0
 38 39  1  0  0  0  0
 39 40  2  0  0  0  0
 39 91  1  0  0  0  0
 40 41  1  0  0  0  0
 40 92  1  0  0  0  0
 41 42  2  0  0  0  0
 41 44  1  0  0  0  0
 42 43  1  0  0  0  0
 42 93  1  0  0  0  0
 43 94  1  0  0  0  0
M  END
$$$$
CHEMBL175478
 OpenBabel12022417373D

 54 57  0  0  0  0  0  0  0  0999 V2000
    1.0847    0.2977    0.1769 C   0  0  0  0  0  0  0  0  0  0  0  0
    2.5590    0.0920    0.0955 C   0  0  0  0  0  0  0  0  0  0  0  0
    3.5464    1.0682    0.0983 C   0  0  0  0  0  0  0  0  0  0  0  0
    3.3729    2.5403    0.1647 C   0  0  0  0  0  0  0  0  0  0  0  0
    2.2718    3.0807    0.0803 O   0  0  0  0  0  0  0  0  0  0  0  0
    4.5790    3.2203    0.3505 N   0  0  0  0  0  0  0  0  0  0  0  0
    4.7073    4.6401    0.4617 N   0  0  0  0  0  0  0  0  0  0  0  0
    4.4797    5.3424   -0.8001 C   0  0  0  0  0  0  0  0  0  0  0  0
    5.3704    6.5876   -0.9331 C   0  0  0  0  0  0  0  0  0  0  0  0
    4.8947    7.8301   -0.1875 C   0  0  0  0  0  0  0  0  0  0  0  0
    4.7411    7.6494    1.3162 C   0  0  0  0  0  0  0  0  0  0  0  0
    3.6394    6.6600    1.6738 C   0  0  0  0  0  0  0  0  0  0  0  0
    4.0654    5.1840    1.6629 C   0  0  0  0  0  0  0  0  0  0  0  0
    4.7887    0.4743    0.0553 N   0  0  0  0  0  0  0  0  0  0  0  0
    4.6056   -0.8359    0.0448 C   0  0  0  0  0  0  0  0  0  0  0  0
    5.7173   -1.8019   -0.1383 C   0  0  0  0  0  0  0  0  0  0  0  0
    5.5671   -2.9066   -1.0027 C   0  0  0  0  0  0  0  0  0  0  0  0
    6.5897   -3.8455   -1.1748 C   0  0  0  0  0  0  0  0  0  0  0  0
    7.8095   -3.6605   -0.5368 C   0  0  0  0  0  0  0  0  0  0  0  0
    8.0066   -2.5602    0.2898 C   0  0  0  0  0  0  0  0  0  0  0  0
    6.9654   -1.6436    0.5002 C   0  0  0  0  0  0  0  0  0  0  0  0
    7.2965   -0.3571    1.6129 Cl  0  0  0  0  0  0  0  0  0  0  0  0
    9.0789   -4.7958   -0.7746 Cl  0  0  0  0  0  0  0  0  0  0  0  0
    3.2304   -1.1394    0.1286 N   0  0  0  0  0  0  0  0  0  0  0  0
    2.6419   -2.4427    0.2561 C   0  0  0  0  0  0  0  0  0  0  0  0
    3.2550   -3.4207    1.0550 C   0  0  0  0  0  0  0  0  0  0  0  0
    2.7053   -4.7030    1.1595 C   0  0  0  0  0  0  0  0  0  0  0  0
    1.5212   -5.0087    0.4929 C   0  0  0  0  0  0  0  0  0  0  0  0
    0.8976   -4.0490   -0.3000 C   0  0  0  0  0  0  0  0  0  0  0  0
    1.4702   -2.7771   -0.4339 C   0  0  0  0  0  0  0  0  0  0  0  0
    0.8301   -6.5766    0.6453 Cl  0  0  0  0  0  0  0  0  0  0  0  0
    0.5202   -0.5925    0.4554 H   0  0  0  0  0  0  0  0  0  0  0  0
    0.7069    0.6568   -0.7878 H   0  0  0  0  0  0  0  0  0  0  0  0
    0.8441    1.0459    0.9378 H   0  0  0  0  0  0  0  0  0  0  0  0
    5.4233    2.6491    0.3856 H   0  0  0  0  0  0  0  0  0  0  0  0
    3.4221    5.5822   -0.9603 H   0  0  0  0  0  0  0  0  0  0  0  0
    4.7714    4.6813   -1.6274 H   0  0  0  0  0  0  0  0  0  0  0  0
    5.4370    6.8494   -1.9971 H   0  0  0  0  0  0  0  0  0  0  0  0
    6.3955    6.3489   -0.6196 H   0  0  0  0  0  0  0  0  0  0  0  0
    3.9438    8.1711   -0.6163 H   0  0  0  0  0  0  0  0  0  0  0  0
    5.6145    8.6394   -0.3676 H   0  0  0  0  0  0  0  0  0  0  0  0
    4.4757    8.6271    1.7411 H   0  0  0  0  0  0  0  0  0  0  0  0
    5.6940    7.3601    1.7733 H   0  0  0  0  0  0  0  0  0  0  0  0
    2.7693    6.8096    1.0226 H   0  0  0  0  0  0  0  0  0  0  0  0
    3.2946    6.8925    2.6900 H   0  0  0  0  0  0  0  0  0  0  0  0
    4.7607    5.0302    2.4980 H   0  0  0  0  0  0  0  0  0  0  0  0
    3.1659    4.6123    1.9170 H   0  0  0  0  0  0  0  0  0  0  0  0
    4.6394   -3.0656   -1.5493 H   0  0  0  0  0  0  0  0  0  0  0  0
    6.4257   -4.7116   -1.8121 H   0  0  0  0  0  0  0  0  0  0  0  0
    8.9677   -2.4167    0.7779 H   0  0  0  0  0  0  0  0  0  0  0  0
    4.1581   -3.2090    1.6259 H   0  0  0  0  0  0  0  0  0  0  0  0
    3.2036   -5.4586    1.7634 H   0  0  0  0  0  0  0  0  0  0  0  0
   -0.0239   -4.2857   -0.8247 H   0  0  0  0  0  0  0  0  0  0  0  0
    0.9867   -2.0733   -1.1101 H   0  0  0  0  0  0  0  0  0  0  0  0
  1  2  1  0  0  0  0
  1 32  1  0  0  0  0
  1 33  1  0  0  0  0
  1 34  1  0  0  0  0
  2 24  1  0  0  0  0
  2  3  2  0  0  0  0
  3  4  1  0  0  0  0
  3 14  1  0  0  0  0
  4  5  2  0  0  0  0
  4  6  1  0  0  0  0
  6  7  1  0  0  0  0
  6 35  1  0  0  0  0
  7 13  1  0  0  0  0
  7  8  1  0  0  0  0
  8  9  1  0  0  0  0
  8 36  1  0  0  0  0
  8 37  1  0  0  0  0
  9 10  1  0  0  0  0
  9 38  1  0  0  0  0
  9 39  1  0  0  0  0
 10 11  1  0  0  0  0
 10 40  1  0  0  0  0
 10 41  1  0  0  0  0
 11 12  1  0  0  0  0
 11 42  1  0  0  0  0
 11 43  1  0  0  0  0
 12 13  1  0  0  0  0
 12 44  1  0  0  0  0
 12 45  1  0  0  0  0
 13 46  1  0  0  0  0
 13 47  1  0  0  0  0
 14 15  2  0  0  0  0
 15 16  1  0  0  0  0
 15 24  1  0  0  0  0
 16 21  2  0  0  0  0
 16 17  1  0  0  0  0
 17 18  2  0  0  0  0
 17 48  1  0  0  0  0
 18 19  1  0  0  0  0
 18 49  1  0  0  0  0
 19 20  2  0  0  0  0
 19 23  1  0  0  0  0
 20 21  1  0  0  0  0
 20 50  1  0  0  0  0
 21 22  1  0  0  0  0
 24 25  1  0  0  0  0
 25 30  2  0  0  0  0
 25 26  1  0  0  0  0
 26 27  2  0  0  0  0
 26 51  1  0  0  0  0
 27 28  1  0  0  0  0
 27 52  1  0  0  0  0
 28 29  2  0  0  0  0
 28 31  1  0  0  0  0
 29 30  1  0  0  0  0
 29 53  1  0  0  0  0
 30 54  1  0  0  0  0
M  END
$$$$
CHEMBL177393
 OpenBabel12022417373D

 53 57  0  0  1  0  0  0  0  0999 V2000
    2.1691    2.5015    0.9720 C   0  0  0  0  0  0  0  0  0  0  0  0
    2.4308    1.8177   -0.3280 C   0  0  0  0  0  0  0  0  0  0  0  0
    2.5471    2.3848   -1.5908 C   0  0  0  0  0  0  0  0  0  0  0  0
    2.3158    3.8038   -1.9489 C   0  0  0  0  0  0  0  0  0  0  0  0
    1.8714    4.6230   -1.1525 O   0  0  0  0  0  0  0  0  0  0  0  0
    2.6444    4.1395   -3.2556 N   0  0  0  0  0  0  0  0  0  0  0  0
    2.6069    5.5194   -3.7440 C   0  0  1  0  0  0  0  0  0  0  0  0
    3.0957    5.6419   -5.2076 C   0  0  0  0  0  0  0  0  0  0  0  0
    1.9110    6.3115   -5.9359 C   0  0  2  0  0  0  0  0  0  0  0  0
    1.7862    7.7801   -5.4924 C   0  0  0  0  0  0  0  0  0  0  0  0
    1.2958    7.6494   -4.0405 C   0  0  0  0  0  0  0  0  0  0  0  0
    1.1762    6.1209   -3.8419 C   0  0  1  0  0  0  0  0  0  0  0  0
    0.7147    5.6763   -5.2310 C   0  0  0  0  0  0  0  0  0  0  0  0
    2.9111    1.4122   -2.5002 N   0  0  0  0  0  0  0  0  0  0  0  0
    2.9379    0.2531   -1.8536 C   0  0  0  0  0  0  0  0  0  0  0  0
    3.0647   -1.0534   -2.5487 C   0  0  0  0  0  0  0  0  0  0  0  0
    2.1914   -2.1121   -2.2215 C   0  0  0  0  0  0  0  0  0  0  0  0
    2.3026   -3.3696   -2.8215 C   0  0  0  0  0  0  0  0  0  0  0  0
    3.2368   -3.5689   -3.8281 C   0  0  0  0  0  0  0  0  0  0  0  0
    4.0776   -2.5307   -4.2165 C   0  0  0  0  0  0  0  0  0  0  0  0
    4.0050   -1.2850   -3.5719 C   0  0  0  0  0  0  0  0  0  0  0  0
    5.1523   -0.0912   -4.0778 Cl  0  0  0  0  0  0  0  0  0  0  0  0
    3.3440   -5.1018   -4.5994 Cl  0  0  0  0  0  0  0  0  0  0  0  0
    2.6691    0.4507   -0.4835 N   0  0  0  0  0  0  0  0  0  0  0  0
    2.5785   -0.5588    0.5414 C   0  0  0  0  0  0  0  0  0  0  0  0
    3.4363   -1.6702    0.5448 C   0  0  0  0  0  0  0  0  0  0  0  0
    3.2492   -2.7099    1.4667 C   0  0  0  0  0  0  0  0  0  0  0  0
    2.2404   -2.6226    2.4224 C   0  0  0  0  0  0  0  0  0  0  0  0
    1.4097   -1.5074    2.4597 C   0  0  0  0  0  0  0  0  0  0  0  0
    1.5662   -0.4873    1.5134 C   0  0  0  0  0  0  0  0  0  0  0  0
    2.0060   -3.9028    3.5469 Cl  0  0  0  0  0  0  0  0  0  0  0  0
    2.5718    1.9510    1.8265 H   0  0  0  0  0  0  0  0  0  0  0  0
    1.0915    2.6402    1.1141 H   0  0  0  0  0  0  0  0  0  0  0  0
    2.6461    3.4854    1.0036 H   0  0  0  0  0  0  0  0  0  0  0  0
    3.2013    3.4420   -3.7400 H   0  0  0  0  0  0  0  0  0  0  0  0
    3.2348    6.1154   -3.0712 H   0  0  0  0  0  0  0  0  0  0  0  0
    3.3036    4.6620   -5.6511 H   0  0  0  0  0  0  0  0  0  0  0  0
    4.0045    6.2489   -5.2800 H   0  0  0  0  0  0  0  0  0  0  0  0
    1.9389    6.1929   -7.0212 H   0  0  0  0  0  0  0  0  0  0  0  0
    1.0434    8.3080   -6.0954 H   0  0  0  0  0  0  0  0  0  0  0  0
    2.7346    8.3250   -5.5617 H   0  0  0  0  0  0  0  0  0  0  0  0
    0.3191    8.1363   -3.9357 H   0  0  0  0  0  0  0  0  0  0  0  0
    1.9853    8.1174   -3.3309 H   0  0  0  0  0  0  0  0  0  0  0  0
    0.5011    5.8488   -3.0290 H   0  0  0  0  0  0  0  0  0  0  0  0
    0.6702    4.5900   -5.3527 H   0  0  0  0  0  0  0  0  0  0  0  0
   -0.2416    6.1187   -5.5320 H   0  0  0  0  0  0  0  0  0  0  0  0
    1.4154   -1.9817   -1.4695 H   0  0  0  0  0  0  0  0  0  0  0  0
    1.6514   -4.1792   -2.4998 H   0  0  0  0  0  0  0  0  0  0  0  0
    4.7949   -2.6907   -5.0182 H   0  0  0  0  0  0  0  0  0  0  0  0
    4.2548   -1.7616   -0.1651 H   0  0  0  0  0  0  0  0  0  0  0  0
    3.8893   -3.5886    1.4282 H   0  0  0  0  0  0  0  0  0  0  0  0
    0.6219   -1.4343    3.2062 H   0  0  0  0  0  0  0  0  0  0  0  0
    0.8432    0.3240    1.5290 H   0  0  0  0  0  0  0  0  0  0  0  0
  1  2  1  0  0  0  0
  1 32  1  0  0  0  0
  1 33  1  0  0  0  0
  1 34  1  0  0  0  0
  2 24  1  0  0  0  0
  2  3  2  0  0  0  0
  3  4  1  0  0  0  0
  3 14  1  0  0  0  0
  4  5  2  0  0  0  0
  4  6  1  0  0  0  0
  6 35  1  0  0  0  0
  7  8  1  0  0  0  0
  7 12  1  0  0  0  0
  7  6  1  0  0  0  0
  7 36  1  1  0  0  0
  8 37  1  0  0  0  0
  8 38  1  0  0  0  0
  9  8  1  0  0  0  0
  9 10  1  0  0  0  0
  9 13  1  0  0  0  0
  9 39  1  6  0  0  0
 10 11  1  0  0  0  0
 10 40  1  0  0  0  0
 10 41  1  0  0  0  0
 11 42  1  0  0  0  0
 11 43  1  0  0  0  0
 12 11  1  0  0  0  0
 12 13  1  0  0  0  0
 12 44  1  1  0  0  0
 13 45  1  0  0  0  0
 13 46  1  0  0  0  0
 14 15  2  0  0  0  0
 15 16  1  0  0  0  0
 15 24  1  0  0  0  0
 16 21  2  0  0  0  0
 16 17  1  0  0  0  0
 17 18  2  0  0  0  0
 17 47  1  0  0  0  0
 18 19  1  0  0  0  0
 18 48  1  0  0  0  0
 19 20  2  0  0  0  0
 19 23  1  0  0  0  0
 20 21  1  0  0  0  0
 20 49  1  0  0  0  0
 21 22  1  0  0  0  0
 24 25  1  0  0  0  0
 25 30  2  0  0  0  0
 25 26  1  0  0  0  0
 26 27  2  0  0  0  0
 26 50  1  0  0  0  0
 27 28  1  0  0  0  0
 27 51  1  0  0  0  0
 28 29  2  0  0  0  0
 28 31  1  0  0  0  0
 29 30  1  0  0  0  0
 29 52  1  0  0  0  0
 30 53  1  0  0  0  0
M  END
$$$$
CHEMBL482153
 OpenBabel12022417373D

 48 51  0  0  0  0  0  0  0  0999 V2000
    4.0630    0.8884   -1.6405 O   0  0  0  0  0  0  0  0  0  0  0  0
    2.8901    0.9709   -1.2788 C   0  0  0  0  0  0  0  0  0  0  0  0
    2.5166    1.4338    0.1153 C   0  0  0  0  0  0  0  0  0  0  0  0
    1.7432    2.6585    0.1076 N   0  0  0  0  0  0  0  0  0  0  0  0
    0.3968    2.6385    0.0647 N   0  0  0  0  0  0  0  0  0  0  0  0
    0.0856    3.9457    0.1738 C   0  0  0  0  0  0  0  0  0  0  0  0
   -1.3110    4.4052    0.1521 C   0  0  0  0  0  0  0  0  0  0  0  0
   -1.6588    5.4733   -0.6969 C   0  0  0  0  0  0  0  0  0  0  0  0
   -2.9569    5.9922   -0.7151 C   0  0  0  0  0  0  0  0  0  0  0  0
   -3.9421    5.4167    0.0776 C   0  0  0  0  0  0  0  0  0  0  0  0
   -3.6343    4.3459    0.9115 C   0  0  0  0  0  0  0  0  0  0  0  0
   -2.3217    3.8498    0.9624 C   0  0  0  0  0  0  0  0  0  0  0  0
   -2.0261    2.5861    2.1102 Cl  0  0  0  0  0  0  0  0  0  0  0  0
   -5.5449    6.0381    0.0299 Cl  0  0  0  0  0  0  0  0  0  0  0  0
    1.3134    4.7085    0.2305 C   0  0  0  0  0  0  0  0  0  0  0  0
    1.5424    6.1623    0.2327 C   0  0  0  0  0  0  0  0  0  0  0  0
    0.6481    7.0043    0.9216 C   0  0  0  0  0  0  0  0  0  0  0  0
    0.7409    8.3971    0.8238 C   0  0  0  0  0  0  0  0  0  0  0  0
    1.7707    8.9715    0.0886 C   0  0  0  0  0  0  0  0  0  0  0  0
    2.7105    8.1678   -0.5446 C   0  0  0  0  0  0  0  0  0  0  0  0
    2.5944    6.7715   -0.4878 C   0  0  0  0  0  0  0  0  0  0  0  0
    3.7714    5.8937   -1.4103 Cl  0  0  0  0  0  0  0  0  0  0  0  0
    1.8722   10.6818   -0.0527 Cl  0  0  0  0  0  0  0  0  0  0  0  0
    2.3384    3.8438    0.2833 N   0  0  0  0  0  0  0  0  0  0  0  0
    1.8413    0.5454   -2.0621 N   0  0  0  0  0  0  0  0  0  0  0  0
    2.0475   -0.0607   -3.3605 C   0  0  0  0  0  0  0  0  0  0  0  0
    1.3260    0.7039   -4.4446 C   0  0  0  0  0  0  0  0  0  0  0  0
    1.7189    2.0133   -4.7671 C   0  0  0  0  0  0  0  0  0  0  0  0
    1.0608    2.7310   -5.7699 C   0  0  0  0  0  0  0  0  0  0  0  0
    0.0057    2.1455   -6.4654 C   0  0  0  0  0  0  0  0  0  0  0  0
   -0.3769    0.8460   -6.1564 C   0  0  0  0  0  0  0  0  0  0  0  0
    0.2704    0.1213   -5.1594 C   0  0  0  0  0  0  0  0  0  0  0  0
   -1.3855    0.2783   -6.8322 F   0  0  0  0  0  0  0  0  0  0  0  0
    3.4296    1.6149    0.6922 H   0  0  0  0  0  0  0  0  0  0  0  0
    1.9372    0.6571    0.6260 H   0  0  0  0  0  0  0  0  0  0  0  0
   -0.9153    5.9302   -1.3474 H   0  0  0  0  0  0  0  0  0  0  0  0
   -3.1878    6.8433   -1.3523 H   0  0  0  0  0  0  0  0  0  0  0  0
   -4.4123    3.9050    1.5310 H   0  0  0  0  0  0  0  0  0  0  0  0
   -0.1559    6.5911    1.5275 H   0  0  0  0  0  0  0  0  0  0  0  0
    0.0011    9.0239    1.3165 H   0  0  0  0  0  0  0  0  0  0  0  0
    3.5229    8.6240   -1.1056 H   0  0  0  0  0  0  0  0  0  0  0  0
    0.8850    0.7026   -1.7553 H   0  0  0  0  0  0  0  0  0  0  0  0
    1.6594   -1.0828   -3.2929 H   0  0  0  0  0  0  0  0  0  0  0  0
    3.1103   -0.1333   -3.6119 H   0  0  0  0  0  0  0  0  0  0  0  0
    2.5494    2.4774   -4.2358 H   0  0  0  0  0  0  0  0  0  0  0  0
    1.3775    3.7432   -6.0086 H   0  0  0  0  0  0  0  0  0  0  0  0
   -0.5153    2.6887   -7.2474 H   0  0  0  0  0  0  0  0  0  0  0  0
   -0.0560   -0.8947   -4.9574 H   0  0  0  0  0  0  0  0  0  0  0  0
  1  2  2  0  0  0  0
  2  3  1  0  0  0  0
  2 25  1  0  0  0  0
  3  4  1  0  0  0  0
  3 34  1  0  0  0  0
  3 35  1  0  0  0  0
  4 24  1  0  0  0  0
  4  5  1  0  0  0  0
  5  6  2  0  0  0  0
  6  7  1  0  0  0  0
  6 15  1  0  0  0  0
  7 12  2  0  0  0  0
  7  8  1  0  0  0  0
  8  9  2  0  0  0  0
  8 36  1  0  0  0  0
  9 10  1  0  0  0  0
  9 37  1  0  0  0  0
 10 11  2  0  0  0  0
 10 14  1  0  0  0  0
 11 12  1  0  0  0  0
 11 38  1  0  0  0  0
 12 13  1  0  0  0  0
 15 16  1  0  0  0  0
 15 24  2  0  0  0  0
 16 21  2  0  0  0  0
 16 17  1  0  0  0  0
 17 18  2  0  0  0  0
 17 39  1  0  0  0  0
 18 19  1  0  0  0  0
 18 40  1  0  0  0  0
 19 20  2  0  0  0  0
 19 23  1  0  0  0  0
 20 21  1  0  0  0  0
 20 41  1  0  0  0  0
 21 22  1  0  0  0  0
 25 26  1  0  0  0  0
 25 42  1  0  0  0  0
 26 27  1  0  0  0  0
 26 43  1  0  0  0  0
 26 44  1  0  0  0  0
 27 32  2  0  0  0  0
 27 28  1  0  0  0  0
 28 29  2  0  0  0  0
 28 45  1  0  0  0  0
 29 30  1  0  0  0  0
 29 46  1  0  0  0  0
 30 31  2  0  0  0  0
 30 47  1  0  0  0  0
 31 32  1  0  0  0  0
 31 33  1  0  0  0  0
 32 48  1  0  0  0  0
M  END
$$$$
CHEMBL175368
 OpenBabel12022417373D

 51 54  0  0  0  0  0  0  0  0999 V2000
    1.1638    0.4852    0.1128 C   0  0  0  0  0  0  0  0  0  0  0  0
    2.6379    0.2806   -0.0015 C   0  0  0  0  0  0  0  0  0  0  0  0
    3.6181    1.2589   -0.0830 C   0  0  0  0  0  0  0  0  0  0  0  0
    3.4260    2.7323   -0.1272 C   0  0  0  0  0  0  0  0  0  0  0  0
    2.3195    3.2491   -0.1962 O   0  0  0  0  0  0  0  0  0  0  0  0
    4.6352    3.4251   -0.0786 N   0  0  0  0  0  0  0  0  0  0  0  0
    4.7694    4.8440   -0.0652 N   0  0  0  0  0  0  0  0  0  0  0  0
    4.3860    5.4743   -1.3365 C   0  0  0  0  0  0  0  0  0  0  0  0
    4.7541    6.9640   -1.3396 C   0  0  0  0  0  0  0  0  0  0  0  0
    4.1431    7.6980   -0.1498 C   0  0  0  0  0  0  0  0  0  0  0  0
    4.4743    6.9757    1.1530 C   0  0  0  0  0  0  0  0  0  0  0  0
    4.1131    5.4872    1.0818 C   0  0  0  0  0  0  0  0  0  0  0  0
    4.8638    0.6708   -0.1015 N   0  0  0  0  0  0  0  0  0  0  0  0
    4.6865   -0.6408   -0.0385 C   0  0  0  0  0  0  0  0  0  0  0  0
    5.8021   -1.6087   -0.1957 C   0  0  0  0  0  0  0  0  0  0  0  0
    5.6418   -2.7505   -1.0075 C   0  0  0  0  0  0  0  0  0  0  0  0
    6.6669   -3.6889   -1.1650 C   0  0  0  0  0  0  0  0  0  0  0  0
    7.9005   -3.4675   -0.5676 C   0  0  0  0  0  0  0  0  0  0  0  0
    8.1089   -2.3299    0.2038 C   0  0  0  0  0  0  0  0  0  0  0  0
    7.0652   -1.4122    0.4013 C   0  0  0  0  0  0  0  0  0  0  0  0
    7.4171   -0.0708    1.4400 Cl  0  0  0  0  0  0  0  0  0  0  0  0
    9.1731   -4.6023   -0.7909 Cl  0  0  0  0  0  0  0  0  0  0  0  0
    3.3141   -0.9408    0.0689 N   0  0  0  0  0  0  0  0  0  0  0  0
    2.7265   -2.2403    0.2188 C   0  0  0  0  0  0  0  0  0  0  0  0
    3.3243   -3.2007    1.0531 C   0  0  0  0  0  0  0  0  0  0  0  0
    2.7808   -4.4864    1.1501 C   0  0  0  0  0  0  0  0  0  0  0  0
    1.6300   -4.8041    0.4400 C   0  0  0  0  0  0  0  0  0  0  0  0
    1.0185   -3.8643   -0.3805 C   0  0  0  0  0  0  0  0  0  0  0  0
    1.5728   -2.5860   -0.5042 C   0  0  0  0  0  0  0  0  0  0  0  0
    1.1090   -6.0331    0.5384 F   0  0  0  0  0  0  0  0  0  0  0  0
    0.6038   -0.4104    0.3818 H   0  0  0  0  0  0  0  0  0  0  0  0
    0.7684    0.8658   -0.8344 H   0  0  0  0  0  0  0  0  0  0  0  0
    0.9442    1.2183    0.8959 H   0  0  0  0  0  0  0  0  0  0  0  0
    5.4797    2.8597   -0.0125 H   0  0  0  0  0  0  0  0  0  0  0  0
    3.3112    5.3641   -1.5266 H   0  0  0  0  0  0  0  0  0  0  0  0
    4.9164    4.9907   -2.1654 H   0  0  0  0  0  0  0  0  0  0  0  0
    4.4167    7.4298   -2.2711 H   0  0  0  0  0  0  0  0  0  0  0  0
    5.8465    7.0725   -1.3078 H   0  0  0  0  0  0  0  0  0  0  0  0
    3.0559    7.7544   -0.2726 H   0  0  0  0  0  0  0  0  0  0  0  0
    4.5155    8.7279   -0.1135 H   0  0  0  0  0  0  0  0  0  0  0  0
    3.9354    7.4511    1.9809 H   0  0  0  0  0  0  0  0  0  0  0  0
    5.5454    7.0863    1.3662 H   0  0  0  0  0  0  0  0  0  0  0  0
    4.4396    5.0110    2.0137 H   0  0  0  0  0  0  0  0  0  0  0  0
    3.0216    5.3874    1.0276 H   0  0  0  0  0  0  0  0  0  0  0  0
    4.7048   -2.9388   -1.5282 H   0  0  0  0  0  0  0  0  0  0  0  0
    6.4936   -4.5818   -1.7616 H   0  0  0  0  0  0  0  0  0  0  0  0
    9.0822   -2.1571    0.6578 H   0  0  0  0  0  0  0  0  0  0  0  0
    4.2073   -2.9726    1.6459 H   0  0  0  0  0  0  0  0  0  0  0  0
    3.2467   -5.2421    1.7755 H   0  0  0  0  0  0  0  0  0  0  0  0
    0.1234   -4.1370   -0.9309 H   0  0  0  0  0  0  0  0  0  0  0  0
    1.1107   -1.8941   -1.2038 H   0  0  0  0  0  0  0  0  0  0  0  0
  1  2  1  0  0  0  0
  1 31  1  0  0  0  0
  1 32  1  0  0  0  0
  1 33  1  0  0  0  0
  2 23  1  0  0  0  0
  2  3  2  0  0  0  0
  3  4  1  0  0  0  0
  3 13  1  0  0  0  0
  4  5  2  0  0  0  0
  4  6  1  0  0  0  0
  6  7  1  0  0  0  0
  6 34  1  0  0  0  0
  7 12  1  0  0  0  0
  7  8  1  0  0  0  0
  8  9  1  0  0  0  0
  8 35  1  0  0  0  0
  8 36  1  0  0  0  0
  9 10  1  0  0  0  0
  9 37  1  0  0  0  0
  9 38  1  0  0  0  0
 10 11  1  0  0  0  0
 10 39  1  0  0  0  0
 10 40  1  0  0  0  0
 11 12  1  0  0  0  0
 11 41  1  0  0  0  0
 11 42  1  0  0  0  0
 12 43  1  0  0  0  0
 12 44  1  0  0  0  0
 13 14  2  0  0  0  0
 14 15  1  0  0  0  0
 14 23  1  0  0  0  0
 15 20  2  0  0  0  0
 15 16  1  0  0  0  0
 16 17  2  0  0  0  0
 16 45  1  0  0  0  0
 17 18  1  0  0  0  0
 17 46  1  0  0  0  0
 18 19  2  0  0  0  0
 18 22  1  0  0  0  0
 19 20  1  0  0  0  0
 19 47  1  0  0  0  0
 20 21  1  0  0  0  0
 23 24  1  0  0  0  0
 24 29  2  0  0  0  0
 24 25  1  0  0  0  0
 25 26  2  0  0  0  0
 25 48  1  0  0  0  0
 26 27  1  0  0  0  0
 26 49  1  0  0  0  0
 27 28  2  0  0  0  0
 27 30  1  0  0  0  0
 28 29  1  0  0  0  0
 28 50  1  0  0  0  0
 29 51  1  0  0  0  0
M  END
$$$$
CHEMBL368749
 OpenBabel12022417373D

 51 54  0  0  0  0  0  0  0  0999 V2000
    1.1855    0.4666    0.1362 C   0  0  0  0  0  0  0  0  0  0  0  0
    2.6581    0.2632    0.0182 C   0  0  0  0  0  0  0  0  0  0  0  0
    3.6373    1.2442   -0.0610 C   0  0  0  0  0  0  0  0  0  0  0  0
    3.4491    2.7121   -0.0927 C   0  0  0  0  0  0  0  0  0  0  0  0
    2.3394    3.2347   -0.1558 O   0  0  0  0  0  0  0  0  0  0  0  0
    4.6565    3.4071   -0.0342 N   0  0  0  0  0  0  0  0  0  0  0  0
    4.8009    4.8204   -0.0169 N   0  0  0  0  0  0  0  0  0  0  0  0
    4.4187    5.4585   -1.2860 C   0  0  0  0  0  0  0  0  0  0  0  0
    4.7894    6.9461   -1.2845 C   0  0  0  0  0  0  0  0  0  0  0  0
    4.1780    7.6801   -0.0959 C   0  0  0  0  0  0  0  0  0  0  0  0
    4.5076    6.9556    1.2059 C   0  0  0  0  0  0  0  0  0  0  0  0
    4.1426    5.4674    1.1318 C   0  0  0  0  0  0  0  0  0  0  0  0
    4.8853    0.6561   -0.0874 N   0  0  0  0  0  0  0  0  0  0  0  0
    4.7075   -0.6543   -0.0274 C   0  0  0  0  0  0  0  0  0  0  0  0
    5.8223   -1.6207   -0.1930 C   0  0  0  0  0  0  0  0  0  0  0  0
    5.6615   -2.7582   -1.0095 C   0  0  0  0  0  0  0  0  0  0  0  0
    6.6849   -3.6991   -1.1705 C   0  0  0  0  0  0  0  0  0  0  0  0
    7.9195   -3.4833   -0.5721 C   0  0  0  0  0  0  0  0  0  0  0  0
    8.1273   -2.3504    0.2071 C   0  0  0  0  0  0  0  0  0  0  0  0
    7.0853   -1.4312    0.4071 C   0  0  0  0  0  0  0  0  0  0  0  0
    7.4409   -0.0944    1.4507 Cl  0  0  0  0  0  0  0  0  0  0  0  0
    9.1883   -4.6208   -0.7974 Cl  0  0  0  0  0  0  0  0  0  0  0  0
    3.3365   -0.9569    0.0814 N   0  0  0  0  0  0  0  0  0  0  0  0
    2.7518   -2.2572    0.2293 C   0  0  0  0  0  0  0  0  0  0  0  0
    3.3506   -3.2179    1.0598 C   0  0  0  0  0  0  0  0  0  0  0  0
    2.8073   -4.5044    1.1591 C   0  0  0  0  0  0  0  0  0  0  0  0
    1.6508   -4.8281    0.4530 C   0  0  0  0  0  0  0  0  0  0  0  0
    1.0431   -3.8815   -0.3679 C   0  0  0  0  0  0  0  0  0  0  0  0
    1.5998   -2.6035   -0.4921 C   0  0  0  0  0  0  0  0  0  0  0  0
    0.9744   -6.4034    0.5899 Cl  0  0  0  0  0  0  0  0  0  0  0  0
    0.6293   -0.4288    0.4118 H   0  0  0  0  0  0  0  0  0  0  0  0
    0.7877    0.8400   -0.8131 H   0  0  0  0  0  0  0  0  0  0  0  0
    0.9652    1.2047    0.9145 H   0  0  0  0  0  0  0  0  0  0  0  0
    5.5008    2.8378    0.0257 H   0  0  0  0  0  0  0  0  0  0  0  0
    3.3443    5.3512   -1.4792 H   0  0  0  0  0  0  0  0  0  0  0  0
    4.9500    4.9772   -2.1159 H   0  0  0  0  0  0  0  0  0  0  0  0
    4.4531    7.4168   -2.2171 H   0  0  0  0  0  0  0  0  0  0  0  0
    5.8812    7.0554   -1.2520 H   0  0  0  0  0  0  0  0  0  0  0  0
    3.0901    7.7393   -0.2187 H   0  0  0  0  0  0  0  0  0  0  0  0
    4.5525    8.7102   -0.0589 H   0  0  0  0  0  0  0  0  0  0  0  0
    3.9698    7.4296    2.0354 H   0  0  0  0  0  0  0  0  0  0  0  0
    5.5785    7.0635    1.4189 H   0  0  0  0  0  0  0  0  0  0  0  0
    4.4695    4.9885    2.0624 H   0  0  0  0  0  0  0  0  0  0  0  0
    3.0521    5.3699    1.0776 H   0  0  0  0  0  0  0  0  0  0  0  0
    4.7239   -2.9446   -1.5305 H   0  0  0  0  0  0  0  0  0  0  0  0
    6.5100   -4.5899   -1.7706 H   0  0  0  0  0  0  0  0  0  0  0  0
    9.1014   -2.1804    0.6601 H   0  0  0  0  0  0  0  0  0  0  0  0
    4.2348   -2.9894    1.6513 H   0  0  0  0  0  0  0  0  0  0  0  0
    3.2890   -5.2476    1.7897 H   0  0  0  0  0  0  0  0  0  0  0  0
    0.1430   -4.1349   -0.9235 H   0  0  0  0  0  0  0  0  0  0  0  0
    1.1363   -1.9101   -1.1904 H   0  0  0  0  0  0  0  0  0  0  0  0
  1  2  1  0  0  0  0
  1 31  1  0  0  0  0
  1 32  1  0  0  0  0
  1 33  1  0  0  0  0
  2 23  1  0  0  0  0
  2  3  2  0  0  0  0
  3  4  1  0  0  0  0
  3 13  1  0  0  0  0
  4  5  2  0  0  0  0
  4  6  1  0  0  0  0
  6  7  1  0  0  0  0
  6 34  1  0  0  0  0
  7 12  1  0  0  0  0
  7  8  1  0  0  0  0
  8  9  1  0  0  0  0
  8 35  1  0  0  0  0
  8 36  1  0  0  0  0
  9 10  1  0  0  0  0
  9 37  1  0  0  0  0
  9 38  1  0  0  0  0
 10 11  1  0  0  0  0
 10 39  1  0  0  0  0
 10 40  1  0  0  0  0
 11 12  1  0  0  0  0
 11 41  1  0  0  0  0
 11 42  1  0  0  0  0
 12 43  1  0  0  0  0
 12 44  1  0  0  0  0
 13 14  2  0  0  0  0
 14 15  1  0  0  0  0
 14 23  1  0  0  0  0
 15 20  2  0  0  0  0
 15 16  1  0  0  0  0
 16 17  2  0  0  0  0
 16 45  1  0  0  0  0
 17 18  1  0  0  0  0
 17 46  1  0  0  0  0
 18 19  2  0  0  0  0
 18 22  1  0  0  0  0
 19 20  1  0  0  0  0
 19 47  1  0  0  0  0
 20 21  1  0  0  0  0
 23 24  1  0  0  0  0
 24 29  2  0  0  0  0
 24 25  1  0  0  0  0
 25 26  2  0  0  0  0
 25 48  1  0  0  0  0
 26 27  1  0  0  0  0
 26 49  1  0  0  0  0
 27 28  2  0  0  0  0
 27 30  1  0  0  0  0
 28 29  1  0  0  0  0
 28 50  1  0  0  0  0
 29 51  1  0  0  0  0
M  END
$$$$
CHEMBL521084
 OpenBabel12022417373D

 48 51  0  0  0  0  0  0  0  0999 V2000
    3.7484    1.0182   -1.5810 O   0  0  0  0  0  0  0  0  0  0  0  0
    2.6827    0.9373   -0.9701 C   0  0  0  0  0  0  0  0  0  0  0  0
    2.5425    1.3607    0.4710 C   0  0  0  0  0  0  0  0  0  0  0  0
    1.7503    2.5630    0.6126 N   0  0  0  0  0  0  0  0  0  0  0  0
    0.4185    2.5109    0.8169 N   0  0  0  0  0  0  0  0  0  0  0  0
    0.1042    3.8091    1.0039 C   0  0  0  0  0  0  0  0  0  0  0  0
   -1.2796    4.2390    1.2588 C   0  0  0  0  0  0  0  0  0  0  0  0
   -1.8068    5.3070    0.5083 C   0  0  0  0  0  0  0  0  0  0  0  0
   -3.0916    5.8017    0.7522 C   0  0  0  0  0  0  0  0  0  0  0  0
   -3.8902    5.2024    1.7192 C   0  0  0  0  0  0  0  0  0  0  0  0
   -3.4053    4.1332    2.4648 C   0  0  0  0  0  0  0  0  0  0  0  0
   -2.1005    3.6599    2.2484 C   0  0  0  0  0  0  0  0  0  0  0  0
   -1.5601    2.3983    3.3048 Cl  0  0  0  0  0  0  0  0  0  0  0  0
   -5.4814    5.7931    1.9963 Cl  0  0  0  0  0  0  0  0  0  0  0  0
    1.3043    4.6003    0.8388 C   0  0  0  0  0  0  0  0  0  0  0  0
    1.5009    6.0587    0.8186 C   0  0  0  0  0  0  0  0  0  0  0  0
    0.7456    6.8737    1.6831 C   0  0  0  0  0  0  0  0  0  0  0  0
    0.8030    8.2699    1.6001 C   0  0  0  0  0  0  0  0  0  0  0  0
    1.6647    8.8735    0.6920 C   0  0  0  0  0  0  0  0  0  0  0  0
    2.4691    8.0960   -0.1311 C   0  0  0  0  0  0  0  0  0  0  0  0
    2.3827    6.6971   -0.0820 C   0  0  0  0  0  0  0  0  0  0  0  0
    3.3659    5.8544   -1.2352 Cl  0  0  0  0  0  0  0  0  0  0  0  0
    1.7238   10.5880    0.5749 Cl  0  0  0  0  0  0  0  0  0  0  0  0
    2.3396    3.7613    0.6906 N   0  0  0  0  0  0  0  0  0  0  0  0
    1.5665    0.3429   -1.5190 N   0  0  0  0  0  0  0  0  0  0  0  0
    1.5627   -0.1317   -2.8908 C   0  0  0  0  0  0  0  0  0  0  0  0
    0.4543   -1.1228   -3.1045 C   0  0  0  0  0  0  0  0  0  0  0  0
    0.6455   -2.4868   -2.8361 C   0  0  0  0  0  0  0  0  0  0  0  0
   -0.4125   -3.3811   -2.9886 C   0  0  0  0  0  0  0  0  0  0  0  0
   -1.6681   -2.9466   -3.4009 C   0  0  0  0  0  0  0  0  0  0  0  0
   -1.8688   -1.5938   -3.6702 C   0  0  0  0  0  0  0  0  0  0  0  0
   -0.8119   -0.6974   -3.5192 C   0  0  0  0  0  0  0  0  0  0  0  0
   -1.0297    0.6020   -3.7661 F   0  0  0  0  0  0  0  0  0  0  0  0
   -0.2197   -4.6801   -2.7256 F   0  0  0  0  0  0  0  0  0  0  0  0
    3.5358    1.5539    0.8884 H   0  0  0  0  0  0  0  0  0  0  0  0
    2.0770    0.5612    1.0546 H   0  0  0  0  0  0  0  0  0  0  0  0
   -1.2128    5.7844   -0.2691 H   0  0  0  0  0  0  0  0  0  0  0  0
   -3.4591    6.6515    0.1819 H   0  0  0  0  0  0  0  0  0  0  0  0
   -4.0356    3.6752    3.2237 H   0  0  0  0  0  0  0  0  0  0  0  0
    0.0788    6.4378    2.4243 H   0  0  0  0  0  0  0  0  0  0  0  0
    0.1683    8.8769    2.2412 H   0  0  0  0  0  0  0  0  0  0  0  0
    3.1515    8.5743   -0.8302 H   0  0  0  0  0  0  0  0  0  0  0  0
    0.6650    0.5401   -1.0918 H   0  0  0  0  0  0  0  0  0  0  0  0
    2.5318   -0.5891   -3.1281 H   0  0  0  0  0  0  0  0  0  0  0  0
    1.4542    0.7334   -3.5552 H   0  0  0  0  0  0  0  0  0  0  0  0
    1.6095   -2.8623   -2.5035 H   0  0  0  0  0  0  0  0  0  0  0  0
   -2.4787   -3.6611   -3.5045 H   0  0  0  0  0  0  0  0  0  0  0  0
   -2.8408   -1.2300   -3.9890 H   0  0  0  0  0  0  0  0  0  0  0  0
  1  2  2  0  0  0  0
  2  3  1  0  0  0  0
  2 25  1  0  0  0  0
  3  4  1  0  0  0  0
  3 35  1  0  0  0  0
  3 36  1  0  0  0  0
  4 24  1  0  0  0  0
  4  5  1  0  0  0  0
  5  6  2  0  0  0  0
  6  7  1  0  0  0  0
  6 15  1  0  0  0  0
  7 12  2  0  0  0  0
  7  8  1  0  0  0  0
  8  9  2  0  0  0  0
  8 37  1  0  0  0  0
  9 10  1  0  0  0  0
  9 38  1  0  0  0  0
 10 11  2  0  0  0  0
 10 14  1  0  0  0  0
 11 12  1  0  0  0  0
 11 39  1  0  0  0  0
 12 13  1  0  0  0  0
 15 16  1  0  0  0  0
 15 24  2  0  0  0  0
 16 21  2  0  0  0  0
 16 17  1  0  0  0  0
 17 18  2  0  0  0  0
 17 40  1  0  0  0  0
 18 19  1  0  0  0  0
 18 41  1  0  0  0  0
 19 20  2  0  0  0  0
 19 23  1  0  0  0  0
 20 21  1  0  0  0  0
 20 42  1  0  0  0  0
 21 22  1  0  0  0  0
 25 26  1  0  0  0  0
 25 43  1  0  0  0  0
 26 27  1  0  0  0  0
 26 44  1  0  0  0  0
 26 45  1  0  0  0  0
 27 32  2  0  0  0  0
 27 28  1  0  0  0  0
 28 29  2  0  0  0  0
 28 46  1  0  0  0  0
 29 30  1  0  0  0  0
 29 34  1  0  0  0  0
 30 31  2  0  0  0  0
 30 47  1  0  0  0  0
 31 32  1  0  0  0  0
 31 48  1  0  0  0  0
 32 33  1  0  0  0  0
M  END
$$$$
CHEMBL426585
 OpenBabel12022417373D

 54 57  0  0  0  0  0  0  0  0999 V2000
    2.8021    1.5104    0.5382 C   0  0  0  0  0  0  0  0  0  0  0  0
    2.5214    0.0565    0.2158 C   0  0  0  0  0  0  0  0  0  0  0  0
    2.9668   -1.0213    1.1759 C   0  0  0  0  0  0  0  0  0  0  0  0
    3.6407   -0.9784    2.3983 C   0  0  0  0  0  0  0  0  0  0  0  0
    4.2931    0.1759    3.0620 C   0  0  0  0  0  0  0  0  0  0  0  0
    4.8342    1.0721    2.4233 O   0  0  0  0  0  0  0  0  0  0  0  0
    4.2518    0.1396    4.4596 N   0  0  0  0  0  0  0  0  0  0  0  0
    4.7614    1.1976    5.2957 N   0  0  0  0  0  0  0  0  0  0  0  0
    6.2141    1.3875    5.1285 C   0  0  0  0  0  0  0  0  0  0  0  0
    6.7713    2.4786    6.0484 C   0  0  0  0  0  0  0  0  0  0  0  0
    6.0317    3.7972    5.8603 C   0  0  0  0  0  0  0  0  0  0  0  0
    4.5327    3.5822    6.0277 C   0  0  0  0  0  0  0  0  0  0  0  0
    4.0199    2.4620    5.1126 C   0  0  0  0  0  0  0  0  0  0  0  0
    3.6597   -2.2369    2.9687 N   0  0  0  0  0  0  0  0  0  0  0  0
    3.1155   -3.0793    2.1056 C   0  0  0  0  0  0  0  0  0  0  0  0
    3.1699   -4.5579    2.2704 C   0  0  0  0  0  0  0  0  0  0  0  0
    3.4648   -5.3873    1.1657 C   0  0  0  0  0  0  0  0  0  0  0  0
    3.4695   -6.7831    1.2746 C   0  0  0  0  0  0  0  0  0  0  0  0
    3.2529   -7.3768    2.5104 C   0  0  0  0  0  0  0  0  0  0  0  0
    3.0157   -6.5893    3.6318 C   0  0  0  0  0  0  0  0  0  0  0  0
    2.9633   -5.1908    3.5130 C   0  0  0  0  0  0  0  0  0  0  0  0
    2.5849   -4.3179    4.9610 Cl  0  0  0  0  0  0  0  0  0  0  0  0
    3.2806   -9.0905    2.6527 Cl  0  0  0  0  0  0  0  0  0  0  0  0
    2.6053   -2.3743    0.9967 N   0  0  0  0  0  0  0  0  0  0  0  0
    1.8427   -2.9304   -0.0930 C   0  0  0  0  0  0  0  0  0  0  0  0
    0.9061   -3.9520    0.1363 C   0  0  0  0  0  0  0  0  0  0  0  0
    0.1983   -4.5240   -0.9301 C   0  0  0  0  0  0  0  0  0  0  0  0
    0.3798   -4.0471   -2.2250 C   0  0  0  0  0  0  0  0  0  0  0  0
    1.2954   -3.0309   -2.4682 C   0  0  0  0  0  0  0  0  0  0  0  0
    2.0450   -2.4995   -1.4116 C   0  0  0  0  0  0  0  0  0  0  0  0
   -0.5139   -4.7237   -3.5284 Cl  0  0  0  0  0  0  0  0  0  0  0  0
    2.3163    2.1508   -0.2028 H   0  0  0  0  0  0  0  0  0  0  0  0
    3.8717    1.7231    0.4560 H   0  0  0  0  0  0  0  0  0  0  0  0
    2.4371    1.8004    1.5283 H   0  0  0  0  0  0  0  0  0  0  0  0
    3.0058   -0.1026   -0.7477 H   0  0  0  0  0  0  0  0  0  0  0  0
    1.4371   -0.0395    0.0723 H   0  0  0  0  0  0  0  0  0  0  0  0
    3.8701   -0.6941    4.9032 H   0  0  0  0  0  0  0  0  0  0  0  0
    6.4676    1.6524    4.0964 H   0  0  0  0  0  0  0  0  0  0  0  0
    6.7286    0.4471    5.3579 H   0  0  0  0  0  0  0  0  0  0  0  0
    7.8371    2.6257    5.8384 H   0  0  0  0  0  0  0  0  0  0  0  0
    6.6923    2.1607    7.0952 H   0  0  0  0  0  0  0  0  0  0  0  0
    6.2387    4.2005    4.8609 H   0  0  0  0  0  0  0  0  0  0  0  0
    6.3912    4.5383    6.5838 H   0  0  0  0  0  0  0  0  0  0  0  0
    4.0032    4.5162    5.8023 H   0  0  0  0  0  0  0  0  0  0  0  0
    4.3140    3.3389    7.0750 H   0  0  0  0  0  0  0  0  0  0  0  0
    2.9597    2.2982    5.3387 H   0  0  0  0  0  0  0  0  0  0  0  0
    4.0783    2.8122    4.0757 H   0  0  0  0  0  0  0  0  0  0  0  0
    3.6752   -4.9609    0.1866 H   0  0  0  0  0  0  0  0  0  0  0  0
    3.6444   -7.3941    0.3916 H   0  0  0  0  0  0  0  0  0  0  0  0
    2.8636   -7.0616    4.5989 H   0  0  0  0  0  0  0  0  0  0  0  0
    0.6986   -4.3247    1.1367 H   0  0  0  0  0  0  0  0  0  0  0  0
   -0.4978   -5.3383   -0.7421 H   0  0  0  0  0  0  0  0  0  0  0  0
    1.4505   -2.6595   -3.4791 H   0  0  0  0  0  0  0  0  0  0  0  0
    2.8213   -1.7917   -1.6775 H   0  0  0  0  0  0  0  0  0  0  0  0
  1  2  1  0  0  0  0
  1 32  1  0  0  0  0
  1 33  1  0  0  0  0
  1 34  1  0  0  0  0
  2  3  1  0  0  0  0
  2 35  1  0  0  0  0
  2 36  1  0  0  0  0
  3 24  1  0  0  0  0
  3  4  2  0  0  0  0
  4  5  1  0  0  0  0
  4 14  1  0  0  0  0
  5  6  2  0  0  0  0
  5  7  1  0  0  0  0
  7  8  1  0  0  0  0
  7 37  1  0  0  0  0
  8 13  1  0  0  0  0
  8  9  1  0  0  0  0
  9 10  1  0  0  0  0
  9 38  1  0  0  0  0
  9 39  1  0  0  0  0
 10 11  1  0  0  0  0
 10 40  1  0  0  0  0
 10 41  1  0  0  0  0
 11 12  1  0  0  0  0
 11 42  1  0  0  0  0
 11 43  1  0  0  0  0
 12 13  1  0  0  0  0
 12 44  1  0  0  0  0
 12 45  1  0  0  0  0
 13 46  1  0  0  0  0
 13 47  1  0  0  0  0
 14 15  2  0  0  0  0
 15 16  1  0  0  0  0
 15 24  1  0  0  0  0
 16 21  2  0  0  0  0
 16 17  1  0  0  0  0
 17 18  2  0  0  0  0
 17 48  1  0  0  0  0
 18 19  1  0  0  0  0
 18 49  1  0  0  0  0
 19 20  2  0  0  0  0
 19 23  1  0  0  0  0
 20 21  1  0  0  0  0
 20 50  1  0  0  0  0
 21 22  1  0  0  0  0
 24 25  1  0  0  0  0
 25 30  2  0  0  0  0
 25 26  1  0  0  0  0
 26 27  2  0  0  0  0
 26 51  1  0  0  0  0
 27 28  1  0  0  0  0
 27 52  1  0  0  0  0
 28 29  2  0  0  0  0
 28 31  1  0  0  0  0
 29 30  1  0  0  0  0
 29 53  1  0  0  0  0
 30 54  1  0  0  0  0
M  END
$$$$
CHEMBL459506
 OpenBabel12022417373D

 61 64  0  0  0  0  0  0  0  0999 V2000
    1.1367    0.1744    0.0580 C   0  0  0  0  0  0  0  0  0  0  0  0
    2.6465    0.2850    0.2148 C   0  0  0  0  0  0  0  0  0  0  0  0
    3.1001   -0.0767    1.6327 C   0  0  0  0  0  0  0  0  0  0  0  0
    4.5896    0.0922    1.7973 C   0  0  0  0  0  0  0  0  0  0  0  0
    5.4346   -0.8798    2.1813 C   0  0  0  0  0  0  0  0  0  0  0  0
    6.8444   -0.6599    2.3177 C   0  0  0  0  0  0  0  0  0  0  0  0
    7.6093    0.4561    2.0288 C   0  0  0  0  0  0  0  0  0  0  0  0
    9.0065    0.2517    2.2276 C   0  0  0  0  0  0  0  0  0  0  0  0
    9.3018   -0.9783    2.7863 C   0  0  0  0  0  0  0  0  0  0  0  0
   10.6065   -1.4433    3.2367 C   0  0  0  0  0  0  0  0  0  0  0  0
   11.2391   -2.6666    3.0148 C   0  0  0  0  0  0  0  0  0  0  0  0
   10.7410   -3.8842    2.3117 C   0  0  0  0  0  0  0  0  0  0  0  0
   12.5602   -2.5220    3.5423 C   0  0  0  0  0  0  0  0  0  0  0  0
   13.6571   -3.5284    3.5124 C   0  0  0  0  0  0  0  0  0  0  0  0
   13.4847   -4.6589    3.0616 O   0  0  0  0  0  0  0  0  0  0  0  0
   14.8739   -3.0622    4.0178 N   0  0  0  0  0  0  0  0  0  0  0  0
   16.0883   -3.8223    4.0449 N   0  0  0  0  0  0  0  0  0  0  0  0
   16.0096   -4.9744    4.9581 C   0  0  0  0  0  0  0  0  0  0  0  0
   17.3366   -5.7382    5.0354 C   0  0  0  0  0  0  0  0  0  0  0  0
   17.8029   -6.1757    3.6528 C   0  0  0  0  0  0  0  0  0  0  0  0
   17.8760   -4.9681    2.7269 C   0  0  0  0  0  0  0  0  0  0  0  0
   16.5472   -4.2039    2.6980 C   0  0  0  0  0  0  0  0  0  0  0  0
   12.7318   -1.3051    4.0796 N   0  0  0  0  0  0  0  0  0  0  0  0
   11.5478   -0.6542    3.9198 N   0  0  0  0  0  0  0  0  0  0  0  0
   11.3906    0.6610    4.4743 C   0  0  0  0  0  0  0  0  0  0  0  0
   10.1339    1.0434    4.9869 C   0  0  0  0  0  0  0  0  0  0  0  0
    9.9041    2.3478    5.4303 C   0  0  0  0  0  0  0  0  0  0  0  0
   10.9426    3.2691    5.4233 C   0  0  0  0  0  0  0  0  0  0  0  0
   12.2079    2.8947    4.9815 C   0  0  0  0  0  0  0  0  0  0  0  0
   12.4381    1.5989    4.5029 C   0  0  0  0  0  0  0  0  0  0  0  0
   14.0223    1.3289    3.8481 Cl  0  0  0  0  0  0  0  0  0  0  0  0
   10.6581    4.8815    5.9488 Cl  0  0  0  0  0  0  0  0  0  0  0  0
    7.8652   -1.9100    2.9393 S   0  0  0  0  0  0  0  0  0  0  0  0
    0.8417    0.4316   -0.9647 H   0  0  0  0  0  0  0  0  0  0  0  0
    0.6197    0.8574    0.7398 H   0  0  0  0  0  0  0  0  0  0  0  0
    0.7927   -0.8441    0.2640 H   0  0  0  0  0  0  0  0  0  0  0  0
    2.9518    1.3098   -0.0292 H   0  0  0  0  0  0  0  0  0  0  0  0
    3.1319   -0.3759   -0.5138 H   0  0  0  0  0  0  0  0  0  0  0  0
    2.7925   -1.1018    1.8695 H   0  0  0  0  0  0  0  0  0  0  0  0
    2.5994    0.5822    2.3531 H   0  0  0  0  0  0  0  0  0  0  0  0
    4.9509    1.0970    1.5936 H   0  0  0  0  0  0  0  0  0  0  0  0
    5.0456   -1.8750    2.3877 H   0  0  0  0  0  0  0  0  0  0  0  0
    7.1947    1.3874    1.6645 H   0  0  0  0  0  0  0  0  0  0  0  0
    9.7464    1.0169    2.0257 H   0  0  0  0  0  0  0  0  0  0  0  0
    9.7322   -3.7724    1.9142 H   0  0  0  0  0  0  0  0  0  0  0  0
   10.7371   -4.7370    2.9985 H   0  0  0  0  0  0  0  0  0  0  0  0
   11.3916   -4.1247    1.4642 H   0  0  0  0  0  0  0  0  0  0  0  0
   14.8893   -2.1008    4.3568 H   0  0  0  0  0  0  0  0  0  0  0  0
   15.2204   -5.6710    4.6524 H   0  0  0  0  0  0  0  0  0  0  0  0
   15.7606   -4.6227    5.9666 H   0  0  0  0  0  0  0  0  0  0  0  0
   17.2218   -6.6177    5.6797 H   0  0  0  0  0  0  0  0  0  0  0  0
   18.1056   -5.1047    5.4956 H   0  0  0  0  0  0  0  0  0  0  0  0
   17.1044   -6.9160    3.2431 H   0  0  0  0  0  0  0  0  0  0  0  0
   18.7829   -6.6621    3.7190 H   0  0  0  0  0  0  0  0  0  0  0  0
   18.1335   -5.2992    1.7139 H   0  0  0  0  0  0  0  0  0  0  0  0
   18.6825   -4.3022    3.0587 H   0  0  0  0  0  0  0  0  0  0  0  0
   16.6876   -3.2995    2.0938 H   0  0  0  0  0  0  0  0  0  0  0  0
   15.8050   -4.8251    2.1845 H   0  0  0  0  0  0  0  0  0  0  0  0
    9.3050    0.3401    5.0533 H   0  0  0  0  0  0  0  0  0  0  0  0
    8.9128    2.6341    5.7746 H   0  0  0  0  0  0  0  0  0  0  0  0
   13.0130    3.6266    4.9824 H   0  0  0  0  0  0  0  0  0  0  0  0
  1  2  1  0  0  0  0
  1 34  1  0  0  0  0
  1 35  1  0  0  0  0
  1 36  1  0  0  0  0
  2  3  1  0  0  0  0
  2 37  1  0  0  0  0
  2 38  1  0  0  0  0
  3  4  1  0  0  0  0
  3 39  1  0  0  0  0
  3 40  1  0  0  0  0
  4  5  2  0  0  0  0
  4 41  1  0  0  0  0
  5  6  1  0  0  0  0
  5 42  1  0  0  0  0
  6 33  1  0  0  0  0
  6  7  2  0  0  0  0
  7  8  1  0  0  0  0
  7 43  1  0  0  0  0
  8  9  2  0  0  0  0
  8 44  1  0  0  0  0
  9 10  1  0  0  0  0
  9 33  1  0  0  0  0
 10 24  1  0  0  0  0
 10 11  2  0  0  0  0
 11 12  1  0  0  0  0
 11 13  1  0  0  0  0
 12 45  1  0  0  0  0
 12 46  1  0  0  0  0
 12 47  1  0  0  0  0
 13 14  1  0  0  0  0
 13 23  2  0  0  0  0
 14 15  2  0  0  0  0
 14 16  1  0  0  0  0
 16 17  1  0  0  0  0
 16 48  1  0  0  0  0
 17 22  1  0  0  0  0
 17 18  1  0  0  0  0
 18 19  1  0  0  0  0
 18 49  1  0  0  0  0
 18 50  1  0  0  0  0
 19 20  1  0  0  0  0
 19 51  1  0  0  0  0
 19 52  1  0  0  0  0
 20 21  1  0  0  0  0
 20 53  1  0  0  0  0
 20 54  1  0  0  0  0
 21 22  1  0  0  0  0
 21 55  1  0  0  0  0
 21 56  1  0  0  0  0
 22 57  1  0  0  0  0
 22 58  1  0  0  0  0
 23 24  1  0  0  0  0
 24 25  1  0  0  0  0
 25 30  2  0  0  0  0
 25 26  1  0  0  0  0
 26 27  2  0  0  0  0
 26 59  1  0  0  0  0
 27 28  1  0  0  0  0
 27 60  1  0  0  0  0
 28 29  2  0  0  0  0
 28 32  1  0  0  0  0
 29 30  1  0  0  0  0
 29 61  1  0  0  0  0
 30 31  1  0  0  0  0
M  END
$$$$
CHEMBL460986
 OpenBabel12022417373D

 62 65  0  0  0  0  0  0  0  0999 V2000
    4.2007   -2.4003    4.5831 C   0  0  0  0  0  0  0  0  0  0  0  0
    4.8124   -1.9002    3.2858 C   0  0  0  0  0  0  0  0  0  0  0  0
    6.3175   -2.1393    3.2636 C   0  0  0  0  0  0  0  0  0  0  0  0
    6.9124   -1.6333    1.9596 C   0  0  0  0  0  0  0  0  0  0  0  0
    7.4227   -1.1992    0.8411 C   0  0  0  0  0  0  0  0  0  0  0  0
    8.0563   -0.7247   -0.3385 C   0  0  0  0  0  0  0  0  0  0  0  0
    7.4564   -0.0303   -1.3669 C   0  0  0  0  0  0  0  0  0  0  0  0
    8.3692    0.1931   -2.4431 C   0  0  0  0  0  0  0  0  0  0  0  0
    9.6552   -0.2701   -2.1829 C   0  0  0  0  0  0  0  0  0  0  0  0
   10.8407   -0.2064   -3.0239 C   0  0  0  0  0  0  0  0  0  0  0  0
   11.8990   -1.1164   -3.1844 C   0  0  0  0  0  0  0  0  0  0  0  0
   12.1105   -2.4480   -2.4867 C   0  0  0  0  0  0  0  0  0  0  0  0
   12.9569   -2.4281   -1.2167 C   0  0  0  0  0  0  0  0  0  0  0  0
   12.6899   -0.5925   -4.2793 C   0  0  0  0  0  0  0  0  0  0  0  0
   13.9304   -1.1300   -4.8962 C   0  0  0  0  0  0  0  0  0  0  0  0
   14.4258   -2.1825   -4.4525 O   0  0  0  0  0  0  0  0  0  0  0  0
   14.5101   -0.4094   -5.9454 N   0  0  0  0  0  0  0  0  0  0  0  0
   15.7502   -0.8172   -6.6361 N   0  0  0  0  0  0  0  0  0  0  0  0
   16.8922   -0.8385   -5.6978 C   0  0  0  0  0  0  0  0  0  0  0  0
   18.2154   -1.2052   -6.3790 C   0  0  0  0  0  0  0  0  0  0  0  0
   18.1363   -2.5587   -7.0678 C   0  0  0  0  0  0  0  0  0  0  0  0
   16.9305   -2.5932   -7.9991 C   0  0  0  0  0  0  0  0  0  0  0  0
   15.6339   -2.1484   -7.2869 C   0  0  0  0  0  0  0  0  0  0  0  0
   12.1358    0.5305   -4.7613 N   0  0  0  0  0  0  0  0  0  0  0  0
   11.0603    0.7910   -3.9767 N   0  0  0  0  0  0  0  0  0  0  0  0
   10.3121    1.9840   -4.1835 C   0  0  0  0  0  0  0  0  0  0  0  0
    9.6695    2.5968   -3.0921 C   0  0  0  0  0  0  0  0  0  0  0  0
    8.8966    3.7367   -3.2604 C   0  0  0  0  0  0  0  0  0  0  0  0
    8.8045    4.3189   -4.5144 C   0  0  0  0  0  0  0  0  0  0  0  0
    9.4635    3.7458   -5.6095 C   0  0  0  0  0  0  0  0  0  0  0  0
   10.2233    2.5587   -5.4514 C   0  0  0  0  0  0  0  0  0  0  0  0
   10.8278    1.8807   -6.9150 Cl  0  0  0  0  0  0  0  0  0  0  0  0
    7.8838    5.7467   -4.7366 Cl  0  0  0  0  0  0  0  0  0  0  0  0
    9.7170   -0.9561   -0.6136 S   0  0  0  0  0  0  0  0  0  0  0  0
    3.1210   -2.2236    4.5879 H   0  0  0  0  0  0  0  0  0  0  0  0
    4.6355   -1.8824    5.4439 H   0  0  0  0  0  0  0  0  0  0  0  0
    4.3716   -3.4745    4.7057 H   0  0  0  0  0  0  0  0  0  0  0  0
    4.5993   -0.8302    3.1707 H   0  0  0  0  0  0  0  0  0  0  0  0
    4.3375   -2.4097    2.4383 H   0  0  0  0  0  0  0  0  0  0  0  0
    6.5387   -3.2082    3.3608 H   0  0  0  0  0  0  0  0  0  0  0  0
    6.8021   -1.6191    4.0976 H   0  0  0  0  0  0  0  0  0  0  0  0
    6.4147    0.2604   -1.3749 H   0  0  0  0  0  0  0  0  0  0  0  0
    8.0739    0.7177   -3.3415 H   0  0  0  0  0  0  0  0  0  0  0  0
   12.5757   -3.1511   -3.1862 H   0  0  0  0  0  0  0  0  0  0  0  0
   11.1379   -2.8923   -2.2349 H   0  0  0  0  0  0  0  0  0  0  0  0
   13.9807   -2.1026   -1.4235 H   0  0  0  0  0  0  0  0  0  0  0  0
   13.0256   -3.4308   -0.7791 H   0  0  0  0  0  0  0  0  0  0  0  0
   12.5324   -1.7737   -0.4487 H   0  0  0  0  0  0  0  0  0  0  0  0
   14.1471    0.5342   -6.1175 H   0  0  0  0  0  0  0  0  0  0  0  0
   16.7007   -1.5560   -4.8943 H   0  0  0  0  0  0  0  0  0  0  0  0
   17.0186    0.1455   -5.2369 H   0  0  0  0  0  0  0  0  0  0  0  0
   19.0171   -1.2238   -5.6318 H   0  0  0  0  0  0  0  0  0  0  0  0
   18.4810   -0.4366   -7.1144 H   0  0  0  0  0  0  0  0  0  0  0  0
   18.0517   -3.3533   -6.3174 H   0  0  0  0  0  0  0  0  0  0  0  0
   19.0615   -2.7522   -7.6285 H   0  0  0  0  0  0  0  0  0  0  0  0
   16.8155   -3.6128   -8.3905 H   0  0  0  0  0  0  0  0  0  0  0  0
   17.1249   -1.9471   -8.8630 H   0  0  0  0  0  0  0  0  0  0  0  0
   14.8269   -2.1400   -8.0296 H   0  0  0  0  0  0  0  0  0  0  0  0
   15.3807   -2.9136   -6.5444 H   0  0  0  0  0  0  0  0  0  0  0  0
    9.7289    2.1766   -2.0921 H   0  0  0  0  0  0  0  0  0  0  0  0
    8.3890    4.1804   -2.4056 H   0  0  0  0  0  0  0  0  0  0  0  0
    9.3780    4.2065   -6.5918 H   0  0  0  0  0  0  0  0  0  0  0  0
  1  2  1  0  0  0  0
  1 35  1  0  0  0  0
  1 36  1  0  0  0  0
  1 37  1  0  0  0  0
  2  3  1  0  0  0  0
  2 38  1  0  0  0  0
  2 39  1  0  0  0  0
  3  4  1  0  0  0  0
  3 40  1  0  0  0  0
  3 41  1  0  0  0  0
  4  5  3  0  0  0  0
  5  6  1  0  0  0  0
  6 34  1  0  0  0  0
  6  7  2  0  0  0  0
  7  8  1  0  0  0  0
  7 42  1  0  0  0  0
  8  9  2  0  0  0  0
  8 43  1  0  0  0  0
  9 10  1  0  0  0  0
  9 34  1  0  0  0  0
 10 25  1  0  0  0  0
 10 11  2  0  0  0  0
 11 12  1  0  0  0  0
 11 14  1  0  0  0  0
 12 13  1  0  0  0  0
 12 44  1  0  0  0  0
 12 45  1  0  0  0  0
 13 46  1  0  0  0  0
 13 47  1  0  0  0  0
 13 48  1  0  0  0  0
 14 15  1  0  0  0  0
 14 24  2  0  0  0  0
 15 16  2  0  0  0  0
 15 17  1  0  0  0  0
 17 18  1  0  0  0  0
 17 49  1  0  0  0  0
 18 23  1  0  0  0  0
 18 19  1  0  0  0  0
 19 20  1  0  0  0  0
 19 50  1  0  0  0  0
 19 51  1  0  0  0  0
 20 21  1  0  0  0  0
 20 52  1  0  0  0  0
 20 53  1  0  0  0  0
 21 22  1  0  0  0  0
 21 54  1  0  0  0  0
 21 55  1  0  0  0  0
 22 23  1  0  0  0  0
 22 56  1  0  0  0  0
 22 57  1  0  0  0  0
 23 58  1  0  0  0  0
 23 59  1  0  0  0  0
 24 25  1  0  0  0  0
 25 26  1  0  0  0  0
 26 31  2  0  0  0  0
 26 27  1  0  0  0  0
 27 28  2  0  0  0  0
 27 60  1  0  0  0  0
 28 29  1  0  0  0  0
 28 61  1  0  0  0  0
 29 30  2  0  0  0  0
 29 33  1  0  0  0  0
 30 31  1  0  0  0  0
 30 62  1  0  0  0  0
 31 32  1  0  0  0  0
M  END
$$$$
CHEMBL460131
 OpenBabel12022417373D

 63 67  0  0  1  0  0  0  0  0999 V2000
    5.0579    1.9482    7.8189 C   0  0  0  0  0  0  0  0  0  0  0  0
    5.6545    1.1064    6.7026 C   0  0  0  0  0  0  0  0  0  0  0  0
    6.1495    1.9767    5.5518 C   0  0  0  0  0  0  0  0  0  0  0  0
    6.7413    1.1154    4.4480 C   0  0  0  0  0  0  0  0  0  0  0  0
    7.2490    0.3766    3.5012 C   0  0  0  0  0  0  0  0  0  0  0  0
    7.9163   -0.3630    2.4816 C   0  0  0  0  0  0  0  0  0  0  0  0
    7.3112   -0.9744    1.4116 C   0  0  0  0  0  0  0  0  0  0  0  0
    8.2404   -1.7562    0.6567 C   0  0  0  0  0  0  0  0  0  0  0  0
    9.5484   -1.6571    1.1121 C   0  0  0  0  0  0  0  0  0  0  0  0
   10.7451   -2.3189    0.5956 C   0  0  0  0  0  0  0  0  0  0  0  0
   11.8353   -2.8412    1.2924 C   0  0  0  0  0  0  0  0  0  0  0  0
   12.1396   -2.8142    2.7535 C   0  0  0  0  0  0  0  0  0  0  0  0
   12.6359   -3.5175    0.3169 C   0  0  0  0  0  0  0  0  0  0  0  0
   13.8937   -4.2899    0.5365 C   0  0  0  0  0  0  0  0  0  0  0  0
   14.4065   -4.3861    1.6533 O   0  0  0  0  0  0  0  0  0  0  0  0
   14.4065   -4.8926   -0.6131 N   0  0  0  0  0  0  0  0  0  0  0  0
   15.6386   -5.5944   -0.5873 N   0  0  0  0  0  0  0  0  0  0  0  0
   16.3910   -5.5342   -1.8490 C   0  0  0  0  0  0  0  0  0  0  0  0
   17.4376   -6.6436   -1.7006 C   0  0  1  0  0  0  0  0  0  0  0  0
   18.7781   -6.1830   -1.1152 C   0  0  0  0  0  0  0  0  0  0  0  0
   19.1631   -7.2730   -0.1289 C   0  0  0  0  0  0  0  0  0  0  0  0
   17.8303   -7.6451    0.5010 C   0  0  0  0  0  0  0  0  0  0  0  0
   16.8400   -7.6180   -0.6679 C   0  0  1  0  0  0  0  0  0  0  0  0
   15.4691   -7.0330   -0.3260 C   0  0  0  0  0  0  0  0  0  0  0  0
   12.1019   -3.3919   -0.9069 N   0  0  0  0  0  0  0  0  0  0  0  0
   10.9759   -2.6484   -0.7501 N   0  0  0  0  0  0  0  0  0  0  0  0
   10.2459   -2.2543   -1.9142 C   0  0  0  0  0  0  0  0  0  0  0  0
    9.6231   -0.9888   -1.9370 C   0  0  0  0  0  0  0  0  0  0  0  0
    8.8385   -0.5949   -3.0203 C   0  0  0  0  0  0  0  0  0  0  0  0
    8.7259   -1.4269   -4.1261 C   0  0  0  0  0  0  0  0  0  0  0  0
    9.3760   -2.6572   -4.1482 C   0  0  0  0  0  0  0  0  0  0  0  0
   10.1252   -3.0844   -3.0440 C   0  0  0  0  0  0  0  0  0  0  0  0
   10.7338   -4.7072   -3.1472 Cl  0  0  0  0  0  0  0  0  0  0  0  0
    7.7805   -0.9328   -5.4725 Cl  0  0  0  0  0  0  0  0  0  0  0  0
    9.6095   -0.5475    2.4270 S   0  0  0  0  0  0  0  0  0  0  0  0
    4.7114    1.3059    8.6345 H   0  0  0  0  0  0  0  0  0  0  0  0
    4.2035    2.5295    7.4577 H   0  0  0  0  0  0  0  0  0  0  0  0
    5.7996    2.6432    8.2253 H   0  0  0  0  0  0  0  0  0  0  0  0
    4.8991    0.3985    6.3402 H   0  0  0  0  0  0  0  0  0  0  0  0
    6.4818    0.5080    7.1035 H   0  0  0  0  0  0  0  0  0  0  0  0
    6.9169    2.6759    5.9026 H   0  0  0  0  0  0  0  0  0  0  0  0
    5.3250    2.5662    5.1349 H   0  0  0  0  0  0  0  0  0  0  0  0
    6.2501   -0.9090    1.2016 H   0  0  0  0  0  0  0  0  0  0  0  0
    7.9370   -2.3482   -0.1983 H   0  0  0  0  0  0  0  0  0  0  0  0
   11.3887   -2.2952    3.3476 H   0  0  0  0  0  0  0  0  0  0  0  0
   13.0954   -2.3108    2.9312 H   0  0  0  0  0  0  0  0  0  0  0  0
   12.1941   -3.8313    3.1534 H   0  0  0  0  0  0  0  0  0  0  0  0
   13.9016   -4.7225   -1.4854 H   0  0  0  0  0  0  0  0  0  0  0  0
   16.8434   -4.5514   -2.0155 H   0  0  0  0  0  0  0  0  0  0  0  0
   15.7404   -5.7648   -2.7030 H   0  0  0  0  0  0  0  0  0  0  0  0
   17.6056   -7.1512   -2.6583 H   0  0  0  0  0  0  0  0  0  0  0  0
   18.6747   -5.2225   -0.5941 H   0  0  0  0  0  0  0  0  0  0  0  0
   19.5388   -6.0604   -1.8918 H   0  0  0  0  0  0  0  0  0  0  0  0
   19.8901   -6.9256    0.6104 H   0  0  0  0  0  0  0  0  0  0  0  0
   19.5933   -8.1340   -0.6540 H   0  0  0  0  0  0  0  0  0  0  0  0
   17.5641   -6.9116    1.2711 H   0  0  0  0  0  0  0  0  0  0  0  0
   17.8702   -8.6283    0.9787 H   0  0  0  0  0  0  0  0  0  0  0  0
   16.7438   -8.6232   -1.0953 H   0  0  0  0  0  0  0  0  0  0  0  0
   14.7131   -7.4621   -0.9969 H   0  0  0  0  0  0  0  0  0  0  0  0
   15.1739   -7.2386    0.7071 H   0  0  0  0  0  0  0  0  0  0  0  0
    9.7300   -0.2839   -1.1144 H   0  0  0  0  0  0  0  0  0  0  0  0
    8.3221    0.3625   -2.9907 H   0  0  0  0  0  0  0  0  0  0  0  0
    9.2648   -3.3074   -5.0122 H   0  0  0  0  0  0  0  0  0  0  0  0
  1  2  1  0  0  0  0
  1 36  1  0  0  0  0
  1 37  1  0  0  0  0
  1 38  1  0  0  0  0
  2  3  1  0  0  0  0
  2 39  1  0  0  0  0
  2 40  1  0  0  0  0
  3  4  1  0  0  0  0
  3 41  1  0  0  0  0
  3 42  1  0  0  0  0
  4  5  3  0  0  0  0
  5  6  1  0  0  0  0
  6 35  1  0  0  0  0
  6  7  2  0  0  0  0
  7  8  1  0  0  0  0
  7 43  1  0  0  0  0
  8  9  2  0  0  0  0
  8 44  1  0  0  0  0
  9 10  1  0  0  0  0
  9 35  1  0  0  0  0
 10 26  1  0  0  0  0
 10 11  2  0  0  0  0
 11 12  1  0  0  0  0
 11 13  1  0  0  0  0
 12 45  1  0  0  0  0
 12 46  1  0  0  0  0
 12 47  1  0  0  0  0
 13 14  1  0  0  0  0
 13 25  2  0  0  0  0
 14 15  2  0  0  0  0
 14 16  1  0  0  0  0
 16 17  1  0  0  0  0
 16 48  1  0  0  0  0
 17 24  1  0  0  0  0
 17 18  1  0  0  0  0
 18 49  1  0  0  0  0
 18 50  1  0  0  0  0
 19 18  1  0  0  0  0
 19 20  1  0  0  0  0
 19 23  1  0  0  0  0
 19 51  1  6  0  0  0
 20 21  1  0  0  0  0
 20 52  1  0  0  0  0
 20 53  1  0  0  0  0
 21 22  1  0  0  0  0
 21 54  1  0  0  0  0
 21 55  1  0  0  0  0
 22 56  1  0  0  0  0
 22 57  1  0  0  0  0
 23 22  1  0  0  0  0
 23 24  1  0  0  0  0
 23 58  1  6  0  0  0
 24 59  1  0  0  0  0
 24 60  1  0  0  0  0
 25 26  1  0  0  0  0
 26 27  1  0  0  0  0
 27 32  2  0  0  0  0
 27 28  1  0  0  0  0
 28 29  2  0  0  0  0
 28 61  1  0  0  0  0
 29 30  1  0  0  0  0
 29 62  1  0  0  0  0
 30 31  2  0  0  0  0
 30 34  1  0  0  0  0
 31 32  1  0  0  0  0
 31 63  1  0  0  0  0
 32 33  1  0  0  0  0
M  END
$$$$
CHEMBL1909850
 OpenBabel12022417373D

 53 56  0  0  0  0  0  0  0  0999 V2000
    3.1221    1.5258    0.7426 C   0  0  0  0  0  0  0  0  0  0  0  0
    2.7815    0.1618    0.1827 C   0  0  0  0  0  0  0  0  0  0  0  0
    3.1195   -1.0784    0.9718 C   0  0  0  0  0  0  0  0  0  0  0  0
    3.7702   -1.2186    2.2499 C   0  0  0  0  0  0  0  0  0  0  0  0
    4.4866   -0.2152    3.0868 C   0  0  0  0  0  0  0  0  0  0  0  0
    5.0830    0.7479    2.6173 O   0  0  0  0  0  0  0  0  0  0  0  0
    4.4585   -0.4619    4.4498 N   0  0  0  0  0  0  0  0  0  0  0  0
    5.0204    0.4619    5.4364 C   0  0  0  0  0  0  0  0  0  0  0  0
    3.9894    1.5289    5.8432 C   0  0  0  0  0  0  0  0  0  0  0  0
    4.4875    2.4381    6.9656 C   0  0  0  0  0  0  0  0  0  0  0  0
    4.9778    1.6384    8.1700 C   0  0  0  0  0  0  0  0  0  0  0  0
    6.0483    0.6341    7.7599 C   0  0  0  0  0  0  0  0  0  0  0  0
    5.5465   -0.3017    6.6598 C   0  0  0  0  0  0  0  0  0  0  0  0
    3.6471   -2.4775    2.7080 N   0  0  0  0  0  0  0  0  0  0  0  0
    3.1343   -3.2057    1.6889 N   0  0  0  0  0  0  0  0  0  0  0  0
    3.2600   -4.6300    1.7356 C   0  0  0  0  0  0  0  0  0  0  0  0
    3.6220   -5.3347    0.5693 C   0  0  0  0  0  0  0  0  0  0  0  0
    3.7461   -6.7281    0.5882 C   0  0  0  0  0  0  0  0  0  0  0  0
    3.5428   -7.4242    1.7747 C   0  0  0  0  0  0  0  0  0  0  0  0
    3.2025   -6.7427    2.9395 C   0  0  0  0  0  0  0  0  0  0  0  0
    3.0562   -5.3482    2.9272 C   0  0  0  0  0  0  0  0  0  0  0  0
    2.4741   -4.6439    4.3990 Cl  0  0  0  0  0  0  0  0  0  0  0  0
    3.7002   -9.1368    1.8003 Cl  0  0  0  0  0  0  0  0  0  0  0  0
    2.7176   -2.3823    0.6501 C   0  0  0  0  0  0  0  0  0  0  0  0
    1.9620   -2.8154   -0.4593 N   0  0  0  0  0  0  0  0  0  0  0  0
    1.9168   -2.2416   -1.7189 C   0  0  0  0  0  0  0  0  0  0  0  0
    1.0867   -2.9692   -2.5430 C   0  0  0  0  0  0  0  0  0  0  0  0
    0.5815   -4.0346   -1.7799 C   0  0  0  0  0  0  0  0  0  0  0  0
    1.1024   -3.9033   -0.5115 C   0  0  0  0  0  0  0  0  0  0  0  0
    2.6689    2.3052    0.1200 H   0  0  0  0  0  0  0  0  0  0  0  0
    4.2005    1.6991    0.7057 H   0  0  0  0  0  0  0  0  0  0  0  0
    2.7558    1.6612    1.7638 H   0  0  0  0  0  0  0  0  0  0  0  0
    3.2662    0.1008   -0.7959 H   0  0  0  0  0  0  0  0  0  0  0  0
    1.6950    0.1514    0.0158 H   0  0  0  0  0  0  0  0  0  0  0  0
    3.9218   -1.2729    4.7428 H   0  0  0  0  0  0  0  0  0  0  0  0
    5.8692    0.9770    4.9676 H   0  0  0  0  0  0  0  0  0  0  0  0
    3.0620    1.0394    6.1686 H   0  0  0  0  0  0  0  0  0  0  0  0
    3.7257    2.1446    4.9752 H   0  0  0  0  0  0  0  0  0  0  0  0
    3.6858    3.1160    7.2787 H   0  0  0  0  0  0  0  0  0  0  0  0
    5.3080    3.0667    6.5942 H   0  0  0  0  0  0  0  0  0  0  0  0
    4.1327    1.1100    8.6289 H   0  0  0  0  0  0  0  0  0  0  0  0
    5.3794    2.3196    8.9302 H   0  0  0  0  0  0  0  0  0  0  0  0
    6.3555    0.0477    8.6335 H   0  0  0  0  0  0  0  0  0  0  0  0
    6.9380    1.1729    7.4102 H   0  0  0  0  0  0  0  0  0  0  0  0
    6.3618   -0.9694    6.3559 H   0  0  0  0  0  0  0  0  0  0  0  0
    4.7547   -0.9424    7.0684 H   0  0  0  0  0  0  0  0  0  0  0  0
    3.8282   -4.8217   -0.3687 H   0  0  0  0  0  0  0  0  0  0  0  0
    4.0031   -7.2614   -0.3247 H   0  0  0  0  0  0  0  0  0  0  0  0
    3.0265   -7.3002    3.8566 H   0  0  0  0  0  0  0  0  0  0  0  0
    2.5194   -1.3849   -1.9703 H   0  0  0  0  0  0  0  0  0  0  0  0
    0.8815   -2.7531   -3.5843 H   0  0  0  0  0  0  0  0  0  0  0  0
   -0.1024   -4.8070   -2.1089 H   0  0  0  0  0  0  0  0  0  0  0  0
    0.9066   -4.5031    0.3658 H   0  0  0  0  0  0  0  0  0  0  0  0
  1  2  1  0  0  0  0
  1 30  1  0  0  0  0
  1 31  1  0  0  0  0
  1 32  1  0  0  0  0
  2  3  1  0  0  0  0
  2 33  1  0  0  0  0
  2 34  1  0  0  0  0
  3 24  2  0  0  0  0
  3  4  1  0  0  0  0
  4  5  1  0  0  0  0
  4 14  2  0  0  0  0
  5  6  2  0  0  0  0
  5  7  1  0  0  0  0
  7  8  1  0  0  0  0
  7 35  1  0  0  0  0
  8 13  1  0  0  0  0
  8  9  1  0  0  0  0
  8 36  1  0  0  0  0
  9 10  1  0  0  0  0
  9 37  1  0  0  0  0
  9 38  1  0  0  0  0
 10 11  1  0  0  0  0
 10 39  1  0  0  0  0
 10 40  1  0  0  0  0
 11 12  1  0  0  0  0
 11 41  1  0  0  0  0
 11 42  1  0  0  0  0
 12 13  1  0  0  0  0
 12 43  1  0  0  0  0
 12 44  1  0  0  0  0
 13 45  1  0  0  0  0
 13 46  1  0  0  0  0
 14 15  1  0  0  0  0
 15 16  1  0  0  0  0
 15 24  1  0  0  0  0
 16 21  2  0  0  0  0
 16 17  1  0  0  0  0
 17 18  2  0  0  0  0
 17 47  1  0  0  0  0
 18 19  1  0  0  0  0
 18 48  1  0  0  0  0
 19 20  2  0  0  0  0
 19 23  1  0  0  0  0
 20 21  1  0  0  0  0
 20 49  1  0  0  0  0
 21 22  1  0  0  0  0
 24 25  1  0  0  0  0
 25 29  1  0  0  0  0
 25 26  1  0  0  0  0
 26 27  2  0  0  0  0
 26 50  1  0  0  0  0
 27 28  1  0  0  0  0
 27 51  1  0  0  0  0
 28 29  2  0  0  0  0
 28 52  1  0  0  0  0
 29 53  1  0  0  0  0
M  END
$$$$
CHEMBL369097
 OpenBabel12022417373D

 51 54  0  0  0  0  0  0  0  0999 V2000
    2.2141    0.0944    0.0665 C   0  0  0  0  0  0  0  0  0  0  0  0
    0.7726   -0.0283    0.0120 N   0  0  0  0  0  0  0  0  0  0  0  0
   -0.0726    1.0673   -0.0335 C   0  0  0  0  0  0  0  0  0  0  0  0
    0.3206    2.4907   -0.0339 C   0  0  0  0  0  0  0  0  0  0  0  0
    1.4873    2.8736   -0.0074 O   0  0  0  0  0  0  0  0  0  0  0  0
   -0.7856    3.3410   -0.0561 N   0  0  0  0  0  0  0  0  0  0  0  0
   -0.7338    4.7652   -0.0433 N   0  0  0  0  0  0  0  0  0  0  0  0
   -0.1917    5.3111    1.2102 C   0  0  0  0  0  0  0  0  0  0  0  0
   -0.3129    6.8370    1.2514 C   0  0  0  0  0  0  0  0  0  0  0  0
    0.3379    7.4854    0.0345 C   0  0  0  0  0  0  0  0  0  0  0  0
   -0.2087    6.8651   -1.2469 C   0  0  0  0  0  0  0  0  0  0  0  0
   -0.0787    5.3362   -1.2275 C   0  0  0  0  0  0  0  0  0  0  0  0
   -1.3273    0.6748   -0.0991 N   0  0  0  0  0  0  0  0  0  0  0  0
   -1.3133   -0.7033   -0.0582 C   0  0  0  0  0  0  0  0  0  0  0  0
   -2.5608   -1.4750   -0.1241 C   0  0  0  0  0  0  0  0  0  0  0  0
   -2.5991   -2.6753   -0.8634 C   0  0  0  0  0  0  0  0  0  0  0  0
   -3.7378   -3.4843   -0.8924 C   0  0  0  0  0  0  0  0  0  0  0  0
   -4.8925   -3.0689   -0.2463 C   0  0  0  0  0  0  0  0  0  0  0  0
   -4.9101   -1.8615    0.4451 C   0  0  0  0  0  0  0  0  0  0  0  0
   -3.7504   -1.0710    0.5177 C   0  0  0  0  0  0  0  0  0  0  0  0
   -3.8861    0.3766    1.4607 Cl  0  0  0  0  0  0  0  0  0  0  0  0
   -6.3050   -4.0471   -0.3108 Cl  0  0  0  0  0  0  0  0  0  0  0  0
    0.0011   -1.1940    0.0025 C   0  0  0  0  0  0  0  0  0  0  0  0
    0.5269   -2.5826    0.0521 C   0  0  0  0  0  0  0  0  0  0  0  0
    1.6387   -2.9838   -0.7065 C   0  0  0  0  0  0  0  0  0  0  0  0
    2.1128   -4.3004   -0.6694 C   0  0  0  0  0  0  0  0  0  0  0  0
    1.4206   -5.2673    0.0504 C   0  0  0  0  0  0  0  0  0  0  0  0
    0.2850   -4.9132    0.7688 C   0  0  0  0  0  0  0  0  0  0  0  0
   -0.1271   -3.5753    0.8048 C   0  0  0  0  0  0  0  0  0  0  0  0
    1.9574   -6.9003    0.0323 Cl  0  0  0  0  0  0  0  0  0  0  0  0
    2.7014   -0.8714    0.1655 H   0  0  0  0  0  0  0  0  0  0  0  0
    2.4839    0.6890    0.9429 H   0  0  0  0  0  0  0  0  0  0  0  0
    2.5500    0.5762   -0.8555 H   0  0  0  0  0  0  0  0  0  0  0  0
   -1.7020    2.8930   -0.0531 H   0  0  0  0  0  0  0  0  0  0  0  0
    0.8606    5.0224    1.3426 H   0  0  0  0  0  0  0  0  0  0  0  0
   -0.7497    4.8992    2.0609 H   0  0  0  0  0  0  0  0  0  0  0  0
    0.1543    7.2220    2.1676 H   0  0  0  0  0  0  0  0  0  0  0  0
   -1.3718    7.1223    1.2919 H   0  0  0  0  0  0  0  0  0  0  0  0
    1.4244    7.3431    0.0784 H   0  0  0  0  0  0  0  0  0  0  0  0
    0.1546    8.5663    0.0383 H   0  0  0  0  0  0  0  0  0  0  0  0
    0.3287    7.2732   -2.1112 H   0  0  0  0  0  0  0  0  0  0  0  0
   -1.2627    7.1455   -1.3662 H   0  0  0  0  0  0  0  0  0  0  0  0
   -0.5480    4.9424   -2.1364 H   0  0  0  0  0  0  0  0  0  0  0  0
    0.9829    5.0684   -1.2637 H   0  0  0  0  0  0  0  0  0  0  0  0
   -1.7253   -3.0133   -1.4145 H   0  0  0  0  0  0  0  0  0  0  0  0
   -3.7091   -4.4322   -1.4247 H   0  0  0  0  0  0  0  0  0  0  0  0
   -5.8232   -1.5374    0.9380 H   0  0  0  0  0  0  0  0  0  0  0  0
    2.1555   -2.2808   -1.3563 H   0  0  0  0  0  0  0  0  0  0  0  0
    3.0111   -4.5659   -1.2232 H   0  0  0  0  0  0  0  0  0  0  0  0
   -0.2896   -5.6721    1.2962 H   0  0  0  0  0  0  0  0  0  0  0  0
   -1.0070   -3.3327    1.3998 H   0  0  0  0  0  0  0  0  0  0  0  0
  1  2  1  0  0  0  0
  1 31  1  0  0  0  0
  1 32  1  0  0  0  0
  1 33  1  0  0  0  0
  2 23  1  0  0  0  0
  2  3  1  0  0  0  0
  3  4  1  0  0  0  0
  3 13  2  0  0  0  0
  4  5  2  0  0  0  0
  4  6  1  0  0  0  0
  6  7  1  0  0  0  0
  6 34  1  0  0  0  0
  7 12  1  0  0  0  0
  7  8  1  0  0  0  0
  8  9  1  0  0  0  0
  8 35  1  0  0  0  0
  8 36  1  0  0  0  0
  9 10  1  0  0  0  0
  9 37  1  0  0  0  0
  9 38  1  0  0  0  0
 10 11  1  0  0  0  0
 10 39  1  0  0  0  0
 10 40  1  0  0  0  0
 11 12  1  0  0  0  0
 11 41  1  0  0  0  0
 11 42  1  0  0  0  0
 12 43  1  0  0  0  0
 12 44  1  0  0  0  0
 13 14  1  0  0  0  0
 14 15  1  0  0  0  0
 14 23  2  0  0  0  0
 15 20  2  0  0  0  0
 15 16  1  0  0  0  0
 16 17  2  0  0  0  0
 16 45  1  0  0  0  0
 17 18  1  0  0  0  0
 17 46  1  0  0  0  0
 18 19  2  0  0  0  0
 18 22  1  0  0  0  0
 19 20  1  0  0  0  0
 19 47  1  0  0  0  0
 20 21  1  0  0  0  0
 23 24  1  0  0  0  0
 24 29  2  0  0  0  0
 24 25  1  0  0  0  0
 25 26  2  0  0  0  0
 25 48  1  0  0  0  0
 26 27  1  0  0  0  0
 26 49  1  0  0  0  0
 27 28  2  0  0  0  0
 27 30  1  0  0  0  0
 28 29  1  0  0  0  0
 28 50  1  0  0  0  0
 29 51  1  0  0  0  0
M  END
$$$$
CHEMBL565742
 OpenBabel12022417373D

 48 51  0  0  0  0  0  0  0  0999 V2000
    1.0606    0.2277    0.1285 C   0  0  0  0  0  0  0  0  0  0  0  0
    2.5289    0.0214   -0.0084 C   0  0  0  0  0  0  0  0  0  0  0  0
    3.5104    1.0449   -0.0797 C   0  0  0  0  0  0  0  0  0  0  0  0
    3.3027    2.5237   -0.0719 C   0  0  0  0  0  0  0  0  0  0  0  0
    2.1479    3.2559    0.0357 C   0  0  0  0  0  0  0  0  0  0  0  0
    2.3988    4.5997   -0.0490 N   0  0  0  0  0  0  0  0  0  0  0  0
    3.7009    4.7091   -0.2195 C   0  0  0  0  0  0  0  0  0  0  0  0
    4.4492    5.9852   -0.4603 C   0  0  0  0  0  0  0  0  0  0  0  0
    3.9583    6.6361   -1.7571 C   0  0  0  0  0  0  0  0  0  0  0  0
    4.2678    6.9537    0.7105 C   0  0  0  0  0  0  0  0  0  0  0  0
    4.2966    3.4640   -0.1959 N   0  0  0  0  0  0  0  0  0  0  0  0
    4.7402    0.5473   -0.1729 N   0  0  0  0  0  0  0  0  0  0  0  0
    4.5919   -0.8019   -0.1825 N   0  0  0  0  0  0  0  0  0  0  0  0
    5.7436   -1.6197   -0.4097 C   0  0  0  0  0  0  0  0  0  0  0  0
    5.6357   -2.7449   -1.2490 C   0  0  0  0  0  0  0  0  0  0  0  0
    6.7330   -3.5822   -1.4679 C   0  0  0  0  0  0  0  0  0  0  0  0
    7.9573   -3.2852   -0.8805 C   0  0  0  0  0  0  0  0  0  0  0  0
    8.0917   -2.1653   -0.0642 C   0  0  0  0  0  0  0  0  0  0  0  0
    6.9903   -1.3309    0.1802 C   0  0  0  0  0  0  0  0  0  0  0  0
    7.2532   -0.0720    1.3407 Cl  0  0  0  0  0  0  0  0  0  0  0  0
    9.3089   -4.3121   -1.1565 Cl  0  0  0  0  0  0  0  0  0  0  0  0
    3.2429   -1.1817   -0.0706 C   0  0  0  0  0  0  0  0  0  0  0  0
    2.7348   -2.5724    0.0407 C   0  0  0  0  0  0  0  0  0  0  0  0
    3.4151   -3.5535    0.7823 C   0  0  0  0  0  0  0  0  0  0  0  0
    2.9532   -4.8745    0.8328 C   0  0  0  0  0  0  0  0  0  0  0  0
    1.7568   -5.2145    0.2108 C   0  0  0  0  0  0  0  0  0  0  0  0
    1.0366   -4.2516   -0.4854 C   0  0  0  0  0  0  0  0  0  0  0  0
    1.5410   -2.9507   -0.5958 C   0  0  0  0  0  0  0  0  0  0  0  0
    1.1706   -6.8281    0.2974 Cl  0  0  0  0  0  0  0  0  0  0  0  0
    0.5032   -0.6935    0.2934 H   0  0  0  0  0  0  0  0  0  0  0  0
    0.6643    0.7022   -0.7765 H   0  0  0  0  0  0  0  0  0  0  0  0
    0.8428    0.8645    0.9907 H   0  0  0  0  0  0  0  0  0  0  0  0
    1.1316    2.9191    0.1587 H   0  0  0  0  0  0  0  0  0  0  0  0
    5.5194    5.7701   -0.5660 H   0  0  0  0  0  0  0  0  0  0  0  0
    2.8883    6.8700   -1.7099 H   0  0  0  0  0  0  0  0  0  0  0  0
    4.1115    5.9682   -2.6121 H   0  0  0  0  0  0  0  0  0  0  0  0
    4.4957    7.5692   -1.9566 H   0  0  0  0  0  0  0  0  0  0  0  0
    3.2130    7.2108    0.8636 H   0  0  0  0  0  0  0  0  0  0  0  0
    4.8153    7.8859    0.5320 H   0  0  0  0  0  0  0  0  0  0  0  0
    4.6415    6.5181    1.6431 H   0  0  0  0  0  0  0  0  0  0  0  0
    5.2781    3.2536   -0.3009 H   0  0  0  0  0  0  0  0  0  0  0  0
    4.7055   -2.9837   -1.7602 H   0  0  0  0  0  0  0  0  0  0  0  0
    6.6239   -4.4609   -2.1002 H   0  0  0  0  0  0  0  0  0  0  0  0
    9.0509   -1.9541    0.4033 H   0  0  0  0  0  0  0  0  0  0  0  0
    4.3327   -3.3170    1.3175 H   0  0  0  0  0  0  0  0  0  0  0  0
    3.5305   -5.6281    1.3621 H   0  0  0  0  0  0  0  0  0  0  0  0
    0.0887   -4.5033   -0.9541 H   0  0  0  0  0  0  0  0  0  0  0  0
    0.9764   -2.2365   -1.1895 H   0  0  0  0  0  0  0  0  0  0  0  0
  1  2  1  0  0  0  0
  1 30  1  0  0  0  0
  1 31  1  0  0  0  0
  1 32  1  0  0  0  0
  2 22  2  0  0  0  0
  2  3  1  0  0  0  0
  3  4  1  0  0  0  0
  3 12  2  0  0  0  0
  4 11  1  0  0  0  0
  4  5  2  0  0  0  0
  5  6  1  0  0  0  0
  5 33  1  0  0  0  0
  6  7  2  0  0  0  0
  7  8  1  0  0  0  0
  7 11  1  0  0  0  0
  8  9  1  0  0  0  0
  8 10  1  0  0  0  0
  8 34  1  0  0  0  0
  9 35  1  0  0  0  0
  9 36  1  0  0  0  0
  9 37  1  0  0  0  0
 10 38  1  0  0  0  0
 10 39  1  0  0  0  0
 10 40  1  0  0  0  0
 11 41  1  0  0  0  0
 12 13  1  0  0  0  0
 13 14  1  0  0  0  0
 13 22  1  0  0  0  0
 14 19  2  0  0  0  0
 14 15  1  0  0  0  0
 15 16  2  0  0  0  0
 15 42  1  0  0  0  0
 16 17  1  0  0  0  0
 16 43  1  0  0  0  0
 17 18  2  0  0  0  0
 17 21  1  0  0  0  0
 18 19  1  0  0  0  0
 18 44  1  0  0  0  0
 19 20  1  0  0  0  0
 22 23  1  0  0  0  0
 23 28  2  0  0  0  0
 23 24  1  0  0  0  0
 24 25  2  0  0  0  0
 24 45  1  0  0  0  0
 25 26  1  0  0  0  0
 25 46  1  0  0  0  0
 26 27  2  0  0  0  0
 26 29  1  0  0  0  0
 27 28  1  0  0  0  0
 27 47  1  0  0  0  0
 28 48  1  0  0  0  0
M  END
$$$$
CHEMBL175292
 OpenBabel12022417373D

 51 54  0  0  0  0  0  0  0  0999 V2000
    1.1919    0.3592    0.1647 C   0  0  0  0  0  0  0  0  0  0  0  0
    2.6637    0.1561    0.0503 C   0  0  0  0  0  0  0  0  0  0  0  0
    3.6452    1.1358   -0.0369 C   0  0  0  0  0  0  0  0  0  0  0  0
    3.4516    2.6037   -0.0782 C   0  0  0  0  0  0  0  0  0  0  0  0
    2.3379    3.1197   -0.1429 O   0  0  0  0  0  0  0  0  0  0  0  0
    4.6536    3.3021   -0.0276 N   0  0  0  0  0  0  0  0  0  0  0  0
    4.7849    4.7193   -0.0184 N   0  0  0  0  0  0  0  0  0  0  0  0
    4.4012    5.3400   -1.2921 C   0  0  0  0  0  0  0  0  0  0  0  0
    4.7630    6.8321   -1.3022 C   0  0  0  0  0  0  0  0  0  0  0  0
    4.1421    7.5710   -0.1195 C   0  0  0  0  0  0  0  0  0  0  0  0
    4.4736    6.8562    1.1882 C   0  0  0  0  0  0  0  0  0  0  0  0
    4.1218    5.3643    1.1252 C   0  0  0  0  0  0  0  0  0  0  0  0
    4.8918    0.5492   -0.0535 N   0  0  0  0  0  0  0  0  0  0  0  0
    4.7150   -0.7619    0.0116 C   0  0  0  0  0  0  0  0  0  0  0  0
    5.8290   -1.7312   -0.1447 C   0  0  0  0  0  0  0  0  0  0  0  0
    5.6684   -2.8701   -0.9605 C   0  0  0  0  0  0  0  0  0  0  0  0
    6.6950   -3.8078   -1.1209 C   0  0  0  0  0  0  0  0  0  0  0  0
    7.9273   -3.5904   -0.5200 C   0  0  0  0  0  0  0  0  0  0  0  0
    8.1343   -2.4574    0.2591 C   0  0  0  0  0  0  0  0  0  0  0  0
    7.0907   -1.5393    0.4567 C   0  0  0  0  0  0  0  0  0  0  0  0
    7.4395   -0.2012    1.5014 Cl  0  0  0  0  0  0  0  0  0  0  0  0
    9.1993   -4.7246   -0.7438 Cl  0  0  0  0  0  0  0  0  0  0  0  0
    3.3431   -1.0639    0.1196 N   0  0  0  0  0  0  0  0  0  0  0  0
    2.7578   -2.3616    0.2747 C   0  0  0  0  0  0  0  0  0  0  0  0
    3.3475   -3.3116    1.1218 C   0  0  0  0  0  0  0  0  0  0  0  0
    2.7972   -4.5935    1.2354 C   0  0  0  0  0  0  0  0  0  0  0  0
    1.6447   -4.9213    0.5243 C   0  0  0  0  0  0  0  0  0  0  0  0
    1.0469   -3.9854   -0.3171 C   0  0  0  0  0  0  0  0  0  0  0  0
    1.6091   -2.7106   -0.4525 C   0  0  0  0  0  0  0  0  0  0  0  0
    0.8913   -6.6457    0.6965 Br  0  0  0  0  0  0  0  0  0  0  0  0
    0.6335   -0.5368    0.4361 H   0  0  0  0  0  0  0  0  0  0  0  0
    0.7938    0.7368   -0.7835 H   0  0  0  0  0  0  0  0  0  0  0  0
    0.9715    1.0938    0.9458 H   0  0  0  0  0  0  0  0  0  0  0  0
    5.5027    2.7363    0.0364 H   0  0  0  0  0  0  0  0  0  0  0  0
    3.3265    5.2272   -1.4835 H   0  0  0  0  0  0  0  0  0  0  0  0
    4.9340    4.8569   -2.1184 H   0  0  0  0  0  0  0  0  0  0  0  0
    4.4261    7.2921   -2.2389 H   0  0  0  0  0  0  0  0  0  0  0  0
    5.8530    6.9460   -1.2668 H   0  0  0  0  0  0  0  0  0  0  0  0
    3.0532    7.6190   -0.2465 H   0  0  0  0  0  0  0  0  0  0  0  0
    4.5059    8.6041   -0.0881 H   0  0  0  0  0  0  0  0  0  0  0  0
    3.9314    7.3325    2.0135 H   0  0  0  0  0  0  0  0  0  0  0  0
    5.5435    6.9720    1.4035 H   0  0  0  0  0  0  0  0  0  0  0  0
    4.4486    4.8947    2.0589 H   0  0  0  0  0  0  0  0  0  0  0  0
    3.0311    5.2597    1.0684 H   0  0  0  0  0  0  0  0  0  0  0  0
    4.7321   -3.0562   -1.4829 H   0  0  0  0  0  0  0  0  0  0  0  0
    6.5223   -4.6975   -1.7223 H   0  0  0  0  0  0  0  0  0  0  0  0
    9.1054   -2.2861    0.7161 H   0  0  0  0  0  0  0  0  0  0  0  0
    4.2274   -3.0774    1.7167 H   0  0  0  0  0  0  0  0  0  0  0  0
    3.2724   -5.3268    1.8832 H   0  0  0  0  0  0  0  0  0  0  0  0
    0.1510   -4.2396   -0.8774 H   0  0  0  0  0  0  0  0  0  0  0  0
    1.1535   -2.0246   -1.1608 H   0  0  0  0  0  0  0  0  0  0  0  0
  1  2  1  0  0  0  0
  1 31  1  0  0  0  0
  1 32  1  0  0  0  0
  1 33  1  0  0  0  0
  2 23  1  0  0  0  0
  2  3  2  0  0  0  0
  3  4  1  0  0  0  0
  3 13  1  0  0  0  0
  4  5  2  0  0  0  0
  4  6  1  0  0  0  0
  6  7  1  0  0  0  0
  6 34  1  0  0  0  0
  7 12  1  0  0  0  0
  7  8  1  0  0  0  0
  8  9  1  0  0  0  0
  8 35  1  0  0  0  0
  8 36  1  0  0  0  0
  9 10  1  0  0  0  0
  9 37  1  0  0  0  0
  9 38  1  0  0  0  0
 10 11  1  0  0  0  0
 10 39  1  0  0  0  0
 10 40  1  0  0  0  0
 11 12  1  0  0  0  0
 11 41  1  0  0  0  0
 11 42  1  0  0  0  0
 12 43  1  0  0  0  0
 12 44  1  0  0  0  0
 13 14  2  0  0  0  0
 14 15  1  0  0  0  0
 14 23  1  0  0  0  0
 15 20  2  0  0  0  0
 15 16  1  0  0  0  0
 16 17  2  0  0  0  0
 16 45  1  0  0  0  0
 17 18  1  0  0  0  0
 17 46  1  0  0  0  0
 18 19  2  0  0  0  0
 18 22  1  0  0  0  0
 19 20  1  0  0  0  0
 19 47  1  0  0  0  0
 20 21  1  0  0  0  0
 23 24  1  0  0  0  0
 24 29  2  0  0  0  0
 24 25  1  0  0  0  0
 25 26  2  0  0  0  0
 25 48  1  0  0  0  0
 26 27  1  0  0  0  0
 26 49  1  0  0  0  0
 27 28  2  0  0  0  0
 27 30  1  0  0  0  0
 28 29  1  0  0  0  0
 28 50  1  0  0  0  0
 29 51  1  0  0  0  0
M  END
$$$$
CHEMBL174163
 OpenBabel12022417373D

 54 57  0  0  0  0  0  0  0  0999 V2000
    1.2068    0.2920    0.1733 C   0  0  0  0  0  0  0  0  0  0  0  0
    2.6808    0.1140    0.0408 C   0  0  0  0  0  0  0  0  0  0  0  0
    3.6471    1.1146   -0.0419 C   0  0  0  0  0  0  0  0  0  0  0  0
    3.4392    2.5787   -0.0804 C   0  0  0  0  0  0  0  0  0  0  0  0
    2.3254    3.0938   -0.1338 O   0  0  0  0  0  0  0  0  0  0  0  0
    4.6445    3.2839   -0.0531 N   0  0  0  0  0  0  0  0  0  0  0  0
    4.7786    4.6990   -0.0513 N   0  0  0  0  0  0  0  0  0  0  0  0
    4.3941    5.3193   -1.3263 C   0  0  0  0  0  0  0  0  0  0  0  0
    4.7666    6.8069   -1.3415 C   0  0  0  0  0  0  0  0  0  0  0  0
    4.1595    7.5520   -0.1570 C   0  0  0  0  0  0  0  0  0  0  0  0
    4.4941    6.8406    1.1505 C   0  0  0  0  0  0  0  0  0  0  0  0
    4.1287    5.3528    1.0935 C   0  0  0  0  0  0  0  0  0  0  0  0
    4.9010    0.5460   -0.0782 N   0  0  0  0  0  0  0  0  0  0  0  0
    4.7466   -0.7673   -0.0382 C   0  0  0  0  0  0  0  0  0  0  0  0
    5.8825   -1.7050   -0.2272 C   0  0  0  0  0  0  0  0  0  0  0  0
    5.7506   -2.8123   -1.0903 C   0  0  0  0  0  0  0  0  0  0  0  0
    6.7759   -3.7506   -1.2410 C   0  0  0  0  0  0  0  0  0  0  0  0
    7.9911   -3.5487   -0.6008 C   0  0  0  0  0  0  0  0  0  0  0  0
    8.1801   -2.4306    0.2044 C   0  0  0  0  0  0  0  0  0  0  0  0
    7.1294   -1.5217    0.4045 C   0  0  0  0  0  0  0  0  0  0  0  0
    7.4495   -0.2111    1.4910 Cl  0  0  0  0  0  0  0  0  0  0  0  0
    9.2645   -4.6843   -0.8117 Cl  0  0  0  0  0  0  0  0  0  0  0  0
    3.3790   -1.0987    0.0744 N   0  0  0  0  0  0  0  0  0  0  0  0
    2.8268   -2.4266    0.1452 C   0  0  0  0  0  0  0  0  0  0  0  0
    3.4982   -3.4435    0.8429 C   0  0  0  0  0  0  0  0  0  0  0  0
    3.0844   -4.7782    0.7369 C   0  0  0  0  0  0  0  0  0  0  0  0
    1.9535   -5.1182   -0.0155 C   0  0  0  0  0  0  0  0  0  0  0  0
    1.5109   -6.5560   -0.1647 C   0  0  0  0  0  0  0  0  0  0  0  0
    2.3928   -7.4538    0.3574 F   0  0  0  0  0  0  0  0  0  0  0  0
    0.3193   -6.8019    0.4441 F   0  0  0  0  0  0  0  0  0  0  0  0
    1.3471   -6.9158   -1.4690 F   0  0  0  0  0  0  0  0  0  0  0  0
    1.2351   -4.0894   -0.6427 C   0  0  0  0  0  0  0  0  0  0  0  0
    1.6759   -2.7597   -0.5801 C   0  0  0  0  0  0  0  0  0  0  0  0
    0.6741   -0.6103    0.4725 H   0  0  0  0  0  0  0  0  0  0  0  0
    0.7897    0.6422   -0.7778 H   0  0  0  0  0  0  0  0  0  0  0  0
    0.9806    1.0394    0.9399 H   0  0  0  0  0  0  0  0  0  0  0  0
    5.4934    2.7225   -0.0002 H   0  0  0  0  0  0  0  0  0  0  0  0
    3.3189    5.2093   -1.5134 H   0  0  0  0  0  0  0  0  0  0  0  0
    4.9223    4.8280   -2.1526 H   0  0  0  0  0  0  0  0  0  0  0  0
    4.4287    7.2671   -2.2772 H   0  0  0  0  0  0  0  0  0  0  0  0
    5.8590    6.9134   -1.3126 H   0  0  0  0  0  0  0  0  0  0  0  0
    3.0708    7.6090   -0.2772 H   0  0  0  0  0  0  0  0  0  0  0  0
    4.5322    8.5829   -0.1299 H   0  0  0  0  0  0  0  0  0  0  0  0
    3.9611    7.3240    1.9776 H   0  0  0  0  0  0  0  0  0  0  0  0
    5.5666    6.9495    1.3575 H   0  0  0  0  0  0  0  0  0  0  0  0
    4.4594    4.8828    2.0276 H   0  0  0  0  0  0  0  0  0  0  0  0
    3.0378    5.2543    1.0449 H   0  0  0  0  0  0  0  0  0  0  0  0
    4.8273   -2.9823   -1.6414 H   0  0  0  0  0  0  0  0  0  0  0  0
    6.6152   -4.6298   -1.8608 H   0  0  0  0  0  0  0  0  0  0  0  0
    9.1417   -2.2691    0.6859 H   0  0  0  0  0  0  0  0  0  0  0  0
    4.3718   -3.2311    1.4567 H   0  0  0  0  0  0  0  0  0  0  0  0
    3.6672   -5.5562    1.2311 H   0  0  0  0  0  0  0  0  0  0  0  0
    0.3418   -4.3280   -1.2206 H   0  0  0  0  0  0  0  0  0  0  0  0
    1.1347   -2.0221   -1.1675 H   0  0  0  0  0  0  0  0  0  0  0  0
  1  2  1  0  0  0  0
  1 34  1  0  0  0  0
  1 35  1  0  0  0  0
  1 36  1  0  0  0  0
  2 23  1  0  0  0  0
  2  3  2  0  0  0  0
  3  4  1  0  0  0  0
  3 13  1  0  0  0  0
  4  5  2  0  0  0  0
  4  6  1  0  0  0  0
  6  7  1  0  0  0  0
  6 37  1  0  0  0  0
  7 12  1  0  0  0  0
  7  8  1  0  0  0  0
  8  9  1  0  0  0  0
  8 38  1  0  0  0  0
  8 39  1  0  0  0  0
  9 10  1  0  0  0  0
  9 40  1  0  0  0  0
  9 41  1  0  0  0  0
 10 11  1  0  0  0  0
 10 42  1  0  0  0  0
 10 43  1  0  0  0  0
 11 12  1  0  0  0  0
 11 44  1  0  0  0  0
 11 45  1  0  0  0  0
 12 46  1  0  0  0  0
 12 47  1  0  0  0  0
 13 14  2  0  0  0  0
 14 15  1  0  0  0  0
 14 23  1  0  0  0  0
 15 20  2  0  0  0  0
 15 16  1  0  0  0  0
 16 17  2  0  0  0  0
 16 48  1  0  0  0  0
 17 18  1  0  0  0  0
 17 49  1  0  0  0  0
 18 19  2  0  0  0  0
 18 22  1  0  0  0  0
 19 20  1  0  0  0  0
 19 50  1  0  0  0  0
 20 21  1  0  0  0  0
 23 24  1  0  0  0  0
 24 33  2  0  0  0  0
 24 25  1  0  0  0  0
 25 26  2  0  0  0  0
 25 51  1  0  0  0  0
 26 27  1  0  0  0  0
 26 52  1  0  0  0  0
 27 28  1  0  0  0  0
 27 32  2  0  0  0  0
 28 29  1  0  0  0  0
 28 30  1  0  0  0  0
 28 31  1  0  0  0  0
 32 33  1  0  0  0  0
 32 53  1  0  0  0  0
 33 54  1  0  0  0  0
M  END
$$$$
CHEMBL271782
 OpenBabel12022417373D

 56 59  0  0  0  0  0  0  0  0999 V2000
   -0.1042   -1.0157    0.0918 N   0  0  0  0  0  0  0  0  0  0  0  0
   -0.9822    0.0362    0.0605 N   0  0  0  0  0  0  0  0  0  0  0  0
   -0.2283    1.1469   -0.0692 C   0  0  0  0  0  0  0  0  0  0  0  0
    1.1570    0.8104   -0.1683 C   0  0  0  0  0  0  0  0  0  0  0  0
    1.2134   -0.5687   -0.0196 C   0  0  0  0  0  0  0  0  0  0  0  0
    2.3839   -1.3580   -0.0585 N   0  0  0  0  0  0  0  0  0  0  0  0
    2.6318   -2.5192   -0.8047 C   0  0  0  0  0  0  0  0  0  0  0  0
    3.9158   -2.9553   -0.5368 C   0  0  0  0  0  0  0  0  0  0  0  0
    4.5098   -2.0431    0.3388 C   0  0  0  0  0  0  0  0  0  0  0  0
    3.5627   -1.0907    0.6549 C   0  0  0  0  0  0  0  0  0  0  0  0
    3.7354   -0.0205    1.6821 C   0  0  0  0  0  0  0  0  0  0  0  0
    1.7206   -3.1567   -1.7940 C   0  0  0  0  0  0  0  0  0  0  0  0
    2.2698    1.7608   -0.4603 C   0  0  0  0  0  0  0  0  0  0  0  0
   -0.8051    2.5222   -0.1182 C   0  0  0  0  0  0  0  0  0  0  0  0
   -0.0987    3.5287   -0.1240 O   0  0  0  0  0  0  0  0  0  0  0  0
   -2.1870    2.6010   -0.1550 N   0  0  0  0  0  0  0  0  0  0  0  0
   -2.8929    3.8814   -0.2417 C   0  0  0  0  0  0  0  0  0  0  0  0
   -3.0705    4.3413   -1.6977 C   0  0  0  0  0  0  0  0  0  0  0  0
   -3.8089    5.6810   -1.7819 C   0  0  0  0  0  0  0  0  0  0  0  0
   -5.1489    5.6431   -1.0536 C   0  0  0  0  0  0  0  0  0  0  0  0
   -4.9996    5.1547    0.3845 C   0  0  0  0  0  0  0  0  0  0  0  0
   -4.2546    3.8194    0.4637 C   0  0  0  0  0  0  0  0  0  0  0  0
   -0.6004   -2.3491    0.2243 C   0  0  0  0  0  0  0  0  0  0  0  0
   -1.6299   -2.8088   -0.6300 C   0  0  0  0  0  0  0  0  0  0  0  0
   -1.8927   -4.1821   -0.7417 C   0  0  0  0  0  0  0  0  0  0  0  0
   -1.1493   -5.1000   -0.0074 C   0  0  0  0  0  0  0  0  0  0  0  0
   -0.2143   -4.6594    0.9199 C   0  0  0  0  0  0  0  0  0  0  0  0
    0.0288   -3.2875    1.0659 C   0  0  0  0  0  0  0  0  0  0  0  0
    1.0338   -2.8381    2.4031 Cl  0  0  0  0  0  0  0  0  0  0  0  0
   -1.3719   -6.7852   -0.2681 Cl  0  0  0  0  0  0  0  0  0  0  0  0
   -2.5329   -1.8012   -1.7115 Cl  0  0  0  0  0  0  0  0  0  0  0  0
    4.3830   -3.8329   -0.9663 H   0  0  0  0  0  0  0  0  0  0  0  0
    5.5154   -2.0854    0.7388 H   0  0  0  0  0  0  0  0  0  0  0  0
    2.7976    0.4112    2.0291 H   0  0  0  0  0  0  0  0  0  0  0  0
    4.3771    0.7799    1.2819 H   0  0  0  0  0  0  0  0  0  0  0  0
    4.2421   -0.4253    2.5638 H   0  0  0  0  0  0  0  0  0  0  0  0
    0.8426   -2.5560   -2.0359 H   0  0  0  0  0  0  0  0  0  0  0  0
    1.3998   -4.1398   -1.4385 H   0  0  0  0  0  0  0  0  0  0  0  0
    2.2522   -3.3216   -2.7348 H   0  0  0  0  0  0  0  0  0  0  0  0
    1.9427    2.5857   -1.0997 H   0  0  0  0  0  0  0  0  0  0  0  0
    3.0845    1.2651   -0.9969 H   0  0  0  0  0  0  0  0  0  0  0  0
    2.6621    2.1931    0.4646 H   0  0  0  0  0  0  0  0  0  0  0  0
   -2.6808    1.7185   -0.2450 H   0  0  0  0  0  0  0  0  0  0  0  0
   -2.2775    4.6307    0.2755 H   0  0  0  0  0  0  0  0  0  0  0  0
   -3.6302    3.5851   -2.2626 H   0  0  0  0  0  0  0  0  0  0  0  0
   -2.0951    4.4380   -2.1891 H   0  0  0  0  0  0  0  0  0  0  0  0
   -3.9722    5.9497   -2.8319 H   0  0  0  0  0  0  0  0  0  0  0  0
   -3.1837    6.4708   -1.3471 H   0  0  0  0  0  0  0  0  0  0  0  0
   -5.8401    4.9857   -1.5943 H   0  0  0  0  0  0  0  0  0  0  0  0
   -5.5993    6.6444   -1.0572 H   0  0  0  0  0  0  0  0  0  0  0  0
   -5.9914    5.0504    0.8392 H   0  0  0  0  0  0  0  0  0  0  0  0
   -4.4608    5.9113    0.9691 H   0  0  0  0  0  0  0  0  0  0  0  0
   -4.1208    3.5429    1.5164 H   0  0  0  0  0  0  0  0  0  0  0  0
   -4.8716    3.0342    0.0099 H   0  0  0  0  0  0  0  0  0  0  0  0
   -2.6399   -4.5401   -1.4460 H   0  0  0  0  0  0  0  0  0  0  0  0
    0.3427   -5.3823    1.5128 H   0  0  0  0  0  0  0  0  0  0  0  0
  1  5  1  0  0  0  0
  1  2  1  0  0  0  0
  1 23  1  0  0  0  0
  2  3  2  0  0  0  0
  3  4  1  0  0  0  0
  3 14  1  0  0  0  0
  4  5  2  0  0  0  0
  4 13  1  0  0  0  0
  5  6  1  0  0  0  0
  6 10  1  0  0  0  0
  6  7  1  0  0  0  0
  7  8  2  0  0  0  0
  7 12  1  0  0  0  0
  8  9  1  0  0  0  0
  8 32  1  0  0  0  0
  9 10  2  0  0  0  0
  9 33  1  0  0  0  0
 10 11  1  0  0  0  0
 11 34  1  0  0  0  0
 11 35  1  0  0  0  0
 11 36  1  0  0  0  0
 12 37  1  0  0  0  0
 12 38  1  0  0  0  0
 12 39  1  0  0  0  0
 13 40  1  0  0  0  0
 13 41  1  0  0  0  0
 13 42  1  0  0  0  0
 14 15  2  0  0  0  0
 14 16  1  0  0  0  0
 16 17  1  0  0  0  0
 16 43  1  0  0  0  0
 17 22  1  0  0  0  0
 17 18  1  0  0  0  0
 17 44  1  0  0  0  0
 18 19  1  0  0  0  0
 18 45  1  0  0  0  0
 18 46  1  0  0  0  0
 19 20  1  0  0  0  0
 19 47  1  0  0  0  0
 19 48  1  0  0  0  0
 20 21  1  0  0  0  0
 20 49  1  0  0  0  0
 20 50  1  0  0  0  0
 21 22  1  0  0  0  0
 21 51  1  0  0  0  0
 21 52  1  0  0  0  0
 22 53  1  0  0  0  0
 22 54  1  0  0  0  0
 23 28  2  0  0  0  0
 23 24  1  0  0  0  0
 24 25  2  0  0  0  0
 24 31  1  0  0  0  0
 25 26  1  0  0  0  0
 25 55  1  0  0  0  0
 26 27  2  0  0  0  0
 26 30  1  0  0  0  0
 27 28  1  0  0  0  0
 27 56  1  0  0  0  0
 28 29  1  0  0  0  0
M  END
$$$$
CHEMBL259476
 OpenBabel12022417373D

 55 58  0  0  0  0  0  0  0  0999 V2000
   -0.1226   -1.0009    0.0470 N   0  0  0  0  0  0  0  0  0  0  0  0
   -0.9754    0.0680   -0.0122 N   0  0  0  0  0  0  0  0  0  0  0  0
   -0.1959    1.1577   -0.0904 C   0  0  0  0  0  0  0  0  0  0  0  0
    1.1821    0.7949   -0.1635 C   0  0  0  0  0  0  0  0  0  0  0  0
    1.2042   -0.5825    0.0078 C   0  0  0  0  0  0  0  0  0  0  0  0
    2.3554   -1.3934    0.0193 N   0  0  0  0  0  0  0  0  0  0  0  0
    2.5894   -2.5730   -0.6978 C   0  0  0  0  0  0  0  0  0  0  0  0
    3.8888   -2.9843   -0.4641 C   0  0  0  0  0  0  0  0  0  0  0  0
    4.4873   -2.0629    0.4003 C   0  0  0  0  0  0  0  0  0  0  0  0
    3.5355   -1.1196    0.7298 C   0  0  0  0  0  0  0  0  0  0  0  0
    3.7232   -0.0226    1.7260 C   0  0  0  0  0  0  0  0  0  0  0  0
    1.6483   -3.2356   -1.6452 C   0  0  0  0  0  0  0  0  0  0  0  0
    2.3090    1.7305   -0.4483 C   0  0  0  0  0  0  0  0  0  0  0  0
   -0.7333    2.5404   -0.1078 C   0  0  0  0  0  0  0  0  0  0  0  0
    0.0079    3.5164   -0.0281 O   0  0  0  0  0  0  0  0  0  0  0  0
   -2.1221    2.6266   -0.2019 N   0  0  0  0  0  0  0  0  0  0  0  0
   -2.8413    3.8619   -0.2240 N   0  0  0  0  0  0  0  0  0  0  0  0
   -2.6633    4.6412    1.0151 C   0  0  0  0  0  0  0  0  0  0  0  0
   -3.5403    5.8969    1.0223 C   0  0  0  0  0  0  0  0  0  0  0  0
   -3.3096    6.7566   -0.2158 C   0  0  0  0  0  0  0  0  0  0  0  0
   -3.4254    5.9158   -1.4818 C   0  0  0  0  0  0  0  0  0  0  0  0
   -2.5314    4.6744   -1.4134 C   0  0  0  0  0  0  0  0  0  0  0  0
   -0.6745   -2.2934    0.3054 C   0  0  0  0  0  0  0  0  0  0  0  0
   -0.0318   -3.1580    1.2106 C   0  0  0  0  0  0  0  0  0  0  0  0
   -0.5469   -4.4366    1.4562 C   0  0  0  0  0  0  0  0  0  0  0  0
   -1.7102   -4.8537    0.8166 C   0  0  0  0  0  0  0  0  0  0  0  0
   -2.3573   -4.0125   -0.0829 C   0  0  0  0  0  0  0  0  0  0  0  0
   -1.8440   -2.7344   -0.3457 C   0  0  0  0  0  0  0  0  0  0  0  0
   -2.6286   -1.8638   -1.6231 Cl  0  0  0  0  0  0  0  0  0  0  0  0
   -2.3399   -6.4253    1.1219 Cl  0  0  0  0  0  0  0  0  0  0  0  0
    4.3601   -3.8535   -0.9050 H   0  0  0  0  0  0  0  0  0  0  0  0
    5.5030   -2.0868    0.7756 H   0  0  0  0  0  0  0  0  0  0  0  0
    2.7875    0.4247    2.0658 H   0  0  0  0  0  0  0  0  0  0  0  0
    4.3692    0.7562    1.3080 H   0  0  0  0  0  0  0  0  0  0  0  0
    4.2266   -0.4118    2.6191 H   0  0  0  0  0  0  0  0  0  0  0  0
    0.7899   -2.6228   -1.9173 H   0  0  0  0  0  0  0  0  0  0  0  0
    1.2979   -4.1827   -1.2194 H   0  0  0  0  0  0  0  0  0  0  0  0
    2.1681   -3.4737   -2.5790 H   0  0  0  0  0  0  0  0  0  0  0  0
    1.9960    2.5519   -1.0996 H   0  0  0  0  0  0  0  0  0  0  0  0
    3.1229    1.2216   -0.9725 H   0  0  0  0  0  0  0  0  0  0  0  0
    2.6923    2.1690    0.4759 H   0  0  0  0  0  0  0  0  0  0  0  0
   -2.6351    1.7512   -0.2817 H   0  0  0  0  0  0  0  0  0  0  0  0
   -1.6191    4.9453    1.1531 H   0  0  0  0  0  0  0  0  0  0  0  0
   -2.9372    4.0241    1.8794 H   0  0  0  0  0  0  0  0  0  0  0  0
   -3.3252    6.4903    1.9218 H   0  0  0  0  0  0  0  0  0  0  0  0
   -4.5963    5.6104    1.0766 H   0  0  0  0  0  0  0  0  0  0  0  0
   -2.3135    7.2140   -0.1676 H   0  0  0  0  0  0  0  0  0  0  0  0
   -4.0361    7.5782   -0.2425 H   0  0  0  0  0  0  0  0  0  0  0  0
   -3.1492    6.5236   -2.3516 H   0  0  0  0  0  0  0  0  0  0  0  0
   -4.4698    5.6115   -1.6241 H   0  0  0  0  0  0  0  0  0  0  0  0
   -2.6954    4.0798   -2.3200 H   0  0  0  0  0  0  0  0  0  0  0  0
   -1.4822    4.9937   -1.4199 H   0  0  0  0  0  0  0  0  0  0  0  0
    0.8670   -2.8605    1.7461 H   0  0  0  0  0  0  0  0  0  0  0  0
   -0.0320   -5.1031    2.1449 H   0  0  0  0  0  0  0  0  0  0  0  0
   -3.2462   -4.3629   -0.6035 H   0  0  0  0  0  0  0  0  0  0  0  0
  1  5  1  0  0  0  0
  1  2  1  0  0  0  0
  1 23  1  0  0  0  0
  2  3  2  0  0  0  0
  3  4  1  0  0  0  0
  3 14  1  0  0  0  0
  4  5  2  0  0  0  0
  4 13  1  0  0  0  0
  5  6  1  0  0  0  0
  6 10  1  0  0  0  0
  6  7  1  0  0  0  0
  7  8  2  0  0  0  0
  7 12  1  0  0  0  0
  8  9  1  0  0  0  0
  8 31  1  0  0  0  0
  9 10  2  0  0  0  0
  9 32  1  0  0  0  0
 10 11  1  0  0  0  0
 11 33  1  0  0  0  0
 11 34  1  0  0  0  0
 11 35  1  0  0  0  0
 12 36  1  0  0  0  0
 12 37  1  0  0  0  0
 12 38  1  0  0  0  0
 13 39  1  0  0  0  0
 13 40  1  0  0  0  0
 13 41  1  0  0  0  0
 14 15  2  0  0  0  0
 14 16  1  0  0  0  0
 16 17  1  0  0  0  0
 16 42  1  0  0  0  0
 17 22  1  0  0  0  0
 17 18  1  0  0  0  0
 18 19  1  0  0  0  0
 18 43  1  0  0  0  0
 18 44  1  0  0  0  0
 19 20  1  0  0  0  0
 19 45  1  0  0  0  0
 19 46  1  0  0  0  0
 20 21  1  0  0  0  0
 20 47  1  0  0  0  0
 20 48  1  0  0  0  0
 21 22  1  0  0  0  0
 21 49  1  0  0  0  0
 21 50  1  0  0  0  0
 22 51  1  0  0  0  0
 22 52  1  0  0  0  0
 23 28  2  0  0  0  0
 23 24  1  0  0  0  0
 24 25  2  0  0  0  0
 24 53  1  0  0  0  0
 25 26  1  0  0  0  0
 25 54  1  0  0  0  0
 26 27  2  0  0  0  0
 26 30  1  0  0  0  0
 27 28  1  0  0  0  0
 27 55  1  0  0  0  0
 28 29  1  0  0  0  0
M  END
$$$$
CHEMBL15528
 OpenBabel12022417373D

 55 59  0  0  1  0  0  0  0  0999 V2000
    1.1444    0.3874    0.1891 C   0  0  0  0  0  0  0  0  0  0  0  0
    2.6149    0.1485    0.1174 C   0  0  0  0  0  0  0  0  0  0  0  0
    3.6095    1.1794    0.1242 C   0  0  0  0  0  0  0  0  0  0  0  0
    3.4074    2.6553    0.1685 C   0  0  0  0  0  0  0  0  0  0  0  0
    2.2860    3.1574    0.1693 O   0  0  0  0  0  0  0  0  0  0  0  0
    4.6003    3.3769    0.2134 N   0  0  0  0  0  0  0  0  0  0  0  0
    4.6208    4.7970    0.2244 N   0  0  0  0  0  0  0  0  0  0  0  0
    5.8654    5.3458   -0.3360 C   0  0  0  0  0  0  0  0  0  0  0  0
    5.9465    6.7717    0.2127 C   0  0  1  0  0  0  0  0  0  0  0  0
    5.3923    7.8614   -0.7116 C   0  0  0  0  0  0  0  0  0  0  0  0
    4.6219    8.7886    0.2148 C   0  0  0  0  0  0  0  0  0  0  0  0
    3.9561    7.8169    1.1746 C   0  0  0  0  0  0  0  0  0  0  0  0
    5.0424    6.7750    1.4574 C   0  0  1  0  0  0  0  0  0  0  0  0
    4.5441    5.3370    1.5921 C   0  0  0  0  0  0  0  0  0  0  0  0
    4.8405    0.6481    0.1020 N   0  0  0  0  0  0  0  0  0  0  0  0
    4.6663   -0.6906    0.0370 N   0  0  0  0  0  0  0  0  0  0  0  0
    5.8126   -1.5105   -0.1755 C   0  0  0  0  0  0  0  0  0  0  0  0
    5.7576   -2.5377   -1.1343 C   0  0  0  0  0  0  0  0  0  0  0  0
    6.8773   -3.3397   -1.3745 C   0  0  0  0  0  0  0  0  0  0  0  0
    8.0574   -3.1074   -0.6736 C   0  0  0  0  0  0  0  0  0  0  0  0
    8.1246   -2.0980    0.2830 C   0  0  0  0  0  0  0  0  0  0  0  0
    7.0050   -1.2961    0.5386 C   0  0  0  0  0  0  0  0  0  0  0  0
    7.1505   -0.1894    1.8627 Cl  0  0  0  0  0  0  0  0  0  0  0  0
    9.4406   -4.0810   -0.9845 Cl  0  0  0  0  0  0  0  0  0  0  0  0
    3.3142   -1.0647    0.0773 C   0  0  0  0  0  0  0  0  0  0  0  0
    2.8101   -2.4612    0.1636 C   0  0  0  0  0  0  0  0  0  0  0  0
    3.4957   -3.4462    0.8984 C   0  0  0  0  0  0  0  0  0  0  0  0
    3.0440   -4.7716    0.9489 C   0  0  0  0  0  0  0  0  0  0  0  0
    1.8526   -5.1191    0.3250 C   0  0  0  0  0  0  0  0  0  0  0  0
    1.1291   -4.1585   -0.3723 C   0  0  0  0  0  0  0  0  0  0  0  0
    1.6199   -2.8480   -0.4744 C   0  0  0  0  0  0  0  0  0  0  0  0
    1.2749   -6.7359    0.4171 Cl  0  0  0  0  0  0  0  0  0  0  0  0
    0.5730   -0.5231    0.3792 H   0  0  0  0  0  0  0  0  0  0  0  0
    0.7873    0.8217   -0.7512 H   0  0  0  0  0  0  0  0  0  0  0  0
    0.9041    1.0755    1.0056 H   0  0  0  0  0  0  0  0  0  0  0  0
    5.4596    2.8289    0.1975 H   0  0  0  0  0  0  0  0  0  0  0  0
    5.8658    5.3165   -1.4304 H   0  0  0  0  0  0  0  0  0  0  0  0
    6.7341    4.7793    0.0215 H   0  0  0  0  0  0  0  0  0  0  0  0
    6.9791    7.0159    0.4913 H   0  0  0  0  0  0  0  0  0  0  0  0
    4.7187    7.4432   -1.4684 H   0  0  0  0  0  0  0  0  0  0  0  0
    6.1923    8.3934   -1.2370 H   0  0  0  0  0  0  0  0  0  0  0  0
    3.8979    9.4082   -0.3228 H   0  0  0  0  0  0  0  0  0  0  0  0
    5.3084    9.4534    0.7533 H   0  0  0  0  0  0  0  0  0  0  0  0
    3.0772    7.3644    0.7007 H   0  0  0  0  0  0  0  0  0  0  0  0
    3.6222    8.3161    2.0897 H   0  0  0  0  0  0  0  0  0  0  0  0
    5.6137    7.0724    2.3453 H   0  0  0  0  0  0  0  0  0  0  0  0
    5.2153    4.7859    2.2624 H   0  0  0  0  0  0  0  0  0  0  0  0
    3.5296    5.2849    1.9999 H   0  0  0  0  0  0  0  0  0  0  0  0
    4.8583   -2.7206   -1.7220 H   0  0  0  0  0  0  0  0  0  0  0  0
    6.8239   -4.1361   -2.1136 H   0  0  0  0  0  0  0  0  0  0  0  0
    9.0431   -1.9467    0.8455 H   0  0  0  0  0  0  0  0  0  0  0  0
    4.4080   -3.2096    1.4411 H   0  0  0  0  0  0  0  0  0  0  0  0
    3.6243   -5.5199    1.4834 H   0  0  0  0  0  0  0  0  0  0  0  0
    0.1844   -4.4192   -0.8438 H   0  0  0  0  0  0  0  0  0  0  0  0
    1.0461   -2.1374   -1.0638 H   0  0  0  0  0  0  0  0  0  0  0  0
  1  2  1  0  0  0  0
  1 33  1  0  0  0  0
  1 34  1  0  0  0  0
  1 35  1  0  0  0  0
  2 25  2  0  0  0  0
  2  3  1  0  0  0  0
  3  4  1  0  0  0  0
  3 15  2  0  0  0  0
  4  5  2  0  0  0  0
  4  6  1  0  0  0  0
  6  7  1  0  0  0  0
  6 36  1  0  0  0  0
  7 14  1  0  0  0  0
  7  8  1  0  0  0  0
  8 37  1  0  0  0  0
  8 38  1  0  0  0  0
  9  8  1  0  0  0  0
  9 10  1  0  0  0  0
  9 13  1  0  0  0  0
  9 39  1  1  0  0  0
 10 11  1  0  0  0  0
 10 40  1  0  0  0  0
 10 41  1  0  0  0  0
 11 12  1  0  0  0  0
 11 42  1  0  0  0  0
 11 43  1  0  0  0  0
 12 44  1  0  0  0  0
 12 45  1  0  0  0  0
 13 12  1  0  0  0  0
 13 14  1  0  0  0  0
 13 46  1  1  0  0  0
 14 47  1  0  0  0  0
 14 48  1  0  0  0  0
 15 16  1  0  0  0  0
 16 17  1  0  0  0  0
 16 25  1  0  0  0  0
 17 22  2  0  0  0  0
 17 18  1  0  0  0  0
 18 19  2  0  0  0  0
 18 49  1  0  0  0  0
 19 20  1  0  0  0  0
 19 50  1  0  0  0  0
 20 21  2  0  0  0  0
 20 24  1  0  0  0  0
 21 22  1  0  0  0  0
 21 51  1  0  0  0  0
 22 23  1  0  0  0  0
 25 26  1  0  0  0  0
 26 31  2  0  0  0  0
 26 27  1  0  0  0  0
 27 28  2  0  0  0  0
 27 52  1  0  0  0  0
 28 29  1  0  0  0  0
 28 53  1  0  0  0  0
 29 30  2  0  0  0  0
 29 32  1  0  0  0  0
 30 31  1  0  0  0  0
 30 54  1  0  0  0  0
 31 55  1  0  0  0  0
M  END
$$$$
CHEMBL1631299
 OpenBabel12022417373D

 58 60  0  0  0  0  0  0  0  0999 V2000
   -0.2240   -2.2022    0.6422 C   0  0  0  0  0  0  0  0  0  0  0  0
    0.9917   -1.5134    0.6421 C   0  0  0  0  0  0  0  0  0  0  0  0
    1.0976   -0.2806    0.0117 C   0  0  0  0  0  0  0  0  0  0  0  0
   -0.0108    0.2924   -0.5996 C   0  0  0  0  0  0  0  0  0  0  0  0
   -1.2469   -0.3691   -0.5768 C   0  0  0  0  0  0  0  0  0  0  0  0
   -1.3741   -1.6320    0.0600 C   0  0  0  0  0  0  0  0  0  0  0  0
   -2.6275   -2.3219    0.1136 N   0  0  0  0  0  0  0  0  0  0  0  0
   -3.1463   -3.2587    1.0194 C   0  0  0  0  0  0  0  0  0  0  0  0
   -4.4015   -3.6187    0.5416 C   0  0  0  0  0  0  0  0  0  0  0  0
   -4.5250   -2.9608   -0.7085 C   0  0  0  0  0  0  0  0  0  0  0  0
   -5.6750   -3.0566   -1.6253 C   0  0  0  0  0  0  0  0  0  0  0  0
   -6.7950   -3.3815   -1.2374 O   0  0  0  0  0  0  0  0  0  0  0  0
   -5.3972   -2.7996   -2.9562 N   0  0  0  0  0  0  0  0  0  0  0  0
   -6.4777   -2.7874   -3.9182 C   0  0  0  0  0  0  0  0  0  0  0  0
   -6.0514   -3.2147   -5.3251 C   0  0  0  0  0  0  0  0  0  0  0  0
   -7.2295   -3.3341   -6.3383 C   0  0  0  0  0  0  0  0  0  0  0  0
   -7.9293   -1.9779   -6.5318 C   0  0  0  0  0  0  0  0  0  0  0  0
   -6.6771   -3.7937   -7.7013 C   0  0  0  0  0  0  0  0  0  0  0  0
   -8.2669   -4.3734   -5.8726 C   0  0  0  0  0  0  0  0  0  0  0  0
   -3.4351   -2.2391   -0.9831 N   0  0  0  0  0  0  0  0  0  0  0  0
   -5.4727   -4.4809    1.1234 C   0  0  0  0  0  0  0  0  0  0  0  0
   -2.5808   -3.7033    2.2385 N   0  0  0  0  0  0  0  0  0  0  0  0
   -1.9694   -2.9394    3.2469 C   0  0  0  0  0  0  0  0  0  0  0  0
   -1.5931   -3.7737    4.2751 C   0  0  0  0  0  0  0  0  0  0  0  0
   -1.9975   -5.0742    3.9546 C   0  0  0  0  0  0  0  0  0  0  0  0
   -2.5591   -5.0348    2.6974 C   0  0  0  0  0  0  0  0  0  0  0  0
   -3.0443   -6.2339    1.9486 C   0  0  0  0  0  0  0  0  0  0  0  0
   -1.8164   -1.4507    3.2685 C   0  0  0  0  0  0  0  0  0  0  0  0
   -2.5657    0.5450   -1.2351 Cl  0  0  0  0  0  0  0  0  0  0  0  0
    2.6031    0.5535    0.0049 Cl  0  0  0  0  0  0  0  0  0  0  0  0
   -0.2525   -3.1777    1.1154 H   0  0  0  0  0  0  0  0  0  0  0  0
    1.8557   -1.9540    1.1350 H   0  0  0  0  0  0  0  0  0  0  0  0
    0.0777    1.2618   -1.0744 H   0  0  0  0  0  0  0  0  0  0  0  0
   -4.5052   -2.3520   -3.1455 H   0  0  0  0  0  0  0  0  0  0  0  0
   -6.8883   -1.7743   -3.9165 H   0  0  0  0  0  0  0  0  0  0  0  0
   -7.2569   -3.4622   -3.5537 H   0  0  0  0  0  0  0  0  0  0  0  0
   -5.5338   -4.1814   -5.2604 H   0  0  0  0  0  0  0  0  0  0  0  0
   -5.3085   -2.5002   -5.7039 H   0  0  0  0  0  0  0  0  0  0  0  0
   -7.2279   -1.2219   -6.9018 H   0  0  0  0  0  0  0  0  0  0  0  0
   -8.3648   -1.6063   -5.5990 H   0  0  0  0  0  0  0  0  0  0  0  0
   -8.7467   -2.0570   -7.2576 H   0  0  0  0  0  0  0  0  0  0  0  0
   -5.9634   -3.0689   -8.1075 H   0  0  0  0  0  0  0  0  0  0  0  0
   -7.4847   -3.9095   -8.4342 H   0  0  0  0  0  0  0  0  0  0  0  0
   -6.1668   -4.7596   -7.6181 H   0  0  0  0  0  0  0  0  0  0  0  0
   -8.7528   -4.0809   -4.9368 H   0  0  0  0  0  0  0  0  0  0  0  0
   -7.8020   -5.3540   -5.7213 H   0  0  0  0  0  0  0  0  0  0  0  0
   -9.0645   -4.4940   -6.6147 H   0  0  0  0  0  0  0  0  0  0  0  0
   -5.2591   -4.8107    2.1409 H   0  0  0  0  0  0  0  0  0  0  0  0
   -5.6212   -5.3658    0.4927 H   0  0  0  0  0  0  0  0  0  0  0  0
   -6.4222   -3.9401    1.1752 H   0  0  0  0  0  0  0  0  0  0  0  0
   -1.1051   -3.4632    5.1938 H   0  0  0  0  0  0  0  0  0  0  0  0
   -1.8697   -5.9626    4.5562 H   0  0  0  0  0  0  0  0  0  0  0  0
   -3.2795   -6.0428    0.9001 H   0  0  0  0  0  0  0  0  0  0  0  0
   -3.9265   -6.6550    2.4417 H   0  0  0  0  0  0  0  0  0  0  0  0
   -2.2696   -7.0073    1.9598 H   0  0  0  0  0  0  0  0  0  0  0  0
   -2.3064   -0.9372    2.4512 H   0  0  0  0  0  0  0  0  0  0  0  0
   -0.7543   -1.1898    3.2782 H   0  0  0  0  0  0  0  0  0  0  0  0
   -2.2466   -1.0502    4.1946 H   0  0  0  0  0  0  0  0  0  0  0  0
  1  6  2  0  0  0  0
  1  2  1  0  0  0  0
  1 31  1  0  0  0  0
  2  3  2  0  0  0  0
  2 32  1  0  0  0  0
  3  4  1  0  0  0  0
  3 30  1  0  0  0  0
  4  5  2  0  0  0  0
  4 33  1  0  0  0  0
  5  6  1  0  0  0  0
  5 29  1  0  0  0  0
  6  7  1  0  0  0  0
  7 20  1  0  0  0  0
  7  8  1  0  0  0  0
  8  9  2  0  0  0  0
  8 22  1  0  0  0  0
  9 10  1  0  0  0  0
  9 21  1  0  0  0  0
 10 11  1  0  0  0  0
 10 20  2  0  0  0  0
 11 12  2  0  0  0  0
 11 13  1  0  0  0  0
 13 14  1  0  0  0  0
 13 34  1  0  0  0  0
 14 15  1  0  0  0  0
 14 35  1  0  0  0  0
 14 36  1  0  0  0  0
 15 16  1  0  0  0  0
 15 37  1  0  0  0  0
 15 38  1  0  0  0  0
 16 17  1  0  0  0  0
 16 18  1  0  0  0  0
 16 19  1  0  0  0  0
 17 39  1  0  0  0  0
 17 40  1  0  0  0  0
 17 41  1  0  0  0  0
 18 42  1  0  0  0  0
 18 43  1  0  0  0  0
 18 44  1  0  0  0  0
 19 45  1  0  0  0  0
 19 46  1  0  0  0  0
 19 47  1  0  0  0  0
 21 48  1  0  0  0  0
 21 49  1  0  0  0  0
 21 50  1  0  0  0  0
 22 26  1  0  0  0  0
 22 23  1  0  0  0  0
 23 24  2  0  0  0  0
 23 28  1  0  0  0  0
 24 25  1  0  0  0  0
 24 51  1  0  0  0  0
 25 26  2  0  0  0  0
 25 52  1  0  0  0  0
 26 27  1  0  0  0  0
 27 53  1  0  0  0  0
 27 54  1  0  0  0  0
 27 55  1  0  0  0  0
 28 56  1  0  0  0  0
 28 57  1  0  0  0  0
 28 58  1  0  0  0  0
M  END
$$$$
CHEMBL179507
 OpenBabel12022417373D

 55 58  0  0  0  0  0  0  0  0999 V2000
    1.0716    0.0343   -0.8361 C   0  0  0  0  0  0  0  0  0  0  0  0
    2.3120    0.1916    0.0186 C   0  0  0  0  0  0  0  0  0  0  0  0
    2.8755    1.4816    0.3903 N   0  0  0  0  0  0  0  0  0  0  0  0
    2.4806    2.7539    0.0022 C   0  0  0  0  0  0  0  0  0  0  0  0
    1.2607    3.1858   -0.6978 C   0  0  0  0  0  0  0  0  0  0  0  0
    0.1809    2.6080   -0.6312 O   0  0  0  0  0  0  0  0  0  0  0  0
    1.3968    4.3332   -1.4706 N   0  0  0  0  0  0  0  0  0  0  0  0
    0.2800    4.9043   -2.2288 C   0  0  0  0  0  0  0  0  0  0  0  0
   -0.6287    5.7720   -1.3424 C   0  0  0  0  0  0  0  0  0  0  0  0
   -1.7774    6.4021   -2.1347 C   0  0  0  0  0  0  0  0  0  0  0  0
   -1.2764    7.1824   -3.3454 C   0  0  0  0  0  0  0  0  0  0  0  0
   -0.3849    6.3184   -4.2332 C   0  0  0  0  0  0  0  0  0  0  0  0
    0.7733    5.7035   -3.4446 C   0  0  0  0  0  0  0  0  0  0  0  0
    3.3919    3.6387    0.3690 N   0  0  0  0  0  0  0  0  0  0  0  0
    4.3077    2.9723    1.1570 C   0  0  0  0  0  0  0  0  0  0  0  0
    5.4121    3.6794    1.8154 C   0  0  0  0  0  0  0  0  0  0  0  0
    6.7123    3.1395    1.7706 C   0  0  0  0  0  0  0  0  0  0  0  0
    7.7885    3.7750    2.3984 C   0  0  0  0  0  0  0  0  0  0  0  0
    7.5917    4.9915    3.0396 C   0  0  0  0  0  0  0  0  0  0  0  0
    6.3227    5.5589    3.0904 C   0  0  0  0  0  0  0  0  0  0  0  0
    5.2338    4.9013    2.4964 C   0  0  0  0  0  0  0  0  0  0  0  0
    3.6858    5.6515    2.7059 Cl  0  0  0  0  0  0  0  0  0  0  0  0
    8.9250    5.7968    3.7691 Cl  0  0  0  0  0  0  0  0  0  0  0  0
    4.0508    1.5975    1.1695 C   0  0  0  0  0  0  0  0  0  0  0  0
    4.7779    0.4804    1.8430 C   0  0  0  0  0  0  0  0  0  0  0  0
    5.2644    0.6283    3.1558 C   0  0  0  0  0  0  0  0  0  0  0  0
    6.0360   -0.3701    3.7733 C   0  0  0  0  0  0  0  0  0  0  0  0
    6.2813   -1.5673    3.1116 C   0  0  0  0  0  0  0  0  0  0  0  0
    5.7952   -1.7552    1.8258 C   0  0  0  0  0  0  0  0  0  0  0  0
    5.0864   -0.7255    1.1893 C   0  0  0  0  0  0  0  0  0  0  0  0
    7.2031   -2.8051    3.8692 Cl  0  0  0  0  0  0  0  0  0  0  0  0
    0.9292   -1.0266   -1.0725 H   0  0  0  0  0  0  0  0  0  0  0  0
    1.1690    0.5641   -1.7885 H   0  0  0  0  0  0  0  0  0  0  0  0
    0.1727    0.3532   -0.3060 H   0  0  0  0  0  0  0  0  0  0  0  0
    3.0932   -0.2987   -0.5686 H   0  0  0  0  0  0  0  0  0  0  0  0
    2.1655   -0.3640    0.9518 H   0  0  0  0  0  0  0  0  0  0  0  0
    2.2383    4.8749   -1.2954 H   0  0  0  0  0  0  0  0  0  0  0  0
   -0.3168    4.0615   -2.6005 H   0  0  0  0  0  0  0  0  0  0  0  0
   -0.0370    6.5670   -0.8715 H   0  0  0  0  0  0  0  0  0  0  0  0
   -1.0475    5.1703   -0.5280 H   0  0  0  0  0  0  0  0  0  0  0  0
   -2.3547    7.0679   -1.4836 H   0  0  0  0  0  0  0  0  0  0  0  0
   -2.4638    5.6151   -2.4729 H   0  0  0  0  0  0  0  0  0  0  0  0
   -0.7157    8.0631   -3.0092 H   0  0  0  0  0  0  0  0  0  0  0  0
   -2.1312    7.5493   -3.9258 H   0  0  0  0  0  0  0  0  0  0  0  0
    0.0040    6.9241   -5.0597 H   0  0  0  0  0  0  0  0  0  0  0  0
   -0.9903    5.5209   -4.6833 H   0  0  0  0  0  0  0  0  0  0  0  0
    1.3528    5.0519   -4.1096 H   0  0  0  0  0  0  0  0  0  0  0  0
    1.4521    6.5021   -3.1200 H   0  0  0  0  0  0  0  0  0  0  0  0
    6.9037    2.2019    1.2531 H   0  0  0  0  0  0  0  0  0  0  0  0
    8.7734    3.3150    2.3749 H   0  0  0  0  0  0  0  0  0  0  0  0
    6.1767    6.5087    3.5997 H   0  0  0  0  0  0  0  0  0  0  0  0
    5.0813    1.5443    3.7139 H   0  0  0  0  0  0  0  0  0  0  0  0
    6.4455   -0.2009    4.7660 H   0  0  0  0  0  0  0  0  0  0  0  0
    5.9810   -2.6877    1.2978 H   0  0  0  0  0  0  0  0  0  0  0  0
    4.8179   -0.8973    0.1540 H   0  0  0  0  0  0  0  0  0  0  0  0
  1  2  1  0  0  0  0
  1 32  1  0  0  0  0
  1 33  1  0  0  0  0
  1 34  1  0  0  0  0
  2  3  1  0  0  0  0
  2 35  1  0  0  0  0
  2 36  1  0  0  0  0
  3 24  1  0  0  0  0
  3  4  1  0  0  0  0
  4  5  1  0  0  0  0
  4 14  2  0  0  0  0
  5  6  2  0  0  0  0
  5  7  1  0  0  0  0
  7  8  1  0  0  0  0
  7 37  1  0  0  0  0
  8 13  1  0  0  0  0
  8  9  1  0  0  0  0
  8 38  1  0  0  0  0
  9 10  1  0  0  0  0
  9 39  1  0  0  0  0
  9 40  1  0  0  0  0
 10 11  1  0  0  0  0
 10 41  1  0  0  0  0
 10 42  1  0  0  0  0
 11 12  1  0  0  0  0
 11 43  1  0  0  0  0
 11 44  1  0  0  0  0
 12 13  1  0  0  0  0
 12 45  1  0  0  0  0
 12 46  1  0  0  0  0
 13 47  1  0  0  0  0
 13 48  1  0  0  0  0
 14 15  1  0  0  0  0
 15 16  1  0  0  0  0
 15 24  2  0  0  0  0
 16 21  2  0  0  0  0
 16 17  1  0  0  0  0
 17 18  2  0  0  0  0
 17 49  1  0  0  0  0
 18 19  1  0  0  0  0
 18 50  1  0  0  0  0
 19 20  2  0  0  0  0
 19 23  1  0  0  0  0
 20 21  1  0  0  0  0
 20 51  1  0  0  0  0
 21 22  1  0  0  0  0
 24 25  1  0  0  0  0
 25 30  2  0  0  0  0
 25 26  1  0  0  0  0
 26 27  2  0  0  0  0
 26 52  1  0  0  0  0
 27 28  1  0  0  0  0
 27 53  1  0  0  0  0
 28 29  2  0  0  0  0
 28 31  1  0  0  0  0
 29 30  1  0  0  0  0
 29 54  1  0  0  0  0
 30 55  1  0  0  0  0
M  END
$$$$
CHEMBL3341897
 OpenBabel12022417373D

 66 70  0  0  0  0  0  0  0  0999 V2000
    3.6975   -0.1066    0.9705 C   0  0  0  0  0  0  0  0  0  0  0  0
    2.5659    0.1876   -0.0242 C   0  0  0  0  0  0  0  0  0  0  0  0
    3.0078    1.0128   -1.2405 C   0  0  0  0  0  0  0  0  0  0  0  0
    2.9933    2.4150   -1.4479 C   0  0  0  0  0  0  0  0  0  0  0  0
    2.5722    3.4207   -0.4272 C   0  0  0  0  0  0  0  0  0  0  0  0
    1.8023    4.5591   -0.5605 C   0  0  0  0  0  0  0  0  0  0  0  0
    1.5013    5.2230    0.6772 C   0  0  0  0  0  0  0  0  0  0  0  0
    2.0229    4.6498    1.8205 C   0  0  0  0  0  0  0  0  0  0  0  0
    1.7366    5.2646    3.1319 C   0  0  0  0  0  0  0  0  0  0  0  0
    1.3760    5.9352    4.1029 C   0  0  0  0  0  0  0  0  0  0  0  0
    1.0102    6.5985    5.4502 C   0  0  0  0  0  0  0  0  0  0  0  0
    1.2086    5.7306    6.4965 C   0  0  0  0  0  0  0  0  0  0  0  0
    1.1460    6.1326    7.8623 C   0  0  0  0  0  0  0  0  0  0  0  0
    0.3586    7.1543    8.3122 C   0  0  0  0  0  0  0  0  0  0  0  0
   -0.2870    7.8489    7.2813 C   0  0  0  0  0  0  0  0  0  0  0  0
    0.0421    7.5483    5.8398 C   0  0  0  0  0  0  0  0  0  0  0  0
    0.2227    7.3766    9.8427 C   0  0  0  0  0  0  0  0  0  0  0  0
    1.0542    6.5616   10.5647 F   0  0  0  0  0  0  0  0  0  0  0  0
    0.5269    8.6377   10.2625 F   0  0  0  0  0  0  0  0  0  0  0  0
   -1.0238    7.1165   10.3332 F   0  0  0  0  0  0  0  0  0  0  0  0
    2.9727    3.2955    1.3158 S   0  0  0  0  0  0  0  0  0  0  0  0
    3.3820    2.5748   -2.8477 N   0  0  0  0  0  0  0  0  0  0  0  0
    3.4731    3.7095   -3.7825 C   0  0  0  0  0  0  0  0  0  0  0  0
    3.3722    3.5367   -5.2007 C   0  0  0  0  0  0  0  0  0  0  0  0
    3.4924    4.6306   -6.0958 C   0  0  0  0  0  0  0  0  0  0  0  0
    3.7713    5.9007   -5.6221 C   0  0  0  0  0  0  0  0  0  0  0  0
    3.9241    6.0912   -4.2500 C   0  0  0  0  0  0  0  0  0  0  0  0
    3.7772    4.9817   -3.3376 C   0  0  0  0  0  0  0  0  0  0  0  0
    3.9202    7.2332   -6.7057 Cl  0  0  0  0  0  0  0  0  0  0  0  0
    2.9889    2.0354   -6.0022 Cl  0  0  0  0  0  0  0  0  0  0  0  0
    3.8592    1.3800   -3.3345 N   0  0  0  0  0  0  0  0  0  0  0  0
    3.6360    0.4482   -2.4115 C   0  0  0  0  0  0  0  0  0  0  0  0
    4.0053   -1.0081   -2.5661 C   0  0  0  0  0  0  0  0  0  0  0  0
    3.8775   -1.7536   -1.6208 O   0  0  0  0  0  0  0  0  0  0  0  0
    4.5351   -1.4013   -3.7940 N   0  0  0  0  0  0  0  0  0  0  0  0
    4.8528   -2.7977   -4.1126 N   0  0  0  0  0  0  0  0  0  0  0  0
    5.9499   -3.3185   -3.2492 C   0  0  0  0  0  0  0  0  0  0  0  0
    6.3605   -4.7242   -3.7012 C   0  0  0  0  0  0  0  0  0  0  0  0
    5.1735   -5.6824   -3.6914 C   0  0  0  0  0  0  0  0  0  0  0  0
    4.0091   -5.0926   -4.4796 C   0  0  0  0  0  0  0  0  0  0  0  0
    3.6826   -3.6767   -4.0033 C   0  0  0  0  0  0  0  0  0  0  0  0
    3.3350   -0.7273    1.8031 H   0  0  0  0  0  0  0  0  0  0  0  0
    4.1065    0.8000    1.4146 H   0  0  0  0  0  0  0  0  0  0  0  0
    4.5328   -0.6335    0.5076 H   0  0  0  0  0  0  0  0  0  0  0  0
    1.7305    0.6591    0.5080 H   0  0  0  0  0  0  0  0  0  0  0  0
    2.1465   -0.7794   -0.3426 H   0  0  0  0  0  0  0  0  0  0  0  0
    1.4102    4.9316   -1.4944 H   0  0  0  0  0  0  0  0  0  0  0  0
    0.9072    6.1133    0.7667 H   0  0  0  0  0  0  0  0  0  0  0  0
    0.3111    5.0823    6.2513 H   0  0  0  0  0  0  0  0  0  0  0  0
    1.7732    5.5679    8.5880 H   0  0  0  0  0  0  0  0  0  0  0  0
   -1.0969    8.5293    7.5840 H   0  0  0  0  0  0  0  0  0  0  0  0
   -0.6443    7.9884    5.1564 H   0  0  0  0  0  0  0  0  0  0  0  0
    3.3821    4.4883   -7.1765 H   0  0  0  0  0  0  0  0  0  0  0  0
    4.1662    7.0953   -3.8763 H   0  0  0  0  0  0  0  0  0  0  0  0
    3.9468    5.2142   -2.2748 H   0  0  0  0  0  0  0  0  0  0  0  0
    4.6237   -0.7174   -4.5354 H   0  0  0  0  0  0  0  0  0  0  0  0
    5.6450   -3.3640   -2.1973 H   0  0  0  0  0  0  0  0  0  0  0  0
    6.8221   -2.6595   -3.3136 H   0  0  0  0  0  0  0  0  0  0  0  0
    7.1453   -5.1067   -3.0408 H   0  0  0  0  0  0  0  0  0  0  0  0
    6.7802   -4.6775   -4.7137 H   0  0  0  0  0  0  0  0  0  0  0  0
    4.8591   -5.8660   -2.6562 H   0  0  0  0  0  0  0  0  0  0  0  0
    5.4655   -6.6498   -4.1150 H   0  0  0  0  0  0  0  0  0  0  0  0
    3.1279   -5.7350   -4.3663 H   0  0  0  0  0  0  0  0  0  0  0  0
    4.2612   -5.0760   -5.5472 H   0  0  0  0  0  0  0  0  0  0  0  0
    2.8629   -3.2808   -4.6138 H   0  0  0  0  0  0  0  0  0  0  0  0
    3.3159   -3.7423   -2.9670 H   0  0  0  0  0  0  0  0  0  0  0  0
  1  2  1  0  0  0  0
  1 42  1  0  0  0  0
  1 43  1  0  0  0  0
  1 44  1  0  0  0  0
  2  3  1  0  0  0  0
  2 45  1  0  0  0  0
  2 46  1  0  0  0  0
  3 32  1  0  0  0  0
  3  4  2  0  0  0  0
  4  5  1  0  0  0  0
  4 22  1  0  0  0  0
  5 21  1  0  0  0  0
  5  6  2  0  0  0  0
  6  7  1  0  0  0  0
  6 47  1  0  0  0  0
  7  8  2  0  0  0  0
  7 48  1  0  0  0  0
  8  9  1  0  0  0  0
  8 21  1  0  0  0  0
  9 10  3  0  0  0  0
 10 11  1  0  0  0  0
 11 16  2  0  0  0  0
 11 12  1  0  0  0  0
 12 13  2  0  0  0  0
 12 49  1  0  0  0  0
 13 14  1  0  0  0  0
 13 50  1  0  0  0  0
 14 15  2  0  0  0  0
 14 17  1  0  0  0  0
 15 16  1  0  0  0  0
 15 51  1  0  0  0  0
 16 52  1  0  0  0  0
 17 18  1  0  0  0  0
 17 19  1  0  0  0  0
 17 20  1  0  0  0  0
 22 23  1  0  0  0  0
 22 31  1  0  0  0  0
 23 28  2  0  0  0  0
 23 24  1  0  0  0  0
 24 25  2  0  0  0  0
 24 30  1  0  0  0  0
 25 26  1  0  0  0  0
 25 53  1  0  0  0  0
 26 27  2  0  0  0  0
 26 29  1  0  0  0  0
 27 28  1  0  0  0  0
 27 54  1  0  0  0  0
 28 55  1  0  0  0  0
 31 32  2  0  0  0  0
 32 33  1  0  0  0  0
 33 34  2  0  0  0  0
 33 35  1  0  0  0  0
 35 36  1  0  0  0  0
 35 56  1  0  0  0  0
 36 41  1  0  0  0  0
 36 37  1  0  0  0  0
 37 38  1  0  0  0  0
 37 57  1  0  0  0  0
 37 58  1  0  0  0  0
 38 39  1  0  0  0  0
 38 59  1  0  0  0  0
 38 60  1  0  0  0  0
 39 40  1  0  0  0  0
 39 61  1  0  0  0  0
 39 62  1  0  0  0  0
 40 41  1  0  0  0  0
 40 63  1  0  0  0  0
 40 64  1  0  0  0  0
 41 65  1  0  0  0  0
 41 66  1  0  0  0  0
M  END
$$$$
CHEMBL175369
 OpenBabel12022417373D

 55 58  0  0  0  0  0  0  0  0999 V2000
   -0.2588   -1.1859    0.0653 C   0  0  0  0  0  0  0  0  0  0  0  0
   -1.1524   -0.1172    0.0451 C   0  0  0  0  0  0  0  0  0  0  0  0
   -2.6413   -0.1531    0.0005 C   0  0  0  0  0  0  0  0  0  0  0  0
   -0.3759    1.0436   -0.0552 N   0  0  0  0  0  0  0  0  0  0  0  0
    0.9711    0.6214    0.0119 C   0  0  0  0  0  0  0  0  0  0  0  0
    2.1691    1.4989    0.1017 C   0  0  0  0  0  0  0  0  0  0  0  0
    3.3823    1.2013   -0.5544 C   0  0  0  0  0  0  0  0  0  0  0  0
    4.4729    2.0845   -0.4958 C   0  0  0  0  0  0  0  0  0  0  0  0
    4.3637    3.2846    0.1976 C   0  0  0  0  0  0  0  0  0  0  0  0
    3.1924    3.5919    0.8760 C   0  0  0  0  0  0  0  0  0  0  0  0
    2.1251    2.6867    0.8627 C   0  0  0  0  0  0  0  0  0  0  0  0
    5.6781    4.3930    0.2153 Cl  0  0  0  0  0  0  0  0  0  0  0  0
    3.6138   -0.2246   -1.5109 Cl  0  0  0  0  0  0  0  0  0  0  0  0
    1.0334   -0.7035    0.0571 N   0  0  0  0  0  0  0  0  0  0  0  0
   -0.8733    2.3858   -0.2394 C   0  0  0  0  0  0  0  0  0  0  0  0
   -0.1923    3.3052   -1.0497 C   0  0  0  0  0  0  0  0  0  0  0  0
   -0.6597    4.6201   -1.1861 C   0  0  0  0  0  0  0  0  0  0  0  0
   -1.8470    5.0254   -0.5761 C   0  0  0  0  0  0  0  0  0  0  0  0
   -2.5348    4.1226    0.2287 C   0  0  0  0  0  0  0  0  0  0  0  0
   -2.0417    2.8211    0.4085 C   0  0  0  0  0  0  0  0  0  0  0  0
   -2.2096    6.3273   -0.7830 O   0  0  0  0  0  0  0  0  0  0  0  0
   -3.6134    6.5714   -0.8245 C   0  0  0  0  0  0  0  0  0  0  0  0
   -0.5997   -2.6342    0.0740 C   0  0  0  0  0  0  0  0  0  0  0  0
   -1.7521   -3.0292    0.2004 O   0  0  0  0  0  0  0  0  0  0  0  0
    0.4973   -3.4811   -0.0818 N   0  0  0  0  0  0  0  0  0  0  0  0
    0.4049   -4.9127   -0.1330 N   0  0  0  0  0  0  0  0  0  0  0  0
   -0.1030   -5.4949    1.1214 C   0  0  0  0  0  0  0  0  0  0  0  0
   -0.0135   -7.0227    1.0964 C   0  0  0  0  0  0  0  0  0  0  0  0
   -0.7494   -7.6141   -0.1030 C   0  0  0  0  0  0  0  0  0  0  0  0
   -0.3076   -6.9341   -1.3936 C   0  0  0  0  0  0  0  0  0  0  0  0
   -0.3681   -5.4036   -1.2888 C   0  0  0  0  0  0  0  0  0  0  0  0
   -3.0383   -1.1564   -0.1589 H   0  0  0  0  0  0  0  0  0  0  0  0
   -3.0244    0.4585   -0.8217 H   0  0  0  0  0  0  0  0  0  0  0  0
   -3.0657    0.1893    0.9484 H   0  0  0  0  0  0  0  0  0  0  0  0
    5.4021    1.8407   -1.0061 H   0  0  0  0  0  0  0  0  0  0  0  0
    3.0939    4.5341    1.4110 H   0  0  0  0  0  0  0  0  0  0  0  0
    1.2349    2.9531    1.4300 H   0  0  0  0  0  0  0  0  0  0  0  0
    0.7054    3.0327   -1.5995 H   0  0  0  0  0  0  0  0  0  0  0  0
   -0.0998    5.3333   -1.7875 H   0  0  0  0  0  0  0  0  0  0  0  0
   -3.4351    4.4132    0.7615 H   0  0  0  0  0  0  0  0  0  0  0  0
   -2.5715    2.1919    1.1138 H   0  0  0  0  0  0  0  0  0  0  0  0
   -3.7616    7.6112   -1.1330 H   0  0  0  0  0  0  0  0  0  0  0  0
   -4.0729    6.4549    0.1617 H   0  0  0  0  0  0  0  0  0  0  0  0
   -4.1028    5.9293   -1.5646 H   0  0  0  0  0  0  0  0  0  0  0  0
    1.4146   -3.0457   -0.1685 H   0  0  0  0  0  0  0  0  0  0  0  0
   -1.1454   -5.2044    1.3032 H   0  0  0  0  0  0  0  0  0  0  0  0
    0.4896   -5.1279    1.9663 H   0  0  0  0  0  0  0  0  0  0  0  0
   -0.4377   -7.4343    2.0208 H   0  0  0  0  0  0  0  0  0  0  0  0
    1.0382   -7.3327    1.0648 H   0  0  0  0  0  0  0  0  0  0  0  0
   -1.8305   -7.4851    0.0294 H   0  0  0  0  0  0  0  0  0  0  0  0
   -0.5632   -8.6939   -0.1625 H   0  0  0  0  0  0  0  0  0  0  0  0
   -0.9447   -7.2743   -2.2200 H   0  0  0  0  0  0  0  0  0  0  0  0
    0.7170   -7.2458   -1.6349 H   0  0  0  0  0  0  0  0  0  0  0  0
    0.0390   -4.9798   -2.2146 H   0  0  0  0  0  0  0  0  0  0  0  0
   -1.4197   -5.0975   -1.2261 H   0  0  0  0  0  0  0  0  0  0  0  0
  1 14  1  0  0  0  0
  1  2  2  0  0  0  0
  1 23  1  0  0  0  0
  2  3  1  0  0  0  0
  2  4  1  0  0  0  0
  3 32  1  0  0  0  0
  3 33  1  0  0  0  0
  3 34  1  0  0  0  0
  4  5  1  0  0  0  0
  4 15  1  0  0  0  0
  5  6  1  0  0  0  0
  5 14  2  0  0  0  0
  6 11  2  0  0  0  0
  6  7  1  0  0  0  0
  7  8  2  0  0  0  0
  7 13  1  0  0  0  0
  8  9  1  0  0  0  0
  8 35  1  0  0  0  0
  9 10  2  0  0  0  0
  9 12  1  0  0  0  0
 10 11  1  0  0  0  0
 10 36  1  0  0  0  0
 11 37  1  0  0  0  0
 15 20  2  0  0  0  0
 15 16  1  0  0  0  0
 16 17  2  0  0  0  0
 16 38  1  0  0  0  0
 17 18  1  0  0  0  0
 17 39  1  0  0  0  0
 18 19  2  0  0  0  0
 18 21  1  0  0  0  0
 19 20  1  0  0  0  0
 19 40  1  0  0  0  0
 20 41  1  0  0  0  0
 21 22  1  0  0  0  0
 22 42  1  0  0  0  0
 22 43  1  0  0  0  0
 22 44  1  0  0  0  0
 23 24  2  0  0  0  0
 23 25  1  0  0  0  0
 25 26  1  0  0  0  0
 25 45  1  0  0  0  0
 26 31  1  0  0  0  0
 26 27  1  0  0  0  0
 27 28  1  0  0  0  0
 27 46  1  0  0  0  0
 27 47  1  0  0  0  0
 28 29  1  0  0  0  0
 28 48  1  0  0  0  0
 28 49  1  0  0  0  0
 29 30  1  0  0  0  0
 29 50  1  0  0  0  0
 29 51  1  0  0  0  0
 30 31  1  0  0  0  0
 30 52  1  0  0  0  0
 30 53  1  0  0  0  0
 31 54  1  0  0  0  0
 31 55  1  0  0  0  0
M  END
$$$$
CHEMBL518598
 OpenBabel12022417373D

 58 62  0  0  0  0  0  0  0  0999 V2000
    4.5649   -1.1660   -0.7328 O   0  0  0  0  0  0  0  0  0  0  0  0
    3.7143   -1.4278    0.1103 C   0  0  0  0  0  0  0  0  0  0  0  0
    4.0579   -1.6647    1.5445 C   0  0  0  0  0  0  0  0  0  0  0  0
    5.2786   -2.0457    2.2506 C   0  0  0  0  0  0  0  0  0  0  0  0
    5.0759   -1.2867    3.4493 C   0  0  0  0  0  0  0  0  0  0  0  0
    5.8943   -0.7650    4.5954 C   0  0  0  0  0  0  0  0  0  0  0  0
    6.9157   -1.5671    5.2170 C   0  0  0  0  0  0  0  0  0  0  0  0
    7.3239   -2.7095    4.4013 C   0  0  0  0  0  0  0  0  0  0  0  0
    7.5244   -4.1421    4.0539 C   0  0  0  0  0  0  0  0  0  0  0  0
    6.7164   -4.3099    2.6910 C   0  0  0  0  0  0  0  0  0  0  0  0
    6.4185   -2.9924    1.7849 C   0  0  0  0  0  0  0  0  0  0  0  0
    7.5325   -1.1720    6.3896 C   0  0  0  0  0  0  0  0  0  0  0  0
    7.1605    0.0328    6.9740 C   0  0  0  0  0  0  0  0  0  0  0  0
    6.2188    0.8676    6.3551 C   0  0  0  0  0  0  0  0  0  0  0  0
    5.5877    0.4702    5.1703 C   0  0  0  0  0  0  0  0  0  0  0  0
    7.8778    0.5269    8.4601 Cl  0  0  0  0  0  0  0  0  0  0  0  0
    3.7361   -1.7252    3.6226 N   0  0  0  0  0  0  0  0  0  0  0  0
    3.2503   -2.6565    4.6058 C   0  0  0  0  0  0  0  0  0  0  0  0
    3.8009   -2.6382    5.9002 C   0  0  0  0  0  0  0  0  0  0  0  0
    3.4937   -3.6172    6.8447 C   0  0  0  0  0  0  0  0  0  0  0  0
    2.5900   -4.6151    6.5238 C   0  0  0  0  0  0  0  0  0  0  0  0
    2.0078   -4.6487    5.2615 C   0  0  0  0  0  0  0  0  0  0  0  0
    2.3383   -3.6853    4.2928 C   0  0  0  0  0  0  0  0  0  0  0  0
    1.6534   -3.9865    2.7288 Cl  0  0  0  0  0  0  0  0  0  0  0  0
    2.1981   -5.8141    7.6897 Cl  0  0  0  0  0  0  0  0  0  0  0  0
    3.0895   -1.4661    2.4658 N   0  0  0  0  0  0  0  0  0  0  0  0
    2.3173   -1.4271   -0.0993 N   0  0  0  0  0  0  0  0  0  0  0  0
    1.7191   -0.8162   -1.2422 N   0  0  0  0  0  0  0  0  0  0  0  0
    0.7623   -1.7069   -1.9239 C   0  0  0  0  0  0  0  0  0  0  0  0
    0.3746   -1.0984   -3.2781 C   0  0  0  0  0  0  0  0  0  0  0  0
   -0.1883    0.3173   -3.1473 C   0  0  0  0  0  0  0  0  0  0  0  0
    0.6475    1.1798   -2.2005 C   0  0  0  0  0  0  0  0  0  0  0  0
    1.0192    0.4420   -0.9087 C   0  0  0  0  0  0  0  0  0  0  0  0
    7.8194   -2.1866    3.5839 H   0  0  0  0  0  0  0  0  0  0  0  0
    6.2628   -2.9587    4.3380 H   0  0  0  0  0  0  0  0  0  0  0  0
    7.1533   -4.8267    4.8298 H   0  0  0  0  0  0  0  0  0  0  0  0
    8.5916   -4.3470    3.9241 H   0  0  0  0  0  0  0  0  0  0  0  0
    7.2641   -5.0481    2.0926 H   0  0  0  0  0  0  0  0  0  0  0  0
    5.7493   -4.7675    2.9422 H   0  0  0  0  0  0  0  0  0  0  0  0
    7.3456   -2.4373    1.6078 H   0  0  0  0  0  0  0  0  0  0  0  0
    6.1171   -3.3910    0.8067 H   0  0  0  0  0  0  0  0  0  0  0  0
    8.2998   -1.7920    6.8501 H   0  0  0  0  0  0  0  0  0  0  0  0
    5.9572    1.8201    6.8066 H   0  0  0  0  0  0  0  0  0  0  0  0
    4.8410    1.1207    4.7191 H   0  0  0  0  0  0  0  0  0  0  0  0
    4.4767   -1.8625    6.2328 H   0  0  0  0  0  0  0  0  0  0  0  0
    3.9694   -3.5848    7.8221 H   0  0  0  0  0  0  0  0  0  0  0  0
    1.3146   -5.4504    5.0169 H   0  0  0  0  0  0  0  0  0  0  0  0
    1.7559   -1.5852    0.7385 H   0  0  0  0  0  0  0  0  0  0  0  0
   -0.1406   -1.8646   -1.3157 H   0  0  0  0  0  0  0  0  0  0  0  0
    1.2091   -2.6918   -2.0960 H   0  0  0  0  0  0  0  0  0  0  0  0
   -0.3628   -1.7363   -3.7803 H   0  0  0  0  0  0  0  0  0  0  0  0
    1.2607   -1.0721   -3.9247 H   0  0  0  0  0  0  0  0  0  0  0  0
   -1.2199    0.2675   -2.7791 H   0  0  0  0  0  0  0  0  0  0  0  0
   -0.2336    0.7899   -4.1369 H   0  0  0  0  0  0  0  0  0  0  0  0
    0.0989    2.1012   -1.9673 H   0  0  0  0  0  0  0  0  0  0  0  0
    1.5662    1.4850   -2.7172 H   0  0  0  0  0  0  0  0  0  0  0  0
    1.6599    1.0945   -0.3053 H   0  0  0  0  0  0  0  0  0  0  0  0
    0.1111    0.2505   -0.3188 H   0  0  0  0  0  0  0  0  0  0  0  0
  1  2  2  0  0  0  0
  2  3  1  0  0  0  0
  2 27  1  0  0  0  0
  3 26  2  0  0  0  0
  3  4  1  0  0  0  0
  4 11  1  0  0  0  0
  4  5  2  0  0  0  0
  5  6  1  0  0  0  0
  5 17  1  0  0  0  0
  6 15  2  0  0  0  0
  6  7  1  0  0  0  0
  7  8  1  0  0  0  0
  7 12  2  0  0  0  0
  8  9  1  0  0  0  0
  8 34  1  0  0  0  0
  8 35  1  0  0  0  0
  9 10  1  0  0  0  0
  9 36  1  0  0  0  0
  9 37  1  0  0  0  0
 10 11  1  0  0  0  0
 10 38  1  0  0  0  0
 10 39  1  0  0  0  0
 11 40  1  0  0  0  0
 11 41  1  0  0  0  0
 12 13  1  0  0  0  0
 12 42  1  0  0  0  0
 13 14  2  0  0  0  0
 13 16  1  0  0  0  0
 14 15  1  0  0  0  0
 14 43  1  0  0  0  0
 15 44  1  0  0  0  0
 17 18  1  0  0  0  0
 17 26  1  0  0  0  0
 18 23  2  0  0  0  0
 18 19  1  0  0  0  0
 19 20  2  0  0  0  0
 19 45  1  0  0  0  0
 20 21  1  0  0  0  0
 20 46  1  0  0  0  0
 21 22  2  0  0  0  0
 21 25  1  0  0  0  0
 22 23  1  0  0  0  0
 22 47  1  0  0  0  0
 23 24  1  0  0  0  0
 27 28  1  0  0  0  0
 27 48  1  0  0  0  0
 28 33  1  0  0  0  0
 28 29  1  0  0  0  0
 29 30  1  0  0  0  0
 29 49  1  0  0  0  0
 29 50  1  0  0  0  0
 30 31  1  0  0  0  0
 30 51  1  0  0  0  0
 30 52  1  0  0  0  0
 31 32  1  0  0  0  0
 31 53  1  0  0  0  0
 31 54  1  0  0  0  0
 32 33  1  0  0  0  0
 32 55  1  0  0  0  0
 32 56  1  0  0  0  0
 33 57  1  0  0  0  0
 33 58  1  0  0  0  0
M  END
$$$$
CHEMBL376700
 OpenBabel12022417373D

 55 59  0  0  0  0  0  0  0  0999 V2000
    2.7948   -1.5491   -0.5307 C   0  0  0  0  0  0  0  0  0  0  0  0
    1.4001   -1.5896   -0.4806 C   0  0  0  0  0  0  0  0  0  0  0  0
    0.6512   -0.4751   -0.0536 C   0  0  0  0  0  0  0  0  0  0  0  0
   -0.8166   -0.5668    0.0150 C   0  0  0  0  0  0  0  0  0  0  0  0
   -1.7135    0.3830   -0.4507 C   0  0  0  0  0  0  0  0  0  0  0  0
   -1.2922    1.7020   -0.9928 C   0  0  0  0  0  0  0  0  0  0  0  0
   -0.6349    2.5434    0.0979 C   0  0  0  0  0  0  0  0  0  0  0  0
    0.6357    1.9819    0.7698 C   0  0  0  0  0  0  0  0  0  0  0  0
    1.3244    0.7315    0.2499 C   0  0  0  0  0  0  0  0  0  0  0  0
    2.7357    0.7520    0.1875 C   0  0  0  0  0  0  0  0  0  0  0  0
    3.4579   -0.3786   -0.1920 C   0  0  0  0  0  0  0  0  0  0  0  0
    5.1766   -0.3256   -0.2325 Cl  0  0  0  0  0  0  0  0  0  0  0  0
   -3.0086   -0.1795   -0.2781 C   0  0  0  0  0  0  0  0  0  0  0  0
   -4.3413    0.4001   -0.5855 C   0  0  0  0  0  0  0  0  0  0  0  0
   -4.4835    1.5230   -1.0582 O   0  0  0  0  0  0  0  0  0  0  0  0
   -5.3799   -0.4767   -0.2631 N   0  0  0  0  0  0  0  0  0  0  0  0
   -6.7463   -0.1299   -0.4180 N   0  0  0  0  0  0  0  0  0  0  0  0
   -7.3990   -1.0111   -1.4004 C   0  0  0  0  0  0  0  0  0  0  0  0
   -8.8702   -0.6382   -1.6089 C   0  0  0  0  0  0  0  0  0  0  0  0
   -9.6400   -0.6170   -0.2930 C   0  0  0  0  0  0  0  0  0  0  0  0
   -8.9131    0.2413    0.7360 C   0  0  0  0  0  0  0  0  0  0  0  0
   -7.4461   -0.1758    0.8767 C   0  0  0  0  0  0  0  0  0  0  0  0
   -2.9126   -1.4088    0.2603 N   0  0  0  0  0  0  0  0  0  0  0  0
   -1.5925   -1.6223    0.4856 N   0  0  0  0  0  0  0  0  0  0  0  0
   -1.1945   -2.7578    1.2511 C   0  0  0  0  0  0  0  0  0  0  0  0
   -0.1311   -2.6276    2.1641 C   0  0  0  0  0  0  0  0  0  0  0  0
    0.2662   -3.7100    2.9523 C   0  0  0  0  0  0  0  0  0  0  0  0
   -0.4052   -4.9231    2.8498 C   0  0  0  0  0  0  0  0  0  0  0  0
   -1.4624   -5.0691    1.9561 C   0  0  0  0  0  0  0  0  0  0  0  0
   -1.8604   -3.9936    1.1509 C   0  0  0  0  0  0  0  0  0  0  0  0
   -3.0875   -4.3534   -0.0189 Cl  0  0  0  0  0  0  0  0  0  0  0  0
    0.0761   -6.2509    3.8300 Cl  0  0  0  0  0  0  0  0  0  0  0  0
    3.3519   -2.4326   -0.8321 H   0  0  0  0  0  0  0  0  0  0  0  0
    0.9053   -2.5136   -0.7732 H   0  0  0  0  0  0  0  0  0  0  0  0
   -2.1400    2.2512   -1.4111 H   0  0  0  0  0  0  0  0  0  0  0  0
   -0.5884    1.5573   -1.8230 H   0  0  0  0  0  0  0  0  0  0  0  0
   -1.3709    2.7383    0.8910 H   0  0  0  0  0  0  0  0  0  0  0  0
   -0.3992    3.5292   -0.3230 H   0  0  0  0  0  0  0  0  0  0  0  0
    0.4246    1.8079    1.8335 H   0  0  0  0  0  0  0  0  0  0  0  0
    1.3647    2.8052    0.7651 H   0  0  0  0  0  0  0  0  0  0  0  0
    3.2804    1.6569    0.4523 H   0  0  0  0  0  0  0  0  0  0  0  0
   -5.1049   -1.3769    0.1293 H   0  0  0  0  0  0  0  0  0  0  0  0
   -7.3309   -2.0599   -1.0814 H   0  0  0  0  0  0  0  0  0  0  0  0
   -6.8837   -0.9317   -2.3651 H   0  0  0  0  0  0  0  0  0  0  0  0
   -9.3392   -1.3534   -2.2948 H   0  0  0  0  0  0  0  0  0  0  0  0
   -8.9363    0.3488   -2.0836 H   0  0  0  0  0  0  0  0  0  0  0  0
   -9.7445   -1.6399    0.0893 H   0  0  0  0  0  0  0  0  0  0  0  0
  -10.6534   -0.2321   -0.4560 H   0  0  0  0  0  0  0  0  0  0  0  0
   -9.4181    0.1576    1.7054 H   0  0  0  0  0  0  0  0  0  0  0  0
   -8.9703    1.2956    0.4368 H   0  0  0  0  0  0  0  0  0  0  0  0
   -6.9604    0.5053    1.5853 H   0  0  0  0  0  0  0  0  0  0  0  0
   -7.3944   -1.1847    1.3084 H   0  0  0  0  0  0  0  0  0  0  0  0
    0.3844   -1.6808    2.3111 H   0  0  0  0  0  0  0  0  0  0  0  0
    1.0917   -3.5939    3.6507 H   0  0  0  0  0  0  0  0  0  0  0  0
   -1.9666   -6.0289    1.8718 H   0  0  0  0  0  0  0  0  0  0  0  0
  1 11  2  0  0  0  0
  1  2  1  0  0  0  0
  1 33  1  0  0  0  0
  2  3  2  0  0  0  0
  2 34  1  0  0  0  0
  3  9  1  0  0  0  0
  3  4  1  0  0  0  0
  4 24  1  0  0  0  0
  4  5  2  0  0  0  0
  5  6  1  0  0  0  0
  5 13  1  0  0  0  0
  6  7  1  0  0  0  0
  6 35  1  0  0  0  0
  6 36  1  0  0  0  0
  7  8  1  0  0  0  0
  7 37  1  0  0  0  0
  7 38  1  0  0  0  0
  8  9  1  0  0  0  0
  8 39  1  0  0  0  0
  8 40  1  0  0  0  0
  9 10  2  0  0  0  0
 10 11  1  0  0  0  0
 10 41  1  0  0  0  0
 11 12  1  0  0  0  0
 13 14  1  0  0  0  0
 13 23  2  0  0  0  0
 14 15  2  0  0  0  0
 14 16  1  0  0  0  0
 16 17  1  0  0  0  0
 16 42  1  0  0  0  0
 17 22  1  0  0  0  0
 17 18  1  0  0  0  0
 18 19  1  0  0  0  0
 18 43  1  0  0  0  0
 18 44  1  0  0  0  0
 19 20  1  0  0  0  0
 19 45  1  0  0  0  0
 19 46  1  0  0  0  0
 20 21  1  0  0  0  0
 20 47  1  0  0  0  0
 20 48  1  0  0  0  0
 21 22  1  0  0  0  0
 21 49  1  0  0  0  0
 21 50  1  0  0  0  0
 22 51  1  0  0  0  0
 22 52  1  0  0  0  0
 23 24  1  0  0  0  0
 24 25  1  0  0  0  0
 25 30  2  0  0  0  0
 25 26  1  0  0  0  0
 26 27  2  0  0  0  0
 26 53  1  0  0  0  0
 27 28  1  0  0  0  0
 27 54  1  0  0  0  0
 28 29  2  0  0  0  0
 28 32  1  0  0  0  0
 29 30  1  0  0  0  0
 29 55  1  0  0  0  0
 30 31  1  0  0  0  0
M  END
$$$$
CHEMBL1088223
 OpenBabel12022417373D

 53 56  0  0  0  0  0  0  0  0999 V2000
    3.1952    0.3448    1.6367 C   0  0  0  0  0  0  0  0  0  0  0  0
    2.7685   -0.2623   -0.0038 S   0  3  2  0  0  0  0  0  0  0  0  0
    1.0413   -0.0886   -0.0480 C   0  0  0  0  0  0  0  0  0  0  0  0
    0.0985   -0.6932    0.7799 C   0  0  0  0  0  0  0  0  0  0  0  0
    0.2829   -1.6004    1.9352 C   0  0  0  0  0  0  0  0  0  0  0  0
    1.3786   -1.9998    2.3155 O   0  0  0  0  0  0  0  0  0  0  0  0
   -0.9158   -1.9146    2.5838 N   0  0  0  0  0  0  0  0  0  0  0  0
   -1.0169   -2.7277    3.7570 N   0  0  0  0  0  0  0  0  0  0  0  0
   -0.7115   -4.1423    3.4873 C   0  0  0  0  0  0  0  0  0  0  0  0
   -0.9692   -5.0118    4.7243 C   0  0  0  0  0  0  0  0  0  0  0  0
   -0.1774   -4.5148    5.9285 C   0  0  0  0  0  0  0  0  0  0  0  0
   -0.4532   -3.0337    6.1642 C   0  0  0  0  0  0  0  0  0  0  0  0
   -0.2300   -2.2099    4.8906 C   0  0  0  0  0  0  0  0  0  0  0  0
   -1.1694   -0.3110    0.3659 N   0  0  0  0  0  0  0  0  0  0  0  0
   -1.0389    0.4419   -0.7128 C   0  0  0  0  0  0  0  0  0  0  0  0
   -2.1919    0.8299   -1.5682 C   0  0  0  0  0  0  0  0  0  0  0  0
   -2.1028    0.7310   -2.9737 C   0  0  0  0  0  0  0  0  0  0  0  0
   -3.1682    1.0921   -3.8053 C   0  0  0  0  0  0  0  0  0  0  0  0
   -4.3756    1.4875   -3.2451 C   0  0  0  0  0  0  0  0  0  0  0  0
   -4.5123    1.5608   -1.8631 C   0  0  0  0  0  0  0  0  0  0  0  0
   -3.4257    1.2509   -1.0297 C   0  0  0  0  0  0  0  0  0  0  0  0
   -3.6814    1.4625    0.6702 Cl  0  0  0  0  0  0  0  0  0  0  0  0
   -5.7024    1.8803   -4.2652 Cl  0  0  0  0  0  0  0  0  0  0  0  0
    0.3276    0.6744   -0.9770 N   0  0  0  0  0  0  0  0  0  0  0  0
    0.8589    1.4961   -2.0344 C   0  0  0  0  0  0  0  0  0  0  0  0
    0.2170    2.6947   -2.3922 C   0  0  0  0  0  0  0  0  0  0  0  0
    0.6361    3.4201   -3.5159 C   0  0  0  0  0  0  0  0  0  0  0  0
    1.7280    2.9824   -4.2590 C   0  0  0  0  0  0  0  0  0  0  0  0
    2.4025    1.8230   -3.8904 C   0  0  0  0  0  0  0  0  0  0  0  0
    1.9615    1.0728   -2.7925 C   0  0  0  0  0  0  0  0  0  0  0  0
    2.2274    3.8584   -5.6517 Cl  0  0  0  0  0  0  0  0  0  0  0  0
    3.0505   -1.8009   -0.0757 O   0  5  0  0  0  0  0  0  0  0  0  0
    4.1881   -0.0392    1.8929 H   0  0  0  0  0  0  0  0  0  0  0  0
    2.4935    0.0517    2.4135 H   0  0  0  0  0  0  0  0  0  0  0  0
    3.2474    1.4356    1.6032 H   0  0  0  0  0  0  0  0  0  0  0  0
   -1.7716   -1.5348    2.1771 H   0  0  0  0  0  0  0  0  0  0  0  0
    0.3301   -4.2712    3.1681 H   0  0  0  0  0  0  0  0  0  0  0  0
   -1.3502   -4.5088    2.6750 H   0  0  0  0  0  0  0  0  0  0  0  0
   -0.6992   -6.0527    4.5116 H   0  0  0  0  0  0  0  0  0  0  0  0
   -2.0398   -5.0043    4.9664 H   0  0  0  0  0  0  0  0  0  0  0  0
    0.8944   -4.6686    5.7538 H   0  0  0  0  0  0  0  0  0  0  0  0
   -0.4432   -5.0942    6.8208 H   0  0  0  0  0  0  0  0  0  0  0  0
    0.2011   -2.6637    6.9628 H   0  0  0  0  0  0  0  0  0  0  0  0
   -1.4852   -2.9060    6.5134 H   0  0  0  0  0  0  0  0  0  0  0  0
   -0.5227   -1.1739    5.0967 H   0  0  0  0  0  0  0  0  0  0  0  0
    0.8434   -2.2073    4.6701 H   0  0  0  0  0  0  0  0  0  0  0  0
   -1.1909    0.3817   -3.4543 H   0  0  0  0  0  0  0  0  0  0  0  0
   -3.0482    1.0497   -4.8860 H   0  0  0  0  0  0  0  0  0  0  0  0
   -5.4648    1.8627   -1.4320 H   0  0  0  0  0  0  0  0  0  0  0  0
   -0.6278    3.0835   -1.8267 H   0  0  0  0  0  0  0  0  0  0  0  0
    0.0972    4.3169   -3.8133 H   0  0  0  0  0  0  0  0  0  0  0  0
    3.2523    1.4738   -4.4733 H   0  0  0  0  0  0  0  0  0  0  0  0
    2.4611    0.1236   -2.6183 H   0  0  0  0  0  0  0  0  0  0  0  0
  1 33  1  0  0  0  0
  1 34  1  0  0  0  0
  1 35  1  0  0  0  0
  2 32  1  1  0  0  0
  2  3  1  0  0  0  0
  2  1  1  0  0  0  0
  3 24  1  0  0  0  0
  3  4  2  0  0  0  0
  4  5  1  0  0  0  0
  4 14  1  0  0  0  0
  5  6  2  0  0  0  0
  5  7  1  0  0  0  0
  7  8  1  0  0  0  0
  7 36  1  0  0  0  0
  8 13  1  0  0  0  0
  8  9  1  0  0  0  0
  9 10  1  0  0  0  0
  9 37  1  0  0  0  0
  9 38  1  0  0  0  0
 10 11  1  0  0  0  0
 10 39  1  0  0  0  0
 10 40  1  0  0  0  0
 11 12  1  0  0  0  0
 11 41  1  0  0  0  0
 11 42  1  0  0  0  0
 12 13  1  0  0  0  0
 12 43  1  0  0  0  0
 12 44  1  0  0  0  0
 13 45  1  0  0  0  0
 13 46  1  0  0  0  0
 14 15  2  0  0  0  0
 15 16  1  0  0  0  0
 15 24  1  0  0  0  0
 16 21  2  0  0  0  0
 16 17  1  0  0  0  0
 17 18  2  0  0  0  0
 17 47  1  0  0  0  0
 18 19  1  0  0  0  0
 18 48  1  0  0  0  0
 19 20  2  0  0  0  0
 19 23  1  0  0  0  0
 20 21  1  0  0  0  0
 20 49  1  0  0  0  0
 21 22  1  0  0  0  0
 24 25  1  0  0  0  0
 25 30  2  0  0  0  0
 25 26  1  0  0  0  0
 26 27  2  0  0  0  0
 26 50  1  0  0  0  0
 27 28  1  0  0  0  0
 27 51  1  0  0  0  0
 28 29  2  0  0  0  0
 28 31  1  0  0  0  0
 29 30  1  0  0  0  0
 29 52  1  0  0  0  0
 30 53  1  0  0  0  0
M  CHG  2   2   1  32  -1
M  END
$$$$
CHEMBL1098696
 OpenBabel12022417373D

 53 56  0  0  0  0  0  0  0  0999 V2000
    3.3948   -1.6045    0.0155 C   0  0  0  0  0  0  0  0  0  0  0  0
    2.7671    0.0561   -0.1042 S   0  3  2  0  0  0  0  0  0  0  0  0
    1.0433    0.0292    0.0182 C   0  0  0  0  0  0  0  0  0  0  0  0
    0.0708   -0.9281   -0.3892 C   0  0  0  0  0  0  0  0  0  0  0  0
    0.1767   -2.2400   -1.0738 C   0  0  0  0  0  0  0  0  0  0  0  0
    1.2491   -2.7390   -1.4135 O   0  0  0  0  0  0  0  0  0  0  0  0
   -1.0710   -2.8471   -1.2820 N   0  0  0  0  0  0  0  0  0  0  0  0
   -1.2909   -4.1155   -1.8952 N   0  0  0  0  0  0  0  0  0  0  0  0
   -1.0182   -4.0968   -3.3400 C   0  0  0  0  0  0  0  0  0  0  0  0
   -1.3114   -5.4480   -4.0030 C   0  0  0  0  0  0  0  0  0  0  0  0
   -0.5494   -6.5734   -3.3160 C   0  0  0  0  0  0  0  0  0  0  0  0
   -0.8770   -6.5820   -1.8286 C   0  0  0  0  0  0  0  0  0  0  0  0
   -0.6157   -5.2143   -1.1898 C   0  0  0  0  0  0  0  0  0  0  0  0
   -1.1621   -0.4861   -0.0684 N   0  0  0  0  0  0  0  0  0  0  0  0
   -1.0085    0.7772    0.3849 N   0  0  0  0  0  0  0  0  0  0  0  0
   -2.1700    1.5926    0.5347 C   0  0  0  0  0  0  0  0  0  0  0  0
   -2.1365    2.9230    0.0717 C   0  0  0  0  0  0  0  0  0  0  0  0
   -3.2623    3.7392    0.1958 C   0  0  0  0  0  0  0  0  0  0  0  0
   -4.4293    3.2305    0.7625 C   0  0  0  0  0  0  0  0  0  0  0  0
   -4.4753    1.9187    1.2284 C   0  0  0  0  0  0  0  0  0  0  0  0
   -3.3507    1.0937    1.1169 C   0  0  0  0  0  0  0  0  0  0  0  0
   -3.4673   -0.4555    1.8832 Cl  0  0  0  0  0  0  0  0  0  0  0  0
   -5.8159    4.2387    0.9067 Cl  0  0  0  0  0  0  0  0  0  0  0  0
    0.3355    1.1192    0.5512 C   0  0  0  0  0  0  0  0  0  0  0  0
    0.8077    2.3525    1.2446 C   0  0  0  0  0  0  0  0  0  0  0  0
    0.1121    2.8772    2.3496 C   0  0  0  0  0  0  0  0  0  0  0  0
    0.5371    4.0459    2.9949 C   0  0  0  0  0  0  0  0  0  0  0  0
    1.7157    4.6656    2.5997 C   0  0  0  0  0  0  0  0  0  0  0  0
    2.4453    4.1500    1.5378 C   0  0  0  0  0  0  0  0  0  0  0  0
    1.9704    3.0305    0.8437 C   0  0  0  0  0  0  0  0  0  0  0  0
    2.2668    6.0716    3.4193 Cl  0  0  0  0  0  0  0  0  0  0  0  0
    3.0981    0.6357   -1.5244 O   0  5  0  0  0  0  0  0  0  0  0  0
    4.4235   -1.5186    0.3855 H   0  0  0  0  0  0  0  0  0  0  0  0
    3.4553   -2.0761   -0.9655 H   0  0  0  0  0  0  0  0  0  0  0  0
    2.8314   -2.2049    0.7301 H   0  0  0  0  0  0  0  0  0  0  0  0
   -1.8821   -2.3235   -0.9458 H   0  0  0  0  0  0  0  0  0  0  0  0
    0.0234   -3.8202   -3.5399 H   0  0  0  0  0  0  0  0  0  0  0  0
   -1.6540   -3.3422   -3.8196 H   0  0  0  0  0  0  0  0  0  0  0  0
   -1.0346   -5.4098   -5.0630 H   0  0  0  0  0  0  0  0  0  0  0  0
   -2.3880   -5.6598   -3.9639 H   0  0  0  0  0  0  0  0  0  0  0  0
    0.5289   -6.4306   -3.4586 H   0  0  0  0  0  0  0  0  0  0  0  0
   -0.8084   -7.5384   -3.7660 H   0  0  0  0  0  0  0  0  0  0  0  0
   -0.2694   -7.3429   -1.3249 H   0  0  0  0  0  0  0  0  0  0  0  0
   -1.9270   -6.8674   -1.6870 H   0  0  0  0  0  0  0  0  0  0  0  0
   -0.9752   -5.2490   -0.1542 H   0  0  0  0  0  0  0  0  0  0  0  0
    0.4674   -5.0566   -1.1527 H   0  0  0  0  0  0  0  0  0  0  0  0
   -1.2484    3.3355   -0.4093 H   0  0  0  0  0  0  0  0  0  0  0  0
   -3.2263    4.7664   -0.1599 H   0  0  0  0  0  0  0  0  0  0  0  0
   -5.3851    1.5444    1.6954 H   0  0  0  0  0  0  0  0  0  0  0  0
   -0.7889    2.4007    2.7298 H   0  0  0  0  0  0  0  0  0  0  0  0
   -0.0541    4.4580    3.8088 H   0  0  0  0  0  0  0  0  0  0  0  0
    3.3791    4.6140    1.2295 H   0  0  0  0  0  0  0  0  0  0  0  0
    2.5437    2.7175   -0.0247 H   0  0  0  0  0  0  0  0  0  0  0  0
  1 33  1  0  0  0  0
  1 34  1  0  0  0  0
  1 35  1  0  0  0  0
  2 32  1  6  0  0  0
  2  3  1  0  0  0  0
  2  1  1  0  0  0  0
  3 24  2  0  0  0  0
  3  4  1  0  0  0  0
  4  5  1  0  0  0  0
  4 14  2  0  0  0  0
  5  6  2  0  0  0  0
  5  7  1  0  0  0  0
  7  8  1  0  0  0  0
  7 36  1  0  0  0  0
  8 13  1  0  0  0  0
  8  9  1  0  0  0  0
  9 10  1  0  0  0  0
  9 37  1  0  0  0  0
  9 38  1  0  0  0  0
 10 11  1  0  0  0  0
 10 39  1  0  0  0  0
 10 40  1  0  0  0  0
 11 12  1  0  0  0  0
 11 41  1  0  0  0  0
 11 42  1  0  0  0  0
 12 13  1  0  0  0  0
 12 43  1  0  0  0  0
 12 44  1  0  0  0  0
 13 45  1  0  0  0  0
 13 46  1  0  0  0  0
 14 15  1  0  0  0  0
 15 16  1  0  0  0  0
 15 24  1  0  0  0  0
 16 21  2  0  0  0  0
 16 17  1  0  0  0  0
 17 18  2  0  0  0  0
 17 47  1  0  0  0  0
 18 19  1  0  0  0  0
 18 48  1  0  0  0  0
 19 20  2  0  0  0  0
 19 23  1  0  0  0  0
 20 21  1  0  0  0  0
 20 49  1  0  0  0  0
 21 22  1  0  0  0  0
 24 25  1  0  0  0  0
 25 30  2  0  0  0  0
 25 26  1  0  0  0  0
 26 27  2  0  0  0  0
 26 50  1  0  0  0  0
 27 28  1  0  0  0  0
 27 51  1  0  0  0  0
 28 29  2  0  0  0  0
 28 31  1  0  0  0  0
 29 30  1  0  0  0  0
 29 52  1  0  0  0  0
 30 53  1  0  0  0  0
M  CHG  2   2   1  32  -1
M  END
$$$$
CHEMBL1269775
 OpenBabel12022417373D

 97 99  0  0  0  0  0  0  0  0999 V2000
    2.8011    0.3008    3.5186 C   0  0  0  0  0  0  0  0  0  0  0  0
    2.7473    0.0208    2.0509 C   0  0  0  0  0  0  0  0  0  0  0  0
    2.5326    1.0078    1.0327 C   0  0  0  0  0  0  0  0  0  0  0  0
    2.2740    2.4685    1.1983 C   0  0  0  0  0  0  0  0  0  0  0  0
    2.1798    2.9838    2.3060 O   0  0  0  0  0  0  0  0  0  0  0  0
    2.1543    3.1816    0.0268 N   0  0  0  0  0  0  0  0  0  0  0  0
    1.9023    4.6224    0.0040 C   0  0  0  0  0  0  0  0  0  0  0  0
    0.4057    4.9562   -0.0188 C   0  0  0  0  0  0  0  0  0  0  0  0
    0.1381    6.4693   -0.0305 C   0  0  0  0  0  0  0  0  0  0  0  0
   -1.3647    6.7750   -0.0442 C   0  0  0  0  0  0  0  0  0  0  0  0
   -1.6458    8.2810   -0.0512 C   0  0  0  0  0  0  0  0  0  0  0  0
   -3.1487    8.5544   -0.0603 C   0  0  0  0  0  0  0  0  0  0  0  0
   -3.4561   10.0503   -0.0634 C   0  0  0  0  0  0  0  0  0  0  0  0
   -4.9692   10.2672   -0.0450 C   0  0  0  0  0  0  0  0  0  0  0  0
   -5.3089   11.7567   -0.0335 C   0  0  0  0  0  0  0  0  0  0  0  0
   -6.7563   12.0299   -0.0644 N   0  0  0  0  0  0  0  0  0  0  0  0
   -7.4499   11.4740    1.1006 C   0  0  0  0  0  0  0  0  0  0  0  0
   -7.0186   13.4796   -0.1485 C   0  0  0  0  0  0  0  0  0  0  0  0
   -6.4714   14.1339   -1.4224 C   0  0  0  0  0  0  0  0  0  0  0  0
   -7.0308   13.4946   -2.6915 C   0  0  0  0  0  0  0  0  0  0  0  0
   -6.4010   14.1370   -3.9208 C   0  0  0  0  0  0  0  0  0  0  0  0
   -6.9581   13.5277   -5.1994 C   0  0  0  0  0  0  0  0  0  0  0  0
   -6.3218   14.1835   -6.4189 C   0  0  0  0  0  0  0  0  0  0  0  0
   -6.8773   13.5812   -7.7038 C   0  0  0  0  0  0  0  0  0  0  0  0
   -6.2456   14.2363   -8.9293 C   0  0  0  0  0  0  0  0  0  0  0  0
   -6.8082   13.6331  -10.2112 C   0  0  0  0  0  0  0  0  0  0  0  0
   -6.2001   14.2709  -11.3730 N   0  0  0  0  0  0  0  0  0  0  0  0
    2.6000    0.4508   -0.1887 N   0  0  0  0  0  0  0  0  0  0  0  0
    2.7985   -0.8749    0.0242 N   0  0  0  0  0  0  0  0  0  0  0  0
    2.7269   -1.7550   -1.0940 C   0  0  0  0  0  0  0  0  0  0  0  0
    1.9913   -2.9507   -0.9862 C   0  0  0  0  0  0  0  0  0  0  0  0
    1.8769   -3.8098   -2.0807 C   0  0  0  0  0  0  0  0  0  0  0  0
    2.4733   -3.4698   -3.2910 C   0  0  0  0  0  0  0  0  0  0  0  0
    3.2277   -2.3048   -3.4048 C   0  0  0  0  0  0  0  0  0  0  0  0
    3.3672   -1.4474   -2.3069 C   0  0  0  0  0  0  0  0  0  0  0  0
    4.4879   -0.1401   -2.4980 Cl  0  0  0  0  0  0  0  0  0  0  0  0
    2.2805   -4.4990   -4.6552 Cl  0  0  0  0  0  0  0  0  0  0  0  0
    2.9275   -1.1934    1.3853 C   0  0  0  0  0  0  0  0  0  0  0  0
    3.2950   -2.5322    1.9183 C   0  0  0  0  0  0  0  0  0  0  0  0
    4.1424   -3.4011    1.2090 C   0  0  0  0  0  0  0  0  0  0  0  0
    4.4533   -4.6789    1.6880 C   0  0  0  0  0  0  0  0  0  0  0  0
    4.0000   -5.0729    2.9395 C   0  0  0  0  0  0  0  0  0  0  0  0
    3.1978   -4.2200    3.6878 C   0  0  0  0  0  0  0  0  0  0  0  0
    2.8165   -2.9784    3.1615 C   0  0  0  0  0  0  0  0  0  0  0  0
    4.4337   -6.6149    3.5616 Cl  0  0  0  0  0  0  0  0  0  0  0  0
    3.1365   -0.5545    4.1023 H   0  0  0  0  0  0  0  0  0  0  0  0
    1.8132    0.5912    3.8863 H   0  0  0  0  0  0  0  0  0  0  0  0
    3.5128    1.1045    3.7348 H   0  0  0  0  0  0  0  0  0  0  0  0
    2.2558    2.6598   -0.8297 H   0  0  0  0  0  0  0  0  0  0  0  0
    2.3927    5.0209   -0.8920 H   0  0  0  0  0  0  0  0  0  0  0  0
    2.3752    5.0843    0.8784 H   0  0  0  0  0  0  0  0  0  0  0  0
   -0.0807    4.5082    0.8550 H   0  0  0  0  0  0  0  0  0  0  0  0
   -0.0522    4.4993   -0.9045 H   0  0  0  0  0  0  0  0  0  0  0  0
    0.6080    6.9235   -0.9115 H   0  0  0  0  0  0  0  0  0  0  0  0
    0.5930    6.9327    0.8533 H   0  0  0  0  0  0  0  0  0  0  0  0
   -1.8388    6.3228    0.8360 H   0  0  0  0  0  0  0  0  0  0  0  0
   -1.8253    6.3167   -0.9281 H   0  0  0  0  0  0  0  0  0  0  0  0
   -1.1848    8.7421   -0.9327 H   0  0  0  0  0  0  0  0  0  0  0  0
   -1.1954    8.7470    0.8335 H   0  0  0  0  0  0  0  0  0  0  0  0
   -3.6113    8.0933    0.8209 H   0  0  0  0  0  0  0  0  0  0  0  0
   -3.6049    8.0903   -0.9431 H   0  0  0  0  0  0  0  0  0  0  0  0
   -3.0174   10.5251   -0.9497 H   0  0  0  0  0  0  0  0  0  0  0  0
   -3.0069   10.5271    0.8164 H   0  0  0  0  0  0  0  0  0  0  0  0
   -5.3729    9.7700    0.8421 H   0  0  0  0  0  0  0  0  0  0  0  0
   -5.4217    9.7951   -0.9262 H   0  0  0  0  0  0  0  0  0  0  0  0
   -4.8392   12.1698   -0.9327 H   0  0  0  0  0  0  0  0  0  0  0  0
   -4.8417   12.2483    0.8287 H   0  0  0  0  0  0  0  0  0  0  0  0
   -7.3637   10.3842    1.1391 H   0  0  0  0  0  0  0  0  0  0  0  0
   -8.5256   11.6746    1.0417 H   0  0  0  0  0  0  0  0  0  0  0  0
   -7.0694   11.8881    2.0407 H   0  0  0  0  0  0  0  0  0  0  0  0
   -6.5992   13.9970    0.7240 H   0  0  0  0  0  0  0  0  0  0  0  0
   -8.1024   13.6536   -0.1304 H   0  0  0  0  0  0  0  0  0  0  0  0
   -5.3761   14.0977   -1.4373 H   0  0  0  0  0  0  0  0  0  0  0  0
   -6.7265   15.2004   -1.4088 H   0  0  0  0  0  0  0  0  0  0  0  0
   -8.1202   13.6179   -2.7176 H   0  0  0  0  0  0  0  0  0  0  0  0
   -6.8275   12.4173   -2.7091 H   0  0  0  0  0  0  0  0  0  0  0  0
   -5.3134   13.9974   -3.8908 H   0  0  0  0  0  0  0  0  0  0  0  0
   -6.5900   15.2175   -3.9102 H   0  0  0  0  0  0  0  0  0  0  0  0
   -8.0464   13.6607   -5.2304 H   0  0  0  0  0  0  0  0  0  0  0  0
   -6.7627   12.4485   -5.2133 H   0  0  0  0  0  0  0  0  0  0  0  0
   -5.2334   14.0491   -6.3855 H   0  0  0  0  0  0  0  0  0  0  0  0
   -6.5147   15.2632   -6.4004 H   0  0  0  0  0  0  0  0  0  0  0  0
   -7.9656   13.7152   -7.7313 H   0  0  0  0  0  0  0  0  0  0  0  0
   -6.6829   12.5021   -7.7183 H   0  0  0  0  0  0  0  0  0  0  0  0
   -5.1572   14.1017   -8.8968 H   0  0  0  0  0  0  0  0  0  0  0  0
   -6.4389   15.3169   -8.9052 H   0  0  0  0  0  0  0  0  0  0  0  0
   -7.8945   13.7678  -10.2487 H   0  0  0  0  0  0  0  0  0  0  0  0
   -6.6040   12.5573  -10.2420 H   0  0  0  0  0  0  0  0  0  0  0  0
   -6.4106   15.2672  -11.3646 H   0  0  0  0  0  0  0  0  0  0  0  0
   -6.6188   13.8955  -12.2216 H   0  0  0  0  0  0  0  0  0  0  0  0
    1.4871   -3.2262   -0.0615 H   0  0  0  0  0  0  0  0  0  0  0  0
    1.3124   -4.7349   -1.9841 H   0  0  0  0  0  0  0  0  0  0  0  0
    3.7246   -2.0726   -4.3437 H   0  0  0  0  0  0  0  0  0  0  0  0
    4.5684   -3.1178    0.2490 H   0  0  0  0  0  0  0  0  0  0  0  0
    5.0569   -5.3486    1.0810 H   0  0  0  0  0  0  0  0  0  0  0  0
    2.8567   -4.5114    4.6775 H   0  0  0  0  0  0  0  0  0  0  0  0
    2.1367   -2.3714    3.7519 H   0  0  0  0  0  0  0  0  0  0  0  0
  1  2  1  0  0  0  0
  1 46  1  0  0  0  0
  1 47  1  0  0  0  0
  1 48  1  0  0  0  0
  2 38  2  0  0  0  0
  2  3  1  0  0  0  0
  3  4  1  0  0  0  0
  3 28  2  0  0  0  0
  4  5  2  0  0  0  0
  4  6  1  0  0  0  0
  6  7  1  0  0  0  0
  6 49  1  0  0  0  0
  7  8  1  0  0  0  0
  7 50  1  0  0  0  0
  7 51  1  0  0  0  0
  8  9  1  0  0  0  0
  8 52  1  0  0  0  0
  8 53  1  0  0  0  0
  9 10  1  0  0  0  0
  9 54  1  0  0  0  0
  9 55  1  0  0  0  0
 10 11  1  0  0  0  0
 10 56  1  0  0  0  0
 10 57  1  0  0  0  0
 11 12  1  0  0  0  0
 11 58  1  0  0  0  0
 11 59  1  0  0  0  0
 12 13  1  0  0  0  0
 12 60  1  0  0  0  0
 12 61  1  0  0  0  0
 13 14  1  0  0  0  0
 13 62  1  0  0  0  0
 13 63  1  0  0  0  0
 14 15  1  0  0  0  0
 14 64  1  0  0  0  0
 14 65  1  0  0  0  0
 15 16  1  0  0  0  0
 15 66  1  0  0  0  0
 15 67  1  0  0  0  0
 16 17  1  0  0  0  0
 16 18  1  0  0  0  0
 17 68  1  0  0  0  0
 17 69  1  0  0  0  0
 17 70  1  0  0  0  0
 18 19  1  0  0  0  0
 18 71  1  0  0  0  0
 18 72  1  0  0  0  0
 19 20  1  0  0  0  0
 19 73  1  0  0  0  0
 19 74  1  0  0  0  0
 20 21  1  0  0  0  0
 20 75  1  0  0  0  0
 20 76  1  0  0  0  0
 21 22  1  0  0  0  0
 21 77  1  0  0  0  0
 21 78  1  0  0  0  0
 22 23  1  0  0  0  0
 22 79  1  0  0  0  0
 22 80  1  0  0  0  0
 23 24  1  0  0  0  0
 23 81  1  0  0  0  0
 23 82  1  0  0  0  0
 24 25  1  0  0  0  0
 24 83  1  0  0  0  0
 24 84  1  0  0  0  0
 25 26  1  0  0  0  0
 25 85  1  0  0  0  0
 25 86  1  0  0  0  0
 26 27  1  0  0  0  0
 26 87  1  0  0  0  0
 26 88  1  0  0  0  0
 27 89  1  0  0  0  0
 27 90  1  0  0  0  0
 28 29  1  0  0  0  0
 29 30  1  0  0  0  0
 29 38  1  0  0  0  0
 30 35  2  0  0  0  0
 30 31  1  0  0  0  0
 31 32  2  0  0  0  0
 31 91  1  0  0  0  0
 32 33  1  0  0  0  0
 32 92  1  0  0  0  0
 33 34  2  0  0  0  0
 33 37  1  0  0  0  0
 34 35  1  0  0  0  0
 34 93  1  0  0  0  0
 35 36  1  0  0  0  0
 38 39  1  0  0  0  0
 39 44  2  0  0  0  0
 39 40  1  0  0  0  0
 40 41  2  0  0  0  0
 40 94  1  0  0  0  0
 41 42  1  0  0  0  0
 41 95  1  0  0  0  0
 42 43  2  0  0  0  0
 42 45  1  0  0  0  0
 43 44  1  0  0  0  0
 43 96  1  0  0  0  0
 44 97  1  0  0  0  0
M  END
$$$$
CHEMBL272203
 OpenBabel12022417373D

 50 53  0  0  0  0  0  0  0  0999 V2000
    1.1366    0.4530    0.0477 C   0  0  0  0  0  0  0  0  0  0  0  0
    2.6043    0.2006    0.0663 C   0  0  0  0  0  0  0  0  0  0  0  0
    3.6150    1.2177    0.1837 C   0  0  0  0  0  0  0  0  0  0  0  0
    3.4247    2.7015    0.1911 C   0  0  0  0  0  0  0  0  0  0  0  0
    2.3251    3.2283    0.0712 O   0  0  0  0  0  0  0  0  0  0  0  0
    4.6003    3.4142    0.3278 N   0  0  0  0  0  0  0  0  0  0  0  0
    4.7530    4.8690    0.3584 C   0  0  0  0  0  0  0  0  0  0  0  0
    4.4269    5.5475   -0.9805 C   0  0  0  0  0  0  0  0  0  0  0  0
    4.7131    7.0523   -0.9281 C   0  0  0  0  0  0  0  0  0  0  0  0
    3.9864    7.7342    0.2281 C   0  0  0  0  0  0  0  0  0  0  0  0
    4.2809    7.0499    1.5604 C   0  0  0  0  0  0  0  0  0  0  0  0
    3.9926    5.5463    1.5091 C   0  0  0  0  0  0  0  0  0  0  0  0
    4.8365    0.6648    0.3390 N   0  0  0  0  0  0  0  0  0  0  0  0
    4.6497   -0.6720    0.1556 N   0  0  0  0  0  0  0  0  0  0  0  0
    5.7940   -1.4907   -0.0863 C   0  0  0  0  0  0  0  0  0  0  0  0
    5.7406   -2.5659   -0.9859 C   0  0  0  0  0  0  0  0  0  0  0  0
    6.8718   -3.3584   -1.2008 C   0  0  0  0  0  0  0  0  0  0  0  0
    8.0638   -3.0807   -0.5277 C   0  0  0  0  0  0  0  0  0  0  0  0
    8.1240   -2.0024    0.3636 C   0  0  0  0  0  0  0  0  0  0  0  0
    6.9964   -1.1981    0.5719 C   0  0  0  0  0  0  0  0  0  0  0  0
    9.5562   -1.6224    1.2530 Cl  0  0  0  0  0  0  0  0  0  0  0  0
    9.4225   -4.0975   -0.8516 Cl  0  0  0  0  0  0  0  0  0  0  0  0
    3.3058   -0.9982    0.1048 C   0  0  0  0  0  0  0  0  0  0  0  0
    2.8035   -2.3058    0.1636 N   0  0  0  0  0  0  0  0  0  0  0  0
    3.3589   -3.3787    0.8438 C   0  0  0  0  0  0  0  0  0  0  0  0
    2.5895   -4.5033    0.6501 C   0  0  0  0  0  0  0  0  0  0  0  0
    1.5000   -4.1226   -0.1555 C   0  0  0  0  0  0  0  0  0  0  0  0
    1.6521   -2.7818   -0.4360 C   0  0  0  0  0  0  0  0  0  0  0  0
    0.5451   -0.4531    0.1892 H   0  0  0  0  0  0  0  0  0  0  0  0
    0.8385    0.9113   -0.8999 H   0  0  0  0  0  0  0  0  0  0  0  0
    0.8564    1.1234    0.8668 H   0  0  0  0  0  0  0  0  0  0  0  0
    5.4333    2.8334    0.3741 H   0  0  0  0  0  0  0  0  0  0  0  0
    5.8250    5.0172    0.5460 H   0  0  0  0  0  0  0  0  0  0  0  0
    3.3734    5.3914   -1.2421 H   0  0  0  0  0  0  0  0  0  0  0  0
    5.0212    5.0974   -1.7844 H   0  0  0  0  0  0  0  0  0  0  0  0
    4.4172    7.5212   -1.8737 H   0  0  0  0  0  0  0  0  0  0  0  0
    5.7930    7.2153   -0.8198 H   0  0  0  0  0  0  0  0  0  0  0  0
    2.9059    7.7222    0.0401 H   0  0  0  0  0  0  0  0  0  0  0  0
    4.2863    8.7881    0.2811 H   0  0  0  0  0  0  0  0  0  0  0  0
    3.6824    7.5167    2.3513 H   0  0  0  0  0  0  0  0  0  0  0  0
    5.3338    7.2117    1.8238 H   0  0  0  0  0  0  0  0  0  0  0  0
    4.2754    5.0915    2.4655 H   0  0  0  0  0  0  0  0  0  0  0  0
    2.9121    5.3973    1.3964 H   0  0  0  0  0  0  0  0  0  0  0  0
    4.8413   -2.7947   -1.5547 H   0  0  0  0  0  0  0  0  0  0  0  0
    6.8160   -4.1905   -1.9003 H   0  0  0  0  0  0  0  0  0  0  0  0
    7.0492   -0.3714    1.2781 H   0  0  0  0  0  0  0  0  0  0  0  0
    4.2536   -3.2578    1.4400 H   0  0  0  0  0  0  0  0  0  0  0  0
    2.7872   -5.4866    1.0614 H   0  0  0  0  0  0  0  0  0  0  0  0
    0.6957   -4.7563   -0.5074 H   0  0  0  0  0  0  0  0  0  0  0  0
    1.0504   -2.1419   -1.0649 H   0  0  0  0  0  0  0  0  0  0  0  0
  1  2  1  0  0  0  0
  1 29  1  0  0  0  0
  1 30  1  0  0  0  0
  1 31  1  0  0  0  0
  2 23  2  0  0  0  0
  2  3  1  0  0  0  0
  3  4  1  0  0  0  0
  3 13  2  0  0  0  0
  4  5  2  0  0  0  0
  4  6  1  0  0  0  0
  6  7  1  0  0  0  0
  6 32  1  0  0  0  0
  7 12  1  0  0  0  0
  7  8  1  0  0  0  0
  7 33  1  0  0  0  0
  8  9  1  0  0  0  0
  8 34  1  0  0  0  0
  8 35  1  0  0  0  0
  9 10  1  0  0  0  0
  9 36  1  0  0  0  0
  9 37  1  0  0  0  0
 10 11  1  0  0  0  0
 10 38  1  0  0  0  0
 10 39  1  0  0  0  0
 11 12  1  0  0  0  0
 11 40  1  0  0  0  0
 11 41  1  0  0  0  0
 12 42  1  0  0  0  0
 12 43  1  0  0  0  0
 13 14  1  0  0  0  0
 14 15  1  0  0  0  0
 14 23  1  0  0  0  0
 15 20  2  0  0  0  0
 15 16  1  0  0  0  0
 16 17  2  0  0  0  0
 16 44  1  0  0  0  0
 17 18  1  0  0  0  0
 17 45  1  0  0  0  0
 18 19  2  0  0  0  0
 18 22  1  0  0  0  0
 19 20  1  0  0  0  0
 19 21  1  0  0  0  0
 20 46  1  0  0  0  0
 23 24  1  0  0  0  0
 24 28  1  0  0  0  0
 24 25  1  0  0  0  0
 25 26  2  0  0  0  0
 25 47  1  0  0  0  0
 26 27  1  0  0  0  0
 26 48  1  0  0  0  0
 27 28  2  0  0  0  0
 27 49  1  0  0  0  0
 28 50  1  0  0  0  0
M  END
$$$$
CHEMBL261381
 OpenBabel12022417373D

 49 52  0  0  0  0  0  0  0  0999 V2000
    1.0758    0.2822    0.0022 C   0  0  0  0  0  0  0  0  0  0  0  0
    2.5502    0.0514    0.0082 C   0  0  0  0  0  0  0  0  0  0  0  0
    3.5714    1.0695    0.0882 C   0  0  0  0  0  0  0  0  0  0  0  0
    3.4129    2.5614    0.0261 C   0  0  0  0  0  0  0  0  0  0  0  0
    2.3065    3.0882   -0.1080 O   0  0  0  0  0  0  0  0  0  0  0  0
    4.6185    3.2681    0.1287 N   0  0  0  0  0  0  0  0  0  0  0  0
    4.7678    4.6983    0.1679 N   0  0  0  0  0  0  0  0  0  0  0  0
    4.5430    5.3619   -1.1246 C   0  0  0  0  0  0  0  0  0  0  0  0
    4.9406    6.8488   -1.0637 C   0  0  0  0  0  0  0  0  0  0  0  0
    4.2190    7.5797    0.0591 C   0  0  0  0  0  0  0  0  0  0  0  0
    4.3979    6.8363    1.3790 C   0  0  0  0  0  0  0  0  0  0  0  0
    4.0188    5.3515    1.2522 C   0  0  0  0  0  0  0  0  0  0  0  0
    4.7834    0.5072    0.2738 N   0  0  0  0  0  0  0  0  0  0  0  0
    4.5863   -0.8351    0.1287 N   0  0  0  0  0  0  0  0  0  0  0  0
    5.7247   -1.6695   -0.0821 C   0  0  0  0  0  0  0  0  0  0  0  0
    5.6666   -2.7543   -0.9684 C   0  0  0  0  0  0  0  0  0  0  0  0
    6.7973   -3.5409   -1.1926 C   0  0  0  0  0  0  0  0  0  0  0  0
    7.9980   -3.2417   -0.5472 C   0  0  0  0  0  0  0  0  0  0  0  0
    8.0569   -2.1682    0.3513 C   0  0  0  0  0  0  0  0  0  0  0  0
    6.9238   -1.3768    0.5796 C   0  0  0  0  0  0  0  0  0  0  0  0
    9.5015   -1.7690    1.2117 Cl  0  0  0  0  0  0  0  0  0  0  0  0
    9.3739   -4.2125   -0.9314 Cl  0  0  0  0  0  0  0  0  0  0  0  0
    3.2416   -1.1509    0.0624 C   0  0  0  0  0  0  0  0  0  0  0  0
    2.7333   -2.4597    0.1116 N   0  0  0  0  0  0  0  0  0  0  0  0
    3.2926   -3.5425    0.7792 C   0  0  0  0  0  0  0  0  0  0  0  0
    2.5134   -4.6617    0.5882 C   0  0  0  0  0  0  0  0  0  0  0  0
    1.4096   -4.2700   -0.1930 C   0  0  0  0  0  0  0  0  0  0  0  0
    1.5789   -2.9290   -0.4835 C   0  0  0  0  0  0  0  0  0  0  0  0
    0.5046   -0.6433    0.0906 H   0  0  0  0  0  0  0  0  0  0  0  0
    0.7588    0.7804   -0.9169 H   0  0  0  0  0  0  0  0  0  0  0  0
    0.7793    0.8879    0.8656 H   0  0  0  0  0  0  0  0  0  0  0  0
    5.4575    2.7034    0.2450 H   0  0  0  0  0  0  0  0  0  0  0  0
    3.4937    5.2819   -1.4313 H   0  0  0  0  0  0  0  0  0  0  0  0
    5.1520    4.8856   -1.9013 H   0  0  0  0  0  0  0  0  0  0  0  0
    4.7171    7.3372   -2.0198 H   0  0  0  0  0  0  0  0  0  0  0  0
    6.0239    6.9373   -0.9117 H   0  0  0  0  0  0  0  0  0  0  0  0
    3.1502    7.6630   -0.1766 H   0  0  0  0  0  0  0  0  0  0  0  0
    4.6024    8.6056    0.1524 H   0  0  0  0  0  0  0  0  0  0  0  0
    3.7846    7.3115    2.1531 H   0  0  0  0  0  0  0  0  0  0  0  0
    5.4424    6.9255    1.7037 H   0  0  0  0  0  0  0  0  0  0  0  0
    4.2456    4.8618    2.2056 H   0  0  0  0  0  0  0  0  0  0  0  0
    2.9382    5.2756    1.0883 H   0  0  0  0  0  0  0  0  0  0  0  0
    4.7627   -2.9979   -1.5243 H   0  0  0  0  0  0  0  0  0  0  0  0
    6.7356   -4.3771   -1.8868 H   0  0  0  0  0  0  0  0  0  0  0  0
    6.9744   -0.5562    1.2926 H   0  0  0  0  0  0  0  0  0  0  0  0
    4.2041   -3.4362    1.3517 H   0  0  0  0  0  0  0  0  0  0  0  0
    2.7242   -5.6493    0.9814 H   0  0  0  0  0  0  0  0  0  0  0  0
    0.5980   -4.8976   -0.5329 H   0  0  0  0  0  0  0  0  0  0  0  0
    0.9785   -2.2944   -1.1138 H   0  0  0  0  0  0  0  0  0  0  0  0
  1  2  1  0  0  0  0
  1 29  1  0  0  0  0
  1 30  1  0  0  0  0
  1 31  1  0  0  0  0
  2 23  2  0  0  0  0
  2  3  1  0  0  0  0
  3  4  1  0  0  0  0
  3 13  2  0  0  0  0
  4  5  2  0  0  0  0
  4  6  1  0  0  0  0
  6  7  1  0  0  0  0
  6 32  1  0  0  0  0
  7 12  1  0  0  0  0
  7  8  1  0  0  0  0
  8  9  1  0  0  0  0
  8 33  1  0  0  0  0
  8 34  1  0  0  0  0
  9 10  1  0  0  0  0
  9 35  1  0  0  0  0
  9 36  1  0  0  0  0
 10 11  1  0  0  0  0
 10 37  1  0  0  0  0
 10 38  1  0  0  0  0
 11 12  1  0  0  0  0
 11 39  1  0  0  0  0
 11 40  1  0  0  0  0
 12 41  1  0  0  0  0
 12 42  1  0  0  0  0
 13 14  1  0  0  0  0
 14 15  1  0  0  0  0
 14 23  1  0  0  0  0
 15 20  2  0  0  0  0
 15 16  1  0  0  0  0
 16 17  2  0  0  0  0
 16 43  1  0  0  0  0
 17 18  1  0  0  0  0
 17 44  1  0  0  0  0
 18 19  2  0  0  0  0
 18 22  1  0  0  0  0
 19 20  1  0  0  0  0
 19 21  1  0  0  0  0
 20 45  1  0  0  0  0
 23 24  1  0  0  0  0
 24 28  1  0  0  0  0
 24 25  1  0  0  0  0
 25 26  2  0  0  0  0
 25 46  1  0  0  0  0
 26 27  1  0  0  0  0
 26 47  1  0  0  0  0
 27 28  2  0  0  0  0
 27 48  1  0  0  0  0
 28 49  1  0  0  0  0
M  END
$$$$
CHEMBL259255
 OpenBabel12022417373D

 55 58  0  0  0  0  0  0  0  0999 V2000
   -0.1222   -0.9832    0.0087 N   0  0  0  0  0  0  0  0  0  0  0  0
   -0.9708    0.0750   -0.1817 N   0  0  0  0  0  0  0  0  0  0  0  0
   -0.1791    1.1656   -0.1645 C   0  0  0  0  0  0  0  0  0  0  0  0
    1.2011    0.7969   -0.1808 C   0  0  0  0  0  0  0  0  0  0  0  0
    1.2023   -0.5784   -0.0011 C   0  0  0  0  0  0  0  0  0  0  0  0
    2.3407   -1.4031    0.0417 N   0  0  0  0  0  0  0  0  0  0  0  0
    2.5848   -2.5680   -0.6950 C   0  0  0  0  0  0  0  0  0  0  0  0
    3.8780   -2.9887   -0.4423 C   0  0  0  0  0  0  0  0  0  0  0  0
    4.4588   -2.0891    0.4572 C   0  0  0  0  0  0  0  0  0  0  0  0
    3.5007   -1.1535    0.7898 C   0  0  0  0  0  0  0  0  0  0  0  0
    3.6583   -0.0858    1.8214 C   0  0  0  0  0  0  0  0  0  0  0  0
    1.6614   -3.2031   -1.6787 C   0  0  0  0  0  0  0  0  0  0  0  0
    2.3450    1.7202   -0.4152 C   0  0  0  0  0  0  0  0  0  0  0  0
   -0.7077    2.5531   -0.1616 C   0  0  0  0  0  0  0  0  0  0  0  0
    0.0391    3.5246   -0.0566 O   0  0  0  0  0  0  0  0  0  0  0  0
   -2.0935    2.6455   -0.2570 N   0  0  0  0  0  0  0  0  0  0  0  0
   -2.8107    3.8815   -0.2702 N   0  0  0  0  0  0  0  0  0  0  0  0
   -2.6560    4.6410    0.9843 C   0  0  0  0  0  0  0  0  0  0  0  0
   -3.5207    5.9065    0.9897 C   0  0  0  0  0  0  0  0  0  0  0  0
   -3.2550    6.7792   -0.2323 C   0  0  0  0  0  0  0  0  0  0  0  0
   -3.3578    5.9554   -1.5110 C   0  0  0  0  0  0  0  0  0  0  0  0
   -2.4750    4.7076   -1.4428 C   0  0  0  0  0  0  0  0  0  0  0  0
   -0.6926   -2.2650    0.2717 C   0  0  0  0  0  0  0  0  0  0  0  0
   -0.0996   -3.1606    1.1698 C   0  0  0  0  0  0  0  0  0  0  0  0
   -0.6679   -4.4248    1.3717 C   0  0  0  0  0  0  0  0  0  0  0  0
   -1.8146   -4.8084    0.6687 C   0  0  0  0  0  0  0  0  0  0  0  0
   -2.4024   -3.9191   -0.2374 C   0  0  0  0  0  0  0  0  0  0  0  0
   -1.8580   -2.6411   -0.4168 C   0  0  0  0  0  0  0  0  0  0  0  0
   -3.7730   -4.3529   -1.1974 Cl  0  0  0  0  0  0  0  0  0  0  0  0
   -2.4485   -6.3889    0.9630 Cl  0  0  0  0  0  0  0  0  0  0  0  0
    4.3570   -3.8488   -0.8938 H   0  0  0  0  0  0  0  0  0  0  0  0
    5.4662   -2.1246    0.8537 H   0  0  0  0  0  0  0  0  0  0  0  0
    2.7144    0.3714    2.1243 H   0  0  0  0  0  0  0  0  0  0  0  0
    4.3344    0.6935    1.4533 H   0  0  0  0  0  0  0  0  0  0  0  0
    4.1102   -0.5054    2.7272 H   0  0  0  0  0  0  0  0  0  0  0  0
    0.8093   -2.5815   -1.9514 H   0  0  0  0  0  0  0  0  0  0  0  0
    1.2990   -4.1595   -1.2855 H   0  0  0  0  0  0  0  0  0  0  0  0
    2.1999   -3.4168   -2.6082 H   0  0  0  0  0  0  0  0  0  0  0  0
    2.0617    2.5572   -1.0540 H   0  0  0  0  0  0  0  0  0  0  0  0
    3.1622    1.2043   -0.9320 H   0  0  0  0  0  0  0  0  0  0  0  0
    2.7187    2.1295    0.5280 H   0  0  0  0  0  0  0  0  0  0  0  0
   -2.6127    1.7731   -0.3397 H   0  0  0  0  0  0  0  0  0  0  0  0
   -1.6124    4.9319    1.1532 H   0  0  0  0  0  0  0  0  0  0  0  0
   -2.9581    4.0149    1.8325 H   0  0  0  0  0  0  0  0  0  0  0  0
   -3.3221    6.4850    1.8999 H   0  0  0  0  0  0  0  0  0  0  0  0
   -4.5816    5.6285    1.0144 H   0  0  0  0  0  0  0  0  0  0  0  0
   -2.2532    7.2205   -0.1591 H   0  0  0  0  0  0  0  0  0  0  0  0
   -3.9687    7.6104   -0.2627 H   0  0  0  0  0  0  0  0  0  0  0  0
   -3.0623    6.5706   -2.3687 H   0  0  0  0  0  0  0  0  0  0  0  0
   -4.4021    5.6608   -1.6734 H   0  0  0  0  0  0  0  0  0  0  0  0
   -2.6275    4.1247   -2.3587 H   0  0  0  0  0  0  0  0  0  0  0  0
   -1.4235    5.0192   -1.4277 H   0  0  0  0  0  0  0  0  0  0  0  0
    0.7880   -2.8964    1.7406 H   0  0  0  0  0  0  0  0  0  0  0  0
   -0.2054   -5.1127    2.0771 H   0  0  0  0  0  0  0  0  0  0  0  0
   -2.3095   -1.9663   -1.1426 H   0  0  0  0  0  0  0  0  0  0  0  0
  1  5  1  0  0  0  0
  1  2  1  0  0  0  0
  1 23  1  0  0  0  0
  2  3  2  0  0  0  0
  3  4  1  0  0  0  0
  3 14  1  0  0  0  0
  4  5  2  0  0  0  0
  4 13  1  0  0  0  0
  5  6  1  0  0  0  0
  6 10  1  0  0  0  0
  6  7  1  0  0  0  0
  7  8  2  0  0  0  0
  7 12  1  0  0  0  0
  8  9  1  0  0  0  0
  8 31  1  0  0  0  0
  9 10  2  0  0  0  0
  9 32  1  0  0  0  0
 10 11  1  0  0  0  0
 11 33  1  0  0  0  0
 11 34  1  0  0  0  0
 11 35  1  0  0  0  0
 12 36  1  0  0  0  0
 12 37  1  0  0  0  0
 12 38  1  0  0  0  0
 13 39  1  0  0  0  0
 13 40  1  0  0  0  0
 13 41  1  0  0  0  0
 14 15  2  0  0  0  0
 14 16  1  0  0  0  0
 16 17  1  0  0  0  0
 16 42  1  0  0  0  0
 17 22  1  0  0  0  0
 17 18  1  0  0  0  0
 18 19  1  0  0  0  0
 18 43  1  0  0  0  0
 18 44  1  0  0  0  0
 19 20  1  0  0  0  0
 19 45  1  0  0  0  0
 19 46  1  0  0  0  0
 20 21  1  0  0  0  0
 20 47  1  0  0  0  0
 20 48  1  0  0  0  0
 21 22  1  0  0  0  0
 21 49  1  0  0  0  0
 21 50  1  0  0  0  0
 22 51  1  0  0  0  0
 22 52  1  0  0  0  0
 23 28  2  0  0  0  0
 23 24  1  0  0  0  0
 24 25  2  0  0  0  0
 24 53  1  0  0  0  0
 25 26  1  0  0  0  0
 25 54  1  0  0  0  0
 26 27  2  0  0  0  0
 26 30  1  0  0  0  0
 27 28  1  0  0  0  0
 27 29  1  0  0  0  0
 28 55  1  0  0  0  0
M  END
$$$$
CHEMBL261382
 OpenBabel12022417373D

 56 59  0  0  0  0  0  0  0  0999 V2000
   -0.1227   -0.9747    0.0222 N   0  0  0  0  0  0  0  0  0  0  0  0
   -0.9807    0.0867   -0.0745 N   0  0  0  0  0  0  0  0  0  0  0  0
   -0.2068    1.1875   -0.1385 C   0  0  0  0  0  0  0  0  0  0  0  0
    1.1745    0.8314   -0.1762 C   0  0  0  0  0  0  0  0  0  0  0  0
    1.2020   -0.5513   -0.0074 C   0  0  0  0  0  0  0  0  0  0  0  0
    2.3533   -1.3655    0.0091 N   0  0  0  0  0  0  0  0  0  0  0  0
    2.5754   -2.5604   -0.6927 C   0  0  0  0  0  0  0  0  0  0  0  0
    3.8758   -2.9717   -0.4692 C   0  0  0  0  0  0  0  0  0  0  0  0
    4.4880   -2.0407    0.3734 C   0  0  0  0  0  0  0  0  0  0  0  0
    3.5415   -1.0935    0.7042 C   0  0  0  0  0  0  0  0  0  0  0  0
    3.7490    0.0081    1.6931 C   0  0  0  0  0  0  0  0  0  0  0  0
    1.6250   -3.2451   -1.6164 C   0  0  0  0  0  0  0  0  0  0  0  0
    2.3126    1.7626   -0.4320 C   0  0  0  0  0  0  0  0  0  0  0  0
   -0.7835    2.5664   -0.1770 C   0  0  0  0  0  0  0  0  0  0  0  0
   -0.0823    3.5670   -0.1212 O   0  0  0  0  0  0  0  0  0  0  0  0
   -2.1647    2.6287   -0.2575 N   0  0  0  0  0  0  0  0  0  0  0  0
   -2.8908    3.9006   -0.3291 C   0  0  0  0  0  0  0  0  0  0  0  0
   -3.0317    4.3816   -1.7805 C   0  0  0  0  0  0  0  0  0  0  0  0
   -3.7841    5.7152   -1.8610 C   0  0  0  0  0  0  0  0  0  0  0  0
   -5.1463    5.6486   -1.1771 C   0  0  0  0  0  0  0  0  0  0  0  0
   -5.0387    5.1247    0.2529 C   0  0  0  0  0  0  0  0  0  0  0  0
   -4.2736    3.8002    0.3281 C   0  0  0  0  0  0  0  0  0  0  0  0
   -0.6706   -2.2708    0.2930 C   0  0  0  0  0  0  0  0  0  0  0  0
   -0.0241   -3.1320    1.1998 C   0  0  0  0  0  0  0  0  0  0  0  0
   -0.5338   -4.4129    1.4544 C   0  0  0  0  0  0  0  0  0  0  0  0
   -1.7024   -4.8331    0.8290 C   0  0  0  0  0  0  0  0  0  0  0  0
   -2.3460   -4.0038   -0.0839 C   0  0  0  0  0  0  0  0  0  0  0  0
   -1.8335   -2.7273   -0.3616 C   0  0  0  0  0  0  0  0  0  0  0  0
   -2.5981   -1.8867   -1.6705 Cl  0  0  0  0  0  0  0  0  0  0  0  0
   -2.3433   -6.3938    1.1672 Cl  0  0  0  0  0  0  0  0  0  0  0  0
    4.3378   -3.8506   -0.9025 H   0  0  0  0  0  0  0  0  0  0  0  0
    5.5078   -2.0635    0.7360 H   0  0  0  0  0  0  0  0  0  0  0  0
    2.8205    0.4740    2.0289 H   0  0  0  0  0  0  0  0  0  0  0  0
    4.4095    0.7700    1.2658 H   0  0  0  0  0  0  0  0  0  0  0  0
    4.2442   -0.3796    2.5900 H   0  0  0  0  0  0  0  0  0  0  0  0
    0.7477   -2.6532   -1.8715 H   0  0  0  0  0  0  0  0  0  0  0  0
    1.3055   -4.1978   -1.1786 H   0  0  0  0  0  0  0  0  0  0  0  0
    2.1244   -3.4761   -2.5626 H   0  0  0  0  0  0  0  0  0  0  0  0
    2.0126    2.6206   -1.0386 H   0  0  0  0  0  0  0  0  0  0  0  0
    3.1121    1.2596   -0.9871 H   0  0  0  0  0  0  0  0  0  0  0  0
    2.7179    2.1537    0.5042 H   0  0  0  0  0  0  0  0  0  0  0  0
   -2.6411    1.7450   -0.4180 H   0  0  0  0  0  0  0  0  0  0  0  0
   -2.3020    4.6454    0.2245 H   0  0  0  0  0  0  0  0  0  0  0  0
   -3.5698    3.6308   -2.3666 H   0  0  0  0  0  0  0  0  0  0  0  0
   -2.0459    4.4958   -2.2415 H   0  0  0  0  0  0  0  0  0  0  0  0
   -3.9160    5.9997   -2.9102 H   0  0  0  0  0  0  0  0  0  0  0  0
   -3.1817    6.5038   -1.3918 H   0  0  0  0  0  0  0  0  0  0  0  0
   -5.8137    4.9976   -1.7545 H   0  0  0  0  0  0  0  0  0  0  0  0
   -5.6048    6.6441   -1.1716 H   0  0  0  0  0  0  0  0  0  0  0  0
   -6.0448    4.9960    0.6691 H   0  0  0  0  0  0  0  0  0  0  0  0
   -4.5341    5.8752    0.8745 H   0  0  0  0  0  0  0  0  0  0  0  0
   -4.1716    3.5021    1.3778 H   0  0  0  0  0  0  0  0  0  0  0  0
   -4.8636    3.0160   -0.1642 H   0  0  0  0  0  0  0  0  0  0  0  0
    0.8824   -2.8368    1.7237 H   0  0  0  0  0  0  0  0  0  0  0  0
   -0.0113   -5.0762    2.1406 H   0  0  0  0  0  0  0  0  0  0  0  0
   -3.2312   -4.3628   -0.6046 H   0  0  0  0  0  0  0  0  0  0  0  0
  1  5  1  0  0  0  0
  1  2  1  0  0  0  0
  1 23  1  0  0  0  0
  2  3  2  0  0  0  0
  3  4  1  0  0  0  0
  3 14  1  0  0  0  0
  4  5  2  0  0  0  0
  4 13  1  0  0  0  0
  5  6  1  0  0  0  0
  6 10  1  0  0  0  0
  6  7  1  0  0  0  0
  7  8  2  0  0  0  0
  7 12  1  0  0  0  0
  8  9  1  0  0  0  0
  8 31  1  0  0  0  0
  9 10  2  0  0  0  0
  9 32  1  0  0  0  0
 10 11  1  0  0  0  0
 11 33  1  0  0  0  0
 11 34  1  0  0  0  0
 11 35  1  0  0  0  0
 12 36  1  0  0  0  0
 12 37  1  0  0  0  0
 12 38  1  0  0  0  0
 13 39  1  0  0  0  0
 13 40  1  0  0  0  0
 13 41  1  0  0  0  0
 14 15  2  0  0  0  0
 14 16  1  0  0  0  0
 16 17  1  0  0  0  0
 16 42  1  0  0  0  0
 17 22  1  0  0  0  0
 17 18  1  0  0  0  0
 17 43  1  0  0  0  0
 18 19  1  0  0  0  0
 18 44  1  0  0  0  0
 18 45  1  0  0  0  0
 19 20  1  0  0  0  0
 19 46  1  0  0  0  0
 19 47  1  0  0  0  0
 20 21  1  0  0  0  0
 20 48  1  0  0  0  0
 20 49  1  0  0  0  0
 21 22  1  0  0  0  0
 21 50  1  0  0  0  0
 21 51  1  0  0  0  0
 22 52  1  0  0  0  0
 22 53  1  0  0  0  0
 23 28  2  0  0  0  0
 23 24  1  0  0  0  0
 24 25  2  0  0  0  0
 24 54  1  0  0  0  0
 25 26  1  0  0  0  0
 25 55  1  0  0  0  0
 26 27  2  0  0  0  0
 26 30  1  0  0  0  0
 27 28  1  0  0  0  0
 27 56  1  0  0  0  0
 28 29  1  0  0  0  0
M  END
$$$$
CHEMBL179473
 OpenBabel12022417373D

 52 55  0  0  0  0  0  0  0  0999 V2000
    2.2109    0.1024    0.1096 C   0  0  0  0  0  0  0  0  0  0  0  0
    0.7714   -0.0126    0.0180 N   0  0  0  0  0  0  0  0  0  0  0  0
   -0.0639    1.0901   -0.0209 C   0  0  0  0  0  0  0  0  0  0  0  0
    0.3345    2.4993    0.0445 C   0  0  0  0  0  0  0  0  0  0  0  0
    1.5027    2.8813    0.0672 O   0  0  0  0  0  0  0  0  0  0  0  0
   -0.7348    3.3760    0.1223 N   0  0  0  0  0  0  0  0  0  0  0  0
   -0.5709    4.8217    0.2726 C   0  0  0  0  0  0  0  0  0  0  0  0
   -0.3342    5.5150   -1.0776 C   0  0  0  0  0  0  0  0  0  0  0  0
   -0.1847    7.0307   -0.9133 C   0  0  0  0  0  0  0  0  0  0  0  0
   -1.3750    7.6453   -0.1864 C   0  0  0  0  0  0  0  0  0  0  0  0
   -1.6340    6.9512    1.1460 C   0  0  0  0  0  0  0  0  0  0  0  0
   -1.7828    5.4377    0.9817 C   0  0  0  0  0  0  0  0  0  0  0  0
   -1.3219    0.7011   -0.1112 N   0  0  0  0  0  0  0  0  0  0  0  0
   -1.3126   -0.6763   -0.0797 C   0  0  0  0  0  0  0  0  0  0  0  0
   -2.5608   -1.4445   -0.1404 C   0  0  0  0  0  0  0  0  0  0  0  0
   -2.6191   -2.6206   -0.9135 C   0  0  0  0  0  0  0  0  0  0  0  0
   -3.7647   -3.4219   -0.9388 C   0  0  0  0  0  0  0  0  0  0  0  0
   -4.8977   -3.0246   -0.2409 C   0  0  0  0  0  0  0  0  0  0  0  0
   -4.8914   -1.8408    0.4888 C   0  0  0  0  0  0  0  0  0  0  0  0
   -3.7282   -1.0574    0.5501 C   0  0  0  0  0  0  0  0  0  0  0  0
   -3.8258    0.3592    1.5450 Cl  0  0  0  0  0  0  0  0  0  0  0  0
   -6.3118   -4.0025   -0.2801 Cl  0  0  0  0  0  0  0  0  0  0  0  0
   -0.0029   -1.1723   -0.0122 C   0  0  0  0  0  0  0  0  0  0  0  0
    0.5190   -2.5593    0.0392 C   0  0  0  0  0  0  0  0  0  0  0  0
    1.6276   -2.9587   -0.7253 C   0  0  0  0  0  0  0  0  0  0  0  0
    2.0967   -4.2791   -0.6980 C   0  0  0  0  0  0  0  0  0  0  0  0
    1.4160   -5.2412    0.0392 C   0  0  0  0  0  0  0  0  0  0  0  0
    0.2954   -4.8833    0.7795 C   0  0  0  0  0  0  0  0  0  0  0  0
   -0.1255   -3.5461    0.8067 C   0  0  0  0  0  0  0  0  0  0  0  0
    1.9515   -6.8753    0.0203 Cl  0  0  0  0  0  0  0  0  0  0  0  0
    2.6798   -0.8612    0.2963 H   0  0  0  0  0  0  0  0  0  0  0  0
    2.4615    0.7542    0.9487 H   0  0  0  0  0  0  0  0  0  0  0  0
    2.5793    0.5182   -0.8337 H   0  0  0  0  0  0  0  0  0  0  0  0
   -1.6574    2.9590    0.0457 H   0  0  0  0  0  0  0  0  0  0  0  0
    0.3179    4.9834    0.8983 H   0  0  0  0  0  0  0  0  0  0  0  0
   -1.1719    5.3076   -1.7566 H   0  0  0  0  0  0  0  0  0  0  0  0
    0.5646    5.1151   -1.5628 H   0  0  0  0  0  0  0  0  0  0  0  0
   -0.0711    7.5030   -1.8969 H   0  0  0  0  0  0  0  0  0  0  0  0
    0.7344    7.2467   -0.3522 H   0  0  0  0  0  0  0  0  0  0  0  0
   -2.2683    7.5685   -0.8184 H   0  0  0  0  0  0  0  0  0  0  0  0
   -1.1958    8.7140   -0.0182 H   0  0  0  0  0  0  0  0  0  0  0  0
   -2.5406    7.3639    1.6050 H   0  0  0  0  0  0  0  0  0  0  0  0
   -0.8062    7.1647    1.8341 H   0  0  0  0  0  0  0  0  0  0  0  0
   -1.9143    4.9749    1.9670 H   0  0  0  0  0  0  0  0  0  0  0  0
   -2.6957    5.2249    0.4113 H   0  0  0  0  0  0  0  0  0  0  0  0
   -1.7580   -2.9446   -1.4947 H   0  0  0  0  0  0  0  0  0  0  0  0
   -3.7597   -4.3507   -1.5040 H   0  0  0  0  0  0  0  0  0  0  0  0
   -5.7876   -1.5303    1.0210 H   0  0  0  0  0  0  0  0  0  0  0  0
    2.1459   -2.2521   -1.3682 H   0  0  0  0  0  0  0  0  0  0  0  0
    2.9813   -4.5498   -1.2693 H   0  0  0  0  0  0  0  0  0  0  0  0
   -0.2605   -5.6365    1.3327 H   0  0  0  0  0  0  0  0  0  0  0  0
   -0.9939   -3.2980    1.4146 H   0  0  0  0  0  0  0  0  0  0  0  0
  1  2  1  0  0  0  0
  1 31  1  0  0  0  0
  1 32  1  0  0  0  0
  1 33  1  0  0  0  0
  2 23  1  0  0  0  0
  2  3  1  0  0  0  0
  3  4  1  0  0  0  0
  3 13  2  0  0  0  0
  4  5  2  0  0  0  0
  4  6  1  0  0  0  0
  6  7  1  0  0  0  0
  6 34  1  0  0  0  0
  7 12  1  0  0  0  0
  7  8  1  0  0  0  0
  7 35  1  0  0  0  0
  8  9  1  0  0  0  0
  8 36  1  0  0  0  0
  8 37  1  0  0  0  0
  9 10  1  0  0  0  0
  9 38  1  0  0  0  0
  9 39  1  0  0  0  0
 10 11  1  0  0  0  0
 10 40  1  0  0  0  0
 10 41  1  0  0  0  0
 11 12  1  0  0  0  0
 11 42  1  0  0  0  0
 11 43  1  0  0  0  0
 12 44  1  0  0  0  0
 12 45  1  0  0  0  0
 13 14  1  0  0  0  0
 14 15  1  0  0  0  0
 14 23  2  0  0  0  0
 15 20  2  0  0  0  0
 15 16  1  0  0  0  0
 16 17  2  0  0  0  0
 16 46  1  0  0  0  0
 17 18  1  0  0  0  0
 17 47  1  0  0  0  0
 18 19  2  0  0  0  0
 18 22  1  0  0  0  0
 19 20  1  0  0  0  0
 19 48  1  0  0  0  0
 20 21  1  0  0  0  0
 23 24  1  0  0  0  0
 24 29  2  0  0  0  0
 24 25  1  0  0  0  0
 25 26  2  0  0  0  0
 25 49  1  0  0  0  0
 26 27  1  0  0  0  0
 26 50  1  0  0  0  0
 27 28  2  0  0  0  0
 27 30  1  0  0  0  0
 28 29  1  0  0  0  0
 28 51  1  0  0  0  0
 29 52  1  0  0  0  0
M  END
$$$$
CHEMBL1088376
 OpenBabel12022417383D

 55 58  0  0  0  0  0  0  0  0999 V2000
    1.7675    1.3782   -0.5816 C   0  0  0  0  0  0  0  0  0  0  0  0
    3.1747    0.3365   -0.1142 S   0  0  0  0  0  0  0  0  0  0  0  0
    3.4627   -0.5528   -1.6055 C   0  0  0  0  0  0  0  0  0  0  0  0
    4.0135   -0.0059   -2.8045 C   0  0  0  0  0  0  0  0  0  0  0  0
    4.4282    1.3934   -3.1085 C   0  0  0  0  0  0  0  0  0  0  0  0
    4.2768    2.3238   -2.3235 O   0  0  0  0  0  0  0  0  0  0  0  0
    4.9953    1.5442   -4.3781 N   0  0  0  0  0  0  0  0  0  0  0  0
    5.4272    2.8191   -4.8568 N   0  0  0  0  0  0  0  0  0  0  0  0
    6.8875    2.8990   -4.9433 C   0  0  0  0  0  0  0  0  0  0  0  0
    7.4146    4.3229   -4.7194 C   0  0  0  0  0  0  0  0  0  0  0  0
    7.2894    5.2793   -5.9030 C   0  0  0  0  0  0  0  0  0  0  0  0
    5.8699    5.4645   -6.4247 C   0  0  0  0  0  0  0  0  0  0  0  0
    5.3171    4.1899   -7.0516 C   0  0  0  0  0  0  0  0  0  0  0  0
    4.6868    3.1974   -6.0667 C   0  0  0  0  0  0  0  0  0  0  0  0
    4.1629   -0.9758   -3.7227 N   0  0  0  0  0  0  0  0  0  0  0  0
    3.7164   -2.1176   -3.1382 N   0  0  0  0  0  0  0  0  0  0  0  0
    3.6049   -3.2901   -3.9469 C   0  0  0  0  0  0  0  0  0  0  0  0
    2.4395   -4.0768   -3.8726 C   0  0  0  0  0  0  0  0  0  0  0  0
    2.3109   -5.2251   -4.6614 C   0  0  0  0  0  0  0  0  0  0  0  0
    3.3314   -5.5818   -5.5383 C   0  0  0  0  0  0  0  0  0  0  0  0
    4.4948   -4.8210   -5.6135 C   0  0  0  0  0  0  0  0  0  0  0  0
    4.6393   -3.6762   -4.8178 C   0  0  0  0  0  0  0  0  0  0  0  0
    6.1954   -2.9166   -4.8590 Cl  0  0  0  0  0  0  0  0  0  0  0  0
    3.1609   -6.9804   -6.5257 Cl  0  0  0  0  0  0  0  0  0  0  0  0
    3.3280   -1.9268   -1.8013 C   0  0  0  0  0  0  0  0  0  0  0  0
    2.9646   -3.0312   -0.8577 C   0  0  0  0  0  0  0  0  0  0  0  0
    3.5492   -4.3037   -0.9575 C   0  0  0  0  0  0  0  0  0  0  0  0
    3.1352   -5.3782   -0.1519 C   0  0  0  0  0  0  0  0  0  0  0  0
    2.1886   -5.1674    0.8401 C   0  0  0  0  0  0  0  0  0  0  0  0
    1.6499   -3.8995    1.0223 C   0  0  0  0  0  0  0  0  0  0  0  0
    2.0168   -2.8469    0.1646 C   0  0  0  0  0  0  0  0  0  0  0  0
    1.6832   -6.4730    1.8377 Cl  0  0  0  0  0  0  0  0  0  0  0  0
    1.4603    1.9683    0.2869 H   0  0  0  0  0  0  0  0  0  0  0  0
    0.9189    0.7646   -0.8962 H   0  0  0  0  0  0  0  0  0  0  0  0
    2.0168    2.0725   -1.3860 H   0  0  0  0  0  0  0  0  0  0  0  0
    5.1014    0.7049   -4.9436 H   0  0  0  0  0  0  0  0  0  0  0  0
    7.2666    2.4696   -5.8782 H   0  0  0  0  0  0  0  0  0  0  0  0
    7.3190    2.2947   -4.1344 H   0  0  0  0  0  0  0  0  0  0  0  0
    8.4812    4.2554   -4.4685 H   0  0  0  0  0  0  0  0  0  0  0  0
    6.9276    4.7682   -3.8431 H   0  0  0  0  0  0  0  0  0  0  0  0
    7.9379    4.9355   -6.7186 H   0  0  0  0  0  0  0  0  0  0  0  0
    7.6789    6.2580   -5.5993 H   0  0  0  0  0  0  0  0  0  0  0  0
    5.9021    6.2423   -7.1995 H   0  0  0  0  0  0  0  0  0  0  0  0
    5.2076    5.8369   -5.6348 H   0  0  0  0  0  0  0  0  0  0  0  0
    6.0982    3.6920   -7.6397 H   0  0  0  0  0  0  0  0  0  0  0  0
    4.5397    4.4761   -7.7723 H   0  0  0  0  0  0  0  0  0  0  0  0
    3.7224    3.6100   -5.7420 H   0  0  0  0  0  0  0  0  0  0  0  0
    4.4498    2.2993   -6.6527 H   0  0  0  0  0  0  0  0  0  0  0  0
    1.6130   -3.8095   -3.2161 H   0  0  0  0  0  0  0  0  0  0  0  0
    1.4113   -5.8332   -4.5904 H   0  0  0  0  0  0  0  0  0  0  0  0
    5.2998   -5.1309   -6.2755 H   0  0  0  0  0  0  0  0  0  0  0  0
    4.3289   -4.5157   -1.6860 H   0  0  0  0  0  0  0  0  0  0  0  0
    3.5595   -6.3671   -0.3076 H   0  0  0  0  0  0  0  0  0  0  0  0
    0.9344   -3.7176    1.8201 H   0  0  0  0  0  0  0  0  0  0  0  0
    1.5384   -1.8873    0.3260 H   0  0  0  0  0  0  0  0  0  0  0  0
  1  2  1  0  0  0  0
  1 33  1  0  0  0  0
  1 34  1  0  0  0  0
  1 35  1  0  0  0  0
  2  3  1  0  0  0  0
  3 25  2  0  0  0  0
  3  4  1  0  0  0  0
  4  5  1  0  0  0  0
  4 15  2  0  0  0  0
  5  6  2  0  0  0  0
  5  7  1  0  0  0  0
  7  8  1  0  0  0  0
  7 36  1  0  0  0  0
  8 14  1  0  0  0  0
  8  9  1  0  0  0  0
  9 10  1  0  0  0  0
  9 37  1  0  0  0  0
  9 38  1  0  0  0  0
 10 11  1  0  0  0  0
 10 39  1  0  0  0  0
 10 40  1  0  0  0  0
 11 12  1  0  0  0  0
 11 41  1  0  0  0  0
 11 42  1  0  0  0  0
 12 13  1  0  0  0  0
 12 43  1  0  0  0  0
 12 44  1  0  0  0  0
 13 14  1  0  0  0  0
 13 45  1  0  0  0  0
 13 46  1  0  0  0  0
 14 47  1  0  0  0  0
 14 48  1  0  0  0  0
 15 16  1  0  0  0  0
 16 17  1  0  0  0  0
 16 25  1  0  0  0  0
 17 22  2  0  0  0  0
 17 18  1  0  0  0  0
 18 19  2  0  0  0  0
 18 49  1  0  0  0  0
 19 20  1  0  0  0  0
 19 50  1  0  0  0  0
 20 21  2  0  0  0  0
 20 24  1  0  0  0  0
 21 22  1  0  0  0  0
 21 51  1  0  0  0  0
 22 23  1  0  0  0  0
 25 26  1  0  0  0  0
 26 31  2  0  0  0  0
 26 27  1  0  0  0  0
 27 28  2  0  0  0  0
 27 52  1  0  0  0  0
 28 29  1  0  0  0  0
 28 53  1  0  0  0  0
 29 30  2  0  0  0  0
 29 32  1  0  0  0  0
 30 31  1  0  0  0  0
 30 54  1  0  0  0  0
 31 55  1  0  0  0  0
M  END
$$$$
CHEMBL578848
 OpenBabel12022417383D

 58 63  0  0  1  0  0  0  0  0999 V2000
    1.2505    0.5039   -0.1036 C   0  0  0  0  0  0  0  0  0  0  0  0
    2.7166    0.2301   -0.0895 C   0  0  0  0  0  0  0  0  0  0  0  0
    3.7657    1.2243    0.0262 C   0  0  0  0  0  0  0  0  0  0  0  0
    3.6164    2.7169    0.0636 C   0  0  0  0  0  0  0  0  0  0  0  0
    2.5081    3.2460    0.0436 O   0  0  0  0  0  0  0  0  0  0  0  0
    4.8032    3.4532    0.1015 N   0  0  0  0  0  0  0  0  0  0  0  0
    4.8961    4.9400    0.0799 C   0  0  2  0  0  0  0  0  0  0  0  0
    6.3824    5.4197    0.1286 C   0  0  0  0  0  0  0  0  0  0  0  0
    6.4789    6.9678    0.0877 C   0  0  1  0  0  0  0  0  0  0  0  0
    5.8248    7.4974   -1.1981 C   0  0  0  0  0  0  0  0  0  0  0  0
    4.3555    7.0530   -1.2518 C   0  0  2  0  0  0  0  0  0  0  0  0
    3.6041    7.6119   -0.0321 C   0  0  0  0  0  0  0  0  0  0  0  0
    4.2654    7.1170    1.2649 C   0  0  2  0  0  0  0  0  0  0  0  0
    5.7327    7.5715    1.2881 C   0  0  0  0  0  0  0  0  0  0  0  0
    4.1989    5.5767    1.3137 C   0  0  0  0  0  0  0  0  0  0  0  0
    4.2855    5.5149   -1.2260 C   0  0  0  0  0  0  0  0  0  0  0  0
    4.9674    0.6287    0.1542 N   0  0  0  0  0  0  0  0  0  0  0  0
    4.7292   -0.7027   -0.0181 N   0  0  0  0  0  0  0  0  0  0  0  0
    5.8477   -1.5574   -0.2528 C   0  0  0  0  0  0  0  0  0  0  0  0
    5.7618   -2.6457   -1.1330 C   0  0  0  0  0  0  0  0  0  0  0  0
    6.8732   -3.4681   -1.3370 C   0  0  0  0  0  0  0  0  0  0  0  0
    8.0747   -3.2052   -0.6736 C   0  0  0  0  0  0  0  0  0  0  0  0
    8.1640   -2.1151    0.2001 C   0  0  0  0  0  0  0  0  0  0  0  0
    7.0574   -1.2831    0.3987 C   0  0  0  0  0  0  0  0  0  0  0  0
    9.6065   -1.7508    1.0787 Cl  0  0  0  0  0  0  0  0  0  0  0  0
    9.4101   -4.2550   -0.9875 Cl  0  0  0  0  0  0  0  0  0  0  0  0
    3.3790   -0.9926   -0.0539 C   0  0  0  0  0  0  0  0  0  0  0  0
    2.8429   -2.2874    0.0255 N   0  0  0  0  0  0  0  0  0  0  0  0
    3.3747   -3.3653    0.7232 C   0  0  0  0  0  0  0  0  0  0  0  0
    2.5776   -4.4748    0.5589 C   0  0  0  0  0  0  0  0  0  0  0  0
    1.4944   -4.0891   -0.2506 C   0  0  0  0  0  0  0  0  0  0  0  0
    1.6777   -2.7544   -0.5593 C   0  0  0  0  0  0  0  0  0  0  0  0
    0.6512   -0.3964    0.0476 H   0  0  0  0  0  0  0  0  0  0  0  0
    0.9512    0.9496   -1.0568 H   0  0  0  0  0  0  0  0  0  0  0  0
    0.9754    1.1822    0.7097 H   0  0  0  0  0  0  0  0  0  0  0  0
    5.6504    2.8956    0.0479 H   0  0  0  0  0  0  0  0  0  0  0  0
    6.9457    5.0001   -0.7145 H   0  0  0  0  0  0  0  0  0  0  0  0
    6.8703    5.0522    1.0408 H   0  0  0  0  0  0  0  0  0  0  0  0
    7.5296    7.2794    0.1177 H   0  0  0  0  0  0  0  0  0  0  0  0
    6.3672    7.1320   -2.0777 H   0  0  0  0  0  0  0  0  0  0  0  0
    5.8836    8.5949   -1.2267 H   0  0  0  0  0  0  0  0  0  0  0  0
    3.8931    7.4285   -2.1717 H   0  0  0  0  0  0  0  0  0  0  0  0
    2.5541    7.2963   -0.0611 H   0  0  0  0  0  0  0  0  0  0  0  0
    3.6073    8.7090   -0.0603 H   0  0  0  0  0  0  0  0  0  0  0  0
    3.7396    7.5383    2.1295 H   0  0  0  0  0  0  0  0  0  0  0  0
    5.7832    8.6692    1.2490 H   0  0  0  0  0  0  0  0  0  0  0  0
    6.2129    7.2701    2.2260 H   0  0  0  0  0  0  0  0  0  0  0  0
    4.6782    5.2210    2.2357 H   0  0  0  0  0  0  0  0  0  0  0  0
    3.1496    5.2701    1.3747 H   0  0  0  0  0  0  0  0  0  0  0  0
    3.2404    5.2081   -1.3372 H   0  0  0  0  0  0  0  0  0  0  0  0
    4.8208    5.1101   -2.0953 H   0  0  0  0  0  0  0  0  0  0  0  0
    4.8542   -2.8639   -1.6927 H   0  0  0  0  0  0  0  0  0  0  0  0
    6.7954   -4.3115   -2.0205 H   0  0  0  0  0  0  0  0  0  0  0  0
    7.1293   -0.4470    1.0922 H   0  0  0  0  0  0  0  0  0  0  0  0
    4.2746   -3.2534    1.3096 H   0  0  0  0  0  0  0  0  0  0  0  0
    2.7559   -5.4545    0.9900 H   0  0  0  0  0  0  0  0  0  0  0  0
    0.6736   -4.7103   -0.5843 H   0  0  0  0  0  0  0  0  0  0  0  0
    1.0865   -2.1184   -1.1984 H   0  0  0  0  0  0  0  0  0  0  0  0
  1  2  1  0  0  0  0
  1 33  1  0  0  0  0
  1 34  1  0  0  0  0
  1 35  1  0  0  0  0
  2 27  2  0  0  0  0
  2  3  1  0  0  0  0
  3  4  1  0  0  0  0
  3 17  2  0  0  0  0
  4  5  2  0  0  0  0
  4  6  1  0  0  0  0
  6 36  1  0  0  0  0
  7  6  1  1  0  0  0
  7 15  1  0  0  0  0
  7 16  1  0  0  0  0
  7  8  1  0  0  0  0
  8 37  1  0  0  0  0
  8 38  1  0  0  0  0
  9  8  1  0  0  0  0
  9 10  1  0  0  0  0
  9 14  1  0  0  0  0
  9 39  1  1  0  0  0
 10 40  1  0  0  0  0
 10 41  1  0  0  0  0
 11 10  1  0  0  0  0
 11 12  1  0  0  0  0
 11 16  1  0  0  0  0
 11 42  1  6  0  0  0
 12 43  1  0  0  0  0
 12 44  1  0  0  0  0
 13 12  1  0  0  0  0
 13 14  1  0  0  0  0
 13 15  1  0  0  0  0
 13 45  1  1  0  0  0
 14 46  1  0  0  0  0
 14 47  1  0  0  0  0
 15 48  1  0  0  0  0
 15 49  1  0  0  0  0
 16 50  1  0  0  0  0
 16 51  1  0  0  0  0
 17 18  1  0  0  0  0
 18 19  1  0  0  0  0
 18 27  1  0  0  0  0
 19 24  2  0  0  0  0
 19 20  1  0  0  0  0
 20 21  2  0  0  0  0
 20 52  1  0  0  0  0
 21 22  1  0  0  0  0
 21 53  1  0  0  0  0
 22 23  2  0  0  0  0
 22 26  1  0  0  0  0
 23 24  1  0  0  0  0
 23 25  1  0  0  0  0
 24 54  1  0  0  0  0
 27 28  1  0  0  0  0
 28 32  1  0  0  0  0
 28 29  1  0  0  0  0
 29 30  2  0  0  0  0
 29 55  1  0  0  0  0
 30 31  1  0  0  0  0
 30 56  1  0  0  0  0
 31 32  2  0  0  0  0
 31 57  1  0  0  0  0
 32 58  1  0  0  0  0
M  END
$$$$
CHEMBL439657
 OpenBabel12022417383D

 51 54  0  0  0  0  0  0  0  0999 V2000
    1.1352    0.4049   -0.2741 C   0  0  0  0  0  0  0  0  0  0  0  0
    2.6006    0.1849   -0.1110 C   0  0  0  0  0  0  0  0  0  0  0  0
    3.5971    1.1584   -0.0891 C   0  0  0  0  0  0  0  0  0  0  0  0
    3.4133    2.6301   -0.1412 C   0  0  0  0  0  0  0  0  0  0  0  0
    2.3006    3.1541   -0.1956 O   0  0  0  0  0  0  0  0  0  0  0  0
    4.6162    3.3296   -0.1281 N   0  0  0  0  0  0  0  0  0  0  0  0
    4.7419    4.7521   -0.1150 N   0  0  0  0  0  0  0  0  0  0  0  0
    4.3482    5.3871   -1.3833 C   0  0  0  0  0  0  0  0  0  0  0  0
    4.7072    6.8771   -1.3804 C   0  0  0  0  0  0  0  0  0  0  0  0
    4.0940    7.6038   -0.1873 C   0  0  0  0  0  0  0  0  0  0  0  0
    4.4307    6.8812    1.1114 C   0  0  0  0  0  0  0  0  0  0  0  0
    4.0761    5.3872    1.0366 C   0  0  0  0  0  0  0  0  0  0  0  0
    4.8377    0.5508   -0.0626 N   0  0  0  0  0  0  0  0  0  0  0  0
    4.6374   -0.7580   -0.0467 C   0  0  0  0  0  0  0  0  0  0  0  0
    5.7443   -1.7429   -0.0671 C   0  0  0  0  0  0  0  0  0  0  0  0
    6.8690   -1.4826   -0.8673 C   0  0  0  0  0  0  0  0  0  0  0  0
    7.8535   -2.4569   -1.0659 C   0  0  0  0  0  0  0  0  0  0  0  0
    7.7219   -3.7060   -0.4686 C   0  0  0  0  0  0  0  0  0  0  0  0
    6.6528   -3.9609    0.3845 C   0  0  0  0  0  0  0  0  0  0  0  0
    5.6943   -2.9675    0.6195 C   0  0  0  0  0  0  0  0  0  0  0  0
    8.8674   -4.9446   -0.8001 Cl  0  0  0  0  0  0  0  0  0  0  0  0
    3.2587   -1.0497   -0.0621 N   0  0  0  0  0  0  0  0  0  0  0  0
    2.6450   -2.3493   -0.1576 C   0  0  0  0  0  0  0  0  0  0  0  0
    3.1941   -3.2830   -1.0588 C   0  0  0  0  0  0  0  0  0  0  0  0
    2.7121   -4.5948   -1.1228 C   0  0  0  0  0  0  0  0  0  0  0  0
    1.6137   -4.9625   -0.3578 C   0  0  0  0  0  0  0  0  0  0  0  0
    1.0223   -4.0441    0.5043 C   0  0  0  0  0  0  0  0  0  0  0  0
    1.5618   -2.7545    0.6446 C   0  0  0  0  0  0  0  0  0  0  0  0
    0.9437   -1.8336    1.9724 Cl  0  0  0  0  0  0  0  0  0  0  0  0
    1.0107   -6.5710   -0.4450 Cl  0  0  0  0  0  0  0  0  0  0  0  0
    0.5869   -0.4997   -0.5415 H   0  0  0  0  0  0  0  0  0  0  0  0
    0.9434    1.1202   -1.0795 H   0  0  0  0  0  0  0  0  0  0  0  0
    0.7126    0.8180    0.6467 H   0  0  0  0  0  0  0  0  0  0  0  0
    5.4647    2.7690   -0.0615 H   0  0  0  0  0  0  0  0  0  0  0  0
    3.2721    5.2722   -1.5682 H   0  0  0  0  0  0  0  0  0  0  0  0
    4.8758    4.9105   -2.2183 H   0  0  0  0  0  0  0  0  0  0  0  0
    4.3632    7.3484   -2.3102 H   0  0  0  0  0  0  0  0  0  0  0  0
    5.7984    6.9967   -1.3532 H   0  0  0  0  0  0  0  0  0  0  0  0
    3.0047    7.6559   -0.3085 H   0  0  0  0  0  0  0  0  0  0  0  0
    4.4602    8.6384   -0.1470 H   0  0  0  0  0  0  0  0  0  0  0  0
    3.8872    7.3452    1.9432 H   0  0  0  0  0  0  0  0  0  0  0  0
    5.5017    6.9941    1.3216 H   0  0  0  0  0  0  0  0  0  0  0  0
    4.4015    4.9105    1.9644 H   0  0  0  0  0  0  0  0  0  0  0  0
    2.9882    5.2856    0.9734 H   0  0  0  0  0  0  0  0  0  0  0  0
    6.9657   -0.5221   -1.3729 H   0  0  0  0  0  0  0  0  0  0  0  0
    8.7043   -2.2412   -1.7098 H   0  0  0  0  0  0  0  0  0  0  0  0
    6.5426   -4.9373    0.8511 H   0  0  0  0  0  0  0  0  0  0  0  0
    4.8760   -3.1952    1.2983 H   0  0  0  0  0  0  0  0  0  0  0  0
    4.0266   -3.0235   -1.7111 H   0  0  0  0  0  0  0  0  0  0  0  0
    3.2042   -5.3209   -1.7668 H   0  0  0  0  0  0  0  0  0  0  0  0
    0.1686   -4.3492    1.1057 H   0  0  0  0  0  0  0  0  0  0  0  0
  1  2  1  0  0  0  0
  1 31  1  0  0  0  0
  1 32  1  0  0  0  0
  1 33  1  0  0  0  0
  2 22  1  0  0  0  0
  2  3  2  0  0  0  0
  3  4  1  0  0  0  0
  3 13  1  0  0  0  0
  4  5  2  0  0  0  0
  4  6  1  0  0  0  0
  6  7  1  0  0  0  0
  6 34  1  0  0  0  0
  7 12  1  0  0  0  0
  7  8  1  0  0  0  0
  8  9  1  0  0  0  0
  8 35  1  0  0  0  0
  8 36  1  0  0  0  0
  9 10  1  0  0  0  0
  9 37  1  0  0  0  0
  9 38  1  0  0  0  0
 10 11  1  0  0  0  0
 10 39  1  0  0  0  0
 10 40  1  0  0  0  0
 11 12  1  0  0  0  0
 11 41  1  0  0  0  0
 11 42  1  0  0  0  0
 12 43  1  0  0  0  0
 12 44  1  0  0  0  0
 13 14  2  0  0  0  0
 14 15  1  0  0  0  0
 14 22  1  0  0  0  0
 15 20  2  0  0  0  0
 15 16  1  0  0  0  0
 16 17  2  0  0  0  0
 16 45  1  0  0  0  0
 17 18  1  0  0  0  0
 17 46  1  0  0  0  0
 18 19  2  0  0  0  0
 18 21  1  0  0  0  0
 19 20  1  0  0  0  0
 19 47  1  0  0  0  0
 20 48  1  0  0  0  0
 22 23  1  0  0  0  0
 23 28  2  0  0  0  0
 23 24  1  0  0  0  0
 24 25  2  0  0  0  0
 24 49  1  0  0  0  0
 25 26  1  0  0  0  0
 25 50  1  0  0  0  0
 26 27  2  0  0  0  0
 26 30  1  0  0  0  0
 27 28  1  0  0  0  0
 27 51  1  0  0  0  0
 28 29  1  0  0  0  0
M  END
$$$$
CHEMBL175650
 OpenBabel12022417383D

 52 55  0  0  0  0  0  0  0  0999 V2000
    1.0271    0.3736    0.0790 C   0  0  0  0  0  0  0  0  0  0  0  0
    2.5026    0.1823   -0.0190 C   0  0  0  0  0  0  0  0  0  0  0  0
    3.4772    1.1720   -0.0497 C   0  0  0  0  0  0  0  0  0  0  0  0
    3.2724    2.6406   -0.0169 C   0  0  0  0  0  0  0  0  0  0  0  0
    2.1668    3.1641   -0.0500 O   0  0  0  0  0  0  0  0  0  0  0  0
    4.4541    3.3506    0.0626 N   0  0  0  0  0  0  0  0  0  0  0  0
    4.5991    4.8048    0.1027 C   0  0  0  0  0  0  0  0  0  0  0  0
    4.1509    5.4871   -1.1954 C   0  0  0  0  0  0  0  0  0  0  0  0
    4.4213    6.9927   -1.1579 C   0  0  0  0  0  0  0  0  0  0  0  0
    3.7907    7.6595    0.0610 C   0  0  0  0  0  0  0  0  0  0  0  0
    4.2021    6.9698    1.3599 C   0  0  0  0  0  0  0  0  0  0  0  0
    3.9308    5.4622    1.3221 C   0  0  0  0  0  0  0  0  0  0  0  0
    4.7273    0.5901   -0.0944 N   0  0  0  0  0  0  0  0  0  0  0  0
    4.5624   -0.7244   -0.0819 C   0  0  0  0  0  0  0  0  0  0  0  0
    5.6766   -1.6829   -0.2662 C   0  0  0  0  0  0  0  0  0  0  0  0
    5.5256   -2.7961   -1.1197 C   0  0  0  0  0  0  0  0  0  0  0  0
    6.5488   -3.7353   -1.2904 C   0  0  0  0  0  0  0  0  0  0  0  0
    7.7717   -3.5439   -0.6597 C   0  0  0  0  0  0  0  0  0  0  0  0
    7.9703   -2.4359    0.1557 C   0  0  0  0  0  0  0  0  0  0  0  0
    6.9291   -1.5175    0.3629 C   0  0  0  0  0  0  0  0  0  0  0  0
    7.2667   -0.2175    1.4571 Cl  0  0  0  0  0  0  0  0  0  0  0  0
    9.0394   -4.6822   -0.8912 Cl  0  0  0  0  0  0  0  0  0  0  0  0
    3.1895   -1.0359    0.0159 N   0  0  0  0  0  0  0  0  0  0  0  0
    2.6130   -2.3437    0.1466 C   0  0  0  0  0  0  0  0  0  0  0  0
    3.2288   -3.3119    0.9569 C   0  0  0  0  0  0  0  0  0  0  0  0
    2.6911   -4.6004    1.0569 C   0  0  0  0  0  0  0  0  0  0  0  0
    1.5208   -4.9197    0.3738 C   0  0  0  0  0  0  0  0  0  0  0  0
    0.8966   -3.9678   -0.4284 C   0  0  0  0  0  0  0  0  0  0  0  0
    1.4485   -2.6870   -0.5557 C   0  0  0  0  0  0  0  0  0  0  0  0
    0.8466   -6.4957    0.5173 Cl  0  0  0  0  0  0  0  0  0  0  0  0
    0.4765   -0.5241    0.3642 H   0  0  0  0  0  0  0  0  0  0  0  0
    0.6343    0.7275   -0.8804 H   0  0  0  0  0  0  0  0  0  0  0  0
    0.7892    1.1186    0.8427 H   0  0  0  0  0  0  0  0  0  0  0  0
    5.2912    2.7734    0.0689 H   0  0  0  0  0  0  0  0  0  0  0  0
    5.6818    4.9621    0.2035 H   0  0  0  0  0  0  0  0  0  0  0  0
    3.0808    5.3181   -1.3641 H   0  0  0  0  0  0  0  0  0  0  0  0
    4.6775    5.0459   -2.0495 H   0  0  0  0  0  0  0  0  0  0  0  0
    4.0371    7.4604   -2.0715 H   0  0  0  0  0  0  0  0  0  0  0  0
    5.5041    7.1687   -1.1429 H   0  0  0  0  0  0  0  0  0  0  0  0
    2.6962    7.6328   -0.0340 H   0  0  0  0  0  0  0  0  0  0  0  0
    4.0791    8.7173    0.0979 H   0  0  0  0  0  0  0  0  0  0  0  0
    3.6653    7.4235    2.2010 H   0  0  0  0  0  0  0  0  0  0  0  0
    5.2710    7.1445    1.5358 H   0  0  0  0  0  0  0  0  0  0  0  0
    4.2999    5.0057    2.2481 H   0  0  0  0  0  0  0  0  0  0  0  0
    2.8470    5.2984    1.3012 H   0  0  0  0  0  0  0  0  0  0  0  0
    4.5955   -2.9619   -1.6606 H   0  0  0  0  0  0  0  0  0  0  0  0
    6.3824   -4.6065   -1.9201 H   0  0  0  0  0  0  0  0  0  0  0  0
    8.9337   -2.2884    0.6383 H   0  0  0  0  0  0  0  0  0  0  0  0
    4.1208   -3.0868    1.5369 H   0  0  0  0  0  0  0  0  0  0  0  0
    3.1860   -5.3468    1.6738 H   0  0  0  0  0  0  0  0  0  0  0  0
   -0.0152   -4.2182   -0.9652 H   0  0  0  0  0  0  0  0  0  0  0  0
    0.9692   -1.9904   -1.2397 H   0  0  0  0  0  0  0  0  0  0  0  0
  1  2  1  0  0  0  0
  1 31  1  0  0  0  0
  1 32  1  0  0  0  0
  1 33  1  0  0  0  0
  2 23  1  0  0  0  0
  2  3  2  0  0  0  0
  3  4  1  0  0  0  0
  3 13  1  0  0  0  0
  4  5  2  0  0  0  0
  4  6  1  0  0  0  0
  6  7  1  0  0  0  0
  6 34  1  0  0  0  0
  7 12  1  0  0  0  0
  7  8  1  0  0  0  0
  7 35  1  0  0  0  0
  8  9  1  0  0  0  0
  8 36  1  0  0  0  0
  8 37  1  0  0  0  0
  9 10  1  0  0  0  0
  9 38  1  0  0  0  0
  9 39  1  0  0  0  0
 10 11  1  0  0  0  0
 10 40  1  0  0  0  0
 10 41  1  0  0  0  0
 11 12  1  0  0  0  0
 11 42  1  0  0  0  0
 11 43  1  0  0  0  0
 12 44  1  0  0  0  0
 12 45  1  0  0  0  0
 13 14  2  0  0  0  0
 14 15  1  0  0  0  0
 14 23  1  0  0  0  0
 15 20  2  0  0  0  0
 15 16  1  0  0  0  0
 16 17  2  0  0  0  0
 16 46  1  0  0  0  0
 17 18  1  0  0  0  0
 17 47  1  0  0  0  0
 18 19  2  0  0  0  0
 18 22  1  0  0  0  0
 19 20  1  0  0  0  0
 19 48  1  0  0  0  0
 20 21  1  0  0  0  0
 23 24  1  0  0  0  0
 24 29  2  0  0  0  0
 24 25  1  0  0  0  0
 25 26  2  0  0  0  0
 25 49  1  0  0  0  0
 26 27  1  0  0  0  0
 26 50  1  0  0  0  0
 27 28  2  0  0  0  0
 27 30  1  0  0  0  0
 28 29  1  0  0  0  0
 28 51  1  0  0  0  0
 29 52  1  0  0  0  0
M  END
$$$$
CHEMBL360138
 OpenBabel12022417383D

 49 51  0  0  0  0  0  0  0  0999 V2000
   -0.2435   -1.1614    0.0358 C   0  0  0  0  0  0  0  0  0  0  0  0
   -1.1390   -0.1000    0.0331 C   0  0  0  0  0  0  0  0  0  0  0  0
   -2.6279   -0.1476   -0.0178 C   0  0  0  0  0  0  0  0  0  0  0  0
   -0.3588    1.0629   -0.0354 N   0  0  0  0  0  0  0  0  0  0  0  0
    0.9870    0.6355    0.0342 C   0  0  0  0  0  0  0  0  0  0  0  0
    2.1973    1.4880    0.1422 C   0  0  0  0  0  0  0  0  0  0  0  0
    3.3811    1.2140   -0.5750 C   0  0  0  0  0  0  0  0  0  0  0  0
    4.4756    2.0897   -0.5195 C   0  0  0  0  0  0  0  0  0  0  0  0
    4.3962    3.2564    0.2326 C   0  0  0  0  0  0  0  0  0  0  0  0
    3.2594    3.5279    0.9825 C   0  0  0  0  0  0  0  0  0  0  0  0
    2.1927    2.6242    0.9761 C   0  0  0  0  0  0  0  0  0  0  0  0
    5.7047    4.3714    0.2321 Cl  0  0  0  0  0  0  0  0  0  0  0  0
    3.5650   -0.1717   -1.5992 Cl  0  0  0  0  0  0  0  0  0  0  0  0
    1.0491   -0.6838    0.0640 N   0  0  0  0  0  0  0  0  0  0  0  0
   -0.8244    2.4251   -0.1178 C   0  0  0  0  0  0  0  0  0  0  0  0
   -0.0810    3.3937   -0.8141 C   0  0  0  0  0  0  0  0  0  0  0  0
   -0.3840    4.7556   -0.6907 C   0  0  0  0  0  0  0  0  0  0  0  0
   -1.4827    5.1551    0.0611 C   0  0  0  0  0  0  0  0  0  0  0  0
   -2.2931    4.2019    0.6685 C   0  0  0  0  0  0  0  0  0  0  0  0
   -1.9613    2.8421    0.5888 C   0  0  0  0  0  0  0  0  0  0  0  0
   -1.8209    6.8281    0.2681 Cl  0  0  0  0  0  0  0  0  0  0  0  0
   -0.5221   -2.6095   -0.0224 C   0  0  0  0  0  0  0  0  0  0  0  0
   -1.6519   -3.0863    0.0403 O   0  0  0  0  0  0  0  0  0  0  0  0
    0.6331   -3.3386   -0.1799 N   0  0  0  0  0  0  0  0  0  0  0  0
    0.5439   -4.7489   -0.1063 O   0  0  0  0  0  0  0  0  0  0  0  0
    1.0316   -5.3540   -1.3240 C   0  0  0  0  0  0  0  0  0  0  0  0
    2.5485   -5.1613   -1.4314 C   0  0  0  0  0  0  0  0  0  0  0  0
    0.7393   -6.8588   -1.2106 C   0  0  0  0  0  0  0  0  0  0  0  0
    0.3078   -4.8150   -2.5651 C   0  0  0  0  0  0  0  0  0  0  0  0
   -3.0041   -1.1525   -0.2219 H   0  0  0  0  0  0  0  0  0  0  0  0
   -3.0208    0.4979   -0.8086 H   0  0  0  0  0  0  0  0  0  0  0  0
   -3.0569    0.1437    0.9451 H   0  0  0  0  0  0  0  0  0  0  0  0
    5.3819    1.8686   -1.0789 H   0  0  0  0  0  0  0  0  0  0  0  0
    3.1858    4.4436    1.5648 H   0  0  0  0  0  0  0  0  0  0  0  0
    1.3272    2.8558    1.5950 H   0  0  0  0  0  0  0  0  0  0  0  0
    0.7701    3.1221   -1.4352 H   0  0  0  0  0  0  0  0  0  0  0  0
    0.2562    5.4966   -1.1640 H   0  0  0  0  0  0  0  0  0  0  0  0
   -3.1629    4.5101    1.2443 H   0  0  0  0  0  0  0  0  0  0  0  0
   -2.5743    2.1574    1.1624 H   0  0  0  0  0  0  0  0  0  0  0  0
    1.5178   -2.8992    0.0566 H   0  0  0  0  0  0  0  0  0  0  0  0
    3.0527   -5.5525   -0.5389 H   0  0  0  0  0  0  0  0  0  0  0  0
    2.8149   -4.1002   -1.4983 H   0  0  0  0  0  0  0  0  0  0  0  0
    2.9582   -5.6679   -2.3101 H   0  0  0  0  0  0  0  0  0  0  0  0
    1.2148   -7.2914   -0.3236 H   0  0  0  0  0  0  0  0  0  0  0  0
    1.1005   -7.4067   -2.0916 H   0  0  0  0  0  0  0  0  0  0  0  0
   -0.3352   -7.0465   -1.1120 H   0  0  0  0  0  0  0  0  0  0  0  0
    0.4893   -3.7428   -2.7048 H   0  0  0  0  0  0  0  0  0  0  0  0
   -0.7761   -4.9415   -2.4664 H   0  0  0  0  0  0  0  0  0  0  0  0
    0.6377   -5.3270   -3.4735 H   0  0  0  0  0  0  0  0  0  0  0  0
  1 14  1  0  0  0  0
  1  2  2  0  0  0  0
  1 22  1  0  0  0  0
  2  3  1  0  0  0  0
  2  4  1  0  0  0  0
  3 30  1  0  0  0  0
  3 31  1  0  0  0  0
  3 32  1  0  0  0  0
  4  5  1  0  0  0  0
  4 15  1  0  0  0  0
  5  6  1  0  0  0  0
  5 14  2  0  0  0  0
  6 11  2  0  0  0  0
  6  7  1  0  0  0  0
  7  8  2  0  0  0  0
  7 13  1  0  0  0  0
  8  9  1  0  0  0  0
  8 33  1  0  0  0  0
  9 10  2  0  0  0  0
  9 12  1  0  0  0  0
 10 11  1  0  0  0  0
 10 34  1  0  0  0  0
 11 35  1  0  0  0  0
 15 20  2  0  0  0  0
 15 16  1  0  0  0  0
 16 17  2  0  0  0  0
 16 36  1  0  0  0  0
 17 18  1  0  0  0  0
 17 37  1  0  0  0  0
 18 19  2  0  0  0  0
 18 21  1  0  0  0  0
 19 20  1  0  0  0  0
 19 38  1  0  0  0  0
 20 39  1  0  0  0  0
 22 23  2  0  0  0  0
 22 24  1  0  0  0  0
 24 25  1  0  0  0  0
 24 40  1  0  0  0  0
 25 26  1  0  0  0  0
 26 27  1  0  0  0  0
 26 28  1  0  0  0  0
 26 29  1  0  0  0  0
 27 41  1  0  0  0  0
 27 42  1  0  0  0  0
 27 43  1  0  0  0  0
 28 44  1  0  0  0  0
 28 45  1  0  0  0  0
 28 46  1  0  0  0  0
 29 47  1  0  0  0  0
 29 48  1  0  0  0  0
 29 49  1  0  0  0  0
M  END
$$$$
CHEMBL361384
 OpenBabel12022417383D

 49 52  0  0  0  0  0  0  0  0999 V2000
    2.2203    0.1249    0.0994 C   0  0  0  0  0  0  0  0  0  0  0  0
    0.7811    0.0018    0.0030 N   0  0  0  0  0  0  0  0  0  0  0  0
   -0.0541    1.1007   -0.0720 C   0  0  0  0  0  0  0  0  0  0  0  0
    0.3443    2.5129   -0.0809 C   0  0  0  0  0  0  0  0  0  0  0  0
    1.5126    2.9006   -0.1058 O   0  0  0  0  0  0  0  0  0  0  0  0
   -0.7313    3.3802   -0.0691 N   0  0  0  0  0  0  0  0  0  0  0  0
   -0.6838    4.8285   -0.0639 C   0  0  0  0  0  0  0  0  0  0  0  0
    0.0157    5.4612    1.1355 C   0  0  0  0  0  0  0  0  0  0  0  0
    0.1689    6.9220    0.7220 C   0  0  0  0  0  0  0  0  0  0  0  0
    0.2910    6.9154   -0.8029 C   0  0  0  0  0  0  0  0  0  0  0  0
    0.0273    5.4760   -1.2516 C   0  0  0  0  0  0  0  0  0  0  0  0
   -1.3136    0.7116   -0.1360 N   0  0  0  0  0  0  0  0  0  0  0  0
   -1.3043   -0.6657   -0.0848 C   0  0  0  0  0  0  0  0  0  0  0  0
   -2.5531   -1.4387   -0.1461 C   0  0  0  0  0  0  0  0  0  0  0  0
   -2.5955   -2.6277   -0.9007 C   0  0  0  0  0  0  0  0  0  0  0  0
   -3.7382   -3.4370   -0.9221 C   0  0  0  0  0  0  0  0  0  0  0  0
   -4.8811   -3.0286   -0.2542 C   0  0  0  0  0  0  0  0  0  0  0  0
   -4.8966   -1.8266    0.4476 C   0  0  0  0  0  0  0  0  0  0  0  0
   -3.7388   -1.0337    0.5045 C   0  0  0  0  0  0  0  0  0  0  0  0
   -3.8568    0.4017    1.4658 Cl  0  0  0  0  0  0  0  0  0  0  0  0
   -6.2908   -4.0192   -0.2891 Cl  0  0  0  0  0  0  0  0  0  0  0  0
    0.0058   -1.1577   -0.0043 C   0  0  0  0  0  0  0  0  0  0  0  0
    0.5274   -2.5435    0.0597 C   0  0  0  0  0  0  0  0  0  0  0  0
    1.6302   -2.9543   -0.7068 C   0  0  0  0  0  0  0  0  0  0  0  0
    2.0903   -4.2777   -0.6738 C   0  0  0  0  0  0  0  0  0  0  0  0
    1.4071   -5.2310    0.0727 C   0  0  0  0  0  0  0  0  0  0  0  0
    0.2931   -4.8620    0.8170 C   0  0  0  0  0  0  0  0  0  0  0  0
   -0.1190   -3.5219    0.8383 C   0  0  0  0  0  0  0  0  0  0  0  0
    1.9314   -6.8680    0.0613 Cl  0  0  0  0  0  0  0  0  0  0  0  0
    2.6957   -0.8388    0.2700 H   0  0  0  0  0  0  0  0  0  0  0  0
    2.4606    0.7666    0.9486 H   0  0  0  0  0  0  0  0  0  0  0  0
    2.5882    0.5584   -0.8376 H   0  0  0  0  0  0  0  0  0  0  0  0
   -1.6377    2.9188   -0.0211 H   0  0  0  0  0  0  0  0  0  0  0  0
   -1.7317    5.1565   -0.0688 H   0  0  0  0  0  0  0  0  0  0  0  0
    1.0041    5.0213    1.3088 H   0  0  0  0  0  0  0  0  0  0  0  0
   -0.5616    5.3557    2.0593 H   0  0  0  0  0  0  0  0  0  0  0  0
    1.0324    7.3944    1.2010 H   0  0  0  0  0  0  0  0  0  0  0  0
   -0.7207    7.4921    1.0157 H   0  0  0  0  0  0  0  0  0  0  0  0
    1.2815    7.2509   -1.1266 H   0  0  0  0  0  0  0  0  0  0  0  0
   -0.4425    7.6017   -1.2410 H   0  0  0  0  0  0  0  0  0  0  0  0
   -0.5757    5.4380   -2.1647 H   0  0  0  0  0  0  0  0  0  0  0  0
    0.9814    4.9860   -1.4726 H   0  0  0  0  0  0  0  0  0  0  0  0
   -1.7281   -2.9580   -1.4625 H   0  0  0  0  0  0  0  0  0  0  0  0
   -3.7167   -4.3795   -1.4658 H   0  0  0  0  0  0  0  0  0  0  0  0
   -5.8011   -1.5087    0.9535 H   0  0  0  0  0  0  0  0  0  0  0  0
    2.1460   -2.2550   -1.3605 H   0  0  0  0  0  0  0  0  0  0  0  0
    2.9697   -4.5569   -1.2487 H   0  0  0  0  0  0  0  0  0  0  0  0
   -0.2678   -5.6076    1.3749 H   0  0  0  0  0  0  0  0  0  0  0  0
   -0.9843   -3.2635    1.4460 H   0  0  0  0  0  0  0  0  0  0  0  0
  1  2  1  0  0  0  0
  1 30  1  0  0  0  0
  1 31  1  0  0  0  0
  1 32  1  0  0  0  0
  2 22  1  0  0  0  0
  2  3  1  0  0  0  0
  3  4  1  0  0  0  0
  3 12  2  0  0  0  0
  4  5  2  0  0  0  0
  4  6  1  0  0  0  0
  6  7  1  0  0  0  0
  6 33  1  0  0  0  0
  7 11  1  0  0  0  0
  7  8  1  0  0  0  0
  7 34  1  0  0  0  0
  8  9  1  0  0  0  0
  8 35  1  0  0  0  0
  8 36  1  0  0  0  0
  9 10  1  0  0  0  0
  9 37  1  0  0  0  0
  9 38  1  0  0  0  0
 10 11  1  0  0  0  0
 10 39  1  0  0  0  0
 10 40  1  0  0  0  0
 11 41  1  0  0  0  0
 11 42  1  0  0  0  0
 12 13  1  0  0  0  0
 13 14  1  0  0  0  0
 13 22  2  0  0  0  0
 14 19  2  0  0  0  0
 14 15  1  0  0  0  0
 15 16  2  0  0  0  0
 15 43  1  0  0  0  0
 16 17  1  0  0  0  0
 16 44  1  0  0  0  0
 17 18  2  0  0  0  0
 17 21  1  0  0  0  0
 18 19  1  0  0  0  0
 18 45  1  0  0  0  0
 19 20  1  0  0  0  0
 22 23  1  0  0  0  0
 23 28  2  0  0  0  0
 23 24  1  0  0  0  0
 24 25  2  0  0  0  0
 24 46  1  0  0  0  0
 25 26  1  0  0  0  0
 25 47  1  0  0  0  0
 26 27  2  0  0  0  0
 26 29  1  0  0  0  0
 27 28  1  0  0  0  0
 27 48  1  0  0  0  0
 28 49  1  0  0  0  0
M  END
$$$$
CHEMBL436471
 OpenBabel12022417383D

 48 51  0  0  0  0  0  0  0  0999 V2000
    2.4363   -0.7712   -1.2216 O   0  0  0  0  0  0  0  0  0  0  0  0
    2.3752    0.2467   -0.5341 C   0  0  0  0  0  0  0  0  0  0  0  0
    3.1004    1.4744   -0.8883 C   0  0  0  0  0  0  0  0  0  0  0  0
    3.9819    1.6585   -1.9336 C   0  0  0  0  0  0  0  0  0  0  0  0
    4.5554    2.9095   -1.7728 N   0  0  0  0  0  0  0  0  0  0  0  0
    3.7595    3.5426   -0.7930 C   0  0  0  0  0  0  0  0  0  0  0  0
    3.7055    5.0044   -0.5534 C   0  0  0  0  0  0  0  0  0  0  0  0
    3.7450    5.8870   -1.6549 C   0  0  0  0  0  0  0  0  0  0  0  0
    3.7460    7.2728   -1.4807 C   0  0  0  0  0  0  0  0  0  0  0  0
    3.6530    7.8026   -0.2010 C   0  0  0  0  0  0  0  0  0  0  0  0
    3.5659    6.9598    0.9035 C   0  0  0  0  0  0  0  0  0  0  0  0
    3.5977    5.5684    0.7314 C   0  0  0  0  0  0  0  0  0  0  0  0
    3.5489    4.6096    2.1718 Cl  0  0  0  0  0  0  0  0  0  0  0  0
    3.6491    9.5085    0.0154 Cl  0  0  0  0  0  0  0  0  0  0  0  0
    2.9701    2.6629   -0.1923 N   0  0  0  0  0  0  0  0  0  0  0  0
    5.7071    3.4835   -2.4131 C   0  0  0  0  0  0  0  0  0  0  0  0
    6.5547    4.3295   -1.6722 C   0  0  0  0  0  0  0  0  0  0  0  0
    7.6296    4.9828   -2.2804 C   0  0  0  0  0  0  0  0  0  0  0  0
    7.8877    4.7764   -3.6311 C   0  0  0  0  0  0  0  0  0  0  0  0
    7.0834    3.9155   -4.3721 C   0  0  0  0  0  0  0  0  0  0  0  0
    5.9921    3.2728   -3.7695 C   0  0  0  0  0  0  0  0  0  0  0  0
    9.1962    5.5976   -4.3894 Cl  0  0  0  0  0  0  0  0  0  0  0  0
    4.4739    0.5493   -3.1352 Cl  0  0  0  0  0  0  0  0  0  0  0  0
    1.6263    0.3551    0.6405 N   0  0  0  0  0  0  0  0  0  0  0  0
    0.7716   -0.6797    1.1459 N   0  0  0  0  0  0  0  0  0  0  0  0
   -0.3463   -0.9524    0.2264 C   0  0  0  0  0  0  0  0  0  0  0  0
   -1.2605   -2.0833    0.7040 C   0  0  0  0  0  0  0  0  0  0  0  0
   -0.4595   -3.3459    0.9865 C   0  0  0  0  0  0  0  0  0  0  0  0
    0.6205   -3.0313    2.0125 C   0  0  0  0  0  0  0  0  0  0  0  0
    1.5224   -1.8888    1.5311 C   0  0  0  0  0  0  0  0  0  0  0  0
    3.7949    5.5066   -2.6743 H   0  0  0  0  0  0  0  0  0  0  0  0
    3.8177    7.9259   -2.3479 H   0  0  0  0  0  0  0  0  0  0  0  0
    3.4827    7.3854    1.9006 H   0  0  0  0  0  0  0  0  0  0  0  0
    6.4048    4.4926   -0.6040 H   0  0  0  0  0  0  0  0  0  0  0  0
    8.2586    5.6512   -1.6965 H   0  0  0  0  0  0  0  0  0  0  0  0
    7.2850    3.7535   -5.4283 H   0  0  0  0  0  0  0  0  0  0  0  0
    5.3594    2.6659   -4.4101 H   0  0  0  0  0  0  0  0  0  0  0  0
    1.6298    1.2594    1.1144 H   0  0  0  0  0  0  0  0  0  0  0  0
    0.0152   -1.2073   -0.7755 H   0  0  0  0  0  0  0  0  0  0  0  0
   -0.9526   -0.0433    0.1282 H   0  0  0  0  0  0  0  0  0  0  0  0
   -2.0186   -2.2904   -0.0601 H   0  0  0  0  0  0  0  0  0  0  0  0
   -1.7957   -1.7762    1.6112 H   0  0  0  0  0  0  0  0  0  0  0  0
    0.0002   -3.7120    0.0599 H   0  0  0  0  0  0  0  0  0  0  0  0
   -1.1181   -4.1394    1.3558 H   0  0  0  0  0  0  0  0  0  0  0  0
    1.2246   -3.9277    2.1951 H   0  0  0  0  0  0  0  0  0  0  0  0
    0.1513   -2.7628    2.9674 H   0  0  0  0  0  0  0  0  0  0  0  0
    2.2127   -1.6358    2.3463 H   0  0  0  0  0  0  0  0  0  0  0  0
    2.1306   -2.2660    0.7026 H   0  0  0  0  0  0  0  0  0  0  0  0
  1  2  2  0  0  0  0
  2  3  1  0  0  0  0
  2 24  1  0  0  0  0
  3 15  1  0  0  0  0
  3  4  2  0  0  0  0
  4  5  1  0  0  0  0
  4 23  1  0  0  0  0
  5  6  1  0  0  0  0
  5 16  1  0  0  0  0
  6  7  1  0  0  0  0
  6 15  2  0  0  0  0
  7 12  2  0  0  0  0
  7  8  1  0  0  0  0
  8  9  2  0  0  0  0
  8 31  1  0  0  0  0
  9 10  1  0  0  0  0
  9 32  1  0  0  0  0
 10 11  2  0  0  0  0
 10 14  1  0  0  0  0
 11 12  1  0  0  0  0
 11 33  1  0  0  0  0
 12 13  1  0  0  0  0
 16 21  2  0  0  0  0
 16 17  1  0  0  0  0
 17 18  2  0  0  0  0
 17 34  1  0  0  0  0
 18 19  1  0  0  0  0
 18 35  1  0  0  0  0
 19 20  2  0  0  0  0
 19 22  1  0  0  0  0
 20 21  1  0  0  0  0
 20 36  1  0  0  0  0
 21 37  1  0  0  0  0
 24 25  1  0  0  0  0
 24 38  1  0  0  0  0
 25 30  1  0  0  0  0
 25 26  1  0  0  0  0
 26 27  1  0  0  0  0
 26 39  1  0  0  0  0
 26 40  1  0  0  0  0
 27 28  1  0  0  0  0
 27 41  1  0  0  0  0
 27 42  1  0  0  0  0
 28 29  1  0  0  0  0
 28 43  1  0  0  0  0
 28 44  1  0  0  0  0
 29 30  1  0  0  0  0
 29 45  1  0  0  0  0
 29 46  1  0  0  0  0
 30 47  1  0  0  0  0
 30 48  1  0  0  0  0
M  END
$$$$
CHEMBL362643
 OpenBabel12022417383D

 46 49  0  0  0  0  0  0  0  0999 V2000
    2.2408   -0.0297    0.0178 C   0  0  0  0  0  0  0  0  0  0  0  0
    0.7956   -0.0365   -0.0156 N   0  0  0  0  0  0  0  0  0  0  0  0
    0.0058   -1.1921   -0.0029 C   0  0  0  0  0  0  0  0  0  0  0  0
   -1.3009   -0.6892   -0.0314 C   0  0  0  0  0  0  0  0  0  0  0  0
   -2.5473   -1.4634   -0.0062 C   0  0  0  0  0  0  0  0  0  0  0  0
   -3.6887   -1.0664    0.7111 C   0  0  0  0  0  0  0  0  0  0  0  0
   -4.7789   -1.9382    0.8621 C   0  0  0  0  0  0  0  0  0  0  0  0
   -4.7434   -3.2106    0.2994 C   0  0  0  0  0  0  0  0  0  0  0  0
   -3.6538   -3.6047   -0.4619 C   0  0  0  0  0  0  0  0  0  0  0  0
   -2.5986   -2.7143   -0.6597 C   0  0  0  0  0  0  0  0  0  0  0  0
   -6.0567   -4.2943    0.5265 Cl  0  0  0  0  0  0  0  0  0  0  0  0
   -3.8511    0.4797    1.4814 Cl  0  0  0  0  0  0  0  0  0  0  0  0
   -1.3003    0.6886   -0.0507 N   0  0  0  0  0  0  0  0  0  0  0  0
   -0.0376    1.0727   -0.0023 C   0  0  0  0  0  0  0  0  0  0  0  0
    0.3410    2.4909    0.0777 C   0  0  0  0  0  0  0  0  0  0  0  0
    1.5217    2.8637    0.0844 O   0  0  0  0  0  0  0  0  0  0  0  0
   -0.7363    3.3664    0.1750 N   0  0  0  0  0  0  0  0  0  0  0  0
   -0.6800    4.7796    0.2842 C   0  0  0  0  0  0  0  0  0  0  0  0
   -1.8556    5.4587    0.6782 C   0  0  0  0  0  0  0  0  0  0  0  0
   -1.8458    6.8568    0.8546 C   0  0  0  0  0  0  0  0  0  0  0  0
   -0.6910    7.5898    0.6181 C   0  0  0  0  0  0  0  0  0  0  0  0
    0.4636    6.9344    0.1919 C   0  0  0  0  0  0  0  0  0  0  0  0
    0.4641    5.5374    0.0277 C   0  0  0  0  0  0  0  0  0  0  0  0
    0.5273   -2.5894    0.0495 C   0  0  0  0  0  0  0  0  0  0  0  0
    1.6494   -3.0012   -0.6859 C   0  0  0  0  0  0  0  0  0  0  0  0
    2.0703   -4.3369   -0.7075 C   0  0  0  0  0  0  0  0  0  0  0  0
    1.3221   -5.3066   -0.0566 C   0  0  0  0  0  0  0  0  0  0  0  0
    0.1940   -4.9411    0.6627 C   0  0  0  0  0  0  0  0  0  0  0  0
   -0.1574   -3.5890    0.7647 C   0  0  0  0  0  0  0  0  0  0  0  0
    1.7874   -6.9562   -0.1574 Cl  0  0  0  0  0  0  0  0  0  0  0  0
    2.6632    0.9674    0.1049 H   0  0  0  0  0  0  0  0  0  0  0  0
    2.6116   -0.4352   -0.9233 H   0  0  0  0  0  0  0  0  0  0  0  0
    2.5757   -0.6305    0.8674 H   0  0  0  0  0  0  0  0  0  0  0  0
   -5.6505   -1.6281    1.4338 H   0  0  0  0  0  0  0  0  0  0  0  0
   -3.6007   -4.6028   -0.8905 H   0  0  0  0  0  0  0  0  0  0  0  0
   -1.7650   -3.0511   -1.2737 H   0  0  0  0  0  0  0  0  0  0  0  0
   -1.6395    2.9107    0.2645 H   0  0  0  0  0  0  0  0  0  0  0  0
   -2.7601    4.9161    0.8779 H   0  0  0  0  0  0  0  0  0  0  0  0
   -2.7481    7.3614    1.1817 H   0  0  0  0  0  0  0  0  0  0  0  0
   -0.6785    8.6725    0.7523 H   0  0  0  0  0  0  0  0  0  0  0  0
    1.3703    7.5001   -0.0055 H   0  0  0  0  0  0  0  0  0  0  0  0
    1.3836    5.0800   -0.3210 H   0  0  0  0  0  0  0  0  0  0  0  0
    2.2178   -2.3159   -1.3015 H   0  0  0  0  0  0  0  0  0  0  0  0
    2.9622   -4.6048   -1.2672 H   0  0  0  0  0  0  0  0  0  0  0  0
   -0.4308   -5.6953    1.1348 H   0  0  0  0  0  0  0  0  0  0  0  0
   -1.0375   -3.3458    1.3564 H   0  0  0  0  0  0  0  0  0  0  0  0
  1  2  1  0  0  0  0
  1 31  1  0  0  0  0
  1 32  1  0  0  0  0
  1 33  1  0  0  0  0
  2 14  1  0  0  0  0
  2  3  1  0  0  0  0
  3  4  2  0  0  0  0
  3 24  1  0  0  0  0
  4  5  1  0  0  0  0
  4 13  1  0  0  0  0
  5 10  2  0  0  0  0
  5  6  1  0  0  0  0
  6  7  2  0  0  0  0
  6 12  1  0  0  0  0
  7  8  1  0  0  0  0
  7 34  1  0  0  0  0
  8  9  2  0  0  0  0
  8 11  1  0  0  0  0
  9 10  1  0  0  0  0
  9 35  1  0  0  0  0
 10 36  1  0  0  0  0
 13 14  2  0  0  0  0
 14 15  1  0  0  0  0
 15 16  2  0  0  0  0
 15 17  1  0  0  0  0
 17 18  1  0  0  0  0
 17 37  1  0  0  0  0
 18 23  2  0  0  0  0
 18 19  1  0  0  0  0
 19 20  2  0  0  0  0
 19 38  1  0  0  0  0
 20 21  1  0  0  0  0
 20 39  1  0  0  0  0
 21 22  2  0  0  0  0
 21 40  1  0  0  0  0
 22 23  1  0  0  0  0
 22 41  1  0  0  0  0
 23 42  1  0  0  0  0
 24 29  2  0  0  0  0
 24 25  1  0  0  0  0
 25 26  2  0  0  0  0
 25 43  1  0  0  0  0
 26 27  1  0  0  0  0
 26 44  1  0  0  0  0
 27 28  2  0  0  0  0
 27 30  1  0  0  0  0
 28 29  1  0  0  0  0
 28 45  1  0  0  0  0
 29 46  1  0  0  0  0
M  END
$$$$
CHEMBL427497
 OpenBabel12022417383D

 48 51  0  0  0  0  0  0  0  0999 V2000
   -0.2436   -1.1701    0.0524 C   0  0  0  0  0  0  0  0  0  0  0  0
   -1.0986   -0.0843    0.0064 C   0  0  0  0  0  0  0  0  0  0  0  0
   -0.3140    1.0630   -0.0361 N   0  0  0  0  0  0  0  0  0  0  0  0
    1.0252    0.6141    0.0372 C   0  0  0  0  0  0  0  0  0  0  0  0
    2.2403    1.4655    0.1406 C   0  0  0  0  0  0  0  0  0  0  0  0
    3.4244    1.1898   -0.5745 C   0  0  0  0  0  0  0  0  0  0  0  0
    4.5197    2.0665   -0.5228 C   0  0  0  0  0  0  0  0  0  0  0  0
    4.4413    3.2379    0.2225 C   0  0  0  0  0  0  0  0  0  0  0  0
    3.3041    3.5131    0.9694 C   0  0  0  0  0  0  0  0  0  0  0  0
    2.2371    2.6087    0.9663 C   0  0  0  0  0  0  0  0  0  0  0  0
    5.7498    4.3532    0.2166 Cl  0  0  0  0  0  0  0  0  0  0  0  0
    3.6058   -0.1971   -1.5960 Cl  0  0  0  0  0  0  0  0  0  0  0  0
    1.0629   -0.7119    0.0665 N   0  0  0  0  0  0  0  0  0  0  0  0
   -0.7769    2.4256   -0.0975 C   0  0  0  0  0  0  0  0  0  0  0  0
   -0.0536    3.3915   -0.8159 C   0  0  0  0  0  0  0  0  0  0  0  0
   -0.3806    4.7492   -0.7071 C   0  0  0  0  0  0  0  0  0  0  0  0
   -1.4731    5.1421    0.0593 C   0  0  0  0  0  0  0  0  0  0  0  0
   -2.2499    4.1866    0.7064 C   0  0  0  0  0  0  0  0  0  0  0  0
   -1.8942    2.8331    0.6414 C   0  0  0  0  0  0  0  0  0  0  0  0
   -1.8445    6.8118    0.2339 Cl  0  0  0  0  0  0  0  0  0  0  0  0
   -2.9700   -0.2000   -0.1737 Br  0  0  0  0  0  0  0  0  0  0  0  0
   -0.5996   -2.6043    0.0682 C   0  0  0  0  0  0  0  0  0  0  0  0
   -1.7569   -2.9974    0.2106 O   0  0  0  0  0  0  0  0  0  0  0  0
    0.4916   -3.4515   -0.0970 N   0  0  0  0  0  0  0  0  0  0  0  0
    0.3955   -4.8840   -0.1361 N   0  0  0  0  0  0  0  0  0  0  0  0
   -0.0927   -5.4465    1.1348 C   0  0  0  0  0  0  0  0  0  0  0  0
   -0.0474   -6.9775    1.1171 C   0  0  0  0  0  0  0  0  0  0  0  0
   -0.8289   -7.5483   -0.0612 C   0  0  0  0  0  0  0  0  0  0  0  0
   -0.3832   -6.8982   -1.3673 C   0  0  0  0  0  0  0  0  0  0  0  0
   -0.4026   -5.3681   -1.2767 C   0  0  0  0  0  0  0  0  0  0  0  0
    5.4263    1.8438   -1.0810 H   0  0  0  0  0  0  0  0  0  0  0  0
    3.2308    4.4318    1.5476 H   0  0  0  0  0  0  0  0  0  0  0  0
    1.3736    2.8469    1.5851 H   0  0  0  0  0  0  0  0  0  0  0  0
    0.7892    3.1241   -1.4497 H   0  0  0  0  0  0  0  0  0  0  0  0
    0.2328    5.4944   -1.2085 H   0  0  0  0  0  0  0  0  0  0  0  0
   -3.1137    4.4888    1.2946 H   0  0  0  0  0  0  0  0  0  0  0  0
   -2.4790    2.1417    1.2416 H   0  0  0  0  0  0  0  0  0  0  0  0
    1.4122   -3.0275   -0.1950 H   0  0  0  0  0  0  0  0  0  0  0  0
   -1.1202   -5.1276    1.3474 H   0  0  0  0  0  0  0  0  0  0  0  0
    0.5357   -5.0916    1.9591 H   0  0  0  0  0  0  0  0  0  0  0  0
   -0.4607   -7.3701    2.0537 H   0  0  0  0  0  0  0  0  0  0  0  0
    0.9946   -7.3160    1.0618 H   0  0  0  0  0  0  0  0  0  0  0  0
   -1.9005   -7.3731    0.0894 H   0  0  0  0  0  0  0  0  0  0  0  0
   -0.6879   -8.6344   -0.1152 H   0  0  0  0  0  0  0  0  0  0  0  0
   -1.0415   -7.2280   -2.1801 H   0  0  0  0  0  0  0  0  0  0  0  0
    0.6279   -7.2414   -1.6177 H   0  0  0  0  0  0  0  0  0  0  0  0
    0.0064   -4.9639   -2.2103 H   0  0  0  0  0  0  0  0  0  0  0  0
   -1.4450   -5.0348   -1.2082 H   0  0  0  0  0  0  0  0  0  0  0  0
  1 13  1  0  0  0  0
  1  2  2  0  0  0  0
  1 22  1  0  0  0  0
  2  3  1  0  0  0  0
  2 21  1  0  0  0  0
  3  4  1  0  0  0  0
  3 14  1  0  0  0  0
  4  5  1  0  0  0  0
  4 13  2  0  0  0  0
  5 10  2  0  0  0  0
  5  6  1  0  0  0  0
  6  7  2  0  0  0  0
  6 12  1  0  0  0  0
  7  8  1  0  0  0  0
  7 31  1  0  0  0  0
  8  9  2  0  0  0  0
  8 11  1  0  0  0  0
  9 10  1  0  0  0  0
  9 32  1  0  0  0  0
 10 33  1  0  0  0  0
 14 19  2  0  0  0  0
 14 15  1  0  0  0  0
 15 16  2  0  0  0  0
 15 34  1  0  0  0  0
 16 17  1  0  0  0  0
 16 35  1  0  0  0  0
 17 18  2  0  0  0  0
 17 20  1  0  0  0  0
 18 19  1  0  0  0  0
 18 36  1  0  0  0  0
 19 37  1  0  0  0  0
 22 23  2  0  0  0  0
 22 24  1  0  0  0  0
 24 25  1  0  0  0  0
 24 38  1  0  0  0  0
 25 30  1  0  0  0  0
 25 26  1  0  0  0  0
 26 27  1  0  0  0  0
 26 39  1  0  0  0  0
 26 40  1  0  0  0  0
 27 28  1  0  0  0  0
 27 41  1  0  0  0  0
 27 42  1  0  0  0  0
 28 29  1  0  0  0  0
 28 43  1  0  0  0  0
 28 44  1  0  0  0  0
 29 30  1  0  0  0  0
 29 45  1  0  0  0  0
 29 46  1  0  0  0  0
 30 47  1  0  0  0  0
 30 48  1  0  0  0  0
M  END
$$$$
CHEMBL176198
 OpenBabel12022417383D

 53 56  0  0  1  0  0  0  0  0999 V2000
    1.0265    0.3507    0.1362 C   0  0  0  0  0  0  0  0  0  0  0  0
    2.5076    0.1537    0.0835 C   0  0  0  0  0  0  0  0  0  0  0  0
    3.4798    1.1506    0.1160 C   0  0  0  0  0  0  0  0  0  0  0  0
    3.2249    2.6000    0.1541 C   0  0  0  0  0  0  0  0  0  0  0  0
    2.0823    3.0510    0.0671 O   0  0  0  0  0  0  0  0  0  0  0  0
    4.3255    3.4291    0.3224 N   0  0  0  0  0  0  0  0  0  0  0  0
    4.1023    4.8528    0.5251 C   0  0  1  0  0  0  0  0  0  0  0  0
    3.8965    5.2044    2.0060 C   0  0  0  0  0  0  0  0  0  0  0  0
    3.3371    6.6213    2.1097 C   0  0  0  0  0  0  0  0  0  0  0  0
    4.2402    7.6476    1.4204 C   0  0  1  0  0  0  0  0  0  0  0  0
    4.6631    7.2314    0.0057 C   0  0  0  0  0  0  0  0  0  0  0  0
    5.1699    5.7814   -0.0629 C   0  0  0  0  0  0  0  0  0  0  0  0
    3.5640    8.9009    1.3562 O   0  0  0  0  0  0  0  0  0  0  0  0
    4.7309    0.5796    0.0996 N   0  0  0  0  0  0  0  0  0  0  0  0
    4.5595   -0.7349    0.0383 C   0  0  0  0  0  0  0  0  0  0  0  0
    5.6761   -1.6841   -0.1936 C   0  0  0  0  0  0  0  0  0  0  0  0
    5.5250   -2.7431   -1.1135 C   0  0  0  0  0  0  0  0  0  0  0  0
    6.5510   -3.6646   -1.3436 C   0  0  0  0  0  0  0  0  0  0  0  0
    7.7737   -3.5047   -0.7061 C   0  0  0  0  0  0  0  0  0  0  0  0
    7.9688   -2.4490    0.1809 C   0  0  0  0  0  0  0  0  0  0  0  0
    6.9230   -1.5503    0.4447 C   0  0  0  0  0  0  0  0  0  0  0  0
    7.2532   -0.3239    1.6234 Cl  0  0  0  0  0  0  0  0  0  0  0  0
    9.0495   -4.6150   -1.0130 Cl  0  0  0  0  0  0  0  0  0  0  0  0
    3.1906   -1.0587    0.0977 N   0  0  0  0  0  0  0  0  0  0  0  0
    2.6107   -2.3699    0.1769 C   0  0  0  0  0  0  0  0  0  0  0  0
    3.2319   -3.3729    0.9414 C   0  0  0  0  0  0  0  0  0  0  0  0
    2.6906   -4.6634    0.9960 C   0  0  0  0  0  0  0  0  0  0  0  0
    1.5090   -4.9514    0.3192 C   0  0  0  0  0  0  0  0  0  0  0  0
    0.8782   -3.9677   -0.4363 C   0  0  0  0  0  0  0  0  0  0  0  0
    1.4384   -2.6870   -0.5252 C   0  0  0  0  0  0  0  0  0  0  0  0
    0.8298   -6.5291    0.4124 Cl  0  0  0  0  0  0  0  0  0  0  0  0
    0.4591   -0.5450    0.3849 H   0  0  0  0  0  0  0  0  0  0  0  0
    0.6693    0.7318   -0.8274 H   0  0  0  0  0  0  0  0  0  0  0  0
    0.7643    1.0796    0.9101 H   0  0  0  0  0  0  0  0  0  0  0  0
    5.2131    2.9796    0.5282 H   0  0  0  0  0  0  0  0  0  0  0  0
    3.1717    5.0912   -0.0030 H   0  0  0  0  0  0  0  0  0  0  0  0
    4.8478    5.1371    2.5506 H   0  0  0  0  0  0  0  0  0  0  0  0
    3.2073    4.5010    2.4855 H   0  0  0  0  0  0  0  0  0  0  0  0
    3.1947    6.9006    3.1601 H   0  0  0  0  0  0  0  0  0  0  0  0
    2.3349    6.6494    1.6613 H   0  0  0  0  0  0  0  0  0  0  0  0
    5.1387    7.7981    2.0296 H   0  0  0  0  0  0  0  0  0  0  0  0
    5.4281    7.9229   -0.3658 H   0  0  0  0  0  0  0  0  0  0  0  0
    3.8106    7.3490   -0.6765 H   0  0  0  0  0  0  0  0  0  0  0  0
    5.3798    5.5196   -1.1061 H   0  0  0  0  0  0  0  0  0  0  0  0
    6.1164    5.6907    0.4858 H   0  0  0  0  0  0  0  0  0  0  0  0
    2.7175    8.7684    0.8982 H   0  0  0  0  0  0  0  0  0  0  0  0
    4.5940   -2.8795   -1.6608 H   0  0  0  0  0  0  0  0  0  0  0  0
    6.3867   -4.4976   -2.0237 H   0  0  0  0  0  0  0  0  0  0  0  0
    8.9322   -2.3264    0.6690 H   0  0  0  0  0  0  0  0  0  0  0  0
    4.1303   -3.1749    1.5219 H   0  0  0  0  0  0  0  0  0  0  0  0
    3.1924   -5.4353    1.5748 H   0  0  0  0  0  0  0  0  0  0  0  0
   -0.0442   -4.1920   -0.9676 H   0  0  0  0  0  0  0  0  0  0  0  0
    0.9530   -1.9684   -1.1812 H   0  0  0  0  0  0  0  0  0  0  0  0
  1  2  1  0  0  0  0
  1 32  1  0  0  0  0
  1 33  1  0  0  0  0
  1 34  1  0  0  0  0
  2 24  1  0  0  0  0
  2  3  2  0  0  0  0
  3  4  1  0  0  0  0
  3 14  1  0  0  0  0
  4  5  2  0  0  0  0
  4  6  1  0  0  0  0
  6 35  1  0  0  0  0
  7  6  1  0  0  0  0
  7  8  1  0  0  0  0
  7 12  1  0  0  0  0
  7 36  1  6  0  0  0
  8  9  1  0  0  0  0
  8 37  1  0  0  0  0
  8 38  1  0  0  0  0
  9 10  1  0  0  0  0
  9 39  1  0  0  0  0
  9 40  1  0  0  0  0
 10 11  1  0  0  0  0
 10 13  1  0  0  0  0
 10 41  1  1  0  0  0
 11 12  1  0  0  0  0
 11 42  1  0  0  0  0
 11 43  1  0  0  0  0
 12 44  1  0  0  0  0
 12 45  1  0  0  0  0
 13 46  1  0  0  0  0
 14 15  2  0  0  0  0
 15 16  1  0  0  0  0
 15 24  1  0  0  0  0
 16 21  2  0  0  0  0
 16 17  1  0  0  0  0
 17 18  2  0  0  0  0
 17 47  1  0  0  0  0
 18 19  1  0  0  0  0
 18 48  1  0  0  0  0
 19 20  2  0  0  0  0
 19 23  1  0  0  0  0
 20 21  1  0  0  0  0
 20 49  1  0  0  0  0
 21 22  1  0  0  0  0
 24 25  1  0  0  0  0
 25 30  2  0  0  0  0
 25 26  1  0  0  0  0
 26 27  2  0  0  0  0
 26 50  1  0  0  0  0
 27 28  1  0  0  0  0
 27 51  1  0  0  0  0
 28 29  2  0  0  0  0
 28 31  1  0  0  0  0
 29 30  1  0  0  0  0
 29 52  1  0  0  0  0
 30 53  1  0  0  0  0
M  END
$$$$
CHEMBL176022
 OpenBabel12022417383D

 55 58  0  0  0  0  0  0  0  0999 V2000
    1.0640    0.4450    0.0356 C   0  0  0  0  0  0  0  0  0  0  0  0
    2.5411    0.2564   -0.0477 C   0  0  0  0  0  0  0  0  0  0  0  0
    3.5201    1.2464   -0.0641 C   0  0  0  0  0  0  0  0  0  0  0  0
    3.3424    2.7268   -0.0178 C   0  0  0  0  0  0  0  0  0  0  0  0
    2.2451    3.2748   -0.0409 O   0  0  0  0  0  0  0  0  0  0  0  0
    4.5400    3.4111    0.0516 N   0  0  0  0  0  0  0  0  0  0  0  0
    4.7658    4.8635    0.0159 C   0  0  0  0  0  0  0  0  0  0  0  0
    4.4741    5.4805   -1.3648 C   0  0  0  0  0  0  0  0  0  0  0  0
    3.3481    6.5163   -1.4478 C   0  0  0  0  0  0  0  0  0  0  0  0
    3.7617    7.9112   -0.9761 C   0  0  0  0  0  0  0  0  0  0  0  0
    3.8354    8.0944    0.5362 C   0  0  0  0  0  0  0  0  0  0  0  0
    4.6972    7.0811    1.2848 C   0  0  0  0  0  0  0  0  0  0  0  0
    4.1890    5.6306    1.2161 C   0  0  0  0  0  0  0  0  0  0  0  0
    4.7679    0.6513   -0.1222 N   0  0  0  0  0  0  0  0  0  0  0  0
    4.5907   -0.6634   -0.1151 C   0  0  0  0  0  0  0  0  0  0  0  0
    5.7046   -1.6345   -0.2966 C   0  0  0  0  0  0  0  0  0  0  0  0
    5.5419   -2.7595   -1.1338 C   0  0  0  0  0  0  0  0  0  0  0  0
    6.5556   -3.7124   -1.2917 C   0  0  0  0  0  0  0  0  0  0  0  0
    7.7817   -3.5237   -0.6682 C   0  0  0  0  0  0  0  0  0  0  0  0
    7.9933   -2.4037    0.1280 C   0  0  0  0  0  0  0  0  0  0  0  0
    6.9608   -1.4720    0.3244 C   0  0  0  0  0  0  0  0  0  0  0  0
    7.3149   -0.1608    1.3994 Cl  0  0  0  0  0  0  0  0  0  0  0  0
    9.0384   -4.6776   -0.8841 Cl  0  0  0  0  0  0  0  0  0  0  0  0
    3.2189   -0.9670   -0.0125 N   0  0  0  0  0  0  0  0  0  0  0  0
    2.6333   -2.2751    0.1210 C   0  0  0  0  0  0  0  0  0  0  0  0
    3.2460   -3.2407    0.9401 C   0  0  0  0  0  0  0  0  0  0  0  0
    2.7095   -4.5308    1.0442 C   0  0  0  0  0  0  0  0  0  0  0  0
    1.5449   -4.8551    0.3561 C   0  0  0  0  0  0  0  0  0  0  0  0
    0.9294   -3.9079   -0.4585 C   0  0  0  0  0  0  0  0  0  0  0  0
    1.4812   -2.6249   -0.5854 C   0  0  0  0  0  0  0  0  0  0  0  0
    0.8734   -6.4324    0.4996 Cl  0  0  0  0  0  0  0  0  0  0  0  0
    0.5163   -0.4522    0.3258 H   0  0  0  0  0  0  0  0  0  0  0  0
    0.6767    0.7867   -0.9304 H   0  0  0  0  0  0  0  0  0  0  0  0
    0.8177    1.1974    0.7907 H   0  0  0  0  0  0  0  0  0  0  0  0
    5.3529    2.8007    0.0153 H   0  0  0  0  0  0  0  0  0  0  0  0
    5.8584    4.9152    0.1345 H   0  0  0  0  0  0  0  0  0  0  0  0
    4.2661    4.6843   -2.0884 H   0  0  0  0  0  0  0  0  0  0  0  0
    5.3969    5.9598   -1.7216 H   0  0  0  0  0  0  0  0  0  0  0  0
    2.4467    6.1756   -0.9274 H   0  0  0  0  0  0  0  0  0  0  0  0
    3.0707    6.6092   -2.5061 H   0  0  0  0  0  0  0  0  0  0  0  0
    3.0291    8.6335   -1.3597 H   0  0  0  0  0  0  0  0  0  0  0  0
    4.7205    8.1928   -1.4301 H   0  0  0  0  0  0  0  0  0  0  0  0
    2.8211    8.0889    0.9518 H   0  0  0  0  0  0  0  0  0  0  0  0
    4.2323    9.0993    0.7348 H   0  0  0  0  0  0  0  0  0  0  0  0
    4.7113    7.3899    2.3380 H   0  0  0  0  0  0  0  0  0  0  0  0
    5.7354    7.1461    0.9369 H   0  0  0  0  0  0  0  0  0  0  0  0
    4.5111    5.1217    2.1340 H   0  0  0  0  0  0  0  0  0  0  0  0
    3.0935    5.6040    1.2309 H   0  0  0  0  0  0  0  0  0  0  0  0
    4.6091   -2.9280   -1.6689 H   0  0  0  0  0  0  0  0  0  0  0  0
    6.3786   -4.5938   -1.9046 H   0  0  0  0  0  0  0  0  0  0  0  0
    8.9596   -2.2579    0.6056 H   0  0  0  0  0  0  0  0  0  0  0  0
    4.1355   -3.0149    1.5231 H   0  0  0  0  0  0  0  0  0  0  0  0
    3.2024   -5.2736    1.6670 H   0  0  0  0  0  0  0  0  0  0  0  0
    0.0237   -4.1631   -1.0033 H   0  0  0  0  0  0  0  0  0  0  0  0
    1.0057   -1.9331   -1.2754 H   0  0  0  0  0  0  0  0  0  0  0  0
  1  2  1  0  0  0  0
  1 32  1  0  0  0  0
  1 33  1  0  0  0  0
  1 34  1  0  0  0  0
  2 24  1  0  0  0  0
  2  3  2  0  0  0  0
  3  4  1  0  0  0  0
  3 14  1  0  0  0  0
  4  5  2  0  0  0  0
  4  6  1  0  0  0  0
  6  7  1  0  0  0  0
  6 35  1  0  0  0  0
  7 13  1  0  0  0  0
  7  8  1  0  0  0  0
  7 36  1  0  0  0  0
  8  9  1  0  0  0  0
  8 37  1  0  0  0  0
  8 38  1  0  0  0  0
  9 10  1  0  0  0  0
  9 39  1  0  0  0  0
  9 40  1  0  0  0  0
 10 11  1  0  0  0  0
 10 41  1  0  0  0  0
 10 42  1  0  0  0  0
 11 12  1  0  0  0  0
 11 43  1  0  0  0  0
 11 44  1  0  0  0  0
 12 13  1  0  0  0  0
 12 45  1  0  0  0  0
 12 46  1  0  0  0  0
 13 47  1  0  0  0  0
 13 48  1  0  0  0  0
 14 15  2  0  0  0  0
 15 16  1  0  0  0  0
 15 24  1  0  0  0  0
 16 21  2  0  0  0  0
 16 17  1  0  0  0  0
 17 18  2  0  0  0  0
 17 49  1  0  0  0  0
 18 19  1  0  0  0  0
 18 50  1  0  0  0  0
 19 20  2  0  0  0  0
 19 23  1  0  0  0  0
 20 21  1  0  0  0  0
 20 51  1  0  0  0  0
 21 22  1  0  0  0  0
 24 25  1  0  0  0  0
 25 30  2  0  0  0  0
 25 26  1  0  0  0  0
 26 27  2  0  0  0  0
 26 52  1  0  0  0  0
 27 28  1  0  0  0  0
 27 53  1  0  0  0  0
 28 29  2  0  0  0  0
 28 31  1  0  0  0  0
 29 30  1  0  0  0  0
 29 54  1  0  0  0  0
 30 55  1  0  0  0  0
M  END
$$$$
CHEMBL474602
 OpenBabel12022417383D

 48 51  0  0  0  0  0  0  0  0999 V2000
    2.8643    0.8026    1.1361 O   0  0  0  0  0  0  0  0  0  0  0  0
    2.1769    0.4814    0.1693 C   0  0  0  0  0  0  0  0  0  0  0  0
    2.6274    0.7248   -1.2465 C   0  0  0  0  0  0  0  0  0  0  0  0
    1.7217    1.5905   -1.9723 N   0  0  0  0  0  0  0  0  0  0  0  0
    0.9189    1.1022   -2.9338 N   0  0  0  0  0  0  0  0  0  0  0  0
    0.4516    2.2187   -3.5243 C   0  0  0  0  0  0  0  0  0  0  0  0
   -0.4657    2.1457   -4.6739 C   0  0  0  0  0  0  0  0  0  0  0  0
   -0.2525    2.9946   -5.7790 C   0  0  0  0  0  0  0  0  0  0  0  0
   -1.1396    3.0192   -6.8599 C   0  0  0  0  0  0  0  0  0  0  0  0
   -2.2231    2.1491   -6.8831 C   0  0  0  0  0  0  0  0  0  0  0  0
   -2.4394    1.2732   -5.8249 C   0  0  0  0  0  0  0  0  0  0  0  0
   -1.5776    1.2788   -4.7173 C   0  0  0  0  0  0  0  0  0  0  0  0
   -2.0097    0.2186   -3.4162 Cl  0  0  0  0  0  0  0  0  0  0  0  0
   -3.2997    2.1611   -8.2236 Cl  0  0  0  0  0  0  0  0  0  0  0  0
    1.0542    3.3630   -2.8763 C   0  0  0  0  0  0  0  0  0  0  0  0
    0.9585    4.7995   -3.1759 C   0  0  0  0  0  0  0  0  0  0  0  0
   -0.2714    5.3297   -3.6103 C   0  0  0  0  0  0  0  0  0  0  0  0
   -0.3828    6.6611   -4.0228 C   0  0  0  0  0  0  0  0  0  0  0  0
    0.7195    7.5033   -3.9424 C   0  0  0  0  0  0  0  0  0  0  0  0
    1.9323    7.0257   -3.4613 C   0  0  0  0  0  0  0  0  0  0  0  0
    2.0612    5.6787   -3.0929 C   0  0  0  0  0  0  0  0  0  0  0  0
    3.6541    5.1900   -2.6128 Cl  0  0  0  0  0  0  0  0  0  0  0  0
    0.5838    9.1396   -4.4516 Cl  0  0  0  0  0  0  0  0  0  0  0  0
    1.8013    2.9205   -1.8527 N   0  0  0  0  0  0  0  0  0  0  0  0
    1.0084   -0.2412    0.3040 N   0  0  0  0  0  0  0  0  0  0  0  0
    0.4752   -0.5796    1.6071 C   0  0  0  0  0  0  0  0  0  0  0  0
   -0.3798   -1.8091    1.5206 C   0  0  0  0  0  0  0  0  0  0  0  0
    0.1718   -3.0363    1.1211 C   0  0  0  0  0  0  0  0  0  0  0  0
   -0.6328   -4.1737    1.0107 C   0  0  0  0  0  0  0  0  0  0  0  0
   -1.9931   -4.0996    1.3060 C   0  0  0  0  0  0  0  0  0  0  0  0
   -2.5498   -2.8883    1.7196 C   0  0  0  0  0  0  0  0  0  0  0  0
   -1.7411   -1.7613    1.8267 C   0  0  0  0  0  0  0  0  0  0  0  0
   -2.2979   -0.6088    2.2233 F   0  0  0  0  0  0  0  0  0  0  0  0
    2.7046   -0.2299   -1.7784 H   0  0  0  0  0  0  0  0  0  0  0  0
    3.6111    1.1975   -1.2454 H   0  0  0  0  0  0  0  0  0  0  0  0
    0.6026    3.6679   -5.8085 H   0  0  0  0  0  0  0  0  0  0  0  0
   -0.9771    3.7186   -7.6773 H   0  0  0  0  0  0  0  0  0  0  0  0
   -3.2874    0.5927   -5.8540 H   0  0  0  0  0  0  0  0  0  0  0  0
   -1.1628    4.7071   -3.6577 H   0  0  0  0  0  0  0  0  0  0  0  0
   -1.3310    7.0291   -4.4072 H   0  0  0  0  0  0  0  0  0  0  0  0
    2.7873    7.6940   -3.3893 H   0  0  0  0  0  0  0  0  0  0  0  0
    0.3856   -0.3199   -0.4928 H   0  0  0  0  0  0  0  0  0  0  0  0
   -0.0898    0.2892    1.9597 H   0  0  0  0  0  0  0  0  0  0  0  0
    1.2924   -0.7481    2.3190 H   0  0  0  0  0  0  0  0  0  0  0  0
    1.2326   -3.1066    0.8871 H   0  0  0  0  0  0  0  0  0  0  0  0
   -0.1952   -5.1165    0.6913 H   0  0  0  0  0  0  0  0  0  0  0  0
   -2.6182   -4.9848    1.2175 H   0  0  0  0  0  0  0  0  0  0  0  0
   -3.6043   -2.8197    1.9595 H   0  0  0  0  0  0  0  0  0  0  0  0
  1  2  2  0  0  0  0
  2  3  1  0  0  0  0
  2 25  1  0  0  0  0
  3  4  1  0  0  0  0
  3 34  1  0  0  0  0
  3 35  1  0  0  0  0
  4 24  1  0  0  0  0
  4  5  1  0  0  0  0
  5  6  2  0  0  0  0
  6  7  1  0  0  0  0
  6 15  1  0  0  0  0
  7 12  2  0  0  0  0
  7  8  1  0  0  0  0
  8  9  2  0  0  0  0
  8 36  1  0  0  0  0
  9 10  1  0  0  0  0
  9 37  1  0  0  0  0
 10 11  2  0  0  0  0
 10 14  1  0  0  0  0
 11 12  1  0  0  0  0
 11 38  1  0  0  0  0
 12 13  1  0  0  0  0
 15 16  1  0  0  0  0
 15 24  2  0  0  0  0
 16 21  2  0  0  0  0
 16 17  1  0  0  0  0
 17 18  2  0  0  0  0
 17 39  1  0  0  0  0
 18 19  1  0  0  0  0
 18 40  1  0  0  0  0
 19 20  2  0  0  0  0
 19 23  1  0  0  0  0
 20 21  1  0  0  0  0
 20 41  1  0  0  0  0
 21 22  1  0  0  0  0
 25 26  1  0  0  0  0
 25 42  1  0  0  0  0
 26 27  1  0  0  0  0
 26 43  1  0  0  0  0
 26 44  1  0  0  0  0
 27 32  2  0  0  0  0
 27 28  1  0  0  0  0
 28 29  2  0  0  0  0
 28 45  1  0  0  0  0
 29 30  1  0  0  0  0
 29 46  1  0  0  0  0
 30 31  2  0  0  0  0
 30 47  1  0  0  0  0
 31 32  1  0  0  0  0
 31 48  1  0  0  0  0
 32 33  1  0  0  0  0
M  END
$$$$
CHEMBL1088507
 OpenBabel12022417383D

 55 58  0  0  0  0  0  0  0  0999 V2000
   -0.2861   -1.0785   -0.0788 N   0  0  0  0  0  0  0  0  0  0  0  0
   -1.1871    0.0040   -0.0477 C   0  0  0  0  0  0  0  0  0  0  0  0
   -0.4176    1.1563   -0.0333 C   0  0  0  0  0  0  0  0  0  0  0  0
    0.9192    0.8195    0.0214 N   0  0  0  0  0  0  0  0  0  0  0  0
    1.0085   -0.5030    0.0019 C   0  0  0  0  0  0  0  0  0  0  0  0
    2.3177   -1.2139    0.1003 C   0  0  0  0  0  0  0  0  0  0  0  0
    3.4769   -0.7485   -0.5598 C   0  0  0  0  0  0  0  0  0  0  0  0
    4.6683   -1.4931   -0.5533 C   0  0  0  0  0  0  0  0  0  0  0  0
    4.7215   -2.7180    0.0992 C   0  0  0  0  0  0  0  0  0  0  0  0
    3.6196   -3.1723    0.8110 C   0  0  0  0  0  0  0  0  0  0  0  0
    2.4483   -2.4023    0.8507 C   0  0  0  0  0  0  0  0  0  0  0  0
    6.1481   -3.6750    0.0183 Cl  0  0  0  0  0  0  0  0  0  0  0  0
    3.5299    0.7361   -1.4529 Cl  0  0  0  0  0  0  0  0  0  0  0  0
   -0.8591    2.5654   -0.0470 C   0  0  0  0  0  0  0  0  0  0  0  0
   -2.0411    2.9009   -0.1393 O   0  0  0  0  0  0  0  0  0  0  0  0
    0.1885    3.4743    0.0435 N   0  0  0  0  0  0  0  0  0  0  0  0
    0.0005    4.8953    0.0334 N   0  0  0  0  0  0  0  0  0  0  0  0
   -0.4663    5.3863   -1.2674 C   0  0  0  0  0  0  0  0  0  0  0  0
    0.0636    6.7936   -1.5757 C   0  0  0  0  0  0  0  0  0  0  0  0
   -0.6666    7.9415   -0.8870 C   0  0  0  0  0  0  0  0  0  0  0  0
   -0.7001    7.8583    0.6335 C   0  0  0  0  0  0  0  0  0  0  0  0
   -1.5200    6.6764    1.1315 C   0  0  0  0  0  0  0  0  0  0  0  0
   -0.7538    5.3520    1.2109 C   0  0  0  0  0  0  0  0  0  0  0  0
   -2.9295   -0.1790   -0.0219 S   0  0  0  0  0  0  0  0  0  0  0  0
   -3.4922    0.5497   -1.5727 C   0  0  0  0  0  0  0  0  0  0  0  0
   -0.5944   -2.4871   -0.1754 C   0  0  0  0  0  0  0  0  0  0  0  0
    0.2226   -3.3478   -0.9295 C   0  0  0  0  0  0  0  0  0  0  0  0
    0.0120   -4.7345   -0.9118 C   0  0  0  0  0  0  0  0  0  0  0  0
   -1.0594   -5.2675   -0.2025 C   0  0  0  0  0  0  0  0  0  0  0  0
   -1.9129   -4.4269    0.5016 C   0  0  0  0  0  0  0  0  0  0  0  0
   -1.6679   -3.0476    0.5341 C   0  0  0  0  0  0  0  0  0  0  0  0
   -1.3181   -6.9671   -0.1821 Cl  0  0  0  0  0  0  0  0  0  0  0  0
    5.5473   -1.1233   -1.0771 H   0  0  0  0  0  0  0  0  0  0  0  0
    3.6553   -4.1312    1.3251 H   0  0  0  0  0  0  0  0  0  0  0  0
    1.6190   -2.7850    1.4430 H   0  0  0  0  0  0  0  0  0  0  0  0
    1.1371    3.1023    0.0857 H   0  0  0  0  0  0  0  0  0  0  0  0
   -1.5571    5.3374   -1.3665 H   0  0  0  0  0  0  0  0  0  0  0  0
   -0.0603    4.7375   -2.0557 H   0  0  0  0  0  0  0  0  0  0  0  0
   -0.0120    6.9587   -2.6585 H   0  0  0  0  0  0  0  0  0  0  0  0
    1.1342    6.8495   -1.3392 H   0  0  0  0  0  0  0  0  0  0  0  0
   -1.6922    8.0024   -1.2732 H   0  0  0  0  0  0  0  0  0  0  0  0
   -0.1800    8.8831   -1.1723 H   0  0  0  0  0  0  0  0  0  0  0  0
   -1.1688    8.7789    1.0045 H   0  0  0  0  0  0  0  0  0  0  0  0
    0.3147    7.8349    1.0460 H   0  0  0  0  0  0  0  0  0  0  0  0
   -2.4236    6.5554    0.5207 H   0  0  0  0  0  0  0  0  0  0  0  0
   -1.8746    6.9079    2.1444 H   0  0  0  0  0  0  0  0  0  0  0  0
   -0.0415    5.4172    2.0430 H   0  0  0  0  0  0  0  0  0  0  0  0
   -1.4933    4.6043    1.5206 H   0  0  0  0  0  0  0  0  0  0  0  0
   -4.5681    0.3676   -1.6620 H   0  0  0  0  0  0  0  0  0  0  0  0
   -2.9936    0.0891   -2.4279 H   0  0  0  0  0  0  0  0  0  0  0  0
   -3.3473    1.6293   -1.6081 H   0  0  0  0  0  0  0  0  0  0  0  0
    1.0470   -2.9729   -1.5305 H   0  0  0  0  0  0  0  0  0  0  0  0
    0.6930   -5.3907   -1.4480 H   0  0  0  0  0  0  0  0  0  0  0  0
   -2.7586   -4.8353    1.0507 H   0  0  0  0  0  0  0  0  0  0  0  0
   -2.3136   -2.4537    1.1738 H   0  0  0  0  0  0  0  0  0  0  0  0
  1  5  1  0  0  0  0
  1  2  1  0  0  0  0
  1 26  1  0  0  0  0
  2  3  2  0  0  0  0
  2 24  1  0  0  0  0
  3  4  1  0  0  0  0
  3 14  1  0  0  0  0
  4  5  2  0  0  0  0
  5  6  1  0  0  0  0
  6 11  2  0  0  0  0
  6  7  1  0  0  0  0
  7  8  2  0  0  0  0
  7 13  1  0  0  0  0
  8  9  1  0  0  0  0
  8 33  1  0  0  0  0
  9 10  2  0  0  0  0
  9 12  1  0  0  0  0
 10 11  1  0  0  0  0
 10 34  1  0  0  0  0
 11 35  1  0  0  0  0
 14 15  2  0  0  0  0
 14 16  1  0  0  0  0
 16 17  1  0  0  0  0
 16 36  1  0  0  0  0
 17 23  1  0  0  0  0
 17 18  1  0  0  0  0
 18 19  1  0  0  0  0
 18 37  1  0  0  0  0
 18 38  1  0  0  0  0
 19 20  1  0  0  0  0
 19 39  1  0  0  0  0
 19 40  1  0  0  0  0
 20 21  1  0  0  0  0
 20 41  1  0  0  0  0
 20 42  1  0  0  0  0
 21 22  1  0  0  0  0
 21 43  1  0  0  0  0
 21 44  1  0  0  0  0
 22 23  1  0  0  0  0
 22 45  1  0  0  0  0
 22 46  1  0  0  0  0
 23 47  1  0  0  0  0
 23 48  1  0  0  0  0
 24 25  1  0  0  0  0
 25 49  1  0  0  0  0
 25 50  1  0  0  0  0
 25 51  1  0  0  0  0
 26 31  2  0  0  0  0
 26 27  1  0  0  0  0
 27 28  2  0  0  0  0
 27 52  1  0  0  0  0
 28 29  1  0  0  0  0
 28 53  1  0  0  0  0
 29 30  2  0  0  0  0
 29 32  1  0  0  0  0
 30 31  1  0  0  0  0
 30 54  1  0  0  0  0
 31 55  1  0  0  0  0
M  END
$$$$
CHEMBL3913457
 OpenBabel12022417383D

 59 63  0  0  1  0  0  0  0  0999 V2000
    1.2694    0.7169   -0.1532 C   0  0  2  0  0  0  0  0  0  0  0  0
    0.7867   -0.0058   -1.4054 C   0  0  0  0  0  0  0  0  0  0  0  0
   -0.4390   -0.6776   -1.3821 C   0  0  0  0  0  0  0  0  0  0  0  0
   -0.8798   -1.3290   -2.5308 C   0  0  0  0  0  0  0  0  0  0  0  0
   -0.0934   -1.2888   -3.6744 C   0  0  0  0  0  0  0  0  0  0  0  0
    1.1004   -0.5892   -3.6234 C   0  0  0  0  0  0  0  0  0  0  0  0
    1.5564    0.0545   -2.5239 N   0  0  0  0  0  0  0  0  0  0  0  0
    0.6690    2.1223   -0.0877 C   0  0  0  0  0  0  0  0  0  0  0  0
    2.7250    0.7613   -0.0580 N   0  0  0  0  0  0  0  0  0  0  0  0
    3.3694    0.7647    1.1599 C   0  0  0  0  0  0  0  0  0  0  0  0
    2.7549    0.7171    2.2221 O   0  0  0  0  0  0  0  0  0  0  0  0
    4.8473    0.7968    1.1152 C   0  0  0  0  0  0  0  0  0  0  0  0
    5.7118    0.6845    2.2284 C   0  0  0  0  0  0  0  0  0  0  0  0
    5.4031    0.4837    3.6776 C   0  0  0  0  0  0  0  0  0  0  0  0
    6.6528    0.6583    4.5648 C   0  0  0  0  0  0  0  0  0  0  0  0
    7.9187    0.0225    3.9508 C   0  0  0  0  0  0  0  0  0  0  0  0
    8.1618    0.6500    2.5674 C   0  0  0  0  0  0  0  0  0  0  0  0
    9.3316    1.2208    2.2131 C   0  0  0  0  0  0  0  0  0  0  0  0
   10.5280    1.0585    2.9668 C   0  0  0  0  0  0  0  0  0  0  0  0
   11.0285    1.8101    4.0172 C   0  0  0  0  0  0  0  0  0  0  0  0
   12.2882    1.3271    4.4900 C   0  0  0  0  0  0  0  0  0  0  0  0
   12.6986    0.2354    3.7727 C   0  0  0  0  0  0  0  0  0  0  0  0
   11.6158   -0.2184    2.5588 S   0  0  0  0  0  0  0  0  0  0  0  0
   14.1500   -0.6546    3.9984 Cl  0  0  0  0  0  0  0  0  0  0  0  0
    6.9982    0.7378    1.7245 C   0  0  0  0  0  0  0  0  0  0  0  0
    6.8742    0.8088    0.3391 N   0  0  0  0  0  0  0  0  0  0  0  0
    7.8583    0.6202   -0.6800 C   0  0  0  0  0  0  0  0  0  0  0  0
    8.9057   -0.2972   -0.4705 C   0  0  0  0  0  0  0  0  0  0  0  0
    9.8716   -0.5284   -1.4564 C   0  0  0  0  0  0  0  0  0  0  0  0
    9.7907    0.1184   -2.6930 C   0  0  0  0  0  0  0  0  0  0  0  0
    8.7463    1.0318   -2.9048 C   0  0  0  0  0  0  0  0  0  0  0  0
    7.7871    1.2899   -1.9120 C   0  0  0  0  0  0  0  0  0  0  0  0
    6.6546    2.5476   -2.2772 Cl  0  0  0  0  0  0  0  0  0  0  0  0
   10.7773   -0.1675   -3.7992 C   0  0  0  0  0  0  0  0  0  0  0  0
   11.7508   -1.0517   -3.4460 F   0  0  0  0  0  0  0  0  0  0  0  0
   10.1751   -0.6960   -4.9000 F   0  0  0  0  0  0  0  0  0  0  0  0
   11.4241    0.9513   -4.2259 F   0  0  0  0  0  0  0  0  0  0  0  0
    5.5563    0.9166   -0.0226 N   0  0  0  0  0  0  0  0  0  0  0  0
    0.9071    0.1505    0.7143 H   0  0  0  0  0  0  0  0  0  0  0  0
   -1.0467   -0.6973   -0.4821 H   0  0  0  0  0  0  0  0  0  0  0  0
   -1.8259   -1.8628   -2.5310 H   0  0  0  0  0  0  0  0  0  0  0  0
   -0.4053   -1.7906   -4.5841 H   0  0  0  0  0  0  0  0  0  0  0  0
    1.7449   -0.5259   -4.4958 H   0  0  0  0  0  0  0  0  0  0  0  0
    0.9852    2.7353   -0.9393 H   0  0  0  0  0  0  0  0  0  0  0  0
    0.9775    2.6390    0.8273 H   0  0  0  0  0  0  0  0  0  0  0  0
   -0.4269    2.0848   -0.0945 H   0  0  0  0  0  0  0  0  0  0  0  0
    3.2732    0.8053   -0.9131 H   0  0  0  0  0  0  0  0  0  0  0  0
    5.0072   -0.5301    3.8127 H   0  0  0  0  0  0  0  0  0  0  0  0
    4.6310    1.1873    4.0078 H   0  0  0  0  0  0  0  0  0  0  0  0
    6.4600    0.2351    5.5568 H   0  0  0  0  0  0  0  0  0  0  0  0
    6.8352    1.7323    4.7109 H   0  0  0  0  0  0  0  0  0  0  0  0
    7.7753   -1.0589    3.8362 H   0  0  0  0  0  0  0  0  0  0  0  0
    8.7515    0.1677    4.6440 H   0  0  0  0  0  0  0  0  0  0  0  0
    9.4380    1.7784    1.2873 H   0  0  0  0  0  0  0  0  0  0  0  0
   10.5123    2.6678    4.4325 H   0  0  0  0  0  0  0  0  0  0  0  0
   12.8536    1.7632    5.3039 H   0  0  0  0  0  0  0  0  0  0  0  0
    8.9763   -0.8775    0.4475 H   0  0  0  0  0  0  0  0  0  0  0  0
   10.6769   -1.2359   -1.2560 H   0  0  0  0  0  0  0  0  0  0  0  0
    8.6851    1.5559   -3.8592 H   0  0  0  0  0  0  0  0  0  0  0  0
  1  9  1  0  0  0  0
  1  8  1  0  0  0  0
  1  2  1  0  0  0  0
  1 39  1  1  0  0  0
  2  7  2  0  0  0  0
  2  3  1  0  0  0  0
  3  4  2  0  0  0  0
  3 40  1  0  0  0  0
  4  5  1  0  0  0  0
  4 41  1  0  0  0  0
  5  6  2  0  0  0  0
  5 42  1  0  0  0  0
  6  7  1  0  0  0  0
  6 43  1  0  0  0  0
  8 44  1  0  0  0  0
  8 45  1  0  0  0  0
  8 46  1  0  0  0  0
  9 10  1  0  0  0  0
  9 47  1  0  0  0  0
 10 11  2  0  0  0  0
 10 12  1  0  0  0  0
 12 38  2  0  0  0  0
 12 13  1  0  0  0  0
 13 25  2  0  0  0  0
 13 14  1  0  0  0  0
 14 15  1  0  0  0  0
 14 48  1  0  0  0  0
 14 49  1  0  0  0  0
 15 16  1  0  0  0  0
 15 50  1  0  0  0  0
 15 51  1  0  0  0  0
 16 17  1  0  0  0  0
 16 52  1  0  0  0  0
 16 53  1  0  0  0  0
 17 18  2  0  0  0  0
 17 25  1  0  0  0  0
 18 19  1  0  0  0  0
 18 54  1  0  0  0  0
 19 23  1  0  0  0  0
 19 20  2  0  0  0  0
 20 21  1  0  0  0  0
 20 55  1  0  0  0  0
 21 22  2  0  0  0  0
 21 56  1  0  0  0  0
 22 23  1  0  0  0  0
 22 24  1  0  0  0  0
 25 26  1  0  0  0  0
 26 27  1  0  0  0  0
 26 38  1  0  0  0  0
 27 32  2  0  0  0  0
 27 28  1  0  0  0  0
 28 29  2  0  0  0  0
 28 57  1  0  0  0  0
 29 30  1  0  0  0  0
 29 58  1  0  0  0  0
 30 31  2  0  0  0  0
 30 34  1  0  0  0  0
 31 32  1  0  0  0  0
 31 59  1  0  0  0  0
 32 33  1  0  0  0  0
 34 35  1  0  0  0  0
 34 36  1  0  0  0  0
 34 37  1  0  0  0  0
M  END
$$$$
CHEMBL428693
 OpenBabel12022417383D

 45 48  0  0  0  0  0  0  0  0999 V2000
    1.1902    0.2990    0.0437 C   0  0  0  0  0  0  0  0  0  0  0  0
    2.6579    0.0411   -0.0281 C   0  0  0  0  0  0  0  0  0  0  0  0
    3.6562    1.0640   -0.0670 C   0  0  0  0  0  0  0  0  0  0  0  0
    3.4310    2.5299   -0.0810 C   0  0  0  0  0  0  0  0  0  0  0  0
    2.2945    2.9905   -0.0280 O   0  0  0  0  0  0  0  0  0  0  0  0
    4.5923    3.2822   -0.1974 N   0  0  0  0  0  0  0  0  0  0  0  0
    4.6782    4.6944   -0.2385 C   0  0  0  0  0  0  0  0  0  0  0  0
    5.8869    5.2806   -0.6103 C   0  0  0  0  0  0  0  0  0  0  0  0
    5.9560    6.6696   -0.6822 C   0  0  0  0  0  0  0  0  0  0  0  0
    4.9296    7.4919   -0.3972 N   0  0  0  0  0  0  0  0  0  0  0  0
    3.7781    6.9073   -0.0213 C   0  0  0  0  0  0  0  0  0  0  0  0
    3.6088    5.5318    0.0711 C   0  0  0  0  0  0  0  0  0  0  0  0
    4.8873    0.5370   -0.0909 N   0  0  0  0  0  0  0  0  0  0  0  0
    4.7047   -0.8094   -0.0932 N   0  0  0  0  0  0  0  0  0  0  0  0
    5.8449   -1.6391   -0.2867 C   0  0  0  0  0  0  0  0  0  0  0  0
    5.7786   -2.6816   -1.2281 C   0  0  0  0  0  0  0  0  0  0  0  0
    6.8926   -3.4903   -1.4609 C   0  0  0  0  0  0  0  0  0  0  0  0
    8.0768   -3.2534   -0.7685 C   0  0  0  0  0  0  0  0  0  0  0  0
    8.1530   -2.2309    0.1741 C   0  0  0  0  0  0  0  0  0  0  0  0
    7.0388   -1.4207    0.4223 C   0  0  0  0  0  0  0  0  0  0  0  0
    7.1910   -0.2904    1.7253 Cl  0  0  0  0  0  0  0  0  0  0  0  0
    9.4543   -4.2362   -1.0755 Cl  0  0  0  0  0  0  0  0  0  0  0  0
    3.3508   -1.1715   -0.0471 C   0  0  0  0  0  0  0  0  0  0  0  0
    2.8316   -2.5583    0.0551 C   0  0  0  0  0  0  0  0  0  0  0  0
    3.4969   -3.5417    0.8078 C   0  0  0  0  0  0  0  0  0  0  0  0
    3.0269   -4.8599    0.8629 C   0  0  0  0  0  0  0  0  0  0  0  0
    1.8383   -5.1976    0.2268 C   0  0  0  0  0  0  0  0  0  0  0  0
    1.1347   -4.2354   -0.4876 C   0  0  0  0  0  0  0  0  0  0  0  0
    1.6448   -2.9349   -0.5958 C   0  0  0  0  0  0  0  0  0  0  0  0
    1.2402   -6.8067    0.3233 Cl  0  0  0  0  0  0  0  0  0  0  0  0
    0.5993   -0.6054    0.1946 H   0  0  0  0  0  0  0  0  0  0  0  0
    0.8475    0.7745   -0.8817 H   0  0  0  0  0  0  0  0  0  0  0  0
    0.9578    0.9619    0.8832 H   0  0  0  0  0  0  0  0  0  0  0  0
    5.4392    2.7321   -0.3186 H   0  0  0  0  0  0  0  0  0  0  0  0
    6.7595    4.6920   -0.8659 H   0  0  0  0  0  0  0  0  0  0  0  0
    6.8711    7.1694   -0.9921 H   0  0  0  0  0  0  0  0  0  0  0  0
    2.9616    7.5844    0.2189 H   0  0  0  0  0  0  0  0  0  0  0  0
    2.6473    5.1622    0.4030 H   0  0  0  0  0  0  0  0  0  0  0  0
    4.8772   -2.8639   -1.8104 H   0  0  0  0  0  0  0  0  0  0  0  0
    6.8317   -4.2951   -2.1899 H   0  0  0  0  0  0  0  0  0  0  0  0
    9.0755   -2.0755    0.7288 H   0  0  0  0  0  0  0  0  0  0  0  0
    4.4062   -3.3096    1.3578 H   0  0  0  0  0  0  0  0  0  0  0  0
    3.5916   -5.6110    1.4092 H   0  0  0  0  0  0  0  0  0  0  0  0
    0.1932   -4.4876   -0.9695 H   0  0  0  0  0  0  0  0  0  0  0  0
    1.0898   -2.2227   -1.2011 H   0  0  0  0  0  0  0  0  0  0  0  0
  1  2  1  0  0  0  0
  1 31  1  0  0  0  0
  1 32  1  0  0  0  0
  1 33  1  0  0  0  0
  2 23  2  0  0  0  0
  2  3  1  0  0  0  0
  3  4  1  0  0  0  0
  3 13  2  0  0  0  0
  4  5  2  0  0  0  0
  4  6  1  0  0  0  0
  6  7  1  0  0  0  0
  6 34  1  0  0  0  0
  7 12  2  0  0  0  0
  7  8  1  0  0  0  0
  8  9  2  0  0  0  0
  8 35  1  0  0  0  0
  9 10  1  0  0  0  0
  9 36  1  0  0  0  0
 10 11  2  0  0  0  0
 11 12  1  0  0  0  0
 11 37  1  0  0  0  0
 12 38  1  0  0  0  0
 13 14  1  0  0  0  0
 14 15  1  0  0  0  0
 14 23  1  0  0  0  0
 15 20  2  0  0  0  0
 15 16  1  0  0  0  0
 16 17  2  0  0  0  0
 16 39  1  0  0  0  0
 17 18  1  0  0  0  0
 17 40  1  0  0  0  0
 18 19  2  0  0  0  0
 18 22  1  0  0  0  0
 19 20  1  0  0  0  0
 19 41  1  0  0  0  0
 20 21  1  0  0  0  0
 23 24  1  0  0  0  0
 24 29  2  0  0  0  0
 24 25  1  0  0  0  0
 25 26  2  0  0  0  0
 25 42  1  0  0  0  0
 26 27  1  0  0  0  0
 26 43  1  0  0  0  0
 27 28  2  0  0  0  0
 27 30  1  0  0  0  0
 28 29  1  0  0  0  0
 28 44  1  0  0  0  0
 29 45  1  0  0  0  0
M  END
$$$$
CHEMBL574480
 OpenBabel12022417383D

 56 59  0  0  1  0  0  0  0  0999 V2000
    2.3342    2.1463    0.5562 C   0  0  0  0  0  0  0  0  0  0  0  0
    2.9357    1.7285   -0.7427 C   0  0  0  0  0  0  0  0  0  0  0  0
    3.2447    2.5748   -1.8699 C   0  0  0  0  0  0  0  0  0  0  0  0
    3.0448    4.0590   -1.9863 C   0  0  0  0  0  0  0  0  0  0  0  0
    2.4287    4.7040   -1.1467 O   0  0  0  0  0  0  0  0  0  0  0  0
    3.6102    4.6363   -3.1219 N   0  0  0  0  0  0  0  0  0  0  0  0
    3.4778    6.0589   -3.5165 C   0  0  2  0  0  0  0  0  0  0  0  0
    3.3267    6.1280   -5.0439 C   0  0  0  0  0  0  0  0  0  0  0  0
    4.6725    6.9517   -3.0312 C   0  0  0  0  0  0  0  0  0  0  0  0
    4.5695    8.4342   -3.4902 C   0  0  0  0  0  0  0  0  0  0  0  0
    5.6876    9.3226   -2.9294 C   0  0  0  0  0  0  0  0  0  0  0  0
    5.8077    9.2135   -1.4159 C   0  0  0  0  0  0  0  0  0  0  0  0
    5.9596    7.7614   -0.9898 C   0  0  0  0  0  0  0  0  0  0  0  0
    4.8027    6.9079   -1.4993 C   0  0  0  0  0  0  0  0  0  0  0  0
    3.7149    1.8377   -2.8984 N   0  0  0  0  0  0  0  0  0  0  0  0
    3.7687    0.5468   -2.4419 N   0  0  0  0  0  0  0  0  0  0  0  0
    4.4964   -0.4304   -3.2021 C   0  0  0  0  0  0  0  0  0  0  0  0
    4.7675   -0.1951   -4.5575 C   0  0  0  0  0  0  0  0  0  0  0  0
    5.5130   -1.1211   -5.3021 C   0  0  0  0  0  0  0  0  0  0  0  0
    5.9918   -2.2912   -4.7061 C   0  0  0  0  0  0  0  0  0  0  0  0
    5.7266   -2.5342   -3.3595 C   0  0  0  0  0  0  0  0  0  0  0  0
    5.0039   -1.5983   -2.6099 C   0  0  0  0  0  0  0  0  0  0  0  0
    6.2617   -3.9643   -2.5459 Cl  0  0  0  0  0  0  0  0  0  0  0  0
    6.9230   -3.3759   -5.6751 Cl  0  0  0  0  0  0  0  0  0  0  0  0
    3.1987    0.4413   -1.1866 C   0  0  0  0  0  0  0  0  0  0  0  0
    2.8963   -0.7522   -0.5262 N   0  0  0  0  0  0  0  0  0  0  0  0
    2.2648   -1.8613   -1.0609 C   0  0  0  0  0  0  0  0  0  0  0  0
    2.1164   -2.8197   -0.0764 C   0  0  0  0  0  0  0  0  0  0  0  0
    2.7029   -2.3062    1.0987 C   0  0  0  0  0  0  0  0  0  0  0  0
    3.1822   -1.0518    0.7937 C   0  0  0  0  0  0  0  0  0  0  0  0
    2.2246    1.3126    1.2559 H   0  0  0  0  0  0  0  0  0  0  0  0
    1.3305    2.5536    0.4050 H   0  0  0  0  0  0  0  0  0  0  0  0
    2.9593    2.8933    1.0522 H   0  0  0  0  0  0  0  0  0  0  0  0
    4.1250    3.9947   -3.7166 H   0  0  0  0  0  0  0  0  0  0  0  0
    2.5527    6.4410   -3.0677 H   0  0  0  0  0  0  0  0  0  0  0  0
    4.2388    5.7816   -5.5443 H   0  0  0  0  0  0  0  0  0  0  0  0
    3.1132    7.1438   -5.3900 H   0  0  0  0  0  0  0  0  0  0  0  0
    2.5019    5.4941   -5.3861 H   0  0  0  0  0  0  0  0  0  0  0  0
    5.5964    6.5409   -3.4617 H   0  0  0  0  0  0  0  0  0  0  0  0
    3.6009    8.8513   -3.1845 H   0  0  0  0  0  0  0  0  0  0  0  0
    4.6159    8.5073   -4.5827 H   0  0  0  0  0  0  0  0  0  0  0  0
    5.5059   10.3694   -3.2043 H   0  0  0  0  0  0  0  0  0  0  0  0
    6.6429    9.0408   -3.3899 H   0  0  0  0  0  0  0  0  0  0  0  0
    4.9184    9.6476   -0.9426 H   0  0  0  0  0  0  0  0  0  0  0  0
    6.6696    9.7933   -1.0665 H   0  0  0  0  0  0  0  0  0  0  0  0
    6.0071    7.7004    0.1026 H   0  0  0  0  0  0  0  0  0  0  0  0
    6.9055    7.3616   -1.3763 H   0  0  0  0  0  0  0  0  0  0  0  0
    4.9682    5.8805   -1.1631 H   0  0  0  0  0  0  0  0  0  0  0  0
    3.8671    7.2563   -1.0426 H   0  0  0  0  0  0  0  0  0  0  0  0
    4.4022    0.7009   -5.0560 H   0  0  0  0  0  0  0  0  0  0  0  0
    5.7158   -0.9225   -6.3522 H   0  0  0  0  0  0  0  0  0  0  0  0
    4.8924   -1.8015   -1.5501 H   0  0  0  0  0  0  0  0  0  0  0  0
    1.9394   -1.8719   -2.0920 H   0  0  0  0  0  0  0  0  0  0  0  0
    1.6462   -3.7852   -0.2012 H   0  0  0  0  0  0  0  0  0  0  0  0
    2.7864   -2.8027    2.0587 H   0  0  0  0  0  0  0  0  0  0  0  0
    3.7491   -0.3591    1.4000 H   0  0  0  0  0  0  0  0  0  0  0  0
  1  2  1  0  0  0  0
  1 31  1  0  0  0  0
  1 32  1  0  0  0  0
  1 33  1  0  0  0  0
  2 25  2  0  0  0  0
  2  3  1  0  0  0  0
  3  4  1  0  0  0  0
  3 15  2  0  0  0  0
  4  5  2  0  0  0  0
  4  6  1  0  0  0  0
  6 34  1  0  0  0  0
  7  9  1  0  0  0  0
  7  8  1  0  0  0  0
  7  6  1  0  0  0  0
  7 35  1  1  0  0  0
  8 36  1  0  0  0  0
  8 37  1  0  0  0  0
  8 38  1  0  0  0  0
  9 14  1  0  0  0  0
  9 10  1  0  0  0  0
  9 39  1  0  0  0  0
 10 11  1  0  0  0  0
 10 40  1  0  0  0  0
 10 41  1  0  0  0  0
 11 12  1  0  0  0  0
 11 42  1  0  0  0  0
 11 43  1  0  0  0  0
 12 13  1  0  0  0  0
 12 44  1  0  0  0  0
 12 45  1  0  0  0  0
 13 14  1  0  0  0  0
 13 46  1  0  0  0  0
 13 47  1  0  0  0  0
 14 48  1  0  0  0  0
 14 49  1  0  0  0  0
 15 16  1  0  0  0  0
 16 17  1  0  0  0  0
 16 25  1  0  0  0  0
 17 22  2  0  0  0  0
 17 18  1  0  0  0  0
 18 19  2  0  0  0  0
 18 50  1  0  0  0  0
 19 20  1  0  0  0  0
 19 51  1  0  0  0  0
 20 21  2  0  0  0  0
 20 24  1  0  0  0  0
 21 22  1  0  0  0  0
 21 23  1  0  0  0  0
 22 52  1  0  0  0  0
 25 26  1  0  0  0  0
 26 30  1  0  0  0  0
 26 27  1  0  0  0  0
 27 28  2  0  0  0  0
 27 53  1  0  0  0  0
 28 29  1  0  0  0  0
 28 54  1  0  0  0  0
 29 30  2  0  0  0  0
 29 55  1  0  0  0  0
 30 56  1  0  0  0  0
M  END
$$$$
CHEMBL36250
 OpenBabel12022417383D

 51 54  0  0  0  0  0  0  0  0999 V2000
    1.2172    0.4884    0.0207 C   0  0  0  0  0  0  0  0  0  0  0  0
    2.6812    0.2148   -0.0425 C   0  0  0  0  0  0  0  0  0  0  0  0
    3.7075    1.2154   -0.0375 C   0  0  0  0  0  0  0  0  0  0  0  0
    3.5349    2.6938   -0.0478 C   0  0  0  0  0  0  0  0  0  0  0  0
    2.4234    3.2215   -0.1147 O   0  0  0  0  0  0  0  0  0  0  0  0
    4.7282    3.4068    0.0249 N   0  0  0  0  0  0  0  0  0  0  0  0
    4.8566    4.8300    0.0588 N   0  0  0  0  0  0  0  0  0  0  0  0
    4.5605    5.4787   -1.2278 C   0  0  0  0  0  0  0  0  0  0  0  0
    4.9368    6.9677   -1.1926 C   0  0  0  0  0  0  0  0  0  0  0  0
    4.2559    7.6968   -0.0390 C   0  0  0  0  0  0  0  0  0  0  0  0
    4.5010    6.9609    1.2743 C   0  0  0  0  0  0  0  0  0  0  0  0
    4.1357    5.4737    1.1682 C   0  0  0  0  0  0  0  0  0  0  0  0
    4.9263    0.6496    0.0085 N   0  0  0  0  0  0  0  0  0  0  0  0
    4.7065   -0.6871   -0.1311 N   0  0  0  0  0  0  0  0  0  0  0  0
    5.8258   -1.5701   -0.2358 C   0  0  0  0  0  0  0  0  0  0  0  0
    5.7308   -2.7720   -0.9536 C   0  0  0  0  0  0  0  0  0  0  0  0
    6.7104   -3.7564   -0.8076 C   0  0  0  0  0  0  0  0  0  0  0  0
    7.8152   -3.5151    0.0040 C   0  0  0  0  0  0  0  0  0  0  0  0
    7.9751   -2.2776    0.6281 C   0  0  0  0  0  0  0  0  0  0  0  0
    6.9882   -1.2938    0.4980 C   0  0  0  0  0  0  0  0  0  0  0  0
    8.9693   -4.7644    0.2613 Cl  0  0  0  0  0  0  0  0  0  0  0  0
    3.3425   -1.0160   -0.0615 C   0  0  0  0  0  0  0  0  0  0  0  0
    2.7896   -2.3932    0.0475 C   0  0  0  0  0  0  0  0  0  0  0  0
    3.4173   -3.3821    0.8286 C   0  0  0  0  0  0  0  0  0  0  0  0
    2.9802   -4.7125    0.8145 C   0  0  0  0  0  0  0  0  0  0  0  0
    1.8314   -5.0518    0.1125 C   0  0  0  0  0  0  0  0  0  0  0  0
    1.1355   -4.0757   -0.5924 C   0  0  0  0  0  0  0  0  0  0  0  0
    1.6305   -2.7651   -0.6500 C   0  0  0  0  0  0  0  0  0  0  0  0
    1.2752   -6.6786    0.1107 Cl  0  0  0  0  0  0  0  0  0  0  0  0
    0.6262   -0.4129    0.1954 H   0  0  0  0  0  0  0  0  0  0  0  0
    0.8742    0.9412   -0.9155 H   0  0  0  0  0  0  0  0  0  0  0  0
    0.9886    1.1698    0.8458 H   0  0  0  0  0  0  0  0  0  0  0  0
    5.5809    2.8434    0.0725 H   0  0  0  0  0  0  0  0  0  0  0  0
    3.4998    5.3767   -1.4880 H   0  0  0  0  0  0  0  0  0  0  0  0
    5.1419    5.0031   -2.0264 H   0  0  0  0  0  0  0  0  0  0  0  0
    4.6632    7.4463   -2.1404 H   0  0  0  0  0  0  0  0  0  0  0  0
    6.0250    7.0711   -1.0899 H   0  0  0  0  0  0  0  0  0  0  0  0
    3.1779    7.7642   -0.2299 H   0  0  0  0  0  0  0  0  0  0  0  0
    4.6315    8.7250    0.0309 H   0  0  0  0  0  0  0  0  0  0  0  0
    3.9153    7.4322    2.0723 H   0  0  0  0  0  0  0  0  0  0  0  0
    5.5575    7.0630    1.5537 H   0  0  0  0  0  0  0  0  0  0  0  0
    4.4018    4.9888    2.1141 H   0  0  0  0  0  0  0  0  0  0  0  0
    3.0501    5.3846    1.0450 H   0  0  0  0  0  0  0  0  0  0  0  0
    4.8750   -2.9836   -1.5910 H   0  0  0  0  0  0  0  0  0  0  0  0
    6.5831   -4.7178   -1.2990 H   0  0  0  0  0  0  0  0  0  0  0  0
    8.8456   -2.0895    1.2517 H   0  0  0  0  0  0  0  0  0  0  0  0
    7.0990   -0.3586    1.0445 H   0  0  0  0  0  0  0  0  0  0  0  0
    4.3003   -3.1510    1.4217 H   0  0  0  0  0  0  0  0  0  0  0  0
    3.5478   -5.4724    1.3463 H   0  0  0  0  0  0  0  0  0  0  0  0
    0.2177   -4.3288   -1.1168 H   0  0  0  0  0  0  0  0  0  0  0  0
    1.0933   -2.0449   -1.2617 H   0  0  0  0  0  0  0  0  0  0  0  0
  1  2  1  0  0  0  0
  1 30  1  0  0  0  0
  1 31  1  0  0  0  0
  1 32  1  0  0  0  0
  2 22  2  0  0  0  0
  2  3  1  0  0  0  0
  3  4  1  0  0  0  0
  3 13  2  0  0  0  0
  4  5  2  0  0  0  0
  4  6  1  0  0  0  0
  6  7  1  0  0  0  0
  6 33  1  0  0  0  0
  7 12  1  0  0  0  0
  7  8  1  0  0  0  0
  8  9  1  0  0  0  0
  8 34  1  0  0  0  0
  8 35  1  0  0  0  0
  9 10  1  0  0  0  0
  9 36  1  0  0  0  0
  9 37  1  0  0  0  0
 10 11  1  0  0  0  0
 10 38  1  0  0  0  0
 10 39  1  0  0  0  0
 11 12  1  0  0  0  0
 11 40  1  0  0  0  0
 11 41  1  0  0  0  0
 12 42  1  0  0  0  0
 12 43  1  0  0  0  0
 13 14  1  0  0  0  0
 14 15  1  0  0  0  0
 14 22  1  0  0  0  0
 15 20  2  0  0  0  0
 15 16  1  0  0  0  0
 16 17  2  0  0  0  0
 16 44  1  0  0  0  0
 17 18  1  0  0  0  0
 17 45  1  0  0  0  0
 18 19  2  0  0  0  0
 18 21  1  0  0  0  0
 19 20  1  0  0  0  0
 19 46  1  0  0  0  0
 20 47  1  0  0  0  0
 22 23  1  0  0  0  0
 23 28  2  0  0  0  0
 23 24  1  0  0  0  0
 24 25  2  0  0  0  0
 24 48  1  0  0  0  0
 25 26  1  0  0  0  0
 25 49  1  0  0  0  0
 26 27  2  0  0  0  0
 26 29  1  0  0  0  0
 27 28  1  0  0  0  0
 27 50  1  0  0  0  0
 28 51  1  0  0  0  0
M  END
$$$$
CHEMBL1631301
 OpenBabel12022417383D

 58 60  0  0  0  0  0  0  0  0999 V2000
    0.2511   -1.8889   -0.6600 C   0  0  0  0  0  0  0  0  0  0  0  0
   -0.9672   -1.2254   -0.6140 C   0  0  0  0  0  0  0  0  0  0  0  0
   -1.0591    0.0184   -0.0023 C   0  0  0  0  0  0  0  0  0  0  0  0
    0.0722    0.6203    0.5521 C   0  0  0  0  0  0  0  0  0  0  0  0
    1.2885   -0.0395    0.5007 C   0  0  0  0  0  0  0  0  0  0  0  0
    1.3973   -1.3088   -0.0985 C   0  0  0  0  0  0  0  0  0  0  0  0
    2.6596   -1.9536   -0.1261 N   0  0  0  0  0  0  0  0  0  0  0  0
    3.1519   -2.9616   -0.9529 C   0  0  0  0  0  0  0  0  0  0  0  0
    4.3846   -3.3346   -0.4382 C   0  0  0  0  0  0  0  0  0  0  0  0
    4.5420   -2.5337    0.7372 C   0  0  0  0  0  0  0  0  0  0  0  0
    5.6912   -2.6084    1.6804 C   0  0  0  0  0  0  0  0  0  0  0  0
    6.6175   -3.3788    1.4966 O   0  0  0  0  0  0  0  0  0  0  0  0
    5.6163   -1.7787    2.7844 N   0  0  0  0  0  0  0  0  0  0  0  0
    6.6999   -1.7997    3.7476 C   0  0  0  0  0  0  0  0  0  0  0  0
    6.2767   -1.4458    5.1809 C   0  0  0  0  0  0  0  0  0  0  0  0
    7.4374   -1.5070    6.2257 C   0  0  0  0  0  0  0  0  0  0  0  0
    8.5574   -0.5106    5.8757 C   0  0  0  0  0  0  0  0  0  0  0  0
    6.9132   -1.1789    7.6393 C   0  0  0  0  0  0  0  0  0  0  0  0
    8.0381   -2.9229    6.2593 C   0  0  0  0  0  0  0  0  0  0  0  0
    3.5383   -1.6851    0.8851 N   0  0  0  0  0  0  0  0  0  0  0  0
    5.4218   -4.2583   -0.9619 C   0  0  0  0  0  0  0  0  0  0  0  0
    2.5594   -3.4176   -2.1439 N   0  0  0  0  0  0  0  0  0  0  0  0
    1.8868   -2.6449   -3.1040 C   0  0  0  0  0  0  0  0  0  0  0  0
    1.4262   -3.4656   -4.1011 C   0  0  0  0  0  0  0  0  0  0  0  0
    1.8767   -4.7610   -3.8267 C   0  0  0  0  0  0  0  0  0  0  0  0
    2.5676   -4.7299   -2.6449 C   0  0  0  0  0  0  0  0  0  0  0  0
    3.1840   -5.9171   -1.9819 C   0  0  0  0  0  0  0  0  0  0  0  0
    1.7607   -1.1559   -3.0779 C   0  0  0  0  0  0  0  0  0  0  0  0
    2.3596    0.5932    1.0039 F   0  0  0  0  0  0  0  0  0  0  0  0
   -2.2310    0.6405    0.0723 F   0  0  0  0  0  0  0  0  0  0  0  0
    0.2824   -2.8576   -1.1541 H   0  0  0  0  0  0  0  0  0  0  0  0
   -1.8681   -1.6786   -1.0296 H   0  0  0  0  0  0  0  0  0  0  0  0
   -0.0009    1.5935    1.0251 H   0  0  0  0  0  0  0  0  0  0  0  0
    4.8584   -1.1090    2.8202 H   0  0  0  0  0  0  0  0  0  0  0  0
    7.4683   -1.1081    3.3857 H   0  0  0  0  0  0  0  0  0  0  0  0
    7.1294   -2.8046    3.7263 H   0  0  0  0  0  0  0  0  0  0  0  0
    5.4794   -2.1362    5.4907 H   0  0  0  0  0  0  0  0  0  0  0  0
    5.8322   -0.4439    5.1826 H   0  0  0  0  0  0  0  0  0  0  0  0
    8.2023    0.5253    5.8953 H   0  0  0  0  0  0  0  0  0  0  0  0
    8.9708   -0.7075    4.8819 H   0  0  0  0  0  0  0  0  0  0  0  0
    9.3891   -0.5869    6.5859 H   0  0  0  0  0  0  0  0  0  0  0  0
    6.5237   -0.1567    7.7056 H   0  0  0  0  0  0  0  0  0  0  0  0
    7.7124   -1.2698    8.3865 H   0  0  0  0  0  0  0  0  0  0  0  0
    6.1115   -1.8655    7.9351 H   0  0  0  0  0  0  0  0  0  0  0  0
    8.4592   -3.2023    5.2897 H   0  0  0  0  0  0  0  0  0  0  0  0
    7.2819   -3.6659    6.5265 H   0  0  0  0  0  0  0  0  0  0  0  0
    8.8518   -2.9917    6.9890 H   0  0  0  0  0  0  0  0  0  0  0  0
    5.1746   -4.6759   -1.9333 H   0  0  0  0  0  0  0  0  0  0  0  0
    5.5919   -5.0829   -0.2589 H   0  0  0  0  0  0  0  0  0  0  0  0
    6.3582   -3.7311   -1.1278 H   0  0  0  0  0  0  0  0  0  0  0  0
    0.8689   -3.1412   -4.9823 H   0  0  0  0  0  0  0  0  0  0  0  0
    1.7237   -5.6420   -4.4437 H   0  0  0  0  0  0  0  0  0  0  0  0
    3.6507   -5.7148   -1.0289 H   0  0  0  0  0  0  0  0  0  0  0  0
    3.9279   -6.3695   -2.6485 H   0  0  0  0  0  0  0  0  0  0  0  0
    2.4260   -6.6641   -1.7481 H   0  0  0  0  0  0  0  0  0  0  0  0
    2.3084   -0.6743   -2.2740 H   0  0  0  0  0  0  0  0  0  0  0  0
    0.7083   -0.8562   -3.0203 H   0  0  0  0  0  0  0  0  0  0  0  0
    2.1713   -0.7385   -3.9967 H   0  0  0  0  0  0  0  0  0  0  0  0
  1  6  2  0  0  0  0
  1  2  1  0  0  0  0
  1 31  1  0  0  0  0
  2  3  2  0  0  0  0
  2 32  1  0  0  0  0
  3  4  1  0  0  0  0
  3 30  1  0  0  0  0
  4  5  2  0  0  0  0
  4 33  1  0  0  0  0
  5  6  1  0  0  0  0
  5 29  1  0  0  0  0
  6  7  1  0  0  0  0
  7 20  1  0  0  0  0
  7  8  1  0  0  0  0
  8  9  2  0  0  0  0
  8 22  1  0  0  0  0
  9 10  1  0  0  0  0
  9 21  1  0  0  0  0
 10 11  1  0  0  0  0
 10 20  2  0  0  0  0
 11 12  2  0  0  0  0
 11 13  1  0  0  0  0
 13 14  1  0  0  0  0
 13 34  1  0  0  0  0
 14 15  1  0  0  0  0
 14 35  1  0  0  0  0
 14 36  1  0  0  0  0
 15 16  1  0  0  0  0
 15 37  1  0  0  0  0
 15 38  1  0  0  0  0
 16 17  1  0  0  0  0
 16 18  1  0  0  0  0
 16 19  1  0  0  0  0
 17 39  1  0  0  0  0
 17 40  1  0  0  0  0
 17 41  1  0  0  0  0
 18 42  1  0  0  0  0
 18 43  1  0  0  0  0
 18 44  1  0  0  0  0
 19 45  1  0  0  0  0
 19 46  1  0  0  0  0
 19 47  1  0  0  0  0
 21 48  1  0  0  0  0
 21 49  1  0  0  0  0
 21 50  1  0  0  0  0
 22 26  1  0  0  0  0
 22 23  1  0  0  0  0
 23 24  2  0  0  0  0
 23 28  1  0  0  0  0
 24 25  1  0  0  0  0
 24 51  1  0  0  0  0
 25 26  2  0  0  0  0
 25 52  1  0  0  0  0
 26 27  1  0  0  0  0
 27 53  1  0  0  0  0
 27 54  1  0  0  0  0
 27 55  1  0  0  0  0
 28 56  1  0  0  0  0
 28 57  1  0  0  0  0
 28 58  1  0  0  0  0
M  END
$$$$
CHEMBL573546
 OpenBabel12022417383D

 56 59  0  0  1  0  0  0  0  0999 V2000
    1.0924    0.3287    0.0557 C   0  0  0  0  0  0  0  0  0  0  0  0
    2.5600    0.0751    0.0820 C   0  0  0  0  0  0  0  0  0  0  0  0
    3.5706    1.0880    0.2133 C   0  0  0  0  0  0  0  0  0  0  0  0
    3.3814    2.5605    0.2270 C   0  0  0  0  0  0  0  0  0  0  0  0
    2.2773    3.0927    0.1533 O   0  0  0  0  0  0  0  0  0  0  0  0
    4.5617    3.2875    0.2993 N   0  0  0  0  0  0  0  0  0  0  0  0
    4.5964    4.7450    0.3987 C   0  0  1  0  0  0  0  0  0  0  0  0
    4.4047    5.1897    1.8525 C   0  0  0  0  0  0  0  0  0  0  0  0
    5.8718    5.3784   -0.2297 C   0  0  0  0  0  0  0  0  0  0  0  0
    7.1757    5.0263    0.5120 C   0  0  0  0  0  0  0  0  0  0  0  0
    8.4032    5.6515   -0.1503 C   0  0  0  0  0  0  0  0  0  0  0  0
    8.4977    5.2773   -1.6236 C   0  0  0  0  0  0  0  0  0  0  0  0
    7.2276    5.6686   -2.3697 C   0  0  0  0  0  0  0  0  0  0  0  0
    5.9836    5.0504   -1.7307 C   0  0  0  0  0  0  0  0  0  0  0  0
    4.7889    0.5374    0.3785 N   0  0  0  0  0  0  0  0  0  0  0  0
    4.6069   -0.7941    0.1681 N   0  0  0  0  0  0  0  0  0  0  0  0
    5.7584   -1.5971   -0.0811 C   0  0  0  0  0  0  0  0  0  0  0  0
    5.7202   -2.6586   -0.9958 C   0  0  0  0  0  0  0  0  0  0  0  0
    6.8626   -3.4329   -1.2166 C   0  0  0  0  0  0  0  0  0  0  0  0
    8.0491   -3.1491   -0.5350 C   0  0  0  0  0  0  0  0  0  0  0  0
    8.0939   -2.0809    0.3687 C   0  0  0  0  0  0  0  0  0  0  0  0
    6.9558   -1.2953    0.5830 C   0  0  0  0  0  0  0  0  0  0  0  0
    9.5186   -1.6906    1.2655 Cl  0  0  0  0  0  0  0  0  0  0  0  0
    9.4205   -4.1464   -0.8644 Cl  0  0  0  0  0  0  0  0  0  0  0  0
    3.2635   -1.1227    0.1037 C   0  0  0  0  0  0  0  0  0  0  0  0
    2.7627   -2.4314    0.1394 N   0  0  0  0  0  0  0  0  0  0  0  0
    3.3242   -3.5131    0.7996 C   0  0  0  0  0  0  0  0  0  0  0  0
    2.5518   -4.6350    0.5992 C   0  0  0  0  0  0  0  0  0  0  0  0
    1.4556   -4.2435   -0.1916 C   0  0  0  0  0  0  0  0  0  0  0  0
    1.6078   -2.9001   -0.4577 C   0  0  0  0  0  0  0  0  0  0  0  0
    0.4999   -0.5749    0.2100 H   0  0  0  0  0  0  0  0  0  0  0  0
    0.7977    0.7741   -0.8991 H   0  0  0  0  0  0  0  0  0  0  0  0
    0.8091    1.0116    0.8628 H   0  0  0  0  0  0  0  0  0  0  0  0
    5.3981    2.7332    0.4553 H   0  0  0  0  0  0  0  0  0  0  0  0
    3.7333    5.1235   -0.1659 H   0  0  0  0  0  0  0  0  0  0  0  0
    5.1812    4.7841    2.5072 H   0  0  0  0  0  0  0  0  0  0  0  0
    3.4418    4.8446    2.2446 H   0  0  0  0  0  0  0  0  0  0  0  0
    4.4239    6.2827    1.9310 H   0  0  0  0  0  0  0  0  0  0  0  0
    5.7518    6.4701   -0.1550 H   0  0  0  0  0  0  0  0  0  0  0  0
    7.3079    3.9391    0.5522 H   0  0  0  0  0  0  0  0  0  0  0  0
    7.1336    5.3840    1.5465 H   0  0  0  0  0  0  0  0  0  0  0  0
    9.3097    5.3255    0.3725 H   0  0  0  0  0  0  0  0  0  0  0  0
    8.3567    6.7438   -0.0529 H   0  0  0  0  0  0  0  0  0  0  0  0
    8.6631    4.1970   -1.7179 H   0  0  0  0  0  0  0  0  0  0  0  0
    9.3629    5.7743   -2.0770 H   0  0  0  0  0  0  0  0  0  0  0  0
    7.3024    5.3475   -3.4147 H   0  0  0  0  0  0  0  0  0  0  0  0
    7.1318    6.7614   -2.3787 H   0  0  0  0  0  0  0  0  0  0  0  0
    5.0939    5.4180   -2.2570 H   0  0  0  0  0  0  0  0  0  0  0  0
    6.0159    3.9648   -1.8788 H   0  0  0  0  0  0  0  0  0  0  0  0
    4.8258   -2.8888   -1.5717 H   0  0  0  0  0  0  0  0  0  0  0  0
    6.8203   -4.2554   -1.9279 H   0  0  0  0  0  0  0  0  0  0  0  0
    6.9966   -0.4744    1.2970 H   0  0  0  0  0  0  0  0  0  0  0  0
    4.2230   -3.3990    1.3900 H   0  0  0  0  0  0  0  0  0  0  0  0
    2.7555   -5.6223    0.9947 H   0  0  0  0  0  0  0  0  0  0  0  0
    0.6454   -4.8723   -0.5395 H   0  0  0  0  0  0  0  0  0  0  0  0
    0.9981   -2.2517   -1.0722 H   0  0  0  0  0  0  0  0  0  0  0  0
  1  2  1  0  0  0  0
  1 31  1  0  0  0  0
  1 32  1  0  0  0  0
  1 33  1  0  0  0  0
  2 25  2  0  0  0  0
  2  3  1  0  0  0  0
  3  4  1  0  0  0  0
  3 15  2  0  0  0  0
  4  5  2  0  0  0  0
  4  6  1  0  0  0  0
  6  7  1  0  0  0  0
  6 34  1  0  0  0  0
  7  8  1  0  0  0  0
  7  9  1  0  0  0  0
  7 35  1  6  0  0  0
  8 36  1  0  0  0  0
  8 37  1  0  0  0  0
  8 38  1  0  0  0  0
  9 14  1  0  0  0  0
  9 10  1  0  0  0  0
  9 39  1  0  0  0  0
 10 11  1  0  0  0  0
 10 40  1  0  0  0  0
 10 41  1  0  0  0  0
 11 12  1  0  0  0  0
 11 42  1  0  0  0  0
 11 43  1  0  0  0  0
 12 13  1  0  0  0  0
 12 44  1  0  0  0  0
 12 45  1  0  0  0  0
 13 14  1  0  0  0  0
 13 46  1  0  0  0  0
 13 47  1  0  0  0  0
 14 48  1  0  0  0  0
 14 49  1  0  0  0  0
 15 16  1  0  0  0  0
 16 17  1  0  0  0  0
 16 25  1  0  0  0  0
 17 22  2  0  0  0  0
 17 18  1  0  0  0  0
 18 19  2  0  0  0  0
 18 50  1  0  0  0  0
 19 20  1  0  0  0  0
 19 51  1  0  0  0  0
 20 21  2  0  0  0  0
 20 24  1  0  0  0  0
 21 22  1  0  0  0  0
 21 23  1  0  0  0  0
 22 52  1  0  0  0  0
 25 26  1  0  0  0  0
 26 30  1  0  0  0  0
 26 27  1  0  0  0  0
 27 28  2  0  0  0  0
 27 53  1  0  0  0  0
 28 29  1  0  0  0  0
 28 54  1  0  0  0  0
 29 30  2  0  0  0  0
 29 55  1  0  0  0  0
 30 56  1  0  0  0  0
M  END
$$$$
CHEMBL2296786
 OpenBabel12022417383D

 52 55  0  0  0  0  0  0  0  0999 V2000
    1.9863   -0.9620   -1.0003 C   0  0  0  0  0  0  0  0  0  0  0  0
    2.3759    0.1737   -0.2349 O   0  0  0  0  0  0  0  0  0  0  0  0
    3.0586    1.1379   -0.9219 C   0  0  0  0  0  0  0  0  0  0  0  0
    2.8676    2.4421   -0.4723 C   0  0  0  0  0  0  0  0  0  0  0  0
    3.5207    3.5135   -1.0924 C   0  0  0  0  0  0  0  0  0  0  0  0
    4.4490    3.2948   -2.1196 C   0  0  0  0  0  0  0  0  0  0  0  0
    5.2139    4.3943   -2.7418 C   0  0  0  0  0  0  0  0  0  0  0  0
    5.5691    4.5341   -4.0656 C   0  0  0  0  0  0  0  0  0  0  0  0
    6.1775    5.7830   -4.2398 C   0  0  0  0  0  0  0  0  0  0  0  0
    6.6765    6.3354   -5.5082 C   0  0  0  0  0  0  0  0  0  0  0  0
    6.6545    5.6760   -6.5452 O   0  0  0  0  0  0  0  0  0  0  0  0
    7.1530    7.6472   -5.4207 N   0  0  0  0  0  0  0  0  0  0  0  0
    7.6404    8.3970   -6.5424 N   0  0  0  0  0  0  0  0  0  0  0  0
    8.8806    7.8202   -7.0902 C   0  0  0  0  0  0  0  0  0  0  0  0
    9.4088    8.5869   -8.3064 C   0  0  0  0  0  0  0  0  0  0  0  0
    8.3388    8.7129   -9.3817 C   0  0  0  0  0  0  0  0  0  0  0  0
    7.1003    9.3716   -8.7899 C   0  0  0  0  0  0  0  0  0  0  0  0
    6.5980    8.6013   -7.5652 C   0  0  0  0  0  0  0  0  0  0  0  0
    6.2352    6.4307   -3.0629 N   0  0  0  0  0  0  0  0  0  0  0  0
    5.6991    5.5677   -2.1434 N   0  0  0  0  0  0  0  0  0  0  0  0
    5.7722    5.8958   -0.7522 C   0  0  0  0  0  0  0  0  0  0  0  0
    5.9955    4.8600    0.1804 C   0  0  0  0  0  0  0  0  0  0  0  0
    5.9883    5.1178    1.5546 C   0  0  0  0  0  0  0  0  0  0  0  0
    5.8041    6.4177    2.0095 C   0  0  0  0  0  0  0  0  0  0  0  0
    5.6315    7.4602    1.1038 C   0  0  0  0  0  0  0  0  0  0  0  0
    5.6119    7.2073   -0.2775 C   0  0  0  0  0  0  0  0  0  0  0  0
    5.2356    8.5730   -1.2734 Cl  0  0  0  0  0  0  0  0  0  0  0  0
    5.7735    6.7341    3.6995 Cl  0  0  0  0  0  0  0  0  0  0  0  0
    5.3278    3.6644   -5.0064 F   0  0  0  0  0  0  0  0  0  0  0  0
    4.6285    1.9745   -2.5641 C   0  0  0  0  0  0  0  0  0  0  0  0
    3.9363    0.9049   -1.9768 C   0  0  0  0  0  0  0  0  0  0  0  0
    1.3311   -1.5758   -0.3739 H   0  0  0  0  0  0  0  0  0  0  0  0
    2.8486   -1.5770   -1.2744 H   0  0  0  0  0  0  0  0  0  0  0  0
    1.4175   -0.6617   -1.8869 H   0  0  0  0  0  0  0  0  0  0  0  0
    2.1939    2.6295    0.3607 H   0  0  0  0  0  0  0  0  0  0  0  0
    3.2986    4.5156   -0.7350 H   0  0  0  0  0  0  0  0  0  0  0  0
    7.1168    8.0983   -4.5070 H   0  0  0  0  0  0  0  0  0  0  0  0
    8.7398    6.7729   -7.3800 H   0  0  0  0  0  0  0  0  0  0  0  0
    9.6559    7.8382   -6.3143 H   0  0  0  0  0  0  0  0  0  0  0  0
   10.2831    8.0685   -8.7170 H   0  0  0  0  0  0  0  0  0  0  0  0
    9.7437    9.5868   -8.0035 H   0  0  0  0  0  0  0  0  0  0  0  0
    8.0827    7.7188   -9.7697 H   0  0  0  0  0  0  0  0  0  0  0  0
    8.7155    9.3012  -10.2256 H   0  0  0  0  0  0  0  0  0  0  0  0
    6.3095    9.4128   -9.5481 H   0  0  0  0  0  0  0  0  0  0  0  0
    7.3317   10.4077   -8.5127 H   0  0  0  0  0  0  0  0  0  0  0  0
    5.7695    9.1673   -7.1222 H   0  0  0  0  0  0  0  0  0  0  0  0
    6.1858    7.6485   -7.9140 H   0  0  0  0  0  0  0  0  0  0  0  0
    6.1802    3.8349   -0.1354 H   0  0  0  0  0  0  0  0  0  0  0  0
    6.1194    4.2990    2.2585 H   0  0  0  0  0  0  0  0  0  0  0  0
    5.4807    8.4724    1.4740 H   0  0  0  0  0  0  0  0  0  0  0  0
    5.3191    1.7528   -3.3767 H   0  0  0  0  0  0  0  0  0  0  0  0
    4.1246   -0.0972   -2.3483 H   0  0  0  0  0  0  0  0  0  0  0  0
  1  2  1  0  0  0  0
  1 32  1  0  0  0  0
  1 33  1  0  0  0  0
  1 34  1  0  0  0  0
  2  3  1  0  0  0  0
  3 31  2  0  0  0  0
  3  4  1  0  0  0  0
  4  5  2  0  0  0  0
  4 35  1  0  0  0  0
  5  6  1  0  0  0  0
  5 36  1  0  0  0  0
  6  7  1  0  0  0  0
  6 30  2  0  0  0  0
  7 20  1  0  0  0  0
  7  8  2  0  0  0  0
  8  9  1  0  0  0  0
  8 29  1  0  0  0  0
  9 10  1  0  0  0  0
  9 19  2  0  0  0  0
 10 11  2  0  0  0  0
 10 12  1  0  0  0  0
 12 13  1  0  0  0  0
 12 37  1  0  0  0  0
 13 18  1  0  0  0  0
 13 14  1  0  0  0  0
 14 15  1  0  0  0  0
 14 38  1  0  0  0  0
 14 39  1  0  0  0  0
 15 16  1  0  0  0  0
 15 40  1  0  0  0  0
 15 41  1  0  0  0  0
 16 17  1  0  0  0  0
 16 42  1  0  0  0  0
 16 43  1  0  0  0  0
 17 18  1  0  0  0  0
 17 44  1  0  0  0  0
 17 45  1  0  0  0  0
 18 46  1  0  0  0  0
 18 47  1  0  0  0  0
 19 20  1  0  0  0  0
 20 21  1  0  0  0  0
 21 26  2  0  0  0  0
 21 22  1  0  0  0  0
 22 23  2  0  0  0  0
 22 48  1  0  0  0  0
 23 24  1  0  0  0  0
 23 49  1  0  0  0  0
 24 25  2  0  0  0  0
 24 28  1  0  0  0  0
 25 26  1  0  0  0  0
 25 50  1  0  0  0  0
 26 27  1  0  0  0  0
 30 31  1  0  0  0  0
 30 51  1  0  0  0  0
 31 52  1  0  0  0  0
M  END
$$$$
CHEMBL361557
 OpenBabel12022417383D

 52 55  0  0  0  0  0  0  0  0999 V2000
    2.2193    0.0362   -0.0459 C   0  0  0  0  0  0  0  0  0  0  0  0
    0.7735   -0.0285    0.0102 N   0  0  0  0  0  0  0  0  0  0  0  0
   -0.0627    1.0934    0.0326 C   0  0  0  0  0  0  0  0  0  0  0  0
    0.3083    2.5261    0.0866 C   0  0  0  0  0  0  0  0  0  0  0  0
    1.4742    2.9005    0.1408 O   0  0  0  0  0  0  0  0  0  0  0  0
   -0.7590    3.4202    0.1093 N   0  0  0  0  0  0  0  0  0  0  0  0
   -0.6168    4.8730    0.2549 C   0  0  0  0  0  0  0  0  0  0  0  0
   -0.3759    5.5892   -1.0884 C   0  0  0  0  0  0  0  0  0  0  0  0
   -0.2176    7.1021   -0.8988 C   0  0  0  0  0  0  0  0  0  0  0  0
   -1.4218    7.7031   -0.1784 C   0  0  0  0  0  0  0  0  0  0  0  0
   -1.6725    7.0052    1.1544 C   0  0  0  0  0  0  0  0  0  0  0  0
   -1.8295    5.4916    0.9797 C   0  0  0  0  0  0  0  0  0  0  0  0
   -1.3212    0.7052   -0.0104 N   0  0  0  0  0  0  0  0  0  0  0  0
   -1.3189   -0.6724   -0.0202 C   0  0  0  0  0  0  0  0  0  0  0  0
   -2.5728   -1.4248   -0.1315 C   0  0  0  0  0  0  0  0  0  0  0  0
   -2.5878   -2.6523   -0.8474 C   0  0  0  0  0  0  0  0  0  0  0  0
   -3.7127   -3.4733   -0.8710 C   0  0  0  0  0  0  0  0  0  0  0  0
   -4.8720   -3.0533   -0.2409 C   0  0  0  0  0  0  0  0  0  0  0  0
   -4.8978   -1.8417    0.4538 C   0  0  0  0  0  0  0  0  0  0  0  0
   -3.7526   -1.0345    0.5185 C   0  0  0  0  0  0  0  0  0  0  0  0
   -3.9056    0.4343    1.4260 Cl  0  0  0  0  0  0  0  0  0  0  0  0
   -6.2921   -4.0039   -0.3631 Cl  0  0  0  0  0  0  0  0  0  0  0  0
   -0.0243   -1.1790    0.0535 C   0  0  0  0  0  0  0  0  0  0  0  0
    0.4713   -2.5695    0.1019 C   0  0  0  0  0  0  0  0  0  0  0  0
    1.6017   -2.9349   -0.6656 C   0  0  0  0  0  0  0  0  0  0  0  0
    2.1355   -4.2038   -0.6478 C   0  0  0  0  0  0  0  0  0  0  0  0
    1.4921   -5.2144    0.0371 C   0  0  0  0  0  0  0  0  0  0  0  0
    0.2900   -4.9301    0.7278 C   0  0  0  0  0  0  0  0  0  0  0  0
   -0.1626   -3.6405    0.8176 C   0  0  0  0  0  0  0  0  0  0  0  0
   -1.5173   -3.4884    1.8848 Cl  0  0  0  0  0  0  0  0  0  0  0  0
    2.0410   -6.8163    0.0259 Cl  0  0  0  0  0  0  0  0  0  0  0  0
    2.6823   -0.9447   -0.0298 H   0  0  0  0  0  0  0  0  0  0  0  0
    2.6082    0.5055    0.8526 H   0  0  0  0  0  0  0  0  0  0  0  0
    2.5226    0.5222   -0.9774 H   0  0  0  0  0  0  0  0  0  0  0  0
   -1.6834    3.0191   -0.0336 H   0  0  0  0  0  0  0  0  0  0  0  0
    0.2665    5.0460    0.8834 H   0  0  0  0  0  0  0  0  0  0  0  0
   -1.2096    5.4087   -1.7806 H   0  0  0  0  0  0  0  0  0  0  0  0
    0.5237    5.1885   -1.5701 H   0  0  0  0  0  0  0  0  0  0  0  0
   -0.0930    7.5894   -1.8728 H   0  0  0  0  0  0  0  0  0  0  0  0
    0.6935    7.3082   -0.3228 H   0  0  0  0  0  0  0  0  0  0  0  0
   -2.3116    7.6109   -0.8130 H   0  0  0  0  0  0  0  0  0  0  0  0
   -1.2594    8.7749   -0.0121 H   0  0  0  0  0  0  0  0  0  0  0  0
   -2.5687    7.4238    1.6276 H   0  0  0  0  0  0  0  0  0  0  0  0
   -0.8333    7.2064    1.8317 H   0  0  0  0  0  0  0  0  0  0  0  0
   -1.9473    5.0294    1.9671 H   0  0  0  0  0  0  0  0  0  0  0  0
   -2.7573    5.2850    0.4284 H   0  0  0  0  0  0  0  0  0  0  0  0
   -1.6807   -3.0426   -1.3026 H   0  0  0  0  0  0  0  0  0  0  0  0
   -3.6610   -4.4391   -1.3700 H   0  0  0  0  0  0  0  0  0  0  0  0
   -5.8154   -1.5188    0.9362 H   0  0  0  0  0  0  0  0  0  0  0  0
    2.1426   -2.2214   -1.2862 H   0  0  0  0  0  0  0  0  0  0  0  0
    3.0650   -4.4123   -1.1564 H   0  0  0  0  0  0  0  0  0  0  0  0
   -0.2254   -5.7412    1.2281 H   0  0  0  0  0  0  0  0  0  0  0  0
  1  2  1  0  0  0  0
  1 32  1  0  0  0  0
  1 33  1  0  0  0  0
  1 34  1  0  0  0  0
  2 23  1  0  0  0  0
  2  3  1  0  0  0  0
  3  4  1  0  0  0  0
  3 13  2  0  0  0  0
  4  5  2  0  0  0  0
  4  6  1  0  0  0  0
  6  7  1  0  0  0  0
  6 35  1  0  0  0  0
  7 12  1  0  0  0  0
  7  8  1  0  0  0  0
  7 36  1  0  0  0  0
  8  9  1  0  0  0  0
  8 37  1  0  0  0  0
  8 38  1  0  0  0  0
  9 10  1  0  0  0  0
  9 39  1  0  0  0  0
  9 40  1  0  0  0  0
 10 11  1  0  0  0  0
 10 41  1  0  0  0  0
 10 42  1  0  0  0  0
 11 12  1  0  0  0  0
 11 43  1  0  0  0  0
 11 44  1  0  0  0  0
 12 45  1  0  0  0  0
 12 46  1  0  0  0  0
 13 14  1  0  0  0  0
 14 15  1  0  0  0  0
 14 23  2  0  0  0  0
 15 20  2  0  0  0  0
 15 16  1  0  0  0  0
 16 17  2  0  0  0  0
 16 47  1  0  0  0  0
 17 18  1  0  0  0  0
 17 48  1  0  0  0  0
 18 19  2  0  0  0  0
 18 22  1  0  0  0  0
 19 20  1  0  0  0  0
 19 49  1  0  0  0  0
 20 21  1  0  0  0  0
 23 24  1  0  0  0  0
 24 29  2  0  0  0  0
 24 25  1  0  0  0  0
 25 26  2  0  0  0  0
 25 50  1  0  0  0  0
 26 27  1  0  0  0  0
 26 51  1  0  0  0  0
 27 28  2  0  0  0  0
 27 31  1  0  0  0  0
 28 29  1  0  0  0  0
 28 52  1  0  0  0  0
 29 30  1  0  0  0  0
M  END
$$$$
CHEMBL1629731
 OpenBabel12022417383D

 49 51  0  0  0  0  0  0  0  0999 V2000
    2.9522    1.1018    0.0775 C   0  0  0  0  0  0  0  0  0  0  0  0
    2.5457    0.9177   -1.3810 C   0  0  0  0  0  0  0  0  0  0  0  0
    3.2185   -0.2819   -2.1051 C   0  0  0  0  0  0  0  0  0  0  0  0
    2.8056   -1.5996   -1.4217 C   0  0  0  0  0  0  0  0  0  0  0  0
    2.6849   -0.3371   -3.5524 C   0  0  0  0  0  0  0  0  0  0  0  0
    4.6887   -0.1776   -2.1038 N   0  0  0  0  0  0  0  0  0  0  0  0
    5.3977    0.8859   -2.6489 C   0  0  0  0  0  0  0  0  0  0  0  0
    4.8434    1.8672   -3.1267 O   0  0  0  0  0  0  0  0  0  0  0  0
    6.8762    0.7560   -2.6112 C   0  0  0  0  0  0  0  0  0  0  0  0
    7.8344    1.6520   -3.1889 C   0  0  0  0  0  0  0  0  0  0  0  0
    9.0689    1.0610   -2.9317 C   0  0  0  0  0  0  0  0  0  0  0  0
    8.8209   -0.1012   -2.2093 N   0  0  0  0  0  0  0  0  0  0  0  0
    9.7467   -0.9814   -1.5637 C   0  0  0  0  0  0  0  0  0  0  0  0
   10.9312   -0.4510   -1.0113 C   0  0  0  0  0  0  0  0  0  0  0  0
   11.9342   -1.2935   -0.5243 C   0  0  0  0  0  0  0  0  0  0  0  0
   11.7390   -2.6687   -0.5278 C   0  0  0  0  0  0  0  0  0  0  0  0
   10.5401   -3.2064   -0.9898 C   0  0  0  0  0  0  0  0  0  0  0  0
    9.5384   -2.3713   -1.5081 C   0  0  0  0  0  0  0  0  0  0  0  0
    8.1640   -3.1878   -2.1728 Cl  0  0  0  0  0  0  0  0  0  0  0  0
   12.9921   -3.7115    0.0198 Cl  0  0  0  0  0  0  0  0  0  0  0  0
    7.4846   -0.2975   -2.0389 N   0  0  0  0  0  0  0  0  0  0  0  0
   10.3196    1.4939   -3.4005 N   0  0  0  0  0  0  0  0  0  0  0  0
   10.7063    2.8041   -3.6274 C   0  0  0  0  0  0  0  0  0  0  0  0
   12.0195    2.8413   -4.0406 C   0  0  0  0  0  0  0  0  0  0  0  0
   12.4687    1.5106   -4.1033 C   0  0  0  0  0  0  0  0  0  0  0  0
   11.4045    0.7092   -3.7542 C   0  0  0  0  0  0  0  0  0  0  0  0
    7.5463    2.8637   -4.0091 C   0  0  0  0  0  0  0  0  0  0  0  0
    2.4867    2.0075    0.4804 H   0  0  0  0  0  0  0  0  0  0  0  0
    4.0358    1.2079    0.1841 H   0  0  0  0  0  0  0  0  0  0  0  0
    2.6200    0.2633    0.6961 H   0  0  0  0  0  0  0  0  0  0  0  0
    2.7582    1.8534   -1.9096 H   0  0  0  0  0  0  0  0  0  0  0  0
    1.4544    0.8024   -1.4176 H   0  0  0  0  0  0  0  0  0  0  0  0
    1.7151   -1.7126   -1.4094 H   0  0  0  0  0  0  0  0  0  0  0  0
    3.1617   -1.6542   -0.3881 H   0  0  0  0  0  0  0  0  0  0  0  0
    3.2231   -2.4661   -1.9481 H   0  0  0  0  0  0  0  0  0  0  0  0
    1.5945   -0.4662   -3.5679 H   0  0  0  0  0  0  0  0  0  0  0  0
    3.1260   -1.1735   -4.1079 H   0  0  0  0  0  0  0  0  0  0  0  0
    2.9059    0.5779   -4.1123 H   0  0  0  0  0  0  0  0  0  0  0  0
    5.2643   -0.9497   -1.7730 H   0  0  0  0  0  0  0  0  0  0  0  0
   11.1091    0.6226   -0.9687 H   0  0  0  0  0  0  0  0  0  0  0  0
   12.8691   -0.8691   -0.1639 H   0  0  0  0  0  0  0  0  0  0  0  0
   10.3999   -4.2849   -0.9819 H   0  0  0  0  0  0  0  0  0  0  0  0
   10.0377    3.6270   -3.4260 H   0  0  0  0  0  0  0  0  0  0  0  0
   12.5856    3.7359   -4.2675 H   0  0  0  0  0  0  0  0  0  0  0  0
   13.4525    1.1660   -4.3958 H   0  0  0  0  0  0  0  0  0  0  0  0
   11.3392   -0.3696   -3.7428 H   0  0  0  0  0  0  0  0  0  0  0  0
    6.4868    2.9987   -4.2277 H   0  0  0  0  0  0  0  0  0  0  0  0
    8.0504    2.7911   -4.9781 H   0  0  0  0  0  0  0  0  0  0  0  0
    7.8801    3.7683   -3.4956 H   0  0  0  0  0  0  0  0  0  0  0  0
  1  2  1  0  0  0  0
  1 28  1  0  0  0  0
  1 29  1  0  0  0  0
  1 30  1  0  0  0  0
  2  3  1  0  0  0  0
  2 31  1  0  0  0  0
  2 32  1  0  0  0  0
  3  4  1  0  0  0  0
  3  5  1  0  0  0  0
  3  6  1  0  0  0  0
  4 33  1  0  0  0  0
  4 34  1  0  0  0  0
  4 35  1  0  0  0  0
  5 36  1  0  0  0  0
  5 37  1  0  0  0  0
  5 38  1  0  0  0  0
  6  7  1  0  0  0  0
  6 39  1  0  0  0  0
  7  8  2  0  0  0  0
  7  9  1  0  0  0  0
  9 21  2  0  0  0  0
  9 10  1  0  0  0  0
 10 11  2  0  0  0  0
 10 27  1  0  0  0  0
 11 12  1  0  0  0  0
 11 22  1  0  0  0  0
 12 13  1  0  0  0  0
 12 21  1  0  0  0  0
 13 18  2  0  0  0  0
 13 14  1  0  0  0  0
 14 15  2  0  0  0  0
 14 40  1  0  0  0  0
 15 16  1  0  0  0  0
 15 41  1  0  0  0  0
 16 17  2  0  0  0  0
 16 20  1  0  0  0  0
 17 18  1  0  0  0  0
 17 42  1  0  0  0  0
 18 19  1  0  0  0  0
 22 26  1  0  0  0  0
 22 23  1  0  0  0  0
 23 24  2  0  0  0  0
 23 43  1  0  0  0  0
 24 25  1  0  0  0  0
 24 44  1  0  0  0  0
 25 26  2  0  0  0  0
 25 45  1  0  0  0  0
 26 46  1  0  0  0  0
 27 47  1  0  0  0  0
 27 48  1  0  0  0  0
 27 49  1  0  0  0  0
M  END
$$$$
CHEMBL572860
 OpenBabel12022417383D

 59 62  0  0  0  0  0  0  0  0999 V2000
   -0.1528   -0.9565   -0.0002 N   0  0  0  0  0  0  0  0  0  0  0  0
   -1.0014    0.0936   -0.2532 N   0  0  0  0  0  0  0  0  0  0  0  0
   -0.2172    1.1908   -0.2186 C   0  0  0  0  0  0  0  0  0  0  0  0
    1.1670    0.8233   -0.1828 C   0  0  0  0  0  0  0  0  0  0  0  0
    1.1728   -0.5528   -0.0043 C   0  0  0  0  0  0  0  0  0  0  0  0
    2.3106   -1.3842    0.0426 N   0  0  0  0  0  0  0  0  0  0  0  0
    2.5546   -2.5419   -0.7084 C   0  0  0  0  0  0  0  0  0  0  0  0
    3.8430   -2.9739   -0.4524 C   0  0  0  0  0  0  0  0  0  0  0  0
    4.4241   -2.0883    0.4606 C   0  0  0  0  0  0  0  0  0  0  0  0
    3.4713   -1.1470    0.7934 C   0  0  0  0  0  0  0  0  0  0  0  0
    3.6258   -0.1003    1.8452 C   0  0  0  0  0  0  0  0  0  0  0  0
    1.6337   -3.1635   -1.7004 C   0  0  0  0  0  0  0  0  0  0  0  0
    2.3264    1.7395   -0.3903 C   0  0  0  0  0  0  0  0  0  0  0  0
   -0.7429    2.5804   -0.2465 C   0  0  0  0  0  0  0  0  0  0  0  0
    0.0093    3.5483   -0.1380 O   0  0  0  0  0  0  0  0  0  0  0  0
   -2.1112    2.7507   -0.4073 N   0  0  0  0  0  0  0  0  0  0  0  0
   -2.6623    4.1039   -0.5957 C   0  0  0  0  0  0  0  0  0  0  0  0
   -2.4835    4.5664   -2.0549 C   0  0  0  0  0  0  0  0  0  0  0  0
   -3.7575    4.7360   -2.8852 C   0  0  0  0  0  0  0  0  0  0  0  0
   -4.4658    6.0623   -2.6203 C   0  0  0  0  0  0  0  0  0  0  0  0
   -5.2927    6.1125   -1.3405 C   0  0  0  0  0  0  0  0  0  0  0  0
   -4.5716    5.7104   -0.0560 C   0  0  0  0  0  0  0  0  0  0  0  0
   -4.0772    4.2568   -0.0223 C   0  0  0  0  0  0  0  0  0  0  0  0
   -0.7228   -2.2309    0.2596 C   0  0  0  0  0  0  0  0  0  0  0  0
   -0.1755   -3.0959    1.2112 C   0  0  0  0  0  0  0  0  0  0  0  0
   -0.7160   -4.3691    1.4087 C   0  0  0  0  0  0  0  0  0  0  0  0
   -1.7957   -4.7739    0.6435 C   0  0  0  0  0  0  0  0  0  0  0  0
   -2.3668   -3.9243   -0.3018 C   0  0  0  0  0  0  0  0  0  0  0  0
   -1.8441   -2.6423   -0.4812 C   0  0  0  0  0  0  0  0  0  0  0  0
   -2.3044   -6.0024    0.8154 F   0  0  0  0  0  0  0  0  0  0  0  0
    0.8321   -2.7126    2.0036 F   0  0  0  0  0  0  0  0  0  0  0  0
    4.3185   -3.8357   -0.9047 H   0  0  0  0  0  0  0  0  0  0  0  0
    5.4251   -2.1412    0.8710 H   0  0  0  0  0  0  0  0  0  0  0  0
    2.6820    0.3588    2.1455 H   0  0  0  0  0  0  0  0  0  0  0  0
    4.3147    0.6786    1.5004 H   0  0  0  0  0  0  0  0  0  0  0  0
    4.0629   -0.5420    2.7478 H   0  0  0  0  0  0  0  0  0  0  0  0
    0.7962   -2.5268   -1.9852 H   0  0  0  0  0  0  0  0  0  0  0  0
    1.2509   -4.1129   -1.3098 H   0  0  0  0  0  0  0  0  0  0  0  0
    2.1801   -3.3879   -2.6237 H   0  0  0  0  0  0  0  0  0  0  0  0
    2.0583    2.6025   -1.0044 H   0  0  0  0  0  0  0  0  0  0  0  0
    3.1348    1.2292   -0.9240 H   0  0  0  0  0  0  0  0  0  0  0  0
    2.7056    2.1144    0.5630 H   0  0  0  0  0  0  0  0  0  0  0  0
   -2.6519    1.9201   -0.6243 H   0  0  0  0  0  0  0  0  0  0  0  0
   -2.0250    4.7613    0.0128 H   0  0  0  0  0  0  0  0  0  0  0  0
   -1.8249    3.8692   -2.5857 H   0  0  0  0  0  0  0  0  0  0  0  0
   -1.9423    5.5223   -2.0481 H   0  0  0  0  0  0  0  0  0  0  0  0
   -4.4378    3.8875   -2.7595 H   0  0  0  0  0  0  0  0  0  0  0  0
   -3.4603    4.7323   -3.9415 H   0  0  0  0  0  0  0  0  0  0  0  0
   -5.1435    6.2634   -3.4605 H   0  0  0  0  0  0  0  0  0  0  0  0
   -3.7375    6.8830   -2.6217 H   0  0  0  0  0  0  0  0  0  0  0  0
   -6.1852    5.4877   -1.4638 H   0  0  0  0  0  0  0  0  0  0  0  0
   -5.6601    7.1412   -1.2205 H   0  0  0  0  0  0  0  0  0  0  0  0
   -5.2845    5.8470    0.7677 H   0  0  0  0  0  0  0  0  0  0  0  0
   -3.7454    6.4054    0.1410 H   0  0  0  0  0  0  0  0  0  0  0  0
   -4.0525    3.9367    1.0282 H   0  0  0  0  0  0  0  0  0  0  0  0
   -4.7903    3.5872   -0.5166 H   0  0  0  0  0  0  0  0  0  0  0  0
   -0.2891   -5.0323    2.1522 H   0  0  0  0  0  0  0  0  0  0  0  0
   -3.2053   -4.2727   -0.8976 H   0  0  0  0  0  0  0  0  0  0  0  0
   -2.2771   -1.9932   -1.2422 H   0  0  0  0  0  0  0  0  0  0  0  0
  1  5  1  0  0  0  0
  1  2  1  0  0  0  0
  1 24  1  0  0  0  0
  2  3  2  0  0  0  0
  3  4  1  0  0  0  0
  3 14  1  0  0  0  0
  4  5  2  0  0  0  0
  4 13  1  0  0  0  0
  5  6  1  0  0  0  0
  6 10  1  0  0  0  0
  6  7  1  0  0  0  0
  7  8  2  0  0  0  0
  7 12  1  0  0  0  0
  8  9  1  0  0  0  0
  8 32  1  0  0  0  0
  9 10  2  0  0  0  0
  9 33  1  0  0  0  0
 10 11  1  0  0  0  0
 11 34  1  0  0  0  0
 11 35  1  0  0  0  0
 11 36  1  0  0  0  0
 12 37  1  0  0  0  0
 12 38  1  0  0  0  0
 12 39  1  0  0  0  0
 13 40  1  0  0  0  0
 13 41  1  0  0  0  0
 13 42  1  0  0  0  0
 14 15  2  0  0  0  0
 14 16  1  0  0  0  0
 16 17  1  0  0  0  0
 16 43  1  0  0  0  0
 17 23  1  0  0  0  0
 17 18  1  0  0  0  0
 17 44  1  0  0  0  0
 18 19  1  0  0  0  0
 18 45  1  0  0  0  0
 18 46  1  0  0  0  0
 19 20  1  0  0  0  0
 19 47  1  0  0  0  0
 19 48  1  0  0  0  0
 20 21  1  0  0  0  0
 20 49  1  0  0  0  0
 20 50  1  0  0  0  0
 21 22  1  0  0  0  0
 21 51  1  0  0  0  0
 21 52  1  0  0  0  0
 22 23  1  0  0  0  0
 22 53  1  0  0  0  0
 22 54  1  0  0  0  0
 23 55  1  0  0  0  0
 23 56  1  0  0  0  0
 24 29  2  0  0  0  0
 24 25  1  0  0  0  0
 25 26  2  0  0  0  0
 25 31  1  0  0  0  0
 26 27  1  0  0  0  0
 26 57  1  0  0  0  0
 27 28  2  0  0  0  0
 27 30  1  0  0  0  0
 28 29  1  0  0  0  0
 28 58  1  0  0  0  0
 29 59  1  0  0  0  0
M  END
$$$$
CHEMBL575395
 OpenBabel12022417383D

 53 56  0  0  0  0  0  0  0  0999 V2000
   -0.1337   -0.9669    0.0026 N   0  0  0  0  0  0  0  0  0  0  0  0
   -0.9820    0.0865   -0.1829 N   0  0  0  0  0  0  0  0  0  0  0  0
   -0.2103    1.1957   -0.1437 C   0  0  0  0  0  0  0  0  0  0  0  0
    1.1740    0.8246   -0.1339 C   0  0  0  0  0  0  0  0  0  0  0  0
    1.1876   -0.5465    0.0169 C   0  0  0  0  0  0  0  0  0  0  0  0
    2.3293   -1.3769    0.0467 N   0  0  0  0  0  0  0  0  0  0  0  0
    2.5625   -2.5611   -0.6787 C   0  0  0  0  0  0  0  0  0  0  0  0
    3.8579   -2.9751   -0.4467 C   0  0  0  0  0  0  0  0  0  0  0  0
    4.4578   -2.0625    0.4290 C   0  0  0  0  0  0  0  0  0  0  0  0
    3.5094   -1.1228    0.7667 C   0  0  0  0  0  0  0  0  0  0  0  0
    3.6977   -0.0385    1.7768 C   0  0  0  0  0  0  0  0  0  0  0  0
    1.6232   -3.2188   -1.6303 C   0  0  0  0  0  0  0  0  0  0  0  0
    2.3359    1.7413   -0.3589 C   0  0  0  0  0  0  0  0  0  0  0  0
   -0.7660    2.5753   -0.1459 C   0  0  0  0  0  0  0  0  0  0  0  0
   -0.0546    3.5735   -0.0509 O   0  0  0  0  0  0  0  0  0  0  0  0
   -2.1492    2.6743   -0.2655 N   0  0  0  0  0  0  0  0  0  0  0  0
   -2.8498    3.9469   -0.2779 C   0  0  0  0  0  0  0  0  0  0  0  0
   -4.2057    3.8993   -0.9832 C   0  0  0  0  0  0  0  0  0  0  0  0
   -4.8715    5.2110   -0.5751 C   0  0  0  0  0  0  0  0  0  0  0  0
   -4.3234    5.5314    0.8163 C   0  0  0  0  0  0  0  0  0  0  0  0
   -3.2552    4.4695    1.1041 C   0  0  0  0  0  0  0  0  0  0  0  0
   -0.6929   -2.2649    0.2385 C   0  0  0  0  0  0  0  0  0  0  0  0
   -0.1002   -3.1607    1.1436 C   0  0  0  0  0  0  0  0  0  0  0  0
   -0.6554   -4.4329    1.3414 C   0  0  0  0  0  0  0  0  0  0  0  0
   -1.7798   -4.8335    0.6088 C   0  0  0  0  0  0  0  0  0  0  0  0
   -2.3411   -3.9591   -0.3262 C   0  0  0  0  0  0  0  0  0  0  0  0
   -1.8180   -2.6716   -0.4945 C   0  0  0  0  0  0  0  0  0  0  0  0
   -2.5256   -6.3778    0.8199 Cl  0  0  0  0  0  0  0  0  0  0  0  0
    0.0952   -5.4642    2.5089 Cl  0  0  0  0  0  0  0  0  0  0  0  0
    4.3278   -3.8433   -0.8931 H   0  0  0  0  0  0  0  0  0  0  0  0
    5.4715   -2.0953    0.8056 H   0  0  0  0  0  0  0  0  0  0  0  0
    2.7666    0.4510    2.0705 H   0  0  0  0  0  0  0  0  0  0  0  0
    4.3965    0.7096    1.3846 H   0  0  0  0  0  0  0  0  0  0  0  0
    4.1355   -0.4412    2.6924 H   0  0  0  0  0  0  0  0  0  0  0  0
    0.7371   -2.6328   -1.8668 H   0  0  0  0  0  0  0  0  0  0  0  0
    1.3158   -4.1944   -1.2360 H   0  0  0  0  0  0  0  0  0  0  0  0
    2.1240   -3.3995   -2.5899 H   0  0  0  0  0  0  0  0  0  0  0  0
    2.0714    2.6416   -0.9115 H   0  0  0  0  0  0  0  0  0  0  0  0
    3.1160    1.2349   -0.9470 H   0  0  0  0  0  0  0  0  0  0  0  0
    2.7762    2.0715    0.5906 H   0  0  0  0  0  0  0  0  0  0  0  0
   -2.6554    1.7910   -0.2673 H   0  0  0  0  0  0  0  0  0  0  0  0
   -2.2111    4.6947   -0.7668 H   0  0  0  0  0  0  0  0  0  0  0  0
   -4.8030    3.0540   -0.6211 H   0  0  0  0  0  0  0  0  0  0  0  0
   -4.1152    3.8044   -2.0699 H   0  0  0  0  0  0  0  0  0  0  0  0
   -5.9644    5.1384   -0.5810 H   0  0  0  0  0  0  0  0  0  0  0  0
   -4.5951    6.0115   -1.2726 H   0  0  0  0  0  0  0  0  0  0  0  0
   -5.1148    5.5160    1.5740 H   0  0  0  0  0  0  0  0  0  0  0  0
   -3.8890    6.5383    0.8233 H   0  0  0  0  0  0  0  0  0  0  0  0
   -2.4141    4.8813    1.6698 H   0  0  0  0  0  0  0  0  0  0  0  0
   -3.6980    3.6662    1.7062 H   0  0  0  0  0  0  0  0  0  0  0  0
    0.7824   -2.8837    1.7161 H   0  0  0  0  0  0  0  0  0  0  0  0
   -3.1879   -4.2787   -0.9305 H   0  0  0  0  0  0  0  0  0  0  0  0
   -2.2550   -2.0187   -1.2490 H   0  0  0  0  0  0  0  0  0  0  0  0
  1  5  1  0  0  0  0
  1  2  1  0  0  0  0
  1 22  1  0  0  0  0
  2  3  2  0  0  0  0
  3  4  1  0  0  0  0
  3 14  1  0  0  0  0
  4  5  2  0  0  0  0
  4 13  1  0  0  0  0
  5  6  1  0  0  0  0
  6 10  1  0  0  0  0
  6  7  1  0  0  0  0
  7  8  2  0  0  0  0
  7 12  1  0  0  0  0
  8  9  1  0  0  0  0
  8 30  1  0  0  0  0
  9 10  2  0  0  0  0
  9 31  1  0  0  0  0
 10 11  1  0  0  0  0
 11 32  1  0  0  0  0
 11 33  1  0  0  0  0
 11 34  1  0  0  0  0
 12 35  1  0  0  0  0
 12 36  1  0  0  0  0
 12 37  1  0  0  0  0
 13 38  1  0  0  0  0
 13 39  1  0  0  0  0
 13 40  1  0  0  0  0
 14 15  2  0  0  0  0
 14 16  1  0  0  0  0
 16 17  1  0  0  0  0
 16 41  1  0  0  0  0
 17 21  1  0  0  0  0
 17 18  1  0  0  0  0
 17 42  1  0  0  0  0
 18 19  1  0  0  0  0
 18 43  1  0  0  0  0
 18 44  1  0  0  0  0
 19 20  1  0  0  0  0
 19 45  1  0  0  0  0
 19 46  1  0  0  0  0
 20 21  1  0  0  0  0
 20 47  1  0  0  0  0
 20 48  1  0  0  0  0
 21 49  1  0  0  0  0
 21 50  1  0  0  0  0
 22 27  2  0  0  0  0
 22 23  1  0  0  0  0
 23 24  2  0  0  0  0
 23 51  1  0  0  0  0
 24 25  1  0  0  0  0
 24 29  1  0  0  0  0
 25 26  2  0  0  0  0
 25 28  1  0  0  0  0
 26 27  1  0  0  0  0
 26 52  1  0  0  0  0
 27 53  1  0  0  0  0
M  END
$$$$
CHEMBL576549
 OpenBabel12022417383D

 53 56  0  0  0  0  0  0  0  0999 V2000
    1.1002    0.5119   -0.1008 C   0  0  0  0  0  0  0  0  0  0  0  0
    2.5678    0.2606   -0.0760 C   0  0  0  0  0  0  0  0  0  0  0  0
    3.5832    1.2745    0.0552 C   0  0  0  0  0  0  0  0  0  0  0  0
    3.4143    2.7694    0.0845 C   0  0  0  0  0  0  0  0  0  0  0  0
    2.3218    3.3190   -0.0172 O   0  0  0  0  0  0  0  0  0  0  0  0
    4.6045    3.4579    0.2123 N   0  0  0  0  0  0  0  0  0  0  0  0
    4.8408    4.9139    0.1824 C   0  0  0  0  0  0  0  0  0  0  0  0
    4.6649    5.5311   -1.2188 C   0  0  0  0  0  0  0  0  0  0  0  0
    3.5526    6.5692   -1.3970 C   0  0  0  0  0  0  0  0  0  0  0  0
    3.9289    7.9669   -0.8980 C   0  0  0  0  0  0  0  0  0  0  0  0
    3.8846    8.1509    0.6151 C   0  0  0  0  0  0  0  0  0  0  0  0
    4.6872    7.1394    1.4312 C   0  0  0  0  0  0  0  0  0  0  0  0
    4.1797    5.6907    1.3318 C   0  0  0  0  0  0  0  0  0  0  0  0
    4.8034    0.7092    0.1970 N   0  0  0  0  0  0  0  0  0  0  0  0
    4.6081   -0.6250    0.0010 N   0  0  0  0  0  0  0  0  0  0  0  0
    5.7466   -1.4529   -0.2456 C   0  0  0  0  0  0  0  0  0  0  0  0
    5.6839   -2.5295   -1.1425 C   0  0  0  0  0  0  0  0  0  0  0  0
    6.8097   -3.3336   -1.3530 C   0  0  0  0  0  0  0  0  0  0  0  0
    8.0010   -3.0644   -0.6790 C   0  0  0  0  0  0  0  0  0  0  0  0
    8.0717   -1.9858    0.2082 C   0  0  0  0  0  0  0  0  0  0  0  0
    6.9506   -1.1698    0.4121 C   0  0  0  0  0  0  0  0  0  0  0  0
    9.5051   -1.6167    1.1000 Cl  0  0  0  0  0  0  0  0  0  0  0  0
    9.3517   -4.0993   -0.9946 Cl  0  0  0  0  0  0  0  0  0  0  0  0
    3.2621   -0.9450   -0.0483 C   0  0  0  0  0  0  0  0  0  0  0  0
    2.7537   -2.2513    0.0115 N   0  0  0  0  0  0  0  0  0  0  0  0
    3.3042   -3.3279    0.6961 C   0  0  0  0  0  0  0  0  0  0  0  0
    2.5232   -4.4482    0.5135 C   0  0  0  0  0  0  0  0  0  0  0  0
    1.4386   -4.0640   -0.2977 C   0  0  0  0  0  0  0  0  0  0  0  0
    1.5998   -2.7263   -0.5844 C   0  0  0  0  0  0  0  0  0  0  0  0
    0.5118   -0.3937    0.0542 H   0  0  0  0  0  0  0  0  0  0  0  0
    0.8027    0.9522   -1.0566 H   0  0  0  0  0  0  0  0  0  0  0  0
    0.8153    1.1943    0.7067 H   0  0  0  0  0  0  0  0  0  0  0  0
    5.4184    2.8484    0.2195 H   0  0  0  0  0  0  0  0  0  0  0  0
    5.9207    4.9596    0.3850 H   0  0  0  0  0  0  0  0  0  0  0  0
    4.5163    4.7333   -1.9568 H   0  0  0  0  0  0  0  0  0  0  0  0
    5.6150    6.0087   -1.4976 H   0  0  0  0  0  0  0  0  0  0  0  0
    2.6120    6.2333   -0.9497 H   0  0  0  0  0  0  0  0  0  0  0  0
    3.3616    6.6591   -2.4746 H   0  0  0  0  0  0  0  0  0  0  0  0
    3.2282    8.6898   -1.3371 H   0  0  0  0  0  0  0  0  0  0  0  0
    4.9216    8.2484   -1.2751 H   0  0  0  0  0  0  0  0  0  0  0  0
    2.8421    8.1460    0.9535 H   0  0  0  0  0  0  0  0  0  0  0  0
    4.2668    9.1576    0.8433 H   0  0  0  0  0  0  0  0  0  0  0  0
    4.6259    7.4523    2.4816 H   0  0  0  0  0  0  0  0  0  0  0  0
    5.7481    7.2001    1.1586 H   0  0  0  0  0  0  0  0  0  0  0  0
    4.4311    5.1847    2.2734 H   0  0  0  0  0  0  0  0  0  0  0  0
    3.0860    5.6671    1.2651 H   0  0  0  0  0  0  0  0  0  0  0  0
    4.7833   -2.7555   -1.7100 H   0  0  0  0  0  0  0  0  0  0  0  0
    6.7463   -4.1690   -2.0488 H   0  0  0  0  0  0  0  0  0  0  0  0
    7.0102   -0.3432    1.1176 H   0  0  0  0  0  0  0  0  0  0  0  0
    4.2010   -3.2101    1.2863 H   0  0  0  0  0  0  0  0  0  0  0  0
    2.7155   -5.4290    0.9308 H   0  0  0  0  0  0  0  0  0  0  0  0
    0.6295   -4.6980   -0.6425 H   0  0  0  0  0  0  0  0  0  0  0  0
    1.0000   -2.0861   -1.2159 H   0  0  0  0  0  0  0  0  0  0  0  0
  1  2  1  0  0  0  0
  1 30  1  0  0  0  0
  1 31  1  0  0  0  0
  1 32  1  0  0  0  0
  2 24  2  0  0  0  0
  2  3  1  0  0  0  0
  3  4  1  0  0  0  0
  3 14  2  0  0  0  0
  4  5  2  0  0  0  0
  4  6  1  0  0  0  0
  6  7  1  0  0  0  0
  6 33  1  0  0  0  0
  7 13  1  0  0  0  0
  7  8  1  0  0  0  0
  7 34  1  0  0  0  0
  8  9  1  0  0  0  0
  8 35  1  0  0  0  0
  8 36  1  0  0  0  0
  9 10  1  0  0  0  0
  9 37  1  0  0  0  0
  9 38  1  0  0  0  0
 10 11  1  0  0  0  0
 10 39  1  0  0  0  0
 10 40  1  0  0  0  0
 11 12  1  0  0  0  0
 11 41  1  0  0  0  0
 11 42  1  0  0  0  0
 12 13  1  0  0  0  0
 12 43  1  0  0  0  0
 12 44  1  0  0  0  0
 13 45  1  0  0  0  0
 13 46  1  0  0  0  0
 14 15  1  0  0  0  0
 15 16  1  0  0  0  0
 15 24  1  0  0  0  0
 16 21  2  0  0  0  0
 16 17  1  0  0  0  0
 17 18  2  0  0  0  0
 17 47  1  0  0  0  0
 18 19  1  0  0  0  0
 18 48  1  0  0  0  0
 19 20  2  0  0  0  0
 19 23  1  0  0  0  0
 20 21  1  0  0  0  0
 20 22  1  0  0  0  0
 21 49  1  0  0  0  0
 24 25  1  0  0  0  0
 25 29  1  0  0  0  0
 25 26  1  0  0  0  0
 26 27  2  0  0  0  0
 26 50  1  0  0  0  0
 27 28  1  0  0  0  0
 27 51  1  0  0  0  0
 28 29  2  0  0  0  0
 28 52  1  0  0  0  0
 29 53  1  0  0  0  0
M  END
$$$$
CHEMBL1269770
 OpenBabel12022417383D

117122  0  0  0  0  0  0  0  0999 V2000
    2.8402    0.1945    3.1215 C   0  0  0  0  0  0  0  0  0  0  0  0
    2.7116   -0.0543    1.6579 C   0  0  0  0  0  0  0  0  0  0  0  0
    2.4409    0.9590    0.6702 C   0  0  0  0  0  0  0  0  0  0  0  0
    2.1793    2.4167    0.8996 C   0  0  0  0  0  0  0  0  0  0  0  0
    2.1063    2.9078    2.0127 O   0  0  0  0  0  0  0  0  0  0  0  0
    2.0059    3.1514   -0.2637 N   0  0  0  0  0  0  0  0  0  0  0  0
    1.7767    4.5948   -0.2662 C   0  0  0  0  0  0  0  0  0  0  0  0
    0.2873    4.9397   -0.2211 C   0  0  0  0  0  0  0  0  0  0  0  0
    0.0314    6.4530   -0.1831 C   0  0  0  0  0  0  0  0  0  0  0  0
   -1.4669    6.7536   -0.1352 C   0  0  0  0  0  0  0  0  0  0  0  0
   -1.7592    8.2517   -0.0948 C   0  0  0  0  0  0  0  0  0  0  0  0
   -3.2664    8.4722   -0.0241 C   0  0  0  0  0  0  0  0  0  0  0  0
   -3.5910    9.9555    0.0407 C   0  0  0  0  0  0  0  0  0  0  0  0
   -5.0350   10.1953    0.0459 N   0  0  0  0  0  0  0  0  0  0  0  0
   -5.6941    9.6376    1.2417 C   0  0  0  0  0  0  0  0  0  0  0  0
   -5.2901   11.6387    0.0243 C   0  0  0  0  0  0  0  0  0  0  0  0
   -4.8904   12.3776   -1.2556 C   0  0  0  0  0  0  0  0  0  0  0  0
   -5.2196   13.8767   -1.2459 C   0  0  0  0  0  0  0  0  0  0  0  0
   -6.7108   14.2370   -1.1919 C   0  0  0  0  0  0  0  0  0  0  0  0
   -7.4905   13.8818    0.0853 C   0  0  0  0  0  0  0  0  0  0  0  0
   -6.8045   14.3551    1.3809 C   0  0  0  0  0  0  0  0  0  0  0  0
   -7.4289   13.7593    2.6416 C   0  0  0  0  0  0  0  0  0  0  0  0
   -6.8363   14.2909    3.8610 N   0  0  0  0  0  0  0  0  0  0  0  0
   -5.7261   13.7336    4.4732 C   0  0  0  0  0  0  0  0  0  0  0  0
   -5.1382   12.7682    3.9900 O   0  0  0  0  0  0  0  0  0  0  0  0
   -5.2948   14.3975    5.7422 C   0  0  0  0  0  0  0  0  0  0  0  0
   -4.2446   14.0176    6.6372 C   0  0  0  0  0  0  0  0  0  0  0  0
   -4.2602   14.9490    7.6880 C   0  0  0  0  0  0  0  0  0  0  0  0
   -3.4072   15.0040    8.9216 C   0  0  0  0  0  0  0  0  0  0  0  0
   -3.8815   15.5048   10.1480 C   0  0  0  0  0  0  0  0  0  0  0  0
   -3.0151   15.8038   11.2107 C   0  0  0  0  0  0  0  0  0  0  0  0
   -1.6779   15.4450   11.1315 C   0  0  0  0  0  0  0  0  0  0  0  0
   -1.2042   14.8127    9.9911 C   0  0  0  0  0  0  0  0  0  0  0  0
   -2.0548   14.6231    8.8893 C   0  0  0  0  0  0  0  0  0  0  0  0
   -0.6159   15.7859   12.4389 Cl  0  0  0  0  0  0  0  0  0  0  0  0
   -5.3085   15.8353    7.3544 N   0  0  0  0  0  0  0  0  0  0  0  0
   -5.7471   17.0179    8.0388 C   0  0  0  0  0  0  0  0  0  0  0  0
   -4.8025   17.8291    8.6984 C   0  0  0  0  0  0  0  0  0  0  0  0
   -5.2065   18.8651    9.5441 C   0  0  0  0  0  0  0  0  0  0  0  0
   -6.5541   19.1794    9.6461 C   0  0  0  0  0  0  0  0  0  0  0  0
   -7.4998   18.4515    8.9294 C   0  0  0  0  0  0  0  0  0  0  0  0
   -7.1089   17.3628    8.1334 C   0  0  0  0  0  0  0  0  0  0  0  0
   -8.4114   16.4533    7.4424 Cl  0  0  0  0  0  0  0  0  0  0  0  0
   -7.0522   20.4733   10.6623 Cl  0  0  0  0  0  0  0  0  0  0  0  0
   -5.9217   15.4923    6.1935 N   0  0  0  0  0  0  0  0  0  0  0  0
   -3.3492   12.8349    6.4854 C   0  0  0  0  0  0  0  0  0  0  0  0
    2.4670    0.4319   -0.5631 N   0  0  0  0  0  0  0  0  0  0  0  0
    2.6649   -0.9066   -0.3890 N   0  0  0  0  0  0  0  0  0  0  0  0
    2.5298   -1.7651   -1.5307 C   0  0  0  0  0  0  0  0  0  0  0  0
    1.8129   -2.9686   -1.3972 C   0  0  0  0  0  0  0  0  0  0  0  0
    1.6540   -3.8205   -2.4901 C   0  0  0  0  0  0  0  0  0  0  0  0
    2.1938   -3.4663   -3.7243 C   0  0  0  0  0  0  0  0  0  0  0  0
    2.9386   -2.2982   -3.8603 C   0  0  0  0  0  0  0  0  0  0  0  0
    3.1175   -1.4433   -2.7652 C   0  0  0  0  0  0  0  0  0  0  0  0
    4.2289   -0.1365   -2.9904 Cl  0  0  0  0  0  0  0  0  0  0  0  0
    1.9530   -4.4908   -5.0834 Cl  0  0  0  0  0  0  0  0  0  0  0  0
    2.8704   -1.2456    0.9566 C   0  0  0  0  0  0  0  0  0  0  0  0
    3.2485   -2.6112    1.4422 C   0  0  0  0  0  0  0  0  0  0  0  0
    4.0544   -3.4627    0.6702 C   0  0  0  0  0  0  0  0  0  0  0  0
    4.3857   -4.7520    1.1070 C   0  0  0  0  0  0  0  0  0  0  0  0
    4.0014   -5.1713    2.3719 C   0  0  0  0  0  0  0  0  0  0  0  0
    3.2477   -4.3277    3.1804 C   0  0  0  0  0  0  0  0  0  0  0  0
    2.8419   -3.0757    2.6994 C   0  0  0  0  0  0  0  0  0  0  0  0
    4.4557   -6.7301    2.9354 Cl  0  0  0  0  0  0  0  0  0  0  0  0
    3.1903   -0.6798    3.6713 H   0  0  0  0  0  0  0  0  0  0  0  0
    1.8723    0.4843    3.5393 H   0  0  0  0  0  0  0  0  0  0  0  0
    3.5716    0.9831    3.3264 H   0  0  0  0  0  0  0  0  0  0  0  0
    2.0931    2.6408   -1.1371 H   0  0  0  0  0  0  0  0  0  0  0  0
    2.2347    5.0008   -1.1747 H   0  0  0  0  0  0  0  0  0  0  0  0
    2.2922    5.0331    0.5955 H   0  0  0  0  0  0  0  0  0  0  0  0
   -0.1690    4.4719    0.6601 H   0  0  0  0  0  0  0  0  0  0  0  0
   -0.2121    4.5089   -1.0981 H   0  0  0  0  0  0  0  0  0  0  0  0
    0.4685    6.9316   -1.0676 H   0  0  0  0  0  0  0  0  0  0  0  0
    0.5161    6.8929    0.6969 H   0  0  0  0  0  0  0  0  0  0  0  0
   -1.9079    6.2814    0.7517 H   0  0  0  0  0  0  0  0  0  0  0  0
   -1.9624    6.3165   -1.0110 H   0  0  0  0  0  0  0  0  0  0  0  0
   -1.3494    8.7495   -0.9823 H   0  0  0  0  0  0  0  0  0  0  0  0
   -1.2855    8.7078    0.7833 H   0  0  0  0  0  0  0  0  0  0  0  0
   -3.6473    7.9555    0.8623 H   0  0  0  0  0  0  0  0  0  0  0  0
   -3.7552    8.0293   -0.9012 H   0  0  0  0  0  0  0  0  0  0  0  0
   -3.1544   10.4079   -0.8556 H   0  0  0  0  0  0  0  0  0  0  0  0
   -3.1126   10.4268    0.9084 H   0  0  0  0  0  0  0  0  0  0  0  0
   -5.6223    8.5480    1.2780 H   0  0  0  0  0  0  0  0  0  0  0  0
   -6.7729    9.8488    1.2225 H   0  0  0  0  0  0  0  0  0  0  0  0
   -5.2882   10.0539    2.1707 H   0  0  0  0  0  0  0  0  0  0  0  0
   -4.8491   12.1273    0.9010 H   0  0  0  0  0  0  0  0  0  0  0  0
   -6.3632   11.6902    0.1097 H   0  0  0  0  0  0  0  0  0  0  0  0
   -5.3687   11.9063   -2.1208 H   0  0  0  0  0  0  0  0  0  0  0  0
   -3.8085   12.3007   -1.4090 H   0  0  0  0  0  0  0  0  0  0  0  0
   -4.8104   14.3006   -2.1737 H   0  0  0  0  0  0  0  0  0  0  0  0
   -4.6678   14.3760   -0.4419 H   0  0  0  0  0  0  0  0  0  0  0  0
   -7.2097   13.7776   -2.0557 H   0  0  0  0  0  0  0  0  0  0  0  0
   -6.7929   15.3211   -1.3387 H   0  0  0  0  0  0  0  0  0  0  0  0
   -7.7323   12.8210    0.1118 H   0  0  0  0  0  0  0  0  0  0  0  0
   -8.4844   14.3337    0.0170 H   0  0  0  0  0  0  0  0  0  0  0  0
   -6.8602   15.4480    1.4120 H   0  0  0  0  0  0  0  0  0  0  0  0
   -5.7415   14.1070    1.3762 H   0  0  0  0  0  0  0  0  0  0  0  0
   -7.3043   12.6672    2.6360 H   0  0  0  0  0  0  0  0  0  0  0  0
   -8.5015   13.9740    2.6728 H   0  0  0  0  0  0  0  0  0  0  0  0
   -7.2536   15.0886    4.3323 H   0  0  0  0  0  0  0  0  0  0  0  0
   -4.9293   15.7617   10.2836 H   0  0  0  0  0  0  0  0  0  0  0  0
   -3.3931   16.3333   12.0820 H   0  0  0  0  0  0  0  0  0  0  0  0
   -0.1663   14.4944    9.9310 H   0  0  0  0  0  0  0  0  0  0  0  0
   -1.6089   14.1936    7.9997 H   0  0  0  0  0  0  0  0  0  0  0  0
   -3.7337   17.6419    8.6099 H   0  0  0  0  0  0  0  0  0  0  0  0
   -4.4641   19.4060   10.1273 H   0  0  0  0  0  0  0  0  0  0  0  0
   -8.5529   18.7091    9.0188 H   0  0  0  0  0  0  0  0  0  0  0  0
   -3.6034   12.2065    5.6321 H   0  0  0  0  0  0  0  0  0  0  0  0
   -3.4006   12.2033    7.3770 H   0  0  0  0  0  0  0  0  0  0  0  0
   -2.3154   13.1547    6.3291 H   0  0  0  0  0  0  0  0  0  0  0  0
    1.3572   -3.2598   -0.4520 H   0  0  0  0  0  0  0  0  0  0  0  0
    1.1069   -4.7540   -2.3750 H   0  0  0  0  0  0  0  0  0  0  0  0
    3.3945   -2.0569   -4.8175 H   0  0  0  0  0  0  0  0  0  0  0  0
    4.4282   -3.1656   -0.3070 H   0  0  0  0  0  0  0  0  0  0  0  0
    4.9488   -5.4136    0.4525 H   0  0  0  0  0  0  0  0  0  0  0  0
    2.9588   -4.6393    4.1813 H   0  0  0  0  0  0  0  0  0  0  0  0
    2.1991   -2.4797    3.3408 H   0  0  0  0  0  0  0  0  0  0  0  0
  1  2  1  0  0  0  0
  1 65  1  0  0  0  0
  1 66  1  0  0  0  0
  1 67  1  0  0  0  0
  2 57  2  0  0  0  0
  2  3  1  0  0  0  0
  3  4  1  0  0  0  0
  3 47  2  0  0  0  0
  4  5  2  0  0  0  0
  4  6  1  0  0  0  0
  6  7  1  0  0  0  0
  6 68  1  0  0  0  0
  7  8  1  0  0  0  0
  7 69  1  0  0  0  0
  7 70  1  0  0  0  0
  8  9  1  0  0  0  0
  8 71  1  0  0  0  0
  8 72  1  0  0  0  0
  9 10  1  0  0  0  0
  9 73  1  0  0  0  0
  9 74  1  0  0  0  0
 10 11  1  0  0  0  0
 10 75  1  0  0  0  0
 10 76  1  0  0  0  0
 11 12  1  0  0  0  0
 11 77  1  0  0  0  0
 11 78  1  0  0  0  0
 12 13  1  0  0  0  0
 12 79  1  0  0  0  0
 12 80  1  0  0  0  0
 13 14  1  0  0  0  0
 13 81  1  0  0  0  0
 13 82  1  0  0  0  0
 14 15  1  0  0  0  0
 14 16  1  0  0  0  0
 15 83  1  0  0  0  0
 15 84  1  0  0  0  0
 15 85  1  0  0  0  0
 16 17  1  0  0  0  0
 16 86  1  0  0  0  0
 16 87  1  0  0  0  0
 17 18  1  0  0  0  0
 17 88  1  0  0  0  0
 17 89  1  0  0  0  0
 18 19  1  0  0  0  0
 18 90  1  0  0  0  0
 18 91  1  0  0  0  0
 19 20  1  0  0  0  0
 19 92  1  0  0  0  0
 19 93  1  0  0  0  0
 20 21  1  0  0  0  0
 20 94  1  0  0  0  0
 20 95  1  0  0  0  0
 21 22  1  0  0  0  0
 21 96  1  0  0  0  0
 21 97  1  0  0  0  0
 22 23  1  0  0  0  0
 22 98  1  0  0  0  0
 22 99  1  0  0  0  0
 23 24  1  0  0  0  0
 23100  1  0  0  0  0
 24 25  2  0  0  0  0
 24 26  1  0  0  0  0
 26 45  2  0  0  0  0
 26 27  1  0  0  0  0
 27 28  2  0  0  0  0
 27 46  1  0  0  0  0
 28 29  1  0  0  0  0
 28 36  1  0  0  0  0
 29 34  2  0  0  0  0
 29 30  1  0  0  0  0
 30 31  2  0  0  0  0
 30101  1  0  0  0  0
 31 32  1  0  0  0  0
 31102  1  0  0  0  0
 32 33  2  0  0  0  0
 32 35  1  0  0  0  0
 33 34  1  0  0  0  0
 33103  1  0  0  0  0
 34104  1  0  0  0  0
 36 37  1  0  0  0  0
 36 45  1  0  0  0  0
 37 42  2  0  0  0  0
 37 38  1  0  0  0  0
 38 39  2  0  0  0  0
 38105  1  0  0  0  0
 39 40  1  0  0  0  0
 39106  1  0  0  0  0
 40 41  2  0  0  0  0
 40 44  1  0  0  0  0
 41 42  1  0  0  0  0
 41107  1  0  0  0  0
 42 43  1  0  0  0  0
 46108  1  0  0  0  0
 46109  1  0  0  0  0
 46110  1  0  0  0  0
 47 48  1  0  0  0  0
 48 49  1  0  0  0  0
 48 57  1  0  0  0  0
 49 54  2  0  0  0  0
 49 50  1  0  0  0  0
 50 51  2  0  0  0  0
 50111  1  0  0  0  0
 51 52  1  0  0  0  0
 51112  1  0  0  0  0
 52 53  2  0  0  0  0
 52 56  1  0  0  0  0
 53 54  1  0  0  0  0
 53113  1  0  0  0  0
 54 55  1  0  0  0  0
 57 58  1  0  0  0  0
 58 63  2  0  0  0  0
 58 59  1  0  0  0  0
 59 60  2  0  0  0  0
 59114  1  0  0  0  0
 60 61  1  0  0  0  0
 60115  1  0  0  0  0
 61 62  2  0  0  0  0
 61 64  1  0  0  0  0
 62 63  1  0  0  0  0
 62116  1  0  0  0  0
 63117  1  0  0  0  0
M  END
$$$$
CHEMBL4068853
 OpenBabel12022417383D

 73 76  0  0  0  0  0  0  0  0999 V2000
    1.0958    0.2344    0.1511 C   0  0  0  0  0  0  0  0  0  0  0  0
    2.5789    0.0792    0.0612 C   0  0  0  0  0  0  0  0  0  0  0  0
    3.5421    1.0796   -0.0183 C   0  0  0  0  0  0  0  0  0  0  0  0
    3.3276    2.5551   -0.0828 C   0  0  0  0  0  0  0  0  0  0  0  0
    2.2056    3.0544   -0.1349 O   0  0  0  0  0  0  0  0  0  0  0  0
    4.5204    3.2843   -0.0794 N   0  0  0  0  0  0  0  0  0  0  0  0
    4.6344    4.7157   -0.0864 N   0  0  0  0  0  0  0  0  0  0  0  0
    4.2366    5.3378   -1.3587 C   0  0  0  0  0  0  0  0  0  0  0  0
    4.5830    6.8348   -1.3775 C   0  0  0  0  0  0  0  0  0  0  0  0
    3.9725    7.5753   -0.1929 C   0  0  0  0  0  0  0  0  0  0  0  0
    4.3303    6.8694    1.1120 C   0  0  0  0  0  0  0  0  0  0  0  0
    3.9905    5.3732    1.0613 C   0  0  0  0  0  0  0  0  0  0  0  0
    4.7999    0.5064   -0.0291 N   0  0  0  0  0  0  0  0  0  0  0  0
    4.6488   -0.8096    0.0350 C   0  0  0  0  0  0  0  0  0  0  0  0
    5.7845   -1.7718   -0.0386 C   0  0  0  0  0  0  0  0  0  0  0  0
    7.0079   -1.5605    0.6273 C   0  0  0  0  0  0  0  0  0  0  0  0
    7.9804   -2.5732    0.6849 C   0  0  0  0  0  0  0  0  0  0  0  0
    7.7322   -3.8158    0.1135 C   0  0  0  0  0  0  0  0  0  0  0  0
    6.5665   -4.0273   -0.6054 C   0  0  0  0  0  0  0  0  0  0  0  0
    5.6472   -2.9840   -0.7470 C   0  0  0  0  0  0  0  0  0  0  0  0
    8.8649   -5.0956    0.2943 Cl  0  0  0  0  0  0  0  0  0  0  0  0
    7.3973   -0.0867    1.4476 Cl  0  0  0  0  0  0  0  0  0  0  0  0
    3.2764   -1.1377    0.1144 N   0  0  0  0  0  0  0  0  0  0  0  0
    2.7040   -2.4601    0.1457 C   0  0  0  0  0  0  0  0  0  0  0  0
    3.2978   -3.5179    0.8544 C   0  0  0  0  0  0  0  0  0  0  0  0
    2.8691   -4.8441    0.6620 C   0  0  0  0  0  0  0  0  0  0  0  0
    1.7566   -5.1092   -0.1332 C   0  0  0  0  0  0  0  0  0  0  0  0
    1.1266   -4.0557   -0.7945 C   0  0  0  0  0  0  0  0  0  0  0  0
    1.6105   -2.7494   -0.6785 C   0  0  0  0  0  0  0  0  0  0  0  0
    1.3488   -6.4188   -0.2451 O   0  0  0  0  0  0  0  0  0  0  0  0
   -0.2533   -6.7349   -0.3982 S   0  0  0  0  0  0  0  0  0  0  0  0
   -0.9464   -6.2004    0.7625 O   0  0  0  0  0  0  0  0  0  0  0  0
   -0.6760   -6.4225   -1.7399 O   0  0  0  0  0  0  0  0  0  0  0  0
   -0.2056   -8.5160   -0.2444 C   0  0  0  0  0  0  0  0  0  0  0  0
   -1.6390   -9.0532   -0.3312 C   0  0  0  0  0  0  0  0  0  0  0  0
   -1.8084  -10.5890   -0.2609 C   0  0  0  0  0  0  0  0  0  0  0  0
   -1.3061  -11.1322    1.0846 C   0  0  0  0  0  0  0  0  0  0  0  0
   -3.3100  -10.9131   -0.3947 C   0  0  0  0  0  0  0  0  0  0  0  0
   -1.0567  -11.2759   -1.4106 C   0  0  0  0  0  0  0  0  0  0  0  0
    0.5608   -0.6899    0.3765 H   0  0  0  0  0  0  0  0  0  0  0  0
    0.7028    0.6299   -0.7925 H   0  0  0  0  0  0  0  0  0  0  0  0
    0.8304    0.9295    0.9535 H   0  0  0  0  0  0  0  0  0  0  0  0
    5.3791    2.7385   -0.0138 H   0  0  0  0  0  0  0  0  0  0  0  0
    3.1620    5.2146   -1.5386 H   0  0  0  0  0  0  0  0  0  0  0  0
    4.7676    4.8593   -2.1898 H   0  0  0  0  0  0  0  0  0  0  0  0
    4.2299    7.2907   -2.3121 H   0  0  0  0  0  0  0  0  0  0  0  0
    5.6731    6.9662   -1.3589 H   0  0  0  0  0  0  0  0  0  0  0  0
    2.8824    7.6164   -0.3052 H   0  0  0  0  0  0  0  0  0  0  0  0
    4.3297    8.6147   -0.1634 H   0  0  0  0  0  0  0  0  0  0  0  0
    3.7940    7.3470    1.9416 H   0  0  0  0  0  0  0  0  0  0  0  0
    5.4008    7.0028    1.3085 H   0  0  0  0  0  0  0  0  0  0  0  0
    4.3401    4.9156    1.9939 H   0  0  0  0  0  0  0  0  0  0  0  0
    2.9009    5.2574    1.0243 H   0  0  0  0  0  0  0  0  0  0  0  0
    8.9192   -2.3983    1.2050 H   0  0  0  0  0  0  0  0  0  0  0  0
    6.3466   -5.0005   -1.0387 H   0  0  0  0  0  0  0  0  0  0  0  0
    4.7649   -3.1779   -1.3550 H   0  0  0  0  0  0  0  0  0  0  0  0
    4.1413   -3.3506    1.5230 H   0  0  0  0  0  0  0  0  0  0  0  0
    3.4153   -5.6600    1.1306 H   0  0  0  0  0  0  0  0  0  0  0  0
    0.2742   -4.2146   -1.4491 H   0  0  0  0  0  0  0  0  0  0  0  0
    1.1423   -1.9920   -1.3039 H   0  0  0  0  0  0  0  0  0  0  0  0
    0.2635   -8.7534    0.7133 H   0  0  0  0  0  0  0  0  0  0  0  0
    0.4155   -8.8846   -1.0652 H   0  0  0  0  0  0  0  0  0  0  0  0
   -2.0883   -8.6969   -1.2686 H   0  0  0  0  0  0  0  0  0  0  0  0
   -2.2356   -8.5941    0.4712 H   0  0  0  0  0  0  0  0  0  0  0  0
   -1.8449  -10.6717    1.9209 H   0  0  0  0  0  0  0  0  0  0  0  0
   -0.2381  -10.9395    1.2271 H   0  0  0  0  0  0  0  0  0  0  0  0
   -1.4540  -12.2158    1.1510 H   0  0  0  0  0  0  0  0  0  0  0  0
   -3.8897  -10.4575    0.4166 H   0  0  0  0  0  0  0  0  0  0  0  0
   -3.4883  -11.9936   -0.3651 H   0  0  0  0  0  0  0  0  0  0  0  0
   -3.7139  -10.5359   -1.3419 H   0  0  0  0  0  0  0  0  0  0  0  0
    0.0239  -11.1163   -1.3431 H   0  0  0  0  0  0  0  0  0  0  0  0
   -1.3939  -10.8962   -2.3818 H   0  0  0  0  0  0  0  0  0  0  0  0
   -1.2266  -12.3584   -1.3999 H   0  0  0  0  0  0  0  0  0  0  0  0
  1  2  1  0  0  0  0
  1 40  1  0  0  0  0
  1 41  1  0  0  0  0
  1 42  1  0  0  0  0
  2 23  1  0  0  0  0
  2  3  2  0  0  0  0
  3  4  1  0  0  0  0
  3 13  1  0  0  0  0
  4  5  2  0  0  0  0
  4  6  1  0  0  0  0
  6  7  1  0  0  0  0
  6 43  1  0  0  0  0
  7 12  1  0  0  0  0
  7  8  1  0  0  0  0
  8  9  1  0  0  0  0
  8 44  1  0  0  0  0
  8 45  1  0  0  0  0
  9 10  1  0  0  0  0
  9 46  1  0  0  0  0
  9 47  1  0  0  0  0
 10 11  1  0  0  0  0
 10 48  1  0  0  0  0
 10 49  1  0  0  0  0
 11 12  1  0  0  0  0
 11 50  1  0  0  0  0
 11 51  1  0  0  0  0
 12 52  1  0  0  0  0
 12 53  1  0  0  0  0
 13 14  2  0  0  0  0
 14 15  1  0  0  0  0
 14 23  1  0  0  0  0
 15 20  2  0  0  0  0
 15 16  1  0  0  0  0
 16 17  2  0  0  0  0
 16 22  1  0  0  0  0
 17 18  1  0  0  0  0
 17 54  1  0  0  0  0
 18 19  2  0  0  0  0
 18 21  1  0  0  0  0
 19 20  1  0  0  0  0
 19 55  1  0  0  0  0
 20 56  1  0  0  0  0
 23 24  1  0  0  0  0
 24 29  2  0  0  0  0
 24 25  1  0  0  0  0
 25 26  2  0  0  0  0
 25 57  1  0  0  0  0
 26 27  1  0  0  0  0
 26 58  1  0  0  0  0
 27 28  2  0  0  0  0
 27 30  1  0  0  0  0
 28 29  1  0  0  0  0
 28 59  1  0  0  0  0
 29 60  1  0  0  0  0
 30 31  1  0  0  0  0
 31 32  2  0  0  0  0
 31 33  2  0  0  0  0
 31 34  1  0  0  0  0
 34 35  1  0  0  0  0
 34 61  1  0  0  0  0
 34 62  1  0  0  0  0
 35 36  1  0  0  0  0
 35 63  1  0  0  0  0
 35 64  1  0  0  0  0
 36 37  1  0  0  0  0
 36 38  1  0  0  0  0
 36 39  1  0  0  0  0
 37 65  1  0  0  0  0
 37 66  1  0  0  0  0
 37 67  1  0  0  0  0
 38 68  1  0  0  0  0
 38 69  1  0  0  0  0
 38 70  1  0  0  0  0
 39 71  1  0  0  0  0
 39 72  1  0  0  0  0
 39 73  1  0  0  0  0
M  END
$$$$
CHEMBL4105382
 OpenBabel12022417383D

 64 67  0  0  0  0  0  0  0  0999 V2000
    1.0846    0.2866    0.1758 C   0  0  0  0  0  0  0  0  0  0  0  0
    2.5637    0.1170    0.0657 C   0  0  0  0  0  0  0  0  0  0  0  0
    3.5255    1.1160   -0.0103 C   0  0  0  0  0  0  0  0  0  0  0  0
    3.3070    2.5812   -0.0617 C   0  0  0  0  0  0  0  0  0  0  0  0
    2.1796    3.0858   -0.1184 O   0  0  0  0  0  0  0  0  0  0  0  0
    4.4987    3.3086   -0.0485 N   0  0  0  0  0  0  0  0  0  0  0  0
    4.6113    4.7337   -0.0587 N   0  0  0  0  0  0  0  0  0  0  0  0
    4.2119    5.3468   -1.3338 C   0  0  0  0  0  0  0  0  0  0  0  0
    4.5620    6.8409   -1.3586 C   0  0  0  0  0  0  0  0  0  0  0  0
    3.9516    7.5849   -0.1744 C   0  0  0  0  0  0  0  0  0  0  0  0
    4.3041    6.8840    1.1334 C   0  0  0  0  0  0  0  0  0  0  0  0
    3.9611    5.3880    1.0862 C   0  0  0  0  0  0  0  0  0  0  0  0
    4.7838    0.5461   -0.0274 N   0  0  0  0  0  0  0  0  0  0  0  0
    4.6322   -0.7700    0.0389 C   0  0  0  0  0  0  0  0  0  0  0  0
    5.7685   -1.7302   -0.0290 C   0  0  0  0  0  0  0  0  0  0  0  0
    6.9794   -1.5246    0.6625 C   0  0  0  0  0  0  0  0  0  0  0  0
    7.9590   -2.5296    0.7160 C   0  0  0  0  0  0  0  0  0  0  0  0
    7.7353   -3.7567    0.1022 C   0  0  0  0  0  0  0  0  0  0  0  0
    6.5879   -3.9571   -0.6506 C   0  0  0  0  0  0  0  0  0  0  0  0
    5.6499   -2.9263   -0.7674 C   0  0  0  0  0  0  0  0  0  0  0  0
    8.8733   -5.0326    0.2807 Cl  0  0  0  0  0  0  0  0  0  0  0  0
    7.3417   -0.0660    1.5225 Cl  0  0  0  0  0  0  0  0  0  0  0  0
    3.2593   -1.0966    0.1145 N   0  0  0  0  0  0  0  0  0  0  0  0
    2.6837   -2.4156    0.1457 C   0  0  0  0  0  0  0  0  0  0  0  0
    3.2666   -3.4627    0.8796 C   0  0  0  0  0  0  0  0  0  0  0  0
    2.8207   -4.7866    0.7184 C   0  0  0  0  0  0  0  0  0  0  0  0
    1.7292   -5.0651   -0.1031 C   0  0  0  0  0  0  0  0  0  0  0  0
    1.1202   -4.0186   -0.7982 C   0  0  0  0  0  0  0  0  0  0  0  0
    1.5969   -2.7079   -0.6842 C   0  0  0  0  0  0  0  0  0  0  0  0
    1.3210   -6.3789   -0.2037 O   0  0  0  0  0  0  0  0  0  0  0  0
   -0.2709   -6.7065   -0.3809 S   0  0  0  0  0  0  0  0  0  0  0  0
   -0.9878   -6.1770    0.7614 O   0  0  0  0  0  0  0  0  0  0  0  0
   -0.6766   -6.4057   -1.7410 O   0  0  0  0  0  0  0  0  0  0  0  0
   -0.2255   -8.4890   -0.2205 C   0  0  0  0  0  0  0  0  0  0  0  0
   -1.6578   -9.0190   -0.2979 C   0  0  0  0  0  0  0  0  0  0  0  0
   -1.7378  -10.5255   -0.1939 C   0  0  0  0  0  0  0  0  0  0  0  0
   -1.0264  -11.0738   -1.2125 F   0  0  0  0  0  0  0  0  0  0  0  0
    0.5478   -0.6291    0.4289 H   0  0  0  0  0  0  0  0  0  0  0  0
    0.6827    0.6700   -0.7683 H   0  0  0  0  0  0  0  0  0  0  0  0
    0.8421    1.0034    0.9670 H   0  0  0  0  0  0  0  0  0  0  0  0
    5.3538    2.7613    0.0011 H   0  0  0  0  0  0  0  0  0  0  0  0
    3.1380    5.2178   -1.5159 H   0  0  0  0  0  0  0  0  0  0  0  0
    4.7445    4.8617   -2.1610 H   0  0  0  0  0  0  0  0  0  0  0  0
    4.2116    7.2928   -2.2938 H   0  0  0  0  0  0  0  0  0  0  0  0
    5.6521    6.9666   -1.3362 H   0  0  0  0  0  0  0  0  0  0  0  0
    2.8616    7.6276   -0.2885 H   0  0  0  0  0  0  0  0  0  0  0  0
    4.3106    8.6208   -0.1544 H   0  0  0  0  0  0  0  0  0  0  0  0
    3.7676    7.3628    1.9609 H   0  0  0  0  0  0  0  0  0  0  0  0
    5.3755    7.0114    1.3345 H   0  0  0  0  0  0  0  0  0  0  0  0
    4.3048    4.9300    2.0200 H   0  0  0  0  0  0  0  0  0  0  0  0
    2.8711    5.2747    1.0442 H   0  0  0  0  0  0  0  0  0  0  0  0
    8.8840   -2.3618    1.2625 H   0  0  0  0  0  0  0  0  0  0  0  0
    6.3988   -4.9144   -1.1315 H   0  0  0  0  0  0  0  0  0  0  0  0
    4.7777   -3.1113   -1.3926 H   0  0  0  0  0  0  0  0  0  0  0  0
    4.0974   -3.2837    1.5599 H   0  0  0  0  0  0  0  0  0  0  0  0
    3.3352   -5.5936    1.2367 H   0  0  0  0  0  0  0  0  0  0  0  0
    0.2848   -4.1899   -1.4708 H   0  0  0  0  0  0  0  0  0  0  0  0
    1.1313   -1.9500   -1.3092 H   0  0  0  0  0  0  0  0  0  0  0  0
    0.2379   -8.7320    0.7400 H   0  0  0  0  0  0  0  0  0  0  0  0
    0.3905   -8.8825   -1.0362 H   0  0  0  0  0  0  0  0  0  0  0  0
   -2.1022   -8.7096   -1.2516 H   0  0  0  0  0  0  0  0  0  0  0  0
   -2.2651   -8.5712    0.4971 H   0  0  0  0  0  0  0  0  0  0  0  0
   -2.7740  -10.8618   -0.2834 H   0  0  0  0  0  0  0  0  0  0  0  0
   -1.3267  -10.8927    0.7502 H   0  0  0  0  0  0  0  0  0  0  0  0
  1  2  1  0  0  0  0
  1 38  1  0  0  0  0
  1 39  1  0  0  0  0
  1 40  1  0  0  0  0
  2 23  1  0  0  0  0
  2  3  2  0  0  0  0
  3  4  1  0  0  0  0
  3 13  1  0  0  0  0
  4  5  2  0  0  0  0
  4  6  1  0  0  0  0
  6  7  1  0  0  0  0
  6 41  1  0  0  0  0
  7 12  1  0  0  0  0
  7  8  1  0  0  0  0
  8  9  1  0  0  0  0
  8 42  1  0  0  0  0
  8 43  1  0  0  0  0
  9 10  1  0  0  0  0
  9 44  1  0  0  0  0
  9 45  1  0  0  0  0
 10 11  1  0  0  0  0
 10 46  1  0  0  0  0
 10 47  1  0  0  0  0
 11 12  1  0  0  0  0
 11 48  1  0  0  0  0
 11 49  1  0  0  0  0
 12 50  1  0  0  0  0
 12 51  1  0  0  0  0
 13 14  2  0  0  0  0
 14 15  1  0  0  0  0
 14 23  1  0  0  0  0
 15 20  2  0  0  0  0
 15 16  1  0  0  0  0
 16 17  2  0  0  0  0
 16 22  1  0  0  0  0
 17 18  1  0  0  0  0
 17 52  1  0  0  0  0
 18 19  2  0  0  0  0
 18 21  1  0  0  0  0
 19 20  1  0  0  0  0
 19 53  1  0  0  0  0
 20 54  1  0  0  0  0
 23 24  1  0  0  0  0
 24 29  2  0  0  0  0
 24 25  1  0  0  0  0
 25 26  2  0  0  0  0
 25 55  1  0  0  0  0
 26 27  1  0  0  0  0
 26 56  1  0  0  0  0
 27 28  2  0  0  0  0
 27 30  1  0  0  0  0
 28 29  1  0  0  0  0
 28 57  1  0  0  0  0
 29 58  1  0  0  0  0
 30 31  1  0  0  0  0
 31 32  2  0  0  0  0
 31 33  2  0  0  0  0
 31 34  1  0  0  0  0
 34 35  1  0  0  0  0
 34 59  1  0  0  0  0
 34 60  1  0  0  0  0
 35 36  1  0  0  0  0
 35 61  1  0  0  0  0
 35 62  1  0  0  0  0
 36 37  1  0  0  0  0
 36 63  1  0  0  0  0
 36 64  1  0  0  0  0
M  END
$$$$
CHEMBL4090706
 OpenBabel12022417383D

 66 69  0  0  1  0  0  0  0  0999 V2000
    1.0836    0.3665    0.1195 C   0  0  0  0  0  0  0  0  0  0  0  0
    2.5694    0.2005    0.0599 C   0  0  0  0  0  0  0  0  0  0  0  0
    3.5312    1.2053    0.0737 C   0  0  0  0  0  0  0  0  0  0  0  0
    3.2680    2.6541    0.1071 C   0  0  0  0  0  0  0  0  0  0  0  0
    2.1217    3.1065    0.0653 O   0  0  0  0  0  0  0  0  0  0  0  0
    4.3680    3.5016    0.2177 N   0  0  0  0  0  0  0  0  0  0  0  0
    4.1298    4.9392    0.3436 C   0  0  2  0  0  0  0  0  0  0  0  0
    5.2357    5.8571   -0.1945 C   0  0  0  0  0  0  0  0  0  0  0  0
    4.6957    7.2971   -0.2782 C   0  0  0  0  0  0  0  0  0  0  0  0
    4.0972    7.8028    1.0403 C   0  0  0  0  0  0  0  0  0  0  0  0
    3.1726    6.7951    1.7179 C   0  0  0  0  0  0  0  0  0  0  0  0
    3.7902    5.3978    1.7838 C   0  0  1  0  0  0  0  0  0  0  0  0
    2.8657    4.5379    2.4444 O   0  0  0  0  0  0  0  0  0  0  0  0
    4.7881    0.6514    0.0454 N   0  0  0  0  0  0  0  0  0  0  0  0
    4.6384   -0.6654    0.0219 C   0  0  0  0  0  0  0  0  0  0  0  0
    5.7782   -1.6119   -0.0869 C   0  0  0  0  0  0  0  0  0  0  0  0
    6.9740   -1.4386    0.6375 C   0  0  0  0  0  0  0  0  0  0  0  0
    7.9500   -2.4457    0.6620 C   0  0  0  0  0  0  0  0  0  0  0  0
    7.7378   -3.6399   -0.0173 C   0  0  0  0  0  0  0  0  0  0  0  0
    6.6075   -3.8019   -0.8054 C   0  0  0  0  0  0  0  0  0  0  0  0
    5.6714   -2.7673   -0.8891 C   0  0  0  0  0  0  0  0  0  0  0  0
    8.8688   -4.9261    0.1283 Cl  0  0  0  0  0  0  0  0  0  0  0  0
    7.3178   -0.0258    1.5785 Cl  0  0  0  0  0  0  0  0  0  0  0  0
    3.2670   -1.0070    0.0656 N   0  0  0  0  0  0  0  0  0  0  0  0
    2.7010   -2.3313    0.0615 C   0  0  0  0  0  0  0  0  0  0  0  0
    3.3083   -3.3901    0.7572 C   0  0  0  0  0  0  0  0  0  0  0  0
    2.8671   -4.7121    0.5844 C   0  0  0  0  0  0  0  0  0  0  0  0
    1.7490   -4.9799   -0.2003 C   0  0  0  0  0  0  0  0  0  0  0  0
    1.1119   -3.9266   -0.8576 C   0  0  0  0  0  0  0  0  0  0  0  0
    1.5911   -2.6159   -0.7407 C   0  0  0  0  0  0  0  0  0  0  0  0
    1.3481   -6.2928   -0.2970 O   0  0  0  0  0  0  0  0  0  0  0  0
   -0.2499   -6.6301   -0.4058 S   0  0  0  0  0  0  0  0  0  0  0  0
   -0.9247   -6.1251    0.7718 O   0  0  0  0  0  0  0  0  0  0  0  0
   -0.7179   -6.3239   -1.7492 O   0  0  0  0  0  0  0  0  0  0  0  0
   -0.1783   -8.4059   -0.2666 C   0  0  0  0  0  0  0  0  0  0  0  0
   -1.6061   -8.9434   -0.3191 C   0  0  0  0  0  0  0  0  0  0  0  0
   -1.6726  -10.4452   -0.2283 C   0  0  0  0  0  0  0  0  0  0  0  0
   -0.4515  -11.0053   -0.1272 F   0  0  0  0  0  0  0  0  0  0  0  0
   -2.3921  -10.8297    0.8495 F   0  0  0  0  0  0  0  0  0  0  0  0
   -2.2723  -10.9617   -1.3199 F   0  0  0  0  0  0  0  0  0  0  0  0
    0.5403   -0.5487    0.3563 H   0  0  0  0  0  0  0  0  0  0  0  0
    0.7149    0.7505   -0.8380 H   0  0  0  0  0  0  0  0  0  0  0  0
    0.8080    1.0803    0.9026 H   0  0  0  0  0  0  0  0  0  0  0  0
    5.2428    3.0695    0.4984 H   0  0  0  0  0  0  0  0  0  0  0  0
    3.2476    5.1296   -0.2816 H   0  0  0  0  0  0  0  0  0  0  0  0
    5.5643    5.5359   -1.1891 H   0  0  0  0  0  0  0  0  0  0  0  0
    6.1185    5.8309    0.4568 H   0  0  0  0  0  0  0  0  0  0  0  0
    3.9204    7.3381   -1.0531 H   0  0  0  0  0  0  0  0  0  0  0  0
    5.4906    7.9815   -0.5997 H   0  0  0  0  0  0  0  0  0  0  0  0
    3.5400    8.7302    0.8543 H   0  0  0  0  0  0  0  0  0  0  0  0
    4.9094    8.0595    1.7294 H   0  0  0  0  0  0  0  0  0  0  0  0
    2.2214    6.7398    1.1704 H   0  0  0  0  0  0  0  0  0  0  0  0
    2.9065    7.1387    2.7250 H   0  0  0  0  0  0  0  0  0  0  0  0
    4.6993    5.4179    2.3989 H   0  0  0  0  0  0  0  0  0  0  0  0
    2.2273    4.2225    1.7745 H   0  0  0  0  0  0  0  0  0  0  0  0
    8.8608   -2.3067    1.2388 H   0  0  0  0  0  0  0  0  0  0  0  0
    6.4282   -4.7347   -1.3352 H   0  0  0  0  0  0  0  0  0  0  0  0
    4.8066   -2.9209   -1.5333 H   0  0  0  0  0  0  0  0  0  0  0  0
    4.1532   -3.2204    1.4217 H   0  0  0  0  0  0  0  0  0  0  0  0
    3.4038   -5.5245    1.0696 H   0  0  0  0  0  0  0  0  0  0  0  0
    0.2507   -4.0903   -1.5002 H   0  0  0  0  0  0  0  0  0  0  0  0
    1.1028   -1.8507   -1.3387 H   0  0  0  0  0  0  0  0  0  0  0  0
    0.3098   -8.6555    0.6804 H   0  0  0  0  0  0  0  0  0  0  0  0
    0.4216   -8.7847   -1.1012 H   0  0  0  0  0  0  0  0  0  0  0  0
   -2.0930   -8.6190   -1.2458 H   0  0  0  0  0  0  0  0  0  0  0  0
   -2.1928   -8.5083    0.4983 H   0  0  0  0  0  0  0  0  0  0  0  0
  1  2  1  0  0  0  0
  1 41  1  0  0  0  0
  1 42  1  0  0  0  0
  1 43  1  0  0  0  0
  2 24  1  0  0  0  0
  2  3  2  0  0  0  0
  3  4  1  0  0  0  0
  3 14  1  0  0  0  0
  4  5  2  0  0  0  0
  4  6  1  0  0  0  0
  6 44  1  0  0  0  0
  7  6  1  0  0  0  0
  7  8  1  0  0  0  0
  7 12  1  0  0  0  0
  7 45  1  6  0  0  0
  8  9  1  0  0  0  0
  8 46  1  0  0  0  0
  8 47  1  0  0  0  0
  9 10  1  0  0  0  0
  9 48  1  0  0  0  0
  9 49  1  0  0  0  0
 10 11  1  0  0  0  0
 10 50  1  0  0  0  0
 10 51  1  0  0  0  0
 11 12  1  0  0  0  0
 11 52  1  0  0  0  0
 11 53  1  0  0  0  0
 12 13  1  0  0  0  0
 12 54  1  1  0  0  0
 13 55  1  0  0  0  0
 14 15  2  0  0  0  0
 15 16  1  0  0  0  0
 15 24  1  0  0  0  0
 16 21  2  0  0  0  0
 16 17  1  0  0  0  0
 17 18  2  0  0  0  0
 17 23  1  0  0  0  0
 18 19  1  0  0  0  0
 18 56  1  0  0  0  0
 19 20  2  0  0  0  0
 19 22  1  0  0  0  0
 20 21  1  0  0  0  0
 20 57  1  0  0  0  0
 21 58  1  0  0  0  0
 24 25  1  0  0  0  0
 25 30  2  0  0  0  0
 25 26  1  0  0  0  0
 26 27  2  0  0  0  0
 26 59  1  0  0  0  0
 27 28  1  0  0  0  0
 27 60  1  0  0  0  0
 28 29  2  0  0  0  0
 28 31  1  0  0  0  0
 29 30  1  0  0  0  0
 29 61  1  0  0  0  0
 30 62  1  0  0  0  0
 31 32  1  0  0  0  0
 32 33  2  0  0  0  0
 32 34  2  0  0  0  0
 32 35  1  0  0  0  0
 35 36  1  0  0  0  0
 35 63  1  0  0  0  0
 35 64  1  0  0  0  0
 36 37  1  0  0  0  0
 36 65  1  0  0  0  0
 36 66  1  0  0  0  0
 37 38  1  0  0  0  0
 37 39  1  0  0  0  0
 37 40  1  0  0  0  0
M  END
$$$$
CHEMBL2030939
 OpenBabel12022417383D

 60 63  0  0  1  0  0  0  0  0999 V2000
    5.7418   -5.9694    0.7763 C   0  0  0  0  0  0  0  0  0  0  0  0
    4.8610   -4.7327    0.7635 C   0  0  0  0  0  0  0  0  0  0  0  0
    4.9751   -4.1167   -0.5262 O   0  0  0  0  0  0  0  0  0  0  0  0
    6.0439   -3.2907   -0.6763 C   0  0  0  0  0  0  0  0  0  0  0  0
    6.7251   -2.8881    0.2604 O   0  0  0  0  0  0  0  0  0  0  0  0
    6.2985   -2.9889   -2.0011 N   0  0  0  0  0  0  0  0  0  0  0  0
    7.5240   -2.2755   -2.3202 C   0  0  0  0  0  0  0  0  0  0  0  0
    7.2472   -1.2113   -3.3692 C   0  0  0  0  0  0  0  0  0  0  0  0
    6.6100   -1.8174   -4.6215 C   0  0  0  0  0  0  0  0  0  0  0  0
    5.3646   -2.6694   -4.2980 C   0  0  2  0  0  0  0  0  0  0  0  0
    5.6391   -3.6524   -3.1330 C   0  0  0  0  0  0  0  0  0  0  0  0
    4.8140   -3.3109   -5.5000 N   0  0  0  0  0  0  0  0  0  0  0  0
    5.4902   -4.2537   -6.2493 C   0  0  0  0  0  0  0  0  0  0  0  0
    6.5790   -4.7004   -5.9011 O   0  0  0  0  0  0  0  0  0  0  0  0
    4.8130   -4.6778   -7.5083 C   0  0  0  0  0  0  0  0  0  0  0  0
    5.3255   -5.5260   -8.5340 C   0  0  0  0  0  0  0  0  0  0  0  0
    4.3205   -5.6154   -9.5099 C   0  0  0  0  0  0  0  0  0  0  0  0
    4.3651   -6.3152  -10.8268 C   0  0  0  0  0  0  0  0  0  0  0  0
    3.7800   -5.7910  -11.9937 C   0  0  0  0  0  0  0  0  0  0  0  0
    3.6746   -6.5480  -13.1711 C   0  0  0  0  0  0  0  0  0  0  0  0
    4.2690   -7.8012  -13.2457 C   0  0  0  0  0  0  0  0  0  0  0  0
    4.9633   -8.3005  -12.1522 C   0  0  0  0  0  0  0  0  0  0  0  0
    4.9868   -7.5764  -10.9514 C   0  0  0  0  0  0  0  0  0  0  0  0
    4.1367   -8.7358  -14.6823 Cl  0  0  0  0  0  0  0  0  0  0  0  0
    3.2688   -4.8134   -9.0161 N   0  0  0  0  0  0  0  0  0  0  0  0
    1.9736   -4.5609   -9.5902 C   0  0  0  0  0  0  0  0  0  0  0  0
    1.3297   -5.5767  -10.3251 C   0  0  0  0  0  0  0  0  0  0  0  0
    0.1789   -5.3061  -11.0743 C   0  0  0  0  0  0  0  0  0  0  0  0
   -0.3847   -4.0383  -11.0336 C   0  0  0  0  0  0  0  0  0  0  0  0
    0.1751   -3.0499  -10.2299 C   0  0  0  0  0  0  0  0  0  0  0  0
    1.3513   -3.3003   -9.5041 C   0  0  0  0  0  0  0  0  0  0  0  0
    1.9945   -1.9284   -8.6625 Cl  0  0  0  0  0  0  0  0  0  0  0  0
   -1.7678   -3.6828  -11.9927 Cl  0  0  0  0  0  0  0  0  0  0  0  0
    3.5828   -4.2462   -7.8199 N   0  0  0  0  0  0  0  0  0  0  0  0
    6.6789   -6.1544   -8.5703 C   0  0  0  0  0  0  0  0  0  0  0  0
    5.6193   -6.5353    1.7015 H   0  0  0  0  0  0  0  0  0  0  0  0
    6.7973   -5.6949    0.6693 H   0  0  0  0  0  0  0  0  0  0  0  0
    5.4998   -6.6143   -0.0757 H   0  0  0  0  0  0  0  0  0  0  0  0
    5.1170   -4.0433    1.5764 H   0  0  0  0  0  0  0  0  0  0  0  0
    3.8129   -5.0171    0.8999 H   0  0  0  0  0  0  0  0  0  0  0  0
    8.2513   -3.0114   -2.6865 H   0  0  0  0  0  0  0  0  0  0  0  0
    7.9592   -1.8119   -1.4286 H   0  0  0  0  0  0  0  0  0  0  0  0
    8.1817   -0.7042   -3.6335 H   0  0  0  0  0  0  0  0  0  0  0  0
    6.5746   -0.4546   -2.9469 H   0  0  0  0  0  0  0  0  0  0  0  0
    7.3676   -2.4220   -5.1324 H   0  0  0  0  0  0  0  0  0  0  0  0
    6.3373   -1.0121   -5.3132 H   0  0  0  0  0  0  0  0  0  0  0  0
    4.5805   -1.9806   -3.9559 H   0  0  0  0  0  0  0  0  0  0  0  0
    4.6988   -4.1191   -2.8224 H   0  0  0  0  0  0  0  0  0  0  0  0
    6.3032   -4.4677   -3.4413 H   0  0  0  0  0  0  0  0  0  0  0  0
    3.9349   -2.9867   -5.8959 H   0  0  0  0  0  0  0  0  0  0  0  0
    3.3359   -4.7987  -11.9972 H   0  0  0  0  0  0  0  0  0  0  0  0
    3.1171   -6.1546  -14.0179 H   0  0  0  0  0  0  0  0  0  0  0  0
    5.4678   -9.2619  -12.2127 H   0  0  0  0  0  0  0  0  0  0  0  0
    5.4883   -8.0391  -10.1074 H   0  0  0  0  0  0  0  0  0  0  0  0
    1.7250   -6.5911  -10.3604 H   0  0  0  0  0  0  0  0  0  0  0  0
   -0.2534   -6.0811  -11.7038 H   0  0  0  0  0  0  0  0  0  0  0  0
   -0.2876   -2.0656  -10.1903 H   0  0  0  0  0  0  0  0  0  0  0  0
    7.3306   -5.8132   -7.7662 H   0  0  0  0  0  0  0  0  0  0  0  0
    7.1884   -5.9172   -9.5091 H   0  0  0  0  0  0  0  0  0  0  0  0
    6.6030   -7.2407   -8.4667 H   0  0  0  0  0  0  0  0  0  0  0  0
  1  2  1  0  0  0  0
  1 36  1  0  0  0  0
  1 37  1  0  0  0  0
  1 38  1  0  0  0  0
  2  3  1  0  0  0  0
  2 39  1  0  0  0  0
  2 40  1  0  0  0  0
  3  4  1  0  0  0  0
  4  5  2  0  0  0  0
  4  6  1  0  0  0  0
  6 11  1  0  0  0  0
  6  7  1  0  0  0  0
  7  8  1  0  0  0  0
  7 41  1  0  0  0  0
  7 42  1  0  0  0  0
  8  9  1  0  0  0  0
  8 43  1  0  0  0  0
  8 44  1  0  0  0  0
  9 10  1  0  0  0  0
  9 45  1  0  0  0  0
  9 46  1  0  0  0  0
 10 11  1  0  0  0  0
 10 12  1  0  0  0  0
 10 47  1  1  0  0  0
 11 48  1  0  0  0  0
 11 49  1  0  0  0  0
 12 13  1  0  0  0  0
 12 50  1  0  0  0  0
 13 14  2  0  0  0  0
 13 15  1  0  0  0  0
 15 34  2  0  0  0  0
 15 16  1  0  0  0  0
 16 17  2  0  0  0  0
 16 35  1  0  0  0  0
 17 18  1  0  0  0  0
 17 25  1  0  0  0  0
 18 23  2  0  0  0  0
 18 19  1  0  0  0  0
 19 20  2  0  0  0  0
 19 51  1  0  0  0  0
 20 21  1  0  0  0  0
 20 52  1  0  0  0  0
 21 22  2  0  0  0  0
 21 24  1  0  0  0  0
 22 23  1  0  0  0  0
 22 53  1  0  0  0  0
 23 54  1  0  0  0  0
 25 26  1  0  0  0  0
 25 34  1  0  0  0  0
 26 31  2  0  0  0  0
 26 27  1  0  0  0  0
 27 28  2  0  0  0  0
 27 55  1  0  0  0  0
 28 29  1  0  0  0  0
 28 56  1  0  0  0  0
 29 30  2  0  0  0  0
 29 33  1  0  0  0  0
 30 31  1  0  0  0  0
 30 57  1  0  0  0  0
 31 32  1  0  0  0  0
 35 58  1  0  0  0  0
 35 59  1  0  0  0  0
 35 60  1  0  0  0  0
M  END
$$$$
CHEMBL1088245
 OpenBabel12022417383D

 52 55  0  0  0  0  0  0  0  0999 V2000
    1.0851    0.1756    0.0667 C   0  0  0  0  0  0  0  0  0  0  0  0
    2.8086    0.3381   -0.4380 S   0  0  0  0  0  0  0  0  0  0  0  0
    3.3441    1.7432    0.4730 C   0  0  0  0  0  0  0  0  0  0  0  0
    2.9072    3.0870    0.2810 C   0  0  0  0  0  0  0  0  0  0  0  0
    1.9224    3.6428   -0.6763 C   0  0  0  0  0  0  0  0  0  0  0  0
    1.3370    2.9590   -1.5135 O   0  0  0  0  0  0  0  0  0  0  0  0
    1.7397    5.0202   -0.5430 N   0  0  0  0  0  0  0  0  0  0  0  0
    0.8135    5.7303   -1.3537 N   0  0  0  0  0  0  0  0  0  0  0  0
    0.1625    6.8123   -0.5961 C   0  0  0  0  0  0  0  0  0  0  0  0
   -0.8254    7.6094   -1.4541 C   0  0  0  0  0  0  0  0  0  0  0  0
   -0.1543    8.1533   -2.7090 C   0  0  0  0  0  0  0  0  0  0  0  0
    0.5086    7.0143   -3.4741 C   0  0  0  0  0  0  0  0  0  0  0  0
    1.4638    6.2224   -2.5796 C   0  0  0  0  0  0  0  0  0  0  0  0
    3.5423    3.9035    1.1444 N   0  0  0  0  0  0  0  0  0  0  0  0
    4.4336    3.1231    1.8068 N   0  0  0  0  0  0  0  0  0  0  0  0
    5.4315    3.7654    2.6035 C   0  0  0  0  0  0  0  0  0  0  0  0
    6.7609    3.3062    2.5526 C   0  0  0  0  0  0  0  0  0  0  0  0
    7.7562    3.9211    3.3187 C   0  0  0  0  0  0  0  0  0  0  0  0
    7.4363    5.0095    4.1241 C   0  0  0  0  0  0  0  0  0  0  0  0
    6.1282    5.4805    4.1839 C   0  0  0  0  0  0  0  0  0  0  0  0
    5.1200    4.8630    3.4316 C   0  0  0  0  0  0  0  0  0  0  0  0
    3.5101    5.4344    3.7186 Cl  0  0  0  0  0  0  0  0  0  0  0  0
    8.6625    5.7692    5.0610 Cl  0  0  0  0  0  0  0  0  0  0  0  0
    4.2954    1.7608    1.4953 C   0  0  0  0  0  0  0  0  0  0  0  0
    5.0010    0.6504    2.1969 C   0  0  0  0  0  0  0  0  0  0  0  0
    5.2919    0.7207    3.5735 C   0  0  0  0  0  0  0  0  0  0  0  0
    6.0162   -0.2869    4.2247 C   0  0  0  0  0  0  0  0  0  0  0  0
    6.3969   -1.4258    3.5266 C   0  0  0  0  0  0  0  0  0  0  0  0
    6.0775   -1.5512    2.1808 C   0  0  0  0  0  0  0  0  0  0  0  0
    5.4081   -0.5111    1.5198 C   0  0  0  0  0  0  0  0  0  0  0  0
    7.2629   -2.6759    4.3279 Cl  0  0  0  0  0  0  0  0  0  0  0  0
    0.7325   -0.8203   -0.2177 H   0  0  0  0  0  0  0  0  0  0  0  0
    0.4503    0.9083   -0.4344 H   0  0  0  0  0  0  0  0  0  0  0  0
    0.9800    0.2821    1.1491 H   0  0  0  0  0  0  0  0  0  0  0  0
    2.2929    5.4930    0.1719 H   0  0  0  0  0  0  0  0  0  0  0  0
    0.9153    7.4954   -0.1808 H   0  0  0  0  0  0  0  0  0  0  0  0
   -0.3891    6.3824    0.2482 H   0  0  0  0  0  0  0  0  0  0  0  0
   -1.2384    8.4386   -0.8684 H   0  0  0  0  0  0  0  0  0  0  0  0
   -1.6711    6.9706   -1.7411 H   0  0  0  0  0  0  0  0  0  0  0  0
    0.6005    8.8990   -2.4309 H   0  0  0  0  0  0  0  0  0  0  0  0
   -0.8896    8.6605   -3.3440 H   0  0  0  0  0  0  0  0  0  0  0  0
    1.0565    7.4205   -4.3329 H   0  0  0  0  0  0  0  0  0  0  0  0
   -0.2658    6.3484   -3.8773 H   0  0  0  0  0  0  0  0  0  0  0  0
    1.8434    5.3720   -3.1594 H   0  0  0  0  0  0  0  0  0  0  0  0
    2.3257    6.8522   -2.3243 H   0  0  0  0  0  0  0  0  0  0  0  0
    7.0524    2.4802    1.9054 H   0  0  0  0  0  0  0  0  0  0  0  0
    8.7773    3.5474    3.2792 H   0  0  0  0  0  0  0  0  0  0  0  0
    5.8871    6.3173    4.8363 H   0  0  0  0  0  0  0  0  0  0  0  0
    4.9794    1.5734    4.1718 H   0  0  0  0  0  0  0  0  0  0  0  0
    6.2739   -0.1738    5.2747 H   0  0  0  0  0  0  0  0  0  0  0  0
    6.3505   -2.4488    1.6314 H   0  0  0  0  0  0  0  0  0  0  0  0
    5.2202   -0.6391    0.4572 H   0  0  0  0  0  0  0  0  0  0  0  0
  1  2  1  0  0  0  0
  1 32  1  0  0  0  0
  1 33  1  0  0  0  0
  1 34  1  0  0  0  0
  2  3  1  0  0  0  0
  3 24  2  0  0  0  0
  3  4  1  0  0  0  0
  4  5  1  0  0  0  0
  4 14  2  0  0  0  0
  5  6  2  0  0  0  0
  5  7  1  0  0  0  0
  7  8  1  0  0  0  0
  7 35  1  0  0  0  0
  8 13  1  0  0  0  0
  8  9  1  0  0  0  0
  9 10  1  0  0  0  0
  9 36  1  0  0  0  0
  9 37  1  0  0  0  0
 10 11  1  0  0  0  0
 10 38  1  0  0  0  0
 10 39  1  0  0  0  0
 11 12  1  0  0  0  0
 11 40  1  0  0  0  0
 11 41  1  0  0  0  0
 12 13  1  0  0  0  0
 12 42  1  0  0  0  0
 12 43  1  0  0  0  0
 13 44  1  0  0  0  0
 13 45  1  0  0  0  0
 14 15  1  0  0  0  0
 15 16  1  0  0  0  0
 15 24  1  0  0  0  0
 16 21  2  0  0  0  0
 16 17  1  0  0  0  0
 17 18  2  0  0  0  0
 17 46  1  0  0  0  0
 18 19  1  0  0  0  0
 18 47  1  0  0  0  0
 19 20  2  0  0  0  0
 19 23  1  0  0  0  0
 20 21  1  0  0  0  0
 20 48  1  0  0  0  0
 21 22  1  0  0  0  0
 24 25  1  0  0  0  0
 25 30  2  0  0  0  0
 25 26  1  0  0  0  0
 26 27  2  0  0  0  0
 26 49  1  0  0  0  0
 27 28  1  0  0  0  0
 27 50  1  0  0  0  0
 28 29  2  0  0  0  0
 28 31  1  0  0  0  0
 29 30  1  0  0  0  0
 29 51  1  0  0  0  0
 30 52  1  0  0  0  0
M  END
$$$$
CHEMBL480541
 OpenBabel12022417383D

 48 51  0  0  0  0  0  0  0  0999 V2000
    4.9345   -1.2568    1.0923 O   0  0  0  0  0  0  0  0  0  0  0  0
    4.2069   -2.0524    0.4960 C   0  0  0  0  0  0  0  0  0  0  0  0
    2.8273   -1.6448    0.0279 C   0  0  0  0  0  0  0  0  0  0  0  0
    1.7938   -2.6615    0.1627 N   0  0  0  0  0  0  0  0  0  0  0  0
    2.0204   -3.9536   -0.1402 N   0  0  0  0  0  0  0  0  0  0  0  0
    0.7878   -4.4901   -0.0929 C   0  0  0  0  0  0  0  0  0  0  0  0
    0.5977   -5.9289   -0.3158 C   0  0  0  0  0  0  0  0  0  0  0  0
   -0.3853   -6.3673   -1.2198 C   0  0  0  0  0  0  0  0  0  0  0  0
   -0.6121   -7.7323   -1.4286 C   0  0  0  0  0  0  0  0  0  0  0  0
    0.1796   -8.6753   -0.7812 C   0  0  0  0  0  0  0  0  0  0  0  0
    1.1701   -8.2691    0.1058 C   0  0  0  0  0  0  0  0  0  0  0  0
    1.3600   -6.9036    0.3600 C   0  0  0  0  0  0  0  0  0  0  0  0
    2.5114   -6.5130    1.5947 Cl  0  0  0  0  0  0  0  0  0  0  0  0
   -0.0793  -10.3508   -1.0672 Cl  0  0  0  0  0  0  0  0  0  0  0  0
   -0.1665   -3.4294    0.1188 C   0  0  0  0  0  0  0  0  0  0  0  0
   -1.6367   -3.4478    0.1102 C   0  0  0  0  0  0  0  0  0  0  0  0
   -2.3155   -4.5585    0.6466 C   0  0  0  0  0  0  0  0  0  0  0  0
   -3.7060   -4.6768    0.5478 C   0  0  0  0  0  0  0  0  0  0  0  0
   -4.4473   -3.6566   -0.0358 C   0  0  0  0  0  0  0  0  0  0  0  0
   -3.8117   -2.5218   -0.5246 C   0  0  0  0  0  0  0  0  0  0  0  0
   -2.4141   -2.4188   -0.4670 C   0  0  0  0  0  0  0  0  0  0  0  0
   -1.7441   -1.0002   -1.2060 Cl  0  0  0  0  0  0  0  0  0  0  0  0
   -6.1551   -3.8053   -0.1651 Cl  0  0  0  0  0  0  0  0  0  0  0  0
    0.5153   -2.2938    0.3452 N   0  0  0  0  0  0  0  0  0  0  0  0
    4.6557   -3.2923    0.1076 N   0  0  0  0  0  0  0  0  0  0  0  0
    5.9332   -3.8058    0.5451 C   0  0  0  0  0  0  0  0  0  0  0  0
    6.3270   -5.0004   -0.2886 C   0  0  0  0  0  0  0  0  0  0  0  0
    5.9191   -6.2920    0.0767 C   0  0  0  0  0  0  0  0  0  0  0  0
    6.2333   -7.3927   -0.7239 C   0  0  0  0  0  0  0  0  0  0  0  0
    6.9686   -7.2083   -1.8935 C   0  0  0  0  0  0  0  0  0  0  0  0
    7.3864   -5.9354   -2.2732 C   0  0  0  0  0  0  0  0  0  0  0  0
    7.0577   -4.8334   -1.4766 C   0  0  0  0  0  0  0  0  0  0  0  0
    7.3599   -8.5636   -2.8777 Cl  0  0  0  0  0  0  0  0  0  0  0  0
    2.8679   -1.3612   -1.0292 H   0  0  0  0  0  0  0  0  0  0  0  0
    2.5030   -0.7814    0.6201 H   0  0  0  0  0  0  0  0  0  0  0  0
   -0.9992   -5.6545   -1.7649 H   0  0  0  0  0  0  0  0  0  0  0  0
   -1.4041   -8.0502   -2.1034 H   0  0  0  0  0  0  0  0  0  0  0  0
    1.7820   -9.0126    0.6115 H   0  0  0  0  0  0  0  0  0  0  0  0
   -1.7718   -5.3650    1.1343 H   0  0  0  0  0  0  0  0  0  0  0  0
   -4.2002   -5.5694    0.9246 H   0  0  0  0  0  0  0  0  0  0  0  0
   -4.3993   -1.7227   -0.9710 H   0  0  0  0  0  0  0  0  0  0  0  0
    3.9372   -3.9765   -0.1422 H   0  0  0  0  0  0  0  0  0  0  0  0
    5.8427   -4.0828    1.5959 H   0  0  0  0  0  0  0  0  0  0  0  0
    6.6938   -3.0194    0.4790 H   0  0  0  0  0  0  0  0  0  0  0  0
    5.3506   -6.4480    0.9898 H   0  0  0  0  0  0  0  0  0  0  0  0
    5.9018   -8.3856   -0.4315 H   0  0  0  0  0  0  0  0  0  0  0  0
    7.9573   -5.7870   -3.1847 H   0  0  0  0  0  0  0  0  0  0  0  0
    7.3740   -3.8373   -1.7836 H   0  0  0  0  0  0  0  0  0  0  0  0
  1  2  2  0  0  0  0
  2  3  1  0  0  0  0
  2 25  1  0  0  0  0
  3  4  1  0  0  0  0
  3 34  1  0  0  0  0
  3 35  1  0  0  0  0
  4 24  1  0  0  0  0
  4  5  1  0  0  0  0
  5  6  2  0  0  0  0
  6  7  1  0  0  0  0
  6 15  1  0  0  0  0
  7 12  2  0  0  0  0
  7  8  1  0  0  0  0
  8  9  2  0  0  0  0
  8 36  1  0  0  0  0
  9 10  1  0  0  0  0
  9 37  1  0  0  0  0
 10 11  2  0  0  0  0
 10 14  1  0  0  0  0
 11 12  1  0  0  0  0
 11 38  1  0  0  0  0
 12 13  1  0  0  0  0
 15 16  1  0  0  0  0
 15 24  2  0  0  0  0
 16 21  2  0  0  0  0
 16 17  1  0  0  0  0
 17 18  2  0  0  0  0
 17 39  1  0  0  0  0
 18 19  1  0  0  0  0
 18 40  1  0  0  0  0
 19 20  2  0  0  0  0
 19 23  1  0  0  0  0
 20 21  1  0  0  0  0
 20 41  1  0  0  0  0
 21 22  1  0  0  0  0
 25 26  1  0  0  0  0
 25 42  1  0  0  0  0
 26 27  1  0  0  0  0
 26 43  1  0  0  0  0
 26 44  1  0  0  0  0
 27 32  2  0  0  0  0
 27 28  1  0  0  0  0
 28 29  2  0  0  0  0
 28 45  1  0  0  0  0
 29 30  1  0  0  0  0
 29 46  1  0  0  0  0
 30 31  2  0  0  0  0
 30 33  1  0  0  0  0
 31 32  1  0  0  0  0
 31 47  1  0  0  0  0
 32 48  1  0  0  0  0
M  END
$$$$
CHEMBL460987
 OpenBabel12022417383D

 65 68  0  0  0  0  0  0  0  0999 V2000
    4.2912    4.5821    4.1246 C   0  0  0  0  0  0  0  0  0  0  0  0
    4.9203    3.3012    3.6016 C   0  0  0  0  0  0  0  0  0  0  0  0
    6.3075    3.5617    3.0231 C   0  0  0  0  0  0  0  0  0  0  0  0
    6.9204    2.2707    2.5055 C   0  0  0  0  0  0  0  0  0  0  0  0
    7.4461    1.1632    2.0615 C   0  0  0  0  0  0  0  0  0  0  0  0
    8.0976    0.0011    1.5851 C   0  0  0  0  0  0  0  0  0  0  0  0
    7.5123   -1.0249    0.8903 C   0  0  0  0  0  0  0  0  0  0  0  0
    8.4348   -2.0852    0.6573 C   0  0  0  0  0  0  0  0  0  0  0  0
    9.7101   -1.8079    1.1311 C   0  0  0  0  0  0  0  0  0  0  0  0
   10.8900   -2.6401    1.0736 C   0  0  0  0  0  0  0  0  0  0  0  0
   11.9215   -2.8055    2.0052 C   0  0  0  0  0  0  0  0  0  0  0  0
   12.1493   -2.1132    3.3250 C   0  0  0  0  0  0  0  0  0  0  0  0
   13.0430   -0.8810    3.3081 C   0  0  0  0  0  0  0  0  0  0  0  0
   12.6727   -3.9369    1.5154 C   0  0  0  0  0  0  0  0  0  0  0  0
   13.8521   -4.5783    2.1838 C   0  0  0  0  0  0  0  0  0  0  0  0
   14.2683   -4.1749    3.2452 O   0  0  0  0  0  0  0  0  0  0  0  0
   14.4250   -5.6434    1.4638 N   0  0  0  0  0  0  0  0  0  0  0  0
   15.5849   -6.4145    1.9102 N   0  0  0  0  0  0  0  0  0  0  0  0
   16.6678   -5.5822    2.4461 C   0  0  0  0  0  0  0  0  0  0  0  0
   18.0842   -6.1669    2.3741 C   0  0  0  0  0  0  0  0  0  0  0  0
   18.4321   -7.1949    3.4378 C   0  0  0  0  0  0  0  0  0  0  0  0
   17.5396   -8.4223    3.4101 C   0  0  0  0  0  0  0  0  0  0  0  0
   16.1103   -8.0996    3.8359 C   0  0  0  0  0  0  0  0  0  0  0  0
   15.1824   -7.5722    2.7285 C   0  0  0  0  0  0  0  0  0  0  0  0
   12.1786   -4.3848    0.3703 N   0  0  0  0  0  0  0  0  0  0  0  0
   11.1187   -3.5826    0.0768 N   0  0  0  0  0  0  0  0  0  0  0  0
   10.3988   -3.7786   -1.1341 C   0  0  0  0  0  0  0  0  0  0  0  0
    9.7755   -2.6739   -1.7487 C   0  0  0  0  0  0  0  0  0  0  0  0
    9.0512   -2.8259   -2.9246 C   0  0  0  0  0  0  0  0  0  0  0  0
    8.9877   -4.0822   -3.5269 C   0  0  0  0  0  0  0  0  0  0  0  0
    9.6076   -5.1804   -2.9361 C   0  0  0  0  0  0  0  0  0  0  0  0
   10.3022   -5.0452   -1.7293 C   0  0  0  0  0  0  0  0  0  0  0  0
   10.8716   -6.5131   -1.0175 Cl  0  0  0  0  0  0  0  0  0  0  0  0
    8.1275   -4.2718   -4.9965 Cl  0  0  0  0  0  0  0  0  0  0  0  0
    9.7612   -0.2430    1.8221 S   0  0  0  0  0  0  0  0  0  0  0  0
    3.2976    4.3783    4.5356 H   0  0  0  0  0  0  0  0  0  0  0  0
    4.1830    5.3202    3.3234 H   0  0  0  0  0  0  0  0  0  0  0  0
    4.9035    5.0230    4.9178 H   0  0  0  0  0  0  0  0  0  0  0  0
    4.2689    2.8641    2.8348 H   0  0  0  0  0  0  0  0  0  0  0  0
    4.9838    2.5694    4.4163 H   0  0  0  0  0  0  0  0  0  0  0  0
    6.9688    3.9836    3.7883 H   0  0  0  0  0  0  0  0  0  0  0  0
    6.2497    4.2801    2.1975 H   0  0  0  0  0  0  0  0  0  0  0  0
    6.4681   -1.0442    0.5995 H   0  0  0  0  0  0  0  0  0  0  0  0
    8.1591   -2.9854    0.1265 H   0  0  0  0  0  0  0  0  0  0  0  0
   12.5809   -2.8265    4.0350 H   0  0  0  0  0  0  0  0  0  0  0  0
   11.1874   -1.8229    3.7637 H   0  0  0  0  0  0  0  0  0  0  0  0
   14.0675   -1.1250    3.0086 H   0  0  0  0  0  0  0  0  0  0  0  0
   13.0987   -0.4432    4.3121 H   0  0  0  0  0  0  0  0  0  0  0  0
   12.6572   -0.1058    2.6388 H   0  0  0  0  0  0  0  0  0  0  0  0
   14.0435   -5.8324    0.5416 H   0  0  0  0  0  0  0  0  0  0  0  0
   16.4491   -5.2643    3.4720 H   0  0  0  0  0  0  0  0  0  0  0  0
   16.7295   -4.6770    1.8256 H   0  0  0  0  0  0  0  0  0  0  0  0
   18.7880   -5.3332    2.4953 H   0  0  0  0  0  0  0  0  0  0  0  0
   18.2765   -6.5821    1.3757 H   0  0  0  0  0  0  0  0  0  0  0  0
   18.3927   -6.7265    4.4299 H   0  0  0  0  0  0  0  0  0  0  0  0
   19.4765   -7.5079    3.2950 H   0  0  0  0  0  0  0  0  0  0  0  0
   17.9568   -9.1485    4.1202 H   0  0  0  0  0  0  0  0  0  0  0  0
   17.5623   -8.8991    2.4238 H   0  0  0  0  0  0  0  0  0  0  0  0
   16.1168   -7.3991    4.6804 H   0  0  0  0  0  0  0  0  0  0  0  0
   15.6648   -9.0257    4.2230 H   0  0  0  0  0  0  0  0  0  0  0  0
   14.9813   -8.4050    2.0392 H   0  0  0  0  0  0  0  0  0  0  0  0
   14.2237   -7.3589    3.2196 H   0  0  0  0  0  0  0  0  0  0  0  0
    9.8198   -1.6823   -1.3132 H   0  0  0  0  0  0  0  0  0  0  0  0
    8.5690   -1.9633   -3.3789 H   0  0  0  0  0  0  0  0  0  0  0  0
    9.5362   -6.1563   -3.4104 H   0  0  0  0  0  0  0  0  0  0  0  0
  1  2  1  0  0  0  0
  1 36  1  0  0  0  0
  1 37  1  0  0  0  0
  1 38  1  0  0  0  0
  2  3  1  0  0  0  0
  2 39  1  0  0  0  0
  2 40  1  0  0  0  0
  3  4  1  0  0  0  0
  3 41  1  0  0  0  0
  3 42  1  0  0  0  0
  4  5  3  0  0  0  0
  5  6  1  0  0  0  0
  6 35  1  0  0  0  0
  6  7  2  0  0  0  0
  7  8  1  0  0  0  0
  7 43  1  0  0  0  0
  8  9  2  0  0  0  0
  8 44  1  0  0  0  0
  9 10  1  0  0  0  0
  9 35  1  0  0  0  0
 10 26  1  0  0  0  0
 10 11  2  0  0  0  0
 11 12  1  0  0  0  0
 11 14  1  0  0  0  0
 12 13  1  0  0  0  0
 12 45  1  0  0  0  0
 12 46  1  0  0  0  0
 13 47  1  0  0  0  0
 13 48  1  0  0  0  0
 13 49  1  0  0  0  0
 14 15  1  0  0  0  0
 14 25  2  0  0  0  0
 15 16  2  0  0  0  0
 15 17  1  0  0  0  0
 17 18  1  0  0  0  0
 17 50  1  0  0  0  0
 18 24  1  0  0  0  0
 18 19  1  0  0  0  0
 19 20  1  0  0  0  0
 19 51  1  0  0  0  0
 19 52  1  0  0  0  0
 20 21  1  0  0  0  0
 20 53  1  0  0  0  0
 20 54  1  0  0  0  0
 21 22  1  0  0  0  0
 21 55  1  0  0  0  0
 21 56  1  0  0  0  0
 22 23  1  0  0  0  0
 22 57  1  0  0  0  0
 22 58  1  0  0  0  0
 23 24  1  0  0  0  0
 23 59  1  0  0  0  0
 23 60  1  0  0  0  0
 24 61  1  0  0  0  0
 24 62  1  0  0  0  0
 25 26  1  0  0  0  0
 26 27  1  0  0  0  0
 27 32  2  0  0  0  0
 27 28  1  0  0  0  0
 28 29  2  0  0  0  0
 28 63  1  0  0  0  0
 29 30  1  0  0  0  0
 29 64  1  0  0  0  0
 30 31  2  0  0  0  0
 30 34  1  0  0  0  0
 31 32  1  0  0  0  0
 31 65  1  0  0  0  0
 32 33  1  0  0  0  0
M  END
$$$$
CHEMBL4082908
 OpenBabel12022417383D

 65 68  0  0  1  0  0  0  0  0999 V2000
    1.3424    0.3601   -0.0596 C   0  0  0  0  0  0  0  0  0  0  0  0
    2.8278    0.2046   -0.0717 C   0  0  0  0  0  0  0  0  0  0  0  0
    3.8075    1.1968   -0.0443 C   0  0  0  0  0  0  0  0  0  0  0  0
    3.6608    2.6924   -0.0020 C   0  0  0  0  0  0  0  0  0  0  0  0
    2.5790    3.2632   -0.0011 O   0  0  0  0  0  0  0  0  0  0  0  0
    4.9085    3.3265    0.0005 N   0  0  0  0  0  0  0  0  0  0  0  0
    5.2389    4.7123   -0.1130 N   0  0  0  0  0  0  0  0  0  0  0  0
    4.2907    5.7993    0.1704 C   0  0  0  0  0  0  0  0  0  0  0  0
    3.4534    6.3139   -1.0165 C   0  0  0  0  0  0  0  0  0  0  0  0
    4.2085    6.3767   -2.3521 C   0  0  0  0  0  0  0  0  0  0  0  0
    5.1034    5.1594   -2.5531 C   0  0  1  0  0  0  0  0  0  0  0  0
    6.0155    4.9917   -1.3310 C   0  0  0  0  0  0  0  0  0  0  0  0
    4.2865    4.0086   -2.7802 O   0  0  0  0  0  0  0  0  0  0  0  0
    5.0586    0.5965   -0.0714 N   0  0  0  0  0  0  0  0  0  0  0  0
    4.8854   -0.7169   -0.0501 C   0  0  0  0  0  0  0  0  0  0  0  0
    5.9988   -1.7038   -0.1090 C   0  0  0  0  0  0  0  0  0  0  0  0
    7.2103   -1.5316    0.5873 C   0  0  0  0  0  0  0  0  0  0  0  0
    8.1584   -2.5667    0.6458 C   0  0  0  0  0  0  0  0  0  0  0  0
    7.8929   -3.7963    0.0518 C   0  0  0  0  0  0  0  0  0  0  0  0
    6.7283   -3.9781   -0.6753 C   0  0  0  0  0  0  0  0  0  0  0  0
    5.8395   -2.9111   -0.8233 C   0  0  0  0  0  0  0  0  0  0  0  0
    9.0057   -5.0960    0.2094 Cl  0  0  0  0  0  0  0  0  0  0  0  0
    7.6087   -0.0851    1.4507 Cl  0  0  0  0  0  0  0  0  0  0  0  0
    3.5071   -1.0207   -0.0088 N   0  0  0  0  0  0  0  0  0  0  0  0
    2.9225   -2.3414    0.0359 C   0  0  0  0  0  0  0  0  0  0  0  0
    3.4959   -3.3856    0.7793 C   0  0  0  0  0  0  0  0  0  0  0  0
    3.0625   -4.7173    0.6181 C   0  0  0  0  0  0  0  0  0  0  0  0
    1.9613   -4.9994   -0.1864 C   0  0  0  0  0  0  0  0  0  0  0  0
    1.3624   -3.9567   -0.8933 C   0  0  0  0  0  0  0  0  0  0  0  0
    1.8551   -2.6426   -0.8130 C   0  0  0  0  0  0  0  0  0  0  0  0
    1.5386   -6.3085   -0.2561 O   0  0  0  0  0  0  0  0  0  0  0  0
   -0.0502   -6.6067   -0.4893 S   0  0  0  0  0  0  0  0  0  0  0  0
   -0.8080   -6.0259    0.6126 O   0  0  0  0  0  0  0  0  0  0  0  0
   -0.4049   -6.3483   -1.8688 O   0  0  0  0  0  0  0  0  0  0  0  0
   -0.0702   -8.3836   -0.2774 C   0  0  0  0  0  0  0  0  0  0  0  0
   -1.5157   -8.8509   -0.4228 C   0  0  0  0  0  0  0  0  0  0  0  0
   -1.6833  -10.3396   -0.2893 C   0  0  0  0  0  0  0  0  0  0  0  0
   -0.5109  -10.9615   -0.0577 F   0  0  0  0  0  0  0  0  0  0  0  0
   -2.5170  -10.6329    0.7311 F   0  0  0  0  0  0  0  0  0  0  0  0
   -2.2146  -10.8622   -1.4152 F   0  0  0  0  0  0  0  0  0  0  0  0
    0.7937   -0.5786    0.0104 H   0  0  0  0  0  0  0  0  0  0  0  0
    1.0069    0.8616   -0.9736 H   0  0  0  0  0  0  0  0  0  0  0  0
    1.0200    0.9417    0.8079 H   0  0  0  0  0  0  0  0  0  0  0  0
    5.6652    2.6736   -0.1931 H   0  0  0  0  0  0  0  0  0  0  0  0
    4.8973    6.6546    0.4984 H   0  0  0  0  0  0  0  0  0  0  0  0
    3.6511    5.5750    1.0313 H   0  0  0  0  0  0  0  0  0  0  0  0
    3.0869    7.3238   -0.7895 H   0  0  0  0  0  0  0  0  0  0  0  0
    2.5642    5.6871   -1.1327 H   0  0  0  0  0  0  0  0  0  0  0  0
    4.8229    7.2850   -2.3884 H   0  0  0  0  0  0  0  0  0  0  0  0
    3.4797    6.4436   -3.1690 H   0  0  0  0  0  0  0  0  0  0  0  0
    5.7207    5.2825   -3.4487 H   0  0  0  0  0  0  0  0  0  0  0  0
    6.7562    4.2018   -1.4928 H   0  0  0  0  0  0  0  0  0  0  0  0
    6.5964    5.9157   -1.1810 H   0  0  0  0  0  0  0  0  0  0  0  0
    3.5904    4.0217   -2.0924 H   0  0  0  0  0  0  0  0  0  0  0  0
    9.0923   -2.4202    1.1826 H   0  0  0  0  0  0  0  0  0  0  0  0
    6.4843   -4.9446   -1.1112 H   0  0  0  0  0  0  0  0  0  0  0  0
    4.9558   -3.0860   -1.4350 H   0  0  0  0  0  0  0  0  0  0  0  0
    4.3396   -3.2123    1.4473 H   0  0  0  0  0  0  0  0  0  0  0  0
    3.5971   -5.5221    1.1169 H   0  0  0  0  0  0  0  0  0  0  0  0
    0.5175   -4.1206   -1.5557 H   0  0  0  0  0  0  0  0  0  0  0  0
    1.4136   -1.9126   -1.4767 H   0  0  0  0  0  0  0  0  0  0  0  0
    0.3353   -8.6186    0.7105 H   0  0  0  0  0  0  0  0  0  0  0  0
    0.5680   -8.8151   -1.0538 H   0  0  0  0  0  0  0  0  0  0  0  0
   -1.9098   -8.5341   -1.3964 H   0  0  0  0  0  0  0  0  0  0  0  0
   -2.1414   -8.3533    0.3272 H   0  0  0  0  0  0  0  0  0  0  0  0
  1  2  1  0  0  0  0
  1 41  1  0  0  0  0
  1 42  1  0  0  0  0
  1 43  1  0  0  0  0
  2 24  1  0  0  0  0
  2  3  2  0  0  0  0
  3  4  1  0  0  0  0
  3 14  1  0  0  0  0
  4  5  2  0  0  0  0
  4  6  1  0  0  0  0
  6  7  1  0  0  0  0
  6 44  1  0  0  0  0
  7 12  1  0  0  0  0
  7  8  1  0  0  0  0
  8  9  1  0  0  0  0
  8 45  1  0  0  0  0
  8 46  1  0  0  0  0
  9 10  1  0  0  0  0
  9 47  1  0  0  0  0
  9 48  1  0  0  0  0
 10 11  1  0  0  0  0
 10 49  1  0  0  0  0
 10 50  1  0  0  0  0
 11 12  1  0  0  0  0
 11 13  1  0  0  0  0
 11 51  1  6  0  0  0
 12 52  1  0  0  0  0
 12 53  1  0  0  0  0
 13 54  1  0  0  0  0
 14 15  2  0  0  0  0
 15 16  1  0  0  0  0
 15 24  1  0  0  0  0
 16 21  2  0  0  0  0
 16 17  1  0  0  0  0
 17 18  2  0  0  0  0
 17 23  1  0  0  0  0
 18 19  1  0  0  0  0
 18 55  1  0  0  0  0
 19 20  2  0  0  0  0
 19 22  1  0  0  0  0
 20 21  1  0  0  0  0
 20 56  1  0  0  0  0
 21 57  1  0  0  0  0
 24 25  1  0  0  0  0
 25 30  2  0  0  0  0
 25 26  1  0  0  0  0
 26 27  2  0  0  0  0
 26 58  1  0  0  0  0
 27 28  1  0  0  0  0
 27 59  1  0  0  0  0
 28 29  2  0  0  0  0
 28 31  1  0  0  0  0
 29 30  1  0  0  0  0
 29 60  1  0  0  0  0
 30 61  1  0  0  0  0
 31 32  1  0  0  0  0
 32 33  2  0  0  0  0
 32 34  2  0  0  0  0
 32 35  1  0  0  0  0
 35 36  1  0  0  0  0
 35 62  1  0  0  0  0
 35 63  1  0  0  0  0
 36 37  1  0  0  0  0
 36 64  1  0  0  0  0
 36 65  1  0  0  0  0
 37 38  1  0  0  0  0
 37 39  1  0  0  0  0
 37 40  1  0  0  0  0
M  END
$$$$
CHEMBL15874
 OpenBabel12022417383D

 52 55  0  0  0  0  0  0  0  0999 V2000
    1.1715    0.3734    0.0259 C   0  0  0  0  0  0  0  0  0  0  0  0
    2.6359    0.1192   -0.0341 C   0  0  0  0  0  0  0  0  0  0  0  0
    3.6380    1.1452   -0.0111 C   0  0  0  0  0  0  0  0  0  0  0  0
    3.4484    2.6238    0.0357 C   0  0  0  0  0  0  0  0  0  0  0  0
    2.3452    3.1536   -0.0228 O   0  0  0  0  0  0  0  0  0  0  0  0
    4.6334    3.3254    0.1445 N   0  0  0  0  0  0  0  0  0  0  0  0
    4.7942    4.7791    0.1896 C   0  0  0  0  0  0  0  0  0  0  0  0
    4.3985    5.4695   -1.1241 C   0  0  0  0  0  0  0  0  0  0  0  0
    4.6791    6.9747   -1.0708 C   0  0  0  0  0  0  0  0  0  0  0  0
    4.0100    7.6412    0.1276 C   0  0  0  0  0  0  0  0  0  0  0  0
    4.3749    6.9451    1.4368 C   0  0  0  0  0  0  0  0  0  0  0  0
    4.0923    5.4397    1.3847 C   0  0  0  0  0  0  0  0  0  0  0  0
    4.8639    0.6071   -0.0233 N   0  0  0  0  0  0  0  0  0  0  0  0
    4.6834   -0.7350   -0.1097 N   0  0  0  0  0  0  0  0  0  0  0  0
    5.8270   -1.5598   -0.3300 C   0  0  0  0  0  0  0  0  0  0  0  0
    5.7632   -2.5728   -1.3058 C   0  0  0  0  0  0  0  0  0  0  0  0
    6.8748   -3.3825   -1.5520 C   0  0  0  0  0  0  0  0  0  0  0  0
    8.0518   -3.1812   -0.8363 C   0  0  0  0  0  0  0  0  0  0  0  0
    8.1244   -2.1904    0.1392 C   0  0  0  0  0  0  0  0  0  0  0  0
    7.0143   -1.3776    0.3994 C   0  0  0  0  0  0  0  0  0  0  0  0
    7.1639   -0.2961    1.7441 Cl  0  0  0  0  0  0  0  0  0  0  0  0
    9.4226   -4.1715   -1.1511 Cl  0  0  0  0  0  0  0  0  0  0  0  0
    3.3315   -1.0968   -0.0747 C   0  0  0  0  0  0  0  0  0  0  0  0
    2.8188   -2.4920    0.0087 C   0  0  0  0  0  0  0  0  0  0  0  0
    3.4984   -3.4839    0.7410 C   0  0  0  0  0  0  0  0  0  0  0  0
    3.0352   -4.8058    0.7933 C   0  0  0  0  0  0  0  0  0  0  0  0
    1.8408   -5.1441    0.1702 C   0  0  0  0  0  0  0  0  0  0  0  0
    1.1254   -4.1782   -0.5284 C   0  0  0  0  0  0  0  0  0  0  0  0
    1.6262   -2.8713   -0.6298 C   0  0  0  0  0  0  0  0  0  0  0  0
    1.2467   -6.7548    0.2691 Cl  0  0  0  0  0  0  0  0  0  0  0  0
    0.5909   -0.5296    0.2170 H   0  0  0  0  0  0  0  0  0  0  0  0
    0.8266    0.8066   -0.9189 H   0  0  0  0  0  0  0  0  0  0  0  0
    0.9334    1.0701    0.8360 H   0  0  0  0  0  0  0  0  0  0  0  0
    5.4630    2.7395    0.1625 H   0  0  0  0  0  0  0  0  0  0  0  0
    5.8748    4.9259    0.3245 H   0  0  0  0  0  0  0  0  0  0  0  0
    3.3337    5.3110   -1.3329 H   0  0  0  0  0  0  0  0  0  0  0  0
    4.9519    5.0293   -1.9616 H   0  0  0  0  0  0  0  0  0  0  0  0
    4.3314    7.4501   -1.9956 H   0  0  0  0  0  0  0  0  0  0  0  0
    5.7623    7.1422   -1.0183 H   0  0  0  0  0  0  0  0  0  0  0  0
    2.9219    7.6246   -0.0045 H   0  0  0  0  0  0  0  0  0  0  0  0
    4.3068    8.6951    0.1768 H   0  0  0  0  0  0  0  0  0  0  0  0
    3.8137    7.3999    2.2615 H   0  0  0  0  0  0  0  0  0  0  0  0
    5.4389    7.1101    1.6487 H   0  0  0  0  0  0  0  0  0  0  0  0
    4.4262    4.9773    2.3204 H   0  0  0  0  0  0  0  0  0  0  0  0
    3.0083    5.2866    1.3264 H   0  0  0  0  0  0  0  0  0  0  0  0
    4.8668   -2.7294   -1.9023 H   0  0  0  0  0  0  0  0  0  0  0  0
    6.8175   -4.1629   -2.3075 H   0  0  0  0  0  0  0  0  0  0  0  0
    9.0403   -2.0635    0.7122 H   0  0  0  0  0  0  0  0  0  0  0  0
    4.4134   -3.2553    1.2828 H   0  0  0  0  0  0  0  0  0  0  0  0
    3.6091   -5.5579    1.3292 H   0  0  0  0  0  0  0  0  0  0  0  0
    0.1786   -4.4320   -0.9996 H   0  0  0  0  0  0  0  0  0  0  0  0
    1.0571   -2.1557   -1.2178 H   0  0  0  0  0  0  0  0  0  0  0  0
  1  2  1  0  0  0  0
  1 31  1  0  0  0  0
  1 32  1  0  0  0  0
  1 33  1  0  0  0  0
  2 23  2  0  0  0  0
  2  3  1  0  0  0  0
  3  4  1  0  0  0  0
  3 13  2  0  0  0  0
  4  5  2  0  0  0  0
  4  6  1  0  0  0  0
  6  7  1  0  0  0  0
  6 34  1  0  0  0  0
  7 12  1  0  0  0  0
  7  8  1  0  0  0  0
  7 35  1  0  0  0  0
  8  9  1  0  0  0  0
  8 36  1  0  0  0  0
  8 37  1  0  0  0  0
  9 10  1  0  0  0  0
  9 38  1  0  0  0  0
  9 39  1  0  0  0  0
 10 11  1  0  0  0  0
 10 40  1  0  0  0  0
 10 41  1  0  0  0  0
 11 12  1  0  0  0  0
 11 42  1  0  0  0  0
 11 43  1  0  0  0  0
 12 44  1  0  0  0  0
 12 45  1  0  0  0  0
 13 14  1  0  0  0  0
 14 15  1  0  0  0  0
 14 23  1  0  0  0  0
 15 20  2  0  0  0  0
 15 16  1  0  0  0  0
 16 17  2  0  0  0  0
 16 46  1  0  0  0  0
 17 18  1  0  0  0  0
 17 47  1  0  0  0  0
 18 19  2  0  0  0  0
 18 22  1  0  0  0  0
 19 20  1  0  0  0  0
 19 48  1  0  0  0  0
 20 21  1  0  0  0  0
 23 24  1  0  0  0  0
 24 29  2  0  0  0  0
 24 25  1  0  0  0  0
 25 26  2  0  0  0  0
 25 49  1  0  0  0  0
 26 27  1  0  0  0  0
 26 50  1  0  0  0  0
 27 28  2  0  0  0  0
 27 30  1  0  0  0  0
 28 29  1  0  0  0  0
 28 51  1  0  0  0  0
 29 52  1  0  0  0  0
M  END
$$$$
CHEMBL462053
 OpenBabel12022417383D

 63 66  0  0  0  0  0  0  0  0999 V2000
    5.4537   -3.3299   -4.0977 C   0  0  0  0  0  0  0  0  0  0  0  0
    4.8534   -1.9340   -4.1420 C   0  0  0  0  0  0  0  0  0  0  0  0
    5.4274   -1.0338   -3.0464 C   0  0  0  0  0  0  0  0  0  0  0  0
    4.8216    0.3739   -3.1200 C   0  0  0  0  0  0  0  0  0  0  0  0
    5.3448    1.3189   -2.0319 C   0  0  0  0  0  0  0  0  0  0  0  0
    6.8248    1.5672   -2.1221 C   0  0  0  0  0  0  0  0  0  0  0  0
    7.5338    2.0717   -3.1905 C   0  0  0  0  0  0  0  0  0  0  0  0
    8.9366    2.0855   -2.9466 C   0  0  0  0  0  0  0  0  0  0  0  0
    9.2801    1.7461   -1.6439 C   0  0  0  0  0  0  0  0  0  0  0  0
   10.5997    1.8585   -1.0164 C   0  0  0  0  0  0  0  0  0  0  0  0
   11.2458    1.0095   -0.1169 C   0  0  0  0  0  0  0  0  0  0  0  0
   10.7531   -0.2425    0.5178 C   0  0  0  0  0  0  0  0  0  0  0  0
   12.5735    1.5557    0.0672 C   0  0  0  0  0  0  0  0  0  0  0  0
   13.6920    0.9978    0.8865 C   0  0  0  0  0  0  0  0  0  0  0  0
   13.5575   -0.0442    1.5401 O   0  0  0  0  0  0  0  0  0  0  0  0
   14.8933    1.7347    0.8360 N   0  0  0  0  0  0  0  0  0  0  0  0
   16.0604    1.3215    1.5727 N   0  0  0  0  0  0  0  0  0  0  0  0
   16.8495    0.3301    0.8205 C   0  0  0  0  0  0  0  0  0  0  0  0
   18.0594   -0.1734    1.6287 C   0  0  0  0  0  0  0  0  0  0  0  0
   18.9663    0.9738    2.0528 C   0  0  0  0  0  0  0  0  0  0  0  0
   18.1501    2.0490    2.7630 C   0  0  0  0  0  0  0  0  0  0  0  0
   16.9144    2.4697    1.9495 C   0  0  0  0  0  0  0  0  0  0  0  0
   12.7130    2.6767   -0.6468 N   0  0  0  0  0  0  0  0  0  0  0  0
   11.5295    2.8755   -1.2930 N   0  0  0  0  0  0  0  0  0  0  0  0
   11.3555    4.0620   -2.0727 C   0  0  0  0  0  0  0  0  0  0  0  0
   10.0871    4.6819   -2.1150 C   0  0  0  0  0  0  0  0  0  0  0  0
    9.8493    5.7841   -2.9348 C   0  0  0  0  0  0  0  0  0  0  0  0
   10.8979    6.3393   -3.6501 C   0  0  0  0  0  0  0  0  0  0  0  0
   12.1677    5.7784   -3.5901 C   0  0  0  0  0  0  0  0  0  0  0  0
   12.4047    4.6311   -2.8160 C   0  0  0  0  0  0  0  0  0  0  0  0
   13.9853    3.9390   -2.9810 Cl  0  0  0  0  0  0  0  0  0  0  0  0
   10.6217    7.7313   -4.6229 Cl  0  0  0  0  0  0  0  0  0  0  0  0
    7.8655    1.2479   -0.7949 S   0  0  0  0  0  0  0  0  0  0  0  0
    5.0270   -3.9488   -4.8935 H   0  0  0  0  0  0  0  0  0  0  0  0
    5.2461   -3.8174   -3.1400 H   0  0  0  0  0  0  0  0  0  0  0  0
    6.5387   -3.2966   -4.2398 H   0  0  0  0  0  0  0  0  0  0  0  0
    3.7656   -2.0075   -4.0322 H   0  0  0  0  0  0  0  0  0  0  0  0
    5.0516   -1.4921   -5.1255 H   0  0  0  0  0  0  0  0  0  0  0  0
    6.5158   -0.9828   -3.1623 H   0  0  0  0  0  0  0  0  0  0  0  0
    5.2248   -1.4704   -2.0615 H   0  0  0  0  0  0  0  0  0  0  0  0
    3.7333    0.2981   -3.0186 H   0  0  0  0  0  0  0  0  0  0  0  0
    5.0119    0.7993   -4.1137 H   0  0  0  0  0  0  0  0  0  0  0  0
    5.0632    0.9360   -1.0480 H   0  0  0  0  0  0  0  0  0  0  0  0
    4.8310    2.2893   -2.1445 H   0  0  0  0  0  0  0  0  0  0  0  0
    7.0676    2.3979   -4.1142 H   0  0  0  0  0  0  0  0  0  0  0  0
    9.6443    2.4459   -3.6812 H   0  0  0  0  0  0  0  0  0  0  0  0
    9.7403   -0.5058    0.2167 H   0  0  0  0  0  0  0  0  0  0  0  0
   10.7557   -0.1431    1.6085 H   0  0  0  0  0  0  0  0  0  0  0  0
   11.3920   -1.0870    0.2394 H   0  0  0  0  0  0  0  0  0  0  0  0
   14.8688    2.6150    0.3337 H   0  0  0  0  0  0  0  0  0  0  0  0
   17.2063    0.7626   -0.1242 H   0  0  0  0  0  0  0  0  0  0  0  0
   16.2287   -0.5330    0.5721 H   0  0  0  0  0  0  0  0  0  0  0  0
   18.6331   -0.8917    1.0313 H   0  0  0  0  0  0  0  0  0  0  0  0
   17.7094   -0.7096    2.5205 H   0  0  0  0  0  0  0  0  0  0  0  0
   19.4579    1.4026    1.1716 H   0  0  0  0  0  0  0  0  0  0  0  0
   19.7626    0.6035    2.7121 H   0  0  0  0  0  0  0  0  0  0  0  0
   18.7884    2.9216    2.9492 H   0  0  0  0  0  0  0  0  0  0  0  0
   17.8372    1.6720    3.7453 H   0  0  0  0  0  0  0  0  0  0  0  0
   16.3326    3.1767    2.5558 H   0  0  0  0  0  0  0  0  0  0  0  0
   17.2470    3.0083    1.0516 H   0  0  0  0  0  0  0  0  0  0  0  0
    9.2470    4.3130   -1.5307 H   0  0  0  0  0  0  0  0  0  0  0  0
    8.8458    6.1973   -3.0020 H   0  0  0  0  0  0  0  0  0  0  0  0
   12.9768    6.2150   -4.1697 H   0  0  0  0  0  0  0  0  0  0  0  0
  1  2  1  0  0  0  0
  1 34  1  0  0  0  0
  1 35  1  0  0  0  0
  1 36  1  0  0  0  0
  2  3  1  0  0  0  0
  2 37  1  0  0  0  0
  2 38  1  0  0  0  0
  3  4  1  0  0  0  0
  3 39  1  0  0  0  0
  3 40  1  0  0  0  0
  4  5  1  0  0  0  0
  4 41  1  0  0  0  0
  4 42  1  0  0  0  0
  5  6  1  0  0  0  0
  5 43  1  0  0  0  0
  5 44  1  0  0  0  0
  6 33  1  0  0  0  0
  6  7  2  0  0  0  0
  7  8  1  0  0  0  0
  7 45  1  0  0  0  0
  8  9  2  0  0  0  0
  8 46  1  0  0  0  0
  9 10  1  0  0  0  0
  9 33  1  0  0  0  0
 10 24  1  0  0  0  0
 10 11  2  0  0  0  0
 11 12  1  0  0  0  0
 11 13  1  0  0  0  0
 12 47  1  0  0  0  0
 12 48  1  0  0  0  0
 12 49  1  0  0  0  0
 13 14  1  0  0  0  0
 13 23  2  0  0  0  0
 14 15  2  0  0  0  0
 14 16  1  0  0  0  0
 16 17  1  0  0  0  0
 16 50  1  0  0  0  0
 17 22  1  0  0  0  0
 17 18  1  0  0  0  0
 18 19  1  0  0  0  0
 18 51  1  0  0  0  0
 18 52  1  0  0  0  0
 19 20  1  0  0  0  0
 19 53  1  0  0  0  0
 19 54  1  0  0  0  0
 20 21  1  0  0  0  0
 20 55  1  0  0  0  0
 20 56  1  0  0  0  0
 21 22  1  0  0  0  0
 21 57  1  0  0  0  0
 21 58  1  0  0  0  0
 22 59  1  0  0  0  0
 22 60  1  0  0  0  0
 23 24  1  0  0  0  0
 24 25  1  0  0  0  0
 25 30  2  0  0  0  0
 25 26  1  0  0  0  0
 26 27  2  0  0  0  0
 26 61  1  0  0  0  0
 27 28  1  0  0  0  0
 27 62  1  0  0  0  0
 28 29  2  0  0  0  0
 28 32  1  0  0  0  0
 29 30  1  0  0  0  0
 29 63  1  0  0  0  0
 30 31  1  0  0  0  0
M  END
$$$$
CHEMBL2022405
 OpenBabel12022417383D

 47 50  0  0  0  0  0  0  0  0999 V2000
    1.0454    0.3768    0.1247 C   0  0  0  0  0  0  0  0  0  0  0  0
    2.5123    0.1154    0.0513 C   0  0  0  0  0  0  0  0  0  0  0  0
    3.5149    1.1366    0.0022 C   0  0  0  0  0  0  0  0  0  0  0  0
    3.2946    2.6038   -0.0296 C   0  0  0  0  0  0  0  0  0  0  0  0
    2.1533    3.0597    0.0064 O   0  0  0  0  0  0  0  0  0  0  0  0
    4.4561    3.3575   -0.1456 N   0  0  0  0  0  0  0  0  0  0  0  0
    4.5387    4.7699   -0.1977 C   0  0  0  0  0  0  0  0  0  0  0  0
    5.7476    5.3651   -0.5851 C   0  0  0  0  0  0  0  0  0  0  0  0
    5.8607    6.7643   -0.6867 C   0  0  0  0  0  0  0  0  0  0  0  0
    4.7676    7.5643   -0.3843 C   0  0  0  0  0  0  0  0  0  0  0  0
    3.5744    6.9951    0.0323 C   0  0  0  0  0  0  0  0  0  0  0  0
    3.4617    5.6042    0.1213 C   0  0  0  0  0  0  0  0  0  0  0  0
    4.8174    8.9259   -0.4621 O   0  0  0  0  0  0  0  0  0  0  0  0
    4.7436    0.6040   -0.0151 N   0  0  0  0  0  0  0  0  0  0  0  0
    4.5558   -0.7418   -0.0094 N   0  0  0  0  0  0  0  0  0  0  0  0
    5.6932   -1.5748   -0.2019 C   0  0  0  0  0  0  0  0  0  0  0  0
    5.6226   -2.6218   -1.1380 C   0  0  0  0  0  0  0  0  0  0  0  0
    6.7361   -3.4304   -1.3727 C   0  0  0  0  0  0  0  0  0  0  0  0
    7.9241   -3.1877   -0.6890 C   0  0  0  0  0  0  0  0  0  0  0  0
    8.0039   -2.1615    0.2493 C   0  0  0  0  0  0  0  0  0  0  0  0
    6.8898   -1.3527    0.5009 C   0  0  0  0  0  0  0  0  0  0  0  0
    7.0464   -0.2194    1.8010 Cl  0  0  0  0  0  0  0  0  0  0  0  0
    9.3022   -4.1677   -1.0013 Cl  0  0  0  0  0  0  0  0  0  0  0  0
    3.2007   -1.0998    0.0389 C   0  0  0  0  0  0  0  0  0  0  0  0
    2.6778   -2.4864    0.1448 C   0  0  0  0  0  0  0  0  0  0  0  0
    3.3445   -3.4718    0.8944 C   0  0  0  0  0  0  0  0  0  0  0  0
    2.8743   -4.7903    0.9495 C   0  0  0  0  0  0  0  0  0  0  0  0
    1.6831   -5.1269    0.3181 C   0  0  0  0  0  0  0  0  0  0  0  0
    0.9779   -4.1633   -0.3935 C   0  0  0  0  0  0  0  0  0  0  0  0
    1.4893   -2.8628   -0.5029 C   0  0  0  0  0  0  0  0  0  0  0  0
    1.0841   -6.7354    0.4136 Cl  0  0  0  0  0  0  0  0  0  0  0  0
    0.4532   -0.5271    0.2706 H   0  0  0  0  0  0  0  0  0  0  0  0
    0.7023    0.8571   -0.7981 H   0  0  0  0  0  0  0  0  0  0  0  0
    0.8139    1.0349    0.9683 H   0  0  0  0  0  0  0  0  0  0  0  0
    5.3043    2.8100   -0.2637 H   0  0  0  0  0  0  0  0  0  0  0  0
    6.6136    4.7570   -0.8357 H   0  0  0  0  0  0  0  0  0  0  0  0
    6.7992    7.2033   -1.0105 H   0  0  0  0  0  0  0  0  0  0  0  0
    2.7259    7.6257    0.2854 H   0  0  0  0  0  0  0  0  0  0  0  0
    2.5112    5.2109    0.4646 H   0  0  0  0  0  0  0  0  0  0  0  0
    5.6965    9.1918   -0.7777 H   0  0  0  0  0  0  0  0  0  0  0  0
    4.7185   -2.8076   -1.7150 H   0  0  0  0  0  0  0  0  0  0  0  0
    6.6717   -4.2393   -2.0969 H   0  0  0  0  0  0  0  0  0  0  0  0
    8.9291   -2.0016    0.7981 H   0  0  0  0  0  0  0  0  0  0  0  0
    4.2558   -3.2420    1.4412 H   0  0  0  0  0  0  0  0  0  0  0  0
    3.4414   -5.5432    1.4915 H   0  0  0  0  0  0  0  0  0  0  0  0
    0.0353   -4.4152   -0.8729 H   0  0  0  0  0  0  0  0  0  0  0  0
    0.9332   -2.1514   -1.1083 H   0  0  0  0  0  0  0  0  0  0  0  0
  1  2  1  0  0  0  0
  1 32  1  0  0  0  0
  1 33  1  0  0  0  0
  1 34  1  0  0  0  0
  2 24  2  0  0  0  0
  2  3  1  0  0  0  0
  3  4  1  0  0  0  0
  3 14  2  0  0  0  0
  4  5  2  0  0  0  0
  4  6  1  0  0  0  0
  6  7  1  0  0  0  0
  6 35  1  0  0  0  0
  7 12  2  0  0  0  0
  7  8  1  0  0  0  0
  8  9  2  0  0  0  0
  8 36  1  0  0  0  0
  9 10  1  0  0  0  0
  9 37  1  0  0  0  0
 10 11  2  0  0  0  0
 10 13  1  0  0  0  0
 11 12  1  0  0  0  0
 11 38  1  0  0  0  0
 12 39  1  0  0  0  0
 13 40  1  0  0  0  0
 14 15  1  0  0  0  0
 15 16  1  0  0  0  0
 15 24  1  0  0  0  0
 16 21  2  0  0  0  0
 16 17  1  0  0  0  0
 17 18  2  0  0  0  0
 17 41  1  0  0  0  0
 18 19  1  0  0  0  0
 18 42  1  0  0  0  0
 19 20  2  0  0  0  0
 19 23  1  0  0  0  0
 20 21  1  0  0  0  0
 20 43  1  0  0  0  0
 21 22  1  0  0  0  0
 24 25  1  0  0  0  0
 25 30  2  0  0  0  0
 25 26  1  0  0  0  0
 26 27  2  0  0  0  0
 26 44  1  0  0  0  0
 27 28  1  0  0  0  0
 27 45  1  0  0  0  0
 28 29  2  0  0  0  0
 28 31  1  0  0  0  0
 29 30  1  0  0  0  0
 29 46  1  0  0  0  0
 30 47  1  0  0  0  0
M  END
$$$$
CHEMBL2030769
 OpenBabel12022417383D

 57 60  0  0  1  0  0  0  0  0999 V2000
    1.1366    0.3845   -0.0242 C   0  0  0  0  0  0  0  0  0  0  0  0
    2.6034    0.1385   -0.1245 C   0  0  0  0  0  0  0  0  0  0  0  0
    3.5857    1.1694   -0.2123 C   0  0  0  0  0  0  0  0  0  0  0  0
    3.3373    2.6276   -0.2563 C   0  0  0  0  0  0  0  0  0  0  0  0
    2.2095    3.1100   -0.1911 O   0  0  0  0  0  0  0  0  0  0  0  0
    4.4678    3.4133   -0.3545 N   0  0  0  0  0  0  0  0  0  0  0  0
    4.4598    4.8757   -0.2555 C   0  0  1  0  0  0  0  0  0  0  0  0
    3.7753    5.5527   -1.4507 C   0  0  0  0  0  0  0  0  0  0  0  0
    3.8986    7.0717   -1.3310 C   0  0  0  0  0  0  0  0  0  0  0  0
    3.3479    7.6018   -0.0079 C   0  0  0  0  0  0  0  0  0  0  0  0
    3.9169    6.8662    1.1527 N   0  0  0  0  0  0  0  0  0  0  0  0
    3.8117    5.3834    1.0439 C   0  0  0  0  0  0  0  0  0  0  0  0
    3.5116    7.4942    2.6917 S   0  0  0  0  0  0  0  0  0  0  0  0
    4.2108    6.7118    3.6856 O   0  0  0  0  0  0  0  0  0  0  0  0
    3.6581    8.9343    2.6341 O   0  0  0  0  0  0  0  0  0  0  0  0
    1.7704    7.1235    2.8257 C   0  0  0  0  0  0  0  0  0  0  0  0
    4.8239    0.6551   -0.2284 N   0  0  0  0  0  0  0  0  0  0  0  0
    4.6594   -0.6947   -0.1913 N   0  0  0  0  0  0  0  0  0  0  0  0
    5.8061   -1.5261   -0.3573 C   0  0  0  0  0  0  0  0  0  0  0  0
    5.7382   -2.6170   -1.2437 C   0  0  0  0  0  0  0  0  0  0  0  0
    6.8502   -3.4395   -1.4392 C   0  0  0  0  0  0  0  0  0  0  0  0
    8.0384   -3.1677   -0.7678 C   0  0  0  0  0  0  0  0  0  0  0  0
    8.1193   -2.0967    0.1187 C   0  0  0  0  0  0  0  0  0  0  0  0
    7.0053   -1.2737    0.3320 C   0  0  0  0  0  0  0  0  0  0  0  0
    7.1660   -0.0835    1.5792 Cl  0  0  0  0  0  0  0  0  0  0  0  0
    9.4132   -4.1675   -1.0301 Cl  0  0  0  0  0  0  0  0  0  0  0  0
    3.3082   -1.0669   -0.1191 C   0  0  0  0  0  0  0  0  0  0  0  0
    2.8001   -2.4526    0.0266 C   0  0  0  0  0  0  0  0  0  0  0  0
    3.4712   -3.4076    0.8098 C   0  0  0  0  0  0  0  0  0  0  0  0
    3.0135   -4.7281    0.8973 C   0  0  0  0  0  0  0  0  0  0  0  0
    1.8320   -5.0944    0.2635 C   0  0  0  0  0  0  0  0  0  0  0  0
    1.1217   -4.1580   -0.4790 C   0  0  0  0  0  0  0  0  0  0  0  0
    1.6191   -2.8559   -0.6180 C   0  0  0  0  0  0  0  0  0  0  0  0
    1.2501   -6.7065    0.3972 Cl  0  0  0  0  0  0  0  0  0  0  0  0
    0.5588   -0.5216    0.1600 H   0  0  0  0  0  0  0  0  0  0  0  0
    0.7697    0.8384   -0.9511 H   0  0  0  0  0  0  0  0  0  0  0  0
    0.9192    1.0640    0.8062 H   0  0  0  0  0  0  0  0  0  0  0  0
    5.3524    2.9073   -0.3495 H   0  0  0  0  0  0  0  0  0  0  0  0
    5.5187    5.1689   -0.2591 H   0  0  0  0  0  0  0  0  0  0  0  0
    2.7128    5.2827   -1.4935 H   0  0  0  0  0  0  0  0  0  0  0  0
    4.2223    5.2172   -2.3933 H   0  0  0  0  0  0  0  0  0  0  0  0
    3.3624    7.5503   -2.1591 H   0  0  0  0  0  0  0  0  0  0  0  0
    4.9532    7.3567   -1.4295 H   0  0  0  0  0  0  0  0  0  0  0  0
    2.2567    7.5207   -0.0061 H   0  0  0  0  0  0  0  0  0  0  0  0
    3.6135    8.6627    0.0665 H   0  0  0  0  0  0  0  0  0  0  0  0
    4.3146    4.9074    1.8919 H   0  0  0  0  0  0  0  0  0  0  0  0
    2.7540    5.1064    1.0792 H   0  0  0  0  0  0  0  0  0  0  0  0
    1.6211    6.0436    2.7864 H   0  0  0  0  0  0  0  0  0  0  0  0
    1.2255    7.6270    2.0265 H   0  0  0  0  0  0  0  0  0  0  0  0
    1.4236    7.4974    3.7914 H   0  0  0  0  0  0  0  0  0  0  0  0
    4.8344   -2.8316   -1.8108 H   0  0  0  0  0  0  0  0  0  0  0  0
    6.7838   -4.2836   -2.1219 H   0  0  0  0  0  0  0  0  0  0  0  0
    9.0453   -1.9137    0.6595 H   0  0  0  0  0  0  0  0  0  0  0  0
    4.3761   -3.1511    1.3559 H   0  0  0  0  0  0  0  0  0  0  0  0
    3.5829   -5.4590    1.4658 H   0  0  0  0  0  0  0  0  0  0  0  0
    0.1857   -4.4323   -0.9592 H   0  0  0  0  0  0  0  0  0  0  0  0
    1.0603   -2.1632   -1.2429 H   0  0  0  0  0  0  0  0  0  0  0  0
  1  2  1  0  0  0  0
  1 35  1  0  0  0  0
  1 36  1  0  0  0  0
  1 37  1  0  0  0  0
  2 27  2  0  0  0  0
  2  3  1  0  0  0  0
  3  4  1  0  0  0  0
  3 17  2  0  0  0  0
  4  5  2  0  0  0  0
  4  6  1  0  0  0  0
  6 38  1  0  0  0  0
  7  6  1  0  0  0  0
  7  8  1  0  0  0  0
  7 12  1  0  0  0  0
  7 39  1  1  0  0  0
  8  9  1  0  0  0  0
  8 40  1  0  0  0  0
  8 41  1  0  0  0  0
  9 10  1  0  0  0  0
  9 42  1  0  0  0  0
  9 43  1  0  0  0  0
 10 11  1  0  0  0  0
 10 44  1  0  0  0  0
 10 45  1  0  0  0  0
 11 12  1  0  0  0  0
 11 13  1  0  0  0  0
 12 46  1  0  0  0  0
 12 47  1  0  0  0  0
 13 14  2  0  0  0  0
 13 15  2  0  0  0  0
 13 16  1  0  0  0  0
 16 48  1  0  0  0  0
 16 49  1  0  0  0  0
 16 50  1  0  0  0  0
 17 18  1  0  0  0  0
 18 19  1  0  0  0  0
 18 27  1  0  0  0  0
 19 24  2  0  0  0  0
 19 20  1  0  0  0  0
 20 21  2  0  0  0  0
 20 51  1  0  0  0  0
 21 22  1  0  0  0  0
 21 52  1  0  0  0  0
 22 23  2  0  0  0  0
 22 26  1  0  0  0  0
 23 24  1  0  0  0  0
 23 53  1  0  0  0  0
 24 25  1  0  0  0  0
 27 28  1  0  0  0  0
 28 33  2  0  0  0  0
 28 29  1  0  0  0  0
 29 30  2  0  0  0  0
 29 54  1  0  0  0  0
 30 31  1  0  0  0  0
 30 55  1  0  0  0  0
 31 32  2  0  0  0  0
 31 34  1  0  0  0  0
 32 33  1  0  0  0  0
 32 56  1  0  0  0  0
 33 57  1  0  0  0  0
M  END
$$$$
CHEMBL1088244
 OpenBabel12022417383D

 49 52  0  0  0  0  0  0  0  0999 V2000
    1.2059    0.5060    0.1771 C   0  0  0  0  0  0  0  0  0  0  0  0
    3.0085    0.3163    0.1550 S   0  0  0  0  0  0  0  0  0  0  0  0
    3.4283    1.2045   -1.3032 C   0  0  0  0  0  0  0  0  0  0  0  0
    3.3784    2.6164   -1.4600 C   0  0  0  0  0  0  0  0  0  0  0  0
    2.9277    3.6569   -0.5137 C   0  0  0  0  0  0  0  0  0  0  0  0
    2.3846    3.3972    0.5589 O   0  0  0  0  0  0  0  0  0  0  0  0
    3.1616    4.9524   -0.9695 N   0  0  0  0  0  0  0  0  0  0  0  0
    2.8240    6.1469   -0.2871 N   0  0  0  0  0  0  0  0  0  0  0  0
    3.5913    6.3759    0.9431 C   0  0  0  0  0  0  0  0  0  0  0  0
    2.6923    5.9716    2.0963 C   0  0  0  0  0  0  0  0  0  0  0  0
    1.2832    6.1861    1.5758 C   0  0  0  0  0  0  0  0  0  0  0  0
    1.4017    6.2691    0.0578 C   0  0  0  0  0  0  0  0  0  0  0  0
    3.8504    2.9653   -2.6697 N   0  0  0  0  0  0  0  0  0  0  0  0
    4.1855    1.8064   -3.2865 N   0  0  0  0  0  0  0  0  0  0  0  0
    4.5582    1.8644   -4.6624 C   0  0  0  0  0  0  0  0  0  0  0  0
    4.0278    0.9197   -5.5591 C   0  0  0  0  0  0  0  0  0  0  0  0
    4.3565    0.9743   -6.9174 C   0  0  0  0  0  0  0  0  0  0  0  0
    5.2037    1.9757   -7.3862 C   0  0  0  0  0  0  0  0  0  0  0  0
    5.7436    2.9114   -6.5090 C   0  0  0  0  0  0  0  0  0  0  0  0
    5.4279    2.8603   -5.1454 C   0  0  0  0  0  0  0  0  0  0  0  0
    6.2905    3.9644   -4.1271 Cl  0  0  0  0  0  0  0  0  0  0  0  0
    5.5962    2.0472   -9.0589 Cl  0  0  0  0  0  0  0  0  0  0  0  0
    4.0008    0.6846   -2.4667 C   0  0  0  0  0  0  0  0  0  0  0  0
    4.4636   -0.6922   -2.7874 C   0  0  0  0  0  0  0  0  0  0  0  0
    5.6491   -0.9148   -3.5131 C   0  0  0  0  0  0  0  0  0  0  0  0
    6.0803   -2.2079   -3.8332 C   0  0  0  0  0  0  0  0  0  0  0  0
    5.3674   -3.3072   -3.3724 C   0  0  0  0  0  0  0  0  0  0  0  0
    4.2122   -3.1204   -2.6229 C   0  0  0  0  0  0  0  0  0  0  0  0
    3.7533   -1.8236   -2.3547 C   0  0  0  0  0  0  0  0  0  0  0  0
    5.9206   -4.8970   -3.7222 Cl  0  0  0  0  0  0  0  0  0  0  0  0
    0.7875   -0.1748    0.9233 H   0  0  0  0  0  0  0  0  0  0  0  0
    0.7759    0.2616   -0.7963 H   0  0  0  0  0  0  0  0  0  0  0  0
    0.9076    1.5200    0.4521 H   0  0  0  0  0  0  0  0  0  0  0  0
    3.5991    5.0268   -1.8895 H   0  0  0  0  0  0  0  0  0  0  0  0
    3.8031    7.4497    1.0159 H   0  0  0  0  0  0  0  0  0  0  0  0
    4.5559    5.8576    0.9641 H   0  0  0  0  0  0  0  0  0  0  0  0
    2.8858    6.5624    2.9973 H   0  0  0  0  0  0  0  0  0  0  0  0
    2.8458    4.9217    2.3646 H   0  0  0  0  0  0  0  0  0  0  0  0
    0.8715    7.1202    1.9754 H   0  0  0  0  0  0  0  0  0  0  0  0
    0.6212    5.3711    1.8872 H   0  0  0  0  0  0  0  0  0  0  0  0
    0.7662    5.5268   -0.4383 H   0  0  0  0  0  0  0  0  0  0  0  0
    1.0463    7.2519   -0.2761 H   0  0  0  0  0  0  0  0  0  0  0  0
    3.3351    0.1465   -5.2280 H   0  0  0  0  0  0  0  0  0  0  0  0
    3.9449    0.2381   -7.6032 H   0  0  0  0  0  0  0  0  0  0  0  0
    6.4283    3.6695   -6.8826 H   0  0  0  0  0  0  0  0  0  0  0  0
    6.2678   -0.0868   -3.8512 H   0  0  0  0  0  0  0  0  0  0  0  0
    6.9792   -2.3444   -4.4288 H   0  0  0  0  0  0  0  0  0  0  0  0
    3.6616   -3.9757   -2.2393 H   0  0  0  0  0  0  0  0  0  0  0  0
    2.8321   -1.7246   -1.7879 H   0  0  0  0  0  0  0  0  0  0  0  0
  1  2  1  0  0  0  0
  1 31  1  0  0  0  0
  1 32  1  0  0  0  0
  1 33  1  0  0  0  0
  2  3  1  0  0  0  0
  3 23  2  0  0  0  0
  3  4  1  0  0  0  0
  4  5  1  0  0  0  0
  4 13  2  0  0  0  0
  5  6  2  0  0  0  0
  5  7  1  0  0  0  0
  7  8  1  0  0  0  0
  7 34  1  0  0  0  0
  8 12  1  0  0  0  0
  8  9  1  0  0  0  0
  9 10  1  0  0  0  0
  9 35  1  0  0  0  0
  9 36  1  0  0  0  0
 10 11  1  0  0  0  0
 10 37  1  0  0  0  0
 10 38  1  0  0  0  0
 11 12  1  0  0  0  0
 11 39  1  0  0  0  0
 11 40  1  0  0  0  0
 12 41  1  0  0  0  0
 12 42  1  0  0  0  0
 13 14  1  0  0  0  0
 14 15  1  0  0  0  0
 14 23  1  0  0  0  0
 15 20  2  0  0  0  0
 15 16  1  0  0  0  0
 16 17  2  0  0  0  0
 16 43  1  0  0  0  0
 17 18  1  0  0  0  0
 17 44  1  0  0  0  0
 18 19  2  0  0  0  0
 18 22  1  0  0  0  0
 19 20  1  0  0  0  0
 19 45  1  0  0  0  0
 20 21  1  0  0  0  0
 23 24  1  0  0  0  0
 24 29  2  0  0  0  0
 24 25  1  0  0  0  0
 25 26  2  0  0  0  0
 25 46  1  0  0  0  0
 26 27  1  0  0  0  0
 26 47  1  0  0  0  0
 27 28  2  0  0  0  0
 27 30  1  0  0  0  0
 28 29  1  0  0  0  0
 28 48  1  0  0  0  0
 29 49  1  0  0  0  0
M  END
$$$$
CHEMBL1088221
 OpenBabel12022417383D

 52 55  0  0  0  0  0  0  0  0999 V2000
    1.0772    0.1056    0.0932 C   0  0  0  0  0  0  0  0  0  0  0  0
    2.7911    0.2932   -0.4333 S   0  0  0  0  0  0  0  0  0  0  0  0
    3.2983    1.7685    0.3601 C   0  0  0  0  0  0  0  0  0  0  0  0
    2.8714    3.0736    0.1609 C   0  0  0  0  0  0  0  0  0  0  0  0
    1.8330    3.5733   -0.7643 C   0  0  0  0  0  0  0  0  0  0  0  0
    1.2022    2.8467   -1.5301 O   0  0  0  0  0  0  0  0  0  0  0  0
    1.6492    4.9517   -0.6801 N   0  0  0  0  0  0  0  0  0  0  0  0
    0.6569    5.6119   -1.4595 N   0  0  0  0  0  0  0  0  0  0  0  0
    0.0437    6.7226   -0.7155 C   0  0  0  0  0  0  0  0  0  0  0  0
   -1.0061    7.4707   -1.5430 C   0  0  0  0  0  0  0  0  0  0  0  0
   -0.4257    7.9551   -2.8655 C   0  0  0  0  0  0  0  0  0  0  0  0
    0.1905    6.7824   -3.6163 C   0  0  0  0  0  0  0  0  0  0  0  0
    1.2154    6.0443   -2.7500 C   0  0  0  0  0  0  0  0  0  0  0  0
    3.5992    3.9320    0.9715 N   0  0  0  0  0  0  0  0  0  0  0  0
    4.4555    3.1885    1.6625 C   0  0  0  0  0  0  0  0  0  0  0  0
    5.5289    3.7870    2.5076 C   0  0  0  0  0  0  0  0  0  0  0  0
    6.8239    3.2291    2.5156 C   0  0  0  0  0  0  0  0  0  0  0  0
    7.8449    3.7440    3.3239 C   0  0  0  0  0  0  0  0  0  0  0  0
    7.6117    4.8805    4.0854 C   0  0  0  0  0  0  0  0  0  0  0  0
    6.3631    5.4907    4.0643 C   0  0  0  0  0  0  0  0  0  0  0  0
    5.3238    4.9426    3.2938 C   0  0  0  0  0  0  0  0  0  0  0  0
    3.7927    5.7476    3.4052 Cl  0  0  0  0  0  0  0  0  0  0  0  0
    8.8734    5.5365    5.0512 Cl  0  0  0  0  0  0  0  0  0  0  0  0
    4.2543    1.8171    1.3900 N   0  0  0  0  0  0  0  0  0  0  0  0
    4.8982    0.7126    2.0606 C   0  0  0  0  0  0  0  0  0  0  0  0
    5.1640    0.7798    3.4384 C   0  0  0  0  0  0  0  0  0  0  0  0
    5.8555   -0.2557    4.0855 C   0  0  0  0  0  0  0  0  0  0  0  0
    6.2429   -1.3856    3.3717 C   0  0  0  0  0  0  0  0  0  0  0  0
    5.9681   -1.4779    2.0124 C   0  0  0  0  0  0  0  0  0  0  0  0
    5.3176   -0.4250    1.3557 C   0  0  0  0  0  0  0  0  0  0  0  0
    7.0731   -2.6640    4.1672 Cl  0  0  0  0  0  0  0  0  0  0  0  0
    0.7534   -0.9136   -0.1415 H   0  0  0  0  0  0  0  0  0  0  0  0
    0.4148    0.7931   -0.4363 H   0  0  0  0  0  0  0  0  0  0  0  0
    0.9790    0.2589    1.1697 H   0  0  0  0  0  0  0  0  0  0  0  0
    2.2352    5.4642   -0.0224 H   0  0  0  0  0  0  0  0  0  0  0  0
    0.8127    7.4320   -0.3842 H   0  0  0  0  0  0  0  0  0  0  0  0
   -0.4465    6.3313    0.1848 H   0  0  0  0  0  0  0  0  0  0  0  0
   -1.3871    8.3271   -0.9737 H   0  0  0  0  0  0  0  0  0  0  0  0
   -1.8631    6.8136   -1.7408 H   0  0  0  0  0  0  0  0  0  0  0  0
    0.3395    8.7177   -2.6769 H   0  0  0  0  0  0  0  0  0  0  0  0
   -1.2062    8.4259   -3.4734 H   0  0  0  0  0  0  0  0  0  0  0  0
    0.6739    7.1444   -4.5312 H   0  0  0  0  0  0  0  0  0  0  0  0
   -0.6020    6.0898   -3.9269 H   0  0  0  0  0  0  0  0  0  0  0  0
    1.5613    5.1679   -3.3112 H   0  0  0  0  0  0  0  0  0  0  0  0
    2.0861    6.6921   -2.5901 H   0  0  0  0  0  0  0  0  0  0  0  0
    7.0637    2.3600    1.9040 H   0  0  0  0  0  0  0  0  0  0  0  0
    8.8154    3.2537    3.3465 H   0  0  0  0  0  0  0  0  0  0  0  0
    6.1926    6.3889    4.6517 H   0  0  0  0  0  0  0  0  0  0  0  0
    4.8465    1.6253    4.0446 H   0  0  0  0  0  0  0  0  0  0  0  0
    6.0844   -0.1745    5.1455 H   0  0  0  0  0  0  0  0  0  0  0  0
    6.2699   -2.3573    1.4476 H   0  0  0  0  0  0  0  0  0  0  0  0
    5.2038   -0.5154    0.2795 H   0  0  0  0  0  0  0  0  0  0  0  0
  1  2  1  0  0  0  0
  1 32  1  0  0  0  0
  1 33  1  0  0  0  0
  1 34  1  0  0  0  0
  2  3  1  0  0  0  0
  3 24  1  0  0  0  0
  3  4  2  0  0  0  0
  4  5  1  0  0  0  0
  4 14  1  0  0  0  0
  5  6  2  0  0  0  0
  5  7  1  0  0  0  0
  7  8  1  0  0  0  0
  7 35  1  0  0  0  0
  8 13  1  0  0  0  0
  8  9  1  0  0  0  0
  9 10  1  0  0  0  0
  9 36  1  0  0  0  0
  9 37  1  0  0  0  0
 10 11  1  0  0  0  0
 10 38  1  0  0  0  0
 10 39  1  0  0  0  0
 11 12  1  0  0  0  0
 11 40  1  0  0  0  0
 11 41  1  0  0  0  0
 12 13  1  0  0  0  0
 12 42  1  0  0  0  0
 12 43  1  0  0  0  0
 13 44  1  0  0  0  0
 13 45  1  0  0  0  0
 14 15  2  0  0  0  0
 15 16  1  0  0  0  0
 15 24  1  0  0  0  0
 16 21  2  0  0  0  0
 16 17  1  0  0  0  0
 17 18  2  0  0  0  0
 17 46  1  0  0  0  0
 18 19  1  0  0  0  0
 18 47  1  0  0  0  0
 19 20  2  0  0  0  0
 19 23  1  0  0  0  0
 20 21  1  0  0  0  0
 20 48  1  0  0  0  0
 21 22  1  0  0  0  0
 24 25  1  0  0  0  0
 25 30  2  0  0  0  0
 25 26  1  0  0  0  0
 26 27  2  0  0  0  0
 26 49  1  0  0  0  0
 27 28  1  0  0  0  0
 27 50  1  0  0  0  0
 28 29  2  0  0  0  0
 28 31  1  0  0  0  0
 29 30  1  0  0  0  0
 29 51  1  0  0  0  0
 30 52  1  0  0  0  0
M  END
$$$$
CHEMBL494728
 OpenBabel12022417383D

 66 70  0  0  0  0  0  0  0  0999 V2000
    1.0598    0.2689    0.0156 C   0  0  0  0  0  0  0  0  0  0  0  0
    2.5373    0.1444   -0.0427 C   0  0  0  0  0  0  0  0  0  0  0  0
    3.5649    1.1552    0.0066 C   0  0  0  0  0  0  0  0  0  0  0  0
    3.4049    2.6726    0.0112 C   0  0  0  0  0  0  0  0  0  0  0  0
    2.3071    3.1778   -0.0494 O   0  0  0  0  0  0  0  0  0  0  0  0
    4.6122    3.3920    0.0586 N   0  0  0  0  0  0  0  0  0  0  0  0
    4.7201    4.8256    0.1031 N   0  0  0  0  0  0  0  0  0  0  0  0
    4.3818    5.5082   -1.1580 C   0  0  0  0  0  0  0  0  0  0  0  0
    4.7269    7.0060   -1.0921 C   0  0  0  0  0  0  0  0  0  0  0  0
    4.0484    7.6827    0.0923 C   0  0  0  0  0  0  0  0  0  0  0  0
    4.3476    6.9223    1.3801 C   0  0  0  0  0  0  0  0  0  0  0  0
    4.0238    5.4291    1.2473 C   0  0  0  0  0  0  0  0  0  0  0  0
    4.7813    0.5979    0.0700 N   0  0  0  0  0  0  0  0  0  0  0  0
    4.5819   -0.7494   -0.0765 N   0  0  0  0  0  0  0  0  0  0  0  0
    5.7022   -1.6396   -0.1994 C   0  0  0  0  0  0  0  0  0  0  0  0
    5.6611   -2.7042   -1.1309 C   0  0  0  0  0  0  0  0  0  0  0  0
    6.7844   -3.5120   -1.3252 C   0  0  0  0  0  0  0  0  0  0  0  0
    7.9491   -3.2720   -0.6034 C   0  0  0  0  0  0  0  0  0  0  0  0
    7.9824   -2.2640    0.3589 C   0  0  0  0  0  0  0  0  0  0  0  0
    6.8556   -1.4629    0.5782 C   0  0  0  0  0  0  0  0  0  0  0  0
    6.9597   -0.3462    1.8982 Cl  0  0  0  0  0  0  0  0  0  0  0  0
    9.3551   -4.2202   -0.8833 Cl  0  0  0  0  0  0  0  0  0  0  0  0
    3.2518   -1.0670   -0.0881 C   0  0  0  0  0  0  0  0  0  0  0  0
    2.7332   -2.3865    0.0061 C   0  0  0  0  0  0  0  0  0  0  0  0
    3.3569   -3.5152    0.5255 C   0  0  0  0  0  0  0  0  0  0  0  0
    2.4845   -4.6281    0.5877 C   0  0  0  0  0  0  0  0  0  0  0  0
    1.2312   -4.2807    0.1339 C   0  0  0  0  0  0  0  0  0  0  0  0
    0.0883   -5.0641    0.1358 C   0  0  0  0  0  0  0  0  0  0  0  0
   -0.9720   -5.8188    0.0569 C   0  0  0  0  0  0  0  0  0  0  0  0
   -2.2081   -6.6986   -0.0350 C   0  0  0  0  0  0  0  0  0  0  0  0
   -1.8129   -8.1047   -0.5018 C   0  0  0  0  0  0  0  0  0  0  0  0
   -0.9240   -8.8247    0.5166 C   0  0  0  0  0  0  0  0  0  0  0  0
   -1.5706   -8.8612    1.8993 C   0  0  0  0  0  0  0  0  0  0  0  0
   -1.9769   -7.4705    2.3810 C   0  0  0  0  0  0  0  0  0  0  0  0
   -2.8628   -6.7555    1.3552 C   0  0  0  0  0  0  0  0  0  0  0  0
    1.1892   -2.7817   -0.5743 S   0  0  0  0  0  0  0  0  0  0  0  0
    0.5284   -0.6749    0.0898 H   0  0  0  0  0  0  0  0  0  0  0  0
    0.6448    0.7357   -0.8845 H   0  0  0  0  0  0  0  0  0  0  0  0
    0.7160    0.7640    0.9292 H   0  0  0  0  0  0  0  0  0  0  0  0
    5.4844    2.8669    0.1104 H   0  0  0  0  0  0  0  0  0  0  0  0
    3.3127    5.4133   -1.3849 H   0  0  0  0  0  0  0  0  0  0  0  0
    4.9418    5.0653   -1.9903 H   0  0  0  0  0  0  0  0  0  0  0  0
    4.4141    7.5005   -2.0202 H   0  0  0  0  0  0  0  0  0  0  0  0
    5.8142    7.1389   -1.0133 H   0  0  0  0  0  0  0  0  0  0  0  0
    2.9627    7.7146   -0.0704 H   0  0  0  0  0  0  0  0  0  0  0  0
    4.3851    8.7230    0.1814 H   0  0  0  0  0  0  0  0  0  0  0  0
    3.7711    7.3545    2.2044 H   0  0  0  0  0  0  0  0  0  0  0  0
    5.4083    7.0500    1.6330 H   0  0  0  0  0  0  0  0  0  0  0  0
    4.3356    4.9299    2.1705 H   0  0  0  0  0  0  0  0  0  0  0  0
    2.9410    5.2995    1.1530 H   0  0  0  0  0  0  0  0  0  0  0  0
    4.7743   -2.9015   -1.7322 H   0  0  0  0  0  0  0  0  0  0  0  0
    6.7680   -4.3018   -2.0798 H   0  0  0  0  0  0  0  0  0  0  0  0
    8.8927   -2.0838    0.9217 H   0  0  0  0  0  0  0  0  0  0  0  0
    4.3757   -3.5536    0.8646 H   0  0  0  0  0  0  0  0  0  0  0  0
    2.7284   -5.5853    0.9755 H   0  0  0  0  0  0  0  0  0  0  0  0
   -2.9041   -6.2503   -0.7532 H   0  0  0  0  0  0  0  0  0  0  0  0
   -1.2956   -8.0563   -1.4674 H   0  0  0  0  0  0  0  0  0  0  0  0
   -2.7232   -8.6979   -0.6579 H   0  0  0  0  0  0  0  0  0  0  0  0
    0.0499   -8.3238    0.5817 H   0  0  0  0  0  0  0  0  0  0  0  0
   -0.7244   -9.8460    0.1741 H   0  0  0  0  0  0  0  0  0  0  0  0
   -0.8768   -9.3117    2.6179 H   0  0  0  0  0  0  0  0  0  0  0  0
   -2.4590   -9.5029    1.8648 H   0  0  0  0  0  0  0  0  0  0  0  0
   -1.0755   -6.8763    2.5770 H   0  0  0  0  0  0  0  0  0  0  0  0
   -2.5072   -7.5485    3.3370 H   0  0  0  0  0  0  0  0  0  0  0  0
   -3.8219   -7.2837    1.2818 H   0  0  0  0  0  0  0  0  0  0  0  0
   -3.0843   -5.7425    1.7148 H   0  0  0  0  0  0  0  0  0  0  0  0
  1  2  1  0  0  0  0
  1 37  1  0  0  0  0
  1 38  1  0  0  0  0
  1 39  1  0  0  0  0
  2 23  2  0  0  0  0
  2  3  1  0  0  0  0
  3  4  1  0  0  0  0
  3 13  2  0  0  0  0
  4  5  2  0  0  0  0
  4  6  1  0  0  0  0
  6  7  1  0  0  0  0
  6 40  1  0  0  0  0
  7 12  1  0  0  0  0
  7  8  1  0  0  0  0
  8  9  1  0  0  0  0
  8 41  1  0  0  0  0
  8 42  1  0  0  0  0
  9 10  1  0  0  0  0
  9 43  1  0  0  0  0
  9 44  1  0  0  0  0
 10 11  1  0  0  0  0
 10 45  1  0  0  0  0
 10 46  1  0  0  0  0
 11 12  1  0  0  0  0
 11 47  1  0  0  0  0
 11 48  1  0  0  0  0
 12 49  1  0  0  0  0
 12 50  1  0  0  0  0
 13 14  1  0  0  0  0
 14 15  1  0  0  0  0
 14 23  1  0  0  0  0
 15 20  2  0  0  0  0
 15 16  1  0  0  0  0
 16 17  2  0  0  0  0
 16 51  1  0  0  0  0
 17 18  1  0  0  0  0
 17 52  1  0  0  0  0
 18 19  2  0  0  0  0
 18 22  1  0  0  0  0
 19 20  1  0  0  0  0
 19 53  1  0  0  0  0
 20 21  1  0  0  0  0
 23 24  1  0  0  0  0
 24 36  1  0  0  0  0
 24 25  2  0  0  0  0
 25 26  1  0  0  0  0
 25 54  1  0  0  0  0
 26 27  2  0  0  0  0
 26 55  1  0  0  0  0
 27 28  1  0  0  0  0
 27 36  1  0  0  0  0
 28 29  3  0  0  0  0
 29 30  1  0  0  0  0
 30 35  1  0  0  0  0
 30 31  1  0  0  0  0
 30 56  1  0  0  0  0
 31 32  1  0  0  0  0
 31 57  1  0  0  0  0
 31 58  1  0  0  0  0
 32 33  1  0  0  0  0
 32 59  1  0  0  0  0
 32 60  1  0  0  0  0
 33 34  1  0  0  0  0
 33 61  1  0  0  0  0
 33 62  1  0  0  0  0
 34 35  1  0  0  0  0
 34 63  1  0  0  0  0
 34 64  1  0  0  0  0
 35 65  1  0  0  0  0
 35 66  1  0  0  0  0
M  END
$$$$
CHEMBL522824
 OpenBabel12022417383D

 66 70  0  0  0  0  0  0  0  0999 V2000
    1.2035    0.4115   -0.0779 C   0  0  0  0  0  0  0  0  0  0  0  0
    2.6840    0.2024   -0.1449 C   0  0  0  0  0  0  0  0  0  0  0  0
    3.7005    1.2221   -0.1300 C   0  0  0  0  0  0  0  0  0  0  0  0
    3.5255    2.7037   -0.1209 C   0  0  0  0  0  0  0  0  0  0  0  0
    2.4090    3.2216   -0.1740 O   0  0  0  0  0  0  0  0  0  0  0  0
    4.7267    3.4187   -0.0536 N   0  0  0  0  0  0  0  0  0  0  0  0
    4.8394    4.8511    0.0145 N   0  0  0  0  0  0  0  0  0  0  0  0
    4.4953    5.5335   -1.2429 C   0  0  0  0  0  0  0  0  0  0  0  0
    4.8391    7.0320   -1.1727 C   0  0  0  0  0  0  0  0  0  0  0  0
    4.1604    7.7073    0.0136 C   0  0  0  0  0  0  0  0  0  0  0  0
    4.4576    6.9434    1.2991 C   0  0  0  0  0  0  0  0  0  0  0  0
    4.1349    5.4479    1.1612 C   0  0  0  0  0  0  0  0  0  0  0  0
    4.9267    0.6734   -0.1116 N   0  0  0  0  0  0  0  0  0  0  0  0
    4.7345   -0.6679   -0.1922 N   0  0  0  0  0  0  0  0  0  0  0  0
    5.8584   -1.5297   -0.3539 C   0  0  0  0  0  0  0  0  0  0  0  0
    5.8076   -2.5805   -1.2985 C   0  0  0  0  0  0  0  0  0  0  0  0
    6.9107   -3.4158   -1.4942 C   0  0  0  0  0  0  0  0  0  0  0  0
    8.0739   -3.1998   -0.7631 C   0  0  0  0  0  0  0  0  0  0  0  0
    8.1276   -2.1936    0.1988 C   0  0  0  0  0  0  0  0  0  0  0  0
    7.0207   -1.3648    0.4178 C   0  0  0  0  0  0  0  0  0  0  0  0
    7.1283   -0.2856    1.7668 Cl  0  0  0  0  0  0  0  0  0  0  0  0
    9.4576   -4.1794   -1.0505 Cl  0  0  0  0  0  0  0  0  0  0  0  0
    3.3887   -1.0132   -0.1856 C   0  0  0  0  0  0  0  0  0  0  0  0
    2.8950   -2.3550   -0.1100 C   0  0  0  0  0  0  0  0  0  0  0  0
    3.4750   -3.4640    0.4915 C   0  0  0  0  0  0  0  0  0  0  0  0
    2.6085   -4.5881    0.5252 C   0  0  0  0  0  0  0  0  0  0  0  0
    1.3861   -4.2478    0.0119 C   0  0  0  0  0  0  0  0  0  0  0  0
    0.2275   -5.0262    0.0527 C   0  0  0  0  0  0  0  0  0  0  0  0
   -0.8298   -5.7851   -0.0257 C   0  0  0  0  0  0  0  0  0  0  0  0
   -2.0625   -6.6697   -0.1170 C   0  0  0  0  0  0  0  0  0  0  0  0
   -1.6431   -8.1272   -0.3024 C   0  0  0  0  0  0  0  0  0  0  0  0
   -2.8158   -9.0694   -0.4072 C   0  0  0  0  0  0  0  0  0  0  0  0
   -3.3362   -9.6914    0.7359 C   0  0  0  0  0  0  0  0  0  0  0  0
   -4.3934  -10.5965    0.6284 C   0  0  0  0  0  0  0  0  0  0  0  0
   -4.9455  -10.8817   -0.6189 C   0  0  0  0  0  0  0  0  0  0  0  0
   -4.4495  -10.2522   -1.7588 C   0  0  0  0  0  0  0  0  0  0  0  0
   -3.3924   -9.3468   -1.6539 C   0  0  0  0  0  0  0  0  0  0  0  0
    1.3978   -2.7795   -0.8071 S   0  0  0  0  0  0  0  0  0  0  0  0
    0.6313   -0.5133    0.0245 H   0  0  0  0  0  0  0  0  0  0  0  0
    0.8302    0.8972   -0.9852 H   0  0  0  0  0  0  0  0  0  0  0  0
    0.9203    0.9918    0.8031 H   0  0  0  0  0  0  0  0  0  0  0  0
    5.5746    2.8623    0.0147 H   0  0  0  0  0  0  0  0  0  0  0  0
    3.4290    5.4222   -1.4770 H   0  0  0  0  0  0  0  0  0  0  0  0
    5.0616    5.0966   -2.0729 H   0  0  0  0  0  0  0  0  0  0  0  0
    4.5346    7.5313   -2.1001 H   0  0  0  0  0  0  0  0  0  0  0  0
    5.9261    7.1607   -1.0882 H   0  0  0  0  0  0  0  0  0  0  0  0
    3.0771    7.7447   -0.1537 H   0  0  0  0  0  0  0  0  0  0  0  0
    4.5027    8.7464    0.1048 H   0  0  0  0  0  0  0  0  0  0  0  0
    3.8761    7.3746    2.1223 H   0  0  0  0  0  0  0  0  0  0  0  0
    5.5165    7.0707    1.5580 H   0  0  0  0  0  0  0  0  0  0  0  0
    4.4428    4.9469    2.0854 H   0  0  0  0  0  0  0  0  0  0  0  0
    3.0484    5.3305    1.0682 H   0  0  0  0  0  0  0  0  0  0  0  0
    4.9193   -2.7634   -1.9020 H   0  0  0  0  0  0  0  0  0  0  0  0
    6.8604   -4.2194   -2.2264 H   0  0  0  0  0  0  0  0  0  0  0  0
    9.0302   -2.0590    0.7894 H   0  0  0  0  0  0  0  0  0  0  0  0
    4.4709   -3.4909    0.9181 H   0  0  0  0  0  0  0  0  0  0  0  0
    2.8483   -5.5490    0.9632 H   0  0  0  0  0  0  0  0  0  0  0  0
   -2.6812   -6.3323   -0.9566 H   0  0  0  0  0  0  0  0  0  0  0  0
   -2.6543   -6.5490    0.7977 H   0  0  0  0  0  0  0  0  0  0  0  0
   -0.9992   -8.4438    0.5291 H   0  0  0  0  0  0  0  0  0  0  0  0
   -1.0219   -8.2276   -1.2027 H   0  0  0  0  0  0  0  0  0  0  0  0
   -2.9115   -9.4873    1.7163 H   0  0  0  0  0  0  0  0  0  0  0  0
   -4.7812  -11.0873    1.5179 H   0  0  0  0  0  0  0  0  0  0  0  0
   -5.7600  -11.5963   -0.7033 H   0  0  0  0  0  0  0  0  0  0  0  0
   -4.8802  -10.4731   -2.7320 H   0  0  0  0  0  0  0  0  0  0  0  0
   -3.0110   -8.8707   -2.5546 H   0  0  0  0  0  0  0  0  0  0  0  0
  1  2  1  0  0  0  0
  1 39  1  0  0  0  0
  1 40  1  0  0  0  0
  1 41  1  0  0  0  0
  2 23  2  0  0  0  0
  2  3  1  0  0  0  0
  3  4  1  0  0  0  0
  3 13  2  0  0  0  0
  4  5  2  0  0  0  0
  4  6  1  0  0  0  0
  6  7  1  0  0  0  0
  6 42  1  0  0  0  0
  7 12  1  0  0  0  0
  7  8  1  0  0  0  0
  8  9  1  0  0  0  0
  8 43  1  0  0  0  0
  8 44  1  0  0  0  0
  9 10  1  0  0  0  0
  9 45  1  0  0  0  0
  9 46  1  0  0  0  0
 10 11  1  0  0  0  0
 10 47  1  0  0  0  0
 10 48  1  0  0  0  0
 11 12  1  0  0  0  0
 11 49  1  0  0  0  0
 11 50  1  0  0  0  0
 12 51  1  0  0  0  0
 12 52  1  0  0  0  0
 13 14  1  0  0  0  0
 14 15  1  0  0  0  0
 14 23  1  0  0  0  0
 15 20  2  0  0  0  0
 15 16  1  0  0  0  0
 16 17  2  0  0  0  0
 16 53  1  0  0  0  0
 17 18  1  0  0  0  0
 17 54  1  0  0  0  0
 18 19  2  0  0  0  0
 18 22  1  0  0  0  0
 19 20  1  0  0  0  0
 19 55  1  0  0  0  0
 20 21  1  0  0  0  0
 23 24  1  0  0  0  0
 24 38  1  0  0  0  0
 24 25  2  0  0  0  0
 25 26  1  0  0  0  0
 25 56  1  0  0  0  0
 26 27  2  0  0  0  0
 26 57  1  0  0  0  0
 27 28  1  0  0  0  0
 27 38  1  0  0  0  0
 28 29  3  0  0  0  0
 29 30  1  0  0  0  0
 30 31  1  0  0  0  0
 30 58  1  0  0  0  0
 30 59  1  0  0  0  0
 31 32  1  0  0  0  0
 31 60  1  0  0  0  0
 31 61  1  0  0  0  0
 32 37  2  0  0  0  0
 32 33  1  0  0  0  0
 33 34  2  0  0  0  0
 33 62  1  0  0  0  0
 34 35  1  0  0  0  0
 34 63  1  0  0  0  0
 35 36  2  0  0  0  0
 35 64  1  0  0  0  0
 36 37  1  0  0  0  0
 36 65  1  0  0  0  0
 37 66  1  0  0  0  0
M  END
$$$$
CHEMBL4102969
 OpenBabel12022417383D

 65 69  0  0  0  0  0  0  0  0999 V2000
    1.0981    0.3658   -0.0090 C   0  0  0  0  0  0  0  0  0  0  0  0
    2.5775    0.2053   -0.1181 C   0  0  0  0  0  0  0  0  0  0  0  0
    3.5449    1.2021   -0.1887 C   0  0  0  0  0  0  0  0  0  0  0  0
    3.3378    2.6710   -0.2320 C   0  0  0  0  0  0  0  0  0  0  0  0
    2.2198    3.1789   -0.2709 O   0  0  0  0  0  0  0  0  0  0  0  0
    4.5384    3.3825   -0.2228 N   0  0  0  0  0  0  0  0  0  0  0  0
    4.6657    4.8043   -0.2346 N   0  0  0  0  0  0  0  0  0  0  0  0
    4.2673    5.4133   -1.5115 C   0  0  0  0  0  0  0  0  0  0  0  0
    4.6242    6.9060   -1.5414 C   0  0  0  0  0  0  0  0  0  0  0  0
    4.0226    7.6577   -0.3575 C   0  0  0  0  0  0  0  0  0  0  0  0
    4.3732    6.9589    0.9526 C   0  0  0  0  0  0  0  0  0  0  0  0
    4.0223    5.4662    0.9078 C   0  0  0  0  0  0  0  0  0  0  0  0
    4.8039    0.6323   -0.2048 N   0  0  0  0  0  0  0  0  0  0  0  0
    4.6512   -0.6819   -0.1489 C   0  0  0  0  0  0  0  0  0  0  0  0
    5.7900   -1.6475   -0.2130 C   0  0  0  0  0  0  0  0  0  0  0  0
    6.9991   -1.4485    0.4840 C   0  0  0  0  0  0  0  0  0  0  0  0
    7.9670   -2.4652    0.5590 C   0  0  0  0  0  0  0  0  0  0  0  0
    7.7296   -3.7021   -0.0291 C   0  0  0  0  0  0  0  0  0  0  0  0
    6.5804   -3.9028   -0.7779 C   0  0  0  0  0  0  0  0  0  0  0  0
    5.6627   -2.8571   -0.9297 C   0  0  0  0  0  0  0  0  0  0  0  0
    8.8528   -4.9878    0.1731 Cl  0  0  0  0  0  0  0  0  0  0  0  0
    7.3697    0.0130    1.3350 Cl  0  0  0  0  0  0  0  0  0  0  0  0
    3.2735   -1.0039   -0.0668 N   0  0  0  0  0  0  0  0  0  0  0  0
    2.7121   -2.3216    0.0130 C   0  0  0  0  0  0  0  0  0  0  0  0
    3.3684   -3.3078    0.7560 C   0  0  0  0  0  0  0  0  0  0  0  0
    3.0358   -4.6505    0.5938 C   0  0  0  0  0  0  0  0  0  0  0  0
    1.9251   -5.0167   -0.1606 C   0  0  0  0  0  0  0  0  0  0  0  0
    1.2005   -4.0303   -0.8296 C   0  0  0  0  0  0  0  0  0  0  0  0
    1.6065   -2.6880   -0.7682 C   0  0  0  0  0  0  0  0  0  0  0  0
    1.4810   -6.3046   -0.2983 O   0  0  0  0  0  0  0  0  0  0  0  0
    1.9794   -7.2076    0.6931 C   0  0  0  0  0  0  0  0  0  0  0  0
    1.0382   -8.3703    0.8491 C   0  0  0  0  0  0  0  0  0  0  0  0
    0.3973   -8.5789    2.0888 C   0  0  0  0  0  0  0  0  0  0  0  0
   -0.4608   -9.6688    2.2440 C   0  0  0  0  0  0  0  0  0  0  0  0
   -0.6830  -10.5520    1.1890 C   0  0  0  0  0  0  0  0  0  0  0  0
   -0.0302  -10.3444   -0.0346 C   0  0  0  0  0  0  0  0  0  0  0  0
    0.8232   -9.2625   -0.2035 C   0  0  0  0  0  0  0  0  0  0  0  0
    0.5633   -0.5580    0.2146 H   0  0  0  0  0  0  0  0  0  0  0  0
    0.6971    0.7718   -0.9438 H   0  0  0  0  0  0  0  0  0  0  0  0
    0.8466    1.0555    0.8035 H   0  0  0  0  0  0  0  0  0  0  0  0
    5.3908    2.8243   -0.1742 H   0  0  0  0  0  0  0  0  0  0  0  0
    3.1923    5.2938   -1.6911 H   0  0  0  0  0  0  0  0  0  0  0  0
    4.7946    4.9242   -2.3399 H   0  0  0  0  0  0  0  0  0  0  0  0
    4.2697    7.3525   -2.4779 H   0  0  0  0  0  0  0  0  0  0  0  0
    5.7156    7.0252   -1.5272 H   0  0  0  0  0  0  0  0  0  0  0  0
    2.9325    7.7067   -0.4698 H   0  0  0  0  0  0  0  0  0  0  0  0
    4.3886    8.6903   -0.3425 H   0  0  0  0  0  0  0  0  0  0  0  0
    3.8394    7.4400    1.7817 H   0  0  0  0  0  0  0  0  0  0  0  0
    5.4453    7.0831    1.1506 H   0  0  0  0  0  0  0  0  0  0  0  0
    4.3645    5.0093    1.8436 H   0  0  0  0  0  0  0  0  0  0  0  0
    2.9321    5.3602    0.8688 H   0  0  0  0  0  0  0  0  0  0  0  0
    8.8924   -2.2993    1.1056 H   0  0  0  0  0  0  0  0  0  0  0  0
    6.3703   -4.8725   -1.2244 H   0  0  0  0  0  0  0  0  0  0  0  0
    4.7850   -3.0492   -1.5457 H   0  0  0  0  0  0  0  0  0  0  0  0
    4.2035   -3.0735    1.4112 H   0  0  0  0  0  0  0  0  0  0  0  0
    3.6847   -5.3891    1.0551 H   0  0  0  0  0  0  0  0  0  0  0  0
    0.3334   -4.3073   -1.4248 H   0  0  0  0  0  0  0  0  0  0  0  0
    1.0749   -1.9708   -1.3874 H   0  0  0  0  0  0  0  0  0  0  0  0
    2.0630   -6.7129    1.6700 H   0  0  0  0  0  0  0  0  0  0  0  0
    2.9700   -7.5760    0.3968 H   0  0  0  0  0  0  0  0  0  0  0  0
    0.5531   -7.9000    2.9176 H   0  0  0  0  0  0  0  0  0  0  0  0
   -0.9620   -9.8234    3.1961 H   0  0  0  0  0  0  0  0  0  0  0  0
   -1.3446  -11.3952    1.3113 H   0  0  0  0  0  0  0  0  0  0  0  0
   -0.2029  -11.0360   -0.8569 H   0  0  0  0  0  0  0  0  0  0  0  0
    1.3128   -9.1015   -1.1624 H   0  0  0  0  0  0  0  0  0  0  0  0
  1  2  1  0  0  0  0
  1 38  1  0  0  0  0
  1 39  1  0  0  0  0
  1 40  1  0  0  0  0
  2 23  1  0  0  0  0
  2  3  2  0  0  0  0
  3  4  1  0  0  0  0
  3 13  1  0  0  0  0
  4  5  2  0  0  0  0
  4  6  1  0  0  0  0
  6  7  1  0  0  0  0
  6 41  1  0  0  0  0
  7 12  1  0  0  0  0
  7  8  1  0  0  0  0
  8  9  1  0  0  0  0
  8 42  1  0  0  0  0
  8 43  1  0  0  0  0
  9 10  1  0  0  0  0
  9 44  1  0  0  0  0
  9 45  1  0  0  0  0
 10 11  1  0  0  0  0
 10 46  1  0  0  0  0
 10 47  1  0  0  0  0
 11 12  1  0  0  0  0
 11 48  1  0  0  0  0
 11 49  1  0  0  0  0
 12 50  1  0  0  0  0
 12 51  1  0  0  0  0
 13 14  2  0  0  0  0
 14 15  1  0  0  0  0
 14 23  1  0  0  0  0
 15 20  2  0  0  0  0
 15 16  1  0  0  0  0
 16 17  2  0  0  0  0
 16 22  1  0  0  0  0
 17 18  1  0  0  0  0
 17 52  1  0  0  0  0
 18 19  2  0  0  0  0
 18 21  1  0  0  0  0
 19 20  1  0  0  0  0
 19 53  1  0  0  0  0
 20 54  1  0  0  0  0
 23 24  1  0  0  0  0
 24 29  2  0  0  0  0
 24 25  1  0  0  0  0
 25 26  2  0  0  0  0
 25 55  1  0  0  0  0
 26 27  1  0  0  0  0
 26 56  1  0  0  0  0
 27 28  2  0  0  0  0
 27 30  1  0  0  0  0
 28 29  1  0  0  0  0
 28 57  1  0  0  0  0
 29 58  1  0  0  0  0
 30 31  1  0  0  0  0
 31 32  1  0  0  0  0
 31 59  1  0  0  0  0
 31 60  1  0  0  0  0
 32 37  2  0  0  0  0
 32 33  1  0  0  0  0
 33 34  2  0  0  0  0
 33 61  1  0  0  0  0
 34 35  1  0  0  0  0
 34 62  1  0  0  0  0
 35 36  2  0  0  0  0
 35 63  1  0  0  0  0
 36 37  1  0  0  0  0
 36 64  1  0  0  0  0
 37 65  1  0  0  0  0
M  END
$$$$
CHEMBL4086535
 OpenBabel12022417383D

 64 67  0  0  0  0  0  0  0  0999 V2000
    1.0841    0.3807   -0.0067 C   0  0  0  0  0  0  0  0  0  0  0  0
    2.5653    0.2231   -0.1263 C   0  0  0  0  0  0  0  0  0  0  0  0
    3.5245    1.2228   -0.1946 C   0  0  0  0  0  0  0  0  0  0  0  0
    3.3121    2.6840   -0.2276 C   0  0  0  0  0  0  0  0  0  0  0  0
    2.1966    3.1959   -0.2657 O   0  0  0  0  0  0  0  0  0  0  0  0
    4.5069    3.4045   -0.1935 N   0  0  0  0  0  0  0  0  0  0  0  0
    4.6376    4.8272   -0.1951 N   0  0  0  0  0  0  0  0  0  0  0  0
    4.2516    5.4431   -1.4704 C   0  0  0  0  0  0  0  0  0  0  0  0
    4.6067    6.9350   -1.4865 C   0  0  0  0  0  0  0  0  0  0  0  0
    3.9906    7.6792   -0.3049 C   0  0  0  0  0  0  0  0  0  0  0  0
    4.3377    6.9680    1.0032 C   0  0  0  0  0  0  0  0  0  0  0  0
    3.9920    5.4785    0.9471 C   0  0  0  0  0  0  0  0  0  0  0  0
    4.7909    0.6555   -0.2144 N   0  0  0  0  0  0  0  0  0  0  0  0
    4.6357   -0.6614   -0.1486 C   0  0  0  0  0  0  0  0  0  0  0  0
    5.7763   -1.6270   -0.2022 C   0  0  0  0  0  0  0  0  0  0  0  0
    6.9809   -1.4314    0.5049 C   0  0  0  0  0  0  0  0  0  0  0  0
    7.9512   -2.4468    0.5807 C   0  0  0  0  0  0  0  0  0  0  0  0
    7.7216   -3.6798   -0.0195 C   0  0  0  0  0  0  0  0  0  0  0  0
    6.5780   -3.8781   -0.7774 C   0  0  0  0  0  0  0  0  0  0  0  0
    5.6535   -2.8367   -0.9218 C   0  0  0  0  0  0  0  0  0  0  0  0
    8.8462   -4.9645    0.1818 Cl  0  0  0  0  0  0  0  0  0  0  0  0
    7.3431    0.0266    1.3655 Cl  0  0  0  0  0  0  0  0  0  0  0  0
    3.2593   -0.9832   -0.0700 N   0  0  0  0  0  0  0  0  0  0  0  0
    2.6987   -2.2993    0.0284 C   0  0  0  0  0  0  0  0  0  0  0  0
    3.3501   -3.2596    0.8104 C   0  0  0  0  0  0  0  0  0  0  0  0
    3.0230   -4.6090    0.6808 C   0  0  0  0  0  0  0  0  0  0  0  0
    1.9685   -5.0122   -0.1308 C   0  0  0  0  0  0  0  0  0  0  0  0
    1.2190   -4.0424   -0.8013 C   0  0  0  0  0  0  0  0  0  0  0  0
    1.6050   -2.6926   -0.7526 C   0  0  0  0  0  0  0  0  0  0  0  0
    1.5899   -6.3230   -0.3135 O   0  0  0  0  0  0  0  0  0  0  0  0
    2.4691   -7.2887    0.2739 C   0  0  0  0  0  0  0  0  0  0  0  0
    1.9522   -8.7034    0.0649 C   0  0  0  0  0  0  0  0  0  0  0  0
    1.8634   -9.0741   -1.4116 C   0  0  0  0  0  0  0  0  0  0  0  0
    1.3862  -10.5005   -1.6133 C   0  0  0  0  0  0  0  0  0  0  0  0
    1.1611  -11.1439   -0.4484 F   0  0  0  0  0  0  0  0  0  0  0  0
    0.2383  -10.5253   -2.3247 F   0  0  0  0  0  0  0  0  0  0  0  0
    2.3065  -11.2144   -2.3003 F   0  0  0  0  0  0  0  0  0  0  0  0
    0.5520   -0.5442    0.2231 H   0  0  0  0  0  0  0  0  0  0  0  0
    0.6713    0.7867   -0.9382 H   0  0  0  0  0  0  0  0  0  0  0  0
    0.8392    1.0724    0.8084 H   0  0  0  0  0  0  0  0  0  0  0  0
    5.3596    2.8362   -0.1496 H   0  0  0  0  0  0  0  0  0  0  0  0
    3.1789    5.3232   -1.6553 H   0  0  0  0  0  0  0  0  0  0  0  0
    4.7833    4.9608   -2.2967 H   0  0  0  0  0  0  0  0  0  0  0  0
    4.2578    7.3934   -2.4256 H   0  0  0  0  0  0  0  0  0  0  0  0
    5.6969    7.0596   -1.4640 H   0  0  0  0  0  0  0  0  0  0  0  0
    2.9045    7.7214   -0.4221 H   0  0  0  0  0  0  0  0  0  0  0  0
    4.3523    8.7119   -0.2789 H   0  0  0  0  0  0  0  0  0  0  0  0
    3.7994    7.4489    1.8296 H   0  0  0  0  0  0  0  0  0  0  0  0
    5.4091    7.0939    1.2083 H   0  0  0  0  0  0  0  0  0  0  0  0
    4.3302    5.0094    1.8830 H   0  0  0  0  0  0  0  0  0  0  0  0
    2.9015    5.3663    0.9048 H   0  0  0  0  0  0  0  0  0  0  0  0
    8.8720   -2.2837    1.1355 H   0  0  0  0  0  0  0  0  0  0  0  0
    6.3783   -4.8433   -1.2385 H   0  0  0  0  0  0  0  0  0  0  0  0
    4.7793   -3.0269   -1.5425 H   0  0  0  0  0  0  0  0  0  0  0  0
    4.1704   -3.0012    1.4711 H   0  0  0  0  0  0  0  0  0  0  0  0
    3.6578   -5.3181    1.2100 H   0  0  0  0  0  0  0  0  0  0  0  0
    0.3732   -4.3418   -1.4107 H   0  0  0  0  0  0  0  0  0  0  0  0
    1.0678   -1.9885   -1.3848 H   0  0  0  0  0  0  0  0  0  0  0  0
    2.5276   -7.1273    1.3572 H   0  0  0  0  0  0  0  0  0  0  0  0
    3.4674   -7.2023   -0.1732 H   0  0  0  0  0  0  0  0  0  0  0  0
    0.9603   -8.7987    0.5229 H   0  0  0  0  0  0  0  0  0  0  0  0
    2.6281   -9.3972    0.5782 H   0  0  0  0  0  0  0  0  0  0  0  0
    2.8476   -8.9517   -1.8792 H   0  0  0  0  0  0  0  0  0  0  0  0
    1.1856   -8.3895   -1.9294 H   0  0  0  0  0  0  0  0  0  0  0  0
  1  2  1  0  0  0  0
  1 38  1  0  0  0  0
  1 39  1  0  0  0  0
  1 40  1  0  0  0  0
  2 23  1  0  0  0  0
  2  3  2  0  0  0  0
  3  4  1  0  0  0  0
  3 13  1  0  0  0  0
  4  5  2  0  0  0  0
  4  6  1  0  0  0  0
  6  7  1  0  0  0  0
  6 41  1  0  0  0  0
  7 12  1  0  0  0  0
  7  8  1  0  0  0  0
  8  9  1  0  0  0  0
  8 42  1  0  0  0  0
  8 43  1  0  0  0  0
  9 10  1  0  0  0  0
  9 44  1  0  0  0  0
  9 45  1  0  0  0  0
 10 11  1  0  0  0  0
 10 46  1  0  0  0  0
 10 47  1  0  0  0  0
 11 12  1  0  0  0  0
 11 48  1  0  0  0  0
 11 49  1  0  0  0  0
 12 50  1  0  0  0  0
 12 51  1  0  0  0  0
 13 14  2  0  0  0  0
 14 15  1  0  0  0  0
 14 23  1  0  0  0  0
 15 20  2  0  0  0  0
 15 16  1  0  0  0  0
 16 17  2  0  0  0  0
 16 22  1  0  0  0  0
 17 18  1  0  0  0  0
 17 52  1  0  0  0  0
 18 19  2  0  0  0  0
 18 21  1  0  0  0  0
 19 20  1  0  0  0  0
 19 53  1  0  0  0  0
 20 54  1  0  0  0  0
 23 24  1  0  0  0  0
 24 29  2  0  0  0  0
 24 25  1  0  0  0  0
 25 26  2  0  0  0  0
 25 55  1  0  0  0  0
 26 27  1  0  0  0  0
 26 56  1  0  0  0  0
 27 28  2  0  0  0  0
 27 30  1  0  0  0  0
 28 29  1  0  0  0  0
 28 57  1  0  0  0  0
 29 58  1  0  0  0  0
 30 31  1  0  0  0  0
 31 32  1  0  0  0  0
 31 59  1  0  0  0  0
 31 60  1  0  0  0  0
 32 33  1  0  0  0  0
 32 61  1  0  0  0  0
 32 62  1  0  0  0  0
 33 34  1  0  0  0  0
 33 63  1  0  0  0  0
 33 64  1  0  0  0  0
 34 35  1  0  0  0  0
 34 36  1  0  0  0  0
 34 37  1  0  0  0  0
M  END
$$$$
CHEMBL494300
 OpenBabel12022417383D

 63 66  0  0  0  0  0  0  0  0999 V2000
    9.3193   -0.9405    9.1538 C   0  0  0  0  0  0  0  0  0  0  0  0
    8.0429   -0.7096    8.3574 C   0  0  0  0  0  0  0  0  0  0  0  0
    7.7988   -1.8433    7.3620 C   0  0  0  0  0  0  0  0  0  0  0  0
    6.5290   -1.6307    6.5341 C   0  0  0  0  0  0  0  0  0  0  0  0
    6.3595   -2.7269    5.5655 C   0  0  0  0  0  0  0  0  0  0  0  0
    6.2452   -3.6640    4.8189 C   0  0  0  0  0  0  0  0  0  0  0  0
    6.1087   -4.8360    4.0104 C   0  0  0  0  0  0  0  0  0  0  0  0
    5.8505   -4.8773    2.6551 C   0  0  0  0  0  0  0  0  0  0  0  0
    5.6769   -6.2200    2.1771 C   0  0  0  0  0  0  0  0  0  0  0  0
    5.8555   -7.1838    3.1601 C   0  0  0  0  0  0  0  0  0  0  0  0
    5.7526   -8.6398    3.0416 C   0  0  0  0  0  0  0  0  0  0  0  0
    5.1836   -9.5555    3.9315 C   0  0  0  0  0  0  0  0  0  0  0  0
    4.5826   -9.3276    5.2764 C   0  0  0  0  0  0  0  0  0  0  0  0
    5.2231  -10.8256    3.2675 C   0  0  0  0  0  0  0  0  0  0  0  0
    4.7070  -12.1342    3.7805 C   0  0  0  0  0  0  0  0  0  0  0  0
    4.2050  -12.2480    4.8934 O   0  0  0  0  0  0  0  0  0  0  0  0
    4.8410  -13.2095    2.9129 N   0  0  0  0  0  0  0  0  0  0  0  0
    4.3849  -14.5631    3.2417 C   0  0  0  0  0  0  0  0  0  0  0  0
    2.9054  -14.7818    2.8766 C   0  0  0  0  0  0  0  0  0  0  0  0
    2.4372  -16.2112    3.1760 C   0  0  0  0  0  0  0  0  0  0  0  0
    3.3303  -17.2600    2.5219 C   0  0  0  0  0  0  0  0  0  0  0  0
    4.7938  -17.0490    2.8935 C   0  0  0  0  0  0  0  0  0  0  0  0
    5.2604  -15.6285    2.5636 C   0  0  0  0  0  0  0  0  0  0  0  0
    5.7888  -10.7162    2.0626 N   0  0  0  0  0  0  0  0  0  0  0  0
    6.1397   -9.4023    1.9272 N   0  0  0  0  0  0  0  0  0  0  0  0
    6.8817   -9.0008    0.7705 C   0  0  0  0  0  0  0  0  0  0  0  0
    7.8568   -7.9918    0.8911 C   0  0  0  0  0  0  0  0  0  0  0  0
    8.5528   -7.5248   -0.2271 C   0  0  0  0  0  0  0  0  0  0  0  0
    8.3269   -8.1034   -1.4690 C   0  0  0  0  0  0  0  0  0  0  0  0
    7.4045   -9.1358   -1.6047 C   0  0  0  0  0  0  0  0  0  0  0  0
    6.6724   -9.5858   -0.4948 C   0  0  0  0  0  0  0  0  0  0  0  0
    5.4529  -10.7642   -0.8527 Cl  0  0  0  0  0  0  0  0  0  0  0  0
    9.1865   -7.5351   -2.8454 Cl  0  0  0  0  0  0  0  0  0  0  0  0
    6.2788   -6.4154    4.6432 S   0  0  0  0  0  0  0  0  0  0  0  0
    9.4844   -0.1187    9.8577 H   0  0  0  0  0  0  0  0  0  0  0  0
   10.1898   -0.9994    8.4922 H   0  0  0  0  0  0  0  0  0  0  0  0
    9.2619   -1.8716    9.7273 H   0  0  0  0  0  0  0  0  0  0  0  0
    8.1209    0.2456    7.8247 H   0  0  0  0  0  0  0  0  0  0  0  0
    7.1966   -0.6282    9.0499 H   0  0  0  0  0  0  0  0  0  0  0  0
    7.7261   -2.7953    7.9041 H   0  0  0  0  0  0  0  0  0  0  0  0
    8.6617   -1.9299    6.6900 H   0  0  0  0  0  0  0  0  0  0  0  0
    6.5818   -0.6731    6.0028 H   0  0  0  0  0  0  0  0  0  0  0  0
    5.6562   -1.5832    7.1965 H   0  0  0  0  0  0  0  0  0  0  0  0
    5.7598   -3.9941    2.0314 H   0  0  0  0  0  0  0  0  0  0  0  0
    5.4454   -6.4475    1.1436 H   0  0  0  0  0  0  0  0  0  0  0  0
    4.5835   -8.2836    5.5860 H   0  0  0  0  0  0  0  0  0  0  0  0
    5.1323   -9.8942    6.0359 H   0  0  0  0  0  0  0  0  0  0  0  0
    3.5367   -9.6490    5.2853 H   0  0  0  0  0  0  0  0  0  0  0  0
    5.1851  -12.9836    1.9825 H   0  0  0  0  0  0  0  0  0  0  0  0
    4.4834  -14.6845    4.3289 H   0  0  0  0  0  0  0  0  0  0  0  0
    2.7527  -14.5731    1.8100 H   0  0  0  0  0  0  0  0  0  0  0  0
    2.2721  -14.0765    3.4270 H   0  0  0  0  0  0  0  0  0  0  0  0
    1.4058  -16.3449    2.8289 H   0  0  0  0  0  0  0  0  0  0  0  0
    2.4283  -16.3743    4.2611 H   0  0  0  0  0  0  0  0  0  0  0  0
    3.2172  -17.2137    1.4311 H   0  0  0  0  0  0  0  0  0  0  0  0
    3.0111  -18.2643    2.8280 H   0  0  0  0  0  0  0  0  0  0  0  0
    5.4157  -17.7788    2.3622 H   0  0  0  0  0  0  0  0  0  0  0  0
    4.9262  -17.2410    3.9657 H   0  0  0  0  0  0  0  0  0  0  0  0
    6.3040  -15.5105    2.8777 H   0  0  0  0  0  0  0  0  0  0  0  0
    5.2426  -15.4888    1.4749 H   0  0  0  0  0  0  0  0  0  0  0  0
    8.1075   -7.5505    1.8540 H   0  0  0  0  0  0  0  0  0  0  0  0
    9.2682   -6.7127   -0.1170 H   0  0  0  0  0  0  0  0  0  0  0  0
    7.2327   -9.5769   -2.5841 H   0  0  0  0  0  0  0  0  0  0  0  0
  1  2  1  0  0  0  0
  1 35  1  0  0  0  0
  1 36  1  0  0  0  0
  1 37  1  0  0  0  0
  2  3  1  0  0  0  0
  2 38  1  0  0  0  0
  2 39  1  0  0  0  0
  3  4  1  0  0  0  0
  3 40  1  0  0  0  0
  3 41  1  0  0  0  0
  4  5  1  0  0  0  0
  4 42  1  0  0  0  0
  4 43  1  0  0  0  0
  5  6  3  0  0  0  0
  6  7  1  0  0  0  0
  7 34  1  0  0  0  0
  7  8  2  0  0  0  0
  8  9  1  0  0  0  0
  8 44  1  0  0  0  0
  9 10  2  0  0  0  0
  9 45  1  0  0  0  0
 10 11  1  0  0  0  0
 10 34  1  0  0  0  0
 11 25  1  0  0  0  0
 11 12  2  0  0  0  0
 12 13  1  0  0  0  0
 12 14  1  0  0  0  0
 13 46  1  0  0  0  0
 13 47  1  0  0  0  0
 13 48  1  0  0  0  0
 14 15  1  0  0  0  0
 14 24  2  0  0  0  0
 15 16  2  0  0  0  0
 15 17  1  0  0  0  0
 17 18  1  0  0  0  0
 17 49  1  0  0  0  0
 18 23  1  0  0  0  0
 18 19  1  0  0  0  0
 18 50  1  0  0  0  0
 19 20  1  0  0  0  0
 19 51  1  0  0  0  0
 19 52  1  0  0  0  0
 20 21  1  0  0  0  0
 20 53  1  0  0  0  0
 20 54  1  0  0  0  0
 21 22  1  0  0  0  0
 21 55  1  0  0  0  0
 21 56  1  0  0  0  0
 22 23  1  0  0  0  0
 22 57  1  0  0  0  0
 22 58  1  0  0  0  0
 23 59  1  0  0  0  0
 23 60  1  0  0  0  0
 24 25  1  0  0  0  0
 25 26  1  0  0  0  0
 26 31  2  0  0  0  0
 26 27  1  0  0  0  0
 27 28  2  0  0  0  0
 27 61  1  0  0  0  0
 28 29  1  0  0  0  0
 28 62  1  0  0  0  0
 29 30  2  0  0  0  0
 29 33  1  0  0  0  0
 30 31  1  0  0  0  0
 30 63  1  0  0  0  0
 31 32  1  0  0  0  0
M  END
$$$$
CHEMBL2296780
 OpenBabel12022417383D

 57 61  0  0  0  0  0  0  0  0999 V2000
    1.7627   -0.8975    0.4203 O   0  0  0  0  0  0  0  0  0  0  0  0
    2.3667   -0.0010   -0.1658 C   0  0  0  0  0  0  0  0  0  0  0  0
    3.0056    1.1044    0.5784 C   0  0  0  0  0  0  0  0  0  0  0  0
    2.6760    1.5321    1.8895 C   0  0  0  0  0  0  0  0  0  0  0  0
    3.5952    2.5115    2.2184 C   0  0  0  0  0  0  0  0  0  0  0  0
    3.5929    3.3062    3.4578 C   0  0  0  0  0  0  0  0  0  0  0  0
    3.2830    2.7139    4.7075 C   0  0  0  0  0  0  0  0  0  0  0  0
    3.0880    1.2188    4.9157 C   0  0  0  0  0  0  0  0  0  0  0  0
    2.1471    0.3898    4.0214 C   0  0  0  0  0  0  0  0  0  0  0  0
    1.5834    1.0713    2.7850 C   0  0  0  0  0  0  0  0  0  0  0  0
    3.2775    3.5265    5.8630 C   0  0  0  0  0  0  0  0  0  0  0  0
    3.5744    4.8934    5.7808 C   0  0  0  0  0  0  0  0  0  0  0  0
    3.8660    5.4791    4.5492 C   0  0  0  0  0  0  0  0  0  0  0  0
    3.8487    4.6906    3.3966 C   0  0  0  0  0  0  0  0  0  0  0  0
    3.5940    5.7109    7.0004 N   0  3  0  0  0  0  0  0  0  0  0  0
    3.2966    5.1590    8.0696 O   0  0  0  0  0  0  0  0  0  0  0  0
    3.9139    6.9031    6.8902 O   0  5  0  0  0  0  0  0  0  0  0  0
    4.4582    2.6019    1.1242 N   0  0  0  0  0  0  0  0  0  0  0  0
    5.7273    3.2582    1.0553 C   0  0  0  0  0  0  0  0  0  0  0  0
    6.5146    3.3311    2.2232 C   0  0  0  0  0  0  0  0  0  0  0  0
    7.7556    3.9732    2.2160 C   0  0  0  0  0  0  0  0  0  0  0  0
    8.2355    4.5267    1.0350 C   0  0  0  0  0  0  0  0  0  0  0  0
    7.4843    4.4471   -0.1332 C   0  0  0  0  0  0  0  0  0  0  0  0
    6.2284    3.8156   -0.1338 C   0  0  0  0  0  0  0  0  0  0  0  0
    5.3430    3.9166   -1.6164 Cl  0  0  0  0  0  0  0  0  0  0  0  0
    9.7604    5.3214    1.0268 Cl  0  0  0  0  0  0  0  0  0  0  0  0
    4.0152    1.8404    0.0810 N   0  0  0  0  0  0  0  0  0  0  0  0
    2.5142    0.0705   -1.5484 N   0  0  0  0  0  0  0  0  0  0  0  0
    2.0480   -0.9363   -2.4449 N   0  0  0  0  0  0  0  0  0  0  0  0
    2.7987   -2.1926   -2.2877 C   0  0  0  0  0  0  0  0  0  0  0  0
    2.4125   -3.1910   -3.3785 C   0  0  0  0  0  0  0  0  0  0  0  0
    0.9171   -3.4797   -3.3507 C   0  0  0  0  0  0  0  0  0  0  0  0
    0.1172   -2.1797   -3.4022 C   0  0  0  0  0  0  0  0  0  0  0  0
    0.5929   -1.1712   -2.3535 C   0  0  0  0  0  0  0  0  0  0  0  0
    2.7422    1.0513    5.9452 H   0  0  0  0  0  0  0  0  0  0  0  0
    4.0887    0.7659    4.8847 H   0  0  0  0  0  0  0  0  0  0  0  0
    1.3050    0.0343    4.6291 H   0  0  0  0  0  0  0  0  0  0  0  0
    2.6861   -0.5189    3.7188 H   0  0  0  0  0  0  0  0  0  0  0  0
    0.9105    0.3799    2.2699 H   0  0  0  0  0  0  0  0  0  0  0  0
    0.9577    1.9235    3.0756 H   0  0  0  0  0  0  0  0  0  0  0  0
    3.0600    3.0774    6.8320 H   0  0  0  0  0  0  0  0  0  0  0  0
    4.1074    6.5371    4.4652 H   0  0  0  0  0  0  0  0  0  0  0  0
    4.0514    5.1768    2.4429 H   0  0  0  0  0  0  0  0  0  0  0  0
    6.1973    2.8673    3.1549 H   0  0  0  0  0  0  0  0  0  0  0  0
    8.3408    4.0291    3.1313 H   0  0  0  0  0  0  0  0  0  0  0  0
    7.8677    4.8969   -1.0467 H   0  0  0  0  0  0  0  0  0  0  0  0
    3.0930    0.8244   -1.9158 H   0  0  0  0  0  0  0  0  0  0  0  0
    2.6180   -2.6442   -1.3036 H   0  0  0  0  0  0  0  0  0  0  0  0
    3.8748   -1.9925   -2.3613 H   0  0  0  0  0  0  0  0  0  0  0  0
    2.9689   -4.1259   -3.2427 H   0  0  0  0  0  0  0  0  0  0  0  0
    2.6907   -2.7877   -4.3625 H   0  0  0  0  0  0  0  0  0  0  0  0
    0.6688   -4.0267   -2.4338 H   0  0  0  0  0  0  0  0  0  0  0  0
    0.6419   -4.1204   -4.1909 H   0  0  0  0  0  0  0  0  0  0  0  0
   -0.9464   -2.4056   -3.2405 H   0  0  0  0  0  0  0  0  0  0  0  0
    0.1992   -1.7420   -4.4031 H   0  0  0  0  0  0  0  0  0  0  0  0
    0.0558   -0.2283   -2.5106 H   0  0  0  0  0  0  0  0  0  0  0  0
    0.3040   -1.5459   -1.3651 H   0  0  0  0  0  0  0  0  0  0  0  0
  1  2  2  0  0  0  0
  2  3  1  0  0  0  0
  2 28  1  0  0  0  0
  3 27  2  0  0  0  0
  3  4  1  0  0  0  0
  4 10  1  0  0  0  0
  4  5  2  0  0  0  0
  5  6  1  0  0  0  0
  5 18  1  0  0  0  0
  6 14  2  0  0  0  0
  6  7  1  0  0  0  0
  7  8  1  0  0  0  0
  7 11  2  0  0  0  0
  8  9  1  0  0  0  0
  8 35  1  0  0  0  0
  8 36  1  0  0  0  0
  9 10  1  0  0  0  0
  9 37  1  0  0  0  0
  9 38  1  0  0  0  0
 10 39  1  0  0  0  0
 10 40  1  0  0  0  0
 11 12  1  0  0  0  0
 11 41  1  0  0  0  0
 12 13  2  0  0  0  0
 12 15  1  0  0  0  0
 13 14  1  0  0  0  0
 13 42  1  0  0  0  0
 14 43  1  0  0  0  0
 15 16  2  0  0  0  0
 15 17  1  0  0  0  0
 18 19  1  0  0  0  0
 18 27  1  0  0  0  0
 19 24  2  0  0  0  0
 19 20  1  0  0  0  0
 20 21  2  0  0  0  0
 20 44  1  0  0  0  0
 21 22  1  0  0  0  0
 21 45  1  0  0  0  0
 22 23  2  0  0  0  0
 22 26  1  0  0  0  0
 23 24  1  0  0  0  0
 23 46  1  0  0  0  0
 24 25  1  0  0  0  0
 28 29  1  0  0  0  0
 28 47  1  0  0  0  0
 29 34  1  0  0  0  0
 29 30  1  0  0  0  0
 30 31  1  0  0  0  0
 30 48  1  0  0  0  0
 30 49  1  0  0  0  0
 31 32  1  0  0  0  0
 31 50  1  0  0  0  0
 31 51  1  0  0  0  0
 32 33  1  0  0  0  0
 32 52  1  0  0  0  0
 32 53  1  0  0  0  0
 33 34  1  0  0  0  0
 33 54  1  0  0  0  0
 33 55  1  0  0  0  0
 34 56  1  0  0  0  0
 34 57  1  0  0  0  0
M  CHG  2  15   1  17  -1
M  END
$$$$
CHEMBL4065097
 OpenBabel12022417383D

 64 67  0  0  0  0  0  0  0  0999 V2000
    5.3865   -0.8299   -0.0706 O   0  0  0  0  0  0  0  0  0  0  0  0
    4.6557   -0.6066   -1.2995 S   0  0  0  0  0  0  0  0  0  0  0  0
    5.1821   -1.0244   -2.5839 O   0  0  0  0  0  0  0  0  0  0  0  0
    3.1345   -1.1869   -1.1251 O   0  0  0  0  0  0  0  0  0  0  0  0
    2.8554   -2.5297   -1.2305 C   0  0  0  0  0  0  0  0  0  0  0  0
    1.5107   -2.8720   -1.3933 C   0  0  0  0  0  0  0  0  0  0  0  0
    1.1185   -4.2156   -1.5413 C   0  0  0  0  0  0  0  0  0  0  0  0
    2.0762   -5.2394   -1.5682 C   0  0  0  0  0  0  0  0  0  0  0  0
    3.4205   -4.8869   -1.3851 C   0  0  0  0  0  0  0  0  0  0  0  0
    3.8035   -3.5492   -1.1878 C   0  0  0  0  0  0  0  0  0  0  0  0
    1.7096   -6.6107   -1.8145 N   0  0  0  0  0  0  0  0  0  0  0  0
    2.2802   -7.7427   -1.2176 C   0  0  0  0  0  0  0  0  0  0  0  0
    1.6218   -8.8437   -1.7489 C   0  0  0  0  0  0  0  0  0  0  0  0
    1.8352  -10.2611   -1.3920 C   0  0  0  0  0  0  0  0  0  0  0  0
    2.7154  -10.6082   -0.6105 O   0  0  0  0  0  0  0  0  0  0  0  0
    0.9431  -11.1346   -2.0151 N   0  0  0  0  0  0  0  0  0  0  0  0
    0.9174  -12.5533   -1.7995 N   0  0  0  0  0  0  0  0  0  0  0  0
    2.1604  -13.2082   -2.2411 C   0  0  0  0  0  0  0  0  0  0  0  0
    2.1077  -14.7289   -2.0696 C   0  0  0  0  0  0  0  0  0  0  0  0
    1.7452  -15.1217   -0.6445 C   0  0  0  0  0  0  0  0  0  0  0  0
    0.4682  -14.4150   -0.2084 C   0  0  0  0  0  0  0  0  0  0  0  0
    0.5730  -12.9001   -0.4099 C   0  0  0  0  0  0  0  0  0  0  0  0
    0.6872   -8.4270   -2.6624 N   0  0  0  0  0  0  0  0  0  0  0  0
    0.7169   -7.1018   -2.6954 C   0  0  0  0  0  0  0  0  0  0  0  0
   -0.1421   -6.3357   -3.6347 C   0  0  0  0  0  0  0  0  0  0  0  0
   -1.4773   -6.7158   -3.9049 C   0  0  0  0  0  0  0  0  0  0  0  0
   -2.2687   -5.9943   -4.8112 C   0  0  0  0  0  0  0  0  0  0  0  0
   -1.7533   -4.8682   -5.4398 C   0  0  0  0  0  0  0  0  0  0  0  0
   -0.4413   -4.4773   -5.2043 C   0  0  0  0  0  0  0  0  0  0  0  0
    0.3662   -5.2295   -4.3428 C   0  0  0  0  0  0  0  0  0  0  0  0
   -2.7384   -3.9586   -6.5159 Cl  0  0  0  0  0  0  0  0  0  0  0  0
   -2.2578   -8.0599   -3.1346 Cl  0  0  0  0  0  0  0  0  0  0  0  0
    3.3038   -7.7735   -0.1318 C   0  0  0  0  0  0  0  0  0  0  0  0
    4.2493    1.1347   -1.4084 C   0  0  0  0  0  0  0  0  0  0  0  0
    5.5070    1.9855   -1.5846 C   0  0  0  0  0  0  0  0  0  0  0  0
    5.1804    3.4633   -1.7291 C   0  0  0  0  0  0  0  0  0  0  0  0
    0.7529   -2.0911   -1.4160 H   0  0  0  0  0  0  0  0  0  0  0  0
    0.0557   -4.4276   -1.6320 H   0  0  0  0  0  0  0  0  0  0  0  0
    4.2167   -5.6270   -1.4376 H   0  0  0  0  0  0  0  0  0  0  0  0
    4.8585   -3.3431   -1.0244 H   0  0  0  0  0  0  0  0  0  0  0  0
    0.2428  -10.7229   -2.6309 H   0  0  0  0  0  0  0  0  0  0  0  0
    3.0288  -12.8281   -1.6915 H   0  0  0  0  0  0  0  0  0  0  0  0
    2.3272  -12.9908   -3.3027 H   0  0  0  0  0  0  0  0  0  0  0  0
    3.0801  -15.1635   -2.3310 H   0  0  0  0  0  0  0  0  0  0  0  0
    1.3709  -15.1582   -2.7599 H   0  0  0  0  0  0  0  0  0  0  0  0
    2.5675  -14.8472    0.0360 H   0  0  0  0  0  0  0  0  0  0  0  0
    1.6231  -16.2039   -0.5679 H   0  0  0  0  0  0  0  0  0  0  0  0
    0.2688  -14.6357    0.8466 H   0  0  0  0  0  0  0  0  0  0  0  0
   -0.3786  -14.8113   -0.7824 H   0  0  0  0  0  0  0  0  0  0  0  0
   -0.3938  -12.4535   -0.1502 H   0  0  0  0  0  0  0  0  0  0  0  0
    1.3134  -12.5052    0.2953 H   0  0  0  0  0  0  0  0  0  0  0  0
   -3.2884   -6.3109   -5.0181 H   0  0  0  0  0  0  0  0  0  0  0  0
   -0.0337   -3.5942   -5.6911 H   0  0  0  0  0  0  0  0  0  0  0  0
    1.4032   -4.9198   -4.2267 H   0  0  0  0  0  0  0  0  0  0  0  0
    3.5934   -6.7995    0.2582 H   0  0  0  0  0  0  0  0  0  0  0  0
    4.2065   -8.2844   -0.4865 H   0  0  0  0  0  0  0  0  0  0  0  0
    2.9145   -8.3305    0.7269 H   0  0  0  0  0  0  0  0  0  0  0  0
    3.7215    1.4091   -0.4890 H   0  0  0  0  0  0  0  0  0  0  0  0
    3.5791    1.2570   -2.2633 H   0  0  0  0  0  0  0  0  0  0  0  0
    6.0632    1.6561   -2.4706 H   0  0  0  0  0  0  0  0  0  0  0  0
    6.1760    1.8482   -0.7267 H   0  0  0  0  0  0  0  0  0  0  0  0
    4.5408    3.6420   -2.6003 H   0  0  0  0  0  0  0  0  0  0  0  0
    6.0987    4.0447   -1.8614 H   0  0  0  0  0  0  0  0  0  0  0  0
    4.6655    3.8423   -0.8405 H   0  0  0  0  0  0  0  0  0  0  0  0
  1  2  2  0  0  0  0
  2  3  2  0  0  0  0
  2  4  1  0  0  0  0
  2 34  1  0  0  0  0
  4  5  1  0  0  0  0
  5 10  2  0  0  0  0
  5  6  1  0  0  0  0
  6  7  2  0  0  0  0
  6 37  1  0  0  0  0
  7  8  1  0  0  0  0
  7 38  1  0  0  0  0
  8  9  2  0  0  0  0
  8 11  1  0  0  0  0
  9 10  1  0  0  0  0
  9 39  1  0  0  0  0
 10 40  1  0  0  0  0
 11 24  1  0  0  0  0
 11 12  1  0  0  0  0
 12 13  2  0  0  0  0
 12 33  1  0  0  0  0
 13 14  1  0  0  0  0
 13 23  1  0  0  0  0
 14 15  2  0  0  0  0
 14 16  1  0  0  0  0
 16 17  1  0  0  0  0
 16 41  1  0  0  0  0
 17 22  1  0  0  0  0
 17 18  1  0  0  0  0
 18 19  1  0  0  0  0
 18 42  1  0  0  0  0
 18 43  1  0  0  0  0
 19 20  1  0  0  0  0
 19 44  1  0  0  0  0
 19 45  1  0  0  0  0
 20 21  1  0  0  0  0
 20 46  1  0  0  0  0
 20 47  1  0  0  0  0
 21 22  1  0  0  0  0
 21 48  1  0  0  0  0
 21 49  1  0  0  0  0
 22 50  1  0  0  0  0
 22 51  1  0  0  0  0
 23 24  2  0  0  0  0
 24 25  1  0  0  0  0
 25 30  2  0  0  0  0
 25 26  1  0  0  0  0
 26 27  2  0  0  0  0
 26 32  1  0  0  0  0
 27 28  1  0  0  0  0
 27 52  1  0  0  0  0
 28 29  2  0  0  0  0
 28 31  1  0  0  0  0
 29 30  1  0  0  0  0
 29 53  1  0  0  0  0
 30 54  1  0  0  0  0
 33 55  1  0  0  0  0
 33 56  1  0  0  0  0
 33 57  1  0  0  0  0
 34 35  1  0  0  0  0
 34 58  1  0  0  0  0
 34 59  1  0  0  0  0
 35 36  1  0  0  0  0
 35 60  1  0  0  0  0
 35 61  1  0  0  0  0
 36 62  1  0  0  0  0
 36 63  1  0  0  0  0
 36 64  1  0  0  0  0
M  END
$$$$
CHEMBL4062749
 OpenBabel12022417383D

 66 69  0  0  1  0  0  0  0  0999 V2000
    1.1081    0.1847    0.1955 C   0  0  0  0  0  0  0  0  0  0  0  0
    2.5897    0.0281    0.1179 C   0  0  0  0  0  0  0  0  0  0  0  0
    3.5491    1.0366    0.1288 C   0  0  0  0  0  0  0  0  0  0  0  0
    3.2628    2.4839    0.1620 C   0  0  0  0  0  0  0  0  0  0  0  0
    2.1090    2.9151    0.1334 O   0  0  0  0  0  0  0  0  0  0  0  0
    4.3453    3.3452    0.2776 N   0  0  0  0  0  0  0  0  0  0  0  0
    4.0680    4.7777    0.4182 C   0  0  2  0  0  0  0  0  0  0  0  0
    5.1457    5.7256   -0.1135 C   0  0  0  0  0  0  0  0  0  0  0  0
    4.5755    7.1529   -0.1817 C   0  0  0  0  0  0  0  0  0  0  0  0
    3.9712    7.6361    1.1429 C   0  0  0  0  0  0  0  0  0  0  0  0
    3.0692    6.6032    1.8151 C   0  0  0  0  0  0  0  0  0  0  0  0
    3.7133    5.2149    1.8648 C   0  0  1  0  0  0  0  0  0  0  0  0
    2.8044    4.3265    2.5104 O   0  0  0  0  0  0  0  0  0  0  0  0
    4.8092    0.4902    0.0948 N   0  0  0  0  0  0  0  0  0  0  0  0
    4.6642   -0.8306    0.0802 C   0  0  0  0  0  0  0  0  0  0  0  0
    5.8060   -1.7756   -0.0225 C   0  0  0  0  0  0  0  0  0  0  0  0
    6.9957   -1.6034    0.7129 C   0  0  0  0  0  0  0  0  0  0  0  0
    7.9770   -2.6062    0.7349 C   0  0  0  0  0  0  0  0  0  0  0  0
    7.7772   -3.7933    0.0396 C   0  0  0  0  0  0  0  0  0  0  0  0
    6.6530   -3.9546   -0.7576 C   0  0  0  0  0  0  0  0  0  0  0  0
    5.7078   -2.9272   -0.8332 C   0  0  0  0  0  0  0  0  0  0  0  0
    8.9168   -5.0729    0.1786 Cl  0  0  0  0  0  0  0  0  0  0  0  0
    7.3236   -0.1963    1.6660 Cl  0  0  0  0  0  0  0  0  0  0  0  0
    3.2951   -1.1784    0.1203 N   0  0  0  0  0  0  0  0  0  0  0  0
    2.7285   -2.5006    0.1123 C   0  0  0  0  0  0  0  0  0  0  0  0
    3.3225   -3.5573    0.8219 C   0  0  0  0  0  0  0  0  0  0  0  0
    2.8683   -4.8761    0.6575 C   0  0  0  0  0  0  0  0  0  0  0  0
    1.7587   -5.1433   -0.1439 C   0  0  0  0  0  0  0  0  0  0  0  0
    1.1393   -4.0901   -0.8173 C   0  0  0  0  0  0  0  0  0  0  0  0
    1.6246   -2.7819   -0.6996 C   0  0  0  0  0  0  0  0  0  0  0  0
    1.3568   -6.4559   -0.2488 O   0  0  0  0  0  0  0  0  0  0  0  0
   -0.2346   -6.7986   -0.4165 S   0  0  0  0  0  0  0  0  0  0  0  0
   -0.9526   -6.2789    0.7301 O   0  0  0  0  0  0  0  0  0  0  0  0
   -0.6531   -6.5137   -1.7733 O   0  0  0  0  0  0  0  0  0  0  0  0
   -0.1576   -8.5760   -0.2422 C   0  0  0  0  0  0  0  0  0  0  0  0
   -1.5795   -9.1262   -0.2915 C   0  0  0  0  0  0  0  0  0  0  0  0
   -1.6443  -10.6283   -0.2074 C   0  0  0  0  0  0  0  0  0  0  0  0
   -0.4179  -11.1811   -0.1072 F   0  0  0  0  0  0  0  0  0  0  0  0
   -2.3610  -11.0178    0.8673 F   0  0  0  0  0  0  0  0  0  0  0  0
   -2.2382  -11.1441   -1.3047 F   0  0  0  0  0  0  0  0  0  0  0  0
    0.5706   -0.7302    0.4469 H   0  0  0  0  0  0  0  0  0  0  0  0
    0.7268    0.5623   -0.7609 H   0  0  0  0  0  0  0  0  0  0  0  0
    0.8413    0.9048    0.9751 H   0  0  0  0  0  0  0  0  0  0  0  0
    5.2350    2.9373    0.5385 H   0  0  0  0  0  0  0  0  0  0  0  0
    3.1761    4.9503   -0.2013 H   0  0  0  0  0  0  0  0  0  0  0  0
    5.4749    5.4208   -1.1123 H   0  0  0  0  0  0  0  0  0  0  0  0
    6.0311    5.7120    0.5337 H   0  0  0  0  0  0  0  0  0  0  0  0
    3.7951    7.1861   -0.9535 H   0  0  0  0  0  0  0  0  0  0  0  0
    5.3538    7.8573   -0.5007 H   0  0  0  0  0  0  0  0  0  0  0  0
    3.3966    8.5544    0.9683 H   0  0  0  0  0  0  0  0  0  0  0  0
    4.7818    7.9012    1.8317 H   0  0  0  0  0  0  0  0  0  0  0  0
    2.1166    6.5366    1.2706 H   0  0  0  0  0  0  0  0  0  0  0  0
    2.8013    6.9335    2.8256 H   0  0  0  0  0  0  0  0  0  0  0  0
    4.6199    5.2479    2.4814 H   0  0  0  0  0  0  0  0  0  0  0  0
    2.1720    4.0160    1.8321 H   0  0  0  0  0  0  0  0  0  0  0  0
    8.8822   -2.4665    1.3183 H   0  0  0  0  0  0  0  0  0  0  0  0
    6.4872   -4.8810   -1.3029 H   0  0  0  0  0  0  0  0  0  0  0  0
    4.8475   -3.0802   -1.4836 H   0  0  0  0  0  0  0  0  0  0  0  0
    4.1611   -3.3868    1.4940 H   0  0  0  0  0  0  0  0  0  0  0  0
    3.3875   -5.6876    1.1624 H   0  0  0  0  0  0  0  0  0  0  0  0
    0.2841   -4.2525   -1.4677 H   0  0  0  0  0  0  0  0  0  0  0  0
    1.1464   -2.0139   -1.3037 H   0  0  0  0  0  0  0  0  0  0  0  0
    0.3241   -8.8069    0.7134 H   0  0  0  0  0  0  0  0  0  0  0  0
    0.4507   -8.9658   -1.0642 H   0  0  0  0  0  0  0  0  0  0  0  0
   -2.0693   -8.7987   -1.2176 H   0  0  0  0  0  0  0  0  0  0  0  0
   -2.1689   -8.6948    0.5257 H   0  0  0  0  0  0  0  0  0  0  0  0
  1  2  1  0  0  0  0
  1 41  1  0  0  0  0
  1 42  1  0  0  0  0
  1 43  1  0  0  0  0
  2 24  1  0  0  0  0
  2  3  2  0  0  0  0
  3  4  1  0  0  0  0
  3 14  1  0  0  0  0
  4  5  2  0  0  0  0
  4  6  1  0  0  0  0
  6 44  1  0  0  0  0
  7  6  1  0  0  0  0
  7  8  1  0  0  0  0
  7 12  1  0  0  0  0
  7 45  1  6  0  0  0
  8  9  1  0  0  0  0
  8 46  1  0  0  0  0
  8 47  1  0  0  0  0
  9 10  1  0  0  0  0
  9 48  1  0  0  0  0
  9 49  1  0  0  0  0
 10 11  1  0  0  0  0
 10 50  1  0  0  0  0
 10 51  1  0  0  0  0
 11 12  1  0  0  0  0
 11 52  1  0  0  0  0
 11 53  1  0  0  0  0
 12 13  1  0  0  0  0
 12 54  1  1  0  0  0
 13 55  1  0  0  0  0
 14 15  2  0  0  0  0
 15 16  1  0  0  0  0
 15 24  1  0  0  0  0
 16 21  2  0  0  0  0
 16 17  1  0  0  0  0
 17 18  2  0  0  0  0
 17 23  1  0  0  0  0
 18 19  1  0  0  0  0
 18 56  1  0  0  0  0
 19 20  2  0  0  0  0
 19 22  1  0  0  0  0
 20 21  1  0  0  0  0
 20 57  1  0  0  0  0
 21 58  1  0  0  0  0
 24 25  1  0  0  0  0
 25 30  2  0  0  0  0
 25 26  1  0  0  0  0
 26 27  2  0  0  0  0
 26 59  1  0  0  0  0
 27 28  1  0  0  0  0
 27 60  1  0  0  0  0
 28 29  2  0  0  0  0
 28 31  1  0  0  0  0
 29 30  1  0  0  0  0
 29 61  1  0  0  0  0
 30 62  1  0  0  0  0
 31 32  1  0  0  0  0
 32 33  2  0  0  0  0
 32 34  2  0  0  0  0
 32 35  1  0  0  0  0
 35 36  1  0  0  0  0
 35 63  1  0  0  0  0
 35 64  1  0  0  0  0
 36 37  1  0  0  0  0
 36 65  1  0  0  0  0
 36 66  1  0  0  0  0
 37 38  1  0  0  0  0
 37 39  1  0  0  0  0
 37 40  1  0  0  0  0
M  END
$$$$
CHEMBL4093165
 OpenBabel12022417383D

 63 66  0  0  0  0  0  0  0  0999 V2000
    1.0535    0.1974    0.0305 C   0  0  0  0  0  0  0  0  0  0  0  0
    2.5343    0.0477    0.1253 C   0  0  0  0  0  0  0  0  0  0  0  0
    3.4911    1.0635    0.0844 C   0  0  0  0  0  0  0  0  0  0  0  0
    3.2467    2.5190   -0.0177 C   0  0  0  0  0  0  0  0  0  0  0  0
    2.1062    2.9668   -0.0399 O   0  0  0  0  0  0  0  0  0  0  0  0
    4.4127    3.2855   -0.1409 N   0  0  0  0  0  0  0  0  0  0  0  0
    4.4763    4.7123   -0.2413 C   0  0  0  0  0  0  0  0  0  0  0  0
    5.6625    5.3191   -0.6511 C   0  0  0  0  0  0  0  0  0  0  0  0
    5.7339    6.7177   -0.8337 C   0  0  0  0  0  0  0  0  0  0  0  0
    4.6115    7.5312   -0.5998 C   0  0  0  0  0  0  0  0  0  0  0  0
    3.4697    6.9361   -0.0955 C   0  0  0  0  0  0  0  0  0  0  0  0
    3.3966    5.5378    0.0578 C   0  0  0  0  0  0  0  0  0  0  0  0
    4.7916    8.8637   -0.8196 O   0  0  0  0  0  0  0  0  0  0  0  0
    3.6882    9.6626   -1.2294 C   0  0  0  0  0  0  0  0  0  0  0  0
    2.5298    8.9912   -1.3964 F   0  0  0  0  0  0  0  0  0  0  0  0
    3.4871   10.6415   -0.3187 F   0  0  0  0  0  0  0  0  0  0  0  0
    3.9937   10.2503   -2.4094 F   0  0  0  0  0  0  0  0  0  0  0  0
    4.7523    0.5215    0.1419 N   0  0  0  0  0  0  0  0  0  0  0  0
    4.6224   -0.7942    0.1515 C   0  0  0  0  0  0  0  0  0  0  0  0
    5.7983   -1.7099    0.1989 C   0  0  0  0  0  0  0  0  0  0  0  0
    6.9656   -1.4713   -0.5583 C   0  0  0  0  0  0  0  0  0  0  0  0
    7.9994   -2.4196   -0.6105 C   0  0  0  0  0  0  0  0  0  0  0  0
    7.8786   -3.6242    0.0720 C   0  0  0  0  0  0  0  0  0  0  0  0
    6.7593   -3.8712    0.8537 C   0  0  0  0  0  0  0  0  0  0  0  0
    5.7648   -2.8931    0.9677 C   0  0  0  0  0  0  0  0  0  0  0  0
    9.1232   -4.8048   -0.0363 Cl  0  0  0  0  0  0  0  0  0  0  0  0
    7.2103   -0.0380   -1.5019 Cl  0  0  0  0  0  0  0  0  0  0  0  0
    3.2486   -1.1554    0.1336 N   0  0  0  0  0  0  0  0  0  0  0  0
    2.7081   -2.4915    0.0995 C   0  0  0  0  0  0  0  0  0  0  0  0
    1.5549   -2.8623    0.8079 C   0  0  0  0  0  0  0  0  0  0  0  0
    1.1277   -4.2070    0.8332 C   0  0  0  0  0  0  0  0  0  0  0  0
    1.8833   -5.2002    0.2101 C   0  0  0  0  0  0  0  0  0  0  0  0
    3.0504   -4.8334   -0.4536 C   0  0  0  0  0  0  0  0  0  0  0  0
    3.4007   -3.4914   -0.5874 C   0  0  0  0  0  0  0  0  0  0  0  0
    1.4357   -6.5025    0.2687 O   0  0  0  0  0  0  0  0  0  0  0  0
    1.9032   -7.5513   -0.8960 S   0  0  0  0  0  0  0  0  0  0  0  0
    1.4565   -7.0672   -2.1902 O   0  0  0  0  0  0  0  0  0  0  0  0
    3.2785   -7.9438   -0.6698 O   0  0  0  0  0  0  0  0  0  0  0  0
    0.8894   -8.9510   -0.4730 C   0  0  0  0  0  0  0  0  0  0  0  0
    1.1715  -10.0623   -1.4801 C   0  0  0  0  0  0  0  0  0  0  0  0
    0.3795  -11.3162   -1.2226 C   0  0  0  0  0  0  0  0  0  0  0  0
   -0.4303  -11.1959   -0.1526 F   0  0  0  0  0  0  0  0  0  0  0  0
   -0.3885  -11.6204   -2.2904 F   0  0  0  0  0  0  0  0  0  0  0  0
    1.2043  -12.3619   -1.0013 F   0  0  0  0  0  0  0  0  0  0  0  0
    0.5083   -0.7380   -0.0829 H   0  0  0  0  0  0  0  0  0  0  0  0
    0.7835    0.7957   -0.8458 H   0  0  0  0  0  0  0  0  0  0  0  0
    0.6721    0.7026    0.9241 H   0  0  0  0  0  0  0  0  0  0  0  0
    5.2682    2.7533   -0.2477 H   0  0  0  0  0  0  0  0  0  0  0  0
    6.5489    4.7275   -0.8712 H   0  0  0  0  0  0  0  0  0  0  0  0
    6.6577    7.1655   -1.1758 H   0  0  0  0  0  0  0  0  0  0  0  0
    2.5992    7.5153    0.1982 H   0  0  0  0  0  0  0  0  0  0  0  0
    2.4613    5.1390    0.4430 H   0  0  0  0  0  0  0  0  0  0  0  0
    8.8896   -2.2231   -1.2032 H   0  0  0  0  0  0  0  0  0  0  0  0
    6.6395   -4.8254    1.3629 H   0  0  0  0  0  0  0  0  0  0  0  0
    4.9137   -3.1179    1.6090 H   0  0  0  0  0  0  0  0  0  0  0  0
    0.9821   -2.1461    1.3914 H   0  0  0  0  0  0  0  0  0  0  0  0
    0.2107   -4.4678    1.3573 H   0  0  0  0  0  0  0  0  0  0  0  0
    3.7278   -5.5641   -0.8869 H   0  0  0  0  0  0  0  0  0  0  0  0
    4.2644   -3.2717   -1.2095 H   0  0  0  0  0  0  0  0  0  0  0  0
   -0.1590   -8.6338   -0.5056 H   0  0  0  0  0  0  0  0  0  0  0  0
    1.1524   -9.2576    0.5449 H   0  0  0  0  0  0  0  0  0  0  0  0
    2.2412  -10.3043   -1.4696 H   0  0  0  0  0  0  0  0  0  0  0  0
    0.9595   -9.7019   -2.4941 H   0  0  0  0  0  0  0  0  0  0  0  0
  1  2  1  0  0  0  0
  1 45  1  0  0  0  0
  1 46  1  0  0  0  0
  1 47  1  0  0  0  0
  2 28  1  0  0  0  0
  2  3  2  0  0  0  0
  3  4  1  0  0  0  0
  3 18  1  0  0  0  0
  4  5  2  0  0  0  0
  4  6  1  0  0  0  0
  6  7  1  0  0  0  0
  6 48  1  0  0  0  0
  7 12  2  0  0  0  0
  7  8  1  0  0  0  0
  8  9  2  0  0  0  0
  8 49  1  0  0  0  0
  9 10  1  0  0  0  0
  9 50  1  0  0  0  0
 10 11  2  0  0  0  0
 10 13  1  0  0  0  0
 11 12  1  0  0  0  0
 11 51  1  0  0  0  0
 12 52  1  0  0  0  0
 13 14  1  0  0  0  0
 14 15  1  0  0  0  0
 14 16  1  0  0  0  0
 14 17  1  0  0  0  0
 18 19  2  0  0  0  0
 19 20  1  0  0  0  0
 19 28  1  0  0  0  0
 20 25  2  0  0  0  0
 20 21  1  0  0  0  0
 21 22  2  0  0  0  0
 21 27  1  0  0  0  0
 22 23  1  0  0  0  0
 22 53  1  0  0  0  0
 23 24  2  0  0  0  0
 23 26  1  0  0  0  0
 24 25  1  0  0  0  0
 24 54  1  0  0  0  0
 25 55  1  0  0  0  0
 28 29  1  0  0  0  0
 29 34  2  0  0  0  0
 29 30  1  0  0  0  0
 30 31  2  0  0  0  0
 30 56  1  0  0  0  0
 31 32  1  0  0  0  0
 31 57  1  0  0  0  0
 32 33  2  0  0  0  0
 32 35  1  0  0  0  0
 33 34  1  0  0  0  0
 33 58  1  0  0  0  0
 34 59  1  0  0  0  0
 35 36  1  0  0  0  0
 36 37  2  0  0  0  0
 36 38  2  0  0  0  0
 36 39  1  0  0  0  0
 39 40  1  0  0  0  0
 39 60  1  0  0  0  0
 39 61  1  0  0  0  0
 40 41  1  0  0  0  0
 40 62  1  0  0  0  0
 40 63  1  0  0  0  0
 41 42  1  0  0  0  0
 41 43  1  0  0  0  0
 41 44  1  0  0  0  0
M  END
$$$$
CHEMBL4066563
 OpenBabel12022417383D

 61 64  0  0  0  0  0  0  0  0999 V2000
    1.2110    0.2986    0.0471 C   0  0  0  0  0  0  0  0  0  0  0  0
    2.6905    0.1288   -0.0626 C   0  0  0  0  0  0  0  0  0  0  0  0
    3.6489    1.1295   -0.1530 C   0  0  0  0  0  0  0  0  0  0  0  0
    3.4021    2.5897   -0.1990 C   0  0  0  0  0  0  0  0  0  0  0  0
    2.2656    3.0480   -0.1290 O   0  0  0  0  0  0  0  0  0  0  0  0
    4.5536    3.3399   -0.3642 N   0  0  0  0  0  0  0  0  0  0  0  0
    4.6447    4.7505   -0.4781 C   0  0  0  0  0  0  0  0  0  0  0  0
    5.8418    5.3304   -0.8927 C   0  0  0  0  0  0  0  0  0  0  0  0
    6.0355    6.6629   -1.0822 N   0  0  0  0  0  0  0  0  0  0  0  0
    4.9819    7.5001   -0.8389 C   0  0  0  0  0  0  0  0  0  0  0  0
    3.7610    7.0028   -0.3821 C   0  0  0  0  0  0  0  0  0  0  0  0
    3.5966    5.6243   -0.2048 C   0  0  0  0  0  0  0  0  0  0  0  0
    5.1197    9.0034   -1.0707 C   0  0  0  0  0  0  0  0  0  0  0  0
    6.3292    9.3943   -1.5631 F   0  0  0  0  0  0  0  0  0  0  0  0
    4.1918    9.4803   -1.9545 F   0  0  0  0  0  0  0  0  0  0  0  0
    4.9324    9.7296    0.0715 F   0  0  0  0  0  0  0  0  0  0  0  0
    4.9082    0.5706   -0.1997 N   0  0  0  0  0  0  0  0  0  0  0  0
    4.7618   -0.7455   -0.1075 C   0  0  0  0  0  0  0  0  0  0  0  0
    5.9003   -1.7008   -0.1667 C   0  0  0  0  0  0  0  0  0  0  0  0
    7.1122   -1.4817    0.5187 C   0  0  0  0  0  0  0  0  0  0  0  0
    8.0960   -2.4817    0.5799 C   0  0  0  0  0  0  0  0  0  0  0  0
    7.8746   -3.7161   -0.0203 C   0  0  0  0  0  0  0  0  0  0  0  0
    6.7251   -3.9298   -0.7663 C   0  0  0  0  0  0  0  0  0  0  0  0
    5.7829   -2.9047   -0.8909 C   0  0  0  0  0  0  0  0  0  0  0  0
    9.0194   -4.9848    0.1649 Cl  0  0  0  0  0  0  0  0  0  0  0  0
    7.4711   -0.0100    1.3579 Cl  0  0  0  0  0  0  0  0  0  0  0  0
    3.3904   -1.0785   -0.0179 N   0  0  0  0  0  0  0  0  0  0  0  0
    2.8152   -2.3945    0.0140 C   0  0  0  0  0  0  0  0  0  0  0  0
    3.3946   -3.4393    0.7524 C   0  0  0  0  0  0  0  0  0  0  0  0
    2.9481   -4.7609    0.5901 C   0  0  0  0  0  0  0  0  0  0  0  0
    1.8598   -5.0370   -0.2358 C   0  0  0  0  0  0  0  0  0  0  0  0
    1.2522   -3.9936   -0.9347 C   0  0  0  0  0  0  0  0  0  0  0  0
    1.7298   -2.6852   -0.8189 C   0  0  0  0  0  0  0  0  0  0  0  0
    1.4545   -6.3500   -0.3309 O   0  0  0  0  0  0  0  0  0  0  0  0
   -0.1376   -6.6803   -0.5156 S   0  0  0  0  0  0  0  0  0  0  0  0
   -0.8643   -6.1543    0.6240 O   0  0  0  0  0  0  0  0  0  0  0  0
   -0.5333   -6.3823   -1.8794 O   0  0  0  0  0  0  0  0  0  0  0  0
   -0.0831   -8.4580   -0.3635 C   0  0  0  0  0  0  0  0  0  0  0  0
   -1.5105   -8.9881   -0.4615 C   0  0  0  0  0  0  0  0  0  0  0  0
   -1.6027  -10.4881   -0.3662 C   0  0  0  0  0  0  0  0  0  0  0  0
   -0.3939  -11.0656   -0.2178 F   0  0  0  0  0  0  0  0  0  0  0  0
   -2.3663  -10.8518    0.6862 F   0  0  0  0  0  0  0  0  0  0  0  0
   -2.1713  -11.0011   -1.4785 F   0  0  0  0  0  0  0  0  0  0  0  0
    0.6694   -0.6176    0.2845 H   0  0  0  0  0  0  0  0  0  0  0  0
    0.8141    0.6969   -0.8937 H   0  0  0  0  0  0  0  0  0  0  0  0
    0.9665    1.0054    0.8468 H   0  0  0  0  0  0  0  0  0  0  0  0
    5.4010    2.7833   -0.4891 H   0  0  0  0  0  0  0  0  0  0  0  0
    6.7151    4.7210   -1.1207 H   0  0  0  0  0  0  0  0  0  0  0  0
    2.9358    7.6795   -0.1679 H   0  0  0  0  0  0  0  0  0  0  0  0
    2.6356    5.2754    0.1615 H   0  0  0  0  0  0  0  0  0  0  0  0
    9.0225   -2.3042    1.1205 H   0  0  0  0  0  0  0  0  0  0  0  0
    6.5383   -4.8926   -1.2367 H   0  0  0  0  0  0  0  0  0  0  0  0
    4.9095   -3.0989   -1.5115 H   0  0  0  0  0  0  0  0  0  0  0  0
    4.2222   -3.2594    1.4358 H   0  0  0  0  0  0  0  0  0  0  0  0
    3.4579   -5.5688    1.1109 H   0  0  0  0  0  0  0  0  0  0  0  0
    0.4166   -4.1632   -1.6081 H   0  0  0  0  0  0  0  0  0  0  0  0
    1.2669   -1.9259   -1.4446 H   0  0  0  0  0  0  0  0  0  0  0  0
    0.3713   -8.7032    0.6010 H   0  0  0  0  0  0  0  0  0  0  0  0
    0.5425   -8.8474   -1.1743 H   0  0  0  0  0  0  0  0  0  0  0  0
   -1.9627   -8.6629   -1.4064 H   0  0  0  0  0  0  0  0  0  0  0  0
   -2.1209   -8.5387    0.3309 H   0  0  0  0  0  0  0  0  0  0  0  0
  1  2  1  0  0  0  0
  1 44  1  0  0  0  0
  1 45  1  0  0  0  0
  1 46  1  0  0  0  0
  2 27  1  0  0  0  0
  2  3  2  0  0  0  0
  3  4  1  0  0  0  0
  3 17  1  0  0  0  0
  4  5  2  0  0  0  0
  4  6  1  0  0  0  0
  6  7  1  0  0  0  0
  6 47  1  0  0  0  0
  7 12  2  0  0  0  0
  7  8  1  0  0  0  0
  8  9  2  0  0  0  0
  8 48  1  0  0  0  0
  9 10  1  0  0  0  0
 10 11  2  0  0  0  0
 10 13  1  0  0  0  0
 11 12  1  0  0  0  0
 11 49  1  0  0  0  0
 12 50  1  0  0  0  0
 13 14  1  0  0  0  0
 13 15  1  0  0  0  0
 13 16  1  0  0  0  0
 17 18  2  0  0  0  0
 18 19  1  0  0  0  0
 18 27  1  0  0  0  0
 19 24  2  0  0  0  0
 19 20  1  0  0  0  0
 20 21  2  0  0  0  0
 20 26  1  0  0  0  0
 21 22  1  0  0  0  0
 21 51  1  0  0  0  0
 22 23  2  0  0  0  0
 22 25  1  0  0  0  0
 23 24  1  0  0  0  0
 23 52  1  0  0  0  0
 24 53  1  0  0  0  0
 27 28  1  0  0  0  0
 28 33  2  0  0  0  0
 28 29  1  0  0  0  0
 29 30  2  0  0  0  0
 29 54  1  0  0  0  0
 30 31  1  0  0  0  0
 30 55  1  0  0  0  0
 31 32  2  0  0  0  0
 31 34  1  0  0  0  0
 32 33  1  0  0  0  0
 32 56  1  0  0  0  0
 33 57  1  0  0  0  0
 34 35  1  0  0  0  0
 35 36  2  0  0  0  0
 35 37  2  0  0  0  0
 35 38  1  0  0  0  0
 38 39  1  0  0  0  0
 38 58  1  0  0  0  0
 38 59  1  0  0  0  0
 39 40  1  0  0  0  0
 39 60  1  0  0  0  0
 39 61  1  0  0  0  0
 40 41  1  0  0  0  0
 40 42  1  0  0  0  0
 40 43  1  0  0  0  0
M  END
$$$$
CHEMBL2030768
 OpenBabel12022417383D

 56 59  0  0  1  0  0  0  0  0999 V2000
    5.2110   -5.9316    3.7941 C   0  0  0  0  0  0  0  0  0  0  0  0
    3.7341   -6.0419    4.0608 C   0  0  0  0  0  0  0  0  0  0  0  0
    3.1927   -7.1536    4.0760 O   0  0  0  0  0  0  0  0  0  0  0  0
    3.0463   -4.8626    4.2797 N   0  0  0  0  0  0  0  0  0  0  0  0
    1.5842   -4.8768    4.3877 C   0  0  0  0  0  0  0  0  0  0  0  0
    0.9472   -4.0944    3.2362 C   0  0  0  0  0  0  0  0  0  0  0  0
    1.5756   -2.7071    3.0753 C   0  0  0  0  0  0  0  0  0  0  0  0
    3.1071   -2.7989    2.9323 C   0  0  1  0  0  0  0  0  0  0  0  0
    3.6407   -3.5217    4.1849 C   0  0  0  0  0  0  0  0  0  0  0  0
    3.4949   -3.4629    1.6825 N   0  0  0  0  0  0  0  0  0  0  0  0
    3.2247   -2.9313    0.4296 C   0  0  0  0  0  0  0  0  0  0  0  0
    2.7083   -1.8294    0.2881 O   0  0  0  0  0  0  0  0  0  0  0  0
    3.5934   -3.8136   -0.7047 C   0  0  0  0  0  0  0  0  0  0  0  0
    3.3901   -3.6113   -2.1056 C   0  0  0  0  0  0  0  0  0  0  0  0
    3.9541   -4.7257   -2.7419 C   0  0  0  0  0  0  0  0  0  0  0  0
    4.0700   -5.0305   -4.1965 C   0  0  0  0  0  0  0  0  0  0  0  0
    2.9991   -4.7816   -5.0686 C   0  0  0  0  0  0  0  0  0  0  0  0
    3.0049   -5.2505   -6.3890 C   0  0  0  0  0  0  0  0  0  0  0  0
    4.0725   -6.0107   -6.8490 C   0  0  0  0  0  0  0  0  0  0  0  0
    5.1687   -6.2337   -6.0253 C   0  0  0  0  0  0  0  0  0  0  0  0
    5.1942   -5.6875   -4.7336 C   0  0  0  0  0  0  0  0  0  0  0  0
    4.0250   -6.6956   -8.4247 Cl  0  0  0  0  0  0  0  0  0  0  0  0
    4.4030   -5.5528   -1.6906 N   0  0  0  0  0  0  0  0  0  0  0  0
    4.9495   -6.8777   -1.7397 C   0  0  0  0  0  0  0  0  0  0  0  0
    4.5574   -7.7529   -2.7658 C   0  0  0  0  0  0  0  0  0  0  0  0
    5.1781   -8.9914   -2.9413 C   0  0  0  0  0  0  0  0  0  0  0  0
    6.1307   -9.4123   -2.0265 C   0  0  0  0  0  0  0  0  0  0  0  0
    6.4688   -8.6027   -0.9507 C   0  0  0  0  0  0  0  0  0  0  0  0
    5.8969   -7.3329   -0.7988 C   0  0  0  0  0  0  0  0  0  0  0  0
    6.5462   -6.3990    0.5037 Cl  0  0  0  0  0  0  0  0  0  0  0  0
    6.8822  -10.9454   -2.2231 Cl  0  0  0  0  0  0  0  0  0  0  0  0
    4.2003   -4.9826   -0.4796 N   0  0  0  0  0  0  0  0  0  0  0  0
    2.7331   -2.4331   -2.7407 C   0  0  0  0  0  0  0  0  0  0  0  0
    5.5969   -6.9097    3.4914 H   0  0  0  0  0  0  0  0  0  0  0  0
    5.7349   -5.6064    4.6957 H   0  0  0  0  0  0  0  0  0  0  0  0
    5.3954   -5.2348    2.9775 H   0  0  0  0  0  0  0  0  0  0  0  0
    1.3172   -4.4184    5.3478 H   0  0  0  0  0  0  0  0  0  0  0  0
    1.1968   -5.8998    4.3941 H   0  0  0  0  0  0  0  0  0  0  0  0
   -0.1299   -3.9918    3.4049 H   0  0  0  0  0  0  0  0  0  0  0  0
    1.0737   -4.6567    2.3027 H   0  0  0  0  0  0  0  0  0  0  0  0
    1.3388   -2.0991    3.9581 H   0  0  0  0  0  0  0  0  0  0  0  0
    1.1270   -2.1951    2.2178 H   0  0  0  0  0  0  0  0  0  0  0  0
    3.5283   -1.7880    2.8998 H   0  0  0  0  0  0  0  0  0  0  0  0
    4.7304   -3.5590    4.1896 H   0  0  0  0  0  0  0  0  0  0  0  0
    3.3450   -2.9753    5.0908 H   0  0  0  0  0  0  0  0  0  0  0  0
    3.7978   -4.4359    1.6761 H   0  0  0  0  0  0  0  0  0  0  0  0
    2.1077   -4.2634   -4.7319 H   0  0  0  0  0  0  0  0  0  0  0  0
    2.1512   -5.0538   -7.0326 H   0  0  0  0  0  0  0  0  0  0  0  0
    5.9904   -6.8617   -6.3616 H   0  0  0  0  0  0  0  0  0  0  0  0
    6.0705   -5.8891   -4.1203 H   0  0  0  0  0  0  0  0  0  0  0  0
    3.7717   -7.4907   -3.4702 H   0  0  0  0  0  0  0  0  0  0  0  0
    4.9106   -9.6107   -3.7941 H   0  0  0  0  0  0  0  0  0  0  0  0
    7.2177   -8.9484   -0.2349 H   0  0  0  0  0  0  0  0  0  0  0  0
    2.3471   -1.7161   -2.0159 H   0  0  0  0  0  0  0  0  0  0  0  0
    1.8692   -2.7438   -3.3318 H   0  0  0  0  0  0  0  0  0  0  0  0
    3.4370   -1.9035   -3.3909 H   0  0  0  0  0  0  0  0  0  0  0  0
  1  2  1  0  0  0  0
  1 34  1  0  0  0  0
  1 35  1  0  0  0  0
  1 36  1  0  0  0  0
  2  3  2  0  0  0  0
  2  4  1  0  0  0  0
  4  9  1  0  0  0  0
  4  5  1  0  0  0  0
  5  6  1  0  0  0  0
  5 37  1  0  0  0  0
  5 38  1  0  0  0  0
  6  7  1  0  0  0  0
  6 39  1  0  0  0  0
  6 40  1  0  0  0  0
  7  8  1  0  0  0  0
  7 41  1  0  0  0  0
  7 42  1  0  0  0  0
  8  9  1  0  0  0  0
  8 10  1  0  0  0  0
  8 43  1  6  0  0  0
  9 44  1  0  0  0  0
  9 45  1  0  0  0  0
 10 11  1  0  0  0  0
 10 46  1  0  0  0  0
 11 12  2  0  0  0  0
 11 13  1  0  0  0  0
 13 32  2  0  0  0  0
 13 14  1  0  0  0  0
 14 15  2  0  0  0  0
 14 33  1  0  0  0  0
 15 16  1  0  0  0  0
 15 23  1  0  0  0  0
 16 21  2  0  0  0  0
 16 17  1  0  0  0  0
 17 18  2  0  0  0  0
 17 47  1  0  0  0  0
 18 19  1  0  0  0  0
 18 48  1  0  0  0  0
 19 20  2  0  0  0  0
 19 22  1  0  0  0  0
 20 21  1  0  0  0  0
 20 49  1  0  0  0  0
 21 50  1  0  0  0  0
 23 24  1  0  0  0  0
 23 32  1  0  0  0  0
 24 29  2  0  0  0  0
 24 25  1  0  0  0  0
 25 26  2  0  0  0  0
 25 51  1  0  0  0  0
 26 27  1  0  0  0  0
 26 52  1  0  0  0  0
 27 28  2  0  0  0  0
 27 31  1  0  0  0  0
 28 29  1  0  0  0  0
 28 53  1  0  0  0  0
 29 30  1  0  0  0  0
 33 54  1  0  0  0  0
 33 55  1  0  0  0  0
 33 56  1  0  0  0  0
M  END
$$$$
CHEMBL4471116
 OpenBabel12022417383D

 57 59  0  0  0  0  0  0  0  0999 V2000
   -0.0776   -1.0045    0.0393 N   0  0  0  0  0  0  0  0  0  0  0  0
   -0.9165    0.0585   -0.0885 N   0  0  0  0  0  0  0  0  0  0  0  0
   -0.1366    1.1558   -0.0973 C   0  0  0  0  0  0  0  0  0  0  0  0
    1.2461    0.7815   -0.0770 C   0  0  0  0  0  0  0  0  0  0  0  0
    1.2666   -0.6111    0.0298 C   0  0  0  0  0  0  0  0  0  0  0  0
    2.4406   -1.5117    0.0669 C   0  0  0  0  0  0  0  0  0  0  0  0
    3.5714   -1.1928    0.8385 C   0  0  0  0  0  0  0  0  0  0  0  0
    4.6462   -2.0761    0.9556 C   0  0  0  0  0  0  0  0  0  0  0  0
    4.5840   -3.3235    0.3395 C   0  0  0  0  0  0  0  0  0  0  0  0
    3.4860   -3.6553   -0.4486 C   0  0  0  0  0  0  0  0  0  0  0  0
    2.4491   -2.7352   -0.6219 C   0  0  0  0  0  0  0  0  0  0  0  0
    5.8544   -4.4578    0.5668 Cl  0  0  0  0  0  0  0  0  0  0  0  0
    2.4340    1.6763   -0.1694 C   0  0  0  0  0  0  0  0  0  0  0  0
   -0.7266    2.5251   -0.1227 C   0  0  0  0  0  0  0  0  0  0  0  0
   -0.0389    3.5448   -0.0525 O   0  0  0  0  0  0  0  0  0  0  0  0
   -2.1016    2.5563   -0.2208 N   0  0  0  0  0  0  0  0  0  0  0  0
   -2.8718    3.7939   -0.2950 C   0  0  0  0  0  0  0  0  0  0  0  0
   -4.2817    3.6428    0.2744 C   0  0  0  0  0  0  0  0  0  0  0  0
   -4.3395    3.2978    1.7686 C   0  0  0  0  0  0  0  0  0  0  0  0
   -3.6966    4.3265    2.7025 C   0  0  0  0  0  0  0  0  0  0  0  0
   -4.3745    5.6973    2.6610 C   0  0  0  0  0  0  0  0  0  0  0  0
   -3.7016    6.6875    3.5823 C   0  0  0  0  0  0  0  0  0  0  0  0
   -2.7373    6.4585    4.2989 O   0  0  0  0  0  0  0  0  0  0  0  0
   -4.3409    7.8939    3.4949 O   0  0  0  0  0  0  0  0  0  0  0  0
   -3.7740    8.9104    4.3209 C   0  0  0  0  0  0  0  0  0  0  0  0
   -0.6297   -2.3132    0.2576 C   0  0  0  0  0  0  0  0  0  0  0  0
    0.0182   -3.2014    1.1433 C   0  0  0  0  0  0  0  0  0  0  0  0
   -0.4795   -4.4883    1.3688 C   0  0  0  0  0  0  0  0  0  0  0  0
   -1.6589   -4.8864    0.7549 C   0  0  0  0  0  0  0  0  0  0  0  0
   -2.3148   -4.0278   -0.1246 C   0  0  0  0  0  0  0  0  0  0  0  0
   -1.7987   -2.7489   -0.3889 C   0  0  0  0  0  0  0  0  0  0  0  0
   -2.5985   -1.8686   -1.6482 Cl  0  0  0  0  0  0  0  0  0  0  0  0
   -2.3110   -6.4426    1.0857 Cl  0  0  0  0  0  0  0  0  0  0  0  0
    3.6296   -0.2535    1.3846 H   0  0  0  0  0  0  0  0  0  0  0  0
    5.5167   -1.7951    1.5428 H   0  0  0  0  0  0  0  0  0  0  0  0
    3.4184   -4.6366   -0.9124 H   0  0  0  0  0  0  0  0  0  0  0  0
    1.6169   -3.0180   -1.2662 H   0  0  0  0  0  0  0  0  0  0  0  0
    2.1876    2.6842   -0.5094 H   0  0  0  0  0  0  0  0  0  0  0  0
    3.1548    1.2670   -0.8855 H   0  0  0  0  0  0  0  0  0  0  0  0
    2.9243    1.7634    0.8045 H   0  0  0  0  0  0  0  0  0  0  0  0
   -2.5382    1.6692   -0.4441 H   0  0  0  0  0  0  0  0  0  0  0  0
   -2.9356    4.0669   -1.3512 H   0  0  0  0  0  0  0  0  0  0  0  0
   -2.3251    4.6009    0.2090 H   0  0  0  0  0  0  0  0  0  0  0  0
   -4.8126    2.8579   -0.2793 H   0  0  0  0  0  0  0  0  0  0  0  0
   -4.8434    4.5672    0.0926 H   0  0  0  0  0  0  0  0  0  0  0  0
   -3.8531    2.3282    1.9294 H   0  0  0  0  0  0  0  0  0  0  0  0
   -5.3896    3.1623    2.0572 H   0  0  0  0  0  0  0  0  0  0  0  0
   -2.6302    4.4263    2.4763 H   0  0  0  0  0  0  0  0  0  0  0  0
   -3.7489    3.9387    3.7296 H   0  0  0  0  0  0  0  0  0  0  0  0
   -5.4215    5.6022    2.9664 H   0  0  0  0  0  0  0  0  0  0  0  0
   -4.3302    6.1139    1.6508 H   0  0  0  0  0  0  0  0  0  0  0  0
   -4.3580    9.8244    4.1819 H   0  0  0  0  0  0  0  0  0  0  0  0
   -2.7396    9.1126    4.0263 H   0  0  0  0  0  0  0  0  0  0  0  0
   -3.8288    8.6217    5.3753 H   0  0  0  0  0  0  0  0  0  0  0  0
    0.9161   -2.9153    1.6873 H   0  0  0  0  0  0  0  0  0  0  0  0
    0.0545   -5.1662    2.0317 H   0  0  0  0  0  0  0  0  0  0  0  0
   -3.2193   -4.3657   -0.6249 H   0  0  0  0  0  0  0  0  0  0  0  0
  1  5  1  0  0  0  0
  1  2  1  0  0  0  0
  1 26  1  0  0  0  0
  2  3  2  0  0  0  0
  3  4  1  0  0  0  0
  3 14  1  0  0  0  0
  4  5  2  0  0  0  0
  4 13  1  0  0  0  0
  5  6  1  0  0  0  0
  6 11  2  0  0  0  0
  6  7  1  0  0  0  0
  7  8  2  0  0  0  0
  7 34  1  0  0  0  0
  8  9  1  0  0  0  0
  8 35  1  0  0  0  0
  9 10  2  0  0  0  0
  9 12  1  0  0  0  0
 10 11  1  0  0  0  0
 10 36  1  0  0  0  0
 11 37  1  0  0  0  0
 13 38  1  0  0  0  0
 13 39  1  0  0  0  0
 13 40  1  0  0  0  0
 14 15  2  0  0  0  0
 14 16  1  0  0  0  0
 16 17  1  0  0  0  0
 16 41  1  0  0  0  0
 17 18  1  0  0  0  0
 17 42  1  0  0  0  0
 17 43  1  0  0  0  0
 18 19  1  0  0  0  0
 18 44  1  0  0  0  0
 18 45  1  0  0  0  0
 19 20  1  0  0  0  0
 19 46  1  0  0  0  0
 19 47  1  0  0  0  0
 20 21  1  0  0  0  0
 20 48  1  0  0  0  0
 20 49  1  0  0  0  0
 21 22  1  0  0  0  0
 21 50  1  0  0  0  0
 21 51  1  0  0  0  0
 22 23  2  0  0  0  0
 22 24  1  0  0  0  0
 24 25  1  0  0  0  0
 25 52  1  0  0  0  0
 25 53  1  0  0  0  0
 25 54  1  0  0  0  0
 26 31  2  0  0  0  0
 26 27  1  0  0  0  0
 27 28  2  0  0  0  0
 27 55  1  0  0  0  0
 28 29  1  0  0  0  0
 28 56  1  0  0  0  0
 29 30  2  0  0  0  0
 29 33  1  0  0  0  0
 30 31  1  0  0  0  0
 30 57  1  0  0  0  0
 31 32  1  0  0  0  0
M  END
$$$$
CHEMBL4068708
 OpenBabel12022417383D

 61 64  0  0  0  0  0  0  0  0999 V2000
    1.0922    0.2323    0.0508 C   0  0  0  0  0  0  0  0  0  0  0  0
    2.5716    0.0647   -0.0679 C   0  0  0  0  0  0  0  0  0  0  0  0
    3.5268    1.0697   -0.1631 C   0  0  0  0  0  0  0  0  0  0  0  0
    3.2592    2.5283   -0.2136 C   0  0  0  0  0  0  0  0  0  0  0  0
    2.1145    2.9548   -0.1435 O   0  0  0  0  0  0  0  0  0  0  0  0
    4.4021    3.2880   -0.3939 N   0  0  0  0  0  0  0  0  0  0  0  0
    4.4162    4.6929   -0.4341 C   0  0  0  0  0  0  0  0  0  0  0  0
    5.5749    5.3471   -0.8420 C   0  0  0  0  0  0  0  0  0  0  0  0
    5.5869    6.7504   -0.9112 C   0  0  0  0  0  0  0  0  0  0  0  0
    4.4520    7.4717   -0.5491 C   0  0  0  0  0  0  0  0  0  0  0  0
    3.3551    6.7468   -0.1309 C   0  0  0  0  0  0  0  0  0  0  0  0
    3.3216    5.3944   -0.0729 N   0  0  0  0  0  0  0  0  0  0  0  0
    4.3744    8.9722   -0.5847 C   0  0  0  0  0  0  0  0  0  0  0  0
    5.5141    9.5660   -1.0359 F   0  0  0  0  0  0  0  0  0  0  0  0
    3.3762    9.4231   -1.3915 F   0  0  0  0  0  0  0  0  0  0  0  0
    4.1369    9.5132    0.6430 F   0  0  0  0  0  0  0  0  0  0  0  0
    4.7881    0.5158   -0.2147 N   0  0  0  0  0  0  0  0  0  0  0  0
    4.6455   -0.8000   -0.1105 C   0  0  0  0  0  0  0  0  0  0  0  0
    5.7848   -1.7541   -0.1636 C   0  0  0  0  0  0  0  0  0  0  0  0
    6.9908   -1.5386    0.5326 C   0  0  0  0  0  0  0  0  0  0  0  0
    7.9719   -2.5409    0.5995 C   0  0  0  0  0  0  0  0  0  0  0  0
    7.7530   -3.7737   -0.0054 C   0  0  0  0  0  0  0  0  0  0  0  0
    6.6092   -3.9836   -0.7611 C   0  0  0  0  0  0  0  0  0  0  0  0
    5.6707   -2.9561   -0.8916 C   0  0  0  0  0  0  0  0  0  0  0  0
    8.8940   -5.0449    0.1857 Cl  0  0  0  0  0  0  0  0  0  0  0  0
    7.3448   -0.0692    1.3773 Cl  0  0  0  0  0  0  0  0  0  0  0  0
    3.2751   -1.1390   -0.0182 N   0  0  0  0  0  0  0  0  0  0  0  0
    2.7027   -2.4577    0.0186 C   0  0  0  0  0  0  0  0  0  0  0  0
    3.2900   -3.5036    0.7489 C   0  0  0  0  0  0  0  0  0  0  0  0
    2.8463   -4.8277    0.5852 C   0  0  0  0  0  0  0  0  0  0  0  0
    1.7509   -5.1066   -0.2309 C   0  0  0  0  0  0  0  0  0  0  0  0
    1.1330   -4.0604   -0.9175 C   0  0  0  0  0  0  0  0  0  0  0  0
    1.6099   -2.7508   -0.8041 C   0  0  0  0  0  0  0  0  0  0  0  0
    1.3500   -6.4209   -0.3329 O   0  0  0  0  0  0  0  0  0  0  0  0
   -0.2449   -6.7514   -0.5015 S   0  0  0  0  0  0  0  0  0  0  0  0
   -0.9593   -6.2288    0.6460 O   0  0  0  0  0  0  0  0  0  0  0  0
   -0.6585   -6.4568   -1.8593 O   0  0  0  0  0  0  0  0  0  0  0  0
   -0.1985   -8.5297   -0.3455 C   0  0  0  0  0  0  0  0  0  0  0  0
   -1.6324   -9.0479   -0.4274 C   0  0  0  0  0  0  0  0  0  0  0  0
   -1.7363  -10.5471   -0.3328 C   0  0  0  0  0  0  0  0  0  0  0  0
   -0.5316  -11.1349   -0.1933 F   0  0  0  0  0  0  0  0  0  0  0  0
   -2.4955  -10.9059    0.7249 F   0  0  0  0  0  0  0  0  0  0  0  0
   -2.3173  -11.0550   -1.4412 F   0  0  0  0  0  0  0  0  0  0  0  0
    0.5533   -0.6843    0.2915 H   0  0  0  0  0  0  0  0  0  0  0  0
    0.6883    0.6302   -0.8876 H   0  0  0  0  0  0  0  0  0  0  0  0
    0.8509    0.9374    0.8529 H   0  0  0  0  0  0  0  0  0  0  0  0
    5.2578    2.7736   -0.5370 H   0  0  0  0  0  0  0  0  0  0  0  0
    6.4574    4.7902   -1.1377 H   0  0  0  0  0  0  0  0  0  0  0  0
    6.4845    7.2645   -1.2570 H   0  0  0  0  0  0  0  0  0  0  0  0
    2.4322    7.2331    0.1817 H   0  0  0  0  0  0  0  0  0  0  0  0
    8.8941   -2.3668    1.1486 H   0  0  0  0  0  0  0  0  0  0  0  0
    6.4229   -4.9454   -1.2336 H   0  0  0  0  0  0  0  0  0  0  0  0
    4.8000   -3.1472   -1.5170 H   0  0  0  0  0  0  0  0  0  0  0  0
    4.1216   -3.3230    1.4274 H   0  0  0  0  0  0  0  0  0  0  0  0
    3.3658   -5.6344    1.0981 H   0  0  0  0  0  0  0  0  0  0  0  0
    0.2906   -4.2289   -1.5826 H   0  0  0  0  0  0  0  0  0  0  0  0
    1.1382   -1.9916   -1.4236 H   0  0  0  0  0  0  0  0  0  0  0  0
    0.2632   -8.7766    0.6148 H   0  0  0  0  0  0  0  0  0  0  0  0
    0.4146   -8.9223   -1.1631 H   0  0  0  0  0  0  0  0  0  0  0  0
   -2.0910   -8.7152   -1.3668 H   0  0  0  0  0  0  0  0  0  0  0  0
   -2.2311   -8.5948    0.3720 H   0  0  0  0  0  0  0  0  0  0  0  0
  1  2  1  0  0  0  0
  1 44  1  0  0  0  0
  1 45  1  0  0  0  0
  1 46  1  0  0  0  0
  2 27  1  0  0  0  0
  2  3  2  0  0  0  0
  3  4  1  0  0  0  0
  3 17  1  0  0  0  0
  4  5  2  0  0  0  0
  4  6  1  0  0  0  0
  6  7  1  0  0  0  0
  6 47  1  0  0  0  0
  7 12  2  0  0  0  0
  7  8  1  0  0  0  0
  8  9  2  0  0  0  0
  8 48  1  0  0  0  0
  9 10  1  0  0  0  0
  9 49  1  0  0  0  0
 10 11  2  0  0  0  0
 10 13  1  0  0  0  0
 11 12  1  0  0  0  0
 11 50  1  0  0  0  0
 13 14  1  0  0  0  0
 13 15  1  0  0  0  0
 13 16  1  0  0  0  0
 17 18  2  0  0  0  0
 18 19  1  0  0  0  0
 18 27  1  0  0  0  0
 19 24  2  0  0  0  0
 19 20  1  0  0  0  0
 20 21  2  0  0  0  0
 20 26  1  0  0  0  0
 21 22  1  0  0  0  0
 21 51  1  0  0  0  0
 22 23  2  0  0  0  0
 22 25  1  0  0  0  0
 23 24  1  0  0  0  0
 23 52  1  0  0  0  0
 24 53  1  0  0  0  0
 27 28  1  0  0  0  0
 28 33  2  0  0  0  0
 28 29  1  0  0  0  0
 29 30  2  0  0  0  0
 29 54  1  0  0  0  0
 30 31  1  0  0  0  0
 30 55  1  0  0  0  0
 31 32  2  0  0  0  0
 31 34  1  0  0  0  0
 32 33  1  0  0  0  0
 32 56  1  0  0  0  0
 33 57  1  0  0  0  0
 34 35  1  0  0  0  0
 35 36  2  0  0  0  0
 35 37  2  0  0  0  0
 35 38  1  0  0  0  0
 38 39  1  0  0  0  0
 38 58  1  0  0  0  0
 38 59  1  0  0  0  0
 39 40  1  0  0  0  0
 39 60  1  0  0  0  0
 39 61  1  0  0  0  0
 40 41  1  0  0  0  0
 40 42  1  0  0  0  0
 40 43  1  0  0  0  0
M  END
$$$$
CHEMBL4089947
 OpenBabel12022417383D

 70 73  0  0  0  0  0  0  0  0999 V2000
    1.1215    0.3398    0.2187 C   0  0  0  0  0  0  0  0  0  0  0  0
    2.5994    0.1697    0.1002 C   0  0  0  0  0  0  0  0  0  0  0  0
    3.5607    1.1671    0.0058 C   0  0  0  0  0  0  0  0  0  0  0  0
    3.3386    2.6369   -0.0565 C   0  0  0  0  0  0  0  0  0  0  0  0
    2.2234    3.1438   -0.1247 O   0  0  0  0  0  0  0  0  0  0  0  0
    4.5365    3.3499   -0.0389 N   0  0  0  0  0  0  0  0  0  0  0  0
    4.6585    4.7726   -0.0661 N   0  0  0  0  0  0  0  0  0  0  0  0
    4.2594    5.3657   -1.3510 C   0  0  0  0  0  0  0  0  0  0  0  0
    4.6141    6.8592   -1.3991 C   0  0  0  0  0  0  0  0  0  0  0  0
    4.0072    7.6198   -0.2242 C   0  0  0  0  0  0  0  0  0  0  0  0
    4.3550    6.9364    1.0968 C   0  0  0  0  0  0  0  0  0  0  0  0
    4.0064    5.4435    1.0685 C   0  0  0  0  0  0  0  0  0  0  0  0
    4.8193    0.5952   -0.0092 N   0  0  0  0  0  0  0  0  0  0  0  0
    4.6679   -0.7187    0.0728 C   0  0  0  0  0  0  0  0  0  0  0  0
    5.8019   -1.6802    0.0095 C   0  0  0  0  0  0  0  0  0  0  0  0
    7.0110   -1.4727    0.7030 C   0  0  0  0  0  0  0  0  0  0  0  0
    7.9909   -2.4768    0.7574 C   0  0  0  0  0  0  0  0  0  0  0  0
    7.7695   -3.7028    0.1405 C   0  0  0  0  0  0  0  0  0  0  0  0
    6.6237   -3.9033   -0.6150 C   0  0  0  0  0  0  0  0  0  0  0  0
    5.6836   -2.8748   -0.7295 C   0  0  0  0  0  0  0  0  0  0  0  0
    8.9083   -4.9780    0.3191 Cl  0  0  0  0  0  0  0  0  0  0  0  0
    7.3705   -0.0135    1.5632 Cl  0  0  0  0  0  0  0  0  0  0  0  0
    3.2961   -1.0439    0.1511 N   0  0  0  0  0  0  0  0  0  0  0  0
    2.7166   -2.3587    0.1833 C   0  0  0  0  0  0  0  0  0  0  0  0
    3.2907   -3.4051    0.9260 C   0  0  0  0  0  0  0  0  0  0  0  0
    2.8369   -4.7268    0.7670 C   0  0  0  0  0  0  0  0  0  0  0  0
    1.7519   -5.0038   -0.0631 C   0  0  0  0  0  0  0  0  0  0  0  0
    1.1517   -3.9570   -0.7667 C   0  0  0  0  0  0  0  0  0  0  0  0
    1.6363   -2.6494   -0.6576 C   0  0  0  0  0  0  0  0  0  0  0  0
    1.3495   -6.3176   -0.1624 O   0  0  0  0  0  0  0  0  0  0  0  0
   -0.2428   -6.6466   -0.3598 S   0  0  0  0  0  0  0  0  0  0  0  0
   -0.9707   -6.1118    0.7744 O   0  0  0  0  0  0  0  0  0  0  0  0
   -0.6257   -6.3403   -1.7244 O   0  0  0  0  0  0  0  0  0  0  0  0
   -0.1924   -8.4363   -0.2018 C   0  0  0  0  0  0  0  0  0  0  0  0
   -1.6260   -8.9673   -0.3006 C   0  0  0  0  0  0  0  0  0  0  0  0
   -1.7813  -10.4933   -0.2290 C   0  0  0  0  0  0  0  0  0  0  0  0
   -1.2652  -11.0713    1.0869 C   0  0  0  0  0  0  0  0  0  0  0  0
   -3.2636  -10.8483   -0.4026 C   0  0  0  0  0  0  0  0  0  0  0  0
    0.5865   -0.5732    0.4870 H   0  0  0  0  0  0  0  0  0  0  0  0
    0.7131    0.7112   -0.7275 H   0  0  0  0  0  0  0  0  0  0  0  0
    0.8832    1.0671    1.0021 H   0  0  0  0  0  0  0  0  0  0  0  0
    5.3913    2.7970    0.0231 H   0  0  0  0  0  0  0  0  0  0  0  0
    3.1843    5.2409   -1.5319 H   0  0  0  0  0  0  0  0  0  0  0  0
    4.7884    4.8658   -2.1716 H   0  0  0  0  0  0  0  0  0  0  0  0
    4.2649    7.2967   -2.3394 H   0  0  0  0  0  0  0  0  0  0  0  0
    5.7052    6.9781   -1.3784 H   0  0  0  0  0  0  0  0  0  0  0  0
    2.9174    7.6653   -0.3388 H   0  0  0  0  0  0  0  0  0  0  0  0
    4.3707    8.6547   -0.2189 H   0  0  0  0  0  0  0  0  0  0  0  0
    3.8228    7.4295    1.9143 H   0  0  0  0  0  0  0  0  0  0  0  0
    5.4286    7.0613    1.2924 H   0  0  0  0  0  0  0  0  0  0  0  0
    4.3475    4.9957    2.0085 H   0  0  0  0  0  0  0  0  0  0  0  0
    2.9164    5.3322    1.0272 H   0  0  0  0  0  0  0  0  0  0  0  0
    8.9144   -2.3090    1.3063 H   0  0  0  0  0  0  0  0  0  0  0  0
    6.4379   -4.8590   -1.1002 H   0  0  0  0  0  0  0  0  0  0  0  0
    4.8118   -3.0591   -1.3555 H   0  0  0  0  0  0  0  0  0  0  0  0
    4.1190   -3.2284    1.6084 H   0  0  0  0  0  0  0  0  0  0  0  0
    3.3394   -5.5348    1.2955 H   0  0  0  0  0  0  0  0  0  0  0  0
    0.3207   -4.1256   -1.4467 H   0  0  0  0  0  0  0  0  0  0  0  0
    1.1763   -1.8876   -1.2829 H   0  0  0  0  0  0  0  0  0  0  0  0
    0.2620   -8.6681    0.7653 H   0  0  0  0  0  0  0  0  0  0  0  0
    0.4322   -8.8290   -1.0102 H   0  0  0  0  0  0  0  0  0  0  0  0
   -2.0594   -8.6233   -1.2496 H   0  0  0  0  0  0  0  0  0  0  0  0
   -2.2319   -8.5078    0.4897 H   0  0  0  0  0  0  0  0  0  0  0  0
   -1.2219  -10.9505   -1.0547 H   0  0  0  0  0  0  0  0  0  0  0  0
   -1.7545  -10.5999    1.9460 H   0  0  0  0  0  0  0  0  0  0  0  0
   -0.1854  -10.9288    1.1866 H   0  0  0  0  0  0  0  0  0  0  0  0
   -1.4590  -12.1490    1.1393 H   0  0  0  0  0  0  0  0  0  0  0  0
   -3.8717  -10.4062    0.3952 H   0  0  0  0  0  0  0  0  0  0  0  0
   -3.4163  -11.9319   -0.3820 H   0  0  0  0  0  0  0  0  0  0  0  0
   -3.6448  -10.4748   -1.3593 H   0  0  0  0  0  0  0  0  0  0  0  0
  1  2  1  0  0  0  0
  1 39  1  0  0  0  0
  1 40  1  0  0  0  0
  1 41  1  0  0  0  0
  2 23  1  0  0  0  0
  2  3  2  0  0  0  0
  3  4  1  0  0  0  0
  3 13  1  0  0  0  0
  4  5  2  0  0  0  0
  4  6  1  0  0  0  0
  6  7  1  0  0  0  0
  6 42  1  0  0  0  0
  7 12  1  0  0  0  0
  7  8  1  0  0  0  0
  8  9  1  0  0  0  0
  8 43  1  0  0  0  0
  8 44  1  0  0  0  0
  9 10  1  0  0  0  0
  9 45  1  0  0  0  0
  9 46  1  0  0  0  0
 10 11  1  0  0  0  0
 10 47  1  0  0  0  0
 10 48  1  0  0  0  0
 11 12  1  0  0  0  0
 11 49  1  0  0  0  0
 11 50  1  0  0  0  0
 12 51  1  0  0  0  0
 12 52  1  0  0  0  0
 13 14  2  0  0  0  0
 14 15  1  0  0  0  0
 14 23  1  0  0  0  0
 15 20  2  0  0  0  0
 15 16  1  0  0  0  0
 16 17  2  0  0  0  0
 16 22  1  0  0  0  0
 17 18  1  0  0  0  0
 17 53  1  0  0  0  0
 18 19  2  0  0  0  0
 18 21  1  0  0  0  0
 19 20  1  0  0  0  0
 19 54  1  0  0  0  0
 20 55  1  0  0  0  0
 23 24  1  0  0  0  0
 24 29  2  0  0  0  0
 24 25  1  0  0  0  0
 25 26  2  0  0  0  0
 25 56  1  0  0  0  0
 26 27  1  0  0  0  0
 26 57  1  0  0  0  0
 27 28  2  0  0  0  0
 27 30  1  0  0  0  0
 28 29  1  0  0  0  0
 28 58  1  0  0  0  0
 29 59  1  0  0  0  0
 30 31  1  0  0  0  0
 31 32  2  0  0  0  0
 31 33  2  0  0  0  0
 31 34  1  0  0  0  0
 34 35  1  0  0  0  0
 34 60  1  0  0  0  0
 34 61  1  0  0  0  0
 35 36  1  0  0  0  0
 35 62  1  0  0  0  0
 35 63  1  0  0  0  0
 36 37  1  0  0  0  0
 36 38  1  0  0  0  0
 36 64  1  0  0  0  0
 37 65  1  0  0  0  0
 37 66  1  0  0  0  0
 37 67  1  0  0  0  0
 38 68  1  0  0  0  0
 38 69  1  0  0  0  0
 38 70  1  0  0  0  0
M  END
$$$$
CHEMBL459305
 OpenBabel12022417383D

 60 64  0  0  1  0  0  0  0  0999 V2000
    5.5583    4.9363    2.0631 C   0  0  0  0  0  0  0  0  0  0  0  0
    4.5923    5.6945    1.1706 C   0  0  0  0  0  0  0  0  0  0  0  0
    4.5596    5.0758   -0.2174 C   0  0  0  0  0  0  0  0  0  0  0  0
    4.5316    4.5450   -1.4080 C   0  0  0  0  0  0  0  0  0  0  0  0
    4.5431    4.0010   -2.7331 C   0  0  0  0  0  0  0  0  0  0  0  0
    4.2076    2.7088   -3.0622 C   0  0  0  0  0  0  0  0  0  0  0  0
    4.5100    2.4075   -4.4292 C   0  0  0  0  0  0  0  0  0  0  0  0
    4.9744    3.5007   -5.1480 C   0  0  0  0  0  0  0  0  0  0  0  0
    5.3970    3.5559   -6.5474 C   0  0  0  0  0  0  0  0  0  0  0  0
    6.4824    4.2376   -7.1076 C   0  0  0  0  0  0  0  0  0  0  0  0
    7.4748    5.1464   -6.4648 C   0  0  0  0  0  0  0  0  0  0  0  0
    6.5326    3.8412   -8.4862 C   0  0  0  0  0  0  0  0  0  0  0  0
    7.5201    4.2595   -9.5230 C   0  0  0  0  0  0  0  0  0  0  0  0
    8.4138    5.0710   -9.2729 O   0  0  0  0  0  0  0  0  0  0  0  0
    7.3517    3.6467  -10.7725 N   0  0  0  0  0  0  0  0  0  0  0  0
    8.1356    4.0385  -11.8911 N   0  0  0  0  0  0  0  0  0  0  0  0
    7.4312    3.9262  -13.1830 C   0  0  0  0  0  0  0  0  0  0  0  0
    8.5528    4.0034  -14.2256 C   0  0  1  0  0  0  0  0  0  0  0  0
    8.8412    5.4085  -14.7656 C   0  0  0  0  0  0  0  0  0  0  0  0
   10.3574    5.5027  -14.8125 C   0  0  0  0  0  0  0  0  0  0  0  0
   10.7787    4.7660  -13.5514 C   0  0  0  0  0  0  0  0  0  0  0  0
    9.8249    3.5694  -13.4756 C   0  0  1  0  0  0  0  0  0  0  0  0
    9.3485    3.2207  -12.0633 C   0  0  0  0  0  0  0  0  0  0  0  0
    5.5361    2.9854   -8.7654 N   0  0  0  0  0  0  0  0  0  0  0  0
    4.8424    2.8175   -7.6071 N   0  0  0  0  0  0  0  0  0  0  0  0
    3.6602    2.0077   -7.6234 C   0  0  0  0  0  0  0  0  0  0  0  0
    2.5626    2.3748   -6.8216 C   0  0  0  0  0  0  0  0  0  0  0  0
    1.4271    1.5631   -6.7420 C   0  0  0  0  0  0  0  0  0  0  0  0
    1.3522    0.4056   -7.5064 C   0  0  0  0  0  0  0  0  0  0  0  0
    2.4004    0.0540   -8.3508 C   0  0  0  0  0  0  0  0  0  0  0  0
    3.5588    0.8445   -8.4128 C   0  0  0  0  0  0  0  0  0  0  0  0
    4.8341    0.1978   -9.3926 Cl  0  0  0  0  0  0  0  0  0  0  0  0
   -0.0366   -0.6019   -7.3975 Cl  0  0  0  0  0  0  0  0  0  0  0  0
    4.9766    4.8920   -4.1249 S   0  0  0  0  0  0  0  0  0  0  0  0
    5.5837    5.3799    3.0631 H   0  0  0  0  0  0  0  0  0  0  0  0
    6.5739    4.9586    1.6530 H   0  0  0  0  0  0  0  0  0  0  0  0
    5.2620    3.8863    2.1620 H   0  0  0  0  0  0  0  0  0  0  0  0
    4.8985    6.7428    1.0888 H   0  0  0  0  0  0  0  0  0  0  0  0
    3.5846    5.6688    1.5986 H   0  0  0  0  0  0  0  0  0  0  0  0
    3.8260    1.9890   -2.3472 H   0  0  0  0  0  0  0  0  0  0  0  0
    4.3808    1.4169   -4.8482 H   0  0  0  0  0  0  0  0  0  0  0  0
    7.3318    5.2594   -5.3912 H   0  0  0  0  0  0  0  0  0  0  0  0
    7.4154    6.1449   -6.9112 H   0  0  0  0  0  0  0  0  0  0  0  0
    8.4911    4.7624   -6.5981 H   0  0  0  0  0  0  0  0  0  0  0  0
    6.5500    3.0235  -10.8682 H   0  0  0  0  0  0  0  0  0  0  0  0
    6.6827    4.7109  -13.3157 H   0  0  0  0  0  0  0  0  0  0  0  0
    6.9316    2.9521  -13.2646 H   0  0  0  0  0  0  0  0  0  0  0  0
    8.3495    3.3201  -15.0635 H   0  0  0  0  0  0  0  0  0  0  0  0
    8.4384    6.1824  -14.1024 H   0  0  0  0  0  0  0  0  0  0  0  0
    8.4013    5.5624  -15.7568 H   0  0  0  0  0  0  0  0  0  0  0  0
   10.7085    6.5390  -14.8245 H   0  0  0  0  0  0  0  0  0  0  0  0
   10.7488    4.9996  -15.7040 H   0  0  0  0  0  0  0  0  0  0  0  0
   10.6725    5.4222  -12.6810 H   0  0  0  0  0  0  0  0  0  0  0  0
   11.8264    4.4490  -13.6024 H   0  0  0  0  0  0  0  0  0  0  0  0
   10.2829    2.7000  -13.9600 H   0  0  0  0  0  0  0  0  0  0  0  0
    9.0993    2.1525  -12.0184 H   0  0  0  0  0  0  0  0  0  0  0  0
   10.1050    3.4339  -11.3042 H   0  0  0  0  0  0  0  0  0  0  0  0
    2.5612    3.2976   -6.2444 H   0  0  0  0  0  0  0  0  0  0  0  0
    0.6106    1.8414   -6.0796 H   0  0  0  0  0  0  0  0  0  0  0  0
    2.3291   -0.8560   -8.9433 H   0  0  0  0  0  0  0  0  0  0  0  0
  1  2  1  0  0  0  0
  1 35  1  0  0  0  0
  1 36  1  0  0  0  0
  1 37  1  0  0  0  0
  2  3  1  0  0  0  0
  2 38  1  0  0  0  0
  2 39  1  0  0  0  0
  3  4  3  0  0  0  0
  4  5  1  0  0  0  0
  5 34  1  0  0  0  0
  5  6  2  0  0  0  0
  6  7  1  0  0  0  0
  6 40  1  0  0  0  0
  7  8  2  0  0  0  0
  7 41  1  0  0  0  0
  8  9  1  0  0  0  0
  8 34  1  0  0  0  0
  9 25  1  0  0  0  0
  9 10  2  0  0  0  0
 10 11  1  0  0  0  0
 10 12  1  0  0  0  0
 11 42  1  0  0  0  0
 11 43  1  0  0  0  0
 11 44  1  0  0  0  0
 12 13  1  0  0  0  0
 12 24  2  0  0  0  0
 13 14  2  0  0  0  0
 13 15  1  0  0  0  0
 15 16  1  0  0  0  0
 15 45  1  0  0  0  0
 16 23  1  0  0  0  0
 16 17  1  0  0  0  0
 17 46  1  0  0  0  0
 17 47  1  0  0  0  0
 18 17  1  0  0  0  0
 18 19  1  0  0  0  0
 18 22  1  0  0  0  0
 18 48  1  6  0  0  0
 19 20  1  0  0  0  0
 19 49  1  0  0  0  0
 19 50  1  0  0  0  0
 20 21  1  0  0  0  0
 20 51  1  0  0  0  0
 20 52  1  0  0  0  0
 21 53  1  0  0  0  0
 21 54  1  0  0  0  0
 22 21  1  0  0  0  0
 22 23  1  0  0  0  0
 22 55  1  6  0  0  0
 23 56  1  0  0  0  0
 23 57  1  0  0  0  0
 24 25  1  0  0  0  0
 25 26  1  0  0  0  0
 26 31  2  0  0  0  0
 26 27  1  0  0  0  0
 27 28  2  0  0  0  0
 27 58  1  0  0  0  0
 28 29  1  0  0  0  0
 28 59  1  0  0  0  0
 29 30  2  0  0  0  0
 29 33  1  0  0  0  0
 30 31  1  0  0  0  0
 30 60  1  0  0  0  0
 31 32  1  0  0  0  0
M  END
$$$$
CHEMBL518817
 OpenBabel12022417383D

 67 71  0  0  1  0  0  0  0  0999 V2000
    5.6620   -1.0110   -2.8987 C   0  0  0  0  0  0  0  0  0  0  0  0
    4.9949    0.2464   -2.3624 C   0  0  0  0  0  0  0  0  0  0  0  0
    5.4438    0.5354   -0.9310 C   0  0  0  0  0  0  0  0  0  0  0  0
    4.8070    1.8118   -0.3737 C   0  0  0  0  0  0  0  0  0  0  0  0
    5.2858    2.1448    1.0535 C   0  0  0  0  0  0  0  0  0  0  0  0
    6.7785    2.3785    1.1163 C   0  0  0  0  0  0  0  0  0  0  0  0
    7.5132    3.2531    0.3478 C   0  0  0  0  0  0  0  0  0  0  0  0
    8.9151    3.1038    0.5519 C   0  0  0  0  0  0  0  0  0  0  0  0
    9.2328    2.2647    1.6138 C   0  0  0  0  0  0  0  0  0  0  0  0
   10.5569    2.0795    2.2184 C   0  0  0  0  0  0  0  0  0  0  0  0
   11.2209    0.9140    2.6244 C   0  0  0  0  0  0  0  0  0  0  0  0
   10.7313   -0.4922    2.6199 C   0  0  0  0  0  0  0  0  0  0  0  0
   12.5508    1.3238    3.0129 C   0  0  0  0  0  0  0  0  0  0  0  0
   13.6916    0.4595    3.4700 C   0  0  0  0  0  0  0  0  0  0  0  0
   13.5739   -0.7591    3.5638 O   0  0  0  0  0  0  0  0  0  0  0  0
   14.8917    1.1482    3.7547 N   0  0  0  0  0  0  0  0  0  0  0  0
   16.0634    0.4523    4.2206 N   0  0  0  0  0  0  0  0  0  0  0  0
   16.9905    1.2829    5.0165 C   0  0  0  0  0  0  0  0  0  0  0  0
   18.3209    0.5056    5.0092 C   0  0  1  0  0  0  0  0  0  0  0  0
   18.5652   -0.4116    6.2157 C   0  0  0  0  0  0  0  0  0  0  0  0
   19.0814   -1.7137    5.6263 C   0  0  0  0  0  0  0  0  0  0  0  0
   18.2820   -1.8487    4.3440 C   0  0  0  0  0  0  0  0  0  0  0  0
   18.2214   -0.4230    3.7875 C   0  0  1  0  0  0  0  0  0  0  0  0
   16.9007   -0.0482    3.1139 C   0  0  0  0  0  0  0  0  0  0  0  0
   12.6799    2.6526    2.8927 N   0  0  0  0  0  0  0  0  0  0  0  0
   11.4865    3.1131    2.4198 N   0  0  0  0  0  0  0  0  0  0  0  0
   11.3140    4.5248    2.2412 C   0  0  0  0  0  0  0  0  0  0  0  0
   10.0539    5.1079    2.4889 C   0  0  0  0  0  0  0  0  0  0  0  0
    9.8187    6.4612    2.2232 C   0  0  0  0  0  0  0  0  0  0  0  0
   10.8593    7.2616    1.7810 C   0  0  0  0  0  0  0  0  0  0  0  0
   12.1307    6.7166    1.5809 C   0  0  0  0  0  0  0  0  0  0  0  0
   12.3590    5.3526    1.8009 C   0  0  0  0  0  0  0  0  0  0  0  0
   13.9373    4.7973    1.3370 Cl  0  0  0  0  0  0  0  0  0  0  0  0
   10.5824    8.9291    1.4631 Cl  0  0  0  0  0  0  0  0  0  0  0  0
    7.7949    1.5175    2.2004 S   0  0  0  0  0  0  0  0  0  0  0  0
    5.3377   -1.2085   -3.9253 H   0  0  0  0  0  0  0  0  0  0  0  0
    5.4051   -1.8821   -2.2861 H   0  0  0  0  0  0  0  0  0  0  0  0
    6.7520   -0.9052   -2.9026 H   0  0  0  0  0  0  0  0  0  0  0  0
    3.9059    0.1248   -2.3987 H   0  0  0  0  0  0  0  0  0  0  0  0
    5.2505    1.0917   -3.0124 H   0  0  0  0  0  0  0  0  0  0  0  0
    6.5359    0.6255   -0.9250 H   0  0  0  0  0  0  0  0  0  0  0  0
    5.1866   -0.3118   -0.2837 H   0  0  0  0  0  0  0  0  0  0  0  0
    3.7154    1.6988   -0.3630 H   0  0  0  0  0  0  0  0  0  0  0  0
    5.0228    2.6528   -1.0459 H   0  0  0  0  0  0  0  0  0  0  0  0
    4.9773    1.3449    1.7340 H   0  0  0  0  0  0  0  0  0  0  0  0
    4.7754    3.0576    1.3875 H   0  0  0  0  0  0  0  0  0  0  0  0
    7.0673    3.9342   -0.3704 H   0  0  0  0  0  0  0  0  0  0  0  0
    9.6439    3.6813    0.0040 H   0  0  0  0  0  0  0  0  0  0  0  0
    9.7148   -0.5907    2.2345 H   0  0  0  0  0  0  0  0  0  0  0  0
   10.7400   -0.9008    3.6355 H   0  0  0  0  0  0  0  0  0  0  0  0
   11.3710   -1.1184    1.9883 H   0  0  0  0  0  0  0  0  0  0  0  0
   14.8759    2.1615    3.6716 H   0  0  0  0  0  0  0  0  0  0  0  0
   16.6234    1.4628    6.0314 H   0  0  0  0  0  0  0  0  0  0  0  0
   17.1526    2.2548    4.5320 H   0  0  0  0  0  0  0  0  0  0  0  0
   19.1668    1.1947    4.8989 H   0  0  0  0  0  0  0  0  0  0  0  0
   17.6423   -0.5940    6.7766 H   0  0  0  0  0  0  0  0  0  0  0  0
   19.2940    0.0194    6.9126 H   0  0  0  0  0  0  0  0  0  0  0  0
   18.9363   -2.5638    6.3004 H   0  0  0  0  0  0  0  0  0  0  0  0
   20.1568   -1.6415    5.4050 H   0  0  0  0  0  0  0  0  0  0  0  0
   17.2795   -2.2336    4.5690 H   0  0  0  0  0  0  0  0  0  0  0  0
   18.7540   -2.5420    3.6413 H   0  0  0  0  0  0  0  0  0  0  0  0
   19.0711   -0.2580    3.1091 H   0  0  0  0  0  0  0  0  0  0  0  0
   17.0842    0.7486    2.3811 H   0  0  0  0  0  0  0  0  0  0  0  0
   16.4430   -0.8982    2.5987 H   0  0  0  0  0  0  0  0  0  0  0  0
    9.2218    4.5301    2.8859 H   0  0  0  0  0  0  0  0  0  0  0  0
    8.8214    6.8723    2.3611 H   0  0  0  0  0  0  0  0  0  0  0  0
   12.9369    7.3494    1.2266 H   0  0  0  0  0  0  0  0  0  0  0  0
  1  2  1  0  0  0  0
  1 36  1  0  0  0  0
  1 37  1  0  0  0  0
  1 38  1  0  0  0  0
  2  3  1  0  0  0  0
  2 39  1  0  0  0  0
  2 40  1  0  0  0  0
  3  4  1  0  0  0  0
  3 41  1  0  0  0  0
  3 42  1  0  0  0  0
  4  5  1  0  0  0  0
  4 43  1  0  0  0  0
  4 44  1  0  0  0  0
  5  6  1  0  0  0  0
  5 45  1  0  0  0  0
  5 46  1  0  0  0  0
  6 35  1  0  0  0  0
  6  7  2  0  0  0  0
  7  8  1  0  0  0  0
  7 47  1  0  0  0  0
  8  9  2  0  0  0  0
  8 48  1  0  0  0  0
  9 10  1  0  0  0  0
  9 35  1  0  0  0  0
 10 26  1  0  0  0  0
 10 11  2  0  0  0  0
 11 12  1  0  0  0  0
 11 13  1  0  0  0  0
 12 49  1  0  0  0  0
 12 50  1  0  0  0  0
 12 51  1  0  0  0  0
 13 14  1  0  0  0  0
 13 25  2  0  0  0  0
 14 15  2  0  0  0  0
 14 16  1  0  0  0  0
 16 17  1  0  0  0  0
 16 52  1  0  0  0  0
 17 24  1  0  0  0  0
 17 18  1  0  0  0  0
 18 53  1  0  0  0  0
 18 54  1  0  0  0  0
 19 18  1  0  0  0  0
 19 20  1  0  0  0  0
 19 23  1  0  0  0  0
 19 55  1  6  0  0  0
 20 21  1  0  0  0  0
 20 56  1  0  0  0  0
 20 57  1  0  0  0  0
 21 22  1  0  0  0  0
 21 58  1  0  0  0  0
 21 59  1  0  0  0  0
 22 60  1  0  0  0  0
 22 61  1  0  0  0  0
 23 22  1  0  0  0  0
 23 24  1  0  0  0  0
 23 62  1  6  0  0  0
 24 63  1  0  0  0  0
 24 64  1  0  0  0  0
 25 26  1  0  0  0  0
 26 27  1  0  0  0  0
 27 32  2  0  0  0  0
 27 28  1  0  0  0  0
 28 29  2  0  0  0  0
 28 65  1  0  0  0  0
 29 30  1  0  0  0  0
 29 66  1  0  0  0  0
 30 31  2  0  0  0  0
 30 34  1  0  0  0  0
 31 32  1  0  0  0  0
 31 67  1  0  0  0  0
 32 33  1  0  0  0  0
M  END
$$$$
CHEMBL2030926
 OpenBabel12022417383D

 64 67  0  0  1  0  0  0  0  0999 V2000
    9.1691    2.8433   -2.9269 C   0  0  0  0  0  0  0  0  0  0  0  0
    9.4780    2.4589   -4.3657 C   0  0  0  0  0  0  0  0  0  0  0  0
    8.5871    1.3326   -4.8806 C   0  0  0  0  0  0  0  0  0  0  0  0
    8.7861    0.0879   -4.1559 N   0  0  0  0  0  0  0  0  0  0  0  0
    7.9704   -0.9780   -4.4434 C   0  0  0  0  0  0  0  0  0  0  0  0
    7.0532   -0.8804   -5.2565 O   0  0  0  0  0  0  0  0  0  0  0  0
    8.2487   -2.1458   -3.7543 N   0  0  0  0  0  0  0  0  0  0  0  0
    7.4640   -3.3311   -4.0842 C   0  0  0  0  0  0  0  0  0  0  0  0
    6.6686   -3.7830   -2.8671 C   0  0  0  0  0  0  0  0  0  0  0  0
    7.5926   -4.0698   -1.6800 C   0  0  0  0  0  0  0  0  0  0  0  0
    8.5381   -2.8920   -1.3658 C   0  0  2  0  0  0  0  0  0  0  0  0
    9.2126   -2.3392   -2.6531 C   0  0  0  0  0  0  0  0  0  0  0  0
    9.4829   -3.2151   -0.2794 N   0  0  0  0  0  0  0  0  0  0  0  0
   10.4611   -4.1973   -0.3376 C   0  0  0  0  0  0  0  0  0  0  0  0
   10.6842   -4.8321   -1.3642 O   0  0  0  0  0  0  0  0  0  0  0  0
   11.2181   -4.4233    0.9368 C   0  0  0  0  0  0  0  0  0  0  0  0
   12.2078   -5.4156    1.2253 C   0  0  0  0  0  0  0  0  0  0  0  0
   12.6124   -5.1974    2.5526 C   0  0  0  0  0  0  0  0  0  0  0  0
   13.6011   -5.9652    3.3751 C   0  0  0  0  0  0  0  0  0  0  0  0
   13.4329   -6.1811    4.7551 C   0  0  0  0  0  0  0  0  0  0  0  0
   14.4691   -6.6955    5.5525 C   0  0  0  0  0  0  0  0  0  0  0  0
   15.6471   -7.1303    4.9603 C   0  0  0  0  0  0  0  0  0  0  0  0
   15.7896   -7.0609    3.5811 C   0  0  0  0  0  0  0  0  0  0  0  0
   14.7854   -6.4626    2.8030 C   0  0  0  0  0  0  0  0  0  0  0  0
   16.9301   -7.7369    5.9311 Cl  0  0  0  0  0  0  0  0  0  0  0  0
   11.8345   -4.1000    2.9888 N   0  0  0  0  0  0  0  0  0  0  0  0
   11.8495   -3.4139    4.2403 C   0  0  0  0  0  0  0  0  0  0  0  0
   13.0684   -3.2423    4.9315 C   0  0  0  0  0  0  0  0  0  0  0  0
   13.0965   -2.7603    6.2434 C   0  0  0  0  0  0  0  0  0  0  0  0
   11.9133   -2.3567    6.8492 C   0  0  0  0  0  0  0  0  0  0  0  0
   10.7117   -2.4180    6.1519 C   0  0  0  0  0  0  0  0  0  0  0  0
   10.6708   -2.9451    4.8529 C   0  0  0  0  0  0  0  0  0  0  0  0
    9.0824   -3.0900    4.1709 Cl  0  0  0  0  0  0  0  0  0  0  0  0
   11.9322   -1.8029    8.4784 Cl  0  0  0  0  0  0  0  0  0  0  0  0
   11.0008   -3.6502    2.0075 N   0  0  0  0  0  0  0  0  0  0  0  0
   12.6773   -6.4857    0.2971 C   0  0  0  0  0  0  0  0  0  0  0  0
    9.8220    3.6622   -2.6088 H   0  0  0  0  0  0  0  0  0  0  0  0
    9.3304    2.0017   -2.2464 H   0  0  0  0  0  0  0  0  0  0  0  0
    8.1316    3.1767   -2.8241 H   0  0  0  0  0  0  0  0  0  0  0  0
   10.5311    2.1653   -4.4432 H   0  0  0  0  0  0  0  0  0  0  0  0
    9.3408    3.3398   -5.0041 H   0  0  0  0  0  0  0  0  0  0  0  0
    8.8108    1.1416   -5.9365 H   0  0  0  0  0  0  0  0  0  0  0  0
    7.5300    1.6173   -4.8159 H   0  0  0  0  0  0  0  0  0  0  0  0
    9.7451   -0.1687   -3.9870 H   0  0  0  0  0  0  0  0  0  0  0  0
    8.1608   -4.1139   -4.4078 H   0  0  0  0  0  0  0  0  0  0  0  0
    6.7822   -3.1485   -4.9216 H   0  0  0  0  0  0  0  0  0  0  0  0
    6.0954   -4.6835   -3.1163 H   0  0  0  0  0  0  0  0  0  0  0  0
    5.9454   -3.0052   -2.5916 H   0  0  0  0  0  0  0  0  0  0  0  0
    8.1695   -4.9740   -1.9031 H   0  0  0  0  0  0  0  0  0  0  0  0
    6.9835   -4.3003   -0.7976 H   0  0  0  0  0  0  0  0  0  0  0  0
    7.9144   -2.0806   -0.9644 H   0  0  0  0  0  0  0  0  0  0  0  0
    9.7231   -1.4059   -2.4051 H   0  0  0  0  0  0  0  0  0  0  0  0
    9.9714   -3.0346   -3.0263 H   0  0  0  0  0  0  0  0  0  0  0  0
    9.3655   -2.7862    0.6338 H   0  0  0  0  0  0  0  0  0  0  0  0
   12.5158   -5.8884    5.2627 H   0  0  0  0  0  0  0  0  0  0  0  0
   14.3524   -6.7349    6.6334 H   0  0  0  0  0  0  0  0  0  0  0  0
   16.6897   -7.4398    3.1029 H   0  0  0  0  0  0  0  0  0  0  0  0
   14.9748   -6.3756    1.7383 H   0  0  0  0  0  0  0  0  0  0  0  0
   14.0229   -3.5212    4.4762 H   0  0  0  0  0  0  0  0  0  0  0  0
   14.0366   -2.7203    6.7888 H   0  0  0  0  0  0  0  0  0  0  0  0
    9.7949   -2.0880    6.6350 H   0  0  0  0  0  0  0  0  0  0  0  0
   12.0839   -6.5497   -0.6156 H   0  0  0  0  0  0  0  0  0  0  0  0
   12.6204   -7.4666    0.7803 H   0  0  0  0  0  0  0  0  0  0  0  0
   13.7096   -6.2999   -0.0133 H   0  0  0  0  0  0  0  0  0  0  0  0
  1  2  1  0  0  0  0
  1 37  1  0  0  0  0
  1 38  1  0  0  0  0
  1 39  1  0  0  0  0
  2  3  1  0  0  0  0
  2 40  1  0  0  0  0
  2 41  1  0  0  0  0
  3  4  1  0  0  0  0
  3 42  1  0  0  0  0
  3 43  1  0  0  0  0
  4  5  1  0  0  0  0
  4 44  1  0  0  0  0
  5  6  2  0  0  0  0
  5  7  1  0  0  0  0
  7 12  1  0  0  0  0
  7  8  1  0  0  0  0
  8  9  1  0  0  0  0
  8 45  1  0  0  0  0
  8 46  1  0  0  0  0
  9 10  1  0  0  0  0
  9 47  1  0  0  0  0
  9 48  1  0  0  0  0
 10 11  1  0  0  0  0
 10 49  1  0  0  0  0
 10 50  1  0  0  0  0
 11 12  1  0  0  0  0
 11 13  1  0  0  0  0
 11 51  1  1  0  0  0
 12 52  1  0  0  0  0
 12 53  1  0  0  0  0
 13 14  1  0  0  0  0
 13 54  1  0  0  0  0
 14 15  2  0  0  0  0
 14 16  1  0  0  0  0
 16 35  2  0  0  0  0
 16 17  1  0  0  0  0
 17 18  2  0  0  0  0
 17 36  1  0  0  0  0
 18 19  1  0  0  0  0
 18 26  1  0  0  0  0
 19 24  2  0  0  0  0
 19 20  1  0  0  0  0
 20 21  2  0  0  0  0
 20 55  1  0  0  0  0
 21 22  1  0  0  0  0
 21 56  1  0  0  0  0
 22 23  2  0  0  0  0
 22 25  1  0  0  0  0
 23 24  1  0  0  0  0
 23 57  1  0  0  0  0
 24 58  1  0  0  0  0
 26 27  1  0  0  0  0
 26 35  1  0  0  0  0
 27 32  2  0  0  0  0
 27 28  1  0  0  0  0
 28 29  2  0  0  0  0
 28 59  1  0  0  0  0
 29 30  1  0  0  0  0
 29 60  1  0  0  0  0
 30 31  2  0  0  0  0
 30 34  1  0  0  0  0
 31 32  1  0  0  0  0
 31 61  1  0  0  0  0
 32 33  1  0  0  0  0
 36 62  1  0  0  0  0
 36 63  1  0  0  0  0
 36 64  1  0  0  0  0
M  END
$$$$
CHEMBL181096
 OpenBabel12022417383D

 55 58  0  0  0  0  0  0  0  0999 V2000
    2.2066    0.1631    0.1360 C   0  0  0  0  0  0  0  0  0  0  0  0
    0.7697    0.0561    0.0452 N   0  0  0  0  0  0  0  0  0  0  0  0
   -0.0638    1.1636    0.0094 C   0  0  0  0  0  0  0  0  0  0  0  0
    0.3406    2.5799    0.0729 C   0  0  0  0  0  0  0  0  0  0  0  0
    1.5159    2.9537    0.1046 O   0  0  0  0  0  0  0  0  0  0  0  0
   -0.7153    3.4623    0.0874 N   0  0  0  0  0  0  0  0  0  0  0  0
   -0.6488    4.9291    0.1650 C   0  0  0  0  0  0  0  0  0  0  0  0
   -0.2282    5.4443    1.5542 C   0  0  0  0  0  0  0  0  0  0  0  0
    1.1241    6.1593    1.6608 C   0  0  0  0  0  0  0  0  0  0  0  0
    1.0951    7.6156    1.1942 C   0  0  0  0  0  0  0  0  0  0  0  0
    1.0670    7.8230   -0.3170 C   0  0  0  0  0  0  0  0  0  0  0  0
   -0.0467    7.0902   -1.0593 C   0  0  0  0  0  0  0  0  0  0  0  0
    0.0866    5.5640   -1.0247 C   0  0  0  0  0  0  0  0  0  0  0  0
   -1.3238    0.7721   -0.0824 N   0  0  0  0  0  0  0  0  0  0  0  0
   -1.3174   -0.6102   -0.0709 C   0  0  0  0  0  0  0  0  0  0  0  0
   -2.5632   -1.3907   -0.1493 C   0  0  0  0  0  0  0  0  0  0  0  0
   -2.6017   -2.5755   -0.9128 C   0  0  0  0  0  0  0  0  0  0  0  0
   -3.7323   -3.4003   -0.9344 C   0  0  0  0  0  0  0  0  0  0  0  0
   -4.8751   -3.0183   -0.2457 C   0  0  0  0  0  0  0  0  0  0  0  0
   -4.8936   -1.8242    0.4666 C   0  0  0  0  0  0  0  0  0  0  0  0
   -3.7443   -1.0174    0.5254 C   0  0  0  0  0  0  0  0  0  0  0  0
   -3.8767    0.4082    1.5020 Cl  0  0  0  0  0  0  0  0  0  0  0  0
   -6.2677   -4.0274   -0.2724 Cl  0  0  0  0  0  0  0  0  0  0  0  0
   -0.0054   -1.1027    0.0036 C   0  0  0  0  0  0  0  0  0  0  0  0
    0.5163   -2.4952    0.0500 C   0  0  0  0  0  0  0  0  0  0  0  0
    1.6178   -2.8974   -0.7220 C   0  0  0  0  0  0  0  0  0  0  0  0
    2.0850   -4.2202   -0.6981 C   0  0  0  0  0  0  0  0  0  0  0  0
    1.4080   -5.1822    0.0427 C   0  0  0  0  0  0  0  0  0  0  0  0
    0.2912   -4.8237    0.7881 C   0  0  0  0  0  0  0  0  0  0  0  0
   -0.1272   -3.4845    0.8190 C   0  0  0  0  0  0  0  0  0  0  0  0
    1.9421   -6.8170    0.0208 Cl  0  0  0  0  0  0  0  0  0  0  0  0
    2.6686   -0.8052    0.3273 H   0  0  0  0  0  0  0  0  0  0  0  0
    2.4648    0.8171    0.9699 H   0  0  0  0  0  0  0  0  0  0  0  0
    2.5750    0.5667   -0.8122 H   0  0  0  0  0  0  0  0  0  0  0  0
   -1.6287    3.0163    0.1066 H   0  0  0  0  0  0  0  0  0  0  0  0
   -1.7055    5.2107    0.0544 H   0  0  0  0  0  0  0  0  0  0  0  0
   -0.2417    4.6182    2.2744 H   0  0  0  0  0  0  0  0  0  0  0  0
   -1.0010    6.1442    1.9049 H   0  0  0  0  0  0  0  0  0  0  0  0
    1.9165    5.5996    1.1540 H   0  0  0  0  0  0  0  0  0  0  0  0
    1.3975    6.1777    2.7249 H   0  0  0  0  0  0  0  0  0  0  0  0
    1.9934    8.1189    1.5780 H   0  0  0  0  0  0  0  0  0  0  0  0
    0.2448    8.1394    1.6505 H   0  0  0  0  0  0  0  0  0  0  0  0
    2.0377    7.5386   -0.7410 H   0  0  0  0  0  0  0  0  0  0  0  0
    0.9589    8.8992   -0.5089 H   0  0  0  0  0  0  0  0  0  0  0  0
   -0.0041    7.4121   -2.1077 H   0  0  0  0  0  0  0  0  0  0  0  0
   -1.0261    7.4073   -0.6812 H   0  0  0  0  0  0  0  0  0  0  0  0
   -0.3519    5.1630   -1.9477 H   0  0  0  0  0  0  0  0  0  0  0  0
    1.1431    5.2717   -1.0501 H   0  0  0  0  0  0  0  0  0  0  0  0
   -1.7337   -2.8934   -1.4868 H   0  0  0  0  0  0  0  0  0  0  0  0
   -3.7064   -4.3370   -1.4864 H   0  0  0  0  0  0  0  0  0  0  0  0
   -5.7984   -1.5254    0.9906 H   0  0  0  0  0  0  0  0  0  0  0  0
    2.1348   -2.1906   -1.3652 H   0  0  0  0  0  0  0  0  0  0  0  0
    2.9660   -4.4918   -1.2747 H   0  0  0  0  0  0  0  0  0  0  0  0
   -0.2634   -5.5768    1.3428 H   0  0  0  0  0  0  0  0  0  0  0  0
   -0.9944   -3.2376    1.4283 H   0  0  0  0  0  0  0  0  0  0  0  0
  1  2  1  0  0  0  0
  1 32  1  0  0  0  0
  1 33  1  0  0  0  0
  1 34  1  0  0  0  0
  2 24  1  0  0  0  0
  2  3  1  0  0  0  0
  3  4  1  0  0  0  0
  3 14  2  0  0  0  0
  4  5  2  0  0  0  0
  4  6  1  0  0  0  0
  6  7  1  0  0  0  0
  6 35  1  0  0  0  0
  7 13  1  0  0  0  0
  7  8  1  0  0  0  0
  7 36  1  0  0  0  0
  8  9  1  0  0  0  0
  8 37  1  0  0  0  0
  8 38  1  0  0  0  0
  9 10  1  0  0  0  0
  9 39  1  0  0  0  0
  9 40  1  0  0  0  0
 10 11  1  0  0  0  0
 10 41  1  0  0  0  0
 10 42  1  0  0  0  0
 11 12  1  0  0  0  0
 11 43  1  0  0  0  0
 11 44  1  0  0  0  0
 12 13  1  0  0  0  0
 12 45  1  0  0  0  0
 12 46  1  0  0  0  0
 13 47  1  0  0  0  0
 13 48  1  0  0  0  0
 14 15  1  0  0  0  0
 15 16  1  0  0  0  0
 15 24  2  0  0  0  0
 16 21  2  0  0  0  0
 16 17  1  0  0  0  0
 17 18  2  0  0  0  0
 17 49  1  0  0  0  0
 18 19  1  0  0  0  0
 18 50  1  0  0  0  0
 19 20  2  0  0  0  0
 19 23  1  0  0  0  0
 20 21  1  0  0  0  0
 20 51  1  0  0  0  0
 21 22  1  0  0  0  0
 24 25  1  0  0  0  0
 25 30  2  0  0  0  0
 25 26  1  0  0  0  0
 26 27  2  0  0  0  0
 26 52  1  0  0  0  0
 27 28  1  0  0  0  0
 27 53  1  0  0  0  0
 28 29  2  0  0  0  0
 28 31  1  0  0  0  0
 29 30  1  0  0  0  0
 29 54  1  0  0  0  0
 30 55  1  0  0  0  0
M  END
$$$$
CHEMBL1269767
 OpenBabel12022417383D

126131  0  0  0  0  0  0  0  0999 V2000
    2.9084    0.2640    3.5715 C   0  0  0  0  0  0  0  0  0  0  0  0
    2.8291   -0.0248    2.1090 C   0  0  0  0  0  0  0  0  0  0  0  0
    2.5844    0.9589    1.0985 C   0  0  0  0  0  0  0  0  0  0  0  0
    2.3127    2.4095    1.2842 C   0  0  0  0  0  0  0  0  0  0  0  0
    2.2156    2.9297    2.3928 O   0  0  0  0  0  0  0  0  0  0  0  0
    2.1769    3.1357    0.1141 N   0  0  0  0  0  0  0  0  0  0  0  0
    1.9240    4.5722    0.0840 C   0  0  0  0  0  0  0  0  0  0  0  0
    0.4263    4.9083    0.0758 C   0  0  0  0  0  0  0  0  0  0  0  0
    0.1512    6.4233    0.0701 C   0  0  0  0  0  0  0  0  0  0  0  0
   -1.3572    6.7266    0.0709 C   0  0  0  0  0  0  0  0  0  0  0  0
   -1.6584    8.2323    0.0742 C   0  0  0  0  0  0  0  0  0  0  0  0
   -3.1691    8.5106    0.0780 C   0  0  0  0  0  0  0  0  0  0  0  0
   -3.4710   10.0134    0.0823 C   0  0  0  0  0  0  0  0  0  0  0  0
   -4.9788   10.2958    0.0870 C   0  0  0  0  0  0  0  0  0  0  0  0
   -5.2571   11.8030    0.0894 C   0  0  0  0  0  0  0  0  0  0  0  0
   -6.6999   12.0567    0.0887 N   0  0  0  0  0  0  0  0  0  0  0  0
   -6.9774   13.4955    0.0956 C   0  0  0  0  0  0  0  0  0  0  0  0
   -8.4891   13.7481    0.1011 C   0  0  0  0  0  0  0  0  0  0  0  0
   -8.7994   15.2505    0.1012 C   0  0  0  0  0  0  0  0  0  0  0  0
  -10.3080   15.5222    0.1063 C   0  0  0  0  0  0  0  0  0  0  0  0
  -10.6184   17.0263    0.1049 C   0  0  0  0  0  0  0  0  0  0  0  0
  -12.1305   17.2940    0.1091 C   0  0  0  0  0  0  0  0  0  0  0  0
  -12.4645   18.7934    0.1059 C   0  0  0  0  0  0  0  0  0  0  0  0
  -13.9835   19.0392    0.1164 C   0  0  0  0  0  0  0  0  0  0  0  0
  -14.3397   20.5301    0.1082 C   0  0  0  0  0  0  0  0  0  0  0  0
  -15.7737   20.7630    0.1592 N   0  0  0  0  0  0  0  0  0  0  0  0
  -16.4611   20.9619    1.3447 C   0  0  0  0  0  0  0  0  0  0  0  0
  -15.8857   20.9122    2.4377 O   0  0  0  0  0  0  0  0  0  0  0  0
  -17.9194   21.2329    1.1969 C   0  0  0  0  0  0  0  0  0  0  0  0
  -18.8946   21.4290    2.2265 C   0  0  0  0  0  0  0  0  0  0  0  0
  -20.1230   21.6256    1.5715 C   0  0  0  0  0  0  0  0  0  0  0  0
  -21.4856   21.8076    2.1605 C   0  0  0  0  0  0  0  0  0  0  0  0
  -22.6446   21.2998    1.5459 C   0  0  0  0  0  0  0  0  0  0  0  0
  -23.9278   21.6750    1.9708 C   0  0  0  0  0  0  0  0  0  0  0  0
  -24.0786   22.4455    3.1151 C   0  0  0  0  0  0  0  0  0  0  0  0
  -22.9563   22.8454    3.8277 C   0  0  0  0  0  0  0  0  0  0  0  0
  -21.6744   22.5513    3.3376 C   0  0  0  0  0  0  0  0  0  0  0  0
  -25.6475   22.9085    3.6426 Cl  0  0  0  0  0  0  0  0  0  0  0  0
  -19.8082   21.5641    0.1968 N   0  0  0  0  0  0  0  0  0  0  0  0
  -20.6642   21.7487   -0.9403 C   0  0  0  0  0  0  0  0  0  0  0  0
  -21.7217   22.6776   -0.8713 C   0  0  0  0  0  0  0  0  0  0  0  0
  -22.6994   22.7311   -1.8697 C   0  0  0  0  0  0  0  0  0  0  0  0
  -22.5743   21.9307   -2.9971 C   0  0  0  0  0  0  0  0  0  0  0  0
  -21.4827   21.0784   -3.1331 C   0  0  0  0  0  0  0  0  0  0  0  0
  -20.5284   20.9734   -2.1085 C   0  0  0  0  0  0  0  0  0  0  0  0
  -19.3261   19.7501   -2.3530 Cl  0  0  0  0  0  0  0  0  0  0  0  0
  -23.7793   21.9847   -4.2225 Cl  0  0  0  0  0  0  0  0  0  0  0  0
  -18.4878   21.3234   -0.0141 N   0  0  0  0  0  0  0  0  0  0  0  0
  -18.6438   21.3825    3.6936 C   0  0  0  0  0  0  0  0  0  0  0  0
    2.6343    0.4063   -0.1248 N   0  0  0  0  0  0  0  0  0  0  0  0
    2.8460   -0.9180    0.0806 N   0  0  0  0  0  0  0  0  0  0  0  0
    2.7578   -1.8026   -1.0371 C   0  0  0  0  0  0  0  0  0  0  0  0
    2.0308   -3.0022   -0.9061 C   0  0  0  0  0  0  0  0  0  0  0  0
    1.9107   -3.8771   -1.9882 C   0  0  0  0  0  0  0  0  0  0  0  0
    2.4957   -3.5517   -3.2082 C   0  0  0  0  0  0  0  0  0  0  0  0
    3.2329   -2.3784   -3.3474 C   0  0  0  0  0  0  0  0  0  0  0  0
    3.3740   -1.5026   -2.2637 C   0  0  0  0  0  0  0  0  0  0  0  0
    4.4638   -0.1766   -2.4930 Cl  0  0  0  0  0  0  0  0  0  0  0  0
    2.3141   -4.6116   -4.5505 Cl  0  0  0  0  0  0  0  0  0  0  0  0
    3.0059   -1.2382    1.4367 C   0  0  0  0  0  0  0  0  0  0  0  0
    3.3934   -2.5727    1.9660 C   0  0  0  0  0  0  0  0  0  0  0  0
    4.2614   -3.4252    1.2581 C   0  0  0  0  0  0  0  0  0  0  0  0
    4.5885   -4.7004    1.7362 C   0  0  0  0  0  0  0  0  0  0  0  0
    4.1264   -5.1109    2.9798 C   0  0  0  0  0  0  0  0  0  0  0  0
    3.3051   -4.2735    3.7254 C   0  0  0  0  0  0  0  0  0  0  0  0
    2.9147   -3.0318    3.2042 C   0  0  0  0  0  0  0  0  0  0  0  0
    4.5733   -6.6527    3.5948 Cl  0  0  0  0  0  0  0  0  0  0  0  0
    3.2707   -0.5822    4.1529 H   0  0  0  0  0  0  0  0  0  0  0  0
    1.9204    0.5390    3.9531 H   0  0  0  0  0  0  0  0  0  0  0  0
    3.6045    1.0896    3.7651 H   0  0  0  0  0  0  0  0  0  0  0  0
    2.2753    2.6087   -0.7484 H   0  0  0  0  0  0  0  0  0  0  0  0
    2.4044    4.9647   -0.8183 H   0  0  0  0  0  0  0  0  0  0  0  0
    2.4068    5.0343    0.9525 H   0  0  0  0  0  0  0  0  0  0  0  0
   -0.0520    4.4576    0.9531 H   0  0  0  0  0  0  0  0  0  0  0  0
   -0.0393    4.4529   -0.8069 H   0  0  0  0  0  0  0  0  0  0  0  0
    0.6131    6.8803   -0.8137 H   0  0  0  0  0  0  0  0  0  0  0  0
    0.6141    6.8851    0.9509 H   0  0  0  0  0  0  0  0  0  0  0  0
   -1.8189    6.2657    0.9526 H   0  0  0  0  0  0  0  0  0  0  0  0
   -1.8197    6.2688   -0.8118 H   0  0  0  0  0  0  0  0  0  0  0  0
   -1.2051    8.6999   -0.8082 H   0  0  0  0  0  0  0  0  0  0  0  0
   -1.2017    8.6965    0.9568 H   0  0  0  0  0  0  0  0  0  0  0  0
   -3.6256    8.0456    0.9602 H   0  0  0  0  0  0  0  0  0  0  0  0
   -3.6293    8.0498   -0.8045 H   0  0  0  0  0  0  0  0  0  0  0  0
   -3.0167   10.4803   -0.8001 H   0  0  0  0  0  0  0  0  0  0  0  0
   -3.0124   10.4762    0.9646 H   0  0  0  0  0  0  0  0  0  0  0  0
   -5.4353    9.8319    0.9705 H   0  0  0  0  0  0  0  0  0  0  0  0
   -5.4409    9.8357   -0.7956 H   0  0  0  0  0  0  0  0  0  0  0  0
   -4.8013   12.2543   -0.8000 H   0  0  0  0  0  0  0  0  0  0  0  0
   -4.7952   12.2566    0.9746 H   0  0  0  0  0  0  0  0  0  0  0  0
   -7.1240   11.6233    0.9087 H   0  0  0  0  0  0  0  0  0  0  0  0
   -6.5377   13.9619   -0.7940 H   0  0  0  0  0  0  0  0  0  0  0  0
   -6.5277   13.9616    0.9807 H   0  0  0  0  0  0  0  0  0  0  0  0
   -8.9406   13.2814    0.9857 H   0  0  0  0  0  0  0  0  0  0  0  0
   -8.9453   13.2799   -0.7803 H   0  0  0  0  0  0  0  0  0  0  0  0
   -8.3466   15.7153   -0.7831 H   0  0  0  0  0  0  0  0  0  0  0  0
   -8.3404   15.7164    0.9817 H   0  0  0  0  0  0  0  0  0  0  0  0
  -10.7581   15.0561    0.9912 H   0  0  0  0  0  0  0  0  0  0  0  0
  -10.7647   15.0531   -0.7735 H   0  0  0  0  0  0  0  0  0  0  0  0
  -10.1654   17.4904   -0.7795 H   0  0  0  0  0  0  0  0  0  0  0  0
  -10.1604   17.4929    0.9855 H   0  0  0  0  0  0  0  0  0  0  0  0
  -12.5769   16.8241    0.9940 H   0  0  0  0  0  0  0  0  0  0  0  0
  -12.5828   16.8195   -0.7705 H   0  0  0  0  0  0  0  0  0  0  0  0
  -12.0214   19.2638   -0.7805 H   0  0  0  0  0  0  0  0  0  0  0  0
  -12.0099   19.2688    0.9839 H   0  0  0  0  0  0  0  0  0  0  0  0
  -14.4227   18.5636    1.0018 H   0  0  0  0  0  0  0  0  0  0  0  0
  -14.4374   18.5570   -0.7581 H   0  0  0  0  0  0  0  0  0  0  0  0
  -13.9666   21.0063   -0.8047 H   0  0  0  0  0  0  0  0  0  0  0  0
  -13.8673   21.0310    0.9615 H   0  0  0  0  0  0  0  0  0  0  0  0
  -16.3319   20.8027   -0.6904 H   0  0  0  0  0  0  0  0  0  0  0  0
  -22.5801   20.6567    0.6711 H   0  0  0  0  0  0  0  0  0  0  0  0
  -24.7977   21.3743    1.3915 H   0  0  0  0  0  0  0  0  0  0  0  0
  -23.0642   23.4134    4.7485 H   0  0  0  0  0  0  0  0  0  0  0  0
  -20.8331   22.9481    3.8951 H   0  0  0  0  0  0  0  0  0  0  0  0
  -21.8318   23.3491   -0.0214 H   0  0  0  0  0  0  0  0  0  0  0  0
  -23.5607   23.3850   -1.7489 H   0  0  0  0  0  0  0  0  0  0  0  0
  -21.3940   20.4609   -4.0244 H   0  0  0  0  0  0  0  0  0  0  0  0
  -17.6210   21.1042    3.9474 H   0  0  0  0  0  0  0  0  0  0  0  0
  -19.3014   20.6489    4.1700 H   0  0  0  0  0  0  0  0  0  0  0  0
  -18.8123   22.3638    4.1450 H   0  0  0  0  0  0  0  0  0  0  0  0
    1.5344   -3.2663    0.0260 H   0  0  0  0  0  0  0  0  0  0  0  0
    1.3533   -4.8041   -1.8738 H   0  0  0  0  0  0  0  0  0  0  0  0
    3.7162   -2.1546   -4.2958 H   0  0  0  0  0  0  0  0  0  0  0  0
    4.6904   -3.1268    0.3050 H   0  0  0  0  0  0  0  0  0  0  0  0
    5.2115   -5.3574    1.1342 H   0  0  0  0  0  0  0  0  0  0  0  0
    2.9578   -4.5789    4.7094 H   0  0  0  0  0  0  0  0  0  0  0  0
    2.2261   -2.4326    3.7947 H   0  0  0  0  0  0  0  0  0  0  0  0
  1  2  1  0  0  0  0
  1 68  1  0  0  0  0
  1 69  1  0  0  0  0
  1 70  1  0  0  0  0
  2 60  2  0  0  0  0
  2  3  1  0  0  0  0
  3  4  1  0  0  0  0
  3 50  2  0  0  0  0
  4  5  2  0  0  0  0
  4  6  1  0  0  0  0
  6  7  1  0  0  0  0
  6 71  1  0  0  0  0
  7  8  1  0  0  0  0
  7 72  1  0  0  0  0
  7 73  1  0  0  0  0
  8  9  1  0  0  0  0
  8 74  1  0  0  0  0
  8 75  1  0  0  0  0
  9 10  1  0  0  0  0
  9 76  1  0  0  0  0
  9 77  1  0  0  0  0
 10 11  1  0  0  0  0
 10 78  1  0  0  0  0
 10 79  1  0  0  0  0
 11 12  1  0  0  0  0
 11 80  1  0  0  0  0
 11 81  1  0  0  0  0
 12 13  1  0  0  0  0
 12 82  1  0  0  0  0
 12 83  1  0  0  0  0
 13 14  1  0  0  0  0
 13 84  1  0  0  0  0
 13 85  1  0  0  0  0
 14 15  1  0  0  0  0
 14 86  1  0  0  0  0
 14 87  1  0  0  0  0
 15 16  1  0  0  0  0
 15 88  1  0  0  0  0
 15 89  1  0  0  0  0
 16 17  1  0  0  0  0
 16 90  1  0  0  0  0
 17 18  1  0  0  0  0
 17 91  1  0  0  0  0
 17 92  1  0  0  0  0
 18 19  1  0  0  0  0
 18 93  1  0  0  0  0
 18 94  1  0  0  0  0
 19 20  1  0  0  0  0
 19 95  1  0  0  0  0
 19 96  1  0  0  0  0
 20 21  1  0  0  0  0
 20 97  1  0  0  0  0
 20 98  1  0  0  0  0
 21 22  1  0  0  0  0
 21 99  1  0  0  0  0
 21100  1  0  0  0  0
 22 23  1  0  0  0  0
 22101  1  0  0  0  0
 22102  1  0  0  0  0
 23 24  1  0  0  0  0
 23103  1  0  0  0  0
 23104  1  0  0  0  0
 24 25  1  0  0  0  0
 24105  1  0  0  0  0
 24106  1  0  0  0  0
 25 26  1  0  0  0  0
 25107  1  0  0  0  0
 25108  1  0  0  0  0
 26 27  1  0  0  0  0
 26109  1  0  0  0  0
 27 28  2  0  0  0  0
 27 29  1  0  0  0  0
 29 48  2  0  0  0  0
 29 30  1  0  0  0  0
 30 31  2  0  0  0  0
 30 49  1  0  0  0  0
 31 32  1  0  0  0  0
 31 39  1  0  0  0  0
 32 37  2  0  0  0  0
 32 33  1  0  0  0  0
 33 34  2  0  0  0  0
 33110  1  0  0  0  0
 34 35  1  0  0  0  0
 34111  1  0  0  0  0
 35 36  2  0  0  0  0
 35 38  1  0  0  0  0
 36 37  1  0  0  0  0
 36112  1  0  0  0  0
 37113  1  0  0  0  0
 39 40  1  0  0  0  0
 39 48  1  0  0  0  0
 40 45  2  0  0  0  0
 40 41  1  0  0  0  0
 41 42  2  0  0  0  0
 41114  1  0  0  0  0
 42 43  1  0  0  0  0
 42115  1  0  0  0  0
 43 44  2  0  0  0  0
 43 47  1  0  0  0  0
 44 45  1  0  0  0  0
 44116  1  0  0  0  0
 45 46  1  0  0  0  0
 49117  1  0  0  0  0
 49118  1  0  0  0  0
 49119  1  0  0  0  0
 50 51  1  0  0  0  0
 51 52  1  0  0  0  0
 51 60  1  0  0  0  0
 52 57  2  0  0  0  0
 52 53  1  0  0  0  0
 53 54  2  0  0  0  0
 53120  1  0  0  0  0
 54 55  1  0  0  0  0
 54121  1  0  0  0  0
 55 56  2  0  0  0  0
 55 59  1  0  0  0  0
 56 57  1  0  0  0  0
 56122  1  0  0  0  0
 57 58  1  0  0  0  0
 60 61  1  0  0  0  0
 61 66  2  0  0  0  0
 61 62  1  0  0  0  0
 62 63  2  0  0  0  0
 62123  1  0  0  0  0
 63 64  1  0  0  0  0
 63124  1  0  0  0  0
 64 65  2  0  0  0  0
 64 67  1  0  0  0  0
 65 66  1  0  0  0  0
 65125  1  0  0  0  0
 66126  1  0  0  0  0
M  END
$$$$
CHEMBL1909957
 OpenBabel12022417383D

 59 62  0  0  0  0  0  0  0  0999 V2000
    0.8259   -0.1529   -0.3007 C   0  0  0  0  0  0  0  0  0  0  0  0
    2.2857    0.1045   -0.0086 C   0  0  0  0  0  0  0  0  0  0  0  0
    2.8952    1.4826   -0.0081 C   0  0  0  0  0  0  0  0  0  0  0  0
    2.2688    2.7818   -0.1704 C   0  0  0  0  0  0  0  0  0  0  0  0
    0.8802    3.1878   -0.5665 C   0  0  0  0  0  0  0  0  0  0  0  0
   -0.0026    2.4040   -0.9039 O   0  0  0  0  0  0  0  0  0  0  0  0
    0.6856    4.5636   -0.5733 N   0  0  0  0  0  0  0  0  0  0  0  0
   -0.5429    5.2335   -0.9996 C   0  0  0  0  0  0  0  0  0  0  0  0
   -0.7441    6.5145   -0.1739 C   0  0  0  0  0  0  0  0  0  0  0  0
   -1.9074    7.3783   -0.6584 C   0  0  0  0  0  0  0  0  0  0  0  0
   -1.7999    7.6851   -2.1467 C   0  0  0  0  0  0  0  0  0  0  0  0
   -1.7082    6.3966   -2.9560 C   0  0  0  0  0  0  0  0  0  0  0  0
   -0.5245    5.5333   -2.5096 C   0  0  0  0  0  0  0  0  0  0  0  0
    3.1470    3.7587    0.1310 N   0  0  0  0  0  0  0  0  0  0  0  0
    4.3575    3.1604    0.2300 N   0  0  0  0  0  0  0  0  0  0  0  0
    5.4992    4.0084    0.1715 C   0  0  0  0  0  0  0  0  0  0  0  0
    6.6575    3.6224   -0.5090 C   0  0  0  0  0  0  0  0  0  0  0  0
    7.7821    4.4544   -0.4927 C   0  0  0  0  0  0  0  0  0  0  0  0
    7.7569    5.6691    0.2017 C   0  0  0  0  0  0  0  0  0  0  0  0
    6.5971    6.0598    0.8798 C   0  0  0  0  0  0  0  0  0  0  0  0
    5.4609    5.2434    0.8456 C   0  0  0  0  0  0  0  0  0  0  0  0
    6.5179    7.5123    1.8138 Cl  0  0  0  0  0  0  0  0  0  0  0  0
    9.1904    6.6331    0.1837 Cl  0  0  0  0  0  0  0  0  0  0  0  0
    4.2532    1.7778    0.2496 C   0  0  0  0  0  0  0  0  0  0  0  0
    5.3424    0.8984    0.5458 N   0  0  0  0  0  0  0  0  0  0  0  0
    5.6454   -0.3340   -0.0670 C   0  0  0  0  0  0  0  0  0  0  0  0
    4.9785   -0.9603   -1.2366 C   0  0  0  0  0  0  0  0  0  0  0  0
    6.7703   -0.8786    0.5201 C   0  0  0  0  0  0  0  0  0  0  0  0
    7.2540    0.0371    1.4484 C   0  0  0  0  0  0  0  0  0  0  0  0
    6.3750    1.1016    1.4914 C   0  0  0  0  0  0  0  0  0  0  0  0
    6.5246    2.2344    2.4541 C   0  0  0  0  0  0  0  0  0  0  0  0
    0.6442   -1.2348   -0.2537 H   0  0  0  0  0  0  0  0  0  0  0  0
    0.5712    0.1465   -1.3225 H   0  0  0  0  0  0  0  0  0  0  0  0
    0.1562    0.3216    0.4178 H   0  0  0  0  0  0  0  0  0  0  0  0
    2.7633   -0.4558   -0.7980 H   0  0  0  0  0  0  0  0  0  0  0  0
    2.5373   -0.3769    0.9443 H   0  0  0  0  0  0  0  0  0  0  0  0
    1.5248    5.1055   -0.3758 H   0  0  0  0  0  0  0  0  0  0  0  0
   -1.3839    4.5559   -0.8010 H   0  0  0  0  0  0  0  0  0  0  0  0
    0.1734    7.1161   -0.1990 H   0  0  0  0  0  0  0  0  0  0  0  0
   -0.9094    6.2486    0.8773 H   0  0  0  0  0  0  0  0  0  0  0  0
   -1.9283    8.3170   -0.0918 H   0  0  0  0  0  0  0  0  0  0  0  0
   -2.8576    6.8675   -0.4598 H   0  0  0  0  0  0  0  0  0  0  0  0
   -0.9146    8.3054   -2.3349 H   0  0  0  0  0  0  0  0  0  0  0  0
   -2.6709    8.2681   -2.4689 H   0  0  0  0  0  0  0  0  0  0  0  0
   -1.6109    6.6419   -4.0203 H   0  0  0  0  0  0  0  0  0  0  0  0
   -2.6427    5.8318   -2.8458 H   0  0  0  0  0  0  0  0  0  0  0  0
   -0.5307    4.5949   -3.0776 H   0  0  0  0  0  0  0  0  0  0  0  0
    0.4075    6.0489   -2.7744 H   0  0  0  0  0  0  0  0  0  0  0  0
    6.7109    2.6845   -1.0583 H   0  0  0  0  0  0  0  0  0  0  0  0
    8.6837    4.1408   -1.0146 H   0  0  0  0  0  0  0  0  0  0  0  0
    4.5731    5.5393    1.4028 H   0  0  0  0  0  0  0  0  0  0  0  0
    4.4767   -0.2314   -1.8787 H   0  0  0  0  0  0  0  0  0  0  0  0
    4.2887   -1.7479   -0.9062 H   0  0  0  0  0  0  0  0  0  0  0  0
    5.7170   -1.4620   -1.8731 H   0  0  0  0  0  0  0  0  0  0  0  0
    7.2224   -1.8252    0.2484 H   0  0  0  0  0  0  0  0  0  0  0  0
    8.1467   -0.0674    2.0537 H   0  0  0  0  0  0  0  0  0  0  0  0
    5.6211    2.8257    2.5906 H   0  0  0  0  0  0  0  0  0  0  0  0
    7.3520    2.8813    2.1394 H   0  0  0  0  0  0  0  0  0  0  0  0
    6.8008    1.8468    3.4409 H   0  0  0  0  0  0  0  0  0  0  0  0
  1  2  1  0  0  0  0
  1 32  1  0  0  0  0
  1 33  1  0  0  0  0
  1 34  1  0  0  0  0
  2  3  1  0  0  0  0
  2 35  1  0  0  0  0
  2 36  1  0  0  0  0
  3 24  2  0  0  0  0
  3  4  1  0  0  0  0
  4  5  1  0  0  0  0
  4 14  2  0  0  0  0
  5  6  2  0  0  0  0
  5  7  1  0  0  0  0
  7  8  1  0  0  0  0
  7 37  1  0  0  0  0
  8 13  1  0  0  0  0
  8  9  1  0  0  0  0
  8 38  1  0  0  0  0
  9 10  1  0  0  0  0
  9 39  1  0  0  0  0
  9 40  1  0  0  0  0
 10 11  1  0  0  0  0
 10 41  1  0  0  0  0
 10 42  1  0  0  0  0
 11 12  1  0  0  0  0
 11 43  1  0  0  0  0
 11 44  1  0  0  0  0
 12 13  1  0  0  0  0
 12 45  1  0  0  0  0
 12 46  1  0  0  0  0
 13 47  1  0  0  0  0
 13 48  1  0  0  0  0
 14 15  1  0  0  0  0
 15 16  1  0  0  0  0
 15 24  1  0  0  0  0
 16 21  2  0  0  0  0
 16 17  1  0  0  0  0
 17 18  2  0  0  0  0
 17 49  1  0  0  0  0
 18 19  1  0  0  0  0
 18 50  1  0  0  0  0
 19 20  2  0  0  0  0
 19 23  1  0  0  0  0
 20 21  1  0  0  0  0
 20 22  1  0  0  0  0
 21 51  1  0  0  0  0
 24 25  1  0  0  0  0
 25 30  1  0  0  0  0
 25 26  1  0  0  0  0
 26 27  1  0  0  0  0
 26 28  2  0  0  0  0
 27 52  1  0  0  0  0
 27 53  1  0  0  0  0
 27 54  1  0  0  0  0
 28 29  1  0  0  0  0
 28 55  1  0  0  0  0
 29 30  2  0  0  0  0
 29 56  1  0  0  0  0
 30 31  1  0  0  0  0
 31 57  1  0  0  0  0
 31 58  1  0  0  0  0
 31 59  1  0  0  0  0
M  END
$$$$
CHEMBL1088220
 OpenBabel12022417383D

 48 51  0  0  0  0  0  0  0  0999 V2000
    2.8425   -0.5934    1.3541 O   0  0  0  0  0  0  0  0  0  0  0  0
    2.4917   -0.6446    0.1829 C   0  0  0  0  0  0  0  0  0  0  0  0
    3.1318   -1.5196   -0.8220 C   0  0  0  0  0  0  0  0  0  0  0  0
    4.0770   -2.5234   -0.6471 C   0  0  0  0  0  0  0  0  0  0  0  0
    4.4562   -2.9311   -1.9248 N   0  0  0  0  0  0  0  0  0  0  0  0
    3.5055   -2.3557   -2.7951 C   0  0  0  0  0  0  0  0  0  0  0  0
    3.2174   -2.8006   -4.1779 C   0  0  0  0  0  0  0  0  0  0  0  0
    3.1955   -4.1822   -4.4652 C   0  0  0  0  0  0  0  0  0  0  0  0
    2.9360   -4.6567   -5.7518 C   0  0  0  0  0  0  0  0  0  0  0  0
    2.6427   -3.7563   -6.7680 C   0  0  0  0  0  0  0  0  0  0  0  0
    2.6192   -2.3917   -6.5121 C   0  0  0  0  0  0  0  0  0  0  0  0
    2.9114   -1.9108   -5.2269 C   0  0  0  0  0  0  0  0  0  0  0  0
    2.9150   -0.1925   -5.0241 Cl  0  0  0  0  0  0  0  0  0  0  0  0
    2.3049   -4.3435   -8.3503 Cl  0  0  0  0  0  0  0  0  0  0  0  0
    2.7863   -1.4483   -2.1577 N   0  0  0  0  0  0  0  0  0  0  0  0
    5.5575   -3.7627   -2.3310 C   0  0  0  0  0  0  0  0  0  0  0  0
    6.2028   -3.5097   -3.5567 C   0  0  0  0  0  0  0  0  0  0  0  0
    7.2182   -4.3549   -4.0223 C   0  0  0  0  0  0  0  0  0  0  0  0
    7.6247   -5.4387   -3.2528 C   0  0  0  0  0  0  0  0  0  0  0  0
    7.0201   -5.6865   -2.0259 C   0  0  0  0  0  0  0  0  0  0  0  0
    5.9810   -4.8607   -1.5727 C   0  0  0  0  0  0  0  0  0  0  0  0
    8.8606   -6.4869   -3.8273 Cl  0  0  0  0  0  0  0  0  0  0  0  0
    4.8010   -3.1288    1.2001 I   0  0  0  0  0  0  0  0  0  0  0  0
    1.4516    0.1063   -0.3517 N   0  0  0  0  0  0  0  0  0  0  0  0
    0.6099    0.9551    0.4186 N   0  0  0  0  0  0  0  0  0  0  0  0
   -0.1541    0.2202    1.4407 C   0  0  0  0  0  0  0  0  0  0  0  0
   -1.1701    1.1309    2.1383 C   0  0  0  0  0  0  0  0  0  0  0  0
   -0.5352    2.4134    2.6705 C   0  0  0  0  0  0  0  0  0  0  0  0
    0.3361    3.0790    1.6095 C   0  0  0  0  0  0  0  0  0  0  0  0
    1.3365    2.0837    1.0201 C   0  0  0  0  0  0  0  0  0  0  0  0
    3.3917   -4.9160   -3.6843 H   0  0  0  0  0  0  0  0  0  0  0  0
    2.9598   -5.7266   -5.9467 H   0  0  0  0  0  0  0  0  0  0  0  0
    2.3764   -1.6961   -7.3124 H   0  0  0  0  0  0  0  0  0  0  0  0
    5.9423   -2.6524   -4.1737 H   0  0  0  0  0  0  0  0  0  0  0  0
    7.6835   -4.1604   -4.9861 H   0  0  0  0  0  0  0  0  0  0  0  0
    7.3327   -6.5359   -1.4219 H   0  0  0  0  0  0  0  0  0  0  0  0
    5.4917   -5.1612   -0.6541 H   0  0  0  0  0  0  0  0  0  0  0  0
    1.2574   -0.0019   -1.3441 H   0  0  0  0  0  0  0  0  0  0  0  0
    0.5071   -0.2187    2.1978 H   0  0  0  0  0  0  0  0  0  0  0  0
   -0.6990   -0.6069    0.9704 H   0  0  0  0  0  0  0  0  0  0  0  0
   -1.6395    0.5873    2.9673 H   0  0  0  0  0  0  0  0  0  0  0  0
   -1.9703    1.3892    1.4340 H   0  0  0  0  0  0  0  0  0  0  0  0
    0.0778    2.1809    3.5496 H   0  0  0  0  0  0  0  0  0  0  0  0
   -1.3172    3.1069    3.0015 H   0  0  0  0  0  0  0  0  0  0  0  0
    0.8692    3.9297    2.0492 H   0  0  0  0  0  0  0  0  0  0  0  0
   -0.2997    3.4792    0.8093 H   0  0  0  0  0  0  0  0  0  0  0  0
    1.9388    2.5968    0.2611 H   0  0  0  0  0  0  0  0  0  0  0  0
    2.0222    1.7505    1.8097 H   0  0  0  0  0  0  0  0  0  0  0  0
  1  2  2  0  0  0  0
  2  3  1  0  0  0  0
  2 24  1  0  0  0  0
  3 15  1  0  0  0  0
  3  4  2  0  0  0  0
  4  5  1  0  0  0  0
  4 23  1  0  0  0  0
  5  6  1  0  0  0  0
  5 16  1  0  0  0  0
  6  7  1  0  0  0  0
  6 15  2  0  0  0  0
  7 12  2  0  0  0  0
  7  8  1  0  0  0  0
  8  9  2  0  0  0  0
  8 31  1  0  0  0  0
  9 10  1  0  0  0  0
  9 32  1  0  0  0  0
 10 11  2  0  0  0  0
 10 14  1  0  0  0  0
 11 12  1  0  0  0  0
 11 33  1  0  0  0  0
 12 13  1  0  0  0  0
 16 21  2  0  0  0  0
 16 17  1  0  0  0  0
 17 18  2  0  0  0  0
 17 34  1  0  0  0  0
 18 19  1  0  0  0  0
 18 35  1  0  0  0  0
 19 20  2  0  0  0  0
 19 22  1  0  0  0  0
 20 21  1  0  0  0  0
 20 36  1  0  0  0  0
 21 37  1  0  0  0  0
 24 25  1  0  0  0  0
 24 38  1  0  0  0  0
 25 30  1  0  0  0  0
 25 26  1  0  0  0  0
 26 27  1  0  0  0  0
 26 39  1  0  0  0  0
 26 40  1  0  0  0  0
 27 28  1  0  0  0  0
 27 41  1  0  0  0  0
 27 42  1  0  0  0  0
 28 29  1  0  0  0  0
 28 43  1  0  0  0  0
 28 44  1  0  0  0  0
 29 30  1  0  0  0  0
 29 45  1  0  0  0  0
 29 46  1  0  0  0  0
 30 47  1  0  0  0  0
 30 48  1  0  0  0  0
M  END
$$$$
CHEMBL461429
 OpenBabel12022417383D

 66 70  0  0  1  0  0  0  0  0999 V2000
    8.1465    5.0983    3.9313 C   0  0  0  0  0  0  0  0  0  0  0  0
    7.2204    5.9524    3.0781 C   0  0  0  0  0  0  0  0  0  0  0  0
    7.2578    5.5240    1.6081 C   0  0  0  0  0  0  0  0  0  0  0  0
    6.3303    6.3810    0.7420 C   0  0  0  0  0  0  0  0  0  0  0  0
    6.3593    5.9744   -0.6690 C   0  0  0  0  0  0  0  0  0  0  0  0
    6.3900    5.6698   -1.8450 C   0  0  0  0  0  0  0  0  0  0  0  0
    6.4937    5.3424   -3.2213 C   0  0  0  0  0  0  0  0  0  0  0  0
    6.2113    4.1098   -3.7703 C   0  0  0  0  0  0  0  0  0  0  0  0
    6.5754    4.0556   -5.1512 C   0  0  0  0  0  0  0  0  0  0  0  0
    7.0769    5.2534   -5.6491 C   0  0  0  0  0  0  0  0  0  0  0  0
    7.5668    5.5460   -6.9991 C   0  0  0  0  0  0  0  0  0  0  0  0
    8.6050    6.3891   -7.4024 C   0  0  0  0  0  0  0  0  0  0  0  0
    9.4627    7.2787   -6.5719 C   0  0  0  0  0  0  0  0  0  0  0  0
    8.7478    6.1989   -8.8216 C   0  0  0  0  0  0  0  0  0  0  0  0
    9.7273    6.8508   -9.7551 C   0  0  0  0  0  0  0  0  0  0  0  0
   10.5346    7.6905   -9.3449 O   0  0  0  0  0  0  0  0  0  0  0  0
    9.6338    6.4347  -11.0906 N   0  0  0  0  0  0  0  0  0  0  0  0
   10.4449    7.0290  -12.1086 N   0  0  0  0  0  0  0  0  0  0  0  0
   11.6976    6.2879  -12.3463 C   0  0  0  0  0  0  0  0  0  0  0  0
   12.2144    6.8531  -13.6720 C   0  0  2  0  0  0  0  0  0  0  0  0
   13.1286    8.0771  -13.5447 C   0  0  0  0  0  0  0  0  0  0  0  0
   12.7189    8.9782  -14.6977 C   0  0  0  0  0  0  0  0  0  0  0  0
   11.2068    8.8261  -14.7258 C   0  0  0  0  0  0  0  0  0  0  0  0
   10.9548    7.3473  -14.4066 C   0  0  2  0  0  0  0  0  0  0  0  0
    9.8000    7.0802  -13.4326 C   0  0  0  0  0  0  0  0  0  0  0  0
    7.8648    5.2916   -9.2592 N   0  0  0  0  0  0  0  0  0  0  0  0
    7.1327    4.9255   -8.1766 N   0  0  0  0  0  0  0  0  0  0  0  0
    6.0092    4.0610   -8.3701 C   0  0  0  0  0  0  0  0  0  0  0  0
    4.8711    4.2256   -7.5562 C   0  0  0  0  0  0  0  0  0  0  0  0
    3.7822    3.3603   -7.6503 C   0  0  0  0  0  0  0  0  0  0  0  0
    3.7872    2.3749   -8.6242 C   0  0  0  0  0  0  0  0  0  0  0  0
    4.8854    2.2135   -9.4697 C   0  0  0  0  0  0  0  0  0  0  0  0
    6.0067    3.0491   -9.3442 C   0  0  0  0  0  0  0  0  0  0  0  0
    7.3543    2.6245  -10.3428 Cl  0  0  0  0  0  0  0  0  0  0  0  0
    2.4274    1.3356   -8.7773 Cl  0  0  0  0  0  0  0  0  0  0  0  0
    6.9913    6.4490   -4.4148 S   0  0  0  0  0  0  0  0  0  0  0  0
    8.1032    5.4163    4.9780 H   0  0  0  0  0  0  0  0  0  0  0  0
    9.1841    5.1866    3.5940 H   0  0  0  0  0  0  0  0  0  0  0  0
    7.8595    4.0428    3.8867 H   0  0  0  0  0  0  0  0  0  0  0  0
    7.5174    7.0038    3.1695 H   0  0  0  0  0  0  0  0  0  0  0  0
    6.1985    5.8700    3.4661 H   0  0  0  0  0  0  0  0  0  0  0  0
    6.9698    4.4676    1.5285 H   0  0  0  0  0  0  0  0  0  0  0  0
    8.2860    5.6002    1.2323 H   0  0  0  0  0  0  0  0  0  0  0  0
    6.6186    7.4280    0.8194 H   0  0  0  0  0  0  0  0  0  0  0  0
    5.2990    6.3024    1.1149 H   0  0  0  0  0  0  0  0  0  0  0  0
    5.8070    3.2702   -3.2168 H   0  0  0  0  0  0  0  0  0  0  0  0
    6.4426    3.1584   -5.7432 H   0  0  0  0  0  0  0  0  0  0  0  0
    9.2256    7.2375   -5.5093 H   0  0  0  0  0  0  0  0  0  0  0  0
    9.3520    8.3219   -6.8843 H   0  0  0  0  0  0  0  0  0  0  0  0
   10.5122    6.9817   -6.6524 H   0  0  0  0  0  0  0  0  0  0  0  0
    8.9092    5.7562  -11.3183 H   0  0  0  0  0  0  0  0  0  0  0  0
   11.4911    5.2166  -12.4687 H   0  0  0  0  0  0  0  0  0  0  0  0
   12.4159    6.4129  -11.5312 H   0  0  0  0  0  0  0  0  0  0  0  0
   12.7219    6.0760  -14.2571 H   0  0  0  0  0  0  0  0  0  0  0  0
   14.1869    7.8028  -13.6084 H   0  0  0  0  0  0  0  0  0  0  0  0
   12.9766    8.5949  -12.5909 H   0  0  0  0  0  0  0  0  0  0  0  0
   13.1609    8.6292  -15.6388 H   0  0  0  0  0  0  0  0  0  0  0  0
   13.0277   10.0169  -14.5431 H   0  0  0  0  0  0  0  0  0  0  0  0
   10.7969    9.1060  -15.7023 H   0  0  0  0  0  0  0  0  0  0  0  0
   10.7504    9.4815  -13.9756 H   0  0  0  0  0  0  0  0  0  0  0  0
   10.8137    6.7888  -15.3409 H   0  0  0  0  0  0  0  0  0  0  0  0
    9.0247    7.8508  -13.4876 H   0  0  0  0  0  0  0  0  0  0  0  0
    9.3434    6.1130  -13.6807 H   0  0  0  0  0  0  0  0  0  0  0  0
    4.8061    5.0134   -6.8065 H   0  0  0  0  0  0  0  0  0  0  0  0
    2.9455    3.4763   -6.9645 H   0  0  0  0  0  0  0  0  0  0  0  0
    4.8748    1.4311  -10.2159 H   0  0  0  0  0  0  0  0  0  0  0  0
  1  2  1  0  0  0  0
  1 37  1  0  0  0  0
  1 38  1  0  0  0  0
  1 39  1  0  0  0  0
  2  3  1  0  0  0  0
  2 40  1  0  0  0  0
  2 41  1  0  0  0  0
  3  4  1  0  0  0  0
  3 42  1  0  0  0  0
  3 43  1  0  0  0  0
  4  5  1  0  0  0  0
  4 44  1  0  0  0  0
  4 45  1  0  0  0  0
  5  6  3  0  0  0  0
  6  7  1  0  0  0  0
  7 36  1  0  0  0  0
  7  8  2  0  0  0  0
  8  9  1  0  0  0  0
  8 46  1  0  0  0  0
  9 10  2  0  0  0  0
  9 47  1  0  0  0  0
 10 11  1  0  0  0  0
 10 36  1  0  0  0  0
 11 27  1  0  0  0  0
 11 12  2  0  0  0  0
 12 13  1  0  0  0  0
 12 14  1  0  0  0  0
 13 48  1  0  0  0  0
 13 49  1  0  0  0  0
 13 50  1  0  0  0  0
 14 15  1  0  0  0  0
 14 26  2  0  0  0  0
 15 16  2  0  0  0  0
 15 17  1  0  0  0  0
 17 18  1  0  0  0  0
 17 51  1  0  0  0  0
 18 25  1  0  0  0  0
 18 19  1  0  0  0  0
 19 52  1  0  0  0  0
 19 53  1  0  0  0  0
 20 19  1  0  0  0  0
 20 21  1  0  0  0  0
 20 24  1  0  0  0  0
 20 54  1  6  0  0  0
 21 22  1  0  0  0  0
 21 55  1  0  0  0  0
 21 56  1  0  0  0  0
 22 23  1  0  0  0  0
 22 57  1  0  0  0  0
 22 58  1  0  0  0  0
 23 59  1  0  0  0  0
 23 60  1  0  0  0  0
 24 23  1  0  0  0  0
 24 25  1  0  0  0  0
 24 61  1  6  0  0  0
 25 62  1  0  0  0  0
 25 63  1  0  0  0  0
 26 27  1  0  0  0  0
 27 28  1  0  0  0  0
 28 33  2  0  0  0  0
 28 29  1  0  0  0  0
 29 30  2  0  0  0  0
 29 64  1  0  0  0  0
 30 31  1  0  0  0  0
 30 65  1  0  0  0  0
 31 32  2  0  0  0  0
 31 35  1  0  0  0  0
 32 33  1  0  0  0  0
 32 66  1  0  0  0  0
 33 34  1  0  0  0  0
M  END
$$$$
CHEMBL492861
 OpenBabel12022417383D

 63 66  0  0  0  0  0  0  0  0999 V2000
    1.2483    0.4455   -0.0304 C   0  0  0  0  0  0  0  0  0  0  0  0
    2.7174    0.1858   -0.1195 C   0  0  0  0  0  0  0  0  0  0  0  0
    3.7242    1.2010   -0.1226 C   0  0  0  0  0  0  0  0  0  0  0  0
    3.5272    2.6706   -0.1013 C   0  0  0  0  0  0  0  0  0  0  0  0
    2.4170    3.1919   -0.1650 O   0  0  0  0  0  0  0  0  0  0  0  0
    4.7349    3.3712   -0.0052 N   0  0  0  0  0  0  0  0  0  0  0  0
    4.8610    4.7777    0.0726 N   0  0  0  0  0  0  0  0  0  0  0  0
    4.5210    5.4565   -1.1850 C   0  0  0  0  0  0  0  0  0  0  0  0
    4.8758    6.9467   -1.1081 C   0  0  0  0  0  0  0  0  0  0  0  0
    4.2053    7.6230    0.0831 C   0  0  0  0  0  0  0  0  0  0  0  0
    4.4943    6.8504    1.3681 C   0  0  0  0  0  0  0  0  0  0  0  0
    4.1549    5.3649    1.2210 C   0  0  0  0  0  0  0  0  0  0  0  0
    4.9534    0.6605   -0.1219 N   0  0  0  0  0  0  0  0  0  0  0  0
    4.7667   -0.6793   -0.1809 N   0  0  0  0  0  0  0  0  0  0  0  0
    5.8928   -1.5302   -0.3522 C   0  0  0  0  0  0  0  0  0  0  0  0
    5.8431   -2.5565   -1.3135 C   0  0  0  0  0  0  0  0  0  0  0  0
    6.9427   -3.3961   -1.5058 C   0  0  0  0  0  0  0  0  0  0  0  0
    8.0983   -3.2032   -0.7534 C   0  0  0  0  0  0  0  0  0  0  0  0
    8.1559   -2.1986    0.2091 C   0  0  0  0  0  0  0  0  0  0  0  0
    7.0554   -1.3602    0.4186 C   0  0  0  0  0  0  0  0  0  0  0  0
    7.1683   -0.2679    1.7576 Cl  0  0  0  0  0  0  0  0  0  0  0  0
    9.4613   -4.2212   -1.0082 Cl  0  0  0  0  0  0  0  0  0  0  0  0
    3.4137   -1.0200   -0.1608 C   0  0  0  0  0  0  0  0  0  0  0  0
    2.9109   -2.3690   -0.0644 C   0  0  0  0  0  0  0  0  0  0  0  0
    3.4651   -3.4669    0.5793 C   0  0  0  0  0  0  0  0  0  0  0  0
    2.5893   -4.5908    0.6019 C   0  0  0  0  0  0  0  0  0  0  0  0
    1.3793   -4.2751    0.0387 C   0  0  0  0  0  0  0  0  0  0  0  0
    0.2154   -5.0694    0.0895 C   0  0  0  0  0  0  0  0  0  0  0  0
   -0.8429   -5.8279    0.0216 C   0  0  0  0  0  0  0  0  0  0  0  0
   -2.0767   -6.7122   -0.0575 C   0  0  0  0  0  0  0  0  0  0  0  0
   -1.9937   -7.6246   -1.1429 O   0  0  0  0  0  0  0  0  0  0  0  0
   -3.1245   -8.5064   -1.2025 C   0  0  0  0  0  0  0  0  0  0  0  0
   -4.4194   -7.7511   -1.5024 C   0  0  0  0  0  0  0  0  0  0  0  0
   -2.8526   -9.5241   -2.3038 C   0  0  0  0  0  0  0  0  0  0  0  0
    1.4339   -2.8122   -0.8126 S   0  0  0  0  0  0  0  0  0  0  0  0
    0.6465   -0.4510    0.1163 H   0  0  0  0  0  0  0  0  0  0  0  0
    0.8942    0.9374   -0.9427 H   0  0  0  0  0  0  0  0  0  0  0  0
    1.0260    1.0909    0.8249 H   0  0  0  0  0  0  0  0  0  0  0  0
    5.5733    2.7944    0.0518 H   0  0  0  0  0  0  0  0  0  0  0  0
    3.4555    5.3460   -1.4225 H   0  0  0  0  0  0  0  0  0  0  0  0
    5.0878    5.0131   -2.0125 H   0  0  0  0  0  0  0  0  0  0  0  0
    4.5752    7.4499   -2.0342 H   0  0  0  0  0  0  0  0  0  0  0  0
    5.9643    7.0613   -1.0238 H   0  0  0  0  0  0  0  0  0  0  0  0
    3.1225    7.6685   -0.0826 H   0  0  0  0  0  0  0  0  0  0  0  0
    4.5598    8.6551    0.1780 H   0  0  0  0  0  0  0  0  0  0  0  0
    3.9168    7.2830    2.1931 H   0  0  0  0  0  0  0  0  0  0  0  0
    5.5546    6.9625    1.6275 H   0  0  0  0  0  0  0  0  0  0  0  0
    4.4537    4.8502    2.1417 H   0  0  0  0  0  0  0  0  0  0  0  0
    3.0680    5.2557    1.1228 H   0  0  0  0  0  0  0  0  0  0  0  0
    4.9627   -2.7105   -1.9366 H   0  0  0  0  0  0  0  0  0  0  0  0
    6.8932   -4.1916   -2.2459 H   0  0  0  0  0  0  0  0  0  0  0  0
    9.0529   -2.0814    0.8137 H   0  0  0  0  0  0  0  0  0  0  0  0
    4.4310   -3.4713    1.0682 H   0  0  0  0  0  0  0  0  0  0  0  0
    2.8061   -5.5364    1.0840 H   0  0  0  0  0  0  0  0  0  0  0  0
   -2.9285   -6.0388   -0.1938 H   0  0  0  0  0  0  0  0  0  0  0  0
   -2.1913   -7.2507    0.8898 H   0  0  0  0  0  0  0  0  0  0  0  0
   -3.2170   -9.0416   -0.2489 H   0  0  0  0  0  0  0  0  0  0  0  0
   -4.2908   -7.0844   -2.3617 H   0  0  0  0  0  0  0  0  0  0  0  0
   -4.7183   -7.1261   -0.6546 H   0  0  0  0  0  0  0  0  0  0  0  0
   -5.2471   -8.4380   -1.7024 H   0  0  0  0  0  0  0  0  0  0  0  0
   -2.6832   -9.0245   -3.2638 H   0  0  0  0  0  0  0  0  0  0  0  0
   -3.6883  -10.2227   -2.4146 H   0  0  0  0  0  0  0  0  0  0  0  0
   -1.9478  -10.0988   -2.0804 H   0  0  0  0  0  0  0  0  0  0  0  0
  1  2  1  0  0  0  0
  1 36  1  0  0  0  0
  1 37  1  0  0  0  0
  1 38  1  0  0  0  0
  2 23  2  0  0  0  0
  2  3  1  0  0  0  0
  3  4  1  0  0  0  0
  3 13  2  0  0  0  0
  4  5  2  0  0  0  0
  4  6  1  0  0  0  0
  6  7  1  0  0  0  0
  6 39  1  0  0  0  0
  7 12  1  0  0  0  0
  7  8  1  0  0  0  0
  8  9  1  0  0  0  0
  8 40  1  0  0  0  0
  8 41  1  0  0  0  0
  9 10  1  0  0  0  0
  9 42  1  0  0  0  0
  9 43  1  0  0  0  0
 10 11  1  0  0  0  0
 10 44  1  0  0  0  0
 10 45  1  0  0  0  0
 11 12  1  0  0  0  0
 11 46  1  0  0  0  0
 11 47  1  0  0  0  0
 12 48  1  0  0  0  0
 12 49  1  0  0  0  0
 13 14  1  0  0  0  0
 14 15  1  0  0  0  0
 14 23  1  0  0  0  0
 15 20  2  0  0  0  0
 15 16  1  0  0  0  0
 16 17  2  0  0  0  0
 16 50  1  0  0  0  0
 17 18  1  0  0  0  0
 17 51  1  0  0  0  0
 18 19  2  0  0  0  0
 18 22  1  0  0  0  0
 19 20  1  0  0  0  0
 19 52  1  0  0  0  0
 20 21  1  0  0  0  0
 23 24  1  0  0  0  0
 24 35  1  0  0  0  0
 24 25  2  0  0  0  0
 25 26  1  0  0  0  0
 25 53  1  0  0  0  0
 26 27  2  0  0  0  0
 26 54  1  0  0  0  0
 27 28  1  0  0  0  0
 27 35  1  0  0  0  0
 28 29  3  0  0  0  0
 29 30  1  0  0  0  0
 30 31  1  0  0  0  0
 30 55  1  0  0  0  0
 30 56  1  0  0  0  0
 31 32  1  0  0  0  0
 32 33  1  0  0  0  0
 32 34  1  0  0  0  0
 32 57  1  0  0  0  0
 33 58  1  0  0  0  0
 33 59  1  0  0  0  0
 33 60  1  0  0  0  0
 34 61  1  0  0  0  0
 34 62  1  0  0  0  0
 34 63  1  0  0  0  0
M  END
$$$$
CHEMBL4076020
 OpenBabel12022417383D

 61 64  0  0  0  0  0  0  0  0999 V2000
    1.2497    0.3651    0.0698 C   0  0  0  0  0  0  0  0  0  0  0  0
    2.7243    0.1972   -0.0667 C   0  0  0  0  0  0  0  0  0  0  0  0
    3.6890    1.1939   -0.1478 C   0  0  0  0  0  0  0  0  0  0  0  0
    3.4771    2.6592   -0.1809 C   0  0  0  0  0  0  0  0  0  0  0  0
    2.3603    3.1660   -0.2291 O   0  0  0  0  0  0  0  0  0  0  0  0
    4.6798    3.3704   -0.1413 N   0  0  0  0  0  0  0  0  0  0  0  0
    4.8034    4.7778   -0.1476 N   0  0  0  0  0  0  0  0  0  0  0  0
    4.4082    5.3957   -1.4206 C   0  0  0  0  0  0  0  0  0  0  0  0
    4.7703    6.8847   -1.4419 C   0  0  0  0  0  0  0  0  0  0  0  0
    4.1647    7.6297   -0.2565 C   0  0  0  0  0  0  0  0  0  0  0  0
    4.5130    6.9254    1.0513 C   0  0  0  0  0  0  0  0  0  0  0  0
    4.1589    5.4344    1.0028 C   0  0  0  0  0  0  0  0  0  0  0  0
    4.9490    0.6273   -0.1747 N   0  0  0  0  0  0  0  0  0  0  0  0
    4.7978   -0.6862   -0.0958 C   0  0  0  0  0  0  0  0  0  0  0  0
    5.9350   -1.6510   -0.1426 C   0  0  0  0  0  0  0  0  0  0  0  0
    7.1302   -1.4516    0.5793 C   0  0  0  0  0  0  0  0  0  0  0  0
    8.1053   -2.4607    0.6531 C   0  0  0  0  0  0  0  0  0  0  0  0
    7.8911   -3.6878    0.0347 C   0  0  0  0  0  0  0  0  0  0  0  0
    6.7559   -3.8855   -0.7369 C   0  0  0  0  0  0  0  0  0  0  0  0
    5.8207   -2.8536   -0.8713 C   0  0  0  0  0  0  0  0  0  0  0  0
    9.0239   -4.9653    0.2338 Cl  0  0  0  0  0  0  0  0  0  0  0  0
    7.4768    0.0037    1.4484 Cl  0  0  0  0  0  0  0  0  0  0  0  0
    3.4207   -1.0086   -0.0077 N   0  0  0  0  0  0  0  0  0  0  0  0
    2.8614   -2.3244    0.0985 C   0  0  0  0  0  0  0  0  0  0  0  0
    3.4989   -3.2823    0.8922 C   0  0  0  0  0  0  0  0  0  0  0  0
    3.1607   -4.6322    0.7829 C   0  0  0  0  0  0  0  0  0  0  0  0
    2.1104   -5.0433   -0.0387 C   0  0  0  0  0  0  0  0  0  0  0  0
    1.3874   -4.0713   -0.7349 C   0  0  0  0  0  0  0  0  0  0  0  0
    1.7701   -2.7183   -0.6873 C   0  0  0  0  0  0  0  0  0  0  0  0
    1.7285   -6.3515   -0.2311 O   0  0  0  0  0  0  0  0  0  0  0  0
    2.6111   -7.3185    0.3503 C   0  0  0  0  0  0  0  0  0  0  0  0
    2.1070   -8.7336    0.1375 C   0  0  0  0  0  0  0  0  0  0  0  0
    3.0570   -9.7180    0.7892 C   0  0  0  0  0  0  0  0  0  0  0  0
    4.1328   -9.1125    1.3394 F   0  0  0  0  0  0  0  0  0  0  0  0
    2.4392  -10.4078    1.7726 F   0  0  0  0  0  0  0  0  0  0  0  0
    3.5185  -10.6138   -0.1111 F   0  0  0  0  0  0  0  0  0  0  0  0
    0.7220   -0.5522    0.3342 H   0  0  0  0  0  0  0  0  0  0  0  0
    0.8293    0.7446   -0.8672 H   0  0  0  0  0  0  0  0  0  0  0  0
    1.0204    1.0830    0.8643 H   0  0  0  0  0  0  0  0  0  0  0  0
    5.5286    2.7994   -0.0954 H   0  0  0  0  0  0  0  0  0  0  0  0
    3.3331    5.2766   -1.6011 H   0  0  0  0  0  0  0  0  0  0  0  0
    4.9353    4.9053   -2.2481 H   0  0  0  0  0  0  0  0  0  0  0  0
    4.4228    7.3399   -2.3773 H   0  0  0  0  0  0  0  0  0  0  0  0
    5.8623    7.0007   -1.4209 H   0  0  0  0  0  0  0  0  0  0  0  0
    3.0750    7.6778   -0.3701 H   0  0  0  0  0  0  0  0  0  0  0  0
    4.5296    8.6635   -0.2352 H   0  0  0  0  0  0  0  0  0  0  0  0
    3.9801    7.4070    1.8801 H   0  0  0  0  0  0  0  0  0  0  0  0
    5.5857    7.0449    1.2522 H   0  0  0  0  0  0  0  0  0  0  0  0
    4.5023    4.9691    1.9347 H   0  0  0  0  0  0  0  0  0  0  0  0
    3.0697    5.3258    0.9624 H   0  0  0  0  0  0  0  0  0  0  0  0
    9.0187   -2.2973    1.2209 H   0  0  0  0  0  0  0  0  0  0  0  0
    6.5734   -4.8448   -1.2173 H   0  0  0  0  0  0  0  0  0  0  0  0
    4.9508   -3.0424   -1.4989 H   0  0  0  0  0  0  0  0  0  0  0  0
    4.3136   -3.0165    1.5619 H   0  0  0  0  0  0  0  0  0  0  0  0
    3.7709   -5.3347    1.3415 H   0  0  0  0  0  0  0  0  0  0  0  0
    0.5469   -4.3688   -1.3592 H   0  0  0  0  0  0  0  0  0  0  0  0
    1.2427   -2.0148   -1.3276 H   0  0  0  0  0  0  0  0  0  0  0  0
    2.6741   -7.1482    1.4315 H   0  0  0  0  0  0  0  0  0  0  0  0
    3.6017   -7.2206   -0.1132 H   0  0  0  0  0  0  0  0  0  0  0  0
    2.0039   -8.9446   -0.9326 H   0  0  0  0  0  0  0  0  0  0  0  0
    1.1020   -8.8363    0.5632 H   0  0  0  0  0  0  0  0  0  0  0  0
  1  2  1  0  0  0  0
  1 37  1  0  0  0  0
  1 38  1  0  0  0  0
  1 39  1  0  0  0  0
  2 23  1  0  0  0  0
  2  3  2  0  0  0  0
  3  4  1  0  0  0  0
  3 13  1  0  0  0  0
  4  5  2  0  0  0  0
  4  6  1  0  0  0  0
  6  7  1  0  0  0  0
  6 40  1  0  0  0  0
  7 12  1  0  0  0  0
  7  8  1  0  0  0  0
  8  9  1  0  0  0  0
  8 41  1  0  0  0  0
  8 42  1  0  0  0  0
  9 10  1  0  0  0  0
  9 43  1  0  0  0  0
  9 44  1  0  0  0  0
 10 11  1  0  0  0  0
 10 45  1  0  0  0  0
 10 46  1  0  0  0  0
 11 12  1  0  0  0  0
 11 47  1  0  0  0  0
 11 48  1  0  0  0  0
 12 49  1  0  0  0  0
 12 50  1  0  0  0  0
 13 14  2  0  0  0  0
 14 15  1  0  0  0  0
 14 23  1  0  0  0  0
 15 20  2  0  0  0  0
 15 16  1  0  0  0  0
 16 17  2  0  0  0  0
 16 22  1  0  0  0  0
 17 18  1  0  0  0  0
 17 51  1  0  0  0  0
 18 19  2  0  0  0  0
 18 21  1  0  0  0  0
 19 20  1  0  0  0  0
 19 52  1  0  0  0  0
 20 53  1  0  0  0  0
 23 24  1  0  0  0  0
 24 29  2  0  0  0  0
 24 25  1  0  0  0  0
 25 26  2  0  0  0  0
 25 54  1  0  0  0  0
 26 27  1  0  0  0  0
 26 55  1  0  0  0  0
 27 28  2  0  0  0  0
 27 30  1  0  0  0  0
 28 29  1  0  0  0  0
 28 56  1  0  0  0  0
 29 57  1  0  0  0  0
 30 31  1  0  0  0  0
 31 32  1  0  0  0  0
 31 58  1  0  0  0  0
 31 59  1  0  0  0  0
 32 33  1  0  0  0  0
 32 60  1  0  0  0  0
 32 61  1  0  0  0  0
 33 34  1  0  0  0  0
 33 35  1  0  0  0  0
 33 36  1  0  0  0  0
M  END
$$$$
CHEMBL368547
 OpenBabel12022417383D

 49 52  0  0  0  0  0  0  0  0999 V2000
    1.1164    0.5010    0.0510 C   0  0  0  0  0  0  0  0  0  0  0  0
    2.5870    0.3006   -0.0657 C   0  0  0  0  0  0  0  0  0  0  0  0
    3.5655    1.2897   -0.1417 C   0  0  0  0  0  0  0  0  0  0  0  0
    3.3683    2.7608   -0.1739 C   0  0  0  0  0  0  0  0  0  0  0  0
    2.2580    3.2815   -0.2318 O   0  0  0  0  0  0  0  0  0  0  0  0
    4.5504    3.4621   -0.1281 N   0  0  0  0  0  0  0  0  0  0  0  0
    4.7154    4.9033   -0.1296 C   0  0  0  0  0  0  0  0  0  0  0  0
    4.1682    5.6433   -1.3467 C   0  0  0  0  0  0  0  0  0  0  0  0
    4.2565    7.1093   -0.9309 C   0  0  0  0  0  0  0  0  0  0  0  0
    4.0808    7.1186    0.5887 C   0  0  0  0  0  0  0  0  0  0  0  0
    4.0659    5.6561    1.0328 C   0  0  0  0  0  0  0  0  0  0  0  0
    4.8154    0.7053   -0.1688 N   0  0  0  0  0  0  0  0  0  0  0  0
    4.6439   -0.6061   -0.1144 C   0  0  0  0  0  0  0  0  0  0  0  0
    5.7610   -1.5732   -0.2835 C   0  0  0  0  0  0  0  0  0  0  0  0
    5.5987   -2.7091   -1.1055 C   0  0  0  0  0  0  0  0  0  0  0  0
    6.6187   -3.6527   -1.2660 C   0  0  0  0  0  0  0  0  0  0  0  0
    7.8536   -3.4420   -0.6618 C   0  0  0  0  0  0  0  0  0  0  0  0
    8.0638   -2.3115    0.1169 C   0  0  0  0  0  0  0  0  0  0  0  0
    7.0250   -1.3882    0.3180 C   0  0  0  0  0  0  0  0  0  0  0  0
    7.3777   -0.0556    1.3678 Cl  0  0  0  0  0  0  0  0  0  0  0  0
    9.1186   -4.5821   -0.8876 Cl  0  0  0  0  0  0  0  0  0  0  0  0
    3.2730   -0.9141   -0.0047 N   0  0  0  0  0  0  0  0  0  0  0  0
    2.6944   -2.2183    0.1457 C   0  0  0  0  0  0  0  0  0  0  0  0
    3.3049   -3.1809    0.9684 C   0  0  0  0  0  0  0  0  0  0  0  0
    2.7663   -4.4678    1.0732 C   0  0  0  0  0  0  0  0  0  0  0  0
    1.6020   -4.7936    0.3790 C   0  0  0  0  0  0  0  0  0  0  0  0
    0.9804   -3.8467   -0.4304 C   0  0  0  0  0  0  0  0  0  0  0  0
    1.5350   -2.5687   -0.5636 C   0  0  0  0  0  0  0  0  0  0  0  0
    0.9315   -6.3696    0.5241 Cl  0  0  0  0  0  0  0  0  0  0  0  0
    0.5601   -0.3938    0.3255 H   0  0  0  0  0  0  0  0  0  0  0  0
    0.7150    0.8777   -0.8976 H   0  0  0  0  0  0  0  0  0  0  0  0
    0.8956    1.2378    0.8312 H   0  0  0  0  0  0  0  0  0  0  0  0
    5.3808    2.8714   -0.0718 H   0  0  0  0  0  0  0  0  0  0  0  0
    5.7987    5.0697   -0.0831 H   0  0  0  0  0  0  0  0  0  0  0  0
    3.1231    5.3789   -1.5483 H   0  0  0  0  0  0  0  0  0  0  0  0
    4.7444    5.4413   -2.2562 H   0  0  0  0  0  0  0  0  0  0  0  0
    3.5085    7.7275   -1.4373 H   0  0  0  0  0  0  0  0  0  0  0  0
    5.2435    7.5145   -1.1870 H   0  0  0  0  0  0  0  0  0  0  0  0
    3.1542    7.6290    0.8813 H   0  0  0  0  0  0  0  0  0  0  0  0
    4.9079    7.6639    1.0584 H   0  0  0  0  0  0  0  0  0  0  0  0
    4.6040    5.5104    1.9736 H   0  0  0  0  0  0  0  0  0  0  0  0
    3.0314    5.3351    1.1936 H   0  0  0  0  0  0  0  0  0  0  0  0
    4.6632   -2.8886   -1.6300 H   0  0  0  0  0  0  0  0  0  0  0  0
    6.4444   -4.5390   -1.8692 H   0  0  0  0  0  0  0  0  0  0  0  0
    9.0351   -2.1465    0.5756 H   0  0  0  0  0  0  0  0  0  0  0  0
    4.1928   -2.9482    1.5524 H   0  0  0  0  0  0  0  0  0  0  0  0
    3.2584   -5.2098    1.6944 H   0  0  0  0  0  0  0  0  0  0  0  0
    0.0762   -4.1010   -0.9758 H   0  0  0  0  0  0  0  0  0  0  0  0
    1.0620   -1.8759   -1.2571 H   0  0  0  0  0  0  0  0  0  0  0  0
  1  2  1  0  0  0  0
  1 30  1  0  0  0  0
  1 31  1  0  0  0  0
  1 32  1  0  0  0  0
  2 22  1  0  0  0  0
  2  3  2  0  0  0  0
  3  4  1  0  0  0  0
  3 12  1  0  0  0  0
  4  5  2  0  0  0  0
  4  6  1  0  0  0  0
  6  7  1  0  0  0  0
  6 33  1  0  0  0  0
  7 11  1  0  0  0  0
  7  8  1  0  0  0  0
  7 34  1  0  0  0  0
  8  9  1  0  0  0  0
  8 35  1  0  0  0  0
  8 36  1  0  0  0  0
  9 10  1  0  0  0  0
  9 37  1  0  0  0  0
  9 38  1  0  0  0  0
 10 11  1  0  0  0  0
 10 39  1  0  0  0  0
 10 40  1  0  0  0  0
 11 41  1  0  0  0  0
 11 42  1  0  0  0  0
 12 13  2  0  0  0  0
 13 14  1  0  0  0  0
 13 22  1  0  0  0  0
 14 19  2  0  0  0  0
 14 15  1  0  0  0  0
 15 16  2  0  0  0  0
 15 43  1  0  0  0  0
 16 17  1  0  0  0  0
 16 44  1  0  0  0  0
 17 18  2  0  0  0  0
 17 21  1  0  0  0  0
 18 19  1  0  0  0  0
 18 45  1  0  0  0  0
 19 20  1  0  0  0  0
 22 23  1  0  0  0  0
 23 28  2  0  0  0  0
 23 24  1  0  0  0  0
 24 25  2  0  0  0  0
 24 46  1  0  0  0  0
 25 26  1  0  0  0  0
 25 47  1  0  0  0  0
 26 27  2  0  0  0  0
 26 29  1  0  0  0  0
 27 28  1  0  0  0  0
 27 48  1  0  0  0  0
 28 49  1  0  0  0  0
M  END
$$$$
CHEMBL474424
 OpenBabel12022417383D

 48 51  0  0  0  0  0  0  0  0999 V2000
    2.6347   -0.5025    0.9006 O   0  0  0  0  0  0  0  0  0  0  0  0
    2.4137    0.6682    0.5817 C   0  0  0  0  0  0  0  0  0  0  0  0
    2.6813    1.1388   -0.8262 C   0  0  0  0  0  0  0  0  0  0  0  0
    1.8177    2.2174   -1.2640 N   0  0  0  0  0  0  0  0  0  0  0  0
    0.8482    2.0220   -2.1699 N   0  0  0  0  0  0  0  0  0  0  0  0
    0.4521    3.2741   -2.4571 C   0  0  0  0  0  0  0  0  0  0  0  0
   -0.6303    3.5181   -3.4230 C   0  0  0  0  0  0  0  0  0  0  0  0
   -0.4592    4.4965   -4.4188 C   0  0  0  0  0  0  0  0  0  0  0  0
   -1.4878    4.8106   -5.3119 C   0  0  0  0  0  0  0  0  0  0  0  0
   -2.6866    4.1061   -5.2597 C   0  0  0  0  0  0  0  0  0  0  0  0
   -2.8725    3.1103   -4.3078 C   0  0  0  0  0  0  0  0  0  0  0  0
   -1.8596    2.8256   -3.3806 C   0  0  0  0  0  0  0  0  0  0  0  0
   -2.2474    1.6457   -2.1724 Cl  0  0  0  0  0  0  0  0  0  0  0  0
   -3.9426    4.4758   -6.3750 Cl  0  0  0  0  0  0  0  0  0  0  0  0
    1.3008    4.1973   -1.7350 C   0  0  0  0  0  0  0  0  0  0  0  0
    1.4017    5.6639   -1.8063 C   0  0  0  0  0  0  0  0  0  0  0  0
    0.2329    6.4289   -1.9798 C   0  0  0  0  0  0  0  0  0  0  0  0
    0.2941    7.8094   -2.1981 C   0  0  0  0  0  0  0  0  0  0  0  0
    1.5220    8.4594   -2.1775 C   0  0  0  0  0  0  0  0  0  0  0  0
    2.6891    7.7419   -1.9455 C   0  0  0  0  0  0  0  0  0  0  0  0
    2.6364    6.3505   -1.7750 C   0  0  0  0  0  0  0  0  0  0  0  0
    4.1735    5.5669   -1.5963 Cl  0  0  0  0  0  0  0  0  0  0  0  0
    1.5979   10.1548   -2.4514 Cl  0  0  0  0  0  0  0  0  0  0  0  0
    2.0834    3.4858   -0.9063 N   0  0  0  0  0  0  0  0  0  0  0  0
    2.0319    1.6083    1.5012 N   0  0  0  0  0  0  0  0  0  0  0  0
    1.7733    1.2954    2.8928 C   0  0  0  0  0  0  0  0  0  0  0  0
    0.3292    1.5281    3.2577 C   0  0  0  0  0  0  0  0  0  0  0  0
   -0.0233    2.4738    4.2308 C   0  0  0  0  0  0  0  0  0  0  0  0
   -1.3609    2.6594    4.5886 C   0  0  0  0  0  0  0  0  0  0  0  0
   -2.3590    1.9028    3.9773 C   0  0  0  0  0  0  0  0  0  0  0  0
   -2.0223    0.9606    3.0087 C   0  0  0  0  0  0  0  0  0  0  0  0
   -0.6857    0.7715    2.6523 C   0  0  0  0  0  0  0  0  0  0  0  0
    2.5409    0.2997   -1.5190 H   0  0  0  0  0  0  0  0  0  0  0  0
    3.7170    1.4864   -0.9020 H   0  0  0  0  0  0  0  0  0  0  0  0
    0.4771    5.0457   -4.5058 H   0  0  0  0  0  0  0  0  0  0  0  0
   -1.3477    5.6033   -6.0421 H   0  0  0  0  0  0  0  0  0  0  0  0
   -3.8124    2.5631   -4.2756 H   0  0  0  0  0  0  0  0  0  0  0  0
   -0.7484    5.9587   -1.9766 H   0  0  0  0  0  0  0  0  0  0  0  0
   -0.6203    8.3664   -2.3893 H   0  0  0  0  0  0  0  0  0  0  0  0
    3.6455    8.2594   -1.9191 H   0  0  0  0  0  0  0  0  0  0  0  0
    1.8826    2.5741    1.2069 H   0  0  0  0  0  0  0  0  0  0  0  0
    2.4286    1.9462    3.4822 H   0  0  0  0  0  0  0  0  0  0  0  0
    2.0466    0.2606    3.1236 H   0  0  0  0  0  0  0  0  0  0  0  0
    0.7414    3.0681    4.7261 H   0  0  0  0  0  0  0  0  0  0  0  0
   -1.6240    3.3903    5.3490 H   0  0  0  0  0  0  0  0  0  0  0  0
   -3.3997    2.0441    4.2597 H   0  0  0  0  0  0  0  0  0  0  0  0
   -2.7983    0.3661    2.5333 H   0  0  0  0  0  0  0  0  0  0  0  0
   -0.4355    0.0232    1.9025 H   0  0  0  0  0  0  0  0  0  0  0  0
  1  2  2  0  0  0  0
  2  3  1  0  0  0  0
  2 25  1  0  0  0  0
  3  4  1  0  0  0  0
  3 33  1  0  0  0  0
  3 34  1  0  0  0  0
  4 24  1  0  0  0  0
  4  5  1  0  0  0  0
  5  6  2  0  0  0  0
  6  7  1  0  0  0  0
  6 15  1  0  0  0  0
  7 12  2  0  0  0  0
  7  8  1  0  0  0  0
  8  9  2  0  0  0  0
  8 35  1  0  0  0  0
  9 10  1  0  0  0  0
  9 36  1  0  0  0  0
 10 11  2  0  0  0  0
 10 14  1  0  0  0  0
 11 12  1  0  0  0  0
 11 37  1  0  0  0  0
 12 13  1  0  0  0  0
 15 16  1  0  0  0  0
 15 24  2  0  0  0  0
 16 21  2  0  0  0  0
 16 17  1  0  0  0  0
 17 18  2  0  0  0  0
 17 38  1  0  0  0  0
 18 19  1  0  0  0  0
 18 39  1  0  0  0  0
 19 20  2  0  0  0  0
 19 23  1  0  0  0  0
 20 21  1  0  0  0  0
 20 40  1  0  0  0  0
 21 22  1  0  0  0  0
 25 26  1  0  0  0  0
 25 41  1  0  0  0  0
 26 27  1  0  0  0  0
 26 42  1  0  0  0  0
 26 43  1  0  0  0  0
 27 32  2  0  0  0  0
 27 28  1  0  0  0  0
 28 29  2  0  0  0  0
 28 44  1  0  0  0  0
 29 30  1  0  0  0  0
 29 45  1  0  0  0  0
 30 31  2  0  0  0  0
 30 46  1  0  0  0  0
 31 32  1  0  0  0  0
 31 47  1  0  0  0  0
 32 48  1  0  0  0  0
M  END
$$$$
CHEMBL493303
 OpenBabel12022417383D

 67 72  0  0  1  0  0  0  0  0999 V2000
    1.2133    0.3846   -0.0270 C   0  0  0  0  0  0  0  0  0  0  0  0
    2.6878    0.1828   -0.0991 C   0  0  0  0  0  0  0  0  0  0  0  0
    3.6869    1.2080   -0.0770 C   0  0  0  0  0  0  0  0  0  0  0  0
    3.4692    2.6728    0.0038 C   0  0  0  0  0  0  0  0  0  0  0  0
    2.3501    3.1714    0.0143 O   0  0  0  0  0  0  0  0  0  0  0  0
    4.6614    3.4028    0.0858 N   0  0  0  0  0  0  0  0  0  0  0  0
    4.6661    4.8205    0.1461 N   0  0  0  0  0  0  0  0  0  0  0  0
    5.9210    5.4013   -0.3556 C   0  0  0  0  0  0  0  0  0  0  0  0
    5.9526    6.8145    0.2312 C   0  0  1  0  0  0  0  0  0  0  0  0
    5.4016    7.9120   -0.6855 C   0  0  0  0  0  0  0  0  0  0  0  0
    4.5666    8.7941    0.2283 C   0  0  0  0  0  0  0  0  0  0  0  0
    3.9054    7.7862    1.1536 C   0  0  0  0  0  0  0  0  0  0  0  0
    5.0104    6.7661    1.4458 C   0  0  1  0  0  0  0  0  0  0  0  0
    4.5442    5.3138    1.5276 C   0  0  0  0  0  0  0  0  0  0  0  0
    4.9279    0.6787   -0.1099 N   0  0  0  0  0  0  0  0  0  0  0  0
    4.7480   -0.6722   -0.1737 N   0  0  0  0  0  0  0  0  0  0  0  0
    5.8881   -1.5191   -0.3439 C   0  0  0  0  0  0  0  0  0  0  0  0
    5.8412   -2.5654   -1.2859 C   0  0  0  0  0  0  0  0  0  0  0  0
    6.9273   -3.4404   -1.4330 C   0  0  0  0  0  0  0  0  0  0  0  0
    8.0676   -3.2641   -0.6568 C   0  0  0  0  0  0  0  0  0  0  0  0
    8.1308   -2.2332    0.2784 C   0  0  0  0  0  0  0  0  0  0  0  0
    7.0420   -1.3614    0.4417 C   0  0  0  0  0  0  0  0  0  0  0  0
    7.1630   -0.2394    1.7602 Cl  0  0  0  0  0  0  0  0  0  0  0  0
    9.4005   -4.3369   -0.8368 Cl  0  0  0  0  0  0  0  0  0  0  0  0
    3.3936   -1.0116   -0.1272 C   0  0  0  0  0  0  0  0  0  0  0  0
    2.8793   -2.3504   -0.0149 C   0  0  0  0  0  0  0  0  0  0  0  0
    1.7240   -2.8891   -0.5566 C   0  0  0  0  0  0  0  0  0  0  0  0
    1.6445   -4.2969   -0.3549 C   0  0  0  0  0  0  0  0  0  0  0  0
    2.7679   -4.7559    0.2842 C   0  0  0  0  0  0  0  0  0  0  0  0
    3.1454   -6.0997    0.4344 C   0  0  0  0  0  0  0  0  0  0  0  0
    3.4642   -7.3331    0.7124 C   0  0  0  0  0  0  0  0  0  0  0  0
    3.8358   -8.7709    1.0364 C   0  0  0  0  0  0  0  0  0  0  0  0
    2.5979   -9.5925    1.3830 C   0  0  0  0  0  0  0  0  0  0  0  0
    3.0366  -11.0201    1.1077 C   0  0  0  0  0  0  0  0  0  0  0  0
    3.8997  -10.9171   -0.1427 C   0  0  0  0  0  0  0  0  0  0  0  0
    4.4301   -9.4831   -0.1816 C   0  0  0  0  0  0  0  0  0  0  0  0
    3.6610   -3.5009    0.9835 S   0  0  0  0  0  0  0  0  0  0  0  0
    0.6677   -0.5471    0.1174 H   0  0  0  0  0  0  0  0  0  0  0  0
    0.8442    0.8437   -0.9499 H   0  0  0  0  0  0  0  0  0  0  0  0
    0.9483    1.0243    0.8236 H   0  0  0  0  0  0  0  0  0  0  0  0
    5.5239    2.8636    0.0524 H   0  0  0  0  0  0  0  0  0  0  0  0
    5.9621    5.3980   -1.4492 H   0  0  0  0  0  0  0  0  0  0  0  0
    6.7860    4.8402    0.0216 H   0  0  0  0  0  0  0  0  0  0  0  0
    6.9704    7.0726    0.5476 H   0  0  0  0  0  0  0  0  0  0  0  0
    4.7723    7.4927   -1.4798 H   0  0  0  0  0  0  0  0  0  0  0  0
    6.2060    8.4789   -1.1653 H   0  0  0  0  0  0  0  0  0  0  0  0
    3.8361    9.3931   -0.3257 H   0  0  0  0  0  0  0  0  0  0  0  0
    5.2077    9.4778    0.7967 H   0  0  0  0  0  0  0  0  0  0  0  0
    3.0495    7.3198    0.6518 H   0  0  0  0  0  0  0  0  0  0  0  0
    3.5370    8.2594    2.0696 H   0  0  0  0  0  0  0  0  0  0  0  0
    5.5448    7.0541    2.3589 H   0  0  0  0  0  0  0  0  0  0  0  0
    5.2138    4.7567    2.1972 H   0  0  0  0  0  0  0  0  0  0  0  0
    3.5220    5.2241    1.9106 H   0  0  0  0  0  0  0  0  0  0  0  0
    4.9690   -2.7264   -1.9139 H   0  0  0  0  0  0  0  0  0  0  0  0
    6.8721   -4.2616   -2.1451 H   0  0  0  0  0  0  0  0  0  0  0  0
    9.0141   -2.1280    0.9044 H   0  0  0  0  0  0  0  0  0  0  0  0
    0.9927   -2.3344   -1.1302 H   0  0  0  0  0  0  0  0  0  0  0  0
    0.8576   -4.9391   -0.7372 H   0  0  0  0  0  0  0  0  0  0  0  0
    4.5499   -8.7896    1.8686 H   0  0  0  0  0  0  0  0  0  0  0  0
    1.7487   -9.3287    0.7397 H   0  0  0  0  0  0  0  0  0  0  0  0
    2.2842   -9.4510    2.4223 H   0  0  0  0  0  0  0  0  0  0  0  0
    2.1863  -11.6943    0.9668 H   0  0  0  0  0  0  0  0  0  0  0  0
    3.6336  -11.3994    1.9449 H   0  0  0  0  0  0  0  0  0  0  0  0
    3.2976  -11.1129   -1.0376 H   0  0  0  0  0  0  0  0  0  0  0  0
    4.7117  -11.6511   -0.1283 H   0  0  0  0  0  0  0  0  0  0  0  0
    5.5250   -9.4636   -0.1487 H   0  0  0  0  0  0  0  0  0  0  0  0
    4.1328   -9.0080   -1.1250 H   0  0  0  0  0  0  0  0  0  0  0  0
  1  2  1  0  0  0  0
  1 38  1  0  0  0  0
  1 39  1  0  0  0  0
  1 40  1  0  0  0  0
  2 25  2  0  0  0  0
  2  3  1  0  0  0  0
  3  4  1  0  0  0  0
  3 15  2  0  0  0  0
  4  5  2  0  0  0  0
  4  6  1  0  0  0  0
  6  7  1  0  0  0  0
  6 41  1  0  0  0  0
  7 14  1  0  0  0  0
  7  8  1  0  0  0  0
  8 42  1  0  0  0  0
  8 43  1  0  0  0  0
  9  8  1  0  0  0  0
  9 10  1  0  0  0  0
  9 13  1  0  0  0  0
  9 44  1  1  0  0  0
 10 11  1  0  0  0  0
 10 45  1  0  0  0  0
 10 46  1  0  0  0  0
 11 12  1  0  0  0  0
 11 47  1  0  0  0  0
 11 48  1  0  0  0  0
 12 49  1  0  0  0  0
 12 50  1  0  0  0  0
 13 12  1  0  0  0  0
 13 14  1  0  0  0  0
 13 51  1  1  0  0  0
 14 52  1  0  0  0  0
 14 53  1  0  0  0  0
 15 16  1  0  0  0  0
 16 17  1  0  0  0  0
 16 25  1  0  0  0  0
 17 22  2  0  0  0  0
 17 18  1  0  0  0  0
 18 19  2  0  0  0  0
 18 54  1  0  0  0  0
 19 20  1  0  0  0  0
 19 55  1  0  0  0  0
 20 21  2  0  0  0  0
 20 24  1  0  0  0  0
 21 22  1  0  0  0  0
 21 56  1  0  0  0  0
 22 23  1  0  0  0  0
 25 26  1  0  0  0  0
 26 37  1  0  0  0  0
 26 27  2  0  0  0  0
 27 28  1  0  0  0  0
 27 57  1  0  0  0  0
 28 29  2  0  0  0  0
 28 58  1  0  0  0  0
 29 30  1  0  0  0  0
 29 37  1  0  0  0  0
 30 31  3  0  0  0  0
 31 32  1  0  0  0  0
 32 36  1  0  0  0  0
 32 33  1  0  0  0  0
 32 59  1  0  0  0  0
 33 34  1  0  0  0  0
 33 60  1  0  0  0  0
 33 61  1  0  0  0  0
 34 35  1  0  0  0  0
 34 62  1  0  0  0  0
 34 63  1  0  0  0  0
 35 36  1  0  0  0  0
 35 64  1  0  0  0  0
 35 65  1  0  0  0  0
 36 66  1  0  0  0  0
 36 67  1  0  0  0  0
M  END
$$$$
CHEMBL269919
 OpenBabel12022417383D

 56 59  0  0  0  0  0  0  0  0999 V2000
   -0.1486   -0.9765    0.0125 N   0  0  0  0  0  0  0  0  0  0  0  0
   -1.0045    0.0802   -0.1274 N   0  0  0  0  0  0  0  0  0  0  0  0
   -0.2292    1.1786   -0.1582 C   0  0  0  0  0  0  0  0  0  0  0  0
    1.1543    0.8217   -0.1759 C   0  0  0  0  0  0  0  0  0  0  0  0
    1.1764   -0.5569   -0.0008 C   0  0  0  0  0  0  0  0  0  0  0  0
    2.3244   -1.3746    0.0250 N   0  0  0  0  0  0  0  0  0  0  0  0
    2.5673   -2.5444   -0.7084 C   0  0  0  0  0  0  0  0  0  0  0  0
    3.8651   -2.9590   -0.4667 C   0  0  0  0  0  0  0  0  0  0  0  0
    4.4510   -2.0539    0.4211 C   0  0  0  0  0  0  0  0  0  0  0  0
    3.4929   -1.1198    0.7586 C   0  0  0  0  0  0  0  0  0  0  0  0
    3.6618   -0.0525    1.7883 C   0  0  0  0  0  0  0  0  0  0  0  0
    1.6403   -3.1975   -1.6758 C   0  0  0  0  0  0  0  0  0  0  0  0
    2.2943    1.7498   -0.4215 C   0  0  0  0  0  0  0  0  0  0  0  0
   -0.7924    2.5572   -0.1858 C   0  0  0  0  0  0  0  0  0  0  0  0
   -0.0829    3.5592   -0.1223 O   0  0  0  0  0  0  0  0  0  0  0  0
   -2.1712    2.6343   -0.2573 N   0  0  0  0  0  0  0  0  0  0  0  0
   -2.8798    3.9140   -0.3147 C   0  0  0  0  0  0  0  0  0  0  0  0
   -2.9991    4.4321   -1.7554 C   0  0  0  0  0  0  0  0  0  0  0  0
   -3.7312    5.7748   -1.8130 C   0  0  0  0  0  0  0  0  0  0  0  0
   -5.0993    5.7109   -1.1391 C   0  0  0  0  0  0  0  0  0  0  0  0
   -5.0102    5.1547    0.2794 C   0  0  0  0  0  0  0  0  0  0  0  0
   -4.2687    3.8167    0.3288 C   0  0  0  0  0  0  0  0  0  0  0  0
   -0.6983   -2.2639    0.2731 C   0  0  0  0  0  0  0  0  0  0  0  0
   -0.0847   -3.1592    1.1663 C   0  0  0  0  0  0  0  0  0  0  0  0
   -0.6180   -4.4371    1.3466 C   0  0  0  0  0  0  0  0  0  0  0  0
   -1.7544   -4.8232    0.6413 C   0  0  0  0  0  0  0  0  0  0  0  0
   -2.3745   -3.9489   -0.2410 C   0  0  0  0  0  0  0  0  0  0  0  0
   -1.8522   -2.6693   -0.4125 C   0  0  0  0  0  0  0  0  0  0  0  0
   -2.4211   -1.8891   -1.3443 F   0  0  0  0  0  0  0  0  0  0  0  0
   -2.2471   -6.0581    0.8027 F   0  0  0  0  0  0  0  0  0  0  0  0
    4.3417   -3.8216   -0.9165 H   0  0  0  0  0  0  0  0  0  0  0  0
    5.4623   -2.0861    0.8096 H   0  0  0  0  0  0  0  0  0  0  0  0
    2.7217    0.4046    2.1016 H   0  0  0  0  0  0  0  0  0  0  0  0
    4.3377    0.7244    1.4140 H   0  0  0  0  0  0  0  0  0  0  0  0
    4.1221   -0.4745    2.6886 H   0  0  0  0  0  0  0  0  0  0  0  0
    0.7841   -2.5837   -1.9516 H   0  0  0  0  0  0  0  0  0  0  0  0
    1.2874   -4.1506   -1.2659 H   0  0  0  0  0  0  0  0  0  0  0  0
    2.1734   -3.4246   -2.6051 H   0  0  0  0  0  0  0  0  0  0  0  0
    1.9964    2.6051   -1.0333 H   0  0  0  0  0  0  0  0  0  0  0  0
    3.0973    1.2468   -0.9718 H   0  0  0  0  0  0  0  0  0  0  0  0
    2.6949    2.1400    0.5170 H   0  0  0  0  0  0  0  0  0  0  0  0
   -2.6600    1.7558   -0.4034 H   0  0  0  0  0  0  0  0  0  0  0  0
   -2.2890    4.6399    0.2597 H   0  0  0  0  0  0  0  0  0  0  0  0
   -3.5387    3.6993   -2.3690 H   0  0  0  0  0  0  0  0  0  0  0  0
   -2.0052    4.5435   -2.2040 H   0  0  0  0  0  0  0  0  0  0  0  0
   -3.8525    6.0862   -2.8563 H   0  0  0  0  0  0  0  0  0  0  0  0
   -3.1218    6.5438   -1.3213 H   0  0  0  0  0  0  0  0  0  0  0  0
   -5.7711    5.0823   -1.7361 H   0  0  0  0  0  0  0  0  0  0  0  0
   -5.5444    6.7132   -1.1143 H   0  0  0  0  0  0  0  0  0  0  0  0
   -6.0203    5.0333    0.6876 H   0  0  0  0  0  0  0  0  0  0  0  0
   -4.4955    5.8814    0.9204 H   0  0  0  0  0  0  0  0  0  0  0  0
   -4.1767    3.4931    1.3725 H   0  0  0  0  0  0  0  0  0  0  0  0
   -4.8658    3.0522   -0.1848 H   0  0  0  0  0  0  0  0  0  0  0  0
    0.7996   -2.8812    1.7341 H   0  0  0  0  0  0  0  0  0  0  0  0
   -0.1502   -5.1457    2.0290 H   0  0  0  0  0  0  0  0  0  0  0  0
   -3.2396   -4.2685   -0.8103 H   0  0  0  0  0  0  0  0  0  0  0  0
  1  5  1  0  0  0  0
  1  2  1  0  0  0  0
  1 23  1  0  0  0  0
  2  3  2  0  0  0  0
  3  4  1  0  0  0  0
  3 14  1  0  0  0  0
  4  5  2  0  0  0  0
  4 13  1  0  0  0  0
  5  6  1  0  0  0  0
  6 10  1  0  0  0  0
  6  7  1  0  0  0  0
  7  8  2  0  0  0  0
  7 12  1  0  0  0  0
  8  9  1  0  0  0  0
  8 31  1  0  0  0  0
  9 10  2  0  0  0  0
  9 32  1  0  0  0  0
 10 11  1  0  0  0  0
 11 33  1  0  0  0  0
 11 34  1  0  0  0  0
 11 35  1  0  0  0  0
 12 36  1  0  0  0  0
 12 37  1  0  0  0  0
 12 38  1  0  0  0  0
 13 39  1  0  0  0  0
 13 40  1  0  0  0  0
 13 41  1  0  0  0  0
 14 15  2  0  0  0  0
 14 16  1  0  0  0  0
 16 17  1  0  0  0  0
 16 42  1  0  0  0  0
 17 22  1  0  0  0  0
 17 18  1  0  0  0  0
 17 43  1  0  0  0  0
 18 19  1  0  0  0  0
 18 44  1  0  0  0  0
 18 45  1  0  0  0  0
 19 20  1  0  0  0  0
 19 46  1  0  0  0  0
 19 47  1  0  0  0  0
 20 21  1  0  0  0  0
 20 48  1  0  0  0  0
 20 49  1  0  0  0  0
 21 22  1  0  0  0  0
 21 50  1  0  0  0  0
 21 51  1  0  0  0  0
 22 52  1  0  0  0  0
 22 53  1  0  0  0  0
 23 28  2  0  0  0  0
 23 24  1  0  0  0  0
 24 25  2  0  0  0  0
 24 54  1  0  0  0  0
 25 26  1  0  0  0  0
 25 55  1  0  0  0  0
 26 27  2  0  0  0  0
 26 30  1  0  0  0  0
 27 28  1  0  0  0  0
 27 56  1  0  0  0  0
 28 29  1  0  0  0  0
M  END
$$$$
CHEMBL523872
 OpenBabel12022417383D

 64 68  0  0  0  0  0  0  0  0999 V2000
    1.1258    0.4510   -0.0758 C   0  0  0  0  0  0  0  0  0  0  0  0
    2.5881    0.1763   -0.1598 C   0  0  0  0  0  0  0  0  0  0  0  0
    3.6020    1.1897   -0.1727 C   0  0  0  0  0  0  0  0  0  0  0  0
    3.4147    2.6655   -0.1682 C   0  0  0  0  0  0  0  0  0  0  0  0
    2.3025    3.1897   -0.2329 O   0  0  0  0  0  0  0  0  0  0  0  0
    4.6170    3.3672   -0.0809 N   0  0  0  0  0  0  0  0  0  0  0  0
    4.7487    4.7817   -0.0252 N   0  0  0  0  0  0  0  0  0  0  0  0
    4.3969    5.4452   -1.2882 C   0  0  0  0  0  0  0  0  0  0  0  0
    4.7540    6.9359   -1.2380 C   0  0  0  0  0  0  0  0  0  0  0  0
    4.0978    7.6300   -0.0490 C   0  0  0  0  0  0  0  0  0  0  0  0
    4.4053    6.8789    1.2425 C   0  0  0  0  0  0  0  0  0  0  0  0
    4.0621    5.3899    1.1242 C   0  0  0  0  0  0  0  0  0  0  0  0
    4.8235    0.6420   -0.1667 N   0  0  0  0  0  0  0  0  0  0  0  0
    4.6307   -0.7008   -0.2073 N   0  0  0  0  0  0  0  0  0  0  0  0
    5.7661   -1.5449   -0.3726 C   0  0  0  0  0  0  0  0  0  0  0  0
    5.7216   -2.5773   -1.3280 C   0  0  0  0  0  0  0  0  0  0  0  0
    6.8313   -3.4036   -1.5244 C   0  0  0  0  0  0  0  0  0  0  0  0
    7.9904   -3.1960   -0.7819 C   0  0  0  0  0  0  0  0  0  0  0  0
    8.0469   -2.1807    0.1694 C   0  0  0  0  0  0  0  0  0  0  0  0
    6.9381   -1.3519    0.3800 C   0  0  0  0  0  0  0  0  0  0  0  0
    7.0639   -0.2313    1.6943 Cl  0  0  0  0  0  0  0  0  0  0  0  0
    9.3587   -4.2077   -1.0335 Cl  0  0  0  0  0  0  0  0  0  0  0  0
    3.2767   -1.0428   -0.1886 C   0  0  0  0  0  0  0  0  0  0  0  0
    2.7564   -2.3978   -0.0906 C   0  0  0  0  0  0  0  0  0  0  0  0
    3.3074   -3.4923    0.5602 C   0  0  0  0  0  0  0  0  0  0  0  0
    2.4562   -4.6426    0.5444 C   0  0  0  0  0  0  0  0  0  0  0  0
    1.2606   -4.3800   -0.0803 C   0  0  0  0  0  0  0  0  0  0  0  0
    0.1266   -5.2427   -0.1096 C   0  0  0  0  0  0  0  0  0  0  0  0
   -0.8645   -5.9206   -0.1151 C   0  0  0  0  0  0  0  0  0  0  0  0
   -2.0735   -6.7508   -0.1479 C   0  0  0  0  0  0  0  0  0  0  0  0
   -1.7836   -7.9029   -0.9326 O   0  0  0  0  0  0  0  0  0  0  0  0
   -2.8254   -8.7461   -1.1877 C   0  0  0  0  0  0  0  0  0  0  0  0
   -2.7115   -9.4696   -2.3764 C   0  0  0  0  0  0  0  0  0  0  0  0
   -3.6889  -10.3954   -2.7375 C   0  0  0  0  0  0  0  0  0  0  0  0
   -4.7792  -10.6126   -1.8990 C   0  0  0  0  0  0  0  0  0  0  0  0
   -4.8905   -9.9024   -0.7033 C   0  0  0  0  0  0  0  0  0  0  0  0
   -3.9143   -8.9675   -0.3459 C   0  0  0  0  0  0  0  0  0  0  0  0
    1.2750   -2.8549   -0.8358 S   0  0  0  0  0  0  0  0  0  0  0  0
    0.5191   -0.4407    0.0744 H   0  0  0  0  0  0  0  0  0  0  0  0
    0.7801    0.9423   -0.9909 H   0  0  0  0  0  0  0  0  0  0  0  0
    0.9126    1.1053    0.7754 H   0  0  0  0  0  0  0  0  0  0  0  0
    5.4593    2.7960   -0.0204 H   0  0  0  0  0  0  0  0  0  0  0  0
    3.3291    5.3333   -1.5122 H   0  0  0  0  0  0  0  0  0  0  0  0
    4.9545    4.9895   -2.1153 H   0  0  0  0  0  0  0  0  0  0  0  0
    4.4426    7.4261   -2.1676 H   0  0  0  0  0  0  0  0  0  0  0  0
    5.8434    7.0522   -1.1679 H   0  0  0  0  0  0  0  0  0  0  0  0
    3.0125    7.6727   -0.2012 H   0  0  0  0  0  0  0  0  0  0  0  0
    4.4513    8.6652    0.0252 H   0  0  0  0  0  0  0  0  0  0  0  0
    3.8408    7.3249    2.0695 H   0  0  0  0  0  0  0  0  0  0  0  0
    5.4695    6.9945    1.4847 H   0  0  0  0  0  0  0  0  0  0  0  0
    4.3753    4.8908    2.0487 H   0  0  0  0  0  0  0  0  0  0  0  0
    2.9743    5.2804    1.0440 H   0  0  0  0  0  0  0  0  0  0  0  0
    4.8421   -2.7387   -1.9491 H   0  0  0  0  0  0  0  0  0  0  0  0
    6.7873   -4.2010   -2.2632 H   0  0  0  0  0  0  0  0  0  0  0  0
    8.9495   -2.0456    0.7614 H   0  0  0  0  0  0  0  0  0  0  0  0
    4.2635   -3.4834    1.0687 H   0  0  0  0  0  0  0  0  0  0  0  0
    2.6915   -5.5848    1.0275 H   0  0  0  0  0  0  0  0  0  0  0  0
   -2.8992   -6.1845   -0.5975 H   0  0  0  0  0  0  0  0  0  0  0  0
   -2.3425   -7.0339    0.8755 H   0  0  0  0  0  0  0  0  0  0  0  0
   -1.8553   -9.3052   -3.0257 H   0  0  0  0  0  0  0  0  0  0  0  0
   -3.5933  -10.9486   -3.6677 H   0  0  0  0  0  0  0  0  0  0  0  0
   -5.5378  -11.3415   -2.1727 H   0  0  0  0  0  0  0  0  0  0  0  0
   -5.7336  -10.0869   -0.0422 H   0  0  0  0  0  0  0  0  0  0  0  0
   -4.0189   -8.4545    0.6044 H   0  0  0  0  0  0  0  0  0  0  0  0
  1  2  1  0  0  0  0
  1 39  1  0  0  0  0
  1 40  1  0  0  0  0
  1 41  1  0  0  0  0
  2 23  2  0  0  0  0
  2  3  1  0  0  0  0
  3  4  1  0  0  0  0
  3 13  2  0  0  0  0
  4  5  2  0  0  0  0
  4  6  1  0  0  0  0
  6  7  1  0  0  0  0
  6 42  1  0  0  0  0
  7 12  1  0  0  0  0
  7  8  1  0  0  0  0
  8  9  1  0  0  0  0
  8 43  1  0  0  0  0
  8 44  1  0  0  0  0
  9 10  1  0  0  0  0
  9 45  1  0  0  0  0
  9 46  1  0  0  0  0
 10 11  1  0  0  0  0
 10 47  1  0  0  0  0
 10 48  1  0  0  0  0
 11 12  1  0  0  0  0
 11 49  1  0  0  0  0
 11 50  1  0  0  0  0
 12 51  1  0  0  0  0
 12 52  1  0  0  0  0
 13 14  1  0  0  0  0
 14 15  1  0  0  0  0
 14 23  1  0  0  0  0
 15 20  2  0  0  0  0
 15 16  1  0  0  0  0
 16 17  2  0  0  0  0
 16 53  1  0  0  0  0
 17 18  1  0  0  0  0
 17 54  1  0  0  0  0
 18 19  2  0  0  0  0
 18 22  1  0  0  0  0
 19 20  1  0  0  0  0
 19 55  1  0  0  0  0
 20 21  1  0  0  0  0
 23 24  1  0  0  0  0
 24 38  1  0  0  0  0
 24 25  2  0  0  0  0
 25 26  1  0  0  0  0
 25 56  1  0  0  0  0
 26 27  2  0  0  0  0
 26 57  1  0  0  0  0
 27 28  1  0  0  0  0
 27 38  1  0  0  0  0
 28 29  3  0  0  0  0
 29 30  1  0  0  0  0
 30 31  1  0  0  0  0
 30 58  1  0  0  0  0
 30 59  1  0  0  0  0
 31 32  1  0  0  0  0
 32 37  2  0  0  0  0
 32 33  1  0  0  0  0
 33 34  2  0  0  0  0
 33 60  1  0  0  0  0
 34 35  1  0  0  0  0
 34 61  1  0  0  0  0
 35 36  2  0  0  0  0
 35 62  1  0  0  0  0
 36 37  1  0  0  0  0
 36 63  1  0  0  0  0
 37 64  1  0  0  0  0
M  END
$$$$
CHEMBL494299
 OpenBabel12022417383D

 65 67  0  0  0  0  0  0  0  0999 V2000
    9.5010    5.8668    1.6735 C   0  0  0  0  0  0  0  0  0  0  0  0
    8.4487    6.4392    0.7387 C   0  0  0  0  0  0  0  0  0  0  0  0
    8.2802    5.5659   -0.5016 C   0  0  0  0  0  0  0  0  0  0  0  0
    7.2232    6.1377   -1.4400 C   0  0  0  0  0  0  0  0  0  0  0  0
    7.0772    5.2465   -2.6626 C   0  0  0  0  0  0  0  0  0  0  0  0
    6.9519    4.4820   -3.7114 C   0  0  0  0  0  0  0  0  0  0  0  0
    6.8257    3.7000   -4.8952 C   0  0  0  0  0  0  0  0  0  0  0  0
    6.3354    2.4194   -4.9560 C   0  0  0  0  0  0  0  0  0  0  0  0
    6.5217    1.8497   -6.2522 C   0  0  0  0  0  0  0  0  0  0  0  0
    7.0751    2.7277   -7.1759 C   0  0  0  0  0  0  0  0  0  0  0  0
    7.4432    2.4766   -8.5688 C   0  0  0  0  0  0  0  0  0  0  0  0
    8.5275    2.9792   -9.2964 C   0  0  0  0  0  0  0  0  0  0  0  0
    9.5667    3.9622   -8.8796 C   0  0  0  0  0  0  0  0  0  0  0  0
    8.4967    2.2955  -10.5656 C   0  0  0  0  0  0  0  0  0  0  0  0
    9.4333    2.4422  -11.7109 C   0  0  0  0  0  0  0  0  0  0  0  0
   10.3768    3.2400  -11.6883 O   0  0  0  0  0  0  0  0  0  0  0  0
    9.1790    1.6373  -12.8121 N   0  0  0  0  0  0  0  0  0  0  0  0
    9.9553    1.6967  -14.0492 C   0  0  0  0  0  0  0  0  0  0  0  0
   11.1583    0.7423  -14.0914 C   0  0  0  0  0  0  0  0  0  0  0  0
   10.7706   -0.7411  -14.0004 C   0  0  0  0  0  0  0  0  0  0  0  0
   11.9971   -1.6646  -14.0521 C   0  0  0  0  0  0  0  0  0  0  0  0
   11.6028   -3.1416  -13.9364 C   0  0  0  0  0  0  0  0  0  0  0  0
   12.8164   -4.0612  -13.9785 C   0  0  0  0  0  0  0  0  0  0  0  0
    7.4653    1.4509  -10.6176 N   0  0  0  0  0  0  0  0  0  0  0  0
    6.8164    1.5610   -9.4286 N   0  0  0  0  0  0  0  0  0  0  0  0
    5.5964    0.8403   -9.2395 C   0  0  0  0  0  0  0  0  0  0  0  0
    4.5684    1.4204   -8.4724 C   0  0  0  0  0  0  0  0  0  0  0  0
    3.3987    0.7187   -8.1870 C   0  0  0  0  0  0  0  0  0  0  0  0
    3.2111   -0.5425   -8.7300 C   0  0  0  0  0  0  0  0  0  0  0  0
    4.1918   -1.1167   -9.5380 C   0  0  0  0  0  0  0  0  0  0  0  0
    5.3944   -0.4384   -9.7886 C   0  0  0  0  0  0  0  0  0  0  0  0
    6.5773   -1.3476  -10.6667 Cl  0  0  0  0  0  0  0  0  0  0  0  0
    1.7604   -1.4027   -8.4015 Cl  0  0  0  0  0  0  0  0  0  0  0  0
    7.2474    4.2773   -6.4405 S   0  0  0  0  0  0  0  0  0  0  0  0
    9.6095    6.5023    2.5573 H   0  0  0  0  0  0  0  0  0  0  0  0
   10.4740    5.8051    1.1756 H   0  0  0  0  0  0  0  0  0  0  0  0
    9.2220    4.8623    2.0075 H   0  0  0  0  0  0  0  0  0  0  0  0
    8.7399    7.4539    0.4435 H   0  0  0  0  0  0  0  0  0  0  0  0
    7.4943    6.5168    1.2723 H   0  0  0  0  0  0  0  0  0  0  0  0
    7.9984    4.5480   -0.2026 H   0  0  0  0  0  0  0  0  0  0  0  0
    9.2389    5.4834   -1.0298 H   0  0  0  0  0  0  0  0  0  0  0  0
    7.5030    7.1451   -1.7678 H   0  0  0  0  0  0  0  0  0  0  0  0
    6.2539    6.2052   -0.9336 H   0  0  0  0  0  0  0  0  0  0  0  0
    5.9205    1.8863   -4.1085 H   0  0  0  0  0  0  0  0  0  0  0  0
    6.2422    0.8278   -6.4755 H   0  0  0  0  0  0  0  0  0  0  0  0
    9.4571    4.3019   -7.8524 H   0  0  0  0  0  0  0  0  0  0  0  0
    9.5358    4.8503   -9.5173 H   0  0  0  0  0  0  0  0  0  0  0  0
   10.5634    3.5133   -8.9360 H   0  0  0  0  0  0  0  0  0  0  0  0
    8.3812    1.0238  -12.7294 H   0  0  0  0  0  0  0  0  0  0  0  0
   10.3134    2.7226  -14.1863 H   0  0  0  0  0  0  0  0  0  0  0  0
    9.2706    1.4781  -14.8779 H   0  0  0  0  0  0  0  0  0  0  0  0
   11.8541    0.9940  -13.2827 H   0  0  0  0  0  0  0  0  0  0  0  0
   11.6962    0.9091  -15.0330 H   0  0  0  0  0  0  0  0  0  0  0  0
   10.0936   -0.9904  -14.8257 H   0  0  0  0  0  0  0  0  0  0  0  0
   10.2270   -0.9175  -13.0663 H   0  0  0  0  0  0  0  0  0  0  0  0
   12.6832   -1.4089  -13.2356 H   0  0  0  0  0  0  0  0  0  0  0  0
   12.5408   -1.5073  -14.9916 H   0  0  0  0  0  0  0  0  0  0  0  0
   10.9241   -3.4122  -14.7537 H   0  0  0  0  0  0  0  0  0  0  0  0
   11.0627   -3.3107  -12.9976 H   0  0  0  0  0  0  0  0  0  0  0  0
   13.3640   -3.9501  -14.9199 H   0  0  0  0  0  0  0  0  0  0  0  0
   12.5043   -5.1077  -13.8926 H   0  0  0  0  0  0  0  0  0  0  0  0
   13.5034   -3.8468  -13.1536 H   0  0  0  0  0  0  0  0  0  0  0  0
    4.6539    2.4258   -8.0647 H   0  0  0  0  0  0  0  0  0  0  0  0
    2.6498    1.1645   -7.5402 H   0  0  0  0  0  0  0  0  0  0  0  0
    4.0353   -2.1094   -9.9485 H   0  0  0  0  0  0  0  0  0  0  0  0
  1  2  1  0  0  0  0
  1 35  1  0  0  0  0
  1 36  1  0  0  0  0
  1 37  1  0  0  0  0
  2  3  1  0  0  0  0
  2 38  1  0  0  0  0
  2 39  1  0  0  0  0
  3  4  1  0  0  0  0
  3 40  1  0  0  0  0
  3 41  1  0  0  0  0
  4  5  1  0  0  0  0
  4 42  1  0  0  0  0
  4 43  1  0  0  0  0
  5  6  3  0  0  0  0
  6  7  1  0  0  0  0
  7 34  1  0  0  0  0
  7  8  2  0  0  0  0
  8  9  1  0  0  0  0
  8 44  1  0  0  0  0
  9 10  2  0  0  0  0
  9 45  1  0  0  0  0
 10 11  1  0  0  0  0
 10 34  1  0  0  0  0
 11 25  1  0  0  0  0
 11 12  2  0  0  0  0
 12 13  1  0  0  0  0
 12 14  1  0  0  0  0
 13 46  1  0  0  0  0
 13 47  1  0  0  0  0
 13 48  1  0  0  0  0
 14 15  1  0  0  0  0
 14 24  2  0  0  0  0
 15 16  2  0  0  0  0
 15 17  1  0  0  0  0
 17 18  1  0  0  0  0
 17 49  1  0  0  0  0
 18 19  1  0  0  0  0
 18 50  1  0  0  0  0
 18 51  1  0  0  0  0
 19 20  1  0  0  0  0
 19 52  1  0  0  0  0
 19 53  1  0  0  0  0
 20 21  1  0  0  0  0
 20 54  1  0  0  0  0
 20 55  1  0  0  0  0
 21 22  1  0  0  0  0
 21 56  1  0  0  0  0
 21 57  1  0  0  0  0
 22 23  1  0  0  0  0
 22 58  1  0  0  0  0
 22 59  1  0  0  0  0
 23 60  1  0  0  0  0
 23 61  1  0  0  0  0
 23 62  1  0  0  0  0
 24 25  1  0  0  0  0
 25 26  1  0  0  0  0
 26 31  2  0  0  0  0
 26 27  1  0  0  0  0
 27 28  2  0  0  0  0
 27 63  1  0  0  0  0
 28 29  1  0  0  0  0
 28 64  1  0  0  0  0
 29 30  2  0  0  0  0
 29 33  1  0  0  0  0
 30 31  1  0  0  0  0
 30 65  1  0  0  0  0
 31 32  1  0  0  0  0
M  END
$$$$
CHEMBL577165
 OpenBabel12022417383D

 47 50  0  0  0  0  0  0  0  0999 V2000
    1.1832    0.4496   -0.0238 C   0  0  0  0  0  0  0  0  0  0  0  0
    2.6499    0.2019   -0.0078 C   0  0  0  0  0  0  0  0  0  0  0  0
    3.6640    1.2225    0.0825 C   0  0  0  0  0  0  0  0  0  0  0  0
    3.4822    2.7080    0.0364 C   0  0  0  0  0  0  0  0  0  0  0  0
    2.3855    3.2339   -0.1078 O   0  0  0  0  0  0  0  0  0  0  0  0
    4.6632    3.4174    0.1578 N   0  0  0  0  0  0  0  0  0  0  0  0
    4.8389    4.8622    0.1873 C   0  0  0  0  0  0  0  0  0  0  0  0
    4.4255    5.6359   -1.0621 C   0  0  0  0  0  0  0  0  0  0  0  0
    4.5001    7.0959   -0.6080 C   0  0  0  0  0  0  0  0  0  0  0  0
    4.1780    7.0823    0.8876 C   0  0  0  0  0  0  0  0  0  0  0  0
    4.0972    5.6072    1.2961 C   0  0  0  0  0  0  0  0  0  0  0  0
    4.8820    0.6694    0.2640 N   0  0  0  0  0  0  0  0  0  0  0  0
    4.6950   -0.6709    0.1045 N   0  0  0  0  0  0  0  0  0  0  0  0
    5.8427   -1.4910   -0.1224 C   0  0  0  0  0  0  0  0  0  0  0  0
    5.7916   -2.5741   -1.0125 C   0  0  0  0  0  0  0  0  0  0  0  0
    6.9299   -3.3574   -1.2272 C   0  0  0  0  0  0  0  0  0  0  0  0
    8.1244   -3.0604   -0.5687 C   0  0  0  0  0  0  0  0  0  0  0  0
    8.1783   -1.9774    0.3184 C   0  0  0  0  0  0  0  0  0  0  0  0
    7.0417   -1.1840    0.5288 C   0  0  0  0  0  0  0  0  0  0  0  0
    9.6142   -1.5749    1.1917 Cl  0  0  0  0  0  0  0  0  0  0  0  0
    9.4962   -4.0532   -0.9105 Cl  0  0  0  0  0  0  0  0  0  0  0  0
    3.3506   -0.9971    0.0484 C   0  0  0  0  0  0  0  0  0  0  0  0
    2.8460   -2.3068    0.1096 N   0  0  0  0  0  0  0  0  0  0  0  0
    3.4019   -3.3779    0.7892 C   0  0  0  0  0  0  0  0  0  0  0  0
    2.6364   -4.5079    0.5931 C   0  0  0  0  0  0  0  0  0  0  0  0
    1.5473   -4.1268   -0.2120 C   0  0  0  0  0  0  0  0  0  0  0  0
    1.6980   -2.7867   -0.4981 C   0  0  0  0  0  0  0  0  0  0  0  0
    0.5962   -0.4614    0.0927 H   0  0  0  0  0  0  0  0  0  0  0  0
    0.8807    0.9299   -0.9593 H   0  0  0  0  0  0  0  0  0  0  0  0
    0.8989    1.0972    0.8132 H   0  0  0  0  0  0  0  0  0  0  0  0
    5.4829    2.8288    0.2749 H   0  0  0  0  0  0  0  0  0  0  0  0
    5.9184    5.0129    0.3377 H   0  0  0  0  0  0  0  0  0  0  0  0
    3.4013    5.3970   -1.3680 H   0  0  0  0  0  0  0  0  0  0  0  0
    5.0848    5.4468   -1.9149 H   0  0  0  0  0  0  0  0  0  0  0  0
    3.8171    7.7414   -1.1700 H   0  0  0  0  0  0  0  0  0  0  0  0
    5.5134    7.4890   -0.7589 H   0  0  0  0  0  0  0  0  0  0  0  0
    3.2375    7.6024    1.1001 H   0  0  0  0  0  0  0  0  0  0  0  0
    4.9665    7.6010    1.4458 H   0  0  0  0  0  0  0  0  0  0  0  0
    4.5404    5.4358    2.2818 H   0  0  0  0  0  0  0  0  0  0  0  0
    3.0456    5.3064    1.3498 H   0  0  0  0  0  0  0  0  0  0  0  0
    4.8936   -2.8163   -1.5742 H   0  0  0  0  0  0  0  0  0  0  0  0
    6.8768   -4.1959   -1.9205 H   0  0  0  0  0  0  0  0  0  0  0  0
    7.0915   -0.3547    1.2343 H   0  0  0  0  0  0  0  0  0  0  0  0
    4.2982   -3.2579    1.3833 H   0  0  0  0  0  0  0  0  0  0  0  0
    2.8400   -5.4889    0.9987 H   0  0  0  0  0  0  0  0  0  0  0  0
    0.7435   -4.7629   -0.5632 H   0  0  0  0  0  0  0  0  0  0  0  0
    1.1001   -2.1524   -1.1307 H   0  0  0  0  0  0  0  0  0  0  0  0
  1  2  1  0  0  0  0
  1 28  1  0  0  0  0
  1 29  1  0  0  0  0
  1 30  1  0  0  0  0
  2 22  2  0  0  0  0
  2  3  1  0  0  0  0
  3  4  1  0  0  0  0
  3 12  2  0  0  0  0
  4  5  2  0  0  0  0
  4  6  1  0  0  0  0
  6  7  1  0  0  0  0
  6 31  1  0  0  0  0
  7 11  1  0  0  0  0
  7  8  1  0  0  0  0
  7 32  1  0  0  0  0
  8  9  1  0  0  0  0
  8 33  1  0  0  0  0
  8 34  1  0  0  0  0
  9 10  1  0  0  0  0
  9 35  1  0  0  0  0
  9 36  1  0  0  0  0
 10 11  1  0  0  0  0
 10 37  1  0  0  0  0
 10 38  1  0  0  0  0
 11 39  1  0  0  0  0
 11 40  1  0  0  0  0
 12 13  1  0  0  0  0
 13 14  1  0  0  0  0
 13 22  1  0  0  0  0
 14 19  2  0  0  0  0
 14 15  1  0  0  0  0
 15 16  2  0  0  0  0
 15 41  1  0  0  0  0
 16 17  1  0  0  0  0
 16 42  1  0  0  0  0
 17 18  2  0  0  0  0
 17 21  1  0  0  0  0
 18 19  1  0  0  0  0
 18 20  1  0  0  0  0
 19 43  1  0  0  0  0
 22 23  1  0  0  0  0
 23 27  1  0  0  0  0
 23 24  1  0  0  0  0
 24 25  2  0  0  0  0
 24 44  1  0  0  0  0
 25 26  1  0  0  0  0
 25 45  1  0  0  0  0
 26 27  2  0  0  0  0
 26 46  1  0  0  0  0
 27 47  1  0  0  0  0
M  END
$$$$
CHEMBL579247
 OpenBabel12022417383D

 47 50  0  0  0  0  0  0  0  0999 V2000
    1.1921    0.4881   -0.1064 C   0  0  0  0  0  0  0  0  0  0  0  0
    2.6481    0.1881   -0.0329 C   0  0  0  0  0  0  0  0  0  0  0  0
    3.6912    1.1666    0.0657 C   0  0  0  0  0  0  0  0  0  0  0  0
    3.5671    2.6535   -0.0083 C   0  0  0  0  0  0  0  0  0  0  0  0
    2.5018    3.2243   -0.2186 O   0  0  0  0  0  0  0  0  0  0  0  0
    4.7699    3.3057    0.1691 N   0  0  0  0  0  0  0  0  0  0  0  0
    5.0270    4.7329    0.1390 C   0  0  0  0  0  0  0  0  0  0  0  0
    4.7574    5.4432   -1.1849 C   0  0  0  0  0  0  0  0  0  0  0  0
    4.8957    6.9193   -0.8140 C   0  0  0  0  0  0  0  0  0  0  0  0
    4.4547    7.0222    0.6487 C   0  0  0  0  0  0  0  0  0  0  0  0
    4.2427    5.5850    1.1346 C   0  0  0  0  0  0  0  0  0  0  0  0
    4.8877    0.5783    0.2897 N   0  0  0  0  0  0  0  0  0  0  0  0
    4.6564   -0.7562    0.1572 N   0  0  0  0  0  0  0  0  0  0  0  0
    5.7734   -1.6308   -0.0149 C   0  0  0  0  0  0  0  0  0  0  0  0
    5.6773   -2.7797   -0.8139 C   0  0  0  0  0  0  0  0  0  0  0  0
    6.7652   -3.6481   -0.9351 C   0  0  0  0  0  0  0  0  0  0  0  0
    7.9614   -3.3728   -0.2706 C   0  0  0  0  0  0  0  0  0  0  0  0
    8.0739   -2.2111    0.5033 C   0  0  0  0  0  0  0  0  0  0  0  0
    6.9900   -1.3294    0.6132 C   0  0  0  0  0  0  0  0  0  0  0  0
    9.5151   -1.8253    1.3760 Cl  0  0  0  0  0  0  0  0  0  0  0  0
    9.2561   -4.5014   -0.4529 Cl  0  0  0  0  0  0  0  0  0  0  0  0
    3.3025   -1.0307    0.0854 C   0  0  0  0  0  0  0  0  0  0  0  0
    2.7464   -2.3116    0.1848 N   0  0  0  0  0  0  0  0  0  0  0  0
    3.2041   -3.3557    0.9714 C   0  0  0  0  0  0  0  0  0  0  0  0
    2.4182   -4.4685    0.7684 C   0  0  0  0  0  0  0  0  0  0  0  0
    1.4220   -4.1049   -0.1582 C   0  0  0  0  0  0  0  0  0  0  0  0
    1.6363   -2.7845   -0.4892 C   0  0  0  0  0  0  0  0  0  0  0  0
    0.5685   -0.4011   -0.0067 H   0  0  0  0  0  0  0  0  0  0  0  0
    0.9451    0.9689   -1.0573 H   0  0  0  0  0  0  0  0  0  0  0  0
    0.9008    1.1551    0.7130 H   0  0  0  0  0  0  0  0  0  0  0  0
    5.5558    2.6774    0.3173 H   0  0  0  0  0  0  0  0  0  0  0  0
    6.0963    4.8344    0.3701 H   0  0  0  0  0  0  0  0  0  0  0  0
    3.7436    5.2454   -1.5513 H   0  0  0  0  0  0  0  0  0  0  0  0
    5.4620    5.1542   -1.9705 H   0  0  0  0  0  0  0  0  0  0  0  0
    4.3063    7.5689   -1.4690 H   0  0  0  0  0  0  0  0  0  0  0  0
    5.9434    7.2338   -0.9014 H   0  0  0  0  0  0  0  0  0  0  0  0
    3.5380    7.6129    0.7514 H   0  0  0  0  0  0  0  0  0  0  0  0
    5.2310    7.5233    1.2391 H   0  0  0  0  0  0  0  0  0  0  0  0
    4.5890    5.4481    2.1636 H   0  0  0  0  0  0  0  0  0  0  0  0
    3.1728    5.3509    1.1133 H   0  0  0  0  0  0  0  0  0  0  0  0
    4.7748   -3.0176   -1.3730 H   0  0  0  0  0  0  0  0  0  0  0  0
    6.6680   -4.5415   -1.5488 H   0  0  0  0  0  0  0  0  0  0  0  0
    7.0870   -0.4350    1.2261 H   0  0  0  0  0  0  0  0  0  0  0  0
    4.0498   -3.2235    1.6338 H   0  0  0  0  0  0  0  0  0  0  0  0
    2.5488   -5.4324    1.2443 H   0  0  0  0  0  0  0  0  0  0  0  0
    0.6353   -4.7366   -0.5514 H   0  0  0  0  0  0  0  0  0  0  0  0
    1.1157   -2.1613   -1.2019 H   0  0  0  0  0  0  0  0  0  0  0  0
  1  2  1  0  0  0  0
  1 28  1  0  0  0  0
  1 29  1  0  0  0  0
  1 30  1  0  0  0  0
  2 22  2  0  0  0  0
  2  3  1  0  0  0  0
  3  4  1  0  0  0  0
  3 12  2  0  0  0  0
  4  5  2  0  0  0  0
  4  6  1  0  0  0  0
  6  7  1  0  0  0  0
  6 31  1  0  0  0  0
  7 11  1  0  0  0  0
  7  8  1  0  0  0  0
  7 32  1  0  0  0  0
  8  9  1  0  0  0  0
  8 33  1  0  0  0  0
  8 34  1  0  0  0  0
  9 10  1  0  0  0  0
  9 35  1  0  0  0  0
  9 36  1  0  0  0  0
 10 11  1  0  0  0  0
 10 37  1  0  0  0  0
 10 38  1  0  0  0  0
 11 39  1  0  0  0  0
 11 40  1  0  0  0  0
 12 13  1  0  0  0  0
 13 14  1  0  0  0  0
 13 22  1  0  0  0  0
 14 19  2  0  0  0  0
 14 15  1  0  0  0  0
 15 16  2  0  0  0  0
 15 41  1  0  0  0  0
 16 17  1  0  0  0  0
 16 42  1  0  0  0  0
 17 18  2  0  0  0  0
 17 21  1  0  0  0  0
 18 19  1  0  0  0  0
 18 43  1  0  0  0  0
 19 20  1  0  0  0  0
 22 23  1  0  0  0  0
 23 27  1  0  0  0  0
 23 24  1  0  0  0  0
 24 25  2  0  0  0  0
 24 44  1  0  0  0  0
 25 26  1  0  0  0  0
 25 45  1  0  0  0  0
 26 27  2  0  0  0  0
 26 46  1  0  0  0  0
 27 47  1  0  0  0  0
M  END
$$$$
CHEMBL526467
 OpenBabel12022417383D

 55 57  0  0  0  0  0  0  0  0999 V2000
    1.2127    0.4288    0.0465 C   0  0  0  0  0  0  0  0  0  0  0  0
    2.6836    0.1835   -0.0213 C   0  0  0  0  0  0  0  0  0  0  0  0
    3.6895    1.2109   -0.0223 C   0  0  0  0  0  0  0  0  0  0  0  0
    3.4824    2.6825    0.0116 C   0  0  0  0  0  0  0  0  0  0  0  0
    2.3499    3.1488    0.0078 O   0  0  0  0  0  0  0  0  0  0  0  0
    4.6525    3.4366    0.0346 N   0  0  0  0  0  0  0  0  0  0  0  0
    4.6961    4.8235    0.1028 C   0  0  0  0  0  0  0  0  0  0  0  0
    3.6896    5.5330    0.1335 O   0  0  0  0  0  0  0  0  0  0  0  0
    6.1321    5.4750    0.1457 C   0  0  0  0  0  0  0  0  0  0  0  0
    5.9764    7.0155    0.2424 C   0  0  0  0  0  0  0  0  0  0  0  0
    6.8052    5.0046    1.4545 C   0  0  0  0  0  0  0  0  0  0  0  0
    6.9164    5.0286   -1.0553 N   0  0  0  0  0  0  0  0  0  0  0  0
    6.2876    5.4331   -2.3247 C   0  0  0  0  0  0  0  0  0  0  0  0
    8.3030    5.5272   -1.0685 C   0  0  0  0  0  0  0  0  0  0  0  0
    4.9147    0.6760   -0.0402 N   0  0  0  0  0  0  0  0  0  0  0  0
    4.7266   -0.6719   -0.0892 N   0  0  0  0  0  0  0  0  0  0  0  0
    5.8630   -1.5045   -0.2890 C   0  0  0  0  0  0  0  0  0  0  0  0
    5.7970   -2.5402   -1.2403 C   0  0  0  0  0  0  0  0  0  0  0  0
    6.9066   -3.3578   -1.4668 C   0  0  0  0  0  0  0  0  0  0  0  0
    8.0843   -3.1379   -0.7579 C   0  0  0  0  0  0  0  0  0  0  0  0
    8.1587   -2.1236    0.1935 C   0  0  0  0  0  0  0  0  0  0  0  0
    7.0500   -1.3046    0.4353 C   0  0  0  0  0  0  0  0  0  0  0  0
    7.1982   -0.1897    1.7529 Cl  0  0  0  0  0  0  0  0  0  0  0  0
    9.4555   -4.1333   -1.0524 Cl  0  0  0  0  0  0  0  0  0  0  0  0
    3.3722   -1.0331   -0.0496 C   0  0  0  0  0  0  0  0  0  0  0  0
    2.8547   -2.4277    0.0438 C   0  0  0  0  0  0  0  0  0  0  0  0
    3.5208   -3.4123    0.7963 C   0  0  0  0  0  0  0  0  0  0  0  0
    3.0608   -4.7354    0.8465 C   0  0  0  0  0  0  0  0  0  0  0  0
    1.8795   -5.0825    0.2032 C   0  0  0  0  0  0  0  0  0  0  0  0
    1.1722   -4.1217   -0.5108 C   0  0  0  0  0  0  0  0  0  0  0  0
    1.6725   -2.8125   -0.6105 C   0  0  0  0  0  0  0  0  0  0  0  0
    1.2986   -6.6987    0.2875 Cl  0  0  0  0  0  0  0  0  0  0  0  0
    0.6350   -0.4807    0.2217 H   0  0  0  0  0  0  0  0  0  0  0  0
    0.8624    0.8732   -0.8926 H   0  0  0  0  0  0  0  0  0  0  0  0
    0.9683    1.1089    0.8679 H   0  0  0  0  0  0  0  0  0  0  0  0
    5.5216    2.9210   -0.0331 H   0  0  0  0  0  0  0  0  0  0  0  0
    5.4060    7.2938    1.1375 H   0  0  0  0  0  0  0  0  0  0  0  0
    5.4332    7.4328   -0.6121 H   0  0  0  0  0  0  0  0  0  0  0  0
    6.9417    7.5278    0.3144 H   0  0  0  0  0  0  0  0  0  0  0  0
    6.1539    5.1944    2.3150 H   0  0  0  0  0  0  0  0  0  0  0  0
    7.7444    5.5377    1.6487 H   0  0  0  0  0  0  0  0  0  0  0  0
    7.0233    3.9320    1.4417 H   0  0  0  0  0  0  0  0  0  0  0  0
    5.2630    5.0599   -2.4086 H   0  0  0  0  0  0  0  0  0  0  0  0
    6.8365    4.9994   -3.1689 H   0  0  0  0  0  0  0  0  0  0  0  0
    6.2760    6.5197   -2.4663 H   0  0  0  0  0  0  0  0  0  0  0  0
    8.8713    5.1871   -0.1982 H   0  0  0  0  0  0  0  0  0  0  0  0
    8.3637    6.6193   -1.1189 H   0  0  0  0  0  0  0  0  0  0  0  0
    8.8403    5.1342   -1.9406 H   0  0  0  0  0  0  0  0  0  0  0  0
    4.8999   -2.7119   -1.8326 H   0  0  0  0  0  0  0  0  0  0  0  0
    6.8470   -4.1574   -2.2018 H   0  0  0  0  0  0  0  0  0  0  0  0
    9.0751   -1.9822    0.7617 H   0  0  0  0  0  0  0  0  0  0  0  0
    4.4280   -3.1789    1.3496 H   0  0  0  0  0  0  0  0  0  0  0  0
    3.6308   -5.4849    1.3902 H   0  0  0  0  0  0  0  0  0  0  0  0
    0.2358   -4.3833   -0.9980 H   0  0  0  0  0  0  0  0  0  0  0  0
    1.1095   -2.1039   -1.2122 H   0  0  0  0  0  0  0  0  0  0  0  0
  1  2  1  0  0  0  0
  1 33  1  0  0  0  0
  1 34  1  0  0  0  0
  1 35  1  0  0  0  0
  2 25  2  0  0  0  0
  2  3  1  0  0  0  0
  3  4  1  0  0  0  0
  3 15  2  0  0  0  0
  4  5  2  0  0  0  0
  4  6  1  0  0  0  0
  6  7  1  0  0  0  0
  6 36  1  0  0  0  0
  7  8  2  0  0  0  0
  7  9  1  0  0  0  0
  9 10  1  0  0  0  0
  9 11  1  0  0  0  0
  9 12  1  0  0  0  0
 10 37  1  0  0  0  0
 10 38  1  0  0  0  0
 10 39  1  0  0  0  0
 11 40  1  0  0  0  0
 11 41  1  0  0  0  0
 11 42  1  0  0  0  0
 12 13  1  0  0  0  0
 12 14  1  0  0  0  0
 13 43  1  0  0  0  0
 13 44  1  0  0  0  0
 13 45  1  0  0  0  0
 14 46  1  0  0  0  0
 14 47  1  0  0  0  0
 14 48  1  0  0  0  0
 15 16  1  0  0  0  0
 16 17  1  0  0  0  0
 16 25  1  0  0  0  0
 17 22  2  0  0  0  0
 17 18  1  0  0  0  0
 18 19  2  0  0  0  0
 18 49  1  0  0  0  0
 19 20  1  0  0  0  0
 19 50  1  0  0  0  0
 20 21  2  0  0  0  0
 20 24  1  0  0  0  0
 21 22  1  0  0  0  0
 21 51  1  0  0  0  0
 22 23  1  0  0  0  0
 25 26  1  0  0  0  0
 26 31  2  0  0  0  0
 26 27  1  0  0  0  0
 27 28  2  0  0  0  0
 27 52  1  0  0  0  0
 28 29  1  0  0  0  0
 28 53  1  0  0  0  0
 29 30  2  0  0  0  0
 29 32  1  0  0  0  0
 30 31  1  0  0  0  0
 30 54  1  0  0  0  0
 31 55  1  0  0  0  0
M  END
$$$$
CHEMBL447695
 OpenBabel12022417383D

 67 72  0  0  0  0  0  0  0  0999 V2000
    4.3123    1.9924    2.8865 C   0  0  0  0  0  0  0  0  0  0  0  0
    5.0706    2.7909    1.8850 C   0  0  0  0  0  0  0  0  0  0  0  0
    4.6004    3.2007    0.6101 C   0  0  0  0  0  0  0  0  0  0  0  0
    3.4820    2.7888   -0.1035 N   0  0  0  0  0  0  0  0  0  0  0  0
    2.0082    3.5974    0.0707 S   0  0  0  0  0  0  0  0  0  0  0  0
    1.2415    3.3200   -1.1309 O   0  0  0  0  0  0  0  0  0  0  0  0
    1.4848    3.2063    1.3643 O   0  0  0  0  0  0  0  0  0  0  0  0
    2.1582    5.3520    0.0900 C   0  0  0  0  0  0  0  0  0  0  0  0
    2.6422    6.1744   -0.9661 C   0  0  0  0  0  0  0  0  0  0  0  0
    2.5327    7.4913   -0.4887 C   0  0  0  0  0  0  0  0  0  0  0  0
    2.9841    8.7692   -1.1073 C   0  0  0  0  0  0  0  0  0  0  0  0
    3.4914    9.8256   -0.3281 C   0  0  0  0  0  0  0  0  0  0  0  0
    3.6842   11.1048   -0.8651 C   0  0  0  0  0  0  0  0  0  0  0  0
    3.5018   11.3146   -2.2249 C   0  0  0  0  0  0  0  0  0  0  0  0
    3.1402   10.2530   -3.0461 C   0  0  0  0  0  0  0  0  0  0  0  0
    2.8634    8.9966   -2.4867 C   0  0  0  0  0  0  0  0  0  0  0  0
    3.7064   12.8878   -2.8868 Cl  0  0  0  0  0  0  0  0  0  0  0  0
    1.9177    7.3702    0.7780 N   0  0  0  0  0  0  0  0  0  0  0  0
    1.4683    8.3880    1.6832 C   0  0  0  0  0  0  0  0  0  0  0  0
    0.9545    9.5970    1.1747 C   0  0  0  0  0  0  0  0  0  0  0  0
    0.7249   10.6888    2.0182 C   0  0  0  0  0  0  0  0  0  0  0  0
    0.9194   10.5548    3.3869 C   0  0  0  0  0  0  0  0  0  0  0  0
    1.3118    9.3325    3.9218 C   0  0  0  0  0  0  0  0  0  0  0  0
    1.5928    8.2452    3.0806 C   0  0  0  0  0  0  0  0  0  0  0  0
    2.2247    6.8490    3.8904 Cl  0  0  0  0  0  0  0  0  0  0  0  0
    0.7057   11.9121    4.4209 Cl  0  0  0  0  0  0  0  0  0  0  0  0
    1.7406    6.0827    1.1266 N   0  0  0  0  0  0  0  0  0  0  0  0
    3.1717    5.7060   -2.2777 C   0  0  0  0  0  0  0  0  0  0  0  0
    5.4760    3.9628   -0.0137 N   0  0  0  0  0  0  0  0  0  0  0  0
    6.5782    3.9693    0.7541 N   0  0  0  0  0  0  0  0  0  0  0  0
    7.7886    4.4705    0.1936 C   0  0  0  0  0  0  0  0  0  0  0  0
    8.9963    3.7841    0.4181 C   0  0  0  0  0  0  0  0  0  0  0  0
   10.1866    4.2553   -0.1429 C   0  0  0  0  0  0  0  0  0  0  0  0
   10.1710    5.3882   -0.9519 C   0  0  0  0  0  0  0  0  0  0  0  0
    8.9824    6.0717   -1.1871 C   0  0  0  0  0  0  0  0  0  0  0  0
    7.7920    5.6285   -0.6041 C   0  0  0  0  0  0  0  0  0  0  0  0
    6.4355    6.6895   -0.7769 Cl  0  0  0  0  0  0  0  0  0  0  0  0
   11.6342    5.9680   -1.6443 Cl  0  0  0  0  0  0  0  0  0  0  0  0
    6.3564    3.3432    1.9902 C   0  0  0  0  0  0  0  0  0  0  0  0
    7.3099    3.3824    3.1288 C   0  0  0  0  0  0  0  0  0  0  0  0
    8.0893    4.5300    3.3678 C   0  0  0  0  0  0  0  0  0  0  0  0
    9.0346    4.5748    4.3980 C   0  0  0  0  0  0  0  0  0  0  0  0
    9.1633    3.4955    5.2612 C   0  0  0  0  0  0  0  0  0  0  0  0
    8.3759    2.3628    5.0792 C   0  0  0  0  0  0  0  0  0  0  0  0
    7.4745    2.2978    4.0044 C   0  0  0  0  0  0  0  0  0  0  0  0
   10.2993    3.5626    6.5498 Cl  0  0  0  0  0  0  0  0  0  0  0  0
    4.7804    2.0016    3.8729 H   0  0  0  0  0  0  0  0  0  0  0  0
    4.2281    0.9507    2.5599 H   0  0  0  0  0  0  0  0  0  0  0  0
    3.3053    2.3931    3.0293 H   0  0  0  0  0  0  0  0  0  0  0  0
    3.2774    1.7966   -0.0254 H   0  0  0  0  0  0  0  0  0  0  0  0
    3.6765    9.6965    0.7364 H   0  0  0  0  0  0  0  0  0  0  0  0
    3.9541   11.9296   -0.2100 H   0  0  0  0  0  0  0  0  0  0  0  0
    3.0392   10.3995   -4.1185 H   0  0  0  0  0  0  0  0  0  0  0  0
    2.5233    8.2144   -3.1572 H   0  0  0  0  0  0  0  0  0  0  0  0
    0.7620    9.7289    0.1113 H   0  0  0  0  0  0  0  0  0  0  0  0
    0.4197   11.6440    1.5960 H   0  0  0  0  0  0  0  0  0  0  0  0
    1.4446    9.2351    4.9971 H   0  0  0  0  0  0  0  0  0  0  0  0
    3.2664    4.6191   -2.3260 H   0  0  0  0  0  0  0  0  0  0  0  0
    4.1599    6.1272   -2.4753 H   0  0  0  0  0  0  0  0  0  0  0  0
    2.5007    6.0018   -3.0906 H   0  0  0  0  0  0  0  0  0  0  0  0
    9.0326    2.8710    1.0096 H   0  0  0  0  0  0  0  0  0  0  0  0
   11.1201    3.7316    0.0500 H   0  0  0  0  0  0  0  0  0  0  0  0
    8.9837    6.9688   -1.8011 H   0  0  0  0  0  0  0  0  0  0  0  0
    7.9913    5.4144    2.7424 H   0  0  0  0  0  0  0  0  0  0  0  0
    9.6591    5.4564    4.5168 H   0  0  0  0  0  0  0  0  0  0  0  0
    8.4612    1.5238    5.7662 H   0  0  0  0  0  0  0  0  0  0  0  0
    6.9083    1.3792    3.8743 H   0  0  0  0  0  0  0  0  0  0  0  0
  1  2  1  0  0  0  0
  1 47  1  0  0  0  0
  1 48  1  0  0  0  0
  1 49  1  0  0  0  0
  2 39  2  0  0  0  0
  2  3  1  0  0  0  0
  3  4  1  0  0  0  0
  3 29  2  0  0  0  0
  4  5  1  0  0  0  0
  4 50  1  0  0  0  0
  5  6  2  0  0  0  0
  5  7  2  0  0  0  0
  5  8  1  0  0  0  0
  8 27  2  0  0  0  0
  8  9  1  0  0  0  0
  9 10  2  0  0  0  0
  9 28  1  0  0  0  0
 10 11  1  0  0  0  0
 10 18  1  0  0  0  0
 11 16  2  0  0  0  0
 11 12  1  0  0  0  0
 12 13  2  0  0  0  0
 12 51  1  0  0  0  0
 13 14  1  0  0  0  0
 13 52  1  0  0  0  0
 14 15  2  0  0  0  0
 14 17  1  0  0  0  0
 15 16  1  0  0  0  0
 15 53  1  0  0  0  0
 16 54  1  0  0  0  0
 18 19  1  0  0  0  0
 18 27  1  0  0  0  0
 19 24  2  0  0  0  0
 19 20  1  0  0  0  0
 20 21  2  0  0  0  0
 20 55  1  0  0  0  0
 21 22  1  0  0  0  0
 21 56  1  0  0  0  0
 22 23  2  0  0  0  0
 22 26  1  0  0  0  0
 23 24  1  0  0  0  0
 23 57  1  0  0  0  0
 24 25  1  0  0  0  0
 28 58  1  0  0  0  0
 28 59  1  0  0  0  0
 28 60  1  0  0  0  0
 29 30  1  0  0  0  0
 30 31  1  0  0  0  0
 30 39  1  0  0  0  0
 31 36  2  0  0  0  0
 31 32  1  0  0  0  0
 32 33  2  0  0  0  0
 32 61  1  0  0  0  0
 33 34  1  0  0  0  0
 33 62  1  0  0  0  0
 34 35  2  0  0  0  0
 34 38  1  0  0  0  0
 35 36  1  0  0  0  0
 35 63  1  0  0  0  0
 36 37  1  0  0  0  0
 39 40  1  0  0  0  0
 40 45  2  0  0  0  0
 40 41  1  0  0  0  0
 41 42  2  0  0  0  0
 41 64  1  0  0  0  0
 42 43  1  0  0  0  0
 42 65  1  0  0  0  0
 43 44  2  0  0  0  0
 43 46  1  0  0  0  0
 44 45  1  0  0  0  0
 44 66  1  0  0  0  0
 45 67  1  0  0  0  0
M  END
$$$$
CHEMBL4087520
 OpenBabel12022417383D

 64 67  0  0  0  0  0  0  0  0999 V2000
    1.0593    0.3068    0.0727 C   0  0  0  0  0  0  0  0  0  0  0  0
    2.5378    0.1350   -0.0268 C   0  0  0  0  0  0  0  0  0  0  0  0
    3.5037    1.1357   -0.1045 C   0  0  0  0  0  0  0  0  0  0  0  0
    3.2879    2.6072   -0.1552 C   0  0  0  0  0  0  0  0  0  0  0  0
    2.1678    3.1140   -0.1980 O   0  0  0  0  0  0  0  0  0  0  0  0
    4.4834    3.3324   -0.1419 N   0  0  0  0  0  0  0  0  0  0  0  0
    4.6037    4.7610   -0.1463 N   0  0  0  0  0  0  0  0  0  0  0  0
    4.2169    5.3799   -1.4204 C   0  0  0  0  0  0  0  0  0  0  0  0
    4.5741    6.8738   -1.4367 C   0  0  0  0  0  0  0  0  0  0  0  0
    3.9600    7.6165   -0.2546 C   0  0  0  0  0  0  0  0  0  0  0  0
    4.3013    6.9082    1.0524 C   0  0  0  0  0  0  0  0  0  0  0  0
    3.9500    5.4149    0.9985 C   0  0  0  0  0  0  0  0  0  0  0  0
    4.7605    0.5631   -0.1191 N   0  0  0  0  0  0  0  0  0  0  0  0
    4.6077   -0.7524   -0.0557 C   0  0  0  0  0  0  0  0  0  0  0  0
    5.7443   -1.7116   -0.1252 C   0  0  0  0  0  0  0  0  0  0  0  0
    6.9581   -1.5027    0.5602 C   0  0  0  0  0  0  0  0  0  0  0  0
    7.9369   -2.5083    0.6151 C   0  0  0  0  0  0  0  0  0  0  0  0
    7.7079   -3.7400    0.0130 C   0  0  0  0  0  0  0  0  0  0  0  0
    6.5561   -3.9447   -0.7320 C   0  0  0  0  0  0  0  0  0  0  0  0
    5.6226   -2.9114   -0.8564 C   0  0  0  0  0  0  0  0  0  0  0  0
    8.8446   -5.0165    0.1949 Cl  0  0  0  0  0  0  0  0  0  0  0  0
    7.3255   -0.0399    1.4108 Cl  0  0  0  0  0  0  0  0  0  0  0  0
    3.2333   -1.0800    0.0211 N   0  0  0  0  0  0  0  0  0  0  0  0
    2.6606   -2.4006    0.0534 C   0  0  0  0  0  0  0  0  0  0  0  0
    3.2503   -3.4519    0.7768 C   0  0  0  0  0  0  0  0  0  0  0  0
    2.8131   -4.7787    0.6055 C   0  0  0  0  0  0  0  0  0  0  0  0
    1.7111   -5.0557   -0.2040 C   0  0  0  0  0  0  0  0  0  0  0  0
    1.0920   -4.0065   -0.8891 C   0  0  0  0  0  0  0  0  0  0  0  0
    1.5654   -2.6962   -0.7677 C   0  0  0  0  0  0  0  0  0  0  0  0
    1.3099   -6.3686   -0.3083 O   0  0  0  0  0  0  0  0  0  0  0  0
   -0.2938   -6.6932   -0.4429 S   0  0  0  0  0  0  0  0  0  0  0  0
   -0.9727   -6.2030    0.7319 O   0  0  0  0  0  0  0  0  0  0  0  0
   -0.7363   -6.3749   -1.7802 O   0  0  0  0  0  0  0  0  0  0  0  0
   -0.2336   -8.4772   -0.3204 C   0  0  0  0  0  0  0  0  0  0  0  0
   -1.6647   -9.0060   -0.4237 C   0  0  0  0  0  0  0  0  0  0  0  0
   -1.7647  -10.5044   -0.3358 C   0  0  0  0  0  0  0  0  0  0  0  0
   -0.5514  -11.0879   -0.2013 F   0  0  0  0  0  0  0  0  0  0  0  0
   -2.5189  -10.8725    0.7210 F   0  0  0  0  0  0  0  0  0  0  0  0
   -2.3416  -11.0080   -1.4458 F   0  0  0  0  0  0  0  0  0  0  0  0
    0.5191   -0.6099    0.3123 H   0  0  0  0  0  0  0  0  0  0  0  0
    0.6644    0.7006   -0.8708 H   0  0  0  0  0  0  0  0  0  0  0  0
    0.8114    1.0153    0.8700 H   0  0  0  0  0  0  0  0  0  0  0  0
    5.3395    2.7801   -0.0871 H   0  0  0  0  0  0  0  0  0  0  0  0
    3.1434    5.2606   -1.6105 H   0  0  0  0  0  0  0  0  0  0  0  0
    4.7528    4.8961   -2.2456 H   0  0  0  0  0  0  0  0  0  0  0  0
    4.2318    7.3306   -2.3728 H   0  0  0  0  0  0  0  0  0  0  0  0
    5.6651    6.9937   -1.4082 H   0  0  0  0  0  0  0  0  0  0  0  0
    2.8711    7.6666   -0.3751 H   0  0  0  0  0  0  0  0  0  0  0  0
    4.3245    8.6508   -0.2284 H   0  0  0  0  0  0  0  0  0  0  0  0
    3.7640    7.3883    1.8788 H   0  0  0  0  0  0  0  0  0  0  0  0
    5.3726    7.0293    1.2589 H   0  0  0  0  0  0  0  0  0  0  0  0
    4.2871    4.9522    1.9335 H   0  0  0  0  0  0  0  0  0  0  0  0
    2.8598    5.3074    0.9518 H   0  0  0  0  0  0  0  0  0  0  0  0
    8.8653   -2.3373    1.1549 H   0  0  0  0  0  0  0  0  0  0  0  0
    6.3603   -4.9069   -1.2000 H   0  0  0  0  0  0  0  0  0  0  0  0
    4.7481   -3.0990   -1.4779 H   0  0  0  0  0  0  0  0  0  0  0  0
    4.0869   -3.2756    1.4505 H   0  0  0  0  0  0  0  0  0  0  0  0
    3.3419   -5.5871    1.1051 H   0  0  0  0  0  0  0  0  0  0  0  0
    0.2457   -4.1763   -1.5456 H   0  0  0  0  0  0  0  0  0  0  0  0
    1.0923   -1.9372   -1.3857 H   0  0  0  0  0  0  0  0  0  0  0  0
    0.2243   -8.7444    0.6375 H   0  0  0  0  0  0  0  0  0  0  0  0
    0.3910   -8.8441   -1.1450 H   0  0  0  0  0  0  0  0  0  0  0  0
   -2.1123   -8.6691   -1.3642 H   0  0  0  0  0  0  0  0  0  0  0  0
   -2.2762   -8.5570    0.3735 H   0  0  0  0  0  0  0  0  0  0  0  0
  1  2  1  0  0  0  0
  1 40  1  0  0  0  0
  1 41  1  0  0  0  0
  1 42  1  0  0  0  0
  2 23  1  0  0  0  0
  2  3  2  0  0  0  0
  3  4  1  0  0  0  0
  3 13  1  0  0  0  0
  4  5  2  0  0  0  0
  4  6  1  0  0  0  0
  6  7  1  0  0  0  0
  6 43  1  0  0  0  0
  7 12  1  0  0  0  0
  7  8  1  0  0  0  0
  8  9  1  0  0  0  0
  8 44  1  0  0  0  0
  8 45  1  0  0  0  0
  9 10  1  0  0  0  0
  9 46  1  0  0  0  0
  9 47  1  0  0  0  0
 10 11  1  0  0  0  0
 10 48  1  0  0  0  0
 10 49  1  0  0  0  0
 11 12  1  0  0  0  0
 11 50  1  0  0  0  0
 11 51  1  0  0  0  0
 12 52  1  0  0  0  0
 12 53  1  0  0  0  0
 13 14  2  0  0  0  0
 14 15  1  0  0  0  0
 14 23  1  0  0  0  0
 15 20  2  0  0  0  0
 15 16  1  0  0  0  0
 16 17  2  0  0  0  0
 16 22  1  0  0  0  0
 17 18  1  0  0  0  0
 17 54  1  0  0  0  0
 18 19  2  0  0  0  0
 18 21  1  0  0  0  0
 19 20  1  0  0  0  0
 19 55  1  0  0  0  0
 20 56  1  0  0  0  0
 23 24  1  0  0  0  0
 24 29  2  0  0  0  0
 24 25  1  0  0  0  0
 25 26  2  0  0  0  0
 25 57  1  0  0  0  0
 26 27  1  0  0  0  0
 26 58  1  0  0  0  0
 27 28  2  0  0  0  0
 27 30  1  0  0  0  0
 28 29  1  0  0  0  0
 28 59  1  0  0  0  0
 29 60  1  0  0  0  0
 30 31  1  0  0  0  0
 31 32  2  0  0  0  0
 31 33  2  0  0  0  0
 31 34  1  0  0  0  0
 34 35  1  0  0  0  0
 34 61  1  0  0  0  0
 34 62  1  0  0  0  0
 35 36  1  0  0  0  0
 35 63  1  0  0  0  0
 35 64  1  0  0  0  0
 36 37  1  0  0  0  0
 36 38  1  0  0  0  0
 36 39  1  0  0  0  0
M  END
$$$$
CHEMBL1269769
 OpenBabel12022417383D

105110  0  0  0  0  0  0  0  0999 V2000
    3.5380    0.3772   -3.3291 C   0  0  0  0  0  0  0  0  0  0  0  0
    2.4335   -0.1342   -2.4811 C   0  0  0  0  0  0  0  0  0  0  0  0
    1.4252    0.6822   -1.8712 C   0  0  0  0  0  0  0  0  0  0  0  0
    1.2983    2.1597   -1.9320 C   0  0  0  0  0  0  0  0  0  0  0  0
    2.1237    2.8727   -2.5039 O   0  0  0  0  0  0  0  0  0  0  0  0
    0.1854    2.6649   -1.2974 N   0  0  0  0  0  0  0  0  0  0  0  0
   -0.1778    4.0703   -1.2987 C   0  0  0  0  0  0  0  0  0  0  0  0
    0.3760    4.8196   -0.0834 C   0  0  0  0  0  0  0  0  0  0  0  0
    0.0366    6.3221   -0.0610 C   0  0  0  0  0  0  0  0  0  0  0  0
   -1.4689    6.6022    0.0385 C   0  0  0  0  0  0  0  0  0  0  0  0
   -1.7861    8.1085    0.1158 C   0  0  0  0  0  0  0  0  0  0  0  0
   -3.2363    8.4006    0.1218 N   0  0  0  0  0  0  0  0  0  0  0  0
   -3.8987    7.8247    1.3005 C   0  0  0  0  0  0  0  0  0  0  0  0
   -3.5093    9.8546    0.0995 C   0  0  0  0  0  0  0  0  0  0  0  0
   -3.0680   10.5885   -1.1769 C   0  0  0  0  0  0  0  0  0  0  0  0
   -3.7203   10.0869   -2.4721 C   0  0  0  0  0  0  0  0  0  0  0  0
   -5.2501   10.2186   -2.5377 C   0  0  0  0  0  0  0  0  0  0  0  0
   -5.7466   11.6647   -2.4461 C   0  0  0  0  0  0  0  0  0  0  0  0
   -7.1917   11.7580   -2.4375 N   0  0  0  0  0  0  0  0  0  0  0  0
   -7.9265   11.7790   -1.2657 C   0  0  0  0  0  0  0  0  0  0  0  0
   -7.3862   11.6836   -0.1614 O   0  0  0  0  0  0  0  0  0  0  0  0
   -9.3882   11.9357   -1.4421 C   0  0  0  0  0  0  0  0  0  0  0  0
  -10.4102   11.9402   -0.4411 C   0  0  0  0  0  0  0  0  0  0  0  0
  -11.6245   12.1016   -1.1237 C   0  0  0  0  0  0  0  0  0  0  0  0
  -13.0149   12.1097   -0.5782 C   0  0  0  0  0  0  0  0  0  0  0  0
  -14.1040   11.5760   -1.2899 C   0  0  0  0  0  0  0  0  0  0  0  0
  -15.4273   11.7974   -0.8823 C   0  0  0  0  0  0  0  0  0  0  0  0
  -15.6810   12.4296    0.3271 C   0  0  0  0  0  0  0  0  0  0  0  0
  -14.6216   12.8413    1.1244 C   0  0  0  0  0  0  0  0  0  0  0  0
  -13.3046   12.7058    0.6611 C   0  0  0  0  0  0  0  0  0  0  0  0
  -17.3001   12.7101    0.8303 Cl  0  0  0  0  0  0  0  0  0  0  0  0
  -11.2593   12.2059   -2.4837 N   0  0  0  0  0  0  0  0  0  0  0  0
  -12.0843   12.4375   -3.6334 C   0  0  0  0  0  0  0  0  0  0  0  0
  -13.2114   13.2745   -3.5212 C   0  0  0  0  0  0  0  0  0  0  0  0
  -14.1477   13.3601   -4.5556 C   0  0  0  0  0  0  0  0  0  0  0  0
  -13.9182   12.6875   -5.7486 C   0  0  0  0  0  0  0  0  0  0  0  0
  -12.7596   11.9358   -5.9179 C   0  0  0  0  0  0  0  0  0  0  0  0
  -11.8407   11.7985   -4.8656 C   0  0  0  0  0  0  0  0  0  0  0  0
  -10.5337   10.7042   -5.1752 Cl  0  0  0  0  0  0  0  0  0  0  0  0
  -15.0782   12.7727   -7.0149 Cl  0  0  0  0  0  0  0  0  0  0  0  0
   -9.9189   12.0995   -2.6593 N   0  0  0  0  0  0  0  0  0  0  0  0
  -10.2000   11.7615    1.0244 C   0  0  0  0  0  0  0  0  0  0  0  0
    0.5253   -0.0757   -1.2154 N   0  0  0  0  0  0  0  0  0  0  0  0
    0.9682   -1.3497   -1.3252 N   0  0  0  0  0  0  0  0  0  0  0  0
    0.3212   -2.3536   -0.5486 C   0  0  0  0  0  0  0  0  0  0  0  0
    1.1070   -3.2771    0.1668 C   0  0  0  0  0  0  0  0  0  0  0  0
    0.4993   -4.2584    0.9548 C   0  0  0  0  0  0  0  0  0  0  0  0
   -0.8882   -4.3101    1.0480 C   0  0  0  0  0  0  0  0  0  0  0  0
   -1.6780   -3.4116    0.3346 C   0  0  0  0  0  0  0  0  0  0  0  0
   -1.0791   -2.4342   -0.4703 C   0  0  0  0  0  0  0  0  0  0  0  0
   -2.1548   -1.4913   -1.4475 Cl  0  0  0  0  0  0  0  0  0  0  0  0
   -1.6324   -5.4973    2.0453 Cl  0  0  0  0  0  0  0  0  0  0  0  0
    2.1211   -1.4553   -2.1176 C   0  0  0  0  0  0  0  0  0  0  0  0
    2.7640   -2.7275   -2.5335 C   0  0  0  0  0  0  0  0  0  0  0  0
    2.0066   -3.8849   -2.7920 C   0  0  0  0  0  0  0  0  0  0  0  0
    2.6173   -5.0966   -3.1406 C   0  0  0  0  0  0  0  0  0  0  0  0
    3.9933   -5.1504   -3.3184 C   0  0  0  0  0  0  0  0  0  0  0  0
    4.7653   -4.0123   -3.1121 C   0  0  0  0  0  0  0  0  0  0  0  0
    4.1563   -2.8225   -2.6897 C   0  0  0  0  0  0  0  0  0  0  0  0
    4.7404   -6.6235   -3.7942 Cl  0  0  0  0  0  0  0  0  0  0  0  0
    4.1007   -0.4128   -3.8252 H   0  0  0  0  0  0  0  0  0  0  0  0
    4.2353    0.9657   -2.7263 H   0  0  0  0  0  0  0  0  0  0  0  0
    3.1414    1.0151   -4.1285 H   0  0  0  0  0  0  0  0  0  0  0  0
   -0.4245    1.9720   -0.8652 H   0  0  0  0  0  0  0  0  0  0  0  0
   -1.2708    4.1051   -1.3097 H   0  0  0  0  0  0  0  0  0  0  0  0
    0.1869    4.5322   -2.2220 H   0  0  0  0  0  0  0  0  0  0  0  0
    1.4682    4.7136   -0.0621 H   0  0  0  0  0  0  0  0  0  0  0  0
    0.0052    4.3513    0.8369 H   0  0  0  0  0  0  0  0  0  0  0  0
    0.4516    6.8084   -0.9514 H   0  0  0  0  0  0  0  0  0  0  0  0
    0.5368    6.7722    0.8056 H   0  0  0  0  0  0  0  0  0  0  0  0
   -1.8456    6.0861    0.9272 H   0  0  0  0  0  0  0  0  0  0  0  0
   -1.9827    6.1841   -0.8337 H   0  0  0  0  0  0  0  0  0  0  0  0
   -1.3310    8.5651   -0.7698 H   0  0  0  0  0  0  0  0  0  0  0  0
   -1.2989    8.5521    0.9936 H   0  0  0  0  0  0  0  0  0  0  0  0
   -3.8268    6.7333    1.3137 H   0  0  0  0  0  0  0  0  0  0  0  0
   -4.9728    8.0429    1.2862 H   0  0  0  0  0  0  0  0  0  0  0  0
   -3.4814    8.2139    2.2367 H   0  0  0  0  0  0  0  0  0  0  0  0
   -3.0382   10.3394    0.9648 H   0  0  0  0  0  0  0  0  0  0  0  0
   -4.5889   10.0193    0.2133 H   0  0  0  0  0  0  0  0  0  0  0  0
   -1.9786   10.5307   -1.2844 H   0  0  0  0  0  0  0  0  0  0  0  0
   -3.2772   11.6571   -1.0511 H   0  0  0  0  0  0  0  0  0  0  0  0
   -3.4504    9.0348   -2.6271 H   0  0  0  0  0  0  0  0  0  0  0  0
   -3.2810   10.6386   -3.3128 H   0  0  0  0  0  0  0  0  0  0  0  0
   -5.7113    9.6069   -1.7546 H   0  0  0  0  0  0  0  0  0  0  0  0
   -5.5903    9.7917   -3.4901 H   0  0  0  0  0  0  0  0  0  0  0  0
   -5.3831   12.2460   -3.2992 H   0  0  0  0  0  0  0  0  0  0  0  0
   -5.3697   12.1404   -1.5343 H   0  0  0  0  0  0  0  0  0  0  0  0
   -7.7250   11.8168   -3.2996 H   0  0  0  0  0  0  0  0  0  0  0  0
  -13.9543   11.0349   -2.2214 H   0  0  0  0  0  0  0  0  0  0  0  0
  -16.2485   11.4875   -1.5242 H   0  0  0  0  0  0  0  0  0  0  0  0
  -14.8081   13.2982    2.0932 H   0  0  0  0  0  0  0  0  0  0  0  0
  -12.5184   13.1074    1.2912 H   0  0  0  0  0  0  0  0  0  0  0  0
  -13.4040   13.8458   -2.6147 H   0  0  0  0  0  0  0  0  0  0  0  0
  -15.0585   13.9377   -4.4132 H   0  0  0  0  0  0  0  0  0  0  0  0
  -12.5884   11.4202   -6.8604 H   0  0  0  0  0  0  0  0  0  0  0  0
   -9.1668   11.5345    1.2885 H   0  0  0  0  0  0  0  0  0  0  0  0
  -10.8116   10.9358    1.3995 H   0  0  0  0  0  0  0  0  0  0  0  0
  -10.4574   12.6763    1.5657 H   0  0  0  0  0  0  0  0  0  0  0  0
    2.1936   -3.2371    0.1420 H   0  0  0  0  0  0  0  0  0  0  0  0
    1.1152   -4.9710    1.4993 H   0  0  0  0  0  0  0  0  0  0  0  0
   -2.7621   -3.4846    0.3898 H   0  0  0  0  0  0  0  0  0  0  0  0
    0.9225   -3.8768   -2.7140 H   0  0  0  0  0  0  0  0  0  0  0  0
    2.0077   -5.9862   -3.2785 H   0  0  0  0  0  0  0  0  0  0  0  0
    5.8403   -4.0417   -3.2712 H   0  0  0  0  0  0  0  0  0  0  0  0
    4.8010   -1.9704   -2.4892 H   0  0  0  0  0  0  0  0  0  0  0  0
  1  2  1  0  0  0  0
  1 61  1  0  0  0  0
  1 62  1  0  0  0  0
  1 63  1  0  0  0  0
  2 53  2  0  0  0  0
  2  3  1  0  0  0  0
  3  4  1  0  0  0  0
  3 43  2  0  0  0  0
  4  5  2  0  0  0  0
  4  6  1  0  0  0  0
  6  7  1  0  0  0  0
  6 64  1  0  0  0  0
  7  8  1  0  0  0  0
  7 65  1  0  0  0  0
  7 66  1  0  0  0  0
  8  9  1  0  0  0  0
  8 67  1  0  0  0  0
  8 68  1  0  0  0  0
  9 10  1  0  0  0  0
  9 69  1  0  0  0  0
  9 70  1  0  0  0  0
 10 11  1  0  0  0  0
 10 71  1  0  0  0  0
 10 72  1  0  0  0  0
 11 12  1  0  0  0  0
 11 73  1  0  0  0  0
 11 74  1  0  0  0  0
 12 13  1  0  0  0  0
 12 14  1  0  0  0  0
 13 75  1  0  0  0  0
 13 76  1  0  0  0  0
 13 77  1  0  0  0  0
 14 15  1  0  0  0  0
 14 78  1  0  0  0  0
 14 79  1  0  0  0  0
 15 16  1  0  0  0  0
 15 80  1  0  0  0  0
 15 81  1  0  0  0  0
 16 17  1  0  0  0  0
 16 82  1  0  0  0  0
 16 83  1  0  0  0  0
 17 18  1  0  0  0  0
 17 84  1  0  0  0  0
 17 85  1  0  0  0  0
 18 19  1  0  0  0  0
 18 86  1  0  0  0  0
 18 87  1  0  0  0  0
 19 20  1  0  0  0  0
 19 88  1  0  0  0  0
 20 21  2  0  0  0  0
 20 22  1  0  0  0  0
 22 41  2  0  0  0  0
 22 23  1  0  0  0  0
 23 24  2  0  0  0  0
 23 42  1  0  0  0  0
 24 25  1  0  0  0  0
 24 32  1  0  0  0  0
 25 30  2  0  0  0  0
 25 26  1  0  0  0  0
 26 27  2  0  0  0  0
 26 89  1  0  0  0  0
 27 28  1  0  0  0  0
 27 90  1  0  0  0  0
 28 29  2  0  0  0  0
 28 31  1  0  0  0  0
 29 30  1  0  0  0  0
 29 91  1  0  0  0  0
 30 92  1  0  0  0  0
 32 33  1  0  0  0  0
 32 41  1  0  0  0  0
 33 38  2  0  0  0  0
 33 34  1  0  0  0  0
 34 35  2  0  0  0  0
 34 93  1  0  0  0  0
 35 36  1  0  0  0  0
 35 94  1  0  0  0  0
 36 37  2  0  0  0  0
 36 40  1  0  0  0  0
 37 38  1  0  0  0  0
 37 95  1  0  0  0  0
 38 39  1  0  0  0  0
 42 96  1  0  0  0  0
 42 97  1  0  0  0  0
 42 98  1  0  0  0  0
 43 44  1  0  0  0  0
 44 45  1  0  0  0  0
 44 53  1  0  0  0  0
 45 50  2  0  0  0  0
 45 46  1  0  0  0  0
 46 47  2  0  0  0  0
 46 99  1  0  0  0  0
 47 48  1  0  0  0  0
 47100  1  0  0  0  0
 48 49  2  0  0  0  0
 48 52  1  0  0  0  0
 49 50  1  0  0  0  0
 49101  1  0  0  0  0
 50 51  1  0  0  0  0
 53 54  1  0  0  0  0
 54 59  2  0  0  0  0
 54 55  1  0  0  0  0
 55 56  2  0  0  0  0
 55102  1  0  0  0  0
 56 57  1  0  0  0  0
 56103  1  0  0  0  0
 57 58  2  0  0  0  0
 57 60  1  0  0  0  0
 58 59  1  0  0  0  0
 58104  1  0  0  0  0
 59105  1  0  0  0  0
M  END
$$$$
CHEMBL462686
 OpenBabel12022417383D

 65 68  0  0  0  0  0  0  0  0999 V2000
    1.1089    0.4265   -0.0513 C   0  0  0  0  0  0  0  0  0  0  0  0
    2.5829    0.1946   -0.1210 C   0  0  0  0  0  0  0  0  0  0  0  0
    3.5949    1.2072   -0.0548 C   0  0  0  0  0  0  0  0  0  0  0  0
    3.4063    2.6876    0.0605 C   0  0  0  0  0  0  0  0  0  0  0  0
    2.2917    3.2050    0.0184 O   0  0  0  0  0  0  0  0  0  0  0  0
    4.6057    3.3811    0.2190 N   0  0  0  0  0  0  0  0  0  0  0  0
    4.7267    4.8043    0.2985 N   0  0  0  0  0  0  0  0  0  0  0  0
    4.5131    5.4709   -0.9856 C   0  0  0  0  0  0  0  0  0  0  0  0
    5.3584    6.7459   -1.1479 C   0  0  0  0  0  0  0  0  0  0  0  0
    4.8417    7.9917   -0.4401 C   0  0  0  0  0  0  0  0  0  0  0  0
    4.6895    7.8399    1.0681 C   0  0  0  0  0  0  0  0  0  0  0  0
    3.6047    6.8365    1.4368 C   0  0  0  0  0  0  0  0  0  0  0  0
    4.0683    5.3754    1.4810 C   0  0  0  0  0  0  0  0  0  0  0  0
    4.8221    0.6600   -0.0824 N   0  0  0  0  0  0  0  0  0  0  0  0
    4.6346   -0.6747   -0.1994 N   0  0  0  0  0  0  0  0  0  0  0  0
    5.7583   -1.5342   -0.3656 C   0  0  0  0  0  0  0  0  0  0  0  0
    5.7222   -2.5484   -1.3449 C   0  0  0  0  0  0  0  0  0  0  0  0
    6.8168   -3.4013   -1.5243 C   0  0  0  0  0  0  0  0  0  0  0  0
    7.9557   -3.2323   -0.7432 C   0  0  0  0  0  0  0  0  0  0  0  0
    7.9932   -2.2545    0.2485 C   0  0  0  0  0  0  0  0  0  0  0  0
    6.8948   -1.4085    0.4489 C   0  0  0  0  0  0  0  0  0  0  0  0
    6.9696   -0.3728    1.8336 Cl  0  0  0  0  0  0  0  0  0  0  0  0
    9.3247   -4.2419   -0.9982 Cl  0  0  0  0  0  0  0  0  0  0  0  0
    3.2865   -1.0101   -0.1962 C   0  0  0  0  0  0  0  0  0  0  0  0
    2.7914   -2.3609   -0.1345 C   0  0  0  0  0  0  0  0  0  0  0  0
    3.3694   -3.4795    0.4499 C   0  0  0  0  0  0  0  0  0  0  0  0
    2.4854   -4.5951    0.4860 C   0  0  0  0  0  0  0  0  0  0  0  0
    1.2696   -4.2479   -0.0064 C   0  0  0  0  0  0  0  0  0  0  0  0
    0.1013   -5.0159    0.0786 C   0  0  0  0  0  0  0  0  0  0  0  0
   -0.9603   -5.7718    0.0375 C   0  0  0  0  0  0  0  0  0  0  0  0
   -2.1979   -6.6530   -0.0105 C   0  0  0  0  0  0  0  0  0  0  0  0
   -3.2639   -6.0301   -0.9300 C   0  0  0  0  0  0  0  0  0  0  0  0
   -2.7637   -5.8659   -2.3702 C   0  0  0  0  0  0  0  0  0  0  0  0
   -4.5320   -6.8835   -0.9199 C   0  0  0  0  0  0  0  0  0  0  0  0
    1.2984   -2.7833   -0.8535 S   0  0  0  0  0  0  0  0  0  0  0  0
    0.5257   -0.4846    0.0884 H   0  0  0  0  0  0  0  0  0  0  0  0
    0.7520    0.8980   -0.9728 H   0  0  0  0  0  0  0  0  0  0  0  0
    0.8495    1.0580    0.8012 H   0  0  0  0  0  0  0  0  0  0  0  0
    5.4541    2.8179    0.2074 H   0  0  0  0  0  0  0  0  0  0  0  0
    3.4522    5.6642   -1.1791 H   0  0  0  0  0  0  0  0  0  0  0  0
    4.8518    4.7965   -1.7840 H   0  0  0  0  0  0  0  0  0  0  0  0
    5.4145    6.9818   -2.2196 H   0  0  0  0  0  0  0  0  0  0  0  0
    6.3919    6.5530   -0.8309 H   0  0  0  0  0  0  0  0  0  0  0  0
    3.8797    8.2908   -0.8765 H   0  0  0  0  0  0  0  0  0  0  0  0
    5.5327    8.8204   -0.6366 H   0  0  0  0  0  0  0  0  0  0  0  0
    4.4046    8.8205    1.4740 H   0  0  0  0  0  0  0  0  0  0  0  0
    5.6468    7.5777    1.5323 H   0  0  0  0  0  0  0  0  0  0  0  0
    2.7447    6.9416    0.7638 H   0  0  0  0  0  0  0  0  0  0  0  0
    3.2332    7.0921    2.4378 H   0  0  0  0  0  0  0  0  0  0  0  0
    4.7665    5.2666    2.3196 H   0  0  0  0  0  0  0  0  0  0  0  0
    3.1844    4.7887    1.7565 H   0  0  0  0  0  0  0  0  0  0  0  0
    4.8518   -2.6953   -1.9841 H   0  0  0  0  0  0  0  0  0  0  0  0
    6.7769   -4.1863   -2.2771 H   0  0  0  0  0  0  0  0  0  0  0  0
    8.8728   -2.1623    0.8814 H   0  0  0  0  0  0  0  0  0  0  0  0
    4.3577   -3.5091    0.8913 H   0  0  0  0  0  0  0  0  0  0  0  0
    2.7212   -5.5551    0.9349 H   0  0  0  0  0  0  0  0  0  0  0  0
   -2.5896   -6.7635    1.0072 H   0  0  0  0  0  0  0  0  0  0  0  0
   -1.9110   -7.6486   -0.3684 H   0  0  0  0  0  0  0  0  0  0  0  0
   -3.5207   -5.0330   -0.5481 H   0  0  0  0  0  0  0  0  0  0  0  0
   -2.4728   -6.8292   -2.8023 H   0  0  0  0  0  0  0  0  0  0  0  0
   -1.8989   -5.1965   -2.4221 H   0  0  0  0  0  0  0  0  0  0  0  0
   -3.5441   -5.4308   -3.0037 H   0  0  0  0  0  0  0  0  0  0  0  0
   -4.3358   -7.8898   -1.3057 H   0  0  0  0  0  0  0  0  0  0  0  0
   -5.3104   -6.4290   -1.5423 H   0  0  0  0  0  0  0  0  0  0  0  0
   -4.9295   -6.9794    0.0956 H   0  0  0  0  0  0  0  0  0  0  0  0
  1  2  1  0  0  0  0
  1 36  1  0  0  0  0
  1 37  1  0  0  0  0
  1 38  1  0  0  0  0
  2 24  2  0  0  0  0
  2  3  1  0  0  0  0
  3  4  1  0  0  0  0
  3 14  2  0  0  0  0
  4  5  2  0  0  0  0
  4  6  1  0  0  0  0
  6  7  1  0  0  0  0
  6 39  1  0  0  0  0
  7 13  1  0  0  0  0
  7  8  1  0  0  0  0
  8  9  1  0  0  0  0
  8 40  1  0  0  0  0
  8 41  1  0  0  0  0
  9 10  1  0  0  0  0
  9 42  1  0  0  0  0
  9 43  1  0  0  0  0
 10 11  1  0  0  0  0
 10 44  1  0  0  0  0
 10 45  1  0  0  0  0
 11 12  1  0  0  0  0
 11 46  1  0  0  0  0
 11 47  1  0  0  0  0
 12 13  1  0  0  0  0
 12 48  1  0  0  0  0
 12 49  1  0  0  0  0
 13 50  1  0  0  0  0
 13 51  1  0  0  0  0
 14 15  1  0  0  0  0
 15 16  1  0  0  0  0
 15 24  1  0  0  0  0
 16 21  2  0  0  0  0
 16 17  1  0  0  0  0
 17 18  2  0  0  0  0
 17 52  1  0  0  0  0
 18 19  1  0  0  0  0
 18 53  1  0  0  0  0
 19 20  2  0  0  0  0
 19 23  1  0  0  0  0
 20 21  1  0  0  0  0
 20 54  1  0  0  0  0
 21 22  1  0  0  0  0
 24 25  1  0  0  0  0
 25 35  1  0  0  0  0
 25 26  2  0  0  0  0
 26 27  1  0  0  0  0
 26 55  1  0  0  0  0
 27 28  2  0  0  0  0
 27 56  1  0  0  0  0
 28 29  1  0  0  0  0
 28 35  1  0  0  0  0
 29 30  3  0  0  0  0
 30 31  1  0  0  0  0
 31 32  1  0  0  0  0
 31 57  1  0  0  0  0
 31 58  1  0  0  0  0
 32 33  1  0  0  0  0
 32 34  1  0  0  0  0
 32 59  1  0  0  0  0
 33 60  1  0  0  0  0
 33 61  1  0  0  0  0
 33 62  1  0  0  0  0
 34 63  1  0  0  0  0
 34 64  1  0  0  0  0
 34 65  1  0  0  0  0
M  END
$$$$
CHEMBL2022403
 OpenBabel12022417383D

 47 50  0  0  0  0  0  0  0  0999 V2000
    1.0673    0.2999    0.1049 C   0  0  0  0  0  0  0  0  0  0  0  0
    2.5360    0.0425    0.0279 C   0  0  0  0  0  0  0  0  0  0  0  0
    3.5352    1.0667   -0.0166 C   0  0  0  0  0  0  0  0  0  0  0  0
    3.3118    2.5321   -0.0255 C   0  0  0  0  0  0  0  0  0  0  0  0
    2.1707    2.9841    0.0227 O   0  0  0  0  0  0  0  0  0  0  0  0
    4.4624    3.2932   -0.1455 N   0  0  0  0  0  0  0  0  0  0  0  0
    4.5378    4.7064   -0.1760 C   0  0  0  0  0  0  0  0  0  0  0  0
    5.7471    5.3012   -0.5564 C   0  0  0  0  0  0  0  0  0  0  0  0
    5.8629    6.6979   -0.6385 C   0  0  0  0  0  0  0  0  0  0  0  0
    4.7821    7.5152   -0.3168 C   0  0  0  0  0  0  0  0  0  0  0  0
    3.5927    6.9242    0.0888 C   0  0  0  0  0  0  0  0  0  0  0  0
    3.4626    5.5384    0.1556 C   0  0  0  0  0  0  0  0  0  0  0  0
    2.5063    7.6746    0.4390 O   0  0  0  0  0  0  0  0  0  0  0  0
    4.7651    0.5387   -0.0406 N   0  0  0  0  0  0  0  0  0  0  0  0
    4.5816   -0.8072   -0.0383 N   0  0  0  0  0  0  0  0  0  0  0  0
    5.7211   -1.6372   -0.2285 C   0  0  0  0  0  0  0  0  0  0  0  0
    5.6576   -2.6775   -1.1724 C   0  0  0  0  0  0  0  0  0  0  0  0
    6.7709   -3.4887   -1.3990 C   0  0  0  0  0  0  0  0  0  0  0  0
    7.9506   -3.2571   -0.6970 C   0  0  0  0  0  0  0  0  0  0  0  0
    8.0238   -2.2358    0.2471 C   0  0  0  0  0  0  0  0  0  0  0  0
    6.9108   -1.4222    0.4883 C   0  0  0  0  0  0  0  0  0  0  0  0
    7.0577   -0.2929    1.7928 Cl  0  0  0  0  0  0  0  0  0  0  0  0
    9.3262   -4.2459   -0.9932 Cl  0  0  0  0  0  0  0  0  0  0  0  0
    3.2284   -1.1700    0.0097 C   0  0  0  0  0  0  0  0  0  0  0  0
    2.7100   -2.5572    0.1135 C   0  0  0  0  0  0  0  0  0  0  0  0
    3.3756   -3.5389    0.8684 C   0  0  0  0  0  0  0  0  0  0  0  0
    2.9071   -4.8575    0.9246 C   0  0  0  0  0  0  0  0  0  0  0  0
    1.7203   -5.1983    0.2869 C   0  0  0  0  0  0  0  0  0  0  0  0
    1.0169   -4.2375   -0.4312 C   0  0  0  0  0  0  0  0  0  0  0  0
    1.5250   -2.9361   -0.5386 C   0  0  0  0  0  0  0  0  0  0  0  0
    1.1254   -6.8080    0.3821 Cl  0  0  0  0  0  0  0  0  0  0  0  0
    0.4785   -0.6057    0.2563 H   0  0  0  0  0  0  0  0  0  0  0  0
    0.7201    0.7759   -0.8192 H   0  0  0  0  0  0  0  0  0  0  0  0
    0.8363    0.9602    0.9464 H   0  0  0  0  0  0  0  0  0  0  0  0
    5.3110    2.7490   -0.2728 H   0  0  0  0  0  0  0  0  0  0  0  0
    6.6100    4.6933   -0.8174 H   0  0  0  0  0  0  0  0  0  0  0  0
    6.7997    7.1483   -0.9578 H   0  0  0  0  0  0  0  0  0  0  0  0
    4.8802    8.5946   -0.3852 H   0  0  0  0  0  0  0  0  0  0  0  0
    2.5132    5.1417    0.4940 H   0  0  0  0  0  0  0  0  0  0  0  0
    2.7373    8.6147    0.3738 H   0  0  0  0  0  0  0  0  0  0  0  0
    4.7591   -2.8551   -1.7606 H   0  0  0  0  0  0  0  0  0  0  0  0
    6.7126   -4.2919   -2.1298 H   0  0  0  0  0  0  0  0  0  0  0  0
    8.9427   -2.0839    0.8088 H   0  0  0  0  0  0  0  0  0  0  0  0
    4.2831   -3.3047    1.4198 H   0  0  0  0  0  0  0  0  0  0  0  0
    3.4712   -5.6072    1.4740 H   0  0  0  0  0  0  0  0  0  0  0  0
    0.0777   -4.4924   -0.9157 H   0  0  0  0  0  0  0  0  0  0  0  0
    0.9696   -2.2248   -1.1449 H   0  0  0  0  0  0  0  0  0  0  0  0
  1  2  1  0  0  0  0
  1 32  1  0  0  0  0
  1 33  1  0  0  0  0
  1 34  1  0  0  0  0
  2 24  2  0  0  0  0
  2  3  1  0  0  0  0
  3  4  1  0  0  0  0
  3 14  2  0  0  0  0
  4  5  2  0  0  0  0
  4  6  1  0  0  0  0
  6  7  1  0  0  0  0
  6 35  1  0  0  0  0
  7 12  2  0  0  0  0
  7  8  1  0  0  0  0
  8  9  2  0  0  0  0
  8 36  1  0  0  0  0
  9 10  1  0  0  0  0
  9 37  1  0  0  0  0
 10 11  2  0  0  0  0
 10 38  1  0  0  0  0
 11 12  1  0  0  0  0
 11 13  1  0  0  0  0
 12 39  1  0  0  0  0
 13 40  1  0  0  0  0
 14 15  1  0  0  0  0
 15 16  1  0  0  0  0
 15 24  1  0  0  0  0
 16 21  2  0  0  0  0
 16 17  1  0  0  0  0
 17 18  2  0  0  0  0
 17 41  1  0  0  0  0
 18 19  1  0  0  0  0
 18 42  1  0  0  0  0
 19 20  2  0  0  0  0
 19 23  1  0  0  0  0
 20 21  1  0  0  0  0
 20 43  1  0  0  0  0
 21 22  1  0  0  0  0
 24 25  1  0  0  0  0
 25 30  2  0  0  0  0
 25 26  1  0  0  0  0
 26 27  2  0  0  0  0
 26 44  1  0  0  0  0
 27 28  1  0  0  0  0
 27 45  1  0  0  0  0
 28 29  2  0  0  0  0
 28 31  1  0  0  0  0
 29 30  1  0  0  0  0
 29 46  1  0  0  0  0
 30 47  1  0  0  0  0
M  END
$$$$
CHEMBL493302
 OpenBabel12022417383D

 63 67  0  0  0  0  0  0  0  0999 V2000
    1.2234    0.2971   -0.0383 C   0  0  0  0  0  0  0  0  0  0  0  0
    2.7055    0.1795   -0.0967 C   0  0  0  0  0  0  0  0  0  0  0  0
    3.7297    1.2006   -0.0411 C   0  0  0  0  0  0  0  0  0  0  0  0
    3.5576    2.7113   -0.0287 C   0  0  0  0  0  0  0  0  0  0  0  0
    2.4714    3.2226   -0.0987 O   0  0  0  0  0  0  0  0  0  0  0  0
    4.7749    3.4414    0.0406 N   0  0  0  0  0  0  0  0  0  0  0  0
    4.8747    4.8814    0.1087 N   0  0  0  0  0  0  0  0  0  0  0  0
    4.5427    5.5891   -1.1380 C   0  0  0  0  0  0  0  0  0  0  0  0
    4.8771    7.0884   -1.0457 C   0  0  0  0  0  0  0  0  0  0  0  0
    4.1838    7.7401    0.1465 C   0  0  0  0  0  0  0  0  0  0  0  0
    4.4817    6.9605    1.4222 C   0  0  0  0  0  0  0  0  0  0  0  0
    4.1719    5.4656    1.2605 C   0  0  0  0  0  0  0  0  0  0  0  0
    4.9462    0.6344    0.0289 N   0  0  0  0  0  0  0  0  0  0  0  0
    4.7536   -0.7074   -0.1344 N   0  0  0  0  0  0  0  0  0  0  0  0
    5.8652   -1.6106   -0.2488 C   0  0  0  0  0  0  0  0  0  0  0  0
    5.8267   -2.6640   -1.1869 C   0  0  0  0  0  0  0  0  0  0  0  0
    6.9524   -3.4814   -1.3824 C   0  0  0  0  0  0  0  0  0  0  0  0
    8.1106   -3.2532   -0.6482 C   0  0  0  0  0  0  0  0  0  0  0  0
    8.1427   -2.2439    0.3144 C   0  0  0  0  0  0  0  0  0  0  0  0
    7.0193   -1.4405    0.5325 C   0  0  0  0  0  0  0  0  0  0  0  0
    7.1276   -0.3262    1.8506 Cl  0  0  0  0  0  0  0  0  0  0  0  0
    9.5102   -4.2182   -0.9151 Cl  0  0  0  0  0  0  0  0  0  0  0  0
    3.4175   -1.0177   -0.1461 C   0  0  0  0  0  0  0  0  0  0  0  0
    2.9003   -2.3549   -0.0485 C   0  0  0  0  0  0  0  0  0  0  0  0
    3.5093   -3.4730    0.4683 C   0  0  0  0  0  0  0  0  0  0  0  0
    2.6179   -4.5769    0.5372 C   0  0  0  0  0  0  0  0  0  0  0  0
    1.3786   -4.2273    0.0785 C   0  0  0  0  0  0  0  0  0  0  0  0
    0.2247   -4.9941    0.0631 C   0  0  0  0  0  0  0  0  0  0  0  0
   -0.8419   -5.7392   -0.0222 C   0  0  0  0  0  0  0  0  0  0  0  0
   -2.0853   -6.6078   -0.1217 C   0  0  0  0  0  0  0  0  0  0  0  0
   -1.7132   -8.0785   -0.2879 C   0  0  0  0  0  0  0  0  0  0  0  0
   -2.9461   -8.8141    0.2076 C   0  0  0  0  0  0  0  0  0  0  0  0
   -3.4357   -7.9868    1.3885 C   0  0  0  0  0  0  0  0  0  0  0  0
   -2.8950   -6.5719    1.1772 C   0  0  0  0  0  0  0  0  0  0  0  0
    1.3486   -2.7215   -0.6302 S   0  0  0  0  0  0  0  0  0  0  0  0
    0.7063   -0.6567    0.0345 H   0  0  0  0  0  0  0  0  0  0  0  0
    0.8041    0.7537   -0.9358 H   0  0  0  0  0  0  0  0  0  0  0  0
    0.8742    0.7814    0.8744 H   0  0  0  0  0  0  0  0  0  0  0  0
    5.6437    2.9252    0.1011 H   0  0  0  0  0  0  0  0  0  0  0  0
    3.4754    5.4946   -1.3701 H   0  0  0  0  0  0  0  0  0  0  0  0
    5.1078    5.1654   -1.9780 H   0  0  0  0  0  0  0  0  0  0  0  0
    4.5645    7.5974   -1.9657 H   0  0  0  0  0  0  0  0  0  0  0  0
    5.9629    7.2305   -0.9587 H   0  0  0  0  0  0  0  0  0  0  0  0
    3.1009    7.7637   -0.0250 H   0  0  0  0  0  0  0  0  0  0  0  0
    4.5119    8.7810    0.2545 H   0  0  0  0  0  0  0  0  0  0  0  0
    3.8926    7.3720    2.2493 H   0  0  0  0  0  0  0  0  0  0  0  0
    5.5376    7.0956    1.6873 H   0  0  0  0  0  0  0  0  0  0  0  0
    4.4856    4.9554    2.1779 H   0  0  0  0  0  0  0  0  0  0  0  0
    3.0918    5.3283    1.1566 H   0  0  0  0  0  0  0  0  0  0  0  0
    4.9492   -2.8458   -1.8061 H   0  0  0  0  0  0  0  0  0  0  0  0
    6.9366   -4.2612   -2.1417 H   0  0  0  0  0  0  0  0  0  0  0  0
    9.0538   -2.0762    0.8833 H   0  0  0  0  0  0  0  0  0  0  0  0
    4.5297   -3.5188    0.8118 H   0  0  0  0  0  0  0  0  0  0  0  0
    2.8586   -5.5396    0.9324 H   0  0  0  0  0  0  0  0  0  0  0  0
   -2.7054   -6.2742   -0.9623 H   0  0  0  0  0  0  0  0  0  0  0  0
   -0.8445   -8.3441    0.3281 H   0  0  0  0  0  0  0  0  0  0  0  0
   -1.4735   -8.3304   -1.3260 H   0  0  0  0  0  0  0  0  0  0  0  0
   -2.7237   -9.8469    0.4934 H   0  0  0  0  0  0  0  0  0  0  0  0
   -3.7120   -8.8387   -0.5760 H   0  0  0  0  0  0  0  0  0  0  0  0
   -3.0452   -8.3956    2.3278 H   0  0  0  0  0  0  0  0  0  0  0  0
   -4.5282   -7.9987    1.4571 H   0  0  0  0  0  0  0  0  0  0  0  0
   -3.7089   -5.8416    1.1099 H   0  0  0  0  0  0  0  0  0  0  0  0
   -2.2808   -6.2829    2.0394 H   0  0  0  0  0  0  0  0  0  0  0  0
  1  2  1  0  0  0  0
  1 36  1  0  0  0  0
  1 37  1  0  0  0  0
  1 38  1  0  0  0  0
  2 23  2  0  0  0  0
  2  3  1  0  0  0  0
  3  4  1  0  0  0  0
  3 13  2  0  0  0  0
  4  5  2  0  0  0  0
  4  6  1  0  0  0  0
  6  7  1  0  0  0  0
  6 39  1  0  0  0  0
  7 12  1  0  0  0  0
  7  8  1  0  0  0  0
  8  9  1  0  0  0  0
  8 40  1  0  0  0  0
  8 41  1  0  0  0  0
  9 10  1  0  0  0  0
  9 42  1  0  0  0  0
  9 43  1  0  0  0  0
 10 11  1  0  0  0  0
 10 44  1  0  0  0  0
 10 45  1  0  0  0  0
 11 12  1  0  0  0  0
 11 46  1  0  0  0  0
 11 47  1  0  0  0  0
 12 48  1  0  0  0  0
 12 49  1  0  0  0  0
 13 14  1  0  0  0  0
 14 15  1  0  0  0  0
 14 23  1  0  0  0  0
 15 20  2  0  0  0  0
 15 16  1  0  0  0  0
 16 17  2  0  0  0  0
 16 50  1  0  0  0  0
 17 18  1  0  0  0  0
 17 51  1  0  0  0  0
 18 19  2  0  0  0  0
 18 22  1  0  0  0  0
 19 20  1  0  0  0  0
 19 52  1  0  0  0  0
 20 21  1  0  0  0  0
 23 24  1  0  0  0  0
 24 35  1  0  0  0  0
 24 25  2  0  0  0  0
 25 26  1  0  0  0  0
 25 53  1  0  0  0  0
 26 27  2  0  0  0  0
 26 54  1  0  0  0  0
 27 28  1  0  0  0  0
 27 35  1  0  0  0  0
 28 29  3  0  0  0  0
 29 30  1  0  0  0  0
 30 34  1  0  0  0  0
 30 31  1  0  0  0  0
 30 55  1  0  0  0  0
 31 32  1  0  0  0  0
 31 56  1  0  0  0  0
 31 57  1  0  0  0  0
 32 33  1  0  0  0  0
 32 58  1  0  0  0  0
 32 59  1  0  0  0  0
 33 34  1  0  0  0  0
 33 60  1  0  0  0  0
 33 61  1  0  0  0  0
 34 62  1  0  0  0  0
 34 63  1  0  0  0  0
M  END
$$$$
CHEMBL480539
 OpenBabel12022417383D

 52 55  0  0  0  0  0  0  0  0999 V2000
   -1.7732    7.5032   12.8323 C   0  0  0  0  0  0  0  0  0  0  0  0
   -1.1786    8.2613   11.7844 O   0  0  0  0  0  0  0  0  0  0  0  0
   -0.6591    7.5416   10.7439 C   0  0  0  0  0  0  0  0  0  0  0  0
   -0.5552    8.2381    9.5382 C   0  0  0  0  0  0  0  0  0  0  0  0
   -0.0548    7.6128    8.3932 C   0  0  0  0  0  0  0  0  0  0  0  0
    0.3615    6.2768    8.4422 C   0  0  0  0  0  0  0  0  0  0  0  0
    0.8573    5.5796    7.2028 C   0  0  0  0  0  0  0  0  0  0  0  0
    2.2720    5.7772    6.9885 N   0  0  0  0  0  0  0  0  0  0  0  0
    3.2062    4.8449    7.3876 C   0  0  0  0  0  0  0  0  0  0  0  0
    2.8998    3.7951    7.9494 O   0  0  0  0  0  0  0  0  0  0  0  0
    4.6258    5.1680    6.9989 C   0  0  0  0  0  0  0  0  0  0  0  0
    5.3091    5.9027    8.0389 N   0  0  0  0  0  0  0  0  0  0  0  0
    5.1664    7.2382    8.1604 N   0  0  0  0  0  0  0  0  0  0  0  0
    6.0194    7.5298    9.1683 C   0  0  0  0  0  0  0  0  0  0  0  0
    6.1890    8.9242    9.6162 C   0  0  0  0  0  0  0  0  0  0  0  0
    6.1515    9.9382    8.6333 C   0  0  0  0  0  0  0  0  0  0  0  0
    6.3784   11.2812    8.9557 C   0  0  0  0  0  0  0  0  0  0  0  0
    6.6820   11.6305   10.2651 C   0  0  0  0  0  0  0  0  0  0  0  0
    6.7044   10.6585   11.2590 C   0  0  0  0  0  0  0  0  0  0  0  0
    6.4099    9.3217   10.9476 C   0  0  0  0  0  0  0  0  0  0  0  0
    6.2342    8.2619   12.3036 Cl  0  0  0  0  0  0  0  0  0  0  0  0
    6.9962   13.2731   10.6657 Cl  0  0  0  0  0  0  0  0  0  0  0  0
    6.7074    6.3154    9.5412 C   0  0  0  0  0  0  0  0  0  0  0  0
    7.7545    6.0538   10.5300 C   0  0  0  0  0  0  0  0  0  0  0  0
    8.8509    6.9299   10.6214 C   0  0  0  0  0  0  0  0  0  0  0  0
    9.8241    6.7552   11.6102 C   0  0  0  0  0  0  0  0  0  0  0  0
    9.7393    5.6759   12.4842 C   0  0  0  0  0  0  0  0  0  0  0  0
    8.6860    4.7740   12.3884 C   0  0  0  0  0  0  0  0  0  0  0  0
    7.6878    4.9656   11.4259 C   0  0  0  0  0  0  0  0  0  0  0  0
    6.3689    3.8413   11.4640 Cl  0  0  0  0  0  0  0  0  0  0  0  0
   10.9362    5.4644   13.7010 Cl  0  0  0  0  0  0  0  0  0  0  0  0
    6.2975    5.3270    8.7311 N   0  0  0  0  0  0  0  0  0  0  0  0
    0.3023    5.5996    9.6680 C   0  0  0  0  0  0  0  0  0  0  0  0
   -0.2127    6.2231   10.8115 C   0  0  0  0  0  0  0  0  0  0  0  0
   -2.2572    8.2065   13.5175 H   0  0  0  0  0  0  0  0  0  0  0  0
   -1.0205    6.9520   13.4042 H   0  0  0  0  0  0  0  0  0  0  0  0
   -2.5464    6.8302   12.4453 H   0  0  0  0  0  0  0  0  0  0  0  0
   -0.8880    9.2718    9.4876 H   0  0  0  0  0  0  0  0  0  0  0  0
   -0.0084    8.1734    7.4633 H   0  0  0  0  0  0  0  0  0  0  0  0
    0.3400    5.9706    6.3269 H   0  0  0  0  0  0  0  0  0  0  0  0
    0.6257    4.5101    7.2527 H   0  0  0  0  0  0  0  0  0  0  0  0
    2.5834    6.7129    6.7520 H   0  0  0  0  0  0  0  0  0  0  0  0
    4.6583    5.7586    6.0774 H   0  0  0  0  0  0  0  0  0  0  0  0
    5.1642    4.2318    6.8130 H   0  0  0  0  0  0  0  0  0  0  0  0
    5.9357    9.6860    7.5950 H   0  0  0  0  0  0  0  0  0  0  0  0
    6.3195   12.0424    8.1812 H   0  0  0  0  0  0  0  0  0  0  0  0
    6.9244   10.9442   12.2854 H   0  0  0  0  0  0  0  0  0  0  0  0
    8.9457    7.7754    9.9441 H   0  0  0  0  0  0  0  0  0  0  0  0
   10.6374    7.4707   11.6997 H   0  0  0  0  0  0  0  0  0  0  0  0
    8.6241    3.9355   13.0776 H   0  0  0  0  0  0  0  0  0  0  0  0
    0.6494    4.5690    9.7357 H   0  0  0  0  0  0  0  0  0  0  0  0
   -0.2392    5.6578   11.7372 H   0  0  0  0  0  0  0  0  0  0  0  0
  1  2  1  0  0  0  0
  1 35  1  0  0  0  0
  1 36  1  0  0  0  0
  1 37  1  0  0  0  0
  2  3  1  0  0  0  0
  3 34  2  0  0  0  0
  3  4  1  0  0  0  0
  4  5  2  0  0  0  0
  4 38  1  0  0  0  0
  5  6  1  0  0  0  0
  5 39  1  0  0  0  0
  6  7  1  0  0  0  0
  6 33  2  0  0  0  0
  7  8  1  0  0  0  0
  7 40  1  0  0  0  0
  7 41  1  0  0  0  0
  8  9  1  0  0  0  0
  8 42  1  0  0  0  0
  9 10  2  0  0  0  0
  9 11  1  0  0  0  0
 11 12  1  0  0  0  0
 11 43  1  0  0  0  0
 11 44  1  0  0  0  0
 12 32  1  0  0  0  0
 12 13  1  0  0  0  0
 13 14  2  0  0  0  0
 14 15  1  0  0  0  0
 14 23  1  0  0  0  0
 15 20  2  0  0  0  0
 15 16  1  0  0  0  0
 16 17  2  0  0  0  0
 16 45  1  0  0  0  0
 17 18  1  0  0  0  0
 17 46  1  0  0  0  0
 18 19  2  0  0  0  0
 18 22  1  0  0  0  0
 19 20  1  0  0  0  0
 19 47  1  0  0  0  0
 20 21  1  0  0  0  0
 23 24  1  0  0  0  0
 23 32  2  0  0  0  0
 24 29  2  0  0  0  0
 24 25  1  0  0  0  0
 25 26  2  0  0  0  0
 25 48  1  0  0  0  0
 26 27  1  0  0  0  0
 26 49  1  0  0  0  0
 27 28  2  0  0  0  0
 27 31  1  0  0  0  0
 28 29  1  0  0  0  0
 28 50  1  0  0  0  0
 29 30  1  0  0  0  0
 33 34  1  0  0  0  0
 33 51  1  0  0  0  0
 34 52  1  0  0  0  0
M  END
$$$$
CHEMBL271824
 OpenBabel12022417383D

 56 59  0  0  0  0  0  0  0  0999 V2000
   -0.1358   -0.9737   -0.0090 N   0  0  0  0  0  0  0  0  0  0  0  0
   -0.9927    0.0671   -0.2314 N   0  0  0  0  0  0  0  0  0  0  0  0
   -0.2230    1.1725   -0.2142 C   0  0  0  0  0  0  0  0  0  0  0  0
    1.1641    0.8212   -0.1887 C   0  0  0  0  0  0  0  0  0  0  0  0
    1.1844   -0.5578   -0.0131 C   0  0  0  0  0  0  0  0  0  0  0  0
    2.3281   -1.3798    0.0295 N   0  0  0  0  0  0  0  0  0  0  0  0
    2.5669   -2.5536   -0.6985 C   0  0  0  0  0  0  0  0  0  0  0  0
    3.8581   -2.9789   -0.4459 C   0  0  0  0  0  0  0  0  0  0  0  0
    4.4452   -2.0752    0.4442 C   0  0  0  0  0  0  0  0  0  0  0  0
    3.4922   -1.1314    0.7710 C   0  0  0  0  0  0  0  0  0  0  0  0
    3.6622   -0.0617    1.7974 C   0  0  0  0  0  0  0  0  0  0  0  0
    1.6414   -3.1989   -1.6743 C   0  0  0  0  0  0  0  0  0  0  0  0
    2.3064    1.7548   -0.4028 C   0  0  0  0  0  0  0  0  0  0  0  0
   -0.7957    2.5461   -0.2453 C   0  0  0  0  0  0  0  0  0  0  0  0
   -0.0916    3.5503   -0.1786 O   0  0  0  0  0  0  0  0  0  0  0  0
   -2.1781    2.6141   -0.3206 N   0  0  0  0  0  0  0  0  0  0  0  0
   -2.8881    3.8869   -0.3709 C   0  0  0  0  0  0  0  0  0  0  0  0
   -2.9999    4.4071   -1.8107 C   0  0  0  0  0  0  0  0  0  0  0  0
   -3.7440    5.7421   -1.8752 C   0  0  0  0  0  0  0  0  0  0  0  0
   -5.1181    5.6624   -1.2166 C   0  0  0  0  0  0  0  0  0  0  0  0
   -5.0349    5.1150    0.2055 C   0  0  0  0  0  0  0  0  0  0  0  0
   -4.2787    3.7819    0.2672 C   0  0  0  0  0  0  0  0  0  0  0  0
   -0.6987   -2.2549    0.2661 C   0  0  0  0  0  0  0  0  0  0  0  0
   -0.1012   -3.1412    1.1700 C   0  0  0  0  0  0  0  0  0  0  0  0
   -0.6634   -4.4070    1.3764 C   0  0  0  0  0  0  0  0  0  0  0  0
   -1.8079   -4.8007    0.6744 C   0  0  0  0  0  0  0  0  0  0  0  0
   -2.4014   -3.9188   -0.2346 C   0  0  0  0  0  0  0  0  0  0  0  0
   -1.8639   -2.6398   -0.4195 C   0  0  0  0  0  0  0  0  0  0  0  0
   -3.7696   -4.3626   -1.1928 Cl  0  0  0  0  0  0  0  0  0  0  0  0
   -2.4309   -6.3845    0.9712 Cl  0  0  0  0  0  0  0  0  0  0  0  0
    4.3311   -3.8459   -0.8904 H   0  0  0  0  0  0  0  0  0  0  0  0
    5.4527   -2.1151    0.8402 H   0  0  0  0  0  0  0  0  0  0  0  0
    2.7213    0.3930    2.1126 H   0  0  0  0  0  0  0  0  0  0  0  0
    4.3349    0.7162    1.4202 H   0  0  0  0  0  0  0  0  0  0  0  0
    4.1265   -0.4804    2.6976 H   0  0  0  0  0  0  0  0  0  0  0  0
    0.7890   -2.5812   -1.9527 H   0  0  0  0  0  0  0  0  0  0  0  0
    1.2818   -4.1523   -1.2707 H   0  0  0  0  0  0  0  0  0  0  0  0
    2.1792   -3.4222   -2.6018 H   0  0  0  0  0  0  0  0  0  0  0  0
    2.0212    2.6070   -1.0252 H   0  0  0  0  0  0  0  0  0  0  0  0
    3.1252    1.2535   -0.9289 H   0  0  0  0  0  0  0  0  0  0  0  0
    2.6769    2.1468    0.5470 H   0  0  0  0  0  0  0  0  0  0  0  0
   -2.6633    1.7271   -0.4417 H   0  0  0  0  0  0  0  0  0  0  0  0
   -2.3028    4.6181    0.2082 H   0  0  0  0  0  0  0  0  0  0  0  0
   -3.5268    3.6685   -2.4284 H   0  0  0  0  0  0  0  0  0  0  0  0
   -2.0032    4.5279   -2.2503 H   0  0  0  0  0  0  0  0  0  0  0  0
   -3.8572    6.0520   -2.9205 H   0  0  0  0  0  0  0  0  0  0  0  0
   -3.1477    6.5170   -1.3775 H   0  0  0  0  0  0  0  0  0  0  0  0
   -5.7743    5.0208   -1.8171 H   0  0  0  0  0  0  0  0  0  0  0  0
   -5.5774    6.6583   -1.2019 H   0  0  0  0  0  0  0  0  0  0  0  0
   -6.0473    4.9842    0.6055 H   0  0  0  0  0  0  0  0  0  0  0  0
   -4.5347    5.8514    0.8471 H   0  0  0  0  0  0  0  0  0  0  0  0
   -4.1876    3.4726    1.3161 H   0  0  0  0  0  0  0  0  0  0  0  0
   -4.8657    3.0106   -0.2395 H   0  0  0  0  0  0  0  0  0  0  0  0
    0.7857   -2.8698    1.7388 H   0  0  0  0  0  0  0  0  0  0  0  0
   -0.1962   -5.0909    2.0822 H   0  0  0  0  0  0  0  0  0  0  0  0
   -2.3187   -1.9698   -1.1473 H   0  0  0  0  0  0  0  0  0  0  0  0
  1  5  1  0  0  0  0
  1  2  1  0  0  0  0
  1 23  1  0  0  0  0
  2  3  2  0  0  0  0
  3  4  1  0  0  0  0
  3 14  1  0  0  0  0
  4  5  2  0  0  0  0
  4 13  1  0  0  0  0
  5  6  1  0  0  0  0
  6 10  1  0  0  0  0
  6  7  1  0  0  0  0
  7  8  2  0  0  0  0
  7 12  1  0  0  0  0
  8  9  1  0  0  0  0
  8 31  1  0  0  0  0
  9 10  2  0  0  0  0
  9 32  1  0  0  0  0
 10 11  1  0  0  0  0
 11 33  1  0  0  0  0
 11 34  1  0  0  0  0
 11 35  1  0  0  0  0
 12 36  1  0  0  0  0
 12 37  1  0  0  0  0
 12 38  1  0  0  0  0
 13 39  1  0  0  0  0
 13 40  1  0  0  0  0
 13 41  1  0  0  0  0
 14 15  2  0  0  0  0
 14 16  1  0  0  0  0
 16 17  1  0  0  0  0
 16 42  1  0  0  0  0
 17 22  1  0  0  0  0
 17 18  1  0  0  0  0
 17 43  1  0  0  0  0
 18 19  1  0  0  0  0
 18 44  1  0  0  0  0
 18 45  1  0  0  0  0
 19 20  1  0  0  0  0
 19 46  1  0  0  0  0
 19 47  1  0  0  0  0
 20 21  1  0  0  0  0
 20 48  1  0  0  0  0
 20 49  1  0  0  0  0
 21 22  1  0  0  0  0
 21 50  1  0  0  0  0
 21 51  1  0  0  0  0
 22 52  1  0  0  0  0
 22 53  1  0  0  0  0
 23 28  2  0  0  0  0
 23 24  1  0  0  0  0
 24 25  2  0  0  0  0
 24 54  1  0  0  0  0
 25 26  1  0  0  0  0
 25 55  1  0  0  0  0
 26 27  2  0  0  0  0
 26 30  1  0  0  0  0
 27 28  1  0  0  0  0
 27 29  1  0  0  0  0
 28 56  1  0  0  0  0
M  END
$$$$
CHEMBL418721
 OpenBabel12022417383D

 55 59  0  0  1  0  0  0  0  0999 V2000
    1.1721    0.4176    0.1548 C   0  0  0  0  0  0  0  0  0  0  0  0
    2.6492    0.2370    0.0521 C   0  0  0  0  0  0  0  0  0  0  0  0
    3.6184    1.2335    0.0074 C   0  0  0  0  0  0  0  0  0  0  0  0
    3.4011    2.6990    0.0200 C   0  0  0  0  0  0  0  0  0  0  0  0
    2.2772    3.1971    0.0326 O   0  0  0  0  0  0  0  0  0  0  0  0
    4.5893    3.4276    0.0448 N   0  0  0  0  0  0  0  0  0  0  0  0
    4.5933    4.8509    0.0565 N   0  0  0  0  0  0  0  0  0  0  0  0
    5.8097    5.4176   -0.5471 C   0  0  0  0  0  0  0  0  0  0  0  0
    5.8877    6.8454   -0.0033 C   0  0  1  0  0  0  0  0  0  0  0  0
    5.2872    7.9255   -0.9103 C   0  0  0  0  0  0  0  0  0  0  0  0
    4.5366    8.8444    0.0402 C   0  0  0  0  0  0  0  0  0  0  0  0
    3.9169    7.8658    1.0240 C   0  0  0  0  0  0  0  0  0  0  0  0
    5.0258    6.8383    1.2710 C   0  0  1  0  0  0  0  0  0  0  0  0
    4.5530    5.3940    1.4243 C   0  0  0  0  0  0  0  0  0  0  0  0
    4.8723    0.6607   -0.0447 N   0  0  0  0  0  0  0  0  0  0  0  0
    4.7107   -0.6504   -0.0102 C   0  0  0  0  0  0  0  0  0  0  0  0
    5.8374   -1.6081   -0.1773 C   0  0  0  0  0  0  0  0  0  0  0  0
    5.6917   -2.7448   -0.9999 C   0  0  0  0  0  0  0  0  0  0  0  0
    6.7254   -3.6739   -1.1583 C   0  0  0  0  0  0  0  0  0  0  0  0
    7.9542   -3.4461   -0.5534 C   0  0  0  0  0  0  0  0  0  0  0  0
    8.1481   -2.3136    0.2296 C   0  0  0  0  0  0  0  0  0  0  0  0
    7.0951   -1.4073    0.4299 C   0  0  0  0  0  0  0  0  0  0  0  0
    7.4276   -0.0754    1.4874 Cl  0  0  0  0  0  0  0  0  0  0  0  0
    9.2391   -4.5657   -0.7817 Cl  0  0  0  0  0  0  0  0  0  0  0  0
    3.3445   -0.9742    0.0955 N   0  0  0  0  0  0  0  0  0  0  0  0
    2.7743   -2.2835    0.2334 C   0  0  0  0  0  0  0  0  0  0  0  0
    3.3915   -3.2466    1.0483 C   0  0  0  0  0  0  0  0  0  0  0  0
    2.8641   -4.5403    1.1433 C   0  0  0  0  0  0  0  0  0  0  0  0
    1.6993   -4.8685    0.4547 C   0  0  0  0  0  0  0  0  0  0  0  0
    1.0711   -3.9218   -0.3502 C   0  0  0  0  0  0  0  0  0  0  0  0
    1.6155   -2.6381   -0.4767 C   0  0  0  0  0  0  0  0  0  0  0  0
    1.0381   -6.4505    0.5931 Cl  0  0  0  0  0  0  0  0  0  0  0  0
    0.6254   -0.4870    0.4203 H   0  0  0  0  0  0  0  0  0  0  0  0
    0.7768    0.7901   -0.7969 H   0  0  0  0  0  0  0  0  0  0  0  0
    0.9310    1.1456    0.9362 H   0  0  0  0  0  0  0  0  0  0  0  0
    5.4561    2.8936    0.0349 H   0  0  0  0  0  0  0  0  0  0  0  0
    5.7717    5.3865   -1.6402 H   0  0  0  0  0  0  0  0  0  0  0  0
    6.6995    4.8647   -0.2199 H   0  0  0  0  0  0  0  0  0  0  0  0
    6.9251    7.1056    0.2403 H   0  0  0  0  0  0  0  0  0  0  0  0
    4.5939    7.4964   -1.6427 H   0  0  0  0  0  0  0  0  0  0  0  0
    6.0616    8.4670   -1.4639 H   0  0  0  0  0  0  0  0  0  0  0  0
    3.7863    9.4530   -0.4732 H   0  0  0  0  0  0  0  0  0  0  0  0
    5.2320    9.5194    0.5537 H   0  0  0  0  0  0  0  0  0  0  0  0
    3.0282    7.4009    0.5817 H   0  0  0  0  0  0  0  0  0  0  0  0
    3.6085    8.3629    1.9493 H   0  0  0  0  0  0  0  0  0  0  0  0
    5.6227    7.1457    2.1385 H   0  0  0  0  0  0  0  0  0  0  0  0
    5.2531    4.8544    2.0757 H   0  0  0  0  0  0  0  0  0  0  0  0
    3.5525    5.3288    1.8639 H   0  0  0  0  0  0  0  0  0  0  0  0
    4.7584   -2.9383   -1.5252 H   0  0  0  0  0  0  0  0  0  0  0  0
    6.5620   -4.5651   -1.7602 H   0  0  0  0  0  0  0  0  0  0  0  0
    9.1168   -2.1369    0.6911 H   0  0  0  0  0  0  0  0  0  0  0  0
    4.2800   -3.0151    1.6323 H   0  0  0  0  0  0  0  0  0  0  0  0
    3.3636   -5.2842    1.7599 H   0  0  0  0  0  0  0  0  0  0  0  0
    0.1628   -4.1785   -0.8908 H   0  0  0  0  0  0  0  0  0  0  0  0
    1.1366   -1.9461   -1.1665 H   0  0  0  0  0  0  0  0  0  0  0  0
  1  2  1  0  0  0  0
  1 33  1  0  0  0  0
  1 34  1  0  0  0  0
  1 35  1  0  0  0  0
  2 25  1  0  0  0  0
  2  3  2  0  0  0  0
  3  4  1  0  0  0  0
  3 15  1  0  0  0  0
  4  5  2  0  0  0  0
  4  6  1  0  0  0  0
  6  7  1  0  0  0  0
  6 36  1  0  0  0  0
  7 14  1  0  0  0  0
  7  8  1  0  0  0  0
  8 37  1  0  0  0  0
  8 38  1  0  0  0  0
  9  8  1  0  0  0  0
  9 10  1  0  0  0  0
  9 13  1  0  0  0  0
  9 39  1  1  0  0  0
 10 11  1  0  0  0  0
 10 40  1  0  0  0  0
 10 41  1  0  0  0  0
 11 12  1  0  0  0  0
 11 42  1  0  0  0  0
 11 43  1  0  0  0  0
 12 44  1  0  0  0  0
 12 45  1  0  0  0  0
 13 12  1  0  0  0  0
 13 14  1  0  0  0  0
 13 46  1  1  0  0  0
 14 47  1  0  0  0  0
 14 48  1  0  0  0  0
 15 16  2  0  0  0  0
 16 17  1  0  0  0  0
 16 25  1  0  0  0  0
 17 22  2  0  0  0  0
 17 18  1  0  0  0  0
 18 19  2  0  0  0  0
 18 49  1  0  0  0  0
 19 20  1  0  0  0  0
 19 50  1  0  0  0  0
 20 21  2  0  0  0  0
 20 24  1  0  0  0  0
 21 22  1  0  0  0  0
 21 51  1  0  0  0  0
 22 23  1  0  0  0  0
 25 26  1  0  0  0  0
 26 31  2  0  0  0  0
 26 27  1  0  0  0  0
 27 28  2  0  0  0  0
 27 52  1  0  0  0  0
 28 29  1  0  0  0  0
 28 53  1  0  0  0  0
 29 30  2  0  0  0  0
 29 32  1  0  0  0  0
 30 31  1  0  0  0  0
 30 54  1  0  0  0  0
 31 55  1  0  0  0  0
M  END
$$$$
CHEMBL2022404
 OpenBabel12022417383D

 65 68  0  0  0  0  0  0  0  0999 V2000
   14.9645   -0.4413   -5.8108 C   0  0  0  0  0  0  0  0  0  0  0  0
   14.8278   -1.8351   -6.4024 C   0  0  0  0  0  0  0  0  0  0  0  0
   13.5405   -1.9247   -7.0261 O   0  0  0  0  0  0  0  0  0  0  0  0
   12.5007   -2.2394   -6.1944 C   0  0  0  0  0  0  0  0  0  0  0  0
   12.6295   -2.7826   -5.1098 O   0  0  0  0  0  0  0  0  0  0  0  0
   11.1714   -1.7020   -6.7954 C   0  0  0  0  0  0  0  0  0  0  0  0
   11.3869   -0.1790   -6.9451 C   0  0  0  0  0  0  0  0  0  0  0  0
   10.9564   -2.4090   -8.1368 C   0  0  0  0  0  0  0  0  0  0  0  0
   10.1280   -2.0651   -5.8630 O   0  0  0  0  0  0  0  0  0  0  0  0
    8.9996   -1.3048   -5.7437 C   0  0  0  0  0  0  0  0  0  0  0  0
    8.4770   -1.1963   -4.4507 C   0  0  0  0  0  0  0  0  0  0  0  0
    7.3630   -0.3970   -4.2218 C   0  0  0  0  0  0  0  0  0  0  0  0
    6.7881    0.3216   -5.2736 C   0  0  0  0  0  0  0  0  0  0  0  0
    7.2842    0.2180   -6.5773 C   0  0  0  0  0  0  0  0  0  0  0  0
    8.3509   -0.6570   -6.8006 C   0  0  0  0  0  0  0  0  0  0  0  0
    6.7807    0.9697   -7.6772 N   0  0  0  0  0  0  0  0  0  0  0  0
    5.7692    1.9089   -7.6216 C   0  0  0  0  0  0  0  0  0  0  0  0
    5.1738    2.2197   -6.5893 O   0  0  0  0  0  0  0  0  0  0  0  0
    5.3939    2.5427   -8.9112 C   0  0  0  0  0  0  0  0  0  0  0  0
    4.3255    3.4632   -9.1333 C   0  0  0  0  0  0  0  0  0  0  0  0
    4.3139    3.7213  -10.5085 C   0  0  0  0  0  0  0  0  0  0  0  0
    3.3969    4.6202  -11.2673 C   0  0  0  0  0  0  0  0  0  0  0  0
    2.0413    4.7159  -10.9055 C   0  0  0  0  0  0  0  0  0  0  0  0
    1.1422    5.5286  -11.6050 C   0  0  0  0  0  0  0  0  0  0  0  0
    1.5723    6.2230  -12.7259 C   0  0  0  0  0  0  0  0  0  0  0  0
    2.8998    6.1334  -13.1283 C   0  0  0  0  0  0  0  0  0  0  0  0
    3.8130    5.3794  -12.3749 C   0  0  0  0  0  0  0  0  0  0  0  0
    0.4625    7.1905  -13.6121 Cl  0  0  0  0  0  0  0  0  0  0  0  0
    5.3721    2.9497  -11.0283 N   0  0  0  0  0  0  0  0  0  0  0  0
    5.7263    2.7091  -12.3949 C   0  0  0  0  0  0  0  0  0  0  0  0
    4.7120    2.7024  -13.3729 C   0  0  0  0  0  0  0  0  0  0  0  0
    5.0141    2.5674  -14.7283 C   0  0  0  0  0  0  0  0  0  0  0  0
    6.3303    2.3675  -15.1183 C   0  0  0  0  0  0  0  0  0  0  0  0
    7.3437    2.3081  -14.1658 C   0  0  0  0  0  0  0  0  0  0  0  0
    7.0531    2.4743  -12.8028 C   0  0  0  0  0  0  0  0  0  0  0  0
    8.4313    2.4630  -11.7531 Cl  0  0  0  0  0  0  0  0  0  0  0  0
    6.7048    2.1762  -16.7845 Cl  0  0  0  0  0  0  0  0  0  0  0  0
    6.0445    2.2809  -10.0506 N   0  0  0  0  0  0  0  0  0  0  0  0
    3.4016    4.0170   -8.0980 C   0  0  0  0  0  0  0  0  0  0  0  0
   15.9301   -0.3105   -5.3157 H   0  0  0  0  0  0  0  0  0  0  0  0
   14.1662   -0.2443   -5.0874 H   0  0  0  0  0  0  0  0  0  0  0  0
   14.8640    0.3152   -6.5970 H   0  0  0  0  0  0  0  0  0  0  0  0
   14.9725   -2.6142   -5.6488 H   0  0  0  0  0  0  0  0  0  0  0  0
   15.5831   -1.9817   -7.1811 H   0  0  0  0  0  0  0  0  0  0  0  0
   12.1994    0.0517   -7.6417 H   0  0  0  0  0  0  0  0  0  0  0  0
   11.6262    0.2758   -5.9764 H   0  0  0  0  0  0  0  0  0  0  0  0
   10.5158    0.3533   -7.3317 H   0  0  0  0  0  0  0  0  0  0  0  0
   11.8502   -2.3742   -8.7688 H   0  0  0  0  0  0  0  0  0  0  0  0
   10.1481   -1.9600   -8.7165 H   0  0  0  0  0  0  0  0  0  0  0  0
   10.6944   -3.4616   -7.9825 H   0  0  0  0  0  0  0  0  0  0  0  0
    8.9422   -1.7193   -3.6168 H   0  0  0  0  0  0  0  0  0  0  0  0
    6.9428   -0.3038   -3.2229 H   0  0  0  0  0  0  0  0  0  0  0  0
    5.9486    0.9592   -5.0227 H   0  0  0  0  0  0  0  0  0  0  0  0
    8.6966   -0.7999   -7.8161 H   0  0  0  0  0  0  0  0  0  0  0  0
    7.2161    0.8594   -8.5889 H   0  0  0  0  0  0  0  0  0  0  0  0
    1.6389    4.1458  -10.0756 H   0  0  0  0  0  0  0  0  0  0  0  0
    0.1093    5.5950  -11.2728 H   0  0  0  0  0  0  0  0  0  0  0  0
    3.2337    6.6437  -14.0284 H   0  0  0  0  0  0  0  0  0  0  0  0
    4.8466    5.3632  -12.7128 H   0  0  0  0  0  0  0  0  0  0  0  0
    3.6615    2.7991  -13.1066 H   0  0  0  0  0  0  0  0  0  0  0  0
    4.2153    2.6154  -15.4651 H   0  0  0  0  0  0  0  0  0  0  0  0
    8.3705    2.1471  -14.4864 H   0  0  0  0  0  0  0  0  0  0  0  0
    3.6814    3.7733   -7.0746 H   0  0  0  0  0  0  0  0  0  0  0  0
    2.3954    3.6124   -8.2324 H   0  0  0  0  0  0  0  0  0  0  0  0
    3.3675    5.1089   -8.1575 H   0  0  0  0  0  0  0  0  0  0  0  0
  1  2  1  0  0  0  0
  1 40  1  0  0  0  0
  1 41  1  0  0  0  0
  1 42  1  0  0  0  0
  2  3  1  0  0  0  0
  2 43  1  0  0  0  0
  2 44  1  0  0  0  0
  3  4  1  0  0  0  0
  4  5  2  0  0  0  0
  4  6  1  0  0  0  0
  6  7  1  0  0  0  0
  6  8  1  0  0  0  0
  6  9  1  0  0  0  0
  7 45  1  0  0  0  0
  7 46  1  0  0  0  0
  7 47  1  0  0  0  0
  8 48  1  0  0  0  0
  8 49  1  0  0  0  0
  8 50  1  0  0  0  0
  9 10  1  0  0  0  0
 10 15  2  0  0  0  0
 10 11  1  0  0  0  0
 11 12  2  0  0  0  0
 11 51  1  0  0  0  0
 12 13  1  0  0  0  0
 12 52  1  0  0  0  0
 13 14  2  0  0  0  0
 13 53  1  0  0  0  0
 14 15  1  0  0  0  0
 14 16  1  0  0  0  0
 15 54  1  0  0  0  0
 16 17  1  0  0  0  0
 16 55  1  0  0  0  0
 17 18  2  0  0  0  0
 17 19  1  0  0  0  0
 19 38  2  0  0  0  0
 19 20  1  0  0  0  0
 20 21  2  0  0  0  0
 20 39  1  0  0  0  0
 21 22  1  0  0  0  0
 21 29  1  0  0  0  0
 22 27  2  0  0  0  0
 22 23  1  0  0  0  0
 23 24  2  0  0  0  0
 23 56  1  0  0  0  0
 24 25  1  0  0  0  0
 24 57  1  0  0  0  0
 25 26  2  0  0  0  0
 25 28  1  0  0  0  0
 26 27  1  0  0  0  0
 26 58  1  0  0  0  0
 27 59  1  0  0  0  0
 29 30  1  0  0  0  0
 29 38  1  0  0  0  0
 30 35  2  0  0  0  0
 30 31  1  0  0  0  0
 31 32  2  0  0  0  0
 31 60  1  0  0  0  0
 32 33  1  0  0  0  0
 32 61  1  0  0  0  0
 33 34  2  0  0  0  0
 33 37  1  0  0  0  0
 34 35  1  0  0  0  0
 34 62  1  0  0  0  0
 35 36  1  0  0  0  0
 39 63  1  0  0  0  0
 39 64  1  0  0  0  0
 39 65  1  0  0  0  0
M  END
$$$$
CHEMBL1909846
 OpenBabel12022417383D

 50 53  0  0  0  0  0  0  0  0999 V2000
    1.1890    0.3516    0.2102 C   0  0  0  0  0  0  0  0  0  0  0  0
    2.6495    0.0864    0.0910 C   0  0  0  0  0  0  0  0  0  0  0  0
    3.6574    1.1059    0.0979 C   0  0  0  0  0  0  0  0  0  0  0  0
    3.4806    2.5893    0.1388 C   0  0  0  0  0  0  0  0  0  0  0  0
    2.3805    3.1275    0.0734 O   0  0  0  0  0  0  0  0  0  0  0  0
    4.6688    3.2858    0.2536 N   0  0  0  0  0  0  0  0  0  0  0  0
    4.8391    4.7386    0.2891 C   0  0  0  0  0  0  0  0  0  0  0  0
    4.4641    5.4293   -1.0310 C   0  0  0  0  0  0  0  0  0  0  0  0
    4.7641    6.9316   -0.9827 C   0  0  0  0  0  0  0  0  0  0  0  0
    4.0917    7.6129    0.2062 C   0  0  0  0  0  0  0  0  0  0  0  0
    4.4350    6.9180    1.5213 C   0  0  0  0  0  0  0  0  0  0  0  0
    4.1326    5.4163    1.4734 C   0  0  0  0  0  0  0  0  0  0  0  0
    4.8811    0.5619    0.1061 N   0  0  0  0  0  0  0  0  0  0  0  0
    4.7016   -0.7834    0.0361 N   0  0  0  0  0  0  0  0  0  0  0  0
    5.8463   -1.5830   -0.2482 C   0  0  0  0  0  0  0  0  0  0  0  0
    5.7557   -2.6049   -1.2105 C   0  0  0  0  0  0  0  0  0  0  0  0
    6.8723   -3.3965   -1.4978 C   0  0  0  0  0  0  0  0  0  0  0  0
    8.0780   -3.1661   -0.8392 C   0  0  0  0  0  0  0  0  0  0  0  0
    8.1794   -2.1614    0.1174 C   0  0  0  0  0  0  0  0  0  0  0  0
    7.0676   -1.3674    0.4202 C   0  0  0  0  0  0  0  0  0  0  0  0
    7.2633   -0.2716    1.7490 Cl  0  0  0  0  0  0  0  0  0  0  0  0
    9.4500   -4.1388   -1.2017 Cl  0  0  0  0  0  0  0  0  0  0  0  0
    3.3537   -1.1187    0.0514 C   0  0  0  0  0  0  0  0  0  0  0  0
    2.8396   -2.4399    0.1121 N   0  0  0  0  0  0  0  0  0  0  0  0
    3.3091   -3.5248    0.8588 C   0  0  0  0  0  0  0  0  0  0  0  0
    2.5315   -4.6424    0.6671 C   0  0  0  0  0  0  0  0  0  0  0  0
    1.4833   -4.2635   -0.1873 C   0  0  0  0  0  0  0  0  0  0  0  0
    1.7258   -2.9596   -0.5506 C   0  0  0  0  0  0  0  0  0  0  0  0
    0.9137   -2.1162   -1.8010 Cl  0  0  0  0  0  0  0  0  0  0  0  0
    4.5850   -3.4036    1.9947 Cl  0  0  0  0  0  0  0  0  0  0  0  0
    0.6269   -0.5365    0.5071 H   0  0  0  0  0  0  0  0  0  0  0  0
    0.7926    0.7256   -0.7397 H   0  0  0  0  0  0  0  0  0  0  0  0
    0.9947    1.1036    0.9810 H   0  0  0  0  0  0  0  0  0  0  0  0
    5.4960    2.6935    0.2747 H   0  0  0  0  0  0  0  0  0  0  0  0
    5.9193    4.8768    0.4334 H   0  0  0  0  0  0  0  0  0  0  0  0
    3.3993    5.2839   -1.2489 H   0  0  0  0  0  0  0  0  0  0  0  0
    5.0202    4.9793   -1.8617 H   0  0  0  0  0  0  0  0  0  0  0  0
    4.4322    7.4076   -1.9129 H   0  0  0  0  0  0  0  0  0  0  0  0
    5.8489    7.0856   -0.9192 H   0  0  0  0  0  0  0  0  0  0  0  0
    3.0044    7.6108    0.0630 H   0  0  0  0  0  0  0  0  0  0  0  0
    4.4019    8.6641    0.2526 H   0  0  0  0  0  0  0  0  0  0  0  0
    3.8732    7.3851    2.3387 H   0  0  0  0  0  0  0  0  0  0  0  0
    5.4990    7.0701    1.7424 H   0  0  0  0  0  0  0  0  0  0  0  0
    4.4502    4.9545    2.4154 H   0  0  0  0  0  0  0  0  0  0  0  0
    3.0473    5.2770    1.4043 H   0  0  0  0  0  0  0  0  0  0  0  0
    4.8404   -2.7882   -1.7686 H   0  0  0  0  0  0  0  0  0  0  0  0
    6.7970   -4.1901   -2.2377 H   0  0  0  0  0  0  0  0  0  0  0  0
    9.1170   -2.0121    0.6482 H   0  0  0  0  0  0  0  0  0  0  0  0
    2.6823   -5.6118    1.1270 H   0  0  0  0  0  0  0  0  0  0  0  0
    0.6687   -4.8854   -0.5383 H   0  0  0  0  0  0  0  0  0  0  0  0
  1  2  1  0  0  0  0
  1 31  1  0  0  0  0
  1 32  1  0  0  0  0
  1 33  1  0  0  0  0
  2 23  2  0  0  0  0
  2  3  1  0  0  0  0
  3  4  1  0  0  0  0
  3 13  2  0  0  0  0
  4  5  2  0  0  0  0
  4  6  1  0  0  0  0
  6  7  1  0  0  0  0
  6 34  1  0  0  0  0
  7 12  1  0  0  0  0
  7  8  1  0  0  0  0
  7 35  1  0  0  0  0
  8  9  1  0  0  0  0
  8 36  1  0  0  0  0
  8 37  1  0  0  0  0
  9 10  1  0  0  0  0
  9 38  1  0  0  0  0
  9 39  1  0  0  0  0
 10 11  1  0  0  0  0
 10 40  1  0  0  0  0
 10 41  1  0  0  0  0
 11 12  1  0  0  0  0
 11 42  1  0  0  0  0
 11 43  1  0  0  0  0
 12 44  1  0  0  0  0
 12 45  1  0  0  0  0
 13 14  1  0  0  0  0
 14 15  1  0  0  0  0
 14 23  1  0  0  0  0
 15 20  2  0  0  0  0
 15 16  1  0  0  0  0
 16 17  2  0  0  0  0
 16 46  1  0  0  0  0
 17 18  1  0  0  0  0
 17 47  1  0  0  0  0
 18 19  2  0  0  0  0
 18 22  1  0  0  0  0
 19 20  1  0  0  0  0
 19 48  1  0  0  0  0
 20 21  1  0  0  0  0
 23 24  1  0  0  0  0
 24 28  1  0  0  0  0
 24 25  1  0  0  0  0
 25 26  2  0  0  0  0
 25 30  1  0  0  0  0
 26 27  1  0  0  0  0
 26 49  1  0  0  0  0
 27 28  2  0  0  0  0
 27 50  1  0  0  0  0
 28 29  1  0  0  0  0
M  END
$$$$
CHEMBL1909852
 OpenBabel12022417383D

 59 62  0  0  0  0  0  0  0  0999 V2000
    2.6544    1.6792    0.9245 C   0  0  0  0  0  0  0  0  0  0  0  0
    2.4168    0.2510    0.4731 C   0  0  0  0  0  0  0  0  0  0  0  0
    2.9015   -0.9181    1.2969 C   0  0  0  0  0  0  0  0  0  0  0  0
    3.5828   -0.8701    2.5654 C   0  0  0  0  0  0  0  0  0  0  0  0
    4.2116    0.2684    3.2870 C   0  0  0  0  0  0  0  0  0  0  0  0
    4.7958    1.1820    2.7142 O   0  0  0  0  0  0  0  0  0  0  0  0
    4.1241    0.2069    4.6673 N   0  0  0  0  0  0  0  0  0  0  0  0
    4.6006    1.2798    5.5372 C   0  0  0  0  0  0  0  0  0  0  0  0
    3.5024    2.3313    5.7684 C   0  0  0  0  0  0  0  0  0  0  0  0
    3.9220    3.4154    6.7618 C   0  0  0  0  0  0  0  0  0  0  0  0
    4.4176    2.8213    8.0768 C   0  0  0  0  0  0  0  0  0  0  0  0
    5.5436    1.8225    7.8352 C   0  0  0  0  0  0  0  0  0  0  0  0
    5.1176    0.7178    6.8666 C   0  0  0  0  0  0  0  0  0  0  0  0
    3.5930   -2.0776    3.1361 N   0  0  0  0  0  0  0  0  0  0  0  0
    3.1577   -2.9520    2.2006 N   0  0  0  0  0  0  0  0  0  0  0  0
    3.4012   -4.3361    2.4548 C   0  0  0  0  0  0  0  0  0  0  0  0
    3.8699   -5.1705    1.4290 C   0  0  0  0  0  0  0  0  0  0  0  0
    4.0393   -6.5422    1.6604 C   0  0  0  0  0  0  0  0  0  0  0  0
    3.7648   -7.0777    2.9180 C   0  0  0  0  0  0  0  0  0  0  0  0
    3.3281   -6.2597    3.9516 C   0  0  0  0  0  0  0  0  0  0  0  0
    3.1471   -4.8877    3.7348 C   0  0  0  0  0  0  0  0  0  0  0  0
    2.3968   -4.0210    5.0371 Cl  0  0  0  0  0  0  0  0  0  0  0  0
    3.9273   -8.7692    3.1878 Cl  0  0  0  0  0  0  0  0  0  0  0  0
    2.6740   -2.2961    1.0636 C   0  0  0  0  0  0  0  0  0  0  0  0
    2.0002   -2.9333   -0.0297 N   0  0  0  0  0  0  0  0  0  0  0  0
    2.0458   -2.5581   -1.3908 C   0  0  0  0  0  0  0  0  0  0  0  0
    2.9019   -1.5232   -2.0308 C   0  0  0  0  0  0  0  0  0  0  0  0
    1.2075   -3.3709   -2.1286 C   0  0  0  0  0  0  0  0  0  0  0  0
    0.6946   -4.3364   -1.2747 C   0  0  0  0  0  0  0  0  0  0  0  0
    1.1456   -4.0589    0.0021 C   0  0  0  0  0  0  0  0  0  0  0  0
    0.6888   -4.8497    1.1813 C   0  0  0  0  0  0  0  0  0  0  0  0
    2.1469    2.3673    0.2380 H   0  0  0  0  0  0  0  0  0  0  0  0
    3.7163    1.9331    0.8498 H   0  0  0  0  0  0  0  0  0  0  0  0
    2.2900    1.8771    1.9341 H   0  0  0  0  0  0  0  0  0  0  0  0
    2.9125    0.2285   -0.4871 H   0  0  0  0  0  0  0  0  0  0  0  0
    1.3400    0.1224    0.3090 H   0  0  0  0  0  0  0  0  0  0  0  0
    3.6304   -0.5951    5.0497 H   0  0  0  0  0  0  0  0  0  0  0  0
    5.4383    1.7769    5.0294 H   0  0  0  0  0  0  0  0  0  0  0  0
    2.5929    1.8410    6.1384 H   0  0  0  0  0  0  0  0  0  0  0  0
    3.2322    2.8049    4.8168 H   0  0  0  0  0  0  0  0  0  0  0  0
    3.0745    4.0827    6.9592 H   0  0  0  0  0  0  0  0  0  0  0  0
    4.7145    4.0332    6.3220 H   0  0  0  0  0  0  0  0  0  0  0  0
    3.5868    2.3235    8.5917 H   0  0  0  0  0  0  0  0  0  0  0  0
    4.7666    3.6233    8.7380 H   0  0  0  0  0  0  0  0  0  0  0  0
    5.8525    1.3794    8.7890 H   0  0  0  0  0  0  0  0  0  0  0  0
    6.4165    2.3502    7.4309 H   0  0  0  0  0  0  0  0  0  0  0  0
    5.9668    0.0493    6.6810 H   0  0  0  0  0  0  0  0  0  0  0  0
    4.3392    0.1060    7.3406 H   0  0  0  0  0  0  0  0  0  0  0  0
    4.0926   -4.7844    0.4353 H   0  0  0  0  0  0  0  0  0  0  0  0
    4.3621   -7.1939    0.8512 H   0  0  0  0  0  0  0  0  0  0  0  0
    3.0850   -6.6901    4.9212 H   0  0  0  0  0  0  0  0  0  0  0  0
    3.8144   -1.3171   -1.4667 H   0  0  0  0  0  0  0  0  0  0  0  0
    2.3132   -0.6159   -2.2051 H   0  0  0  0  0  0  0  0  0  0  0  0
    3.2223   -1.8581   -3.0243 H   0  0  0  0  0  0  0  0  0  0  0  0
    1.0340   -3.2919   -3.1956 H   0  0  0  0  0  0  0  0  0  0  0  0
    0.0322   -5.1512   -1.5451 H   0  0  0  0  0  0  0  0  0  0  0  0
    0.8240   -4.3455    2.1339 H   0  0  0  0  0  0  0  0  0  0  0  0
    1.1854   -5.8279    1.1887 H   0  0  0  0  0  0  0  0  0  0  0  0
   -0.3820   -5.0611    1.0932 H   0  0  0  0  0  0  0  0  0  0  0  0
  1  2  1  0  0  0  0
  1 32  1  0  0  0  0
  1 33  1  0  0  0  0
  1 34  1  0  0  0  0
  2  3  1  0  0  0  0
  2 35  1  0  0  0  0
  2 36  1  0  0  0  0
  3 24  2  0  0  0  0
  3  4  1  0  0  0  0
  4  5  1  0  0  0  0
  4 14  2  0  0  0  0
  5  6  2  0  0  0  0
  5  7  1  0  0  0  0
  7  8  1  0  0  0  0
  7 37  1  0  0  0  0
  8 13  1  0  0  0  0
  8  9  1  0  0  0  0
  8 38  1  0  0  0  0
  9 10  1  0  0  0  0
  9 39  1  0  0  0  0
  9 40  1  0  0  0  0
 10 11  1  0  0  0  0
 10 41  1  0  0  0  0
 10 42  1  0  0  0  0
 11 12  1  0  0  0  0
 11 43  1  0  0  0  0
 11 44  1  0  0  0  0
 12 13  1  0  0  0  0
 12 45  1  0  0  0  0
 12 46  1  0  0  0  0
 13 47  1  0  0  0  0
 13 48  1  0  0  0  0
 14 15  1  0  0  0  0
 15 16  1  0  0  0  0
 15 24  1  0  0  0  0
 16 21  2  0  0  0  0
 16 17  1  0  0  0  0
 17 18  2  0  0  0  0
 17 49  1  0  0  0  0
 18 19  1  0  0  0  0
 18 50  1  0  0  0  0
 19 20  2  0  0  0  0
 19 23  1  0  0  0  0
 20 21  1  0  0  0  0
 20 51  1  0  0  0  0
 21 22  1  0  0  0  0
 24 25  1  0  0  0  0
 25 30  1  0  0  0  0
 25 26  1  0  0  0  0
 26 27  1  0  0  0  0
 26 28  2  0  0  0  0
 27 52  1  0  0  0  0
 27 53  1  0  0  0  0
 27 54  1  0  0  0  0
 28 29  1  0  0  0  0
 28 55  1  0  0  0  0
 29 30  2  0  0  0  0
 29 56  1  0  0  0  0
 30 31  1  0  0  0  0
 31 57  1  0  0  0  0
 31 58  1  0  0  0  0
 31 59  1  0  0  0  0
M  END
$$$$
CHEMBL1909856
 OpenBabel12022417383D

 50 53  0  0  0  0  0  0  0  0999 V2000
    1.1992    0.3031    0.0645 C   0  0  0  0  0  0  0  0  0  0  0  0
    2.6690    0.0605    0.0855 C   0  0  0  0  0  0  0  0  0  0  0  0
    3.6695    1.0895    0.1819 C   0  0  0  0  0  0  0  0  0  0  0  0
    3.4685    2.5709    0.1766 C   0  0  0  0  0  0  0  0  0  0  0  0
    2.3611    3.0870    0.0703 O   0  0  0  0  0  0  0  0  0  0  0  0
    4.6403    3.2947    0.2858 N   0  0  0  0  0  0  0  0  0  0  0  0
    4.7867    4.7522    0.3081 C   0  0  0  0  0  0  0  0  0  0  0  0
    4.4344    5.4281   -1.0264 C   0  0  0  0  0  0  0  0  0  0  0  0
    4.7056    6.9371   -0.9822 C   0  0  0  0  0  0  0  0  0  0  0  0
    3.9921    7.6158    0.1840 C   0  0  0  0  0  0  0  0  0  0  0  0
    4.3174    6.9373    1.5118 C   0  0  0  0  0  0  0  0  0  0  0  0
    4.0430    5.4303    1.4698 C   0  0  0  0  0  0  0  0  0  0  0  0
    4.8976    0.5489    0.3181 N   0  0  0  0  0  0  0  0  0  0  0  0
    4.7234   -0.7884    0.1315 N   0  0  0  0  0  0  0  0  0  0  0  0
    5.8700   -1.5764   -0.1803 C   0  0  0  0  0  0  0  0  0  0  0  0
    5.7976   -2.6494   -1.0799 C   0  0  0  0  0  0  0  0  0  0  0  0
    6.9334   -3.4243   -1.3337 C   0  0  0  0  0  0  0  0  0  0  0  0
    8.1432   -3.1341   -0.6964 C   0  0  0  0  0  0  0  0  0  0  0  0
    8.2196   -2.0575    0.1948 C   0  0  0  0  0  0  0  0  0  0  0  0
    7.0907   -1.2673    0.4375 C   0  0  0  0  0  0  0  0  0  0  0  0
    9.6712   -1.6665    1.0471 Cl  0  0  0  0  0  0  0  0  0  0  0  0
    9.5026   -4.1356   -1.0623 Cl  0  0  0  0  0  0  0  0  0  0  0  0
    3.3815   -1.1325    0.1269 C   0  0  0  0  0  0  0  0  0  0  0  0
    2.8899   -2.4519    0.1726 N   0  0  0  0  0  0  0  0  0  0  0  0
    1.7769   -2.9099   -0.5265 C   0  0  0  0  0  0  0  0  0  0  0  0
    1.6410   -4.2727   -0.3603 C   0  0  0  0  0  0  0  0  0  0  0  0
    2.6739   -4.6919    0.4997 C   0  0  0  0  0  0  0  0  0  0  0  0
    3.3686   -3.5622    0.8560 C   0  0  0  0  0  0  0  0  0  0  0  0
    4.5627   -3.4486    2.0778 Cl  0  0  0  0  0  0  0  0  0  0  0  0
    0.6150   -0.6076    0.2091 H   0  0  0  0  0  0  0  0  0  0  0  0
    0.9011    0.7525   -0.8878 H   0  0  0  0  0  0  0  0  0  0  0  0
    0.9128    0.9794    0.8761 H   0  0  0  0  0  0  0  0  0  0  0  0
    5.4770    2.7211    0.3332 H   0  0  0  0  0  0  0  0  0  0  0  0
    5.8626    4.9026    0.4755 H   0  0  0  0  0  0  0  0  0  0  0  0
    3.3788    5.2614   -1.2731 H   0  0  0  0  0  0  0  0  0  0  0  0
    5.0213    4.9838   -1.8388 H   0  0  0  0  0  0  0  0  0  0  0  0
    4.3892    7.4008   -1.9239 H   0  0  0  0  0  0  0  0  0  0  0  0
    5.7853    7.1118   -0.8927 H   0  0  0  0  0  0  0  0  0  0  0  0
    2.9087    7.5917    0.0150 H   0  0  0  0  0  0  0  0  0  0  0  0
    4.2814    8.6733    0.2295 H   0  0  0  0  0  0  0  0  0  0  0  0
    3.7287    7.4002    2.3125 H   0  0  0  0  0  0  0  0  0  0  0  0
    5.3732    7.1101    1.7556 H   0  0  0  0  0  0  0  0  0  0  0  0
    4.3471    4.9820    2.4226 H   0  0  0  0  0  0  0  0  0  0  0  0
    2.9618    5.2715    1.3780 H   0  0  0  0  0  0  0  0  0  0  0  0
    4.8825   -2.8914   -1.6152 H   0  0  0  0  0  0  0  0  0  0  0  0
    6.8679   -4.2568   -2.0315 H   0  0  0  0  0  0  0  0  0  0  0  0
    7.1528   -0.4470    1.1504 H   0  0  0  0  0  0  0  0  0  0  0  0
    1.1974   -2.2366   -1.1414 H   0  0  0  0  0  0  0  0  0  0  0  0
    0.8715   -4.8931   -0.8045 H   0  0  0  0  0  0  0  0  0  0  0  0
    2.8538   -5.6946    0.8677 H   0  0  0  0  0  0  0  0  0  0  0  0
  1  2  1  0  0  0  0
  1 30  1  0  0  0  0
  1 31  1  0  0  0  0
  1 32  1  0  0  0  0
  2 23  2  0  0  0  0
  2  3  1  0  0  0  0
  3  4  1  0  0  0  0
  3 13  2  0  0  0  0
  4  5  2  0  0  0  0
  4  6  1  0  0  0  0
  6  7  1  0  0  0  0
  6 33  1  0  0  0  0
  7 12  1  0  0  0  0
  7  8  1  0  0  0  0
  7 34  1  0  0  0  0
  8  9  1  0  0  0  0
  8 35  1  0  0  0  0
  8 36  1  0  0  0  0
  9 10  1  0  0  0  0
  9 37  1  0  0  0  0
  9 38  1  0  0  0  0
 10 11  1  0  0  0  0
 10 39  1  0  0  0  0
 10 40  1  0  0  0  0
 11 12  1  0  0  0  0
 11 41  1  0  0  0  0
 11 42  1  0  0  0  0
 12 43  1  0  0  0  0
 12 44  1  0  0  0  0
 13 14  1  0  0  0  0
 14 15  1  0  0  0  0
 14 23  1  0  0  0  0
 15 20  2  0  0  0  0
 15 16  1  0  0  0  0
 16 17  2  0  0  0  0
 16 45  1  0  0  0  0
 17 18  1  0  0  0  0
 17 46  1  0  0  0  0
 18 19  2  0  0  0  0
 18 22  1  0  0  0  0
 19 20  1  0  0  0  0
 19 21  1  0  0  0  0
 20 47  1  0  0  0  0
 23 24  1  0  0  0  0
 24 28  1  0  0  0  0
 24 25  1  0  0  0  0
 25 26  2  0  0  0  0
 25 48  1  0  0  0  0
 26 27  1  0  0  0  0
 26 49  1  0  0  0  0
 27 28  2  0  0  0  0
 27 50  1  0  0  0  0
 28 29  1  0  0  0  0
M  END
$$$$
CHEMBL1909844
 OpenBabel12022417383D

 50 53  0  0  0  0  0  0  0  0999 V2000
    1.1260    0.5194    0.0131 C   0  0  0  0  0  0  0  0  0  0  0  0
    2.5844    0.2438    0.1139 C   0  0  0  0  0  0  0  0  0  0  0  0
    3.6141    1.2367    0.2569 C   0  0  0  0  0  0  0  0  0  0  0  0
    3.4554    2.7216    0.2442 C   0  0  0  0  0  0  0  0  0  0  0  0
    2.3717    3.2696    0.0691 O   0  0  0  0  0  0  0  0  0  0  0  0
    4.6384    3.4103    0.4271 N   0  0  0  0  0  0  0  0  0  0  0  0
    4.8279    4.8608    0.4228 C   0  0  0  0  0  0  0  0  0  0  0  0
    4.5999    5.4981   -0.9558 C   0  0  0  0  0  0  0  0  0  0  0  0
    4.9235    6.9957   -0.9407 C   0  0  0  0  0  0  0  0  0  0  0  0
    4.1502    7.7386    0.1456 C   0  0  0  0  0  0  0  0  0  0  0  0
    4.3460    7.0970    1.5167 C   0  0  0  0  0  0  0  0  0  0  0  0
    4.0202    5.5996    1.5017 C   0  0  0  0  0  0  0  0  0  0  0  0
    4.8201    0.6577    0.4390 N   0  0  0  0  0  0  0  0  0  0  0  0
    4.6079   -0.6756    0.2486 N   0  0  0  0  0  0  0  0  0  0  0  0
    5.7302   -1.5220   -0.0146 C   0  0  0  0  0  0  0  0  0  0  0  0
    5.6157   -2.6444   -0.8492 C   0  0  0  0  0  0  0  0  0  0  0  0
    6.7022   -3.5043   -1.0295 C   0  0  0  0  0  0  0  0  0  0  0  0
    7.9178   -3.2417   -0.3958 C   0  0  0  0  0  0  0  0  0  0  0  0
    8.0495   -2.1036    0.4093 C   0  0  0  0  0  0  0  0  0  0  0  0
    6.9644   -1.2342    0.5850 C   0  0  0  0  0  0  0  0  0  0  0  0
    9.5187   -1.7335    1.2413 Cl  0  0  0  0  0  0  0  0  0  0  0  0
    9.2111   -4.3574   -0.6544 Cl  0  0  0  0  0  0  0  0  0  0  0  0
    3.2556   -0.9698    0.1982 C   0  0  0  0  0  0  0  0  0  0  0  0
    2.7165   -2.2657    0.2223 N   0  0  0  0  0  0  0  0  0  0  0  0
    1.6801   -2.7082   -0.5921 C   0  0  0  0  0  0  0  0  0  0  0  0
    1.5259   -4.0727   -0.4528 C   0  0  0  0  0  0  0  0  0  0  0  0
    2.4416   -4.4984    0.5305 C   0  0  0  0  0  0  0  0  0  0  0  0
    3.0995   -3.3744    0.9638 C   0  0  0  0  0  0  0  0  0  0  0  0
    4.1735   -3.2541    2.2911 Cl  0  0  0  0  0  0  0  0  0  0  0  0
    0.5176   -0.3798    0.1328 H   0  0  0  0  0  0  0  0  0  0  0  0
    0.8917    0.9621   -0.9599 H   0  0  0  0  0  0  0  0  0  0  0  0
    0.8097    1.2114    0.7999 H   0  0  0  0  0  0  0  0  0  0  0  0
    5.4555    2.8122    0.5156 H   0  0  0  0  0  0  0  0  0  0  0  0
    5.8907    4.9904    0.6698 H   0  0  0  0  0  0  0  0  0  0  0  0
    3.5595    5.3580   -1.2734 H   0  0  0  0  0  0  0  0  0  0  0  0
    5.2276    5.0030   -1.7060 H   0  0  0  0  0  0  0  0  0  0  0  0
    4.6957    7.4355   -1.9185 H   0  0  0  0  0  0  0  0  0  0  0  0
    5.9994    7.1349   -0.7751 H   0  0  0  0  0  0  0  0  0  0  0  0
    3.0829    7.7469   -0.1063 H   0  0  0  0  0  0  0  0  0  0  0  0
    4.4753    8.7859    0.1784 H   0  0  0  0  0  0  0  0  0  0  0  0
    3.7144    7.6080    2.2525 H   0  0  0  0  0  0  0  0  0  0  0  0
    5.3853    7.2420    1.8373 H   0  0  0  0  0  0  0  0  0  0  0  0
    4.2339    5.1744    2.4890 H   0  0  0  0  0  0  0  0  0  0  0  0
    2.9445    5.4744    1.3305 H   0  0  0  0  0  0  0  0  0  0  0  0
    4.6993   -2.8724   -1.3878 H   0  0  0  0  0  0  0  0  0  0  0  0
    6.5891   -4.3820   -1.6627 H   0  0  0  0  0  0  0  0  0  0  0  0
    7.0729   -0.3670    1.2335 H   0  0  0  0  0  0  0  0  0  0  0  0
    1.1821   -2.0257   -1.2665 H   0  0  0  0  0  0  0  0  0  0  0  0
    0.8209   -4.6889   -0.9970 H   0  0  0  0  0  0  0  0  0  0  0  0
    2.5746   -5.5034    0.9119 H   0  0  0  0  0  0  0  0  0  0  0  0
  1  2  1  0  0  0  0
  1 30  1  0  0  0  0
  1 31  1  0  0  0  0
  1 32  1  0  0  0  0
  2 23  2  0  0  0  0
  2  3  1  0  0  0  0
  3  4  1  0  0  0  0
  3 13  2  0  0  0  0
  4  5  2  0  0  0  0
  4  6  1  0  0  0  0
  6  7  1  0  0  0  0
  6 33  1  0  0  0  0
  7 12  1  0  0  0  0
  7  8  1  0  0  0  0
  7 34  1  0  0  0  0
  8  9  1  0  0  0  0
  8 35  1  0  0  0  0
  8 36  1  0  0  0  0
  9 10  1  0  0  0  0
  9 37  1  0  0  0  0
  9 38  1  0  0  0  0
 10 11  1  0  0  0  0
 10 39  1  0  0  0  0
 10 40  1  0  0  0  0
 11 12  1  0  0  0  0
 11 41  1  0  0  0  0
 11 42  1  0  0  0  0
 12 43  1  0  0  0  0
 12 44  1  0  0  0  0
 13 14  1  0  0  0  0
 14 15  1  0  0  0  0
 14 23  1  0  0  0  0
 15 20  2  0  0  0  0
 15 16  1  0  0  0  0
 16 17  2  0  0  0  0
 16 45  1  0  0  0  0
 17 18  1  0  0  0  0
 17 46  1  0  0  0  0
 18 19  2  0  0  0  0
 18 22  1  0  0  0  0
 19 20  1  0  0  0  0
 19 47  1  0  0  0  0
 20 21  1  0  0  0  0
 23 24  1  0  0  0  0
 24 28  1  0  0  0  0
 24 25  1  0  0  0  0
 25 26  2  0  0  0  0
 25 48  1  0  0  0  0
 26 27  1  0  0  0  0
 26 49  1  0  0  0  0
 27 28  2  0  0  0  0
 27 50  1  0  0  0  0
 28 29  1  0  0  0  0
M  END
$$$$
CHEMBL574052
 OpenBabel12022417383D

 59 62  0  0  0  0  0  0  0  0999 V2000
   -0.0981   -0.9624    0.0167 N   0  0  0  0  0  0  0  0  0  0  0  0
   -0.9593    0.0941   -0.2083 N   0  0  0  0  0  0  0  0  0  0  0  0
   -0.1786    1.1888   -0.1989 C   0  0  0  0  0  0  0  0  0  0  0  0
    1.2057    0.8271   -0.2058 C   0  0  0  0  0  0  0  0  0  0  0  0
    1.2259   -0.5499   -0.0387 C   0  0  0  0  0  0  0  0  0  0  0  0
    2.3742   -1.3674   -0.0245 N   0  0  0  0  0  0  0  0  0  0  0  0
    2.6074   -2.5419   -0.7524 C   0  0  0  0  0  0  0  0  0  0  0  0
    3.8986   -2.9694   -0.5019 C   0  0  0  0  0  0  0  0  0  0  0  0
    4.4910   -2.0674    0.3881 C   0  0  0  0  0  0  0  0  0  0  0  0
    3.5420   -1.1198    0.7128 C   0  0  0  0  0  0  0  0  0  0  0  0
    3.6962   -0.0725    1.7645 C   0  0  0  0  0  0  0  0  0  0  0  0
    1.6681   -3.1911   -1.7085 C   0  0  0  0  0  0  0  0  0  0  0  0
    2.3520    1.7607   -0.4188 C   0  0  0  0  0  0  0  0  0  0  0  0
   -0.7010    2.5784   -0.2196 C   0  0  0  0  0  0  0  0  0  0  0  0
    0.0392    3.5571   -0.1153 O   0  0  0  0  0  0  0  0  0  0  0  0
   -2.0813    2.7413   -0.3581 N   0  0  0  0  0  0  0  0  0  0  0  0
   -2.6513    4.0913   -0.5226 C   0  0  0  0  0  0  0  0  0  0  0  0
   -2.5214    4.5695   -1.9840 C   0  0  0  0  0  0  0  0  0  0  0  0
   -3.8184    4.7316   -2.7744 C   0  0  0  0  0  0  0  0  0  0  0  0
   -4.5362    6.0479   -2.4796 C   0  0  0  0  0  0  0  0  0  0  0  0
   -5.3265    6.0775   -1.1762 C   0  0  0  0  0  0  0  0  0  0  0  0
   -4.5630    5.6763    0.0836 C   0  0  0  0  0  0  0  0  0  0  0  0
   -4.0518    4.2273    0.0922 C   0  0  0  0  0  0  0  0  0  0  0  0
   -0.6685   -2.2467    0.2665 C   0  0  0  0  0  0  0  0  0  0  0  0
   -0.1778   -3.1525    1.2204 C   0  0  0  0  0  0  0  0  0  0  0  0
   -0.7451   -4.4312    1.3295 C   0  0  0  0  0  0  0  0  0  0  0  0
   -1.8216   -4.7930    0.5245 C   0  0  0  0  0  0  0  0  0  0  0  0
   -2.3456   -3.8935   -0.3953 C   0  0  0  0  0  0  0  0  0  0  0  0
   -1.7789   -2.6206   -0.5200 C   0  0  0  0  0  0  0  0  0  0  0  0
   -2.5311   -6.3523    0.6978 Cl  0  0  0  0  0  0  0  0  0  0  0  0
    0.9822   -2.7484    2.4352 Cl  0  0  0  0  0  0  0  0  0  0  0  0
    4.3665   -3.8457   -0.9343 H   0  0  0  0  0  0  0  0  0  0  0  0
    5.4915   -2.1194    0.7988 H   0  0  0  0  0  0  0  0  0  0  0  0
    2.7510    0.3776    2.0749 H   0  0  0  0  0  0  0  0  0  0  0  0
    4.3756    0.7138    1.4168 H   0  0  0  0  0  0  0  0  0  0  0  0
    4.1415   -0.5122    2.6639 H   0  0  0  0  0  0  0  0  0  0  0  0
    0.8347   -2.5562   -2.0052 H   0  0  0  0  0  0  0  0  0  0  0  0
    1.2816   -4.1203   -1.2736 H   0  0  0  0  0  0  0  0  0  0  0  0
    2.1991   -3.4616   -2.6276 H   0  0  0  0  0  0  0  0  0  0  0  0
    2.0686    2.6145   -1.0407 H   0  0  0  0  0  0  0  0  0  0  0  0
    3.1697    1.2615   -0.9483 H   0  0  0  0  0  0  0  0  0  0  0  0
    2.7241    2.1524    0.5311 H   0  0  0  0  0  0  0  0  0  0  0  0
   -2.6229    1.9077   -0.5697 H   0  0  0  0  0  0  0  0  0  0  0  0
   -2.0037    4.7501    0.0722 H   0  0  0  0  0  0  0  0  0  0  0  0
   -1.8689    3.8839   -2.5378 H   0  0  0  0  0  0  0  0  0  0  0  0
   -1.9906    5.5317   -1.9824 H   0  0  0  0  0  0  0  0  0  0  0  0
   -4.4867    3.8746   -2.6371 H   0  0  0  0  0  0  0  0  0  0  0  0
   -3.5530    4.7403   -3.8393 H   0  0  0  0  0  0  0  0  0  0  0  0
   -5.2398    6.2464   -3.2978 H   0  0  0  0  0  0  0  0  0  0  0  0
   -3.8182    6.8771   -2.4955 H   0  0  0  0  0  0  0  0  0  0  0  0
   -6.2148    5.4433   -1.2786 H   0  0  0  0  0  0  0  0  0  0  0  0
   -5.7027    7.1013   -1.0380 H   0  0  0  0  0  0  0  0  0  0  0  0
   -5.2535    5.7985    0.9285 H   0  0  0  0  0  0  0  0  0  0  0  0
   -3.7398    6.3791    0.2614 H   0  0  0  0  0  0  0  0  0  0  0  0
   -3.9934    3.9011    1.1392 H   0  0  0  0  0  0  0  0  0  0  0  0
   -4.7726    3.5540   -0.3858 H   0  0  0  0  0  0  0  0  0  0  0  0
   -0.3636   -5.1362    2.0651 H   0  0  0  0  0  0  0  0  0  0  0  0
   -3.1894   -4.1745   -1.0217 H   0  0  0  0  0  0  0  0  0  0  0  0
   -2.1853   -1.9405   -1.2674 H   0  0  0  0  0  0  0  0  0  0  0  0
  1  5  1  0  0  0  0
  1  2  1  0  0  0  0
  1 24  1  0  0  0  0
  2  3  2  0  0  0  0
  3  4  1  0  0  0  0
  3 14  1  0  0  0  0
  4  5  2  0  0  0  0
  4 13  1  0  0  0  0
  5  6  1  0  0  0  0
  6 10  1  0  0  0  0
  6  7  1  0  0  0  0
  7  8  2  0  0  0  0
  7 12  1  0  0  0  0
  8  9  1  0  0  0  0
  8 32  1  0  0  0  0
  9 10  2  0  0  0  0
  9 33  1  0  0  0  0
 10 11  1  0  0  0  0
 11 34  1  0  0  0  0
 11 35  1  0  0  0  0
 11 36  1  0  0  0  0
 12 37  1  0  0  0  0
 12 38  1  0  0  0  0
 12 39  1  0  0  0  0
 13 40  1  0  0  0  0
 13 41  1  0  0  0  0
 13 42  1  0  0  0  0
 14 15  2  0  0  0  0
 14 16  1  0  0  0  0
 16 17  1  0  0  0  0
 16 43  1  0  0  0  0
 17 23  1  0  0  0  0
 17 18  1  0  0  0  0
 17 44  1  0  0  0  0
 18 19  1  0  0  0  0
 18 45  1  0  0  0  0
 18 46  1  0  0  0  0
 19 20  1  0  0  0  0
 19 47  1  0  0  0  0
 19 48  1  0  0  0  0
 20 21  1  0  0  0  0
 20 49  1  0  0  0  0
 20 50  1  0  0  0  0
 21 22  1  0  0  0  0
 21 51  1  0  0  0  0
 21 52  1  0  0  0  0
 22 23  1  0  0  0  0
 22 53  1  0  0  0  0
 22 54  1  0  0  0  0
 23 55  1  0  0  0  0
 23 56  1  0  0  0  0
 24 29  2  0  0  0  0
 24 25  1  0  0  0  0
 25 26  2  0  0  0  0
 25 31  1  0  0  0  0
 26 27  1  0  0  0  0
 26 57  1  0  0  0  0
 27 28  2  0  0  0  0
 27 30  1  0  0  0  0
 28 29  1  0  0  0  0
 28 58  1  0  0  0  0
 29 59  1  0  0  0  0
M  END
$$$$
CHEMBL493916
 OpenBabel12022417383D

 57 61  0  0  0  0  0  0  0  0999 V2000
    1.1284    0.5458    0.0473 C   0  0  0  0  0  0  0  0  0  0  0  0
    2.5938    0.2783   -0.0080 C   0  0  0  0  0  0  0  0  0  0  0  0
    3.6034    1.2949   -0.0235 C   0  0  0  0  0  0  0  0  0  0  0  0
    3.4220    2.7734   -0.0371 C   0  0  0  0  0  0  0  0  0  0  0  0
    2.3158    3.3000   -0.1104 O   0  0  0  0  0  0  0  0  0  0  0  0
    4.6296    3.4727    0.0404 N   0  0  0  0  0  0  0  0  0  0  0  0
    4.7746    4.8880    0.0810 N   0  0  0  0  0  0  0  0  0  0  0  0
    4.4451    5.5461   -1.1914 C   0  0  0  0  0  0  0  0  0  0  0  0
    4.8246    7.0329   -1.1516 C   0  0  0  0  0  0  0  0  0  0  0  0
    4.1725    7.7493    0.0264 C   0  0  0  0  0  0  0  0  0  0  0  0
    4.4553    7.0032    1.3262 C   0  0  0  0  0  0  0  0  0  0  0  0
    4.0872    5.5185    1.2171 C   0  0  0  0  0  0  0  0  0  0  0  0
    4.8283    0.7479    0.0015 N   0  0  0  0  0  0  0  0  0  0  0  0
    4.6372   -0.5956   -0.0414 N   0  0  0  0  0  0  0  0  0  0  0  0
    5.7702   -1.4393   -0.2297 C   0  0  0  0  0  0  0  0  0  0  0  0
    5.6989   -2.4802   -1.1739 C   0  0  0  0  0  0  0  0  0  0  0  0
    6.8056   -3.3014   -1.4037 C   0  0  0  0  0  0  0  0  0  0  0  0
    7.9895   -3.0774   -0.7077 C   0  0  0  0  0  0  0  0  0  0  0  0
    8.0729   -2.0553    0.2343 C   0  0  0  0  0  0  0  0  0  0  0  0
    6.9658   -1.2332    0.4804 C   0  0  0  0  0  0  0  0  0  0  0  0
    7.1300   -0.1067    1.7853 Cl  0  0  0  0  0  0  0  0  0  0  0  0
    9.3574   -4.0756   -1.0090 Cl  0  0  0  0  0  0  0  0  0  0  0  0
    3.2834   -0.9372   -0.0134 C   0  0  0  0  0  0  0  0  0  0  0  0
    2.7732   -2.2959    0.0869 C   0  0  0  0  0  0  0  0  0  0  0  0
    3.3201   -3.3734    0.7689 C   0  0  0  0  0  0  0  0  0  0  0  0
    2.5147   -4.5549    0.6946 C   0  0  0  0  0  0  0  0  0  0  0  0
    1.3500   -4.3348   -0.0030 C   0  0  0  0  0  0  0  0  0  0  0  0
    0.2649   -5.2507   -0.1452 C   0  0  0  0  0  0  0  0  0  0  0  0
   -0.7094   -5.9391   -0.2798 C   0  0  0  0  0  0  0  0  0  0  0  0
   -1.9002   -6.7056   -0.5015 C   0  0  0  0  0  0  0  0  0  0  0  0
   -1.9408   -8.1295   -0.0190 C   0  0  0  0  0  0  0  0  0  0  0  0
   -2.7742   -7.0846    0.6650 C   0  0  0  0  0  0  0  0  0  0  0  0
    1.3339   -2.7855   -0.7143 S   0  0  0  0  0  0  0  0  0  0  0  0
    0.5271   -0.3533    0.1788 H   0  0  0  0  0  0  0  0  0  0  0  0
    0.7977    1.0363   -0.8740 H   0  0  0  0  0  0  0  0  0  0  0  0
    0.8915    1.1961    0.8954 H   0  0  0  0  0  0  0  0  0  0  0  0
    5.4700    2.8942    0.1104 H   0  0  0  0  0  0  0  0  0  0  0  0
    3.3778    5.4482   -1.4252 H   0  0  0  0  0  0  0  0  0  0  0  0
    5.0042    5.0758   -2.0093 H   0  0  0  0  0  0  0  0  0  0  0  0
    4.5275    7.5204   -2.0876 H   0  0  0  0  0  0  0  0  0  0  0  0
    5.9152    7.1334   -1.0753 H   0  0  0  0  0  0  0  0  0  0  0  0
    3.0895    7.8127   -0.1348 H   0  0  0  0  0  0  0  0  0  0  0  0
    4.5455    8.7783    0.0951 H   0  0  0  0  0  0  0  0  0  0  0  0
    3.8925    7.4666    2.1448 H   0  0  0  0  0  0  0  0  0  0  0  0
    5.5194    7.1023    1.5764 H   0  0  0  0  0  0  0  0  0  0  0  0
    4.3826    5.0235    2.1495 H   0  0  0  0  0  0  0  0  0  0  0  0
    2.9983    5.4275    1.1269 H   0  0  0  0  0  0  0  0  0  0  0  0
    4.8006   -2.6522   -1.7640 H   0  0  0  0  0  0  0  0  0  0  0  0
    6.7388   -4.1045   -2.1339 H   0  0  0  0  0  0  0  0  0  0  0  0
    8.9955   -1.9086    0.7908 H   0  0  0  0  0  0  0  0  0  0  0  0
    4.2520   -3.3342    1.3204 H   0  0  0  0  0  0  0  0  0  0  0  0
    2.7639   -5.4949    1.1736 H   0  0  0  0  0  0  0  0  0  0  0  0
   -2.4198   -6.4861   -1.4307 H   0  0  0  0  0  0  0  0  0  0  0  0
   -1.0891   -8.5254    0.5222 H   0  0  0  0  0  0  0  0  0  0  0  0
   -2.4412   -8.8547   -0.6496 H   0  0  0  0  0  0  0  0  0  0  0  0
   -3.8467   -7.1071    0.5058 H   0  0  0  0  0  0  0  0  0  0  0  0
   -2.4867   -6.7770    1.6638 H   0  0  0  0  0  0  0  0  0  0  0  0
  1  2  1  0  0  0  0
  1 34  1  0  0  0  0
  1 35  1  0  0  0  0
  1 36  1  0  0  0  0
  2 23  2  0  0  0  0
  2  3  1  0  0  0  0
  3  4  1  0  0  0  0
  3 13  2  0  0  0  0
  4  5  2  0  0  0  0
  4  6  1  0  0  0  0
  6  7  1  0  0  0  0
  6 37  1  0  0  0  0
  7 12  1  0  0  0  0
  7  8  1  0  0  0  0
  8  9  1  0  0  0  0
  8 38  1  0  0  0  0
  8 39  1  0  0  0  0
  9 10  1  0  0  0  0
  9 40  1  0  0  0  0
  9 41  1  0  0  0  0
 10 11  1  0  0  0  0
 10 42  1  0  0  0  0
 10 43  1  0  0  0  0
 11 12  1  0  0  0  0
 11 44  1  0  0  0  0
 11 45  1  0  0  0  0
 12 46  1  0  0  0  0
 12 47  1  0  0  0  0
 13 14  1  0  0  0  0
 14 15  1  0  0  0  0
 14 23  1  0  0  0  0
 15 20  2  0  0  0  0
 15 16  1  0  0  0  0
 16 17  2  0  0  0  0
 16 48  1  0  0  0  0
 17 18  1  0  0  0  0
 17 49  1  0  0  0  0
 18 19  2  0  0  0  0
 18 22  1  0  0  0  0
 19 20  1  0  0  0  0
 19 50  1  0  0  0  0
 20 21  1  0  0  0  0
 23 24  1  0  0  0  0
 24 33  1  0  0  0  0
 24 25  2  0  0  0  0
 25 26  1  0  0  0  0
 25 51  1  0  0  0  0
 26 27  2  0  0  0  0
 26 52  1  0  0  0  0
 27 28  1  0  0  0  0
 27 33  1  0  0  0  0
 28 29  3  0  0  0  0
 29 30  1  0  0  0  0
 30 32  1  0  0  0  0
 30 31  1  0  0  0  0
 30 53  1  0  0  0  0
 31 32  1  0  0  0  0
 31 54  1  0  0  0  0
 31 55  1  0  0  0  0
 32 56  1  0  0  0  0
 32 57  1  0  0  0  0
M  END
$$$$
CHEMBL462069
 OpenBabel12022417383D

 59 61  0  0  0  0  0  0  0  0999 V2000
   11.7051    4.3846   -1.8110 C   0  0  0  0  0  0  0  0  0  0  0  0
   10.4080    4.6542   -2.5605 C   0  0  0  0  0  0  0  0  0  0  0  0
    9.8481    3.3812   -3.2056 C   0  0  0  0  0  0  0  0  0  0  0  0
    8.5452    3.6593   -3.9617 C   0  0  0  0  0  0  0  0  0  0  0  0
    8.0117    2.4526   -4.6226 C   0  0  0  0  0  0  0  0  0  0  0  0
    7.5868    1.4980   -5.2062 C   0  0  0  0  0  0  0  0  0  0  0  0
    7.1411    0.3459   -5.9382 C   0  0  0  0  0  0  0  0  0  0  0  0
    6.3108   -0.6391   -5.4606 C   0  0  0  0  0  0  0  0  0  0  0  0
    6.1971   -1.7349   -6.3775 C   0  0  0  0  0  0  0  0  0  0  0  0
    6.8670   -1.5273   -7.5759 C   0  0  0  0  0  0  0  0  0  0  0  0
    6.9719   -2.4160   -8.7342 C   0  0  0  0  0  0  0  0  0  0  0  0
    8.0701   -2.6453   -9.5721 C   0  0  0  0  0  0  0  0  0  0  0  0
    9.4263   -2.0246   -9.5619 C   0  0  0  0  0  0  0  0  0  0  0  0
    7.6695   -3.6828  -10.4752 C   0  0  0  0  0  0  0  0  0  0  0  0
    8.4643   -4.3034  -11.5747 C   0  0  0  0  0  0  0  0  0  0  0  0
    9.5957   -3.9262  -11.8695 O   0  0  0  0  0  0  0  0  0  0  0  0
    7.8198   -5.3267  -12.2481 N   0  0  0  0  0  0  0  0  0  0  0  0
    8.3634   -5.9956  -13.4186 C   0  0  0  0  0  0  0  0  0  0  0  0
    9.1820   -7.2548  -13.1083 C   0  0  0  0  0  0  0  0  0  0  0  0
    8.3579   -8.3684  -12.4570 C   0  0  0  0  0  0  0  0  0  0  0  0
    9.1971   -9.6094  -12.1782 C   0  0  0  0  0  0  0  0  0  0  0  0
    6.4153   -4.0761  -10.2149 N   0  0  0  0  0  0  0  0  0  0  0  0
    5.9834   -3.3122   -9.1770 N   0  0  0  0  0  0  0  0  0  0  0  0
    4.6267   -3.4566   -8.7415 C   0  0  0  0  0  0  0  0  0  0  0  0
    3.9131   -2.3192   -8.3175 C   0  0  0  0  0  0  0  0  0  0  0  0
    2.6196   -2.4331   -7.8017 C   0  0  0  0  0  0  0  0  0  0  0  0
    1.9982   -3.6749   -7.7681 C   0  0  0  0  0  0  0  0  0  0  0  0
    2.6619   -4.8040   -8.2376 C   0  0  0  0  0  0  0  0  0  0  0  0
    3.9771   -4.7070   -8.7177 C   0  0  0  0  0  0  0  0  0  0  0  0
    4.7248   -6.2193   -9.1155 Cl  0  0  0  0  0  0  0  0  0  0  0  0
    0.4057   -3.8166   -7.1358 Cl  0  0  0  0  0  0  0  0  0  0  0  0
    7.5943    0.0369   -7.5539 S   0  0  0  0  0  0  0  0  0  0  0  0
   12.0813    5.3071   -1.3563 H   0  0  0  0  0  0  0  0  0  0  0  0
   12.4771    4.0022   -2.4863 H   0  0  0  0  0  0  0  0  0  0  0  0
   11.5527    3.6520   -1.0122 H   0  0  0  0  0  0  0  0  0  0  0  0
   10.5930    5.4130   -3.3301 H   0  0  0  0  0  0  0  0  0  0  0  0
    9.6737    5.0740   -1.8630 H   0  0  0  0  0  0  0  0  0  0  0  0
    9.6736    2.6254   -2.4292 H   0  0  0  0  0  0  0  0  0  0  0  0
   10.5954    2.9631   -3.8917 H   0  0  0  0  0  0  0  0  0  0  0  0
    8.7241    4.4284   -4.7225 H   0  0  0  0  0  0  0  0  0  0  0  0
    7.7965    4.0612   -3.2703 H   0  0  0  0  0  0  0  0  0  0  0  0
    5.8402   -0.6122   -4.4828 H   0  0  0  0  0  0  0  0  0  0  0  0
    5.6258   -2.6266   -6.1478 H   0  0  0  0  0  0  0  0  0  0  0  0
    9.5852   -1.3358   -8.7335 H   0  0  0  0  0  0  0  0  0  0  0  0
    9.5976   -1.4717  -10.4913 H   0  0  0  0  0  0  0  0  0  0  0  0
   10.1966   -2.7964   -9.4654 H   0  0  0  0  0  0  0  0  0  0  0  0
    6.8817   -5.5445  -11.9232 H   0  0  0  0  0  0  0  0  0  0  0  0
    9.0003   -5.2888  -13.9637 H   0  0  0  0  0  0  0  0  0  0  0  0
    7.5212   -6.2479  -14.0727 H   0  0  0  0  0  0  0  0  0  0  0  0
   10.0325   -6.9979  -12.4665 H   0  0  0  0  0  0  0  0  0  0  0  0
    9.5992   -7.6353  -14.0509 H   0  0  0  0  0  0  0  0  0  0  0  0
    7.5231   -8.6454  -13.1115 H   0  0  0  0  0  0  0  0  0  0  0  0
    7.9303   -8.0134  -11.5136 H   0  0  0  0  0  0  0  0  0  0  0  0
    9.5955  -10.0372  -13.1041 H   0  0  0  0  0  0  0  0  0  0  0  0
    8.5869  -10.3763  -11.6894 H   0  0  0  0  0  0  0  0  0  0  0  0
   10.0385   -9.3771  -11.5176 H   0  0  0  0  0  0  0  0  0  0  0  0
    4.3430   -1.3213   -8.3780 H   0  0  0  0  0  0  0  0  0  0  0  0
    2.1080   -1.5486   -7.4286 H   0  0  0  0  0  0  0  0  0  0  0  0
    2.1646   -5.7710   -8.2036 H   0  0  0  0  0  0  0  0  0  0  0  0
  1  2  1  0  0  0  0
  1 33  1  0  0  0  0
  1 34  1  0  0  0  0
  1 35  1  0  0  0  0
  2  3  1  0  0  0  0
  2 36  1  0  0  0  0
  2 37  1  0  0  0  0
  3  4  1  0  0  0  0
  3 38  1  0  0  0  0
  3 39  1  0  0  0  0
  4  5  1  0  0  0  0
  4 40  1  0  0  0  0
  4 41  1  0  0  0  0
  5  6  3  0  0  0  0
  6  7  1  0  0  0  0
  7 32  1  0  0  0  0
  7  8  2  0  0  0  0
  8  9  1  0  0  0  0
  8 42  1  0  0  0  0
  9 10  2  0  0  0  0
  9 43  1  0  0  0  0
 10 11  1  0  0  0  0
 10 32  1  0  0  0  0
 11 23  1  0  0  0  0
 11 12  2  0  0  0  0
 12 13  1  0  0  0  0
 12 14  1  0  0  0  0
 13 44  1  0  0  0  0
 13 45  1  0  0  0  0
 13 46  1  0  0  0  0
 14 15  1  0  0  0  0
 14 22  2  0  0  0  0
 15 16  2  0  0  0  0
 15 17  1  0  0  0  0
 17 18  1  0  0  0  0
 17 47  1  0  0  0  0
 18 19  1  0  0  0  0
 18 48  1  0  0  0  0
 18 49  1  0  0  0  0
 19 20  1  0  0  0  0
 19 50  1  0  0  0  0
 19 51  1  0  0  0  0
 20 21  1  0  0  0  0
 20 52  1  0  0  0  0
 20 53  1  0  0  0  0
 21 54  1  0  0  0  0
 21 55  1  0  0  0  0
 21 56  1  0  0  0  0
 22 23  1  0  0  0  0
 23 24  1  0  0  0  0
 24 29  2  0  0  0  0
 24 25  1  0  0  0  0
 25 26  2  0  0  0  0
 25 57  1  0  0  0  0
 26 27  1  0  0  0  0
 26 58  1  0  0  0  0
 27 28  2  0  0  0  0
 27 31  1  0  0  0  0
 28 29  1  0  0  0  0
 28 59  1  0  0  0  0
 29 30  1  0  0  0  0
M  END
$$$$
CHEMBL189676
 OpenBabel12022417383D

 54 57  0  0  0  0  0  0  0  0999 V2000
    3.4641    0.0010    1.1509 C   0  0  0  0  0  0  0  0  0  0  0  0
    2.3585    0.2321    0.1364 C   0  0  0  0  0  0  0  0  0  0  0  0
    2.8250    0.9657   -1.0892 C   0  0  0  0  0  0  0  0  0  0  0  0
    2.7149    2.3828   -1.3034 C   0  0  0  0  0  0  0  0  0  0  0  0
    2.1182    3.4227   -0.4155 C   0  0  0  0  0  0  0  0  0  0  0  0
    1.5850    3.1431    0.6585 O   0  0  0  0  0  0  0  0  0  0  0  0
    2.2162    4.7206   -0.9314 N   0  0  0  0  0  0  0  0  0  0  0  0
    1.7266    5.9036   -0.2945 N   0  0  0  0  0  0  0  0  0  0  0  0
    0.2583    5.9869   -0.2963 C   0  0  0  0  0  0  0  0  0  0  0  0
   -0.2249    7.3382    0.2473 C   0  0  0  0  0  0  0  0  0  0  0  0
    0.3228    7.5976    1.6446 C   0  0  0  0  0  0  0  0  0  0  0  0
    1.8397    7.4662    1.6447 C   0  0  0  0  0  0  0  0  0  0  0  0
    2.2932    6.1273    1.0453 C   0  0  0  0  0  0  0  0  0  0  0  0
    3.2595    2.7225   -2.4833 N   0  0  0  0  0  0  0  0  0  0  0  0
    3.6507    1.5595   -3.0624 N   0  0  0  0  0  0  0  0  0  0  0  0
    4.0307    1.5874   -4.4374 C   0  0  0  0  0  0  0  0  0  0  0  0
    3.5304    0.5957   -5.3014 C   0  0  0  0  0  0  0  0  0  0  0  0
    3.8341    0.6318   -6.6642 C   0  0  0  0  0  0  0  0  0  0  0  0
    4.6264    1.6586   -7.1699 C   0  0  0  0  0  0  0  0  0  0  0  0
    5.1473    2.6322   -6.3215 C   0  0  0  0  0  0  0  0  0  0  0  0
    4.8572    2.5997   -4.9523 C   0  0  0  0  0  0  0  0  0  0  0  0
    5.6970    3.7502   -3.9673 Cl  0  0  0  0  0  0  0  0  0  0  0  0
    4.9700    1.7207   -8.8540 Cl  0  0  0  0  0  0  0  0  0  0  0  0
    3.4816    0.4528   -2.2192 C   0  0  0  0  0  0  0  0  0  0  0  0
    4.0057   -0.9144   -2.4996 C   0  0  0  0  0  0  0  0  0  0  0  0
    5.2220   -1.1091   -3.1848 C   0  0  0  0  0  0  0  0  0  0  0  0
    5.7079   -2.3912   -3.4784 C   0  0  0  0  0  0  0  0  0  0  0  0
    5.0213   -3.5111   -3.0255 C   0  0  0  0  0  0  0  0  0  0  0  0
    3.8354   -3.3540   -2.3190 C   0  0  0  0  0  0  0  0  0  0  0  0
    3.3236   -2.0709   -2.0879 C   0  0  0  0  0  0  0  0  0  0  0  0
    5.6986   -5.2403   -3.3680 Br  0  0  0  0  0  0  0  0  0  0  0  0
    3.0838   -0.5892    1.9923 H   0  0  0  0  0  0  0  0  0  0  0  0
    3.8427    0.9483    1.5451 H   0  0  0  0  0  0  0  0  0  0  0  0
    4.3062   -0.5451    0.7122 H   0  0  0  0  0  0  0  0  0  0  0  0
    1.5352    0.7724    0.6176 H   0  0  0  0  0  0  0  0  0  0  0  0
    1.9095   -0.7236   -0.1322 H   0  0  0  0  0  0  0  0  0  0  0  0
    2.6802    4.8076   -1.8330 H   0  0  0  0  0  0  0  0  0  0  0  0
   -0.1834    5.1783    0.2983 H   0  0  0  0  0  0  0  0  0  0  0  0
   -0.1151    5.8808   -1.3218 H   0  0  0  0  0  0  0  0  0  0  0  0
   -1.3208    7.3611    0.2694 H   0  0  0  0  0  0  0  0  0  0  0  0
    0.0960    8.1445   -0.4239 H   0  0  0  0  0  0  0  0  0  0  0  0
   -0.1138    6.8803    2.3521 H   0  0  0  0  0  0  0  0  0  0  0  0
    0.0294    8.6005    1.9861 H   0  0  0  0  0  0  0  0  0  0  0  0
    2.2153    7.5562    2.6706 H   0  0  0  0  0  0  0  0  0  0  0  0
    2.2767    8.2946    1.0728 H   0  0  0  0  0  0  0  0  0  0  0  0
    3.3880    6.1355    0.9818 H   0  0  0  0  0  0  0  0  0  0  0  0
    2.0115    5.3264    1.7378 H   0  0  0  0  0  0  0  0  0  0  0  0
    2.8759   -0.1962   -4.9413 H   0  0  0  0  0  0  0  0  0  0  0  0
    3.4393   -0.1357   -7.3263 H   0  0  0  0  0  0  0  0  0  0  0  0
    5.7933    3.4095   -6.7236 H   0  0  0  0  0  0  0  0  0  0  0  0
    5.8194   -0.2636   -3.5225 H   0  0  0  0  0  0  0  0  0  0  0  0
    6.6252   -2.4997   -4.0525 H   0  0  0  0  0  0  0  0  0  0  0  0
    3.2963   -4.2221   -1.9444 H   0  0  0  0  0  0  0  0  0  0  0  0
    2.3652   -2.0083   -1.5848 H   0  0  0  0  0  0  0  0  0  0  0  0
  1  2  1  0  0  0  0
  1 32  1  0  0  0  0
  1 33  1  0  0  0  0
  1 34  1  0  0  0  0
  2  3  1  0  0  0  0
  2 35  1  0  0  0  0
  2 36  1  0  0  0  0
  3 24  2  0  0  0  0
  3  4  1  0  0  0  0
  4  5  1  0  0  0  0
  4 14  2  0  0  0  0
  5  6  2  0  0  0  0
  5  7  1  0  0  0  0
  7  8  1  0  0  0  0
  7 37  1  0  0  0  0
  8 13  1  0  0  0  0
  8  9  1  0  0  0  0
  9 10  1  0  0  0  0
  9 38  1  0  0  0  0
  9 39  1  0  0  0  0
 10 11  1  0  0  0  0
 10 40  1  0  0  0  0
 10 41  1  0  0  0  0
 11 12  1  0  0  0  0
 11 42  1  0  0  0  0
 11 43  1  0  0  0  0
 12 13  1  0  0  0  0
 12 44  1  0  0  0  0
 12 45  1  0  0  0  0
 13 46  1  0  0  0  0
 13 47  1  0  0  0  0
 14 15  1  0  0  0  0
 15 16  1  0  0  0  0
 15 24  1  0  0  0  0
 16 21  2  0  0  0  0
 16 17  1  0  0  0  0
 17 18  2  0  0  0  0
 17 48  1  0  0  0  0
 18 19  1  0  0  0  0
 18 49  1  0  0  0  0
 19 20  2  0  0  0  0
 19 23  1  0  0  0  0
 20 21  1  0  0  0  0
 20 50  1  0  0  0  0
 21 22  1  0  0  0  0
 24 25  1  0  0  0  0
 25 30  2  0  0  0  0
 25 26  1  0  0  0  0
 26 27  2  0  0  0  0
 26 51  1  0  0  0  0
 27 28  1  0  0  0  0
 27 52  1  0  0  0  0
 28 29  2  0  0  0  0
 28 31  1  0  0  0  0
 29 30  1  0  0  0  0
 29 53  1  0  0  0  0
 30 54  1  0  0  0  0
M  END
$$$$
CHEMBL4089821
 OpenBabel12022417383D

 61 64  0  0  0  0  0  0  0  0999 V2000
    5.4053    0.0032    0.9688 O   0  0  0  0  0  0  0  0  0  0  0  0
    4.7463   -1.1719    0.4359 S   0  0  0  0  0  0  0  0  0  0  0  0
    5.3120   -2.4973    0.5865 O   0  0  0  0  0  0  0  0  0  0  0  0
    3.1852   -1.1871    0.9276 O   0  0  0  0  0  0  0  0  0  0  0  0
    2.8254   -1.5942    2.1927 C   0  0  0  0  0  0  0  0  0  0  0  0
    1.4707   -1.8737    2.3933 C   0  0  0  0  0  0  0  0  0  0  0  0
    0.9993   -2.3170    3.6438 C   0  0  0  0  0  0  0  0  0  0  0  0
    1.8863   -2.5220    4.7109 C   0  0  0  0  0  0  0  0  0  0  0  0
    3.2421   -2.2341    4.4991 C   0  0  0  0  0  0  0  0  0  0  0  0
    3.7018   -1.7445    3.2642 C   0  0  0  0  0  0  0  0  0  0  0  0
    1.4333   -3.0448    5.9779 N   0  0  0  0  0  0  0  0  0  0  0  0
    1.8839   -2.6609    7.2446 C   0  0  0  0  0  0  0  0  0  0  0  0
    1.1144   -3.3607    8.1686 C   0  0  0  0  0  0  0  0  0  0  0  0
    1.1686   -3.2029    9.6448 C   0  0  0  0  0  0  0  0  0  0  0  0
    1.9764   -2.4274   10.1466 O   0  0  0  0  0  0  0  0  0  0  0  0
    0.2605   -3.9851   10.3356 N   0  0  0  0  0  0  0  0  0  0  0  0
    0.0797   -3.9370   11.7297 C   0  0  0  0  0  0  0  0  0  0  0  0
   -0.8399   -4.7931   12.3286 C   0  0  0  0  0  0  0  0  0  0  0  0
   -1.0434   -4.7314   13.7151 C   0  0  0  0  0  0  0  0  0  0  0  0
   -0.3292   -3.8126   14.4861 C   0  0  0  0  0  0  0  0  0  0  0  0
    0.5653   -3.0006   13.8091 C   0  0  0  0  0  0  0  0  0  0  0  0
    0.7779   -3.0538   12.4744 N   0  0  0  0  0  0  0  0  0  0  0  0
   -0.5096   -3.6756   15.9630 C   0  0  0  0  0  0  0  0  0  0  0  0
    0.2609   -4.2144    7.5101 N   0  0  0  0  0  0  0  0  0  0  0  0
    0.4458   -4.0332    6.2068 C   0  0  0  0  0  0  0  0  0  0  0  0
   -0.2497   -4.8612    5.1874 C   0  0  0  0  0  0  0  0  0  0  0  0
   -1.5998   -5.2520    5.3264 C   0  0  0  0  0  0  0  0  0  0  0  0
   -2.2322   -6.0341    4.3475 C   0  0  0  0  0  0  0  0  0  0  0  0
   -1.5378   -6.4172    3.2064 C   0  0  0  0  0  0  0  0  0  0  0  0
   -0.2048   -6.0621    3.0494 C   0  0  0  0  0  0  0  0  0  0  0  0
    0.4408   -5.3267    4.0498 C   0  0  0  0  0  0  0  0  0  0  0  0
   -2.3277   -7.3369    1.9872 Cl  0  0  0  0  0  0  0  0  0  0  0  0
   -2.5889   -4.7851    6.6717 Cl  0  0  0  0  0  0  0  0  0  0  0  0
    2.8971   -1.6123    7.5665 C   0  0  0  0  0  0  0  0  0  0  0  0
    4.4615   -0.9026   -1.3031 C   0  0  0  0  0  0  0  0  0  0  0  0
    5.7814   -0.8552   -2.0677 C   0  0  0  0  0  0  0  0  0  0  0  0
    5.5681   -0.6736   -3.5530 C   0  0  0  0  0  0  0  0  0  0  0  0
    4.2591   -0.6245   -3.8772 F   0  0  0  0  0  0  0  0  0  0  0  0
    6.1388    0.4711   -3.9853 F   0  0  0  0  0  0  0  0  0  0  0  0
    6.1214   -1.6922   -4.2460 F   0  0  0  0  0  0  0  0  0  0  0  0
    0.7663   -1.7536    1.5721 H   0  0  0  0  0  0  0  0  0  0  0  0
   -0.0694   -2.4883    3.7518 H   0  0  0  0  0  0  0  0  0  0  0  0
    3.9911   -2.4227    5.2649 H   0  0  0  0  0  0  0  0  0  0  0  0
    4.7594   -1.5075    3.1756 H   0  0  0  0  0  0  0  0  0  0  0  0
   -0.3142   -4.6062    9.7799 H   0  0  0  0  0  0  0  0  0  0  0  0
   -1.4047   -5.5080   11.7402 H   0  0  0  0  0  0  0  0  0  0  0  0
   -1.7610   -5.4004   14.1865 H   0  0  0  0  0  0  0  0  0  0  0  0
    1.1662   -2.2592   14.3285 H   0  0  0  0  0  0  0  0  0  0  0  0
   -1.2166   -4.4118   16.3587 H   0  0  0  0  0  0  0  0  0  0  0  0
   -0.8911   -2.6776   16.2079 H   0  0  0  0  0  0  0  0  0  0  0  0
    0.4470   -3.8214   16.4820 H   0  0  0  0  0  0  0  0  0  0  0  0
   -3.2694   -6.3352    4.4750 H   0  0  0  0  0  0  0  0  0  0  0  0
    0.3436   -6.3549    2.1569 H   0  0  0  0  0  0  0  0  0  0  0  0
    1.4979   -5.1081    3.9093 H   0  0  0  0  0  0  0  0  0  0  0  0
    3.2973   -1.0711    6.7134 H   0  0  0  0  0  0  0  0  0  0  0  0
    3.7373   -2.0690    8.1031 H   0  0  0  0  0  0  0  0  0  0  0  0
    2.4530   -0.8483    8.2133 H   0  0  0  0  0  0  0  0  0  0  0  0
    3.9173    0.0402   -1.4074 H   0  0  0  0  0  0  0  0  0  0  0  0
    3.8385   -1.7285   -1.6592 H   0  0  0  0  0  0  0  0  0  0  0  0
    6.3506   -1.7762   -1.8938 H   0  0  0  0  0  0  0  0  0  0  0  0
    6.4060   -0.0384   -1.6865 H   0  0  0  0  0  0  0  0  0  0  0  0
  1  2  2  0  0  0  0
  2  3  2  0  0  0  0
  2  4  1  0  0  0  0
  2 35  1  0  0  0  0
  4  5  1  0  0  0  0
  5 10  2  0  0  0  0
  5  6  1  0  0  0  0
  6  7  2  0  0  0  0
  6 41  1  0  0  0  0
  7  8  1  0  0  0  0
  7 42  1  0  0  0  0
  8  9  2  0  0  0  0
  8 11  1  0  0  0  0
  9 10  1  0  0  0  0
  9 43  1  0  0  0  0
 10 44  1  0  0  0  0
 11 25  1  0  0  0  0
 11 12  1  0  0  0  0
 12 13  2  0  0  0  0
 12 34  1  0  0  0  0
 13 14  1  0  0  0  0
 13 24  1  0  0  0  0
 14 15  2  0  0  0  0
 14 16  1  0  0  0  0
 16 17  1  0  0  0  0
 16 45  1  0  0  0  0
 17 22  2  0  0  0  0
 17 18  1  0  0  0  0
 18 19  2  0  0  0  0
 18 46  1  0  0  0  0
 19 20  1  0  0  0  0
 19 47  1  0  0  0  0
 20 21  2  0  0  0  0
 20 23  1  0  0  0  0
 21 22  1  0  0  0  0
 21 48  1  0  0  0  0
 23 49  1  0  0  0  0
 23 50  1  0  0  0  0
 23 51  1  0  0  0  0
 24 25  2  0  0  0  0
 25 26  1  0  0  0  0
 26 31  2  0  0  0  0
 26 27  1  0  0  0  0
 27 28  2  0  0  0  0
 27 33  1  0  0  0  0
 28 29  1  0  0  0  0
 28 52  1  0  0  0  0
 29 30  2  0  0  0  0
 29 32  1  0  0  0  0
 30 31  1  0  0  0  0
 30 53  1  0  0  0  0
 31 54  1  0  0  0  0
 34 55  1  0  0  0  0
 34 56  1  0  0  0  0
 34 57  1  0  0  0  0
 35 36  1  0  0  0  0
 35 58  1  0  0  0  0
 35 59  1  0  0  0  0
 36 37  1  0  0  0  0
 36 60  1  0  0  0  0
 36 61  1  0  0  0  0
 37 38  1  0  0  0  0
 37 39  1  0  0  0  0
 37 40  1  0  0  0  0
M  END
$$$$
CHEMBL2030930
 OpenBabel12022417383D

 66 69  0  0  1  0  0  0  0  0999 V2000
   -0.7914   10.5551   -0.3943 C   0  0  0  0  0  0  0  0  0  0  0  0
   -0.1933    9.8341   -1.4312 C   0  0  0  0  0  0  0  0  0  0  0  0
    0.1492    8.5379   -0.8830 C   0  0  0  0  0  0  0  0  0  0  0  0
    0.9804    7.4705   -1.5407 C   0  0  0  0  0  0  0  0  0  0  0  0
    1.4945    7.6781   -2.6410 O   0  0  0  0  0  0  0  0  0  0  0  0
    1.1696    6.2318   -0.8824 N   0  0  0  0  0  0  0  0  0  0  0  0
    1.8066    5.0938   -1.6141 C   0  0  2  0  0  0  0  0  0  0  0  0
    0.8618    4.6259   -2.7306 C   0  0  0  0  0  0  0  0  0  0  0  0
   -0.2617    3.8167   -2.1027 C   0  0  0  0  0  0  0  0  0  0  0  0
    0.3180    2.5115   -1.6122 C   0  0  0  0  0  0  0  0  0  0  0  0
    1.3199    2.7305   -0.5769 N   0  0  0  0  0  0  0  0  0  0  0  0
    2.3118    3.8171   -0.8023 C   0  0  0  0  0  0  0  0  0  0  0  0
    1.5282    1.6020    0.2327 C   0  0  0  0  0  0  0  0  0  0  0  0
    0.7612    0.6436    0.2138 O   0  0  0  0  0  0  0  0  0  0  0  0
    2.6257    1.6497    1.0389 O   0  0  0  0  0  0  0  0  0  0  0  0
    2.8181    0.5653    2.0092 C   0  0  0  0  0  0  0  0  0  0  0  0
    2.9963   -0.8200    1.3581 C   0  0  0  0  0  0  0  0  0  0  0  0
    4.1218    0.9002    2.7502 C   0  0  0  0  0  0  0  0  0  0  0  0
    1.6778    0.5409    3.0415 C   0  0  0  0  0  0  0  0  0  0  0  0
   -0.3739    8.4125    0.3482 N   0  0  0  0  0  0  0  0  0  0  0  0
   -0.8774    9.6462    0.6593 N   0  0  0  0  0  0  0  0  0  0  0  0
   -1.2033    9.9241    2.0141 C   0  0  0  0  0  0  0  0  0  0  0  0
   -0.6033   11.0316    2.6400 C   0  0  0  0  0  0  0  0  0  0  0  0
   -0.7885   11.2461    4.0068 C   0  0  0  0  0  0  0  0  0  0  0  0
   -1.5826   10.3703    4.7429 C   0  0  0  0  0  0  0  0  0  0  0  0
   -2.2285    9.3044    4.1190 C   0  0  0  0  0  0  0  0  0  0  0  0
   -2.0401    9.0753    2.7514 C   0  0  0  0  0  0  0  0  0  0  0  0
   -2.9914    7.8260    2.0261 Cl  0  0  0  0  0  0  0  0  0  0  0  0
   -1.7623   10.6054    6.4375 Cl  0  0  0  0  0  0  0  0  0  0  0  0
    0.0587   10.3116   -2.8215 C   0  0  0  0  0  0  0  0  0  0  0  0
   -1.2905   11.9643   -0.3722 C   0  0  0  0  0  0  0  0  0  0  0  0
   -2.5452   12.3008    0.1502 C   0  0  0  0  0  0  0  0  0  0  0  0
   -2.9946   13.6333    0.1583 C   0  0  0  0  0  0  0  0  0  0  0  0
   -2.1928   14.6385   -0.3726 C   0  0  0  0  0  0  0  0  0  0  0  0
   -0.9424   14.3324   -0.8911 C   0  0  0  0  0  0  0  0  0  0  0  0
   -0.4890   13.0020   -0.8801 C   0  0  0  0  0  0  0  0  0  0  0  0
   -2.7462   16.2691   -0.3818 Cl  0  0  0  0  0  0  0  0  0  0  0  0
    0.5744    6.0642   -0.0770 H   0  0  0  0  0  0  0  0  0  0  0  0
    2.7011    5.5304   -2.0817 H   0  0  0  0  0  0  0  0  0  0  0  0
    1.4164    4.0102   -3.4508 H   0  0  0  0  0  0  0  0  0  0  0  0
    0.4395    5.4622   -3.2936 H   0  0  0  0  0  0  0  0  0  0  0  0
   -1.0597    3.6326   -2.8249 H   0  0  0  0  0  0  0  0  0  0  0  0
   -0.7020    4.3566   -1.2544 H   0  0  0  0  0  0  0  0  0  0  0  0
    0.7976    1.9571   -2.4306 H   0  0  0  0  0  0  0  0  0  0  0  0
   -0.4959    1.8825   -1.2356 H   0  0  0  0  0  0  0  0  0  0  0  0
    2.7907    4.0911    0.1422 H   0  0  0  0  0  0  0  0  0  0  0  0
    3.0917    3.3425   -1.4189 H   0  0  0  0  0  0  0  0  0  0  0  0
    3.7574   -0.7934    0.5718 H   0  0  0  0  0  0  0  0  0  0  0  0
    2.0761   -1.1924    0.8987 H   0  0  0  0  0  0  0  0  0  0  0  0
    3.2947   -1.5707    2.1016 H   0  0  0  0  0  0  0  0  0  0  0  0
    4.9639    0.9555    2.0517 H   0  0  0  0  0  0  0  0  0  0  0  0
    4.3578    0.1485    3.5132 H   0  0  0  0  0  0  0  0  0  0  0  0
    4.0515    1.8766    3.2409 H   0  0  0  0  0  0  0  0  0  0  0  0
    0.7232    0.2429    2.5970 H   0  0  0  0  0  0  0  0  0  0  0  0
    1.5255    1.5353    3.4737 H   0  0  0  0  0  0  0  0  0  0  0  0
    1.8870   -0.1649    3.8536 H   0  0  0  0  0  0  0  0  0  0  0  0
    0.0562   11.7037    2.0947 H   0  0  0  0  0  0  0  0  0  0  0  0
   -0.2916   12.0820    4.4939 H   0  0  0  0  0  0  0  0  0  0  0  0
   -2.8805    8.6544    4.6975 H   0  0  0  0  0  0  0  0  0  0  0  0
   -0.3759   11.2989   -3.0094 H   0  0  0  0  0  0  0  0  0  0  0  0
   -0.3959    9.6316   -3.5485 H   0  0  0  0  0  0  0  0  0  0  0  0
    1.1324   10.3804   -3.0154 H   0  0  0  0  0  0  0  0  0  0  0  0
   -3.2090   11.5324    0.5408 H   0  0  0  0  0  0  0  0  0  0  0  0
   -3.9697   13.8778    0.5727 H   0  0  0  0  0  0  0  0  0  0  0  0
   -0.3086   15.1169   -1.2979 H   0  0  0  0  0  0  0  0  0  0  0  0
    0.5015   12.7994   -1.2762 H   0  0  0  0  0  0  0  0  0  0  0  0
  1 21  1  0  0  0  0
  1  2  2  0  0  0  0
  1 31  1  0  0  0  0
  2  3  1  0  0  0  0
  2 30  1  0  0  0  0
  3  4  1  0  0  0  0
  3 20  2  0  0  0  0
  4  5  2  0  0  0  0
  4  6  1  0  0  0  0
  6 38  1  0  0  0  0
  7  8  1  0  0  0  0
  7 12  1  0  0  0  0
  7  6  1  0  0  0  0
  7 39  1  6  0  0  0
  8  9  1  0  0  0  0
  8 40  1  0  0  0  0
  8 41  1  0  0  0  0
  9 10  1  0  0  0  0
  9 42  1  0  0  0  0
  9 43  1  0  0  0  0
 10 11  1  0  0  0  0
 10 44  1  0  0  0  0
 10 45  1  0  0  0  0
 11 12  1  0  0  0  0
 11 13  1  0  0  0  0
 12 46  1  0  0  0  0
 12 47  1  0  0  0  0
 13 14  2  0  0  0  0
 13 15  1  0  0  0  0
 15 16  1  0  0  0  0
 16 17  1  0  0  0  0
 16 18  1  0  0  0  0
 16 19  1  0  0  0  0
 17 48  1  0  0  0  0
 17 49  1  0  0  0  0
 17 50  1  0  0  0  0
 18 51  1  0  0  0  0
 18 52  1  0  0  0  0
 18 53  1  0  0  0  0
 19 54  1  0  0  0  0
 19 55  1  0  0  0  0
 19 56  1  0  0  0  0
 20 21  1  0  0  0  0
 21 22  1  0  0  0  0
 22 27  2  0  0  0  0
 22 23  1  0  0  0  0
 23 24  2  0  0  0  0
 23 57  1  0  0  0  0
 24 25  1  0  0  0  0
 24 58  1  0  0  0  0
 25 26  2  0  0  0  0
 25 29  1  0  0  0  0
 26 27  1  0  0  0  0
 26 59  1  0  0  0  0
 27 28  1  0  0  0  0
 30 60  1  0  0  0  0
 30 61  1  0  0  0  0
 30 62  1  0  0  0  0
 31 36  2  0  0  0  0
 31 32  1  0  0  0  0
 32 33  2  0  0  0  0
 32 63  1  0  0  0  0
 33 34  1  0  0  0  0
 33 64  1  0  0  0  0
 34 35  2  0  0  0  0
 34 37  1  0  0  0  0
 35 36  1  0  0  0  0
 35 65  1  0  0  0  0
 36 66  1  0  0  0  0
M  END
$$$$
CHEMBL2296774
 OpenBabel12022417383D

 57 61  0  0  0  0  0  0  0  0999 V2000
    1.4779    0.8259   -0.4072 O   0  0  0  0  0  0  0  0  0  0  0  0
    2.2221    0.0321    0.1705 C   0  0  0  0  0  0  0  0  0  0  0  0
    2.8599   -1.1016   -0.5413 C   0  0  0  0  0  0  0  0  0  0  0  0
    2.6057   -1.5347   -1.8765 C   0  0  0  0  0  0  0  0  0  0  0  0
    3.4537   -2.6038   -2.1168 C   0  0  0  0  0  0  0  0  0  0  0  0
    3.4378   -3.4658   -3.3214 C   0  0  0  0  0  0  0  0  0  0  0  0
    3.2711   -2.9322   -4.6302 C   0  0  0  0  0  0  0  0  0  0  0  0
    3.2766   -1.4284   -4.8828 C   0  0  0  0  0  0  0  0  0  0  0  0
    2.3651   -0.4649   -4.0890 C   0  0  0  0  0  0  0  0  0  0  0  0
    1.6364   -1.0156   -2.8718 C   0  0  0  0  0  0  0  0  0  0  0  0
    3.2756   -3.8710   -5.7008 C   0  0  0  0  0  0  0  0  0  0  0  0
    3.4334   -5.2485   -5.5096 C   0  0  0  0  0  0  0  0  0  0  0  0
    3.5709   -5.7448   -4.2245 C   0  0  0  0  0  0  0  0  0  0  0  0
    3.5413   -4.8643   -3.1446 C   0  0  0  0  0  0  0  0  0  0  0  0
    3.1309   -3.4592   -7.0952 N   0  3  0  0  0  0  0  0  0  0  0  0
    2.0700   -2.9109   -7.4208 O   0  0  0  0  0  0  0  0  0  0  0  0
    4.0611   -3.7480   -7.8620 O   0  5  0  0  0  0  0  0  0  0  0  0
    4.2213   -2.7399   -0.9553 N   0  0  0  0  0  0  0  0  0  0  0  0
    5.3701   -3.5642   -0.7409 C   0  0  0  0  0  0  0  0  0  0  0  0
    6.2177   -3.8685   -1.8298 C   0  0  0  0  0  0  0  0  0  0  0  0
    7.3453   -4.6806   -1.6641 C   0  0  0  0  0  0  0  0  0  0  0  0
    7.6545   -5.1786   -0.4053 C   0  0  0  0  0  0  0  0  0  0  0  0
    6.8403   -4.8860    0.6837 C   0  0  0  0  0  0  0  0  0  0  0  0
    5.6961   -4.0867    0.5249 C   0  0  0  0  0  0  0  0  0  0  0  0
    4.6957   -3.9459    1.9326 Cl  0  0  0  0  0  0  0  0  0  0  0  0
    9.0393   -6.1773   -0.1976 Cl  0  0  0  0  0  0  0  0  0  0  0  0
    3.8034   -1.8831    0.0219 N   0  0  0  0  0  0  0  0  0  0  0  0
    2.5072    0.1217    1.5351 N   0  0  0  0  0  0  0  0  0  0  0  0
    2.0169    1.2183    2.2983 N   0  0  0  0  0  0  0  0  0  0  0  0
    0.7292    0.9024    2.9349 C   0  0  0  0  0  0  0  0  0  0  0  0
    0.1505    2.0972    3.7057 C   0  0  0  0  0  0  0  0  0  0  0  0
    1.1600    2.7172    4.6671 C   0  0  0  0  0  0  0  0  0  0  0  0
    2.4856    2.9719    3.9573 C   0  0  0  0  0  0  0  0  0  0  0  0
    2.9920    1.6899    3.2880 C   0  0  0  0  0  0  0  0  0  0  0  0
    3.0762   -1.2119   -5.9365 H   0  0  0  0  0  0  0  0  0  0  0  0
    4.3176   -1.1026   -4.7436 H   0  0  0  0  0  0  0  0  0  0  0  0
    1.6151   -0.0427   -4.7695 H   0  0  0  0  0  0  0  0  0  0  0  0
    2.9813    0.3910   -3.7758 H   0  0  0  0  0  0  0  0  0  0  0  0
    1.0122   -0.2251   -2.4483 H   0  0  0  0  0  0  0  0  0  0  0  0
    0.9419   -1.8107   -3.1699 H   0  0  0  0  0  0  0  0  0  0  0  0
    3.4537   -5.9366   -6.3539 H   0  0  0  0  0  0  0  0  0  0  0  0
    3.7050   -6.8112   -4.0552 H   0  0  0  0  0  0  0  0  0  0  0  0
    3.6238   -5.2923   -2.1469 H   0  0  0  0  0  0  0  0  0  0  0  0
    6.0376   -3.4705   -2.8257 H   0  0  0  0  0  0  0  0  0  0  0  0
    7.9764   -4.9121   -2.5194 H   0  0  0  0  0  0  0  0  0  0  0  0
    7.0827   -5.2999    1.6604 H   0  0  0  0  0  0  0  0  0  0  0  0
    3.1007   -0.5973    1.9463 H   0  0  0  0  0  0  0  0  0  0  0  0
    0.8510    0.0529    3.6190 H   0  0  0  0  0  0  0  0  0  0  0  0
   -0.0011    0.6040    2.1731 H   0  0  0  0  0  0  0  0  0  0  0  0
   -0.7340    1.7751    4.2677 H   0  0  0  0  0  0  0  0  0  0  0  0
   -0.1866    2.8644    2.9969 H   0  0  0  0  0  0  0  0  0  0  0  0
    1.3254    2.0372    5.5129 H   0  0  0  0  0  0  0  0  0  0  0  0
    0.7640    3.6517    5.0787 H   0  0  0  0  0  0  0  0  0  0  0  0
    3.2264    3.3384    4.6767 H   0  0  0  0  0  0  0  0  0  0  0  0
    2.3539    3.7608    3.2055 H   0  0  0  0  0  0  0  0  0  0  0  0
    3.9548    1.8997    2.8101 H   0  0  0  0  0  0  0  0  0  0  0  0
    3.1634    0.9194    4.0509 H   0  0  0  0  0  0  0  0  0  0  0  0
  1  2  2  0  0  0  0
  2  3  1  0  0  0  0
  2 28  1  0  0  0  0
  3 27  2  0  0  0  0
  3  4  1  0  0  0  0
  4 10  1  0  0  0  0
  4  5  2  0  0  0  0
  5  6  1  0  0  0  0
  5 18  1  0  0  0  0
  6 14  2  0  0  0  0
  6  7  1  0  0  0  0
  7  8  1  0  0  0  0
  7 11  2  0  0  0  0
  8  9  1  0  0  0  0
  8 35  1  0  0  0  0
  8 36  1  0  0  0  0
  9 10  1  0  0  0  0
  9 37  1  0  0  0  0
  9 38  1  0  0  0  0
 10 39  1  0  0  0  0
 10 40  1  0  0  0  0
 11 12  1  0  0  0  0
 11 15  1  0  0  0  0
 12 13  2  0  0  0  0
 12 41  1  0  0  0  0
 13 14  1  0  0  0  0
 13 42  1  0  0  0  0
 14 43  1  0  0  0  0
 15 16  2  0  0  0  0
 15 17  1  0  0  0  0
 18 19  1  0  0  0  0
 18 27  1  0  0  0  0
 19 24  2  0  0  0  0
 19 20  1  0  0  0  0
 20 21  2  0  0  0  0
 20 44  1  0  0  0  0
 21 22  1  0  0  0  0
 21 45  1  0  0  0  0
 22 23  2  0  0  0  0
 22 26  1  0  0  0  0
 23 24  1  0  0  0  0
 23 46  1  0  0  0  0
 24 25  1  0  0  0  0
 28 29  1  0  0  0  0
 28 47  1  0  0  0  0
 29 34  1  0  0  0  0
 29 30  1  0  0  0  0
 30 31  1  0  0  0  0
 30 48  1  0  0  0  0
 30 49  1  0  0  0  0
 31 32  1  0  0  0  0
 31 50  1  0  0  0  0
 31 51  1  0  0  0  0
 32 33  1  0  0  0  0
 32 52  1  0  0  0  0
 32 53  1  0  0  0  0
 33 34  1  0  0  0  0
 33 54  1  0  0  0  0
 33 55  1  0  0  0  0
 34 56  1  0  0  0  0
 34 57  1  0  0  0  0
M  CHG  2  15   1  17  -1
M  END
$$$$
CHEMBL4094098
 OpenBabel12022417383D

 58 61  0  0  0  0  0  0  0  0999 V2000
    1.1780    0.2071    0.0787 C   0  0  0  0  0  0  0  0  0  0  0  0
    2.6573    0.0366   -0.0346 C   0  0  0  0  0  0  0  0  0  0  0  0
    3.6151    1.0359   -0.1310 C   0  0  0  0  0  0  0  0  0  0  0  0
    3.3691    2.4931   -0.1833 C   0  0  0  0  0  0  0  0  0  0  0  0
    2.2348    2.9556   -0.1150 O   0  0  0  0  0  0  0  0  0  0  0  0
    4.5259    3.2362   -0.3504 N   0  0  0  0  0  0  0  0  0  0  0  0
    4.6173    4.6402   -0.4574 C   0  0  0  0  0  0  0  0  0  0  0  0
    5.8197    5.2217   -0.8811 C   0  0  0  0  0  0  0  0  0  0  0  0
    6.0265    6.5509   -1.0559 N   0  0  0  0  0  0  0  0  0  0  0  0
    4.9812    7.3593   -0.7810 C   0  0  0  0  0  0  0  0  0  0  0  0
    3.7583    6.9022   -0.3386 C   0  0  0  0  0  0  0  0  0  0  0  0
    3.5747    5.5235   -0.1772 C   0  0  0  0  0  0  0  0  0  0  0  0
    5.1492    8.6757   -0.9585 F   0  0  0  0  0  0  0  0  0  0  0  0
    4.8751    0.4796   -0.1757 N   0  0  0  0  0  0  0  0  0  0  0  0
    4.7298   -0.8354   -0.0784 C   0  0  0  0  0  0  0  0  0  0  0  0
    5.8685   -1.7898   -0.1345 C   0  0  0  0  0  0  0  0  0  0  0  0
    7.0768   -1.5728    0.5577 C   0  0  0  0  0  0  0  0  0  0  0  0
    8.0583   -2.5745    0.6238 C   0  0  0  0  0  0  0  0  0  0  0  0
    7.8380   -3.8080    0.0210 C   0  0  0  0  0  0  0  0  0  0  0  0
    6.6929   -4.0186   -0.7328 C   0  0  0  0  0  0  0  0  0  0  0  0
    5.7531   -2.9920   -0.8616 C   0  0  0  0  0  0  0  0  0  0  0  0
    8.9781   -5.0797    0.2132 Cl  0  0  0  0  0  0  0  0  0  0  0  0
    7.4326   -0.1021    1.3998 Cl  0  0  0  0  0  0  0  0  0  0  0  0
    3.3585   -1.1690    0.0119 N   0  0  0  0  0  0  0  0  0  0  0  0
    2.7854   -2.4852    0.0455 C   0  0  0  0  0  0  0  0  0  0  0  0
    3.3667   -3.5274    0.7856 C   0  0  0  0  0  0  0  0  0  0  0  0
    2.9209   -4.8498    0.6259 C   0  0  0  0  0  0  0  0  0  0  0  0
    1.8330   -5.1297   -0.1991 C   0  0  0  0  0  0  0  0  0  0  0  0
    1.2248   -4.0880   -0.9000 C   0  0  0  0  0  0  0  0  0  0  0  0
    1.7010   -2.7785   -0.7873 C   0  0  0  0  0  0  0  0  0  0  0  0
    1.4315   -6.4445   -0.2942 O   0  0  0  0  0  0  0  0  0  0  0  0
   -0.1644   -6.7722   -0.4772 S   0  0  0  0  0  0  0  0  0  0  0  0
   -0.8862   -6.2481    0.6623 O   0  0  0  0  0  0  0  0  0  0  0  0
   -0.5631   -6.4830   -1.8374 O   0  0  0  0  0  0  0  0  0  0  0  0
   -0.1150   -8.5506   -0.3156 C   0  0  0  0  0  0  0  0  0  0  0  0
   -1.5475   -9.0700   -0.4041 C   0  0  0  0  0  0  0  0  0  0  0  0
   -1.6458  -10.5699   -0.3051 C   0  0  0  0  0  0  0  0  0  0  0  0
   -0.4389  -11.1494   -0.1519 F   0  0  0  0  0  0  0  0  0  0  0  0
   -2.4129  -10.9279    0.7462 F   0  0  0  0  0  0  0  0  0  0  0  0
   -2.2125  -11.0830   -1.4179 F   0  0  0  0  0  0  0  0  0  0  0  0
    0.6370   -0.7088    0.3174 H   0  0  0  0  0  0  0  0  0  0  0  0
    0.7785    0.6058   -0.8612 H   0  0  0  0  0  0  0  0  0  0  0  0
    0.9366    0.9145    0.8786 H   0  0  0  0  0  0  0  0  0  0  0  0
    5.3675    2.6779   -0.4709 H   0  0  0  0  0  0  0  0  0  0  0  0
    6.6833    4.6029   -1.1168 H   0  0  0  0  0  0  0  0  0  0  0  0
    2.9602    7.6001   -0.1258 H   0  0  0  0  0  0  0  0  0  0  0  0
    2.6165    5.1798    0.1897 H   0  0  0  0  0  0  0  0  0  0  0  0
    8.9818   -2.3996    1.1705 H   0  0  0  0  0  0  0  0  0  0  0  0
    6.5070   -4.9805   -1.2053 H   0  0  0  0  0  0  0  0  0  0  0  0
    4.8822   -3.1836   -1.4864 H   0  0  0  0  0  0  0  0  0  0  0  0
    4.1943   -3.3440    1.4685 H   0  0  0  0  0  0  0  0  0  0  0  0
    3.4335   -5.6551    1.1486 H   0  0  0  0  0  0  0  0  0  0  0  0
    0.3910   -4.2594   -1.5756 H   0  0  0  0  0  0  0  0  0  0  0  0
    1.2384   -2.0199   -1.4151 H   0  0  0  0  0  0  0  0  0  0  0  0
    0.3417   -8.7945    0.6483 H   0  0  0  0  0  0  0  0  0  0  0  0
    0.5024   -8.9447   -1.1287 H   0  0  0  0  0  0  0  0  0  0  0  0
   -2.0027   -8.7431   -1.3459 H   0  0  0  0  0  0  0  0  0  0  0  0
   -2.1515   -8.6162    0.3915 H   0  0  0  0  0  0  0  0  0  0  0  0
  1  2  1  0  0  0  0
  1 41  1  0  0  0  0
  1 42  1  0  0  0  0
  1 43  1  0  0  0  0
  2 24  1  0  0  0  0
  2  3  2  0  0  0  0
  3  4  1  0  0  0  0
  3 14  1  0  0  0  0
  4  5  2  0  0  0  0
  4  6  1  0  0  0  0
  6  7  1  0  0  0  0
  6 44  1  0  0  0  0
  7 12  2  0  0  0  0
  7  8  1  0  0  0  0
  8  9  2  0  0  0  0
  8 45  1  0  0  0  0
  9 10  1  0  0  0  0
 10 11  2  0  0  0  0
 10 13  1  0  0  0  0
 11 12  1  0  0  0  0
 11 46  1  0  0  0  0
 12 47  1  0  0  0  0
 14 15  2  0  0  0  0
 15 16  1  0  0  0  0
 15 24  1  0  0  0  0
 16 21  2  0  0  0  0
 16 17  1  0  0  0  0
 17 18  2  0  0  0  0
 17 23  1  0  0  0  0
 18 19  1  0  0  0  0
 18 48  1  0  0  0  0
 19 20  2  0  0  0  0
 19 22  1  0  0  0  0
 20 21  1  0  0  0  0
 20 49  1  0  0  0  0
 21 50  1  0  0  0  0
 24 25  1  0  0  0  0
 25 30  2  0  0  0  0
 25 26  1  0  0  0  0
 26 27  2  0  0  0  0
 26 51  1  0  0  0  0
 27 28  1  0  0  0  0
 27 52  1  0  0  0  0
 28 29  2  0  0  0  0
 28 31  1  0  0  0  0
 29 30  1  0  0  0  0
 29 53  1  0  0  0  0
 30 54  1  0  0  0  0
 31 32  1  0  0  0  0
 32 33  2  0  0  0  0
 32 34  2  0  0  0  0
 32 35  1  0  0  0  0
 35 36  1  0  0  0  0
 35 55  1  0  0  0  0
 35 56  1  0  0  0  0
 36 37  1  0  0  0  0
 36 57  1  0  0  0  0
 36 58  1  0  0  0  0
 37 38  1  0  0  0  0
 37 39  1  0  0  0  0
 37 40  1  0  0  0  0
M  END
$$$$
CHEMBL1088349
 OpenBabel12022417383D

 55 58  0  0  0  0  0  0  0  0999 V2000
   -0.2693   -1.0966   -0.0286 N   0  0  0  0  0  0  0  0  0  0  0  0
   -1.1670    0.0032   -0.0694 C   0  0  0  0  0  0  0  0  0  0  0  0
   -0.3690    1.1500   -0.0543 C   0  0  0  0  0  0  0  0  0  0  0  0
    0.9419    0.7938    0.0367 N   0  0  0  0  0  0  0  0  0  0  0  0
    1.0256   -0.5211    0.0359 C   0  0  0  0  0  0  0  0  0  0  0  0
    2.3268   -1.2463    0.1074 C   0  0  0  0  0  0  0  0  0  0  0  0
    3.4863   -0.7277   -0.5021 C   0  0  0  0  0  0  0  0  0  0  0  0
    4.6765   -1.4841   -0.5504 C   0  0  0  0  0  0  0  0  0  0  0  0
    4.7028   -2.7567   -0.0052 C   0  0  0  0  0  0  0  0  0  0  0  0
    3.6122   -3.2871    0.6611 C   0  0  0  0  0  0  0  0  0  0  0  0
    2.4552   -2.5035    0.7429 C   0  0  0  0  0  0  0  0  0  0  0  0
    6.1663   -3.6561   -0.0337 Cl  0  0  0  0  0  0  0  0  0  0  0  0
    3.5454    0.8339   -1.2534 Cl  0  0  0  0  0  0  0  0  0  0  0  0
   -0.7926    2.5534   -0.0740 C   0  0  0  0  0  0  0  0  0  0  0  0
   -2.0027    2.8511   -0.1021 O   0  0  0  0  0  0  0  0  0  0  0  0
    0.2157    3.5100   -0.0747 N   0  0  0  0  0  0  0  0  0  0  0  0
   -0.0361    4.9376   -0.0715 N   0  0  0  0  0  0  0  0  0  0  0  0
   -0.6726    5.4102   -1.3196 C   0  0  0  0  0  0  0  0  0  0  0  0
   -0.8170    6.9449   -1.3352 C   0  0  0  0  0  0  0  0  0  0  0  0
   -1.5510    7.4727   -0.1066 C   0  0  0  0  0  0  0  0  0  0  0  0
   -0.9610    6.8806    1.1669 C   0  0  0  0  0  0  0  0  0  0  0  0
   -0.8527    5.3548    1.0880 C   0  0  0  0  0  0  0  0  0  0  0  0
   -2.9215   -0.1700   -0.0535 S   0  0  0  0  0  0  0  0  0  0  0  0
   -3.6056    0.5889   -1.5679 C   0  0  0  0  0  0  0  0  0  0  0  0
   -3.1838   -0.1443   -2.8232 C   0  0  0  0  0  0  0  0  0  0  0  0
   -0.5496   -2.5134   -0.0908 C   0  0  0  0  0  0  0  0  0  0  0  0
    0.3238   -3.3908   -0.7722 C   0  0  0  0  0  0  0  0  0  0  0  0
    0.1407   -4.7761   -0.7790 C   0  0  0  0  0  0  0  0  0  0  0  0
   -0.9668   -5.3004   -0.1538 C   0  0  0  0  0  0  0  0  0  0  0  0
   -1.8695   -4.4662    0.4997 C   0  0  0  0  0  0  0  0  0  0  0  0
   -1.6634   -3.0751    0.5388 C   0  0  0  0  0  0  0  0  0  0  0  0
   -1.2564   -6.9941   -0.2250 Cl  0  0  0  0  0  0  0  0  0  0  0  0
    5.5710   -1.0472   -1.0315 H   0  0  0  0  0  0  0  0  0  0  0  0
    3.6207   -4.2784    1.0647 H   0  0  0  0  0  0  0  0  0  0  0  0
    1.6007   -2.9784    1.2349 H   0  0  0  0  0  0  0  0  0  0  0  0
    1.1862    3.1828    0.0149 H   0  0  0  0  0  0  0  0  0  0  0  0
   -1.6671    4.9656   -1.4525 H   0  0  0  0  0  0  0  0  0  0  0  0
   -0.0691    5.1156   -2.1854 H   0  0  0  0  0  0  0  0  0  0  0  0
   -1.3518    7.2642   -2.2382 H   0  0  0  0  0  0  0  0  0  0  0  0
    0.1780    7.4054   -1.3806 H   0  0  0  0  0  0  0  0  0  0  0  0
   -2.6173    7.2226   -0.1740 H   0  0  0  0  0  0  0  0  0  0  0  0
   -1.4891    8.5687   -0.0710 H   0  0  0  0  0  0  0  0  0  0  0  0
   -1.5825    7.1633    2.0247 H   0  0  0  0  0  0  0  0  0  0  0  0
    0.0347    7.3084    1.3383 H   0  0  0  0  0  0  0  0  0  0  0  0
   -0.4035    4.9883    2.0146 H   0  0  0  0  0  0  0  0  0  0  0  0
   -1.8664    4.9400    1.0282 H   0  0  0  0  0  0  0  0  0  0  0  0
   -3.3903    1.6536   -1.6519 H   0  0  0  0  0  0  0  0  0  0  0  0
   -4.7012    0.5048   -1.4958 H   0  0  0  0  0  0  0  0  0  0  0  0
   -2.1026   -0.0676   -2.9875 H   0  0  0  0  0  0  0  0  0  0  0  0
   -3.6867    0.2891   -3.6963 H   0  0  0  0  0  0  0  0  0  0  0  0
   -3.4658   -1.2015   -2.7763 H   0  0  0  0  0  0  0  0  0  0  0  0
    1.2222   -3.0312   -1.2780 H   0  0  0  0  0  0  0  0  0  0  0  0
    0.8681   -5.4096   -1.2875 H   0  0  0  0  0  0  0  0  0  0  0  0
   -2.7553   -4.8794    0.9741 H   0  0  0  0  0  0  0  0  0  0  0  0
   -2.3783   -2.4742    1.0805 H   0  0  0  0  0  0  0  0  0  0  0  0
  1  5  1  0  0  0  0
  1  2  1  0  0  0  0
  1 26  1  0  0  0  0
  2  3  2  0  0  0  0
  2 23  1  0  0  0  0
  3  4  1  0  0  0  0
  3 14  1  0  0  0  0
  4  5  2  0  0  0  0
  5  6  1  0  0  0  0
  6 11  2  0  0  0  0
  6  7  1  0  0  0  0
  7  8  2  0  0  0  0
  7 13  1  0  0  0  0
  8  9  1  0  0  0  0
  8 33  1  0  0  0  0
  9 10  2  0  0  0  0
  9 12  1  0  0  0  0
 10 11  1  0  0  0  0
 10 34  1  0  0  0  0
 11 35  1  0  0  0  0
 14 15  2  0  0  0  0
 14 16  1  0  0  0  0
 16 17  1  0  0  0  0
 16 36  1  0  0  0  0
 17 22  1  0  0  0  0
 17 18  1  0  0  0  0
 18 19  1  0  0  0  0
 18 37  1  0  0  0  0
 18 38  1  0  0  0  0
 19 20  1  0  0  0  0
 19 39  1  0  0  0  0
 19 40  1  0  0  0  0
 20 21  1  0  0  0  0
 20 41  1  0  0  0  0
 20 42  1  0  0  0  0
 21 22  1  0  0  0  0
 21 43  1  0  0  0  0
 21 44  1  0  0  0  0
 22 45  1  0  0  0  0
 22 46  1  0  0  0  0
 23 24  1  0  0  0  0
 24 25  1  0  0  0  0
 24 47  1  0  0  0  0
 24 48  1  0  0  0  0
 25 49  1  0  0  0  0
 25 50  1  0  0  0  0
 25 51  1  0  0  0  0
 26 31  2  0  0  0  0
 26 27  1  0  0  0  0
 27 28  2  0  0  0  0
 27 52  1  0  0  0  0
 28 29  1  0  0  0  0
 28 53  1  0  0  0  0
 29 30  2  0  0  0  0
 29 32  1  0  0  0  0
 30 31  1  0  0  0  0
 30 54  1  0  0  0  0
 31 55  1  0  0  0  0
M  END
$$$$
CHEMBL1088222
 OpenBabel12022417383D

 54 57  0  0  0  0  0  0  0  0999 V2000
    3.5534    1.7398   -0.4986 C   0  0  0  0  0  0  0  0  0  0  0  0
    2.8926    0.1518   -0.1558 S   0  0  0  0  0  0  0  0  0  0  0  0
    3.5640   -0.3423    1.0306 O   0  0  0  0  0  0  0  0  0  0  0  0
    1.4492    0.2639   -0.2305 O   0  0  0  0  0  0  0  0  0  0  0  0
    3.2914   -1.0581   -1.3889 C   0  0  0  0  0  0  0  0  0  0  0  0
    3.9298   -0.9575   -2.6291 C   0  0  0  0  0  0  0  0  0  0  0  0
    4.4442    0.2370   -3.3189 C   0  0  0  0  0  0  0  0  0  0  0  0
    3.9766    1.3537   -3.1271 O   0  0  0  0  0  0  0  0  0  0  0  0
    5.4910   -0.0351   -4.1981 N   0  0  0  0  0  0  0  0  0  0  0  0
    6.1612    1.0129   -4.9032 N   0  0  0  0  0  0  0  0  0  0  0  0
    7.6130    0.7695   -4.9764 C   0  0  0  0  0  0  0  0  0  0  0  0
    8.3562    1.8592   -5.7597 C   0  0  0  0  0  0  0  0  0  0  0  0
    7.7686    2.0408   -7.1532 C   0  0  0  0  0  0  0  0  0  0  0  0
    6.2692    2.2869   -7.0536 C   0  0  0  0  0  0  0  0  0  0  0  0
    5.5713    1.1903   -6.2414 C   0  0  0  0  0  0  0  0  0  0  0  0
    4.0554   -2.1984   -3.2093 N   0  0  0  0  0  0  0  0  0  0  0  0
    3.4625   -3.0708   -2.4124 C   0  0  0  0  0  0  0  0  0  0  0  0
    3.1837   -4.4765   -2.8333 C   0  0  0  0  0  0  0  0  0  0  0  0
    1.9725   -5.1036   -2.4615 C   0  0  0  0  0  0  0  0  0  0  0  0
    1.7040   -6.4356   -2.7945 C   0  0  0  0  0  0  0  0  0  0  0  0
    2.6058   -7.1451   -3.5761 C   0  0  0  0  0  0  0  0  0  0  0  0
    3.7822   -6.5417   -4.0053 C   0  0  0  0  0  0  0  0  0  0  0  0
    4.0802   -5.2251   -3.6243 C   0  0  0  0  0  0  0  0  0  0  0  0
    5.6115   -4.6093   -4.1503 Cl  0  0  0  0  0  0  0  0  0  0  0  0
    2.2637   -8.7719   -4.0147 Cl  0  0  0  0  0  0  0  0  0  0  0  0
    3.0921   -2.4463   -1.2032 N   0  0  0  0  0  0  0  0  0  0  0  0
    2.6339   -3.1604   -0.0262 C   0  0  0  0  0  0  0  0  0  0  0  0
    3.1816   -4.4180    0.2887 C   0  0  0  0  0  0  0  0  0  0  0  0
    2.6625   -5.1915    1.3371 C   0  0  0  0  0  0  0  0  0  0  0  0
    1.6347   -4.6907    2.1271 C   0  0  0  0  0  0  0  0  0  0  0  0
    1.1139   -3.4310    1.8649 C   0  0  0  0  0  0  0  0  0  0  0  0
    1.5911   -2.6840    0.7787 C   0  0  0  0  0  0  0  0  0  0  0  0
    0.9848   -5.6396    3.4053 Cl  0  0  0  0  0  0  0  0  0  0  0  0
    3.4548    2.3341    0.4146 H   0  0  0  0  0  0  0  0  0  0  0  0
    2.9513    2.2222   -1.2693 H   0  0  0  0  0  0  0  0  0  0  0  0
    4.6098    1.6653   -0.7544 H   0  0  0  0  0  0  0  0  0  0  0  0
    5.7409   -1.0108   -4.3541 H   0  0  0  0  0  0  0  0  0  0  0  0
    7.8143   -0.2040   -5.4420 H   0  0  0  0  0  0  0  0  0  0  0  0
    8.0294    0.7367   -3.9622 H   0  0  0  0  0  0  0  0  0  0  0  0
    9.4183    1.5991   -5.8430 H   0  0  0  0  0  0  0  0  0  0  0  0
    8.3050    2.8115   -5.2164 H   0  0  0  0  0  0  0  0  0  0  0  0
    7.9585    1.1438   -7.7554 H   0  0  0  0  0  0  0  0  0  0  0  0
    8.2565    2.8785   -7.6651 H   0  0  0  0  0  0  0  0  0  0  0  0
    5.8378    2.3298   -8.0604 H   0  0  0  0  0  0  0  0  0  0  0  0
    6.0914    3.2651   -6.5889 H   0  0  0  0  0  0  0  0  0  0  0  0
    4.5157    1.4656   -6.1390 H   0  0  0  0  0  0  0  0  0  0  0  0
    5.6110    0.2471   -6.8005 H   0  0  0  0  0  0  0  0  0  0  0  0
    1.2202   -4.5737   -1.8781 H   0  0  0  0  0  0  0  0  0  0  0  0
    0.7894   -6.9070   -2.4414 H   0  0  0  0  0  0  0  0  0  0  0  0
    4.4769   -7.0994   -4.6289 H   0  0  0  0  0  0  0  0  0  0  0  0
    4.0140   -4.8370   -0.2742 H   0  0  0  0  0  0  0  0  0  0  0  0
    3.0620   -6.1850    1.5271 H   0  0  0  0  0  0  0  0  0  0  0  0
    0.3151   -3.0244    2.4814 H   0  0  0  0  0  0  0  0  0  0  0  0
    1.0649   -1.7612    0.5797 H   0  0  0  0  0  0  0  0  0  0  0  0
  1  2  1  0  0  0  0
  1 34  1  0  0  0  0
  1 35  1  0  0  0  0
  1 36  1  0  0  0  0
  2  3  2  0  0  0  0
  2  4  2  0  0  0  0
  2  5  1  0  0  0  0
  5 26  1  0  0  0  0
  5  6  2  0  0  0  0
  6  7  1  0  0  0  0
  6 16  1  0  0  0  0
  7  8  2  0  0  0  0
  7  9  1  0  0  0  0
  9 10  1  0  0  0  0
  9 37  1  0  0  0  0
 10 15  1  0  0  0  0
 10 11  1  0  0  0  0
 11 12  1  0  0  0  0
 11 38  1  0  0  0  0
 11 39  1  0  0  0  0
 12 13  1  0  0  0  0
 12 40  1  0  0  0  0
 12 41  1  0  0  0  0
 13 14  1  0  0  0  0
 13 42  1  0  0  0  0
 13 43  1  0  0  0  0
 14 15  1  0  0  0  0
 14 44  1  0  0  0  0
 14 45  1  0  0  0  0
 15 46  1  0  0  0  0
 15 47  1  0  0  0  0
 16 17  2  0  0  0  0
 17 18  1  0  0  0  0
 17 26  1  0  0  0  0
 18 23  2  0  0  0  0
 18 19  1  0  0  0  0
 19 20  2  0  0  0  0
 19 48  1  0  0  0  0
 20 21  1  0  0  0  0
 20 49  1  0  0  0  0
 21 22  2  0  0  0  0
 21 25  1  0  0  0  0
 22 23  1  0  0  0  0
 22 50  1  0  0  0  0
 23 24  1  0  0  0  0
 26 27  1  0  0  0  0
 27 32  2  0  0  0  0
 27 28  1  0  0  0  0
 28 29  2  0  0  0  0
 28 51  1  0  0  0  0
 29 30  1  0  0  0  0
 29 52  1  0  0  0  0
 30 31  2  0  0  0  0
 30 33  1  0  0  0  0
 31 32  1  0  0  0  0
 31 53  1  0  0  0  0
 32 54  1  0  0  0  0
M  END
$$$$
CHEMBL1088506
 OpenBabel12022417383D

 49 52  0  0  0  0  0  0  0  0999 V2000
    1.7817    1.2080   -0.8388 C   0  0  0  0  0  0  0  0  0  0  0  0
    3.1587    0.2489   -0.1498 S   0  0  0  0  0  0  0  0  0  0  0  0
    3.3065   -1.0284   -1.3390 C   0  0  0  0  0  0  0  0  0  0  0  0
    3.8297   -0.9702   -2.6198 C   0  0  0  0  0  0  0  0  0  0  0  0
    4.3500    0.2114   -3.3360 C   0  0  0  0  0  0  0  0  0  0  0  0
    4.2822    1.3556   -2.8952 O   0  0  0  0  0  0  0  0  0  0  0  0
    4.9408   -0.1092   -4.5572 N   0  0  0  0  0  0  0  0  0  0  0  0
    5.4346    0.9179   -5.4066 N   0  0  0  0  0  0  0  0  0  0  0  0
    5.3270    0.5704   -6.8302 C   0  0  0  0  0  0  0  0  0  0  0  0
    6.5998   -0.1975   -7.1251 C   0  0  0  0  0  0  0  0  0  0  0  0
    7.6420    0.5584   -6.3232 C   0  0  0  0  0  0  0  0  0  0  0  0
    6.8679    1.1807   -5.1635 C   0  0  0  0  0  0  0  0  0  0  0  0
    3.8371   -2.2354   -3.1771 N   0  0  0  0  0  0  0  0  0  0  0  0
    3.3911   -3.0737   -2.2547 C   0  0  0  0  0  0  0  0  0  0  0  0
    3.1561   -4.5156   -2.5352 C   0  0  0  0  0  0  0  0  0  0  0  0
    1.9847   -5.1493   -2.0716 C   0  0  0  0  0  0  0  0  0  0  0  0
    1.7517   -6.5116   -2.2908 C   0  0  0  0  0  0  0  0  0  0  0  0
    2.6536   -7.2528   -3.0426 C   0  0  0  0  0  0  0  0  0  0  0  0
    3.7977   -6.6505   -3.5538 C   0  0  0  0  0  0  0  0  0  0  0  0
    4.0567   -5.2958   -3.2918 C   0  0  0  0  0  0  0  0  0  0  0  0
    5.5503   -4.6725   -3.9114 Cl  0  0  0  0  0  0  0  0  0  0  0  0
    2.3490   -8.9180   -3.3445 Cl  0  0  0  0  0  0  0  0  0  0  0  0
    3.1003   -2.3828   -1.0582 N   0  0  0  0  0  0  0  0  0  0  0  0
    2.6774   -2.9755    0.1820 C   0  0  0  0  0  0  0  0  0  0  0  0
    3.2255   -4.1983    0.6039 C   0  0  0  0  0  0  0  0  0  0  0  0
    2.7326   -4.8408    1.7458 C   0  0  0  0  0  0  0  0  0  0  0  0
    1.7243   -4.2453    2.4979 C   0  0  0  0  0  0  0  0  0  0  0  0
    1.2013   -3.0135    2.1168 C   0  0  0  0  0  0  0  0  0  0  0  0
    1.6666   -2.3861    0.9550 C   0  0  0  0  0  0  0  0  0  0  0  0
    1.1075   -5.0424    3.8910 Cl  0  0  0  0  0  0  0  0  0  0  0  0
    1.6889    2.1476   -0.2873 H   0  0  0  0  0  0  0  0  0  0  0  0
    0.8457    0.6525   -0.7297 H   0  0  0  0  0  0  0  0  0  0  0  0
    1.9274    1.4430   -1.8955 H   0  0  0  0  0  0  0  0  0  0  0  0
    4.9202   -1.0848   -4.8513 H   0  0  0  0  0  0  0  0  0  0  0  0
    5.3052    1.4973   -7.4186 H   0  0  0  0  0  0  0  0  0  0  0  0
    4.4209    0.0070   -7.0740 H   0  0  0  0  0  0  0  0  0  0  0  0
    6.8381   -0.2270   -8.1923 H   0  0  0  0  0  0  0  0  0  0  0  0
    6.5208   -1.2289   -6.7618 H   0  0  0  0  0  0  0  0  0  0  0  0
    8.0876    1.3481   -6.9409 H   0  0  0  0  0  0  0  0  0  0  0  0
    8.4473   -0.1000   -5.9838 H   0  0  0  0  0  0  0  0  0  0  0  0
    7.2163    0.7921   -4.1994 H   0  0  0  0  0  0  0  0  0  0  0  0
    7.0380    2.2641   -5.1485 H   0  0  0  0  0  0  0  0  0  0  0  0
    1.2352   -4.5962   -1.5083 H   0  0  0  0  0  0  0  0  0  0  0  0
    0.8628   -6.9809   -1.8746 H   0  0  0  0  0  0  0  0  0  0  0  0
    4.4942   -7.2357   -4.1499 H   0  0  0  0  0  0  0  0  0  0  0  0
    4.0387   -4.6767    0.0622 H   0  0  0  0  0  0  0  0  0  0  0  0
    3.1378   -5.8063    2.0393 H   0  0  0  0  0  0  0  0  0  0  0  0
    0.4183   -2.5421    2.7053 H   0  0  0  0  0  0  0  0  0  0  0  0
    1.1786   -1.4627    0.6593 H   0  0  0  0  0  0  0  0  0  0  0  0
  1  2  1  0  0  0  0
  1 31  1  0  0  0  0
  1 32  1  0  0  0  0
  1 33  1  0  0  0  0
  2  3  1  0  0  0  0
  3 23  1  0  0  0  0
  3  4  2  0  0  0  0
  4  5  1  0  0  0  0
  4 13  1  0  0  0  0
  5  6  2  0  0  0  0
  5  7  1  0  0  0  0
  7  8  1  0  0  0  0
  7 34  1  0  0  0  0
  8 12  1  0  0  0  0
  8  9  1  0  0  0  0
  9 10  1  0  0  0  0
  9 35  1  0  0  0  0
  9 36  1  0  0  0  0
 10 11  1  0  0  0  0
 10 37  1  0  0  0  0
 10 38  1  0  0  0  0
 11 12  1  0  0  0  0
 11 39  1  0  0  0  0
 11 40  1  0  0  0  0
 12 41  1  0  0  0  0
 12 42  1  0  0  0  0
 13 14  2  0  0  0  0
 14 15  1  0  0  0  0
 14 23  1  0  0  0  0
 15 20  2  0  0  0  0
 15 16  1  0  0  0  0
 16 17  2  0  0  0  0
 16 43  1  0  0  0  0
 17 18  1  0  0  0  0
 17 44  1  0  0  0  0
 18 19  2  0  0  0  0
 18 22  1  0  0  0  0
 19 20  1  0  0  0  0
 19 45  1  0  0  0  0
 20 21  1  0  0  0  0
 23 24  1  0  0  0  0
 24 29  2  0  0  0  0
 24 25  1  0  0  0  0
 25 26  2  0  0  0  0
 25 46  1  0  0  0  0
 26 27  1  0  0  0  0
 26 47  1  0  0  0  0
 27 28  2  0  0  0  0
 27 30  1  0  0  0  0
 28 29  1  0  0  0  0
 28 48  1  0  0  0  0
 29 49  1  0  0  0  0
M  END
$$$$
CHEMBL4078689
 OpenBabel12022417383D

 61 64  0  0  0  0  0  0  0  0999 V2000
    1.0960    0.2996    0.0044 C   0  0  0  0  0  0  0  0  0  0  0  0
    2.5687    0.1257   -0.1376 C   0  0  0  0  0  0  0  0  0  0  0  0
    3.5357    1.1174   -0.2397 C   0  0  0  0  0  0  0  0  0  0  0  0
    3.3259    2.5802   -0.2922 C   0  0  0  0  0  0  0  0  0  0  0  0
    2.2088    3.0872   -0.3542 O   0  0  0  0  0  0  0  0  0  0  0  0
    4.5255    3.2867   -0.2564 N   0  0  0  0  0  0  0  0  0  0  0  0
    4.6463    4.7049   -0.2822 N   0  0  0  0  0  0  0  0  0  0  0  0
    4.2370    5.2888   -1.5672 C   0  0  0  0  0  0  0  0  0  0  0  0
    4.5833    6.7818   -1.6186 C   0  0  0  0  0  0  0  0  0  0  0  0
    3.9892    7.5453   -0.4440 C   0  0  0  0  0  0  0  0  0  0  0  0
    4.3415    6.8681    0.8714 C   0  0  0  0  0  0  0  0  0  0  0  0
    3.9948    5.3722    0.8521 C   0  0  0  0  0  0  0  0  0  0  0  0
    4.7935    0.5499   -0.2615 N   0  0  0  0  0  0  0  0  0  0  0  0
    4.6381   -0.7612   -0.1654 C   0  0  0  0  0  0  0  0  0  0  0  0
    5.7735   -1.7243   -0.2050 C   0  0  0  0  0  0  0  0  0  0  0  0
    6.9654   -1.5223    0.5211 C   0  0  0  0  0  0  0  0  0  0  0  0
    7.9438   -2.5272    0.5967 C   0  0  0  0  0  0  0  0  0  0  0  0
    7.7398   -3.7490   -0.0345 C   0  0  0  0  0  0  0  0  0  0  0  0
    6.6092   -3.9485   -0.8139 C   0  0  0  0  0  0  0  0  0  0  0  0
    5.6659   -2.9228   -0.9414 C   0  0  0  0  0  0  0  0  0  0  0  0
    8.8798   -5.0212    0.1605 Cl  0  0  0  0  0  0  0  0  0  0  0  0
    7.2976   -0.0710    1.4055 Cl  0  0  0  0  0  0  0  0  0  0  0  0
    3.2636   -1.0806   -0.0707 N   0  0  0  0  0  0  0  0  0  0  0  0
    2.7031   -2.3937    0.0469 C   0  0  0  0  0  0  0  0  0  0  0  0
    3.3401   -3.3458    0.8478 C   0  0  0  0  0  0  0  0  0  0  0  0
    2.9961   -4.6951    0.7520 C   0  0  0  0  0  0  0  0  0  0  0  0
    1.9509   -5.1091   -0.0749 C   0  0  0  0  0  0  0  0  0  0  0  0
    1.2330   -4.1426   -0.7843 C   0  0  0  0  0  0  0  0  0  0  0  0
    1.6137   -2.7899   -0.7406 C   0  0  0  0  0  0  0  0  0  0  0  0
    1.5697   -6.4171   -0.2609 O   0  0  0  0  0  0  0  0  0  0  0  0
    2.4638   -7.3882    0.2965 C   0  0  0  0  0  0  0  0  0  0  0  0
    1.9511   -8.8052    0.0697 C   0  0  0  0  0  0  0  0  0  0  0  0
    2.9006   -9.7930    0.7241 C   0  0  0  0  0  0  0  0  0  0  0  0
    4.1280   -9.6743    0.1496 F   0  0  0  0  0  0  0  0  0  0  0  0
    0.5636   -0.6136    0.2740 H   0  0  0  0  0  0  0  0  0  0  0  0
    0.6706    0.6834   -0.9283 H   0  0  0  0  0  0  0  0  0  0  0  0
    0.8774    1.0210    0.8010 H   0  0  0  0  0  0  0  0  0  0  0  0
    5.3774    2.7289   -0.1965 H   0  0  0  0  0  0  0  0  0  0  0  0
    3.1610    5.1617   -1.7380 H   0  0  0  0  0  0  0  0  0  0  0  0
    4.7603    4.7870   -2.3899 H   0  0  0  0  0  0  0  0  0  0  0  0
    4.2290    7.2135   -2.5606 H   0  0  0  0  0  0  0  0  0  0  0  0
    5.6773    6.9034   -1.6071 H   0  0  0  0  0  0  0  0  0  0  0  0
    2.8935    7.5776   -0.5525 H   0  0  0  0  0  0  0  0  0  0  0  0
    4.3512    8.5769   -0.4463 H   0  0  0  0  0  0  0  0  0  0  0  0
    3.8057    7.3558    1.6968 H   0  0  0  0  0  0  0  0  0  0  0  0
    5.4117    6.9906    1.0711 H   0  0  0  0  0  0  0  0  0  0  0  0
    4.3399    4.9233    1.7914 H   0  0  0  0  0  0  0  0  0  0  0  0
    2.9054    5.2532    0.8157 H   0  0  0  0  0  0  0  0  0  0  0  0
    8.8519   -2.3639    1.1724 H   0  0  0  0  0  0  0  0  0  0  0  0
    6.4367   -4.9033   -1.3060 H   0  0  0  0  0  0  0  0  0  0  0  0
    4.7982   -3.1115   -1.5721 H   0  0  0  0  0  0  0  0  0  0  0  0
    4.1547   -3.0765    1.5168 H   0  0  0  0  0  0  0  0  0  0  0  0
    3.5990   -5.3972    1.3178 H   0  0  0  0  0  0  0  0  0  0  0  0
    0.4023   -4.4471   -1.4189 H   0  0  0  0  0  0  0  0  0  0  0  0
    1.0916   -2.0897   -1.3887 H   0  0  0  0  0  0  0  0  0  0  0  0
    2.5389   -7.2352    1.3785 H   0  0  0  0  0  0  0  0  0  0  0  0
    3.4516   -7.2818   -0.1706 H   0  0  0  0  0  0  0  0  0  0  0  0
    1.8772   -9.0024   -1.0048 H   0  0  0  0  0  0  0  0  0  0  0  0
    0.9438   -8.9116    0.4876 H   0  0  0  0  0  0  0  0  0  0  0  0
    2.5639  -10.8233    0.5903 H   0  0  0  0  0  0  0  0  0  0  0  0
    3.0144   -9.5958    1.7953 H   0  0  0  0  0  0  0  0  0  0  0  0
  1  2  1  0  0  0  0
  1 35  1  0  0  0  0
  1 36  1  0  0  0  0
  1 37  1  0  0  0  0
  2 23  1  0  0  0  0
  2  3  2  0  0  0  0
  3  4  1  0  0  0  0
  3 13  1  0  0  0  0
  4  5  2  0  0  0  0
  4  6  1  0  0  0  0
  6  7  1  0  0  0  0
  6 38  1  0  0  0  0
  7 12  1  0  0  0  0
  7  8  1  0  0  0  0
  8  9  1  0  0  0  0
  8 39  1  0  0  0  0
  8 40  1  0  0  0  0
  9 10  1  0  0  0  0
  9 41  1  0  0  0  0
  9 42  1  0  0  0  0
 10 11  1  0  0  0  0
 10 43  1  0  0  0  0
 10 44  1  0  0  0  0
 11 12  1  0  0  0  0
 11 45  1  0  0  0  0
 11 46  1  0  0  0  0
 12 47  1  0  0  0  0
 12 48  1  0  0  0  0
 13 14  2  0  0  0  0
 14 15  1  0  0  0  0
 14 23  1  0  0  0  0
 15 20  2  0  0  0  0
 15 16  1  0  0  0  0
 16 17  2  0  0  0  0
 16 22  1  0  0  0  0
 17 18  1  0  0  0  0
 17 49  1  0  0  0  0
 18 19  2  0  0  0  0
 18 21  1  0  0  0  0
 19 20  1  0  0  0  0
 19 50  1  0  0  0  0
 20 51  1  0  0  0  0
 23 24  1  0  0  0  0
 24 29  2  0  0  0  0
 24 25  1  0  0  0  0
 25 26  2  0  0  0  0
 25 52  1  0  0  0  0
 26 27  1  0  0  0  0
 26 53  1  0  0  0  0
 27 28  2  0  0  0  0
 27 30  1  0  0  0  0
 28 29  1  0  0  0  0
 28 54  1  0  0  0  0
 29 55  1  0  0  0  0
 30 31  1  0  0  0  0
 31 32  1  0  0  0  0
 31 56  1  0  0  0  0
 31 57  1  0  0  0  0
 32 33  1  0  0  0  0
 32 58  1  0  0  0  0
 32 59  1  0  0  0  0
 33 34  1  0  0  0  0
 33 60  1  0  0  0  0
 33 61  1  0  0  0  0
M  END
$$$$
CHEMBL1269019
 OpenBabel12022417383D

 90 95  0  0  0  0  0  0  0  0999 V2000
    2.7924    0.1844    3.4204 C   0  0  0  0  0  0  0  0  0  0  0  0
    2.7283   -0.1076    1.9598 C   0  0  0  0  0  0  0  0  0  0  0  0
    2.4752    0.8724    0.9405 C   0  0  0  0  0  0  0  0  0  0  0  0
    2.1666    2.3286    1.1358 C   0  0  0  0  0  0  0  0  0  0  0  0
    2.0720    2.8245    2.2504 O   0  0  0  0  0  0  0  0  0  0  0  0
    2.0072    3.0660   -0.0226 N   0  0  0  0  0  0  0  0  0  0  0  0
    1.7609    4.5102   -0.0328 C   0  0  0  0  0  0  0  0  0  0  0  0
    0.2638    4.8736   -0.0430 C   0  0  0  0  0  0  0  0  0  0  0  0
   -0.0169    6.3969   -0.0406 C   0  0  0  0  0  0  0  0  0  0  0  0
   -1.4752    6.6563   -0.0302 N   0  0  0  0  0  0  0  0  0  0  0  0
   -1.8063    8.0907    0.0160 C   0  0  0  0  0  0  0  0  0  0  0  0
   -3.3271    8.3999   -0.0320 C   0  0  0  0  0  0  0  0  0  0  0  0
   -4.1375    7.9036    1.1730 C   0  0  0  0  0  0  0  0  0  0  0  0
   -5.5607    8.2499    1.1147 N   0  0  0  0  0  0  0  0  0  0  0  0
   -6.1054    9.3662    1.7365 C   0  0  0  0  0  0  0  0  0  0  0  0
   -5.4007   10.2228    2.2553 O   0  0  0  0  0  0  0  0  0  0  0  0
   -7.6034    9.4337    1.7421 C   0  0  0  0  0  0  0  0  0  0  0  0
   -8.4579   10.4231    2.3387 C   0  0  0  0  0  0  0  0  0  0  0  0
   -9.7771   10.0289    2.0669 C   0  0  0  0  0  0  0  0  0  0  0  0
  -11.0663   10.6748    2.4790 C   0  0  0  0  0  0  0  0  0  0  0  0
  -12.2166    9.9288    2.7985 C   0  0  0  0  0  0  0  0  0  0  0  0
  -13.4721   10.5380    2.9585 C   0  0  0  0  0  0  0  0  0  0  0  0
  -13.5783   11.9218    2.9333 C   0  0  0  0  0  0  0  0  0  0  0  0
  -12.4385   12.6942    2.7548 C   0  0  0  0  0  0  0  0  0  0  0  0
  -11.2021   12.0742    2.5073 C   0  0  0  0  0  0  0  0  0  0  0  0
  -15.1145   12.6743    3.1091 Cl  0  0  0  0  0  0  0  0  0  0  0  0
   -9.6419    8.8287    1.3372 N   0  0  0  0  0  0  0  0  0  0  0  0
  -10.6578    8.0089    0.7463 C   0  0  0  0  0  0  0  0  0  0  0  0
  -11.7929    8.6152    0.1744 C   0  0  0  0  0  0  0  0  0  0  0  0
  -12.8790    7.8452   -0.2533 C   0  0  0  0  0  0  0  0  0  0  0  0
  -12.8095    6.4593   -0.1872 C   0  0  0  0  0  0  0  0  0  0  0  0
  -11.6616    5.8372    0.2943 C   0  0  0  0  0  0  0  0  0  0  0  0
  -10.5834    6.6023    0.7667 C   0  0  0  0  0  0  0  0  0  0  0  0
   -9.2935    5.6923    1.4802 Cl  0  0  0  0  0  0  0  0  0  0  0  0
  -14.1564    5.5112   -0.6814 Cl  0  0  0  0  0  0  0  0  0  0  0  0
   -8.3411    8.4792    1.1565 N   0  0  0  0  0  0  0  0  0  0  0  0
   -8.0125   11.6167    3.1179 C   0  0  0  0  0  0  0  0  0  0  0  0
    2.5496    0.3126   -0.2782 N   0  0  0  0  0  0  0  0  0  0  0  0
    2.7665   -1.0145   -0.0643 N   0  0  0  0  0  0  0  0  0  0  0  0
    2.6913   -1.9150   -1.1703 C   0  0  0  0  0  0  0  0  0  0  0  0
    1.9804   -3.1224   -1.0236 C   0  0  0  0  0  0  0  0  0  0  0  0
    1.9003   -4.0331   -2.0806 C   0  0  0  0  0  0  0  0  0  0  0  0
    2.5103   -3.7366   -3.2949 C   0  0  0  0  0  0  0  0  0  0  0  0
    3.2175   -2.5476   -3.4565 C   0  0  0  0  0  0  0  0  0  0  0  0
    3.3150   -1.6332   -2.3976 C   0  0  0  0  0  0  0  0  0  0  0  0
    4.3623   -0.2798   -2.6579 Cl  0  0  0  0  0  0  0  0  0  0  0  0
    2.4010   -4.8527   -4.5995 Cl  0  0  0  0  0  0  0  0  0  0  0  0
    2.9252   -1.3225    1.2955 C   0  0  0  0  0  0  0  0  0  0  0  0
    3.3045   -2.6560    1.8389 C   0  0  0  0  0  0  0  0  0  0  0  0
    4.2126   -3.4965    1.1684 C   0  0  0  0  0  0  0  0  0  0  0  0
    4.5270   -4.7730    1.6551 C   0  0  0  0  0  0  0  0  0  0  0  0
    3.9971   -5.2017    2.8661 C   0  0  0  0  0  0  0  0  0  0  0  0
    3.1314   -4.3761    3.5742 C   0  0  0  0  0  0  0  0  0  0  0  0
    2.7665   -3.1278    3.0480 C   0  0  0  0  0  0  0  0  0  0  0  0
    4.4121   -6.7508    3.4858 Cl  0  0  0  0  0  0  0  0  0  0  0  0
    3.1513   -0.6615    4.0091 H   0  0  0  0  0  0  0  0  0  0  0  0
    1.8000    0.4575    3.7937 H   0  0  0  0  0  0  0  0  0  0  0  0
    3.4827    1.0102    3.6181 H   0  0  0  0  0  0  0  0  0  0  0  0
    2.1342    2.5560   -0.8932 H   0  0  0  0  0  0  0  0  0  0  0  0
    2.2528    4.9083   -0.9274 H   0  0  0  0  0  0  0  0  0  0  0  0
    2.2489    4.9559    0.8420 H   0  0  0  0  0  0  0  0  0  0  0  0
   -0.2161    4.4169    0.8307 H   0  0  0  0  0  0  0  0  0  0  0  0
   -0.1994    4.4247   -0.9303 H   0  0  0  0  0  0  0  0  0  0  0  0
    0.4340    6.8505   -0.9321 H   0  0  0  0  0  0  0  0  0  0  0  0
    0.4495    6.8524    0.8414 H   0  0  0  0  0  0  0  0  0  0  0  0
   -1.8796    6.1880    0.7795 H   0  0  0  0  0  0  0  0  0  0  0  0
   -1.3490    8.5847   -0.8516 H   0  0  0  0  0  0  0  0  0  0  0  0
   -1.3754    8.5501    0.9137 H   0  0  0  0  0  0  0  0  0  0  0  0
   -3.7549    7.9879   -0.9543 H   0  0  0  0  0  0  0  0  0  0  0  0
   -3.4469    9.4894   -0.1050 H   0  0  0  0  0  0  0  0  0  0  0  0
   -3.7138    8.3118    2.0984 H   0  0  0  0  0  0  0  0  0  0  0  0
   -4.0874    6.8112    1.2363 H   0  0  0  0  0  0  0  0  0  0  0  0
   -6.2340    7.5810    0.7507 H   0  0  0  0  0  0  0  0  0  0  0  0
  -12.1809    8.8440    2.8663 H   0  0  0  0  0  0  0  0  0  0  0  0
  -14.3598    9.9221    3.0845 H   0  0  0  0  0  0  0  0  0  0  0  0
  -12.5041   13.7797    2.7758 H   0  0  0  0  0  0  0  0  0  0  0  0
  -10.3571   12.7254    2.3103 H   0  0  0  0  0  0  0  0  0  0  0  0
  -11.8679    9.6968    0.0764 H   0  0  0  0  0  0  0  0  0  0  0  0
  -13.7781    8.3361   -0.6195 H   0  0  0  0  0  0  0  0  0  0  0  0
  -11.6192    4.7509    0.3399 H   0  0  0  0  0  0  0  0  0  0  0  0
   -6.9415   11.6210    3.3238 H   0  0  0  0  0  0  0  0  0  0  0  0
   -8.5218   11.6548    4.0866 H   0  0  0  0  0  0  0  0  0  0  0  0
   -8.2281   12.5371    2.5676 H   0  0  0  0  0  0  0  0  0  0  0  0
    1.4668   -3.3690   -0.0960 H   0  0  0  0  0  0  0  0  0  0  0  0
    1.3586   -4.9675   -1.9497 H   0  0  0  0  0  0  0  0  0  0  0  0
    3.7142   -2.3425   -4.4024 H   0  0  0  0  0  0  0  0  0  0  0  0
    4.6847   -3.1860    0.2392 H   0  0  0  0  0  0  0  0  0  0  0  0
    5.1900   -5.4201    1.0855 H   0  0  0  0  0  0  0  0  0  0  0  0
    2.7302   -4.6970    4.5323 H   0  0  0  0  0  0  0  0  0  0  0  0
    2.0498   -2.5334    3.6095 H   0  0  0  0  0  0  0  0  0  0  0  0
  1  2  1  0  0  0  0
  1 56  1  0  0  0  0
  1 57  1  0  0  0  0
  1 58  1  0  0  0  0
  2 48  2  0  0  0  0
  2  3  1  0  0  0  0
  3  4  1  0  0  0  0
  3 38  2  0  0  0  0
  4  5  2  0  0  0  0
  4  6  1  0  0  0  0
  6  7  1  0  0  0  0
  6 59  1  0  0  0  0
  7  8  1  0  0  0  0
  7 60  1  0  0  0  0
  7 61  1  0  0  0  0
  8  9  1  0  0  0  0
  8 62  1  0  0  0  0
  8 63  1  0  0  0  0
  9 10  1  0  0  0  0
  9 64  1  0  0  0  0
  9 65  1  0  0  0  0
 10 11  1  0  0  0  0
 10 66  1  0  0  0  0
 11 12  1  0  0  0  0
 11 67  1  0  0  0  0
 11 68  1  0  0  0  0
 12 13  1  0  0  0  0
 12 69  1  0  0  0  0
 12 70  1  0  0  0  0
 13 14  1  0  0  0  0
 13 71  1  0  0  0  0
 13 72  1  0  0  0  0
 14 15  1  0  0  0  0
 14 73  1  0  0  0  0
 15 16  2  0  0  0  0
 15 17  1  0  0  0  0
 17 36  2  0  0  0  0
 17 18  1  0  0  0  0
 18 19  2  0  0  0  0
 18 37  1  0  0  0  0
 19 20  1  0  0  0  0
 19 27  1  0  0  0  0
 20 25  2  0  0  0  0
 20 21  1  0  0  0  0
 21 22  2  0  0  0  0
 21 74  1  0  0  0  0
 22 23  1  0  0  0  0
 22 75  1  0  0  0  0
 23 24  2  0  0  0  0
 23 26  1  0  0  0  0
 24 25  1  0  0  0  0
 24 76  1  0  0  0  0
 25 77  1  0  0  0  0
 27 28  1  0  0  0  0
 27 36  1  0  0  0  0
 28 33  2  0  0  0  0
 28 29  1  0  0  0  0
 29 30  2  0  0  0  0
 29 78  1  0  0  0  0
 30 31  1  0  0  0  0
 30 79  1  0  0  0  0
 31 32  2  0  0  0  0
 31 35  1  0  0  0  0
 32 33  1  0  0  0  0
 32 80  1  0  0  0  0
 33 34  1  0  0  0  0
 37 81  1  0  0  0  0
 37 82  1  0  0  0  0
 37 83  1  0  0  0  0
 38 39  1  0  0  0  0
 39 40  1  0  0  0  0
 39 48  1  0  0  0  0
 40 45  2  0  0  0  0
 40 41  1  0  0  0  0
 41 42  2  0  0  0  0
 41 84  1  0  0  0  0
 42 43  1  0  0  0  0
 42 85  1  0  0  0  0
 43 44  2  0  0  0  0
 43 47  1  0  0  0  0
 44 45  1  0  0  0  0
 44 86  1  0  0  0  0
 45 46  1  0  0  0  0
 48 49  1  0  0  0  0
 49 54  2  0  0  0  0
 49 50  1  0  0  0  0
 50 51  2  0  0  0  0
 50 87  1  0  0  0  0
 51 52  1  0  0  0  0
 51 88  1  0  0  0  0
 52 53  2  0  0  0  0
 52 55  1  0  0  0  0
 53 54  1  0  0  0  0
 53 89  1  0  0  0  0
 54 90  1  0  0  0  0
M  END
$$$$
CHEMBL4085407
 OpenBabel12022417383D

 67 70  0  0  1  0  0  0  0  0999 V2000
    1.1223   -0.0024    0.0193 C   0  0  0  0  0  0  0  0  0  0  0  0
    2.6083   -0.1026   -0.0723 C   0  0  0  0  0  0  0  0  0  0  0  0
    3.5352    0.9357   -0.1477 C   0  0  0  0  0  0  0  0  0  0  0  0
    3.2186    2.3726   -0.2973 C   0  0  0  0  0  0  0  0  0  0  0  0
    2.0867    2.7626   -0.5813 O   0  0  0  0  0  0  0  0  0  0  0  0
    4.2675    3.2587   -0.1243 N   0  0  0  0  0  0  0  0  0  0  0  0
    4.1127    4.6916   -0.3940 C   0  0  1  0  0  0  0  0  0  0  0  0
    3.2868    5.4069    0.6919 C   0  0  0  0  0  0  0  0  0  0  0  0
    3.0455    6.8731    0.3272 C   0  0  0  0  0  0  0  0  0  0  0  0
    4.3421    7.6277    0.0496 C   0  0  0  0  0  0  0  0  0  0  0  0
    5.2142    6.9039   -0.9770 C   0  0  0  0  0  0  0  0  0  0  0  0
    5.4688    5.4238   -0.6283 C   0  0  1  0  0  0  0  0  0  0  0  0
    6.3885    5.3163    0.5180 N   0  0  0  0  0  0  0  0  0  0  0  0
    4.8165    0.4279   -0.0938 N   0  0  0  0  0  0  0  0  0  0  0  0
    4.7189   -0.8923   -0.0265 C   0  0  0  0  0  0  0  0  0  0  0  0
    5.8825   -1.8177   -0.0730 C   0  0  0  0  0  0  0  0  0  0  0  0
    7.0775   -1.5828    0.6336 C   0  0  0  0  0  0  0  0  0  0  0  0
    8.0724   -2.5714    0.7105 C   0  0  0  0  0  0  0  0  0  0  0  0
    7.8787   -3.8083    0.1046 C   0  0  0  0  0  0  0  0  0  0  0  0
    6.7488   -4.0346   -0.6659 C   0  0  0  0  0  0  0  0  0  0  0  0
    5.7974   -3.0212   -0.8047 C   0  0  0  0  0  0  0  0  0  0  0  0
    9.0319   -5.0654    0.3151 Cl  0  0  0  0  0  0  0  0  0  0  0  0
    7.3998   -0.1105    1.4838 Cl  0  0  0  0  0  0  0  0  0  0  0  0
    3.3618   -1.2736    0.0136 N   0  0  0  0  0  0  0  0  0  0  0  0
    2.8412   -2.6098    0.0435 C   0  0  0  0  0  0  0  0  0  0  0  0
    3.3965   -3.6109    0.8563 C   0  0  0  0  0  0  0  0  0  0  0  0
    2.9590   -4.9407    0.7399 C   0  0  0  0  0  0  0  0  0  0  0  0
    1.9121   -5.2609   -0.1249 C   0  0  0  0  0  0  0  0  0  0  0  0
    1.3618   -4.2651   -0.9308 C   0  0  0  0  0  0  0  0  0  0  0  0
    1.8357   -2.9560   -0.8632 C   0  0  0  0  0  0  0  0  0  0  0  0
    1.4865   -6.5694   -0.1589 O   0  0  0  0  0  0  0  0  0  0  0  0
   -0.1064   -6.8766   -0.3927 S   0  0  0  0  0  0  0  0  0  0  0  0
   -0.8690   -6.2685    0.6769 O   0  0  0  0  0  0  0  0  0  0  0  0
   -0.4411   -6.6600   -1.7873 O   0  0  0  0  0  0  0  0  0  0  0  0
   -0.1012   -8.6337   -0.1261 C   0  0  0  0  0  0  0  0  0  0  0  0
   -1.5334   -9.1397   -0.2590 C   0  0  0  0  0  0  0  0  0  0  0  0
   -1.6496  -10.6284   -0.0909 C   0  0  0  0  0  0  0  0  0  0  0  0
   -0.4504  -11.2098    0.1366 F   0  0  0  0  0  0  0  0  0  0  0  0
   -2.4519  -10.9300    0.9542 F   0  0  0  0  0  0  0  0  0  0  0  0
   -2.1791  -11.1972   -1.1915 F   0  0  0  0  0  0  0  0  0  0  0  0
    0.5866   -0.9416   -0.1138 H   0  0  0  0  0  0  0  0  0  0  0  0
    0.7324    0.6799   -0.7422 H   0  0  0  0  0  0  0  0  0  0  0  0
    0.8343    0.3758    1.0048 H   0  0  0  0  0  0  0  0  0  0  0  0
    5.1690    2.8926    0.1676 H   0  0  0  0  0  0  0  0  0  0  0  0
    3.5462    4.7573   -1.3339 H   0  0  0  0  0  0  0  0  0  0  0  0
    3.7911    5.3431    1.6640 H   0  0  0  0  0  0  0  0  0  0  0  0
    2.3156    4.9173    0.8235 H   0  0  0  0  0  0  0  0  0  0  0  0
    2.4969    7.3705    1.1350 H   0  0  0  0  0  0  0  0  0  0  0  0
    2.4058    6.9207   -0.5634 H   0  0  0  0  0  0  0  0  0  0  0  0
    4.8966    7.7640    0.9855 H   0  0  0  0  0  0  0  0  0  0  0  0
    4.1051    8.6337   -0.3189 H   0  0  0  0  0  0  0  0  0  0  0  0
    6.1629    7.4434   -1.0925 H   0  0  0  0  0  0  0  0  0  0  0  0
    4.7170    6.9532   -1.9549 H   0  0  0  0  0  0  0  0  0  0  0  0
    5.9751    4.9527   -1.4792 H   0  0  0  0  0  0  0  0  0  0  0  0
    5.9763    5.7558    1.3406 H   0  0  0  0  0  0  0  0  0  0  0  0
    7.2331    5.8545    0.3201 H   0  0  0  0  0  0  0  0  0  0  0  0
    8.9855   -2.3836    1.2697 H   0  0  0  0  0  0  0  0  0  0  0  0
    6.5824   -4.9977   -1.1431 H   0  0  0  0  0  0  0  0  0  0  0  0
    4.9404   -3.2247   -1.4448 H   0  0  0  0  0  0  0  0  0  0  0  0
    4.1884   -3.3884    1.5692 H   0  0  0  0  0  0  0  0  0  0  0  0
    3.4374   -5.7181    1.3321 H   0  0  0  0  0  0  0  0  0  0  0  0
    0.5747   -4.4737   -1.6498 H   0  0  0  0  0  0  0  0  0  0  0  0
    1.4347   -2.2363   -1.5736 H   0  0  0  0  0  0  0  0  0  0  0  0
    0.3026   -8.8270    0.8714 H   0  0  0  0  0  0  0  0  0  0  0  0
    0.5511   -9.0823   -0.8828 H   0  0  0  0  0  0  0  0  0  0  0  0
   -1.9370   -8.8570   -1.2392 H   0  0  0  0  0  0  0  0  0  0  0  0
   -2.1706   -8.6389    0.4803 H   0  0  0  0  0  0  0  0  0  0  0  0
  1  2  1  0  0  0  0
  1 41  1  0  0  0  0
  1 42  1  0  0  0  0
  1 43  1  0  0  0  0
  2 24  1  0  0  0  0
  2  3  2  0  0  0  0
  3  4  1  0  0  0  0
  3 14  1  0  0  0  0
  4  5  2  0  0  0  0
  4  6  1  0  0  0  0
  6 44  1  0  0  0  0
  7  6  1  0  0  0  0
  7  8  1  0  0  0  0
  7 12  1  0  0  0  0
  7 45  1  6  0  0  0
  8  9  1  0  0  0  0
  8 46  1  0  0  0  0
  8 47  1  0  0  0  0
  9 10  1  0  0  0  0
  9 48  1  0  0  0  0
  9 49  1  0  0  0  0
 10 11  1  0  0  0  0
 10 50  1  0  0  0  0
 10 51  1  0  0  0  0
 11 12  1  0  0  0  0
 11 52  1  0  0  0  0
 11 53  1  0  0  0  0
 12 13  1  0  0  0  0
 12 54  1  6  0  0  0
 13 55  1  0  0  0  0
 13 56  1  0  0  0  0
 14 15  2  0  0  0  0
 15 16  1  0  0  0  0
 15 24  1  0  0  0  0
 16 21  2  0  0  0  0
 16 17  1  0  0  0  0
 17 18  2  0  0  0  0
 17 23  1  0  0  0  0
 18 19  1  0  0  0  0
 18 57  1  0  0  0  0
 19 20  2  0  0  0  0
 19 22  1  0  0  0  0
 20 21  1  0  0  0  0
 20 58  1  0  0  0  0
 21 59  1  0  0  0  0
 24 25  1  0  0  0  0
 25 30  2  0  0  0  0
 25 26  1  0  0  0  0
 26 27  2  0  0  0  0
 26 60  1  0  0  0  0
 27 28  1  0  0  0  0
 27 61  1  0  0  0  0
 28 29  2  0  0  0  0
 28 31  1  0  0  0  0
 29 30  1  0  0  0  0
 29 62  1  0  0  0  0
 30 63  1  0  0  0  0
 31 32  1  0  0  0  0
 32 33  2  0  0  0  0
 32 34  2  0  0  0  0
 32 35  1  0  0  0  0
 35 36  1  0  0  0  0
 35 64  1  0  0  0  0
 35 65  1  0  0  0  0
 36 37  1  0  0  0  0
 36 66  1  0  0  0  0
 36 67  1  0  0  0  0
 37 38  1  0  0  0  0
 37 39  1  0  0  0  0
 37 40  1  0  0  0  0
M  END
$$$$
CHEMBL2030935
 OpenBabel12022417383D

 64 67  0  0  1  0  0  0  0  0999 V2000
   -0.7964   10.5676   -0.4651 C   0  0  0  0  0  0  0  0  0  0  0  0
   -0.1939    9.8247   -1.4837 C   0  0  0  0  0  0  0  0  0  0  0  0
    0.1526    8.5341   -0.9132 C   0  0  0  0  0  0  0  0  0  0  0  0
    0.9887    7.4437   -1.5479 C   0  0  0  0  0  0  0  0  0  0  0  0
    1.4933    7.6261   -2.6618 O   0  0  0  0  0  0  0  0  0  0  0  0
    1.2049    6.2195   -0.8583 N   0  0  0  0  0  0  0  0  0  0  0  0
    1.8501    5.0575   -1.5656 C   0  0  2  0  0  0  0  0  0  0  0  0
    0.8951    4.5397   -2.6467 C   0  0  0  0  0  0  0  0  0  0  0  0
   -0.1970    3.7472   -1.9653 C   0  0  0  0  0  0  0  0  0  0  0  0
    0.3955    2.4366   -1.4972 C   0  0  0  0  0  0  0  0  0  0  0  0
    1.4476    2.6480   -0.5025 N   0  0  0  0  0  0  0  0  0  0  0  0
    2.3878    3.7910   -0.7386 C   0  0  0  0  0  0  0  0  0  0  0  0
    1.6633    1.5215    0.2977 C   0  0  0  0  0  0  0  0  0  0  0  0
    0.8987    0.5575    0.3032 O   0  0  0  0  0  0  0  0  0  0  0  0
    2.7686    1.5326    1.1114 N   0  0  0  0  0  0  0  0  0  0  0  0
    3.0106    0.4184    2.0419 C   0  0  0  0  0  0  0  0  0  0  0  0
    3.8031   -0.7201    1.3966 C   0  0  0  0  0  0  0  0  0  0  0  0
    3.7250    0.9245    3.2893 C   0  0  0  0  0  0  0  0  0  0  0  0
   -0.3769    8.4358    0.3212 N   0  0  0  0  0  0  0  0  0  0  0  0
   -0.8852    9.6786    0.6065 N   0  0  0  0  0  0  0  0  0  0  0  0
   -1.2040    9.9856    1.9581 C   0  0  0  0  0  0  0  0  0  0  0  0
   -0.5925   11.0996    2.5619 C   0  0  0  0  0  0  0  0  0  0  0  0
   -0.7501   11.3272    3.9306 C   0  0  0  0  0  0  0  0  0  0  0  0
   -1.5345   10.4624    4.6901 C   0  0  0  0  0  0  0  0  0  0  0  0
   -2.2015    9.3976    4.0866 C   0  0  0  0  0  0  0  0  0  0  0  0
   -2.0369    9.1534    2.7183 C   0  0  0  0  0  0  0  0  0  0  0  0
   -3.0096    7.9053    2.0203 Cl  0  0  0  0  0  0  0  0  0  0  0  0
   -1.6728   10.7077    6.3871 Cl  0  0  0  0  0  0  0  0  0  0  0  0
    0.0627   10.2816   -2.8838 C   0  0  0  0  0  0  0  0  0  0  0  0
   -1.2848   11.9783   -0.4687 C   0  0  0  0  0  0  0  0  0  0  0  0
   -2.5437   12.3389    0.0543 C   0  0  0  0  0  0  0  0  0  0  0  0
   -2.9861   13.6716    0.0373 C   0  0  0  0  0  0  0  0  0  0  0  0
   -2.1943   14.6640   -0.5175 C   0  0  0  0  0  0  0  0  0  0  0  0
   -0.9423   14.3427   -1.0394 C   0  0  0  0  0  0  0  0  0  0  0  0
   -0.4866   13.0084   -1.0055 C   0  0  0  0  0  0  0  0  0  0  0  0
   -2.7501   16.2930   -0.5760 Cl  0  0  0  0  0  0  0  0  0  0  0  0
    0.6084    6.0633   -0.0523 H   0  0  0  0  0  0  0  0  0  0  0  0
    2.7328    5.4923   -2.0547 H   0  0  0  0  0  0  0  0  0  0  0  0
    1.4543    3.9019   -3.3527 H   0  0  0  0  0  0  0  0  0  0  0  0
    0.4675    5.3510   -3.2406 H   0  0  0  0  0  0  0  0  0  0  0  0
   -1.0343    3.5701   -2.6447 H   0  0  0  0  0  0  0  0  0  0  0  0
   -0.5894    4.2894   -1.0949 H   0  0  0  0  0  0  0  0  0  0  0  0
    0.8371    1.8808   -2.3363 H   0  0  0  0  0  0  0  0  0  0  0  0
   -0.4058    1.8119   -1.0900 H   0  0  0  0  0  0  0  0  0  0  0  0
    2.8632    4.0861    0.2015 H   0  0  0  0  0  0  0  0  0  0  0  0
    3.1806    3.3392   -1.3578 H   0  0  0  0  0  0  0  0  0  0  0  0
    3.5729    2.0295    0.7723 H   0  0  0  0  0  0  0  0  0  0  0  0
    2.0411    0.0096    2.3577 H   0  0  0  0  0  0  0  0  0  0  0  0
    4.7898   -0.3808    1.0643 H   0  0  0  0  0  0  0  0  0  0  0  0
    3.2798   -1.1310    0.5268 H   0  0  0  0  0  0  0  0  0  0  0  0
    3.9545   -1.5418    2.1087 H   0  0  0  0  0  0  0  0  0  0  0  0
    4.7051    1.3464    3.0411 H   0  0  0  0  0  0  0  0  0  0  0  0
    3.8721    0.1176    4.0147 H   0  0  0  0  0  0  0  0  0  0  0  0
    3.1357    1.7106    3.7749 H   0  0  0  0  0  0  0  0  0  0  0  0
    0.0590   11.7650    1.9988 H   0  0  0  0  0  0  0  0  0  0  0  0
   -0.2369   12.1625    4.4019 H   0  0  0  0  0  0  0  0  0  0  0  0
   -2.8481    8.7585    4.6828 H   0  0  0  0  0  0  0  0  0  0  0  0
   -0.3748   11.2637   -3.0847 H   0  0  0  0  0  0  0  0  0  0  0  0
   -0.3940    9.5926   -3.6025 H   0  0  0  0  0  0  0  0  0  0  0  0
    1.1354   10.3508   -3.0807 H   0  0  0  0  0  0  0  0  0  0  0  0
   -3.2075   11.5893    0.4767 H   0  0  0  0  0  0  0  0  0  0  0  0
   -3.9602   13.9268    0.4549 H   0  0  0  0  0  0  0  0  0  0  0  0
   -0.3159   15.1143   -1.4806 H   0  0  0  0  0  0  0  0  0  0  0  0
    0.4999   12.7922   -1.4021 H   0  0  0  0  0  0  0  0  0  0  0  0
  1 20  1  0  0  0  0
  1  2  2  0  0  0  0
  1 30  1  0  0  0  0
  2  3  1  0  0  0  0
  2 29  1  0  0  0  0
  3  4  1  0  0  0  0
  3 19  2  0  0  0  0
  4  5  2  0  0  0  0
  4  6  1  0  0  0  0
  6 37  1  0  0  0  0
  7  8  1  0  0  0  0
  7 12  1  0  0  0  0
  7  6  1  0  0  0  0
  7 38  1  6  0  0  0
  8  9  1  0  0  0  0
  8 39  1  0  0  0  0
  8 40  1  0  0  0  0
  9 10  1  0  0  0  0
  9 41  1  0  0  0  0
  9 42  1  0  0  0  0
 10 11  1  0  0  0  0
 10 43  1  0  0  0  0
 10 44  1  0  0  0  0
 11 12  1  0  0  0  0
 11 13  1  0  0  0  0
 12 45  1  0  0  0  0
 12 46  1  0  0  0  0
 13 14  2  0  0  0  0
 13 15  1  0  0  0  0
 15 16  1  0  0  0  0
 15 47  1  0  0  0  0
 16 17  1  0  0  0  0
 16 18  1  0  0  0  0
 16 48  1  0  0  0  0
 17 49  1  0  0  0  0
 17 50  1  0  0  0  0
 17 51  1  0  0  0  0
 18 52  1  0  0  0  0
 18 53  1  0  0  0  0
 18 54  1  0  0  0  0
 19 20  1  0  0  0  0
 20 21  1  0  0  0  0
 21 26  2  0  0  0  0
 21 22  1  0  0  0  0
 22 23  2  0  0  0  0
 22 55  1  0  0  0  0
 23 24  1  0  0  0  0
 23 56  1  0  0  0  0
 24 25  2  0  0  0  0
 24 28  1  0  0  0  0
 25 26  1  0  0  0  0
 25 57  1  0  0  0  0
 26 27  1  0  0  0  0
 29 58  1  0  0  0  0
 29 59  1  0  0  0  0
 29 60  1  0  0  0  0
 30 35  2  0  0  0  0
 30 31  1  0  0  0  0
 31 32  2  0  0  0  0
 31 61  1  0  0  0  0
 32 33  1  0  0  0  0
 32 62  1  0  0  0  0
 33 34  2  0  0  0  0
 33 36  1  0  0  0  0
 34 35  1  0  0  0  0
 34 63  1  0  0  0  0
 35 64  1  0  0  0  0
M  END
$$$$
CHEMBL2030933
 OpenBabel12022417383D

 57 60  0  0  1  0  0  0  0  0999 V2000
    1.3223    2.4851    0.9586 C   0  0  0  0  0  0  0  0  0  0  0  0
    2.1425    1.6773    0.0090 C   0  0  0  0  0  0  0  0  0  0  0  0
    3.0855    2.2318   -0.9203 C   0  0  0  0  0  0  0  0  0  0  0  0
    3.4068    3.6597   -1.1478 C   0  0  0  0  0  0  0  0  0  0  0  0
    2.7658    4.5591   -0.6145 O   0  0  0  0  0  0  0  0  0  0  0  0
    4.4534    3.9139   -2.0225 N   0  0  0  0  0  0  0  0  0  0  0  0
    4.7653    5.2690   -2.5000 C   0  0  2  0  0  0  0  0  0  0  0  0
    5.8438    5.2625   -3.5916 C   0  0  0  0  0  0  0  0  0  0  0  0
    7.2409    5.0721   -3.0117 C   0  0  0  0  0  0  0  0  0  0  0  0
    7.5578    6.1579   -1.9937 C   0  0  0  0  0  0  0  0  0  0  0  0
    6.5579    6.1420   -0.8826 N   0  0  0  0  0  0  0  0  0  0  0  0
    5.1464    6.2802   -1.3875 C   0  0  0  0  0  0  0  0  0  0  0  0
    6.9676    7.3194    0.3062 S   0  0  0  0  0  0  0  0  0  0  0  0
    8.3106    7.0371    0.7652 O   0  0  0  0  0  0  0  0  0  0  0  0
    6.6301    8.6177   -0.2426 O   0  0  0  0  0  0  0  0  0  0  0  0
    5.8392    6.9569    1.6425 C   0  0  0  0  0  0  0  0  0  0  0  0
    3.7003    1.2632   -1.6085 N   0  0  0  0  0  0  0  0  0  0  0  0
    3.1909    0.0982   -1.1379 N   0  0  0  0  0  0  0  0  0  0  0  0
    3.6082   -1.1055   -1.7688 C   0  0  0  0  0  0  0  0  0  0  0  0
    2.6444   -2.0467   -2.1715 C   0  0  0  0  0  0  0  0  0  0  0  0
    3.0440   -3.2267   -2.8038 C   0  0  0  0  0  0  0  0  0  0  0  0
    4.3959   -3.4606   -3.0467 C   0  0  0  0  0  0  0  0  0  0  0  0
    5.3586   -2.5404   -2.6401 C   0  0  0  0  0  0  0  0  0  0  0  0
    4.9711   -1.3617   -1.9955 C   0  0  0  0  0  0  0  0  0  0  0  0
    6.2510   -0.3740   -1.3726 Cl  0  0  0  0  0  0  0  0  0  0  0  0
    4.8826   -4.9039   -3.8454 Cl  0  0  0  0  0  0  0  0  0  0  0  0
    2.2233    0.2867   -0.1383 C   0  0  0  0  0  0  0  0  0  0  0  0
    1.5631   -0.8006    0.6416 C   0  0  0  0  0  0  0  0  0  0  0  0
    2.2277   -2.0028    0.9504 C   0  0  0  0  0  0  0  0  0  0  0  0
    1.5930   -3.0411    1.6470 C   0  0  0  0  0  0  0  0  0  0  0  0
    0.3058   -2.8600    2.1340 C   0  0  0  0  0  0  0  0  0  0  0  0
   -0.3610   -1.6649    1.8949 C   0  0  0  0  0  0  0  0  0  0  0  0
    0.2495   -0.6635    1.1227 C   0  0  0  0  0  0  0  0  0  0  0  0
   -0.4590   -4.1127    3.0293 Cl  0  0  0  0  0  0  0  0  0  0  0  0
    0.7652    1.8807    1.6745 H   0  0  0  0  0  0  0  0  0  0  0  0
    0.6016    3.0987    0.4073 H   0  0  0  0  0  0  0  0  0  0  0  0
    1.9632    3.1452    1.5511 H   0  0  0  0  0  0  0  0  0  0  0  0
    4.7335    3.1025   -2.5678 H   0  0  0  0  0  0  0  0  0  0  0  0
    3.8319    5.6281   -2.9532 H   0  0  0  0  0  0  0  0  0  0  0  0
    5.8180    6.2267   -4.1184 H   0  0  0  0  0  0  0  0  0  0  0  0
    5.6416    4.4890   -4.3402 H   0  0  0  0  0  0  0  0  0  0  0  0
    7.9804    5.1111   -3.8207 H   0  0  0  0  0  0  0  0  0  0  0  0
    7.3233    4.0840   -2.5452 H   0  0  0  0  0  0  0  0  0  0  0  0
    7.5649    7.1415   -2.4809 H   0  0  0  0  0  0  0  0  0  0  0  0
    8.5606    5.9710   -1.5924 H   0  0  0  0  0  0  0  0  0  0  0  0
    4.4741    6.1558   -0.5400 H   0  0  0  0  0  0  0  0  0  0  0  0
    5.0074    7.2943   -1.7796 H   0  0  0  0  0  0  0  0  0  0  0  0
    6.0045    5.9315    1.9738 H   0  0  0  0  0  0  0  0  0  0  0  0
    4.8112    7.1133    1.3162 H   0  0  0  0  0  0  0  0  0  0  0  0
    6.0585    7.6525    2.4557 H   0  0  0  0  0  0  0  0  0  0  0  0
    1.5810   -1.8718   -2.0181 H   0  0  0  0  0  0  0  0  0  0  0  0
    2.2970   -3.9561   -3.1091 H   0  0  0  0  0  0  0  0  0  0  0  0
    6.4129   -2.7496   -2.8049 H   0  0  0  0  0  0  0  0  0  0  0  0
    3.2576   -2.1728    0.6477 H   0  0  0  0  0  0  0  0  0  0  0  0
    2.1172   -3.9794    1.8117 H   0  0  0  0  0  0  0  0  0  0  0  0
   -1.3583   -1.5046    2.2975 H   0  0  0  0  0  0  0  0  0  0  0  0
   -0.3343    0.2283    0.9118 H   0  0  0  0  0  0  0  0  0  0  0  0
  1  2  1  0  0  0  0
  1 35  1  0  0  0  0
  1 36  1  0  0  0  0
  1 37  1  0  0  0  0
  2 27  2  0  0  0  0
  2  3  1  0  0  0  0
  3  4  1  0  0  0  0
  3 17  2  0  0  0  0
  4  5  2  0  0  0  0
  4  6  1  0  0  0  0
  6 38  1  0  0  0  0
  7  8  1  0  0  0  0
  7 12  1  0  0  0  0
  7  6  1  0  0  0  0
  7 39  1  6  0  0  0
  8  9  1  0  0  0  0
  8 40  1  0  0  0  0
  8 41  1  0  0  0  0
  9 10  1  0  0  0  0
  9 42  1  0  0  0  0
  9 43  1  0  0  0  0
 10 11  1  0  0  0  0
 10 44  1  0  0  0  0
 10 45  1  0  0  0  0
 11 12  1  0  0  0  0
 11 13  1  0  0  0  0
 12 46  1  0  0  0  0
 12 47  1  0  0  0  0
 13 14  2  0  0  0  0
 13 15  2  0  0  0  0
 13 16  1  0  0  0  0
 16 48  1  0  0  0  0
 16 49  1  0  0  0  0
 16 50  1  0  0  0  0
 17 18  1  0  0  0  0
 18 19  1  0  0  0  0
 18 27  1  0  0  0  0
 19 24  2  0  0  0  0
 19 20  1  0  0  0  0
 20 21  2  0  0  0  0
 20 51  1  0  0  0  0
 21 22  1  0  0  0  0
 21 52  1  0  0  0  0
 22 23  2  0  0  0  0
 22 26  1  0  0  0  0
 23 24  1  0  0  0  0
 23 53  1  0  0  0  0
 24 25  1  0  0  0  0
 27 28  1  0  0  0  0
 28 33  2  0  0  0  0
 28 29  1  0  0  0  0
 29 30  2  0  0  0  0
 29 54  1  0  0  0  0
 30 31  1  0  0  0  0
 30 55  1  0  0  0  0
 31 32  2  0  0  0  0
 31 34  1  0  0  0  0
 32 33  1  0  0  0  0
 32 56  1  0  0  0  0
 33 57  1  0  0  0  0
M  END
$$$$
CHEMBL368660
 OpenBabel12022417383D

 50 53  0  0  0  0  0  0  0  0999 V2000
    1.0435    0.1827    0.0475 C   0  0  0  0  0  0  0  0  0  0  0  0
    2.5404    0.1123    0.0022 C   0  0  0  0  0  0  0  0  0  0  0  0
    3.5217    1.1315   -0.0144 C   0  0  0  0  0  0  0  0  0  0  0  0
    3.3498    2.5887   -0.0640 C   0  0  0  0  0  0  0  0  0  0  0  0
    2.2371    3.1228   -0.0629 O   0  0  0  0  0  0  0  0  0  0  0  0
    4.5669    3.3464   -0.0461 N   0  0  0  0  0  0  0  0  0  0  0  0
    4.6900    4.7700   -0.0267 N   0  0  0  0  0  0  0  0  0  0  0  0
    4.3111    5.4291   -1.2910 C   0  0  0  0  0  0  0  0  0  0  0  0
    4.6769    6.9223   -1.2765 C   0  0  0  0  0  0  0  0  0  0  0  0
    4.0580    7.6414   -0.0817 C   0  0  0  0  0  0  0  0  0  0  0  0
    4.3915    6.9035    1.2098 C   0  0  0  0  0  0  0  0  0  0  0  0
    4.0382    5.4118    1.1240 C   0  0  0  0  0  0  0  0  0  0  0  0
    4.7697    0.5219    0.0281 N   0  0  0  0  0  0  0  0  0  0  0  0
    4.5994   -0.7879    0.0366 C   0  0  0  0  0  0  0  0  0  0  0  0
    5.6977   -1.7845   -0.0922 C   0  0  0  0  0  0  0  0  0  0  0  0
    5.4852   -2.9890   -0.8135 C   0  0  0  0  0  0  0  0  0  0  0  0
    6.4736   -3.9551   -0.9707 C   0  0  0  0  0  0  0  0  0  0  0  0
    7.7336   -3.6924   -0.4796 C   0  0  0  0  0  0  0  0  0  0  0  0
    7.9903   -2.5235    0.2328 C   0  0  0  0  0  0  0  0  0  0  0  0
    6.9697   -1.5872    0.4545 C   0  0  0  0  0  0  0  0  0  0  0  0
    7.3658   -0.2317    1.4537 Cl  0  0  0  0  0  0  0  0  0  0  0  0
    9.0011   -4.8125   -0.7826 Cl  0  0  0  0  0  0  0  0  0  0  0  0
    3.2337   -1.0983    0.0688 N   0  0  0  0  0  0  0  0  0  0  0  0
    2.6530   -2.4087    0.1860 C   0  0  0  0  0  0  0  0  0  0  0  0
    3.3092   -3.3840    0.9510 C   0  0  0  0  0  0  0  0  0  0  0  0
    2.7880   -4.6683    1.0273 C   0  0  0  0  0  0  0  0  0  0  0  0
    1.6036   -4.9427    0.3827 C   0  0  0  0  0  0  0  0  0  0  0  0
    0.9939   -3.9311   -0.3481 C   0  0  0  0  0  0  0  0  0  0  0  0
    1.5111   -2.6902   -0.4799 N   0  0  0  0  0  0  0  0  0  0  0  0
    0.8833   -6.4934    0.5110 Cl  0  0  0  0  0  0  0  0  0  0  0  0
    0.5497   -0.7870    0.1319 H   0  0  0  0  0  0  0  0  0  0  0  0
    0.6492    0.6505   -0.8538 H   0  0  0  0  0  0  0  0  0  0  0  0
    0.7129    0.7327    0.9306 H   0  0  0  0  0  0  0  0  0  0  0  0
    5.4277    2.7900    0.0048 H   0  0  0  0  0  0  0  0  0  0  0  0
    3.2338    5.3336   -1.4783 H   0  0  0  0  0  0  0  0  0  0  0  0
    4.8356    4.9593   -2.1307 H   0  0  0  0  0  0  0  0  0  0  0  0
    4.3363    7.4018   -2.2031 H   0  0  0  0  0  0  0  0  0  0  0  0
    5.7683    7.0425   -1.2447 H   0  0  0  0  0  0  0  0  0  0  0  0
    2.9693    7.6945   -0.2064 H   0  0  0  0  0  0  0  0  0  0  0  0
    4.4217    8.6754   -0.0305 H   0  0  0  0  0  0  0  0  0  0  0  0
    3.8522    7.3663    2.0454 H   0  0  0  0  0  0  0  0  0  0  0  0
    5.4626    7.0182    1.4221 H   0  0  0  0  0  0  0  0  0  0  0  0
    4.3719    4.9314    2.0513 H   0  0  0  0  0  0  0  0  0  0  0  0
    2.9482    5.3036    1.0678 H   0  0  0  0  0  0  0  0  0  0  0  0
    4.5107   -3.2336   -1.2384 H   0  0  0  0  0  0  0  0  0  0  0  0
    6.2385   -4.8752   -1.4930 H   0  0  0  0  0  0  0  0  0  0  0  0
    8.9932   -2.3310    0.6074 H   0  0  0  0  0  0  0  0  0  0  0  0
    4.2495   -3.1780    1.4612 H   0  0  0  0  0  0  0  0  0  0  0  0
    3.3125   -5.4207    1.6120 H   0  0  0  0  0  0  0  0  0  0  0  0
    0.0468   -4.0865   -0.8514 H   0  0  0  0  0  0  0  0  0  0  0  0
  1  2  1  0  0  0  0
  1 31  1  0  0  0  0
  1 32  1  0  0  0  0
  1 33  1  0  0  0  0
  2 23  1  0  0  0  0
  2  3  2  0  0  0  0
  3  4  1  0  0  0  0
  3 13  1  0  0  0  0
  4  5  2  0  0  0  0
  4  6  1  0  0  0  0
  6  7  1  0  0  0  0
  6 34  1  0  0  0  0
  7 12  1  0  0  0  0
  7  8  1  0  0  0  0
  8  9  1  0  0  0  0
  8 35  1  0  0  0  0
  8 36  1  0  0  0  0
  9 10  1  0  0  0  0
  9 37  1  0  0  0  0
  9 38  1  0  0  0  0
 10 11  1  0  0  0  0
 10 39  1  0  0  0  0
 10 40  1  0  0  0  0
 11 12  1  0  0  0  0
 11 41  1  0  0  0  0
 11 42  1  0  0  0  0
 12 43  1  0  0  0  0
 12 44  1  0  0  0  0
 13 14  2  0  0  0  0
 14 15  1  0  0  0  0
 14 23  1  0  0  0  0
 15 20  2  0  0  0  0
 15 16  1  0  0  0  0
 16 17  2  0  0  0  0
 16 45  1  0  0  0  0
 17 18  1  0  0  0  0
 17 46  1  0  0  0  0
 18 19  2  0  0  0  0
 18 22  1  0  0  0  0
 19 20  1  0  0  0  0
 19 47  1  0  0  0  0
 20 21  1  0  0  0  0
 23 24  1  0  0  0  0
 24 29  2  0  0  0  0
 24 25  1  0  0  0  0
 25 26  2  0  0  0  0
 25 48  1  0  0  0  0
 26 27  1  0  0  0  0
 26 49  1  0  0  0  0
 27 28  2  0  0  0  0
 27 30  1  0  0  0  0
 28 29  1  0  0  0  0
 28 50  1  0  0  0  0
M  END
$$$$
CHEMBL1631291
 OpenBabel12022417383D

 61 63  0  0  0  0  0  0  0  0999 V2000
    6.4316    9.9209   -3.3212 C   0  0  0  0  0  0  0  0  0  0  0  0
    6.0404    9.4031   -1.9465 C   0  0  0  0  0  0  0  0  0  0  0  0
    6.7174    8.0679   -1.6328 C   0  0  0  0  0  0  0  0  0  0  0  0
    6.3276    7.5500   -0.2444 C   0  0  0  0  0  0  0  0  0  0  0  0
    7.0234    6.2212    0.0709 C   0  0  0  0  0  0  0  0  0  0  0  0
    6.6630    5.7127    1.4704 C   0  0  0  0  0  0  0  0  0  0  0  0
    7.3163    4.3657    1.7986 C   0  0  0  0  0  0  0  0  0  0  0  0
    8.7613    4.4320    1.8911 N   0  0  0  0  0  0  0  0  0  0  0  0
    9.4328    4.6703    3.0727 C   0  0  0  0  0  0  0  0  0  0  0  0
    8.8495    4.8489    4.1390 O   0  0  0  0  0  0  0  0  0  0  0  0
   10.9157    4.6826    2.9425 C   0  0  0  0  0  0  0  0  0  0  0  0
   11.8911    5.0514    3.9226 C   0  0  0  0  0  0  0  0  0  0  0  0
   13.1333    4.8956    3.2881 C   0  0  0  0  0  0  0  0  0  0  0  0
   12.8438    4.4744    1.9801 N   0  0  0  0  0  0  0  0  0  0  0  0
   13.6966    4.0846    0.9126 C   0  0  0  0  0  0  0  0  0  0  0  0
   14.8787    3.3735    1.1882 C   0  0  0  0  0  0  0  0  0  0  0  0
   15.8360    3.1789    0.1893 C   0  0  0  0  0  0  0  0  0  0  0  0
   15.5985    3.6564   -1.1009 C   0  0  0  0  0  0  0  0  0  0  0  0
   14.3973    4.2822   -1.4099 C   0  0  0  0  0  0  0  0  0  0  0  0
   13.4401    4.4946   -0.4153 C   0  0  0  0  0  0  0  0  0  0  0  0
   12.0682    5.4397   -0.9030 Cl  0  0  0  0  0  0  0  0  0  0  0  0
   16.8379    3.5462   -2.2905 Cl  0  0  0  0  0  0  0  0  0  0  0  0
   11.5049    4.3503    1.7863 N   0  0  0  0  0  0  0  0  0  0  0  0
   14.4269    5.1941    3.8089 N   0  0  0  0  0  0  0  0  0  0  0  0
   14.8865    4.9474    5.1197 C   0  0  0  0  0  0  0  0  0  0  0  0
   14.1416    4.2849    6.2250 C   0  0  0  0  0  0  0  0  0  0  0  0
   16.2063    5.3399    5.2299 C   0  0  0  0  0  0  0  0  0  0  0  0
   16.6155    5.8115    3.9876 C   0  0  0  0  0  0  0  0  0  0  0  0
   15.5199    5.7927    3.1455 C   0  0  0  0  0  0  0  0  0  0  0  0
   15.5449    6.4050    1.7856 C   0  0  0  0  0  0  0  0  0  0  0  0
   11.5486    5.5917    5.2696 C   0  0  0  0  0  0  0  0  0  0  0  0
    5.9390   10.8754   -3.5243 H   0  0  0  0  0  0  0  0  0  0  0  0
    6.1377    9.2131   -4.1050 H   0  0  0  0  0  0  0  0  0  0  0  0
    7.5139   10.0755   -3.3908 H   0  0  0  0  0  0  0  0  0  0  0  0
    4.9514    9.2887   -1.9039 H   0  0  0  0  0  0  0  0  0  0  0  0
    6.3189   10.1482   -1.1927 H   0  0  0  0  0  0  0  0  0  0  0  0
    7.8065    8.1887   -1.6857 H   0  0  0  0  0  0  0  0  0  0  0  0
    6.4381    7.3274   -2.3922 H   0  0  0  0  0  0  0  0  0  0  0  0
    5.2401    7.4179   -0.1944 H   0  0  0  0  0  0  0  0  0  0  0  0
    6.5989    8.2949    0.5130 H   0  0  0  0  0  0  0  0  0  0  0  0
    8.1087    6.3537   -0.0060 H   0  0  0  0  0  0  0  0  0  0  0  0
    6.7339    5.4722   -0.6769 H   0  0  0  0  0  0  0  0  0  0  0  0
    5.5741    5.5927    1.5352 H   0  0  0  0  0  0  0  0  0  0  0  0
    6.9477    6.4591    2.2204 H   0  0  0  0  0  0  0  0  0  0  0  0
    7.0672    3.6218    1.0353 H   0  0  0  0  0  0  0  0  0  0  0  0
    6.9190    4.0066    2.7540 H   0  0  0  0  0  0  0  0  0  0  0  0
    9.3455    4.3096    1.0675 H   0  0  0  0  0  0  0  0  0  0  0  0
   15.1024    3.0122    2.1948 H   0  0  0  0  0  0  0  0  0  0  0  0
   16.7832    2.7062    0.4332 H   0  0  0  0  0  0  0  0  0  0  0  0
   14.2301    4.6521   -2.4233 H   0  0  0  0  0  0  0  0  0  0  0  0
   13.3816    3.5889    5.8703 H   0  0  0  0  0  0  0  0  0  0  0  0
   13.7030    5.0386    6.8883 H   0  0  0  0  0  0  0  0  0  0  0  0
   14.8329    3.6975    6.8418 H   0  0  0  0  0  0  0  0  0  0  0  0
   16.8114    5.2625    6.1253 H   0  0  0  0  0  0  0  0  0  0  0  0
   17.5974    6.1911    3.7317 H   0  0  0  0  0  0  0  0  0  0  0  0
   14.5665    6.5145    1.3242 H   0  0  0  0  0  0  0  0  0  0  0  0
   16.2078    5.8271    1.1316 H   0  0  0  0  0  0  0  0  0  0  0  0
   15.9802    7.4085    1.8394 H   0  0  0  0  0  0  0  0  0  0  0  0
   10.5382    6.0058    5.3048 H   0  0  0  0  0  0  0  0  0  0  0  0
   12.2183    6.4094    5.5486 H   0  0  0  0  0  0  0  0  0  0  0  0
   11.5784    4.8049    6.0274 H   0  0  0  0  0  0  0  0  0  0  0  0
  1  2  1  0  0  0  0
  1 32  1  0  0  0  0
  1 33  1  0  0  0  0
  1 34  1  0  0  0  0
  2  3  1  0  0  0  0
  2 35  1  0  0  0  0
  2 36  1  0  0  0  0
  3  4  1  0  0  0  0
  3 37  1  0  0  0  0
  3 38  1  0  0  0  0
  4  5  1  0  0  0  0
  4 39  1  0  0  0  0
  4 40  1  0  0  0  0
  5  6  1  0  0  0  0
  5 41  1  0  0  0  0
  5 42  1  0  0  0  0
  6  7  1  0  0  0  0
  6 43  1  0  0  0  0
  6 44  1  0  0  0  0
  7  8  1  0  0  0  0
  7 45  1  0  0  0  0
  7 46  1  0  0  0  0
  8  9  1  0  0  0  0
  8 47  1  0  0  0  0
  9 10  2  0  0  0  0
  9 11  1  0  0  0  0
 11 23  2  0  0  0  0
 11 12  1  0  0  0  0
 12 13  2  0  0  0  0
 12 31  1  0  0  0  0
 13 14  1  0  0  0  0
 13 24  1  0  0  0  0
 14 15  1  0  0  0  0
 14 23  1  0  0  0  0
 15 20  2  0  0  0  0
 15 16  1  0  0  0  0
 16 17  2  0  0  0  0
 16 48  1  0  0  0  0
 17 18  1  0  0  0  0
 17 49  1  0  0  0  0
 18 19  2  0  0  0  0
 18 22  1  0  0  0  0
 19 20  1  0  0  0  0
 19 50  1  0  0  0  0
 20 21  1  0  0  0  0
 24 29  1  0  0  0  0
 24 25  1  0  0  0  0
 25 26  1  0  0  0  0
 25 27  2  0  0  0  0
 26 51  1  0  0  0  0
 26 52  1  0  0  0  0
 26 53  1  0  0  0  0
 27 28  1  0  0  0  0
 27 54  1  0  0  0  0
 28 29  2  0  0  0  0
 28 55  1  0  0  0  0
 29 30  1  0  0  0  0
 30 56  1  0  0  0  0
 30 57  1  0  0  0  0
 30 58  1  0  0  0  0
 31 59  1  0  0  0  0
 31 60  1  0  0  0  0
 31 61  1  0  0  0  0
M  END
$$$$
CHEMBL462052
 OpenBabel12022417383D

 65 69  0  0  1  0  0  0  0  0999 V2000
    1.2415   -0.2043   -0.1017 C   0  0  0  0  0  0  0  0  0  0  0  0
    2.7519   -0.1589   -0.2889 C   0  0  0  0  0  0  0  0  0  0  0  0
    3.2069    1.1386   -0.9676 C   0  0  0  0  0  0  0  0  0  0  0  0
    4.6980    1.1609   -1.1901 C   0  0  0  0  0  0  0  0  0  0  0  0
    5.5393    2.1016   -0.7237 C   0  0  0  0  0  0  0  0  0  0  0  0
    6.9530    2.0596   -0.9740 C   0  0  0  0  0  0  0  0  0  0  0  0
    7.7136    1.1180   -1.6424 C   0  0  0  0  0  0  0  0  0  0  0  0
    9.1127    1.3927   -1.6144 C   0  0  0  0  0  0  0  0  0  0  0  0
    9.4185    2.6170   -1.0466 C   0  0  0  0  0  0  0  0  0  0  0  0
   10.7296    3.2602   -1.0128 C   0  0  0  0  0  0  0  0  0  0  0  0
   11.3799    3.9205    0.0298 C   0  0  0  0  0  0  0  0  0  0  0  0
   10.9040    4.2305    1.4069 C   0  0  0  0  0  0  0  0  0  0  0  0
   12.6984    4.2144   -0.4544 C   0  0  0  0  0  0  0  0  0  0  0  0
   13.8198    4.8778    0.2795 C   0  0  0  0  0  0  0  0  0  0  0  0
   13.6762    5.2842    1.4347 O   0  0  0  0  0  0  0  0  0  0  0  0
   15.0100    4.9757   -0.4401 N   0  0  0  0  0  0  0  0  0  0  0  0
   16.1435    5.6468    0.1093 N   0  0  0  0  0  0  0  0  0  0  0  0
   17.0072    6.2950   -0.8892 C   0  0  0  0  0  0  0  0  0  0  0  0
   18.2990    6.5878   -0.1164 C   0  0  1  0  0  0  0  0  0  0  0  0
   18.3708    7.9795    0.5256 C   0  0  0  0  0  0  0  0  0  0  0  0
   18.9496    7.7389    1.9108 C   0  0  0  0  0  0  0  0  0  0  0  0
   18.2894    6.4368    2.3285 C   0  0  0  0  0  0  0  0  0  0  0  0
   18.2961    5.5856    1.0543 C   0  0  1  0  0  0  0  0  0  0  0  0
   17.0383    4.7432    0.8451 C   0  0  0  0  0  0  0  0  0  0  0  0
   12.8486    3.7873   -1.7154 N   0  0  0  0  0  0  0  0  0  0  0  0
   11.6566    3.2352   -2.0680 N   0  0  0  0  0  0  0  0  0  0  0  0
   11.4766    2.7792   -3.4158 C   0  0  0  0  0  0  0  0  0  0  0  0
   10.2198    2.9331   -4.0340 C   0  0  0  0  0  0  0  0  0  0  0  0
    9.9829    2.4324   -5.3171 C   0  0  0  0  0  0  0  0  0  0  0  0
   11.0149    1.8249   -6.0201 C   0  0  0  0  0  0  0  0  0  0  0  0
   12.2781    1.7065   -5.4484 C   0  0  0  0  0  0  0  0  0  0  0  0
   12.5166    2.1733   -4.1467 C   0  0  0  0  0  0  0  0  0  0  0  0
   14.0898    1.8140   -3.5146 Cl  0  0  0  0  0  0  0  0  0  0  0  0
   10.7269    1.2096   -7.5994 Cl  0  0  0  0  0  0  0  0  0  0  0  0
    7.9855    3.3358   -0.4201 S   0  0  0  0  0  0  0  0  0  0  0  0
    0.9480   -1.1359    0.3936 H   0  0  0  0  0  0  0  0  0  0  0  0
    0.7227   -0.1580   -1.0648 H   0  0  0  0  0  0  0  0  0  0  0  0
    0.8950    0.6302    0.5165 H   0  0  0  0  0  0  0  0  0  0  0  0
    3.0573   -1.0257   -0.8885 H   0  0  0  0  0  0  0  0  0  0  0  0
    3.2362   -0.2593    0.6895 H   0  0  0  0  0  0  0  0  0  0  0  0
    2.8866    2.0005   -0.3708 H   0  0  0  0  0  0  0  0  0  0  0  0
    2.7140    1.2252   -1.9448 H   0  0  0  0  0  0  0  0  0  0  0  0
    5.0710    0.3366   -1.7971 H   0  0  0  0  0  0  0  0  0  0  0  0
    5.1442    2.9221   -0.1266 H   0  0  0  0  0  0  0  0  0  0  0  0
    7.2942    0.2416   -2.1219 H   0  0  0  0  0  0  0  0  0  0  0  0
    9.8454    0.7395   -2.0724 H   0  0  0  0  0  0  0  0  0  0  0  0
    9.8963    3.8644    1.6050 H   0  0  0  0  0  0  0  0  0  0  0  0
   10.9029    5.3138    1.5704 H   0  0  0  0  0  0  0  0  0  0  0  0
   11.5617    3.7688    2.1508 H   0  0  0  0  0  0  0  0  0  0  0  0
   15.0134    4.6158   -1.3915 H   0  0  0  0  0  0  0  0  0  0  0  0
   16.5554    7.2007   -1.3046 H   0  0  0  0  0  0  0  0  0  0  0  0
   17.2311    5.6095   -1.7167 H   0  0  0  0  0  0  0  0  0  0  0  0
   19.1776    6.4302   -0.7546 H   0  0  0  0  0  0  0  0  0  0  0  0
   17.3772    8.4343    0.6087 H   0  0  0  0  0  0  0  0  0  0  0  0
   18.9992    8.6631   -0.0555 H   0  0  0  0  0  0  0  0  0  0  0  0
   18.7277    8.5580    2.6017 H   0  0  0  0  0  0  0  0  0  0  0  0
   20.0386    7.6205    1.8602 H   0  0  0  0  0  0  0  0  0  0  0  0
   17.2680    6.6299    2.6775 H   0  0  0  0  0  0  0  0  0  0  0  0
   18.8323    5.9509    3.1459 H   0  0  0  0  0  0  0  0  0  0  0  0
   19.1981    4.9616    1.0312 H   0  0  0  0  0  0  0  0  0  0  0  0
   17.2867    3.8620    0.2392 H   0  0  0  0  0  0  0  0  0  0  0  0
   16.6038    4.4033    1.7914 H   0  0  0  0  0  0  0  0  0  0  0  0
    9.3986    3.4486   -3.5397 H   0  0  0  0  0  0  0  0  0  0  0  0
    8.9922    2.5231   -5.7569 H   0  0  0  0  0  0  0  0  0  0  0  0
   13.0765    1.2244   -6.0085 H   0  0  0  0  0  0  0  0  0  0  0  0
  1  2  1  0  0  0  0
  1 36  1  0  0  0  0
  1 37  1  0  0  0  0
  1 38  1  0  0  0  0
  2  3  1  0  0  0  0
  2 39  1  0  0  0  0
  2 40  1  0  0  0  0
  3  4  1  0  0  0  0
  3 41  1  0  0  0  0
  3 42  1  0  0  0  0
  4  5  2  0  0  0  0
  4 43  1  0  0  0  0
  5  6  1  0  0  0  0
  5 44  1  0  0  0  0
  6 35  1  0  0  0  0
  6  7  2  0  0  0  0
  7  8  1  0  0  0  0
  7 45  1  0  0  0  0
  8  9  2  0  0  0  0
  8 46  1  0  0  0  0
  9 10  1  0  0  0  0
  9 35  1  0  0  0  0
 10 26  1  0  0  0  0
 10 11  2  0  0  0  0
 11 12  1  0  0  0  0
 11 13  1  0  0  0  0
 12 47  1  0  0  0  0
 12 48  1  0  0  0  0
 12 49  1  0  0  0  0
 13 14  1  0  0  0  0
 13 25  2  0  0  0  0
 14 15  2  0  0  0  0
 14 16  1  0  0  0  0
 16 17  1  0  0  0  0
 16 50  1  0  0  0  0
 17 24  1  0  0  0  0
 17 18  1  0  0  0  0
 18 51  1  0  0  0  0
 18 52  1  0  0  0  0
 19 18  1  0  0  0  0
 19 20  1  0  0  0  0
 19 23  1  0  0  0  0
 19 53  1  6  0  0  0
 20 21  1  0  0  0  0
 20 54  1  0  0  0  0
 20 55  1  0  0  0  0
 21 22  1  0  0  0  0
 21 56  1  0  0  0  0
 21 57  1  0  0  0  0
 22 58  1  0  0  0  0
 22 59  1  0  0  0  0
 23 22  1  0  0  0  0
 23 24  1  0  0  0  0
 23 60  1  6  0  0  0
 24 61  1  0  0  0  0
 24 62  1  0  0  0  0
 25 26  1  0  0  0  0
 26 27  1  0  0  0  0
 27 32  2  0  0  0  0
 27 28  1  0  0  0  0
 28 29  2  0  0  0  0
 28 63  1  0  0  0  0
 29 30  1  0  0  0  0
 29 64  1  0  0  0  0
 30 31  2  0  0  0  0
 30 34  1  0  0  0  0
 31 32  1  0  0  0  0
 31 65  1  0  0  0  0
 32 33  1  0  0  0  0
M  END
$$$$
CHEMBL15966
 OpenBabel12022417383D

 52 56  0  0  1  0  0  0  0  0999 V2000
    2.8386   -0.3122    1.2953 O   0  0  0  0  0  0  0  0  0  0  0  0
    2.4756   -0.3441    0.1237 C   0  0  0  0  0  0  0  0  0  0  0  0
    3.1795   -1.1209   -0.9186 C   0  0  0  0  0  0  0  0  0  0  0  0
    4.3081   -1.9054   -0.8273 C   0  0  0  0  0  0  0  0  0  0  0  0
    4.6174   -2.3334   -2.1188 N   0  0  0  0  0  0  0  0  0  0  0  0
    3.5538   -1.8733   -2.9268 C   0  0  0  0  0  0  0  0  0  0  0  0
    3.2823   -2.2129   -4.3432 C   0  0  0  0  0  0  0  0  0  0  0  0
    3.4794   -3.5273   -4.8119 C   0  0  0  0  0  0  0  0  0  0  0  0
    3.2865   -3.8571   -6.1562 C   0  0  0  0  0  0  0  0  0  0  0  0
    2.8097   -2.8971   -7.0398 C   0  0  0  0  0  0  0  0  0  0  0  0
    2.5434   -1.6067   -6.5956 C   0  0  0  0  0  0  0  0  0  0  0  0
    2.7893   -1.2601   -5.2604 C   0  0  0  0  0  0  0  0  0  0  0  0
    2.4962    0.3949   -4.8369 Cl  0  0  0  0  0  0  0  0  0  0  0  0
    2.5485   -3.3073   -8.6882 Cl  0  0  0  0  0  0  0  0  0  0  0  0
    2.7202   -1.1296   -2.2195 N   0  0  0  0  0  0  0  0  0  0  0  0
    5.7578   -3.0979   -2.5576 C   0  0  0  0  0  0  0  0  0  0  0  0
    6.2888   -2.8938   -3.8439 C   0  0  0  0  0  0  0  0  0  0  0  0
    7.2633   -3.7530   -4.3648 C   0  0  0  0  0  0  0  0  0  0  0  0
    7.7714   -4.7803   -3.5793 C   0  0  0  0  0  0  0  0  0  0  0  0
    7.3194   -4.9462   -2.2750 C   0  0  0  0  0  0  0  0  0  0  0  0
    6.3070   -4.1167   -1.7671 C   0  0  0  0  0  0  0  0  0  0  0  0
    8.9419   -5.8586   -4.2303 Cl  0  0  0  0  0  0  0  0  0  0  0  0
    5.2932   -2.1707    0.7543 Br  0  0  0  0  0  0  0  0  0  0  0  0
    1.3737    0.3474   -0.3792 N   0  0  0  0  0  0  0  0  0  0  0  0
    0.5028    1.0078    0.5049 N   0  0  0  0  0  0  0  0  0  0  0  0
    0.7962    2.4364    0.6652 C   0  0  0  0  0  0  0  0  0  0  0  0
   -0.3964    2.9042    1.4974 C   0  0  2  0  0  0  0  0  0  0  0  0
   -0.1984    2.7221    3.0065 C   0  0  0  0  0  0  0  0  0  0  0  0
   -1.5500    2.2552    3.5138 C   0  0  0  0  0  0  0  0  0  0  0  0
   -2.0289    1.3161    2.4198 C   0  0  0  0  0  0  0  0  0  0  0  0
   -1.5451    1.9480    1.1077 C   0  0  2  0  0  0  0  0  0  0  0  0
   -0.9123    0.9533    0.1318 C   0  0  0  0  0  0  0  0  0  0  0  0
    3.8217   -4.3147   -4.1419 H   0  0  0  0  0  0  0  0  0  0  0  0
    3.5111   -4.8640   -6.5020 H   0  0  0  0  0  0  0  0  0  0  0  0
    2.1552   -0.8647   -7.2892 H   0  0  0  0  0  0  0  0  0  0  0  0
    5.9477   -2.0806   -4.4807 H   0  0  0  0  0  0  0  0  0  0  0  0
    7.6078   -3.6211   -5.3884 H   0  0  0  0  0  0  0  0  0  0  0  0
    7.7245   -5.7427   -1.6534 H   0  0  0  0  0  0  0  0  0  0  0  0
    5.9345   -4.3536   -0.7755 H   0  0  0  0  0  0  0  0  0  0  0  0
    1.1476    0.2207   -1.3616 H   0  0  0  0  0  0  0  0  0  0  0  0
    0.8024    2.9507   -0.3049 H   0  0  0  0  0  0  0  0  0  0  0  0
    1.7518    2.6211    1.1646 H   0  0  0  0  0  0  0  0  0  0  0  0
   -0.6591    3.9446    1.2729 H   0  0  0  0  0  0  0  0  0  0  0  0
    0.1187    3.6523    3.4887 H   0  0  0  0  0  0  0  0  0  0  0  0
    0.5638    1.9639    3.2231 H   0  0  0  0  0  0  0  0  0  0  0  0
   -2.2351    3.1034    3.6221 H   0  0  0  0  0  0  0  0  0  0  0  0
   -1.4735    1.7512    4.4825 H   0  0  0  0  0  0  0  0  0  0  0  0
   -3.1180    1.2055    2.4364 H   0  0  0  0  0  0  0  0  0  0  0  0
   -1.5967    0.3192    2.5661 H   0  0  0  0  0  0  0  0  0  0  0  0
   -2.3645    2.4984    0.6292 H   0  0  0  0  0  0  0  0  0  0  0  0
   -1.3301   -0.0540    0.2245 H   0  0  0  0  0  0  0  0  0  0  0  0
   -1.0616    1.2976   -0.8999 H   0  0  0  0  0  0  0  0  0  0  0  0
  1  2  2  0  0  0  0
  2  3  1  0  0  0  0
  2 24  1  0  0  0  0
  3 15  1  0  0  0  0
  3  4  2  0  0  0  0
  4  5  1  0  0  0  0
  4 23  1  0  0  0  0
  5  6  1  0  0  0  0
  5 16  1  0  0  0  0
  6  7  1  0  0  0  0
  6 15  2  0  0  0  0
  7 12  2  0  0  0  0
  7  8  1  0  0  0  0
  8  9  2  0  0  0  0
  8 33  1  0  0  0  0
  9 10  1  0  0  0  0
  9 34  1  0  0  0  0
 10 11  2  0  0  0  0
 10 14  1  0  0  0  0
 11 12  1  0  0  0  0
 11 35  1  0  0  0  0
 12 13  1  0  0  0  0
 16 21  2  0  0  0  0
 16 17  1  0  0  0  0
 17 18  2  0  0  0  0
 17 36  1  0  0  0  0
 18 19  1  0  0  0  0
 18 37  1  0  0  0  0
 19 20  2  0  0  0  0
 19 22  1  0  0  0  0
 20 21  1  0  0  0  0
 20 38  1  0  0  0  0
 21 39  1  0  0  0  0
 24 25  1  0  0  0  0
 24 40  1  0  0  0  0
 25 32  1  0  0  0  0
 25 26  1  0  0  0  0
 26 41  1  0  0  0  0
 26 42  1  0  0  0  0
 27 26  1  0  0  0  0
 27 28  1  0  0  0  0
 27 31  1  0  0  0  0
 27 43  1  6  0  0  0
 28 29  1  0  0  0  0
 28 44  1  0  0  0  0
 28 45  1  0  0  0  0
 29 30  1  0  0  0  0
 29 46  1  0  0  0  0
 29 47  1  0  0  0  0
 30 48  1  0  0  0  0
 30 49  1  0  0  0  0
 31 30  1  0  0  0  0
 31 32  1  0  0  0  0
 31 50  1  6  0  0  0
 32 51  1  0  0  0  0
 32 52  1  0  0  0  0
M  END
$$$$
CHEMBL575382
 OpenBabel12022417383D

 64 69  0  0  1  0  0  0  0  0999 V2000
    0.9968    7.8384    2.4597 C   0  0  0  0  0  0  0  0  0  0  0  0
    1.8493    8.0652    1.1968 C   0  0  1  0  0  0  0  0  0  0  0  0
    2.5956    6.7131    0.7529 C   0  0  0  0  0  0  0  0  0  0  0  0
    1.5102    5.5973    0.4352 C   0  0  1  0  0  0  0  0  0  0  0  0
    0.8569    5.4445    1.8472 C   0  0  0  0  0  0  0  0  0  0  0  0
    0.0363    6.6668    2.2175 C   0  0  2  0  0  0  0  0  0  0  0  0
   -0.9088    6.9223    1.0380 C   0  0  0  0  0  0  0  0  0  0  0  0
   -0.1335    7.4253   -0.1910 C   0  0  1  0  0  0  0  0  0  0  0  0
    0.8321    8.5607    0.1460 C   0  0  0  0  0  0  0  0  0  0  0  0
    0.7135    6.2837   -0.7099 C   0  0  0  0  0  0  0  0  0  0  0  0
    1.8787    4.1977    0.0133 N   0  0  0  0  0  0  0  0  0  0  0  0
    1.1962    3.6049   -1.0907 C   0  0  0  0  0  0  0  0  0  0  0  0
    1.6163    3.7425   -2.2444 O   0  0  0  0  0  0  0  0  0  0  0  0
   -0.1287    2.9503   -0.8137 C   0  0  0  0  0  0  0  0  0  0  0  0
   -1.3027    2.8566   -1.6735 C   0  0  0  0  0  0  0  0  0  0  0  0
   -2.3138    2.7041   -0.7153 C   0  0  0  0  0  0  0  0  0  0  0  0
   -1.6608    1.8544    0.1519 N   0  0  0  0  0  0  0  0  0  0  0  0
   -1.9818    0.5107    0.5510 C   0  0  0  0  0  0  0  0  0  0  0  0
   -1.0679   -0.1573    1.3525 C   0  0  0  0  0  0  0  0  0  0  0  0
   -1.2846   -1.5002    1.7334 C   0  0  0  0  0  0  0  0  0  0  0  0
   -2.4391   -2.1502    1.3089 C   0  0  0  0  0  0  0  0  0  0  0  0
   -3.3605   -1.4877    0.5071 C   0  0  0  0  0  0  0  0  0  0  0  0
   -3.1402   -0.1565    0.1080 C   0  0  0  0  0  0  0  0  0  0  0  0
   -2.7744   -3.7918    1.7634 Cl  0  0  0  0  0  0  0  0  0  0  0  0
   -0.0649   -2.2450    2.6936 Cl  0  0  0  0  0  0  0  0  0  0  0  0
   -0.4153    2.3863    0.3798 N   0  0  0  0  0  0  0  0  0  0  0  0
   -3.5971    3.2433   -0.5640 N   0  0  0  0  0  0  0  0  0  0  0  0
   -4.5510    2.9793    0.4324 C   0  0  0  0  0  0  0  0  0  0  0  0
   -5.7836    3.4137   -0.0410 C   0  0  0  0  0  0  0  0  0  0  0  0
   -5.5052    4.3122   -1.0917 C   0  0  0  0  0  0  0  0  0  0  0  0
   -4.1357    4.3597   -1.2184 C   0  0  0  0  0  0  0  0  0  0  0  0
   -3.3270    5.5130   -1.7239 C   0  0  0  0  0  0  0  0  0  0  0  0
   -4.2785    2.4584    1.7972 C   0  0  0  0  0  0  0  0  0  0  0  0
   -1.4083    2.9166   -3.1569 C   0  0  0  0  0  0  0  0  0  0  0  0
    1.6408    7.6550    3.3255 H   0  0  0  0  0  0  0  0  0  0  0  0
    0.4101    8.7403    2.6992 H   0  0  0  0  0  0  0  0  0  0  0  0
    2.5843    8.8565    1.3863 H   0  0  0  0  0  0  0  0  0  0  0  0
    3.2331    6.9199   -0.1162 H   0  0  0  0  0  0  0  0  0  0  0  0
    3.2767    6.4062    1.5591 H   0  0  0  0  0  0  0  0  0  0  0  0
    1.6499    5.2996    2.6021 H   0  0  0  0  0  0  0  0  0  0  0  0
    0.2373    4.5475    1.9301 H   0  0  0  0  0  0  0  0  0  0  0  0
   -0.5339    6.4638    3.1302 H   0  0  0  0  0  0  0  0  0  0  0  0
   -1.4181    5.9808    0.7845 H   0  0  0  0  0  0  0  0  0  0  0  0
   -1.6879    7.6371    1.3182 H   0  0  0  0  0  0  0  0  0  0  0  0
   -0.8315    7.7374   -0.9738 H   0  0  0  0  0  0  0  0  0  0  0  0
    1.3499    8.9135   -0.7525 H   0  0  0  0  0  0  0  0  0  0  0  0
    0.2540    9.4162    0.5251 H   0  0  0  0  0  0  0  0  0  0  0  0
    0.0577    5.6223   -1.2714 H   0  0  0  0  0  0  0  0  0  0  0  0
    1.4306    6.6570   -1.4623 H   0  0  0  0  0  0  0  0  0  0  0  0
    1.6856    3.5703    0.7921 H   0  0  0  0  0  0  0  0  0  0  0  0
   -0.1525    0.3320    1.6817 H   0  0  0  0  0  0  0  0  0  0  0  0
   -4.2685   -2.0025    0.1745 H   0  0  0  0  0  0  0  0  0  0  0  0
   -3.8665    0.3091   -0.5444 H   0  0  0  0  0  0  0  0  0  0  0  0
   -6.7289    3.2902    0.4596 H   0  0  0  0  0  0  0  0  0  0  0  0
   -6.2149    5.0203   -1.5166 H   0  0  0  0  0  0  0  0  0  0  0  0
   -3.8015    5.9811   -2.5886 H   0  0  0  0  0  0  0  0  0  0  0  0
   -2.3026    5.2625   -1.9826 H   0  0  0  0  0  0  0  0  0  0  0  0
   -3.2797    6.2652   -0.9278 H   0  0  0  0  0  0  0  0  0  0  0  0
   -3.2170    2.3865    2.0364 H   0  0  0  0  0  0  0  0  0  0  0  0
   -4.6902    3.1586    2.5329 H   0  0  0  0  0  0  0  0  0  0  0  0
   -4.7585    1.4895    1.9529 H   0  0  0  0  0  0  0  0  0  0  0  0
   -2.3739    3.2885   -3.5079 H   0  0  0  0  0  0  0  0  0  0  0  0
   -1.3246    1.8881   -3.5414 H   0  0  0  0  0  0  0  0  0  0  0  0
   -0.6111    3.4930   -3.6250 H   0  0  0  0  0  0  0  0  0  0  0  0
  1  6  1  0  0  0  0
  1 35  1  0  0  0  0
  1 36  1  0  0  0  0
  2  1  1  0  0  0  0
  2  3  1  0  0  0  0
  2  9  1  0  0  0  0
  2 37  1  1  0  0  0
  3  4  1  0  0  0  0
  3 38  1  0  0  0  0
  3 39  1  0  0  0  0
  4 10  1  0  0  0  0
  4  5  1  0  0  0  0
  4 11  1  6  0  0  0
  5 40  1  0  0  0  0
  5 41  1  0  0  0  0
  6  5  1  0  0  0  0
  6  7  1  0  0  0  0
  6 42  1  1  0  0  0
  7 43  1  0  0  0  0
  7 44  1  0  0  0  0
  8  7  1  0  0  0  0
  8  9  1  0  0  0  0
  8 10  1  0  0  0  0
  8 45  1  6  0  0  0
  9 46  1  0  0  0  0
  9 47  1  0  0  0  0
 10 48  1  0  0  0  0
 10 49  1  0  0  0  0
 11 12  1  0  0  0  0
 11 50  1  0  0  0  0
 12 13  2  0  0  0  0
 12 14  1  0  0  0  0
 14 26  2  0  0  0  0
 14 15  1  0  0  0  0
 15 16  2  0  0  0  0
 15 34  1  0  0  0  0
 16 17  1  0  0  0  0
 16 27  1  0  0  0  0
 17 18  1  0  0  0  0
 17 26  1  0  0  0  0
 18 23  2  0  0  0  0
 18 19  1  0  0  0  0
 19 20  2  0  0  0  0
 19 51  1  0  0  0  0
 20 21  1  0  0  0  0
 20 25  1  0  0  0  0
 21 22  2  0  0  0  0
 21 24  1  0  0  0  0
 22 23  1  0  0  0  0
 22 52  1  0  0  0  0
 23 53  1  0  0  0  0
 27 31  1  0  0  0  0
 27 28  1  0  0  0  0
 28 29  2  0  0  0  0
 28 33  1  0  0  0  0
 29 30  1  0  0  0  0
 29 54  1  0  0  0  0
 30 31  2  0  0  0  0
 30 55  1  0  0  0  0
 31 32  1  0  0  0  0
 32 56  1  0  0  0  0
 32 57  1  0  0  0  0
 32 58  1  0  0  0  0
 33 59  1  0  0  0  0
 33 60  1  0  0  0  0
 33 61  1  0  0  0  0
 34 62  1  0  0  0  0
 34 63  1  0  0  0  0
 34 64  1  0  0  0  0
M  END
$$$$
CHEMBL521277
 OpenBabel12022417383D

 48 51  0  0  0  0  0  0  0  0999 V2000
    5.1846   -0.7892   -1.7391 O   0  0  0  0  0  0  0  0  0  0  0  0
    4.2820   -1.6015   -1.5375 C   0  0  0  0  0  0  0  0  0  0  0  0
    2.8678   -1.1670   -1.2273 C   0  0  0  0  0  0  0  0  0  0  0  0
    1.9230   -1.5914   -2.2398 N   0  0  0  0  0  0  0  0  0  0  0  0
    1.8373   -2.8783   -2.6223 N   0  0  0  0  0  0  0  0  0  0  0  0
    0.8839   -2.8338   -3.5705 C   0  0  0  0  0  0  0  0  0  0  0  0
    0.5649   -4.0223   -4.3695 C   0  0  0  0  0  0  0  0  0  0  0  0
    0.4509   -3.8876   -5.7660 C   0  0  0  0  0  0  0  0  0  0  0  0
    0.1561   -4.9863   -6.5771 C   0  0  0  0  0  0  0  0  0  0  0  0
    0.0159   -6.2461   -6.0068 C   0  0  0  0  0  0  0  0  0  0  0  0
    0.1279   -6.4102   -4.6298 C   0  0  0  0  0  0  0  0  0  0  0  0
    0.3855   -5.3033   -3.8094 C   0  0  0  0  0  0  0  0  0  0  0  0
    0.4127   -5.6061   -2.1037 Cl  0  0  0  0  0  0  0  0  0  0  0  0
   -0.2941   -7.6067   -7.0110 Cl  0  0  0  0  0  0  0  0  0  0  0  0
    0.3805   -1.4818   -3.6563 C   0  0  0  0  0  0  0  0  0  0  0  0
   -0.6311   -0.8994   -4.5503 C   0  0  0  0  0  0  0  0  0  0  0  0
   -1.7574   -1.6695   -4.9002 C   0  0  0  0  0  0  0  0  0  0  0  0
   -2.6904   -1.2099   -5.8349 C   0  0  0  0  0  0  0  0  0  0  0  0
   -2.5430    0.0539   -6.3929 C   0  0  0  0  0  0  0  0  0  0  0  0
   -1.4704    0.8595   -6.0287 C   0  0  0  0  0  0  0  0  0  0  0  0
   -0.5101    0.3860   -5.1222 C   0  0  0  0  0  0  0  0  0  0  0  0
    0.8259    1.4500   -4.8279 Cl  0  0  0  0  0  0  0  0  0  0  0  0
   -3.6863    0.6169   -7.5469 Cl  0  0  0  0  0  0  0  0  0  0  0  0
    1.0005   -0.7446   -2.7206 N   0  0  0  0  0  0  0  0  0  0  0  0
    4.5037   -2.9631   -1.4730 N   0  0  0  0  0  0  0  0  0  0  0  0
    5.7975   -3.5454   -1.7424 C   0  0  0  0  0  0  0  0  0  0  0  0
    5.9667   -3.9006   -3.1994 C   0  0  0  0  0  0  0  0  0  0  0  0
    5.4879   -5.1235   -3.6990 C   0  0  0  0  0  0  0  0  0  0  0  0
    5.6723   -5.4565   -5.0418 C   0  0  0  0  0  0  0  0  0  0  0  0
    6.3192   -4.5644   -5.8920 C   0  0  0  0  0  0  0  0  0  0  0  0
    6.7817   -3.3419   -5.4194 C   0  0  0  0  0  0  0  0  0  0  0  0
    6.6024   -3.0072   -4.0776 C   0  0  0  0  0  0  0  0  0  0  0  0
    6.4870   -4.8846   -7.1778 F   0  0  0  0  0  0  0  0  0  0  0  0
    2.8356   -0.0739   -1.1641 H   0  0  0  0  0  0  0  0  0  0  0  0
    2.5459   -1.5857   -0.2690 H   0  0  0  0  0  0  0  0  0  0  0  0
    0.5933   -2.9209   -6.2465 H   0  0  0  0  0  0  0  0  0  0  0  0
    0.0514   -4.8507   -7.6511 H   0  0  0  0  0  0  0  0  0  0  0  0
    0.0104   -7.3995   -4.1930 H   0  0  0  0  0  0  0  0  0  0  0  0
   -1.9185   -2.6535   -4.4640 H   0  0  0  0  0  0  0  0  0  0  0  0
   -3.5240   -1.8461   -6.1230 H   0  0  0  0  0  0  0  0  0  0  0  0
   -1.3671    1.8511   -6.4638 H   0  0  0  0  0  0  0  0  0  0  0  0
    3.6890   -3.5625   -1.5913 H   0  0  0  0  0  0  0  0  0  0  0  0
    5.8821   -4.4492   -1.1290 H   0  0  0  0  0  0  0  0  0  0  0  0
    6.5934   -2.8640   -1.4190 H   0  0  0  0  0  0  0  0  0  0  0  0
    4.9785   -5.8255   -3.0435 H   0  0  0  0  0  0  0  0  0  0  0  0
    5.3121   -6.4003   -5.4340 H   0  0  0  0  0  0  0  0  0  0  0  0
    7.2806   -2.6573   -6.1015 H   0  0  0  0  0  0  0  0  0  0  0  0
    6.9636   -2.0475   -3.7135 H   0  0  0  0  0  0  0  0  0  0  0  0
  1  2  2  0  0  0  0
  2  3  1  0  0  0  0
  2 25  1  0  0  0  0
  3  4  1  0  0  0  0
  3 34  1  0  0  0  0
  3 35  1  0  0  0  0
  4 24  1  0  0  0  0
  4  5  1  0  0  0  0
  5  6  2  0  0  0  0
  6  7  1  0  0  0  0
  6 15  1  0  0  0  0
  7 12  2  0  0  0  0
  7  8  1  0  0  0  0
  8  9  2  0  0  0  0
  8 36  1  0  0  0  0
  9 10  1  0  0  0  0
  9 37  1  0  0  0  0
 10 11  2  0  0  0  0
 10 14  1  0  0  0  0
 11 12  1  0  0  0  0
 11 38  1  0  0  0  0
 12 13  1  0  0  0  0
 15 16  1  0  0  0  0
 15 24  2  0  0  0  0
 16 21  2  0  0  0  0
 16 17  1  0  0  0  0
 17 18  2  0  0  0  0
 17 39  1  0  0  0  0
 18 19  1  0  0  0  0
 18 40  1  0  0  0  0
 19 20  2  0  0  0  0
 19 23  1  0  0  0  0
 20 21  1  0  0  0  0
 20 41  1  0  0  0  0
 21 22  1  0  0  0  0
 25 26  1  0  0  0  0
 25 42  1  0  0  0  0
 26 27  1  0  0  0  0
 26 43  1  0  0  0  0
 26 44  1  0  0  0  0
 27 32  2  0  0  0  0
 27 28  1  0  0  0  0
 28 29  2  0  0  0  0
 28 45  1  0  0  0  0
 29 30  1  0  0  0  0
 29 46  1  0  0  0  0
 30 31  2  0  0  0  0
 30 33  1  0  0  0  0
 31 32  1  0  0  0  0
 31 47  1  0  0  0  0
 32 48  1  0  0  0  0
M  END
$$$$
CHEMBL406924
 OpenBabel12022417383D

 50 53  0  0  0  0  0  0  0  0999 V2000
    1.1705    0.3592    0.0541 C   0  0  0  0  0  0  0  0  0  0  0  0
    2.6380    0.1139    0.0489 C   0  0  0  0  0  0  0  0  0  0  0  0
    3.6476    1.1383    0.1330 C   0  0  0  0  0  0  0  0  0  0  0  0
    3.4637    2.6217    0.1603 C   0  0  0  0  0  0  0  0  0  0  0  0
    2.3587    3.1533    0.0671 O   0  0  0  0  0  0  0  0  0  0  0  0
    4.6439    3.3348    0.2935 N   0  0  0  0  0  0  0  0  0  0  0  0
    4.8096    4.7894    0.3359 C   0  0  0  0  0  0  0  0  0  0  0  0
    4.4769    5.4786   -0.9965 C   0  0  0  0  0  0  0  0  0  0  0  0
    4.7719    6.9823   -0.9447 C   0  0  0  0  0  0  0  0  0  0  0  0
    4.0620    7.6677    0.2193 C   0  0  0  0  0  0  0  0  0  0  0  0
    4.3710    6.9794    1.5461 C   0  0  0  0  0  0  0  0  0  0  0  0
    4.0723    5.4757    1.4979 C   0  0  0  0  0  0  0  0  0  0  0  0
    4.8734    0.5918    0.2178 N   0  0  0  0  0  0  0  0  0  0  0  0
    4.6923   -0.7549    0.1419 N   0  0  0  0  0  0  0  0  0  0  0  0
    5.8310   -1.5851   -0.1012 C   0  0  0  0  0  0  0  0  0  0  0  0
    5.7472   -2.6160   -1.0566 C   0  0  0  0  0  0  0  0  0  0  0  0
    6.8572   -3.4160   -1.3408 C   0  0  0  0  0  0  0  0  0  0  0  0
    8.0643   -3.1743   -0.6932 C   0  0  0  0  0  0  0  0  0  0  0  0
    8.1635   -2.1645    0.2589 C   0  0  0  0  0  0  0  0  0  0  0  0
    7.0516   -1.3686    0.5651 C   0  0  0  0  0  0  0  0  0  0  0  0
    7.2494   -0.2609    1.8813 Cl  0  0  0  0  0  0  0  0  0  0  0  0
    9.4407   -4.1342   -1.0713 Cl  0  0  0  0  0  0  0  0  0  0  0  0
    3.3449   -1.0854    0.0936 C   0  0  0  0  0  0  0  0  0  0  0  0
    2.8429   -2.3934    0.1686 N   0  0  0  0  0  0  0  0  0  0  0  0
    3.4106   -3.4660    0.8402 C   0  0  0  0  0  0  0  0  0  0  0  0
    2.6233   -4.5844    0.6884 C   0  0  0  0  0  0  0  0  0  0  0  0
    1.5189   -4.2065   -0.0967 C   0  0  0  0  0  0  0  0  0  0  0  0
    1.6794   -2.8748   -0.4086 C   0  0  0  0  0  0  0  0  0  0  0  0
    0.5842   -0.5519    0.1841 H   0  0  0  0  0  0  0  0  0  0  0  0
    0.8570    0.8316   -0.8818 H   0  0  0  0  0  0  0  0  0  0  0  0
    0.8944    1.0129    0.8884 H   0  0  0  0  0  0  0  0  0  0  0  0
    5.4720    2.7466    0.3270 H   0  0  0  0  0  0  0  0  0  0  0  0
    5.8853    4.9264    0.5125 H   0  0  0  0  0  0  0  0  0  0  0  0
    3.4201    5.3296   -1.2479 H   0  0  0  0  0  0  0  0  0  0  0  0
    5.0610    5.0279   -1.8071 H   0  0  0  0  0  0  0  0  0  0  0  0
    4.4682    7.4540   -1.8867 H   0  0  0  0  0  0  0  0  0  0  0  0
    5.8536    7.1402   -0.8481 H   0  0  0  0  0  0  0  0  0  0  0  0
    2.9792    7.6620    0.0448 H   0  0  0  0  0  0  0  0  0  0  0  0
    4.3673    8.7206    0.2693 H   0  0  0  0  0  0  0  0  0  0  0  0
    3.7874    7.4505    2.3456 H   0  0  0  0  0  0  0  0  0  0  0  0
    5.4285    7.1355    1.7942 H   0  0  0  0  0  0  0  0  0  0  0  0
    4.3668    5.0213    2.4511 H   0  0  0  0  0  0  0  0  0  0  0  0
    2.9894    5.3343    1.4017 H   0  0  0  0  0  0  0  0  0  0  0  0
    4.8319   -2.8058   -1.6148 H   0  0  0  0  0  0  0  0  0  0  0  0
    6.7739   -4.2148   -2.0739 H   0  0  0  0  0  0  0  0  0  0  0  0
    9.1062   -2.0052    0.7783 H   0  0  0  0  0  0  0  0  0  0  0  0
    4.3236   -3.3467    1.4090 H   0  0  0  0  0  0  0  0  0  0  0  0
    2.8225   -5.5622    1.1103 H   0  0  0  0  0  0  0  0  0  0  0  0
    0.6971   -4.8377   -0.4136 H   0  0  0  0  0  0  0  0  0  0  0  0
    1.0730   -2.2429   -1.0405 H   0  0  0  0  0  0  0  0  0  0  0  0
  1  2  1  0  0  0  0
  1 29  1  0  0  0  0
  1 30  1  0  0  0  0
  1 31  1  0  0  0  0
  2 23  2  0  0  0  0
  2  3  1  0  0  0  0
  3  4  1  0  0  0  0
  3 13  2  0  0  0  0
  4  5  2  0  0  0  0
  4  6  1  0  0  0  0
  6  7  1  0  0  0  0
  6 32  1  0  0  0  0
  7 12  1  0  0  0  0
  7  8  1  0  0  0  0
  7 33  1  0  0  0  0
  8  9  1  0  0  0  0
  8 34  1  0  0  0  0
  8 35  1  0  0  0  0
  9 10  1  0  0  0  0
  9 36  1  0  0  0  0
  9 37  1  0  0  0  0
 10 11  1  0  0  0  0
 10 38  1  0  0  0  0
 10 39  1  0  0  0  0
 11 12  1  0  0  0  0
 11 40  1  0  0  0  0
 11 41  1  0  0  0  0
 12 42  1  0  0  0  0
 12 43  1  0  0  0  0
 13 14  1  0  0  0  0
 14 15  1  0  0  0  0
 14 23  1  0  0  0  0
 15 20  2  0  0  0  0
 15 16  1  0  0  0  0
 16 17  2  0  0  0  0
 16 44  1  0  0  0  0
 17 18  1  0  0  0  0
 17 45  1  0  0  0  0
 18 19  2  0  0  0  0
 18 22  1  0  0  0  0
 19 20  1  0  0  0  0
 19 46  1  0  0  0  0
 20 21  1  0  0  0  0
 23 24  1  0  0  0  0
 24 28  1  0  0  0  0
 24 25  1  0  0  0  0
 25 26  2  0  0  0  0
 25 47  1  0  0  0  0
 26 27  1  0  0  0  0
 26 48  1  0  0  0  0
 27 28  2  0  0  0  0
 27 49  1  0  0  0  0
 28 50  1  0  0  0  0
M  END
$$$$
CHEMBL180144
 OpenBabel12022417383D

 51 54  0  0  0  0  0  0  0  0999 V2000
    2.1784    0.0856    0.1367 C   0  0  0  0  0  0  0  0  0  0  0  0
    0.7371   -0.0302    0.0445 N   0  0  0  0  0  0  0  0  0  0  0  0
   -0.0881    1.0850   -0.0485 C   0  0  0  0  0  0  0  0  0  0  0  0
    0.3239    2.4850   -0.0100 C   0  0  0  0  0  0  0  0  0  0  0  0
    1.4983    2.8415    0.0258 O   0  0  0  0  0  0  0  0  0  0  0  0
   -0.7541    3.3749   -0.0202 N   0  0  0  0  0  0  0  0  0  0  0  0
   -0.6394    4.7888    0.0407 N   0  0  0  0  0  0  0  0  0  0  0  0
   -0.0601    5.2641    1.3079 C   0  0  0  0  0  0  0  0  0  0  0  0
   -0.0904    6.7931    1.3965 C   0  0  0  0  0  0  0  0  0  0  0  0
    0.6025    7.4342    0.1989 C   0  0  0  0  0  0  0  0  0  0  0  0
    0.0228    6.8889   -1.1016 C   0  0  0  0  0  0  0  0  0  0  0  0
    0.0527    5.3586   -1.1274 C   0  0  0  0  0  0  0  0  0  0  0  0
   -1.3434    0.6982   -0.1755 N   0  0  0  0  0  0  0  0  0  0  0  0
   -1.3437   -0.6778   -0.1110 C   0  0  0  0  0  0  0  0  0  0  0  0
   -2.5957   -1.4366   -0.2102 C   0  0  0  0  0  0  0  0  0  0  0  0
   -2.6318   -2.6299   -0.9565 C   0  0  0  0  0  0  0  0  0  0  0  0
   -3.7672   -3.4468   -0.9625 C   0  0  0  0  0  0  0  0  0  0  0  0
   -4.9066   -3.0495   -0.2729 C   0  0  0  0  0  0  0  0  0  0  0  0
   -4.9223   -1.8441    0.4216 C   0  0  0  0  0  0  0  0  0  0  0  0
   -3.7713   -1.0425    0.4619 C   0  0  0  0  0  0  0  0  0  0  0  0
   -3.8884    0.3953    1.4239 Cl  0  0  0  0  0  0  0  0  0  0  0  0
   -6.2990   -4.0590   -0.2717 Cl  0  0  0  0  0  0  0  0  0  0  0  0
   -0.0437   -1.1825    0.0304 C   0  0  0  0  0  0  0  0  0  0  0  0
    0.4812   -2.5737    0.1102 C   0  0  0  0  0  0  0  0  0  0  0  0
    1.5466   -2.9452   -0.7345 C   0  0  0  0  0  0  0  0  0  0  0  0
    2.0712   -4.2431   -0.7357 C   0  0  0  0  0  0  0  0  0  0  0  0
    1.4749   -5.2279    0.0391 C   0  0  0  0  0  0  0  0  0  0  0  0
    0.3982   -4.9108    0.8586 C   0  0  0  0  0  0  0  0  0  0  0  0
   -0.0609   -3.5857    0.9361 C   0  0  0  0  0  0  0  0  0  0  0  0
   -1.2729   -3.2834    2.1357 Cl  0  0  0  0  0  0  0  0  0  0  0  0
    2.0775   -6.8372   -0.0075 Cl  0  0  0  0  0  0  0  0  0  0  0  0
    2.6473   -0.8786    0.2999 H   0  0  0  0  0  0  0  0  0  0  0  0
    2.4305    0.7282    0.9845 H   0  0  0  0  0  0  0  0  0  0  0  0
    2.5437    0.5142   -0.8032 H   0  0  0  0  0  0  0  0  0  0  0  0
   -1.6870    2.9597   -0.0337 H   0  0  0  0  0  0  0  0  0  0  0  0
    0.9749    4.9212    1.4286 H   0  0  0  0  0  0  0  0  0  0  0  0
   -0.6367    4.8603    2.1489 H   0  0  0  0  0  0  0  0  0  0  0  0
    0.3969    7.1217    2.3218 H   0  0  0  0  0  0  0  0  0  0  0  0
   -1.1303    7.1405    1.4438 H   0  0  0  0  0  0  0  0  0  0  0  0
    1.6787    7.2232    0.2400 H   0  0  0  0  0  0  0  0  0  0  0  0
    0.4880    8.5233    0.2350 H   0  0  0  0  0  0  0  0  0  0  0  0
    0.5898    7.2848   -1.9515 H   0  0  0  0  0  0  0  0  0  0  0  0
   -1.0106    7.2394   -1.2157 H   0  0  0  0  0  0  0  0  0  0  0  0
   -0.4368    5.0181   -2.0475 H   0  0  0  0  0  0  0  0  0  0  0  0
    1.0979    5.0274   -1.1769 H   0  0  0  0  0  0  0  0  0  0  0  0
   -1.7603   -2.9610   -1.5151 H   0  0  0  0  0  0  0  0  0  0  0  0
   -3.7472   -4.3941   -1.4954 H   0  0  0  0  0  0  0  0  0  0  0  0
   -5.8217   -1.5366    0.9491 H   0  0  0  0  0  0  0  0  0  0  0  0
    1.9977   -2.2217   -1.4112 H   0  0  0  0  0  0  0  0  0  0  0  0
    2.9351   -4.4773   -1.3544 H   0  0  0  0  0  0  0  0  0  0  0  0
   -0.0756   -5.6909    1.4503 H   0  0  0  0  0  0  0  0  0  0  0  0
  1  2  1  0  0  0  0
  1 32  1  0  0  0  0
  1 33  1  0  0  0  0
  1 34  1  0  0  0  0
  2 23  1  0  0  0  0
  2  3  1  0  0  0  0
  3  4  1  0  0  0  0
  3 13  2  0  0  0  0
  4  5  2  0  0  0  0
  4  6  1  0  0  0  0
  6  7  1  0  0  0  0
  6 35  1  0  0  0  0
  7 12  1  0  0  0  0
  7  8  1  0  0  0  0
  8  9  1  0  0  0  0
  8 36  1  0  0  0  0
  8 37  1  0  0  0  0
  9 10  1  0  0  0  0
  9 38  1  0  0  0  0
  9 39  1  0  0  0  0
 10 11  1  0  0  0  0
 10 40  1  0  0  0  0
 10 41  1  0  0  0  0
 11 12  1  0  0  0  0
 11 42  1  0  0  0  0
 11 43  1  0  0  0  0
 12 44  1  0  0  0  0
 12 45  1  0  0  0  0
 13 14  1  0  0  0  0
 14 15  1  0  0  0  0
 14 23  2  0  0  0  0
 15 20  2  0  0  0  0
 15 16  1  0  0  0  0
 16 17  2  0  0  0  0
 16 46  1  0  0  0  0
 17 18  1  0  0  0  0
 17 47  1  0  0  0  0
 18 19  2  0  0  0  0
 18 22  1  0  0  0  0
 19 20  1  0  0  0  0
 19 48  1  0  0  0  0
 20 21  1  0  0  0  0
 23 24  1  0  0  0  0
 24 29  2  0  0  0  0
 24 25  1  0  0  0  0
 25 26  2  0  0  0  0
 25 49  1  0  0  0  0
 26 27  1  0  0  0  0
 26 50  1  0  0  0  0
 27 28  2  0  0  0  0
 27 31  1  0  0  0  0
 28 29  1  0  0  0  0
 28 51  1  0  0  0  0
 29 30  1  0  0  0  0
M  END
$$$$
CHEMBL1909858
 OpenBabel12022417383D

 50 53  0  0  0  0  0  0  0  0999 V2000
    1.2152    0.4337    0.1053 C   0  0  0  0  0  0  0  0  0  0  0  0
    2.6802    0.1740    0.0209 C   0  0  0  0  0  0  0  0  0  0  0  0
    3.6904    1.1938    0.0800 C   0  0  0  0  0  0  0  0  0  0  0  0
    3.5039    2.6757    0.0987 C   0  0  0  0  0  0  0  0  0  0  0  0
    2.4028    3.2057    0.0110 O   0  0  0  0  0  0  0  0  0  0  0  0
    4.6844    3.3850    0.2072 N   0  0  0  0  0  0  0  0  0  0  0  0
    4.8395    4.8410    0.2303 C   0  0  0  0  0  0  0  0  0  0  0  0
    4.4838    5.5164   -1.1033 C   0  0  0  0  0  0  0  0  0  0  0  0
    4.7640    7.0229   -1.0615 C   0  0  0  0  0  0  0  0  0  0  0  0
    4.0611    7.7048    0.1092 C   0  0  0  0  0  0  0  0  0  0  0  0
    4.3910    7.0264    1.4359 C   0  0  0  0  0  0  0  0  0  0  0  0
    4.1062    5.5217    1.3966 C   0  0  0  0  0  0  0  0  0  0  0  0
    4.9167    0.6432    0.1643 N   0  0  0  0  0  0  0  0  0  0  0  0
    4.7275   -0.6907   -0.0269 N   0  0  0  0  0  0  0  0  0  0  0  0
    5.8740   -1.4850   -0.3238 C   0  0  0  0  0  0  0  0  0  0  0  0
    5.8092   -2.5554   -1.2244 C   0  0  0  0  0  0  0  0  0  0  0  0
    6.9485   -3.3323   -1.4605 C   0  0  0  0  0  0  0  0  0  0  0  0
    8.1483   -3.0530   -0.7979 C   0  0  0  0  0  0  0  0  0  0  0  0
    8.2144   -1.9829    0.1010 C   0  0  0  0  0  0  0  0  0  0  0  0
    7.0852   -1.1868    0.3215 C   0  0  0  0  0  0  0  0  0  0  0  0
    9.6475   -1.6104    0.9922 Cl  0  0  0  0  0  0  0  0  0  0  0  0
    9.5081   -4.0633   -1.1389 Cl  0  0  0  0  0  0  0  0  0  0  0  0
    3.3827   -1.0292   -0.0192 C   0  0  0  0  0  0  0  0  0  0  0  0
    2.8831   -2.3507    0.0286 N   0  0  0  0  0  0  0  0  0  0  0  0
    3.3489   -3.4220    0.7962 C   0  0  0  0  0  0  0  0  0  0  0  0
    2.6212   -4.5628    0.5610 C   0  0  0  0  0  0  0  0  0  0  0  0
    1.5935   -4.2063   -0.3297 C   0  0  0  0  0  0  0  0  0  0  0  0
    1.8019   -2.8908   -0.6671 C   0  0  0  0  0  0  0  0  0  0  0  0
    0.9921   -2.0463   -1.9171 Cl  0  0  0  0  0  0  0  0  0  0  0  0
    4.5743   -3.2570    1.9830 Cl  0  0  0  0  0  0  0  0  0  0  0  0
    0.6506   -0.4564    0.3936 H   0  0  0  0  0  0  0  0  0  0  0  0
    0.8381    0.8042   -0.8529 H   0  0  0  0  0  0  0  0  0  0  0  0
    0.9996    1.1855    0.8705 H   0  0  0  0  0  0  0  0  0  0  0  0
    5.5182    2.8041    0.2352 H   0  0  0  0  0  0  0  0  0  0  0  0
    5.9157    4.9894    0.3927 H   0  0  0  0  0  0  0  0  0  0  0  0
    3.4261    5.3550   -1.3434 H   0  0  0  0  0  0  0  0  0  0  0  0
    5.0635    5.0668   -1.9180 H   0  0  0  0  0  0  0  0  0  0  0  0
    4.4437    7.4876   -2.0012 H   0  0  0  0  0  0  0  0  0  0  0  0
    5.8453    7.1915   -0.9793 H   0  0  0  0  0  0  0  0  0  0  0  0
    2.9767    7.6860   -0.0532 H   0  0  0  0  0  0  0  0  0  0  0  0
    4.3556    8.7604    0.1521 H   0  0  0  0  0  0  0  0  0  0  0  0
    3.8101    7.4931    2.2396 H   0  0  0  0  0  0  0  0  0  0  0  0
    5.4493    7.1921    1.6731 H   0  0  0  0  0  0  0  0  0  0  0  0
    4.4136    5.0709    2.3474 H   0  0  0  0  0  0  0  0  0  0  0  0
    3.0238    5.3684    1.3109 H   0  0  0  0  0  0  0  0  0  0  0  0
    4.9030   -2.7871   -1.7776 H   0  0  0  0  0  0  0  0  0  0  0  0
    6.8946   -4.1587   -2.1664 H   0  0  0  0  0  0  0  0  0  0  0  0
    7.1381   -0.3718    1.0421 H   0  0  0  0  0  0  0  0  0  0  0  0
    2.7861   -5.5325    1.0170 H   0  0  0  0  0  0  0  0  0  0  0  0
    0.8152   -4.8524   -0.7201 H   0  0  0  0  0  0  0  0  0  0  0  0
  1  2  1  0  0  0  0
  1 31  1  0  0  0  0
  1 32  1  0  0  0  0
  1 33  1  0  0  0  0
  2 23  2  0  0  0  0
  2  3  1  0  0  0  0
  3  4  1  0  0  0  0
  3 13  2  0  0  0  0
  4  5  2  0  0  0  0
  4  6  1  0  0  0  0
  6  7  1  0  0  0  0
  6 34  1  0  0  0  0
  7 12  1  0  0  0  0
  7  8  1  0  0  0  0
  7 35  1  0  0  0  0
  8  9  1  0  0  0  0
  8 36  1  0  0  0  0
  8 37  1  0  0  0  0
  9 10  1  0  0  0  0
  9 38  1  0  0  0  0
  9 39  1  0  0  0  0
 10 11  1  0  0  0  0
 10 40  1  0  0  0  0
 10 41  1  0  0  0  0
 11 12  1  0  0  0  0
 11 42  1  0  0  0  0
 11 43  1  0  0  0  0
 12 44  1  0  0  0  0
 12 45  1  0  0  0  0
 13 14  1  0  0  0  0
 14 15  1  0  0  0  0
 14 23  1  0  0  0  0
 15 20  2  0  0  0  0
 15 16  1  0  0  0  0
 16 17  2  0  0  0  0
 16 46  1  0  0  0  0
 17 18  1  0  0  0  0
 17 47  1  0  0  0  0
 18 19  2  0  0  0  0
 18 22  1  0  0  0  0
 19 20  1  0  0  0  0
 19 21  1  0  0  0  0
 20 48  1  0  0  0  0
 23 24  1  0  0  0  0
 24 28  1  0  0  0  0
 24 25  1  0  0  0  0
 25 26  2  0  0  0  0
 25 30  1  0  0  0  0
 26 27  1  0  0  0  0
 26 49  1  0  0  0  0
 27 28  2  0  0  0  0
 27 50  1  0  0  0  0
 28 29  1  0  0  0  0
M  END
$$$$
CHEMBL1631162
 OpenBabel12022417383D

 49 51  0  0  0  0  0  0  0  0999 V2000
    4.8987   -4.0142   -6.1929 C   0  0  0  0  0  0  0  0  0  0  0  0
    4.4911   -2.5569   -6.0325 C   0  0  0  0  0  0  0  0  0  0  0  0
    5.1592   -1.9159   -4.8145 C   0  0  0  0  0  0  0  0  0  0  0  0
    4.7701   -0.4423   -4.6665 C   0  0  0  0  0  0  0  0  0  0  0  0
    5.4189    0.2221   -3.4466 C   0  0  0  0  0  0  0  0  0  0  0  0
    6.8639    0.2811   -3.5203 N   0  0  0  0  0  0  0  0  0  0  0  0
    7.5394    1.3696   -4.0308 C   0  0  0  0  0  0  0  0  0  0  0  0
    6.9489    2.3538   -4.4840 O   0  0  0  0  0  0  0  0  0  0  0  0
    9.0239    1.2555   -4.0106 C   0  0  0  0  0  0  0  0  0  0  0  0
    9.9828    2.1808   -4.5419 C   0  0  0  0  0  0  0  0  0  0  0  0
   11.2170    1.5804   -4.3077 C   0  0  0  0  0  0  0  0  0  0  0  0
   10.9680    0.3822   -3.6433 N   0  0  0  0  0  0  0  0  0  0  0  0
   11.8956   -0.5367   -3.0553 C   0  0  0  0  0  0  0  0  0  0  0  0
   13.0935   -0.0393   -2.4948 C   0  0  0  0  0  0  0  0  0  0  0  0
   14.1069   -0.9093   -2.0828 C   0  0  0  0  0  0  0  0  0  0  0  0
   13.9004   -2.2796   -2.1479 C   0  0  0  0  0  0  0  0  0  0  0  0
   12.6920   -2.7881   -2.6190 C   0  0  0  0  0  0  0  0  0  0  0  0
   11.6869   -1.9241   -3.0791 C   0  0  0  0  0  0  0  0  0  0  0  0
   10.3062   -2.6994   -3.7807 Cl  0  0  0  0  0  0  0  0  0  0  0  0
   15.1512   -3.3537   -1.6553 Cl  0  0  0  0  0  0  0  0  0  0  0  0
    9.6349    0.1824   -3.4775 N   0  0  0  0  0  0  0  0  0  0  0  0
   12.4739    2.0288   -4.7566 N   0  0  0  0  0  0  0  0  0  0  0  0
   12.8664    3.3449   -4.9332 C   0  0  0  0  0  0  0  0  0  0  0  0
   14.1816    3.3930   -5.3443 C   0  0  0  0  0  0  0  0  0  0  0  0
   14.6347    2.0664   -5.4332 C   0  0  0  0  0  0  0  0  0  0  0  0
   13.5664    1.2574   -5.1187 C   0  0  0  0  0  0  0  0  0  0  0  0
    9.6939    3.4206   -5.3089 C   0  0  0  0  0  0  0  0  0  0  0  0
    4.4161   -4.4488   -7.0742 H   0  0  0  0  0  0  0  0  0  0  0  0
    4.6034   -4.6043   -5.3194 H   0  0  0  0  0  0  0  0  0  0  0  0
    5.9821   -4.1075   -6.3204 H   0  0  0  0  0  0  0  0  0  0  0  0
    3.4005   -2.4984   -5.9366 H   0  0  0  0  0  0  0  0  0  0  0  0
    4.7667   -2.0078   -6.9403 H   0  0  0  0  0  0  0  0  0  0  0  0
    6.2476   -2.0034   -4.9130 H   0  0  0  0  0  0  0  0  0  0  0  0
    4.8704   -2.4629   -3.9086 H   0  0  0  0  0  0  0  0  0  0  0  0
    3.6800   -0.3692   -4.5648 H   0  0  0  0  0  0  0  0  0  0  0  0
    5.0436    0.1069   -5.5760 H   0  0  0  0  0  0  0  0  0  0  0  0
    5.1541   -0.3191   -2.5313 H   0  0  0  0  0  0  0  0  0  0  0  0
    5.0245    1.2415   -3.3478 H   0  0  0  0  0  0  0  0  0  0  0  0
    7.4383   -0.4915   -3.2002 H   0  0  0  0  0  0  0  0  0  0  0  0
   13.2798    1.0292   -2.4017 H   0  0  0  0  0  0  0  0  0  0  0  0
   15.0549   -0.5055   -1.7354 H   0  0  0  0  0  0  0  0  0  0  0  0
   12.5482   -3.8647   -2.6657 H   0  0  0  0  0  0  0  0  0  0  0  0
   12.2023    4.1628   -4.7040 H   0  0  0  0  0  0  0  0  0  0  0  0
   14.7498    4.2931   -5.5455 H   0  0  0  0  0  0  0  0  0  0  0  0
   15.6224    1.7270   -5.7188 H   0  0  0  0  0  0  0  0  0  0  0  0
   13.5090    0.1781   -5.1311 H   0  0  0  0  0  0  0  0  0  0  0  0
    8.6301    3.5880   -5.4790 H   0  0  0  0  0  0  0  0  0  0  0  0
   10.1629    3.3655   -6.2988 H   0  0  0  0  0  0  0  0  0  0  0  0
   10.0690    4.3030   -4.7848 H   0  0  0  0  0  0  0  0  0  0  0  0
  1  2  1  0  0  0  0
  1 28  1  0  0  0  0
  1 29  1  0  0  0  0
  1 30  1  0  0  0  0
  2  3  1  0  0  0  0
  2 31  1  0  0  0  0
  2 32  1  0  0  0  0
  3  4  1  0  0  0  0
  3 33  1  0  0  0  0
  3 34  1  0  0  0  0
  4  5  1  0  0  0  0
  4 35  1  0  0  0  0
  4 36  1  0  0  0  0
  5  6  1  0  0  0  0
  5 37  1  0  0  0  0
  5 38  1  0  0  0  0
  6  7  1  0  0  0  0
  6 39  1  0  0  0  0
  7  8  2  0  0  0  0
  7  9  1  0  0  0  0
  9 21  2  0  0  0  0
  9 10  1  0  0  0  0
 10 11  2  0  0  0  0
 10 27  1  0  0  0  0
 11 12  1  0  0  0  0
 11 22  1  0  0  0  0
 12 13  1  0  0  0  0
 12 21  1  0  0  0  0
 13 18  2  0  0  0  0
 13 14  1  0  0  0  0
 14 15  2  0  0  0  0
 14 40  1  0  0  0  0
 15 16  1  0  0  0  0
 15 41  1  0  0  0  0
 16 17  2  0  0  0  0
 16 20  1  0  0  0  0
 17 18  1  0  0  0  0
 17 42  1  0  0  0  0
 18 19  1  0  0  0  0
 22 26  1  0  0  0  0
 22 23  1  0  0  0  0
 23 24  2  0  0  0  0
 23 43  1  0  0  0  0
 24 25  1  0  0  0  0
 24 44  1  0  0  0  0
 25 26  2  0  0  0  0
 25 45  1  0  0  0  0
 26 46  1  0  0  0  0
 27 47  1  0  0  0  0
 27 48  1  0  0  0  0
 27 49  1  0  0  0  0
M  END
$$$$
CHEMBL1631289
 OpenBabel12022417383D

 52 54  0  0  0  0  0  0  0  0999 V2000
    1.0374    0.2487   -0.0999 C   0  0  0  0  0  0  0  0  0  0  0  0
    2.5145    0.0479   -0.1100 C   0  0  0  0  0  0  0  0  0  0  0  0
    3.5193    1.0822   -0.0388 C   0  0  0  0  0  0  0  0  0  0  0  0
    3.3134    2.5654   -0.0242 C   0  0  0  0  0  0  0  0  0  0  0  0
    2.2000    3.0655   -0.0496 O   0  0  0  0  0  0  0  0  0  0  0  0
    4.4735    3.3417    0.0102 N   0  0  0  0  0  0  0  0  0  0  0  0
    4.4083    4.7993    0.1103 C   0  0  0  0  0  0  0  0  0  0  0  0
    5.6464    5.5126   -0.4672 C   0  0  0  0  0  0  0  0  0  0  0  0
    5.6039    7.0771   -0.4639 C   0  0  0  0  0  0  0  0  0  0  0  0
    5.5206    7.6373    0.9669 C   0  0  0  0  0  0  0  0  0  0  0  0
    6.8894    7.6329   -1.1191 C   0  0  0  0  0  0  0  0  0  0  0  0
    4.4058    7.6053   -1.2715 C   0  0  0  0  0  0  0  0  0  0  0  0
    4.7506    0.5440    0.0570 N   0  0  0  0  0  0  0  0  0  0  0  0
    4.5750   -0.8038   -0.0184 N   0  0  0  0  0  0  0  0  0  0  0  0
    5.7160   -1.6282   -0.2502 C   0  0  0  0  0  0  0  0  0  0  0  0
    5.6355   -2.6749   -1.1934 C   0  0  0  0  0  0  0  0  0  0  0  0
    6.7539   -3.4533   -1.4894 C   0  0  0  0  0  0  0  0  0  0  0  0
    7.9665   -3.1741   -0.8706 C   0  0  0  0  0  0  0  0  0  0  0  0
    8.0563   -2.1658    0.0872 C   0  0  0  0  0  0  0  0  0  0  0  0
    6.9320   -1.3966    0.4108 C   0  0  0  0  0  0  0  0  0  0  0  0
    7.1102   -0.3071    1.7449 Cl  0  0  0  0  0  0  0  0  0  0  0  0
    9.3654   -4.0813   -1.2893 Cl  0  0  0  0  0  0  0  0  0  0  0  0
    3.2325   -1.1418   -0.0712 C   0  0  0  0  0  0  0  0  0  0  0  0
    2.7410   -2.4532   -0.0007 N   0  0  0  0  0  0  0  0  0  0  0  0
    3.3362   -3.5212    0.6503 C   0  0  0  0  0  0  0  0  0  0  0  0
    2.5542   -4.6450    0.5175 C   0  0  0  0  0  0  0  0  0  0  0  0
    1.4241   -4.2732   -0.2308 C   0  0  0  0  0  0  0  0  0  0  0  0
    1.5735   -2.9435   -0.5586 C   0  0  0  0  0  0  0  0  0  0  0  0
    0.4829   -0.6867   -0.0063 H   0  0  0  0  0  0  0  0  0  0  0  0
    0.7017    0.7352   -1.0203 H   0  0  0  0  0  0  0  0  0  0  0  0
    0.7308    0.8472    0.7622 H   0  0  0  0  0  0  0  0  0  0  0  0
    5.3373    2.8435    0.2105 H   0  0  0  0  0  0  0  0  0  0  0  0
    4.2793    5.0446    1.1691 H   0  0  0  0  0  0  0  0  0  0  0  0
    3.5068    5.1277   -0.4160 H   0  0  0  0  0  0  0  0  0  0  0  0
    5.7880    5.1688   -1.5006 H   0  0  0  0  0  0  0  0  0  0  0  0
    6.5349    5.1781    0.0850 H   0  0  0  0  0  0  0  0  0  0  0  0
    6.3867    7.3341    1.5643 H   0  0  0  0  0  0  0  0  0  0  0  0
    4.6158    7.2996    1.4811 H   0  0  0  0  0  0  0  0  0  0  0  0
    5.4945    8.7339    0.9584 H   0  0  0  0  0  0  0  0  0  0  0  0
    7.7870    7.3333   -0.5662 H   0  0  0  0  0  0  0  0  0  0  0  0
    6.8748    8.7296   -1.1491 H   0  0  0  0  0  0  0  0  0  0  0  0
    6.9956    7.2808   -2.1508 H   0  0  0  0  0  0  0  0  0  0  0  0
    3.4527    7.2912   -0.8369 H   0  0  0  0  0  0  0  0  0  0  0  0
    4.4431    7.2536   -2.3084 H   0  0  0  0  0  0  0  0  0  0  0  0
    4.3986    8.7022   -1.2946 H   0  0  0  0  0  0  0  0  0  0  0  0
    4.7137   -2.8977   -1.7291 H   0  0  0  0  0  0  0  0  0  0  0  0
    6.6744   -4.2600   -2.2143 H   0  0  0  0  0  0  0  0  0  0  0  0
    9.0006   -1.9871    0.5927 H   0  0  0  0  0  0  0  0  0  0  0  0
    4.2676   -3.4000    1.1843 H   0  0  0  0  0  0  0  0  0  0  0  0
    2.7810   -5.6207    0.9283 H   0  0  0  0  0  0  0  0  0  0  0  0
    0.5957   -4.9074   -0.5224 H   0  0  0  0  0  0  0  0  0  0  0  0
    0.9468   -2.3233   -1.1825 H   0  0  0  0  0  0  0  0  0  0  0  0
  1  2  1  0  0  0  0
  1 29  1  0  0  0  0
  1 30  1  0  0  0  0
  1 31  1  0  0  0  0
  2 23  2  0  0  0  0
  2  3  1  0  0  0  0
  3  4  1  0  0  0  0
  3 13  2  0  0  0  0
  4  5  2  0  0  0  0
  4  6  1  0  0  0  0
  6  7  1  0  0  0  0
  6 32  1  0  0  0  0
  7  8  1  0  0  0  0
  7 33  1  0  0  0  0
  7 34  1  0  0  0  0
  8  9  1  0  0  0  0
  8 35  1  0  0  0  0
  8 36  1  0  0  0  0
  9 10  1  0  0  0  0
  9 11  1  0  0  0  0
  9 12  1  0  0  0  0
 10 37  1  0  0  0  0
 10 38  1  0  0  0  0
 10 39  1  0  0  0  0
 11 40  1  0  0  0  0
 11 41  1  0  0  0  0
 11 42  1  0  0  0  0
 12 43  1  0  0  0  0
 12 44  1  0  0  0  0
 12 45  1  0  0  0  0
 13 14  1  0  0  0  0
 14 15  1  0  0  0  0
 14 23  1  0  0  0  0
 15 20  2  0  0  0  0
 15 16  1  0  0  0  0
 16 17  2  0  0  0  0
 16 46  1  0  0  0  0
 17 18  1  0  0  0  0
 17 47  1  0  0  0  0
 18 19  2  0  0  0  0
 18 22  1  0  0  0  0
 19 20  1  0  0  0  0
 19 48  1  0  0  0  0
 20 21  1  0  0  0  0
 23 24  1  0  0  0  0
 24 28  1  0  0  0  0
 24 25  1  0  0  0  0
 25 26  2  0  0  0  0
 25 49  1  0  0  0  0
 26 27  1  0  0  0  0
 26 50  1  0  0  0  0
 27 28  2  0  0  0  0
 27 51  1  0  0  0  0
 28 52  1  0  0  0  0
M  END
$$$$
CHEMBL568230
 OpenBabel12022417383D

 48 51  0  0  0  0  0  0  0  0999 V2000
    1.1902    0.2614    0.1796 C   0  0  0  0  0  0  0  0  0  0  0  0
    2.6582    0.0084    0.0469 C   0  0  0  0  0  0  0  0  0  0  0  0
    3.6379    1.0274   -0.0299 C   0  0  0  0  0  0  0  0  0  0  0  0
    3.3784    2.5081   -0.0050 C   0  0  0  0  0  0  0  0  0  0  0  0
    2.1902    3.0629    0.1450 N   0  0  0  0  0  0  0  0  0  0  0  0
    2.3949    4.4116    0.0665 C   0  0  0  0  0  0  0  0  0  0  0  0
    3.7238    4.7048   -0.1531 C   0  0  0  0  0  0  0  0  0  0  0  0
    4.4291    6.0051   -0.3895 C   0  0  0  0  0  0  0  0  0  0  0  0
    3.8953    6.6762   -1.6604 C   0  0  0  0  0  0  0  0  0  0  0  0
    4.2755    6.9552    0.7994 C   0  0  0  0  0  0  0  0  0  0  0  0
    4.3480    3.4729   -0.1556 N   0  0  0  0  0  0  0  0  0  0  0  0
    4.8687    0.5295   -0.1401 N   0  0  0  0  0  0  0  0  0  0  0  0
    4.7117   -0.8244   -0.1318 N   0  0  0  0  0  0  0  0  0  0  0  0
    5.8639   -1.6418   -0.3482 C   0  0  0  0  0  0  0  0  0  0  0  0
    5.7522   -2.7926   -1.1544 C   0  0  0  0  0  0  0  0  0  0  0  0
    6.8518   -3.6292   -1.3639 C   0  0  0  0  0  0  0  0  0  0  0  0
    8.0851   -3.3010   -0.8137 C   0  0  0  0  0  0  0  0  0  0  0  0
    8.2208   -2.1595   -0.0283 C   0  0  0  0  0  0  0  0  0  0  0  0
    7.1157   -1.3322    0.2160 C   0  0  0  0  0  0  0  0  0  0  0  0
    7.3845   -0.0525    1.3545 Cl  0  0  0  0  0  0  0  0  0  0  0  0
    9.4463   -4.3120   -1.1015 Cl  0  0  0  0  0  0  0  0  0  0  0  0
    3.3582   -1.1950   -0.0074 C   0  0  0  0  0  0  0  0  0  0  0  0
    2.8475   -2.5830    0.1264 C   0  0  0  0  0  0  0  0  0  0  0  0
    3.5474   -3.5669    0.8458 C   0  0  0  0  0  0  0  0  0  0  0  0
    3.0902   -4.8890    0.9044 C   0  0  0  0  0  0  0  0  0  0  0  0
    1.8715   -5.2255    0.3275 C   0  0  0  0  0  0  0  0  0  0  0  0
    1.1280   -4.2595   -0.3395 C   0  0  0  0  0  0  0  0  0  0  0  0
    1.6315   -2.9590   -0.4680 C   0  0  0  0  0  0  0  0  0  0  0  0
    1.2854   -6.8378    0.4373 Cl  0  0  0  0  0  0  0  0  0  0  0  0
    0.6071   -0.6453    0.3404 H   0  0  0  0  0  0  0  0  0  0  0  0
    0.8128    0.7473   -0.7268 H   0  0  0  0  0  0  0  0  0  0  0  0
    0.9871    0.9117    1.0366 H   0  0  0  0  0  0  0  0  0  0  0  0
    1.5687    5.1073    0.1446 H   0  0  0  0  0  0  0  0  0  0  0  0
    5.4996    5.8134   -0.5329 H   0  0  0  0  0  0  0  0  0  0  0  0
    2.8247    6.8991   -1.5795 H   0  0  0  0  0  0  0  0  0  0  0  0
    4.0342    6.0295   -2.5335 H   0  0  0  0  0  0  0  0  0  0  0  0
    4.4176    7.6196   -1.8523 H   0  0  0  0  0  0  0  0  0  0  0  0
    3.2248    7.2047    0.9884 H   0  0  0  0  0  0  0  0  0  0  0  0
    4.8093    7.8944    0.6141 H   0  0  0  0  0  0  0  0  0  0  0  0
    4.6836    6.5139    1.7150 H   0  0  0  0  0  0  0  0  0  0  0  0
    5.3251    3.2746   -0.2876 H   0  0  0  0  0  0  0  0  0  0  0  0
    4.8164   -3.0570   -1.6422 H   0  0  0  0  0  0  0  0  0  0  0  0
    6.7380   -4.5313   -1.9625 H   0  0  0  0  0  0  0  0  0  0  0  0
    9.1870   -1.9263    0.4154 H   0  0  0  0  0  0  0  0  0  0  0  0
    4.4818   -3.3341    1.3517 H   0  0  0  0  0  0  0  0  0  0  0  0
    3.6899   -5.6445    1.4055 H   0  0  0  0  0  0  0  0  0  0  0  0
    0.1621   -4.5080   -0.7719 H   0  0  0  0  0  0  0  0  0  0  0  0
    1.0490   -2.2460   -1.0458 H   0  0  0  0  0  0  0  0  0  0  0  0
  1  2  1  0  0  0  0
  1 30  1  0  0  0  0
  1 31  1  0  0  0  0
  1 32  1  0  0  0  0
  2 22  2  0  0  0  0
  2  3  1  0  0  0  0
  3  4  1  0  0  0  0
  3 12  2  0  0  0  0
  4 11  1  0  0  0  0
  4  5  2  0  0  0  0
  5  6  1  0  0  0  0
  6  7  2  0  0  0  0
  6 33  1  0  0  0  0
  7  8  1  0  0  0  0
  7 11  1  0  0  0  0
  8  9  1  0  0  0  0
  8 10  1  0  0  0  0
  8 34  1  0  0  0  0
  9 35  1  0  0  0  0
  9 36  1  0  0  0  0
  9 37  1  0  0  0  0
 10 38  1  0  0  0  0
 10 39  1  0  0  0  0
 10 40  1  0  0  0  0
 11 41  1  0  0  0  0
 12 13  1  0  0  0  0
 13 14  1  0  0  0  0
 13 22  1  0  0  0  0
 14 19  2  0  0  0  0
 14 15  1  0  0  0  0
 15 16  2  0  0  0  0
 15 42  1  0  0  0  0
 16 17  1  0  0  0  0
 16 43  1  0  0  0  0
 17 18  2  0  0  0  0
 17 21  1  0  0  0  0
 18 19  1  0  0  0  0
 18 44  1  0  0  0  0
 19 20  1  0  0  0  0
 22 23  1  0  0  0  0
 23 28  2  0  0  0  0
 23 24  1  0  0  0  0
 24 25  2  0  0  0  0
 24 45  1  0  0  0  0
 25 26  1  0  0  0  0
 25 46  1  0  0  0  0
 26 27  2  0  0  0  0
 26 29  1  0  0  0  0
 27 28  1  0  0  0  0
 27 47  1  0  0  0  0
 28 48  1  0  0  0  0
M  END
$$$$
CHEMBL574270
 OpenBabel12022417383D

 56 59  0  0  1  0  0  0  0  0999 V2000
   -1.3253    0.5710    1.0479 N   0  0  0  0  0  0  0  0  0  0  0  0
   -1.8233    1.6191    1.7697 N   0  0  0  0  0  0  0  0  0  0  0  0
   -1.5514    2.7228    1.0471 C   0  0  0  0  0  0  0  0  0  0  0  0
   -1.0332    2.3626   -0.2329 C   0  0  0  0  0  0  0  0  0  0  0  0
   -0.7986    0.9966   -0.1572 C   0  0  0  0  0  0  0  0  0  0  0  0
   -0.2657    0.1999   -1.1896 N   0  0  0  0  0  0  0  0  0  0  0  0
   -0.8132   -0.9522   -1.7675 C   0  0  0  0  0  0  0  0  0  0  0  0
   -0.0472   -1.3020   -2.8653 C   0  0  0  0  0  0  0  0  0  0  0  0
    1.0057   -0.3878   -2.9697 C   0  0  0  0  0  0  0  0  0  0  0  0
    0.9045    0.4864   -1.9067 C   0  0  0  0  0  0  0  0  0  0  0  0
    1.9161    1.5236   -1.5432 C   0  0  0  0  0  0  0  0  0  0  0  0
   -2.0673   -1.6449   -1.3568 C   0  0  0  0  0  0  0  0  0  0  0  0
   -0.8866    3.2573   -1.4191 C   0  0  0  0  0  0  0  0  0  0  0  0
   -1.8112    4.0895    1.5734 C   0  0  0  0  0  0  0  0  0  0  0  0
   -1.5345    5.1160    0.9548 O   0  0  0  0  0  0  0  0  0  0  0  0
   -2.3515    4.1161    2.8415 N   0  0  0  0  0  0  0  0  0  0  0  0
   -2.5955    5.3382    3.6045 C   0  0  2  0  0  0  0  0  0  0  0  0
   -2.5097    5.0990    5.1060 C   0  0  0  0  0  0  0  0  0  0  0  0
   -1.9497    6.0754    5.9487 C   0  0  0  0  0  0  0  0  0  0  0  0
   -1.8471    5.8594    7.3269 C   0  0  0  0  0  0  0  0  0  0  0  0
   -2.3041    4.6672    7.8836 C   0  0  0  0  0  0  0  0  0  0  0  0
   -2.9007    3.7083    7.0710 C   0  0  0  0  0  0  0  0  0  0  0  0
   -3.0215    3.9300    5.6985 C   0  0  0  0  0  0  0  0  0  0  0  0
   -3.9464    5.9661    3.2577 C   0  0  0  0  0  0  0  0  0  0  0  0
   -1.3835   -0.7292    1.6322 C   0  0  0  0  0  0  0  0  0  0  0  0
   -0.3738   -1.6768    1.4309 C   0  0  0  0  0  0  0  0  0  0  0  0
   -0.5198   -2.9766    1.9416 C   0  0  0  0  0  0  0  0  0  0  0  0
   -1.6762   -3.3302    2.6495 C   0  0  0  0  0  0  0  0  0  0  0  0
   -2.6775   -2.3798    2.8617 C   0  0  0  0  0  0  0  0  0  0  0  0
   -2.5227   -1.0778    2.3767 C   0  0  0  0  0  0  0  0  0  0  0  0
   -1.9322   -4.9188    3.2792 Cl  0  0  0  0  0  0  0  0  0  0  0  0
    0.7515   -4.1063    1.6360 Cl  0  0  0  0  0  0  0  0  0  0  0  0
   -0.2485   -2.1321   -3.5314 H   0  0  0  0  0  0  0  0  0  0  0  0
    1.7896   -0.3820   -3.7174 H   0  0  0  0  0  0  0  0  0  0  0  0
    1.7091    2.0337   -0.6008 H   0  0  0  0  0  0  0  0  0  0  0  0
    1.9899    2.2702   -2.3420 H   0  0  0  0  0  0  0  0  0  0  0  0
    2.9024    1.0569   -1.4426 H   0  0  0  0  0  0  0  0  0  0  0  0
   -2.7017   -1.0531   -0.6982 H   0  0  0  0  0  0  0  0  0  0  0  0
   -1.8242   -2.5968   -0.8708 H   0  0  0  0  0  0  0  0  0  0  0  0
   -2.6679   -1.8836   -2.2408 H   0  0  0  0  0  0  0  0  0  0  0  0
   -1.4168    4.2028   -1.2907 H   0  0  0  0  0  0  0  0  0  0  0  0
   -1.3208    2.7734   -2.3000 H   0  0  0  0  0  0  0  0  0  0  0  0
    0.1591    3.4927   -1.6254 H   0  0  0  0  0  0  0  0  0  0  0  0
   -2.4824    3.2042    3.2612 H   0  0  0  0  0  0  0  0  0  0  0  0
   -1.8090    6.0508    3.3204 H   0  0  0  0  0  0  0  0  0  0  0  0
   -1.5877    7.0169    5.5392 H   0  0  0  0  0  0  0  0  0  0  0  0
   -1.4063    6.6196    7.9673 H   0  0  0  0  0  0  0  0  0  0  0  0
   -2.2044    4.4880    8.9508 H   0  0  0  0  0  0  0  0  0  0  0  0
   -3.2734    2.7834    7.5022 H   0  0  0  0  0  0  0  0  0  0  0  0
   -3.5216    3.1767    5.0969 H   0  0  0  0  0  0  0  0  0  0  0  0
   -4.7818    5.3354    3.5849 H   0  0  0  0  0  0  0  0  0  0  0  0
   -4.0520    6.1308    2.1825 H   0  0  0  0  0  0  0  0  0  0  0  0
   -4.0653    6.9425    3.7610 H   0  0  0  0  0  0  0  0  0  0  0  0
    0.5339   -1.4263    0.8843 H   0  0  0  0  0  0  0  0  0  0  0  0
   -3.5901   -2.6506    3.3894 H   0  0  0  0  0  0  0  0  0  0  0  0
   -3.3328   -0.3637    2.5218 H   0  0  0  0  0  0  0  0  0  0  0  0
  1  5  1  0  0  0  0
  1  2  1  0  0  0  0
  1 25  1  0  0  0  0
  2  3  2  0  0  0  0
  3  4  1  0  0  0  0
  3 14  1  0  0  0  0
  4  5  2  0  0  0  0
  4 13  1  0  0  0  0
  5  6  1  0  0  0  0
  6 10  1  0  0  0  0
  6  7  1  0  0  0  0
  7  8  2  0  0  0  0
  7 12  1  0  0  0  0
  8  9  1  0  0  0  0
  8 33  1  0  0  0  0
  9 10  2  0  0  0  0
  9 34  1  0  0  0  0
 10 11  1  0  0  0  0
 11 35  1  0  0  0  0
 11 36  1  0  0  0  0
 11 37  1  0  0  0  0
 12 38  1  0  0  0  0
 12 39  1  0  0  0  0
 12 40  1  0  0  0  0
 13 41  1  0  0  0  0
 13 42  1  0  0  0  0
 13 43  1  0  0  0  0
 14 15  2  0  0  0  0
 14 16  1  0  0  0  0
 16 44  1  0  0  0  0
 17 24  1  0  0  0  0
 17 18  1  0  0  0  0
 17 16  1  0  0  0  0
 17 45  1  6  0  0  0
 18 23  2  0  0  0  0
 18 19  1  0  0  0  0
 19 20  2  0  0  0  0
 19 46  1  0  0  0  0
 20 21  1  0  0  0  0
 20 47  1  0  0  0  0
 21 22  2  0  0  0  0
 21 48  1  0  0  0  0
 22 23  1  0  0  0  0
 22 49  1  0  0  0  0
 23 50  1  0  0  0  0
 24 51  1  0  0  0  0
 24 52  1  0  0  0  0
 24 53  1  0  0  0  0
 25 30  2  0  0  0  0
 25 26  1  0  0  0  0
 26 27  2  0  0  0  0
 26 54  1  0  0  0  0
 27 28  1  0  0  0  0
 27 32  1  0  0  0  0
 28 29  2  0  0  0  0
 28 31  1  0  0  0  0
 29 30  1  0  0  0  0
 29 55  1  0  0  0  0
 30 56  1  0  0  0  0
M  END
$$$$
CHEMBL511907
 OpenBabel12022417383D

 60 63  0  0  0  0  0  0  0  0999 V2000
    3.6422   -0.6536    0.5871 C   0  0  0  0  0  0  0  0  0  0  0  0
    2.4289    0.1935    0.1084 C   0  0  0  0  0  0  0  0  0  0  0  0
    1.1696   -0.6353   -0.2536 C   0  0  0  0  0  0  0  0  0  0  0  0
    1.9956    0.9160    1.4004 C   0  0  0  0  0  0  0  0  0  0  0  0
    2.8651    1.0846   -1.0882 C   0  0  0  0  0  0  0  0  0  0  0  0
    2.7847    2.5421   -1.2007 C   0  0  0  0  0  0  0  0  0  0  0  0
    2.1590    3.6034   -0.3535 C   0  0  0  0  0  0  0  0  0  0  0  0
    1.1304    3.4121    0.3068 O   0  0  0  0  0  0  0  0  0  0  0  0
    2.7995    4.8486   -0.4130 N   0  0  0  0  0  0  0  0  0  0  0  0
    2.4519    6.0012    0.3873 N   0  0  0  0  0  0  0  0  0  0  0  0
    1.1572    6.5951    0.0163 C   0  0  0  0  0  0  0  0  0  0  0  0
    0.8441    7.8607    0.8284 C   0  0  0  0  0  0  0  0  0  0  0  0
    0.8981    7.5864    2.3261 C   0  0  0  0  0  0  0  0  0  0  0  0
    2.2454    6.9745    2.6871 C   0  0  0  0  0  0  0  0  0  0  0  0
    2.5523    5.7361    1.8330 C   0  0  0  0  0  0  0  0  0  0  0  0
    3.4246    2.9499   -2.3113 N   0  0  0  0  0  0  0  0  0  0  0  0
    3.6939    1.8435   -3.0260 N   0  0  0  0  0  0  0  0  0  0  0  0
    4.0316    2.0128   -4.4086 C   0  0  0  0  0  0  0  0  0  0  0  0
    3.4895    1.1389   -5.3760 C   0  0  0  0  0  0  0  0  0  0  0  0
    3.7878    1.3032   -6.7256 C   0  0  0  0  0  0  0  0  0  0  0  0
    4.5998    2.3538   -7.1391 C   0  0  0  0  0  0  0  0  0  0  0  0
    5.1568    3.2167   -6.2032 C   0  0  0  0  0  0  0  0  0  0  0  0
    4.8896    3.0451   -4.8361 C   0  0  0  0  0  0  0  0  0  0  0  0
    5.8126    4.0398   -3.7585 Cl  0  0  0  0  0  0  0  0  0  0  0  0
    4.9271    2.5804   -8.8125 Cl  0  0  0  0  0  0  0  0  0  0  0  0
    3.5195    0.6603   -2.2860 C   0  0  0  0  0  0  0  0  0  0  0  0
    4.0198   -0.6774   -2.7898 C   0  0  0  0  0  0  0  0  0  0  0  0
    5.1441   -0.7787   -3.6325 C   0  0  0  0  0  0  0  0  0  0  0  0
    5.5231   -1.9911   -4.2385 C   0  0  0  0  0  0  0  0  0  0  0  0
    4.8485   -3.1619   -3.9392 C   0  0  0  0  0  0  0  0  0  0  0  0
    3.8005   -3.1237   -3.0381 C   0  0  0  0  0  0  0  0  0  0  0  0
    3.3993   -1.9001   -2.4907 C   0  0  0  0  0  0  0  0  0  0  0  0
    5.2995   -4.6523   -4.6626 Cl  0  0  0  0  0  0  0  0  0  0  0  0
    3.3736   -1.3198    1.4148 H   0  0  0  0  0  0  0  0  0  0  0  0
    4.4416    0.0106    0.9464 H   0  0  0  0  0  0  0  0  0  0  0  0
    4.1029   -1.2762   -0.1756 H   0  0  0  0  0  0  0  0  0  0  0  0
    1.0197   -1.4578    0.4552 H   0  0  0  0  0  0  0  0  0  0  0  0
    1.1418   -1.0397   -1.2622 H   0  0  0  0  0  0  0  0  0  0  0  0
    0.2718   -0.0049   -0.2244 H   0  0  0  0  0  0  0  0  0  0  0  0
    1.7315    0.1787    2.1751 H   0  0  0  0  0  0  0  0  0  0  0  0
    1.0785    1.4879    1.2642 H   0  0  0  0  0  0  0  0  0  0  0  0
    2.7777    1.5588    1.8135 H   0  0  0  0  0  0  0  0  0  0  0  0
    3.5551    4.9403   -1.0891 H   0  0  0  0  0  0  0  0  0  0  0  0
    0.3388    5.8785    0.1560 H   0  0  0  0  0  0  0  0  0  0  0  0
    1.1720    6.8717   -1.0446 H   0  0  0  0  0  0  0  0  0  0  0  0
   -0.1497    8.2404    0.5625 H   0  0  0  0  0  0  0  0  0  0  0  0
    1.5619    8.6535    0.5799 H   0  0  0  0  0  0  0  0  0  0  0  0
    0.0887    6.9012    2.6076 H   0  0  0  0  0  0  0  0  0  0  0  0
    0.7403    8.5143    2.8892 H   0  0  0  0  0  0  0  0  0  0  0  0
    2.2476    6.7002    3.7493 H   0  0  0  0  0  0  0  0  0  0  0  0
    3.0329    7.7259    2.5520 H   0  0  0  0  0  0  0  0  0  0  0  0
    3.5703    5.4049    2.0699 H   0  0  0  0  0  0  0  0  0  0  0  0
    1.8705    4.9335    2.1363 H   0  0  0  0  0  0  0  0  0  0  0  0
    2.8195    0.3262   -5.0885 H   0  0  0  0  0  0  0  0  0  0  0  0
    3.3796    0.6050   -7.4600 H   0  0  0  0  0  0  0  0  0  0  0  0
    5.8211    4.0132   -6.5310 H   0  0  0  0  0  0  0  0  0  0  0  0
    5.7472    0.0939   -3.8768 H   0  0  0  0  0  0  0  0  0  0  0  0
    6.3513   -2.0065   -4.9445 H   0  0  0  0  0  0  0  0  0  0  0  0
    3.2760   -4.0362   -2.7475 H   0  0  0  0  0  0  0  0  0  0  0  0
    2.5964   -1.9774   -1.7820 H   0  0  0  0  0  0  0  0  0  0  0  0
  1  2  1  0  0  0  0
  1 34  1  0  0  0  0
  1 35  1  0  0  0  0
  1 36  1  0  0  0  0
  2  3  1  0  0  0  0
  2  4  1  0  0  0  0
  2  5  1  0  0  0  0
  3 37  1  0  0  0  0
  3 38  1  0  0  0  0
  3 39  1  0  0  0  0
  4 40  1  0  0  0  0
  4 41  1  0  0  0  0
  4 42  1  0  0  0  0
  5 26  2  0  0  0  0
  5  6  1  0  0  0  0
  6  7  1  0  0  0  0
  6 16  2  0  0  0  0
  7  8  2  0  0  0  0
  7  9  1  0  0  0  0
  9 10  1  0  0  0  0
  9 43  1  0  0  0  0
 10 15  1  0  0  0  0
 10 11  1  0  0  0  0
 11 12  1  0  0  0  0
 11 44  1  0  0  0  0
 11 45  1  0  0  0  0
 12 13  1  0  0  0  0
 12 46  1  0  0  0  0
 12 47  1  0  0  0  0
 13 14  1  0  0  0  0
 13 48  1  0  0  0  0
 13 49  1  0  0  0  0
 14 15  1  0  0  0  0
 14 50  1  0  0  0  0
 14 51  1  0  0  0  0
 15 52  1  0  0  0  0
 15 53  1  0  0  0  0
 16 17  1  0  0  0  0
 17 18  1  0  0  0  0
 17 26  1  0  0  0  0
 18 23  2  0  0  0  0
 18 19  1  0  0  0  0
 19 20  2  0  0  0  0
 19 54  1  0  0  0  0
 20 21  1  0  0  0  0
 20 55  1  0  0  0  0
 21 22  2  0  0  0  0
 21 25  1  0  0  0  0
 22 23  1  0  0  0  0
 22 56  1  0  0  0  0
 23 24  1  0  0  0  0
 26 27  1  0  0  0  0
 27 32  2  0  0  0  0
 27 28  1  0  0  0  0
 28 29  2  0  0  0  0
 28 57  1  0  0  0  0
 29 30  1  0  0  0  0
 29 58  1  0  0  0  0
 30 31  2  0  0  0  0
 30 33  1  0  0  0  0
 31 32  1  0  0  0  0
 31 59  1  0  0  0  0
 32 60  1  0  0  0  0
M  END
$$$$
CHEMBL479940
 OpenBabel12022417383D

 52 55  0  0  0  0  0  0  0  0999 V2000
    1.2241    0.3303   -0.0034 C   0  0  0  0  0  0  0  0  0  0  0  0
    2.6967    0.1023   -0.0572 C   0  0  0  0  0  0  0  0  0  0  0  0
    3.7162    1.1052   -0.0543 C   0  0  0  0  0  0  0  0  0  0  0  0
    3.4624    2.8741    0.0057 S   0  0  0  0  0  0  0  0  0  0  0  0
    2.0394    3.0556   -0.1736 O   0  0  0  0  0  0  0  0  0  0  0  0
    4.1394    3.2901    1.2296 O   0  0  0  0  0  0  0  0  0  0  0  0
    4.2314    3.6023   -1.3737 N   0  0  0  0  0  0  0  0  0  0  0  0
    4.1178    5.0331   -1.4625 N   0  0  0  0  0  0  0  0  0  0  0  0
    2.8032    5.5496   -1.8727 C   0  0  0  0  0  0  0  0  0  0  0  0
    2.8725    7.0446   -2.2215 C   0  0  0  0  0  0  0  0  0  0  0  0
    3.4633    7.8613   -1.0779 C   0  0  0  0  0  0  0  0  0  0  0  0
    4.8009    7.2730   -0.6428 C   0  0  0  0  0  0  0  0  0  0  0  0
    4.6859    5.7770   -0.3295 C   0  0  0  0  0  0  0  0  0  0  0  0
    4.9406    0.5564   -0.0593 N   0  0  0  0  0  0  0  0  0  0  0  0
    4.7426   -0.7853   -0.0761 N   0  0  0  0  0  0  0  0  0  0  0  0
    5.8707   -1.6370   -0.2487 C   0  0  0  0  0  0  0  0  0  0  0  0
    5.7939   -2.7032   -1.1669 C   0  0  0  0  0  0  0  0  0  0  0  0
    6.8997   -3.5234   -1.3942 C   0  0  0  0  0  0  0  0  0  0  0  0
    8.0918   -3.2695   -0.7246 C   0  0  0  0  0  0  0  0  0  0  0  0
    8.1708   -2.2464    0.2177 C   0  0  0  0  0  0  0  0  0  0  0  0
    7.0591   -1.4339    0.4710 C   0  0  0  0  0  0  0  0  0  0  0  0
    7.2002   -0.3413    1.8064 Cl  0  0  0  0  0  0  0  0  0  0  0  0
    9.4789   -4.2262   -1.0660 Cl  0  0  0  0  0  0  0  0  0  0  0  0
    3.3820   -1.1200   -0.0670 C   0  0  0  0  0  0  0  0  0  0  0  0
    2.8555   -2.5049    0.0394 C   0  0  0  0  0  0  0  0  0  0  0  0
    3.5523   -3.5009    0.7492 C   0  0  0  0  0  0  0  0  0  0  0  0
    3.0829   -4.8153    0.8153 C   0  0  0  0  0  0  0  0  0  0  0  0
    1.8555   -5.1316    0.2510 C   0  0  0  0  0  0  0  0  0  0  0  0
    1.1218   -4.1610   -0.4175 C   0  0  0  0  0  0  0  0  0  0  0  0
    1.6390   -2.8703   -0.5556 C   0  0  0  0  0  0  0  0  0  0  0  0
    1.2397   -6.7272    0.3933 Cl  0  0  0  0  0  0  0  0  0  0  0  0
    0.6478   -0.5896    0.0837 H   0  0  0  0  0  0  0  0  0  0  0  0
    0.8842    0.8310   -0.9146 H   0  0  0  0  0  0  0  0  0  0  0  0
    0.9475    0.9266    0.8696 H   0  0  0  0  0  0  0  0  0  0  0  0
    3.8933    3.1589   -2.2336 H   0  0  0  0  0  0  0  0  0  0  0  0
    2.0588    5.4082   -1.0830 H   0  0  0  0  0  0  0  0  0  0  0  0
    2.4515    5.0140   -2.7625 H   0  0  0  0  0  0  0  0  0  0  0  0
    1.8691    7.4186   -2.4573 H   0  0  0  0  0  0  0  0  0  0  0  0
    3.4831    7.1898   -3.1221 H   0  0  0  0  0  0  0  0  0  0  0  0
    2.7661    7.8674   -0.2308 H   0  0  0  0  0  0  0  0  0  0  0  0
    3.5957    8.9051   -1.3882 H   0  0  0  0  0  0  0  0  0  0  0  0
    5.1639    7.8076    0.2427 H   0  0  0  0  0  0  0  0  0  0  0  0
    5.5417    7.4287   -1.4368 H   0  0  0  0  0  0  0  0  0  0  0  0
    5.6865    5.3957   -0.0958 H   0  0  0  0  0  0  0  0  0  0  0  0
    4.0615    5.6648    0.5635 H   0  0  0  0  0  0  0  0  0  0  0  0
    4.8830   -2.9121   -1.7245 H   0  0  0  0  0  0  0  0  0  0  0  0
    6.8264   -4.3436   -2.1049 H   0  0  0  0  0  0  0  0  0  0  0  0
    9.0960   -2.0867    0.7659 H   0  0  0  0  0  0  0  0  0  0  0  0
    4.5018   -3.2916    1.2364 H   0  0  0  0  0  0  0  0  0  0  0  0
    3.6818   -5.5688    1.3148 H   0  0  0  0  0  0  0  0  0  0  0  0
    0.1486   -4.3936   -0.8398 H   0  0  0  0  0  0  0  0  0  0  0  0
    1.0583   -2.1596   -1.1352 H   0  0  0  0  0  0  0  0  0  0  0  0
  1  2  1  0  0  0  0
  1 32  1  0  0  0  0
  1 33  1  0  0  0  0
  1 34  1  0  0  0  0
  2 24  2  0  0  0  0
  2  3  1  0  0  0  0
  3  4  1  0  0  0  0
  3 14  2  0  0  0  0
  4  5  2  0  0  0  0
  4  6  2  0  0  0  0
  4  7  1  0  0  0  0
  7  8  1  0  0  0  0
  7 35  1  0  0  0  0
  8 13  1  0  0  0  0
  8  9  1  0  0  0  0
  9 10  1  0  0  0  0
  9 36  1  0  0  0  0
  9 37  1  0  0  0  0
 10 11  1  0  0  0  0
 10 38  1  0  0  0  0
 10 39  1  0  0  0  0
 11 12  1  0  0  0  0
 11 40  1  0  0  0  0
 11 41  1  0  0  0  0
 12 13  1  0  0  0  0
 12 42  1  0  0  0  0
 12 43  1  0  0  0  0
 13 44  1  0  0  0  0
 13 45  1  0  0  0  0
 14 15  1  0  0  0  0
 15 16  1  0  0  0  0
 15 24  1  0  0  0  0
 16 21  2  0  0  0  0
 16 17  1  0  0  0  0
 17 18  2  0  0  0  0
 17 46  1  0  0  0  0
 18 19  1  0  0  0  0
 18 47  1  0  0  0  0
 19 20  2  0  0  0  0
 19 23  1  0  0  0  0
 20 21  1  0  0  0  0
 20 48  1  0  0  0  0
 21 22  1  0  0  0  0
 24 25  1  0  0  0  0
 25 30  2  0  0  0  0
 25 26  1  0  0  0  0
 26 27  2  0  0  0  0
 26 49  1  0  0  0  0
 27 28  1  0  0  0  0
 27 50  1  0  0  0  0
 28 29  2  0  0  0  0
 28 31  1  0  0  0  0
 29 30  1  0  0  0  0
 29 51  1  0  0  0  0
 30 52  1  0  0  0  0
M  END
$$$$
CHEMBL579249
 OpenBabel12022417383D

 59 62  0  0  0  0  0  0  0  0999 V2000
   -0.1322   -0.9373   -0.0391 N   0  0  0  0  0  0  0  0  0  0  0  0
   -0.9797    0.1082   -0.2863 N   0  0  0  0  0  0  0  0  0  0  0  0
   -0.1949    1.2054   -0.2511 C   0  0  0  0  0  0  0  0  0  0  0  0
    1.1895    0.8362   -0.2052 C   0  0  0  0  0  0  0  0  0  0  0  0
    1.1959   -0.5413   -0.0335 C   0  0  0  0  0  0  0  0  0  0  0  0
    2.3304   -1.3767    0.0198 N   0  0  0  0  0  0  0  0  0  0  0  0
    2.5654   -2.5506   -0.7090 C   0  0  0  0  0  0  0  0  0  0  0  0
    3.8530   -2.9848   -0.4506 C   0  0  0  0  0  0  0  0  0  0  0  0
    4.4398   -2.0890    0.4473 C   0  0  0  0  0  0  0  0  0  0  0  0
    3.4908   -1.1404    0.7712 C   0  0  0  0  0  0  0  0  0  0  0  0
    3.6585   -0.0798    1.8070 C   0  0  0  0  0  0  0  0  0  0  0  0
    1.6412   -3.1877   -1.6899 C   0  0  0  0  0  0  0  0  0  0  0  0
    2.3471    1.7567   -0.4029 C   0  0  0  0  0  0  0  0  0  0  0  0
   -0.7226    2.5936   -0.2826 C   0  0  0  0  0  0  0  0  0  0  0  0
    0.0239    3.5641   -0.1571 O   0  0  0  0  0  0  0  0  0  0  0  0
   -2.0936    2.7544   -0.4487 N   0  0  0  0  0  0  0  0  0  0  0  0
   -2.6582    4.1017   -0.6192 C   0  0  0  0  0  0  0  0  0  0  0  0
   -2.4748    4.5910   -2.0685 C   0  0  0  0  0  0  0  0  0  0  0  0
   -3.7430    4.7656   -2.9042 C   0  0  0  0  0  0  0  0  0  0  0  0
   -4.4688    6.0783   -2.6173 C   0  0  0  0  0  0  0  0  0  0  0  0
   -5.3088    6.0905   -1.3454 C   0  0  0  0  0  0  0  0  0  0  0  0
   -4.5947    5.6717   -0.0623 C   0  0  0  0  0  0  0  0  0  0  0  0
   -4.0803    4.2244   -0.0543 C   0  0  0  0  0  0  0  0  0  0  0  0
   -0.7004   -2.2182    0.2412 C   0  0  0  0  0  0  0  0  0  0  0  0
   -0.1255   -3.0761    1.1877 C   0  0  0  0  0  0  0  0  0  0  0  0
   -0.6776   -4.3469    1.4091 C   0  0  0  0  0  0  0  0  0  0  0  0
   -1.7915   -4.7664    0.6727 C   0  0  0  0  0  0  0  0  0  0  0  0
   -2.3601   -3.9100   -0.2743 C   0  0  0  0  0  0  0  0  0  0  0  0
   -1.8338   -2.6290   -0.4747 C   0  0  0  0  0  0  0  0  0  0  0  0
   -2.5116   -6.3233    0.8833 Cl  0  0  0  0  0  0  0  0  0  0  0  0
    0.0648   -5.3466    2.6082 Cl  0  0  0  0  0  0  0  0  0  0  0  0
    4.3234   -3.8544   -0.8937 H   0  0  0  0  0  0  0  0  0  0  0  0
    5.4435   -2.1393    0.8524 H   0  0  0  0  0  0  0  0  0  0  0  0
    2.7178    0.3802    2.1145 H   0  0  0  0  0  0  0  0  0  0  0  0
    4.3420    0.6953    1.4430 H   0  0  0  0  0  0  0  0  0  0  0  0
    4.1088   -0.5092    2.7092 H   0  0  0  0  0  0  0  0  0  0  0  0
    0.8071   -2.5537   -1.9875 H   0  0  0  0  0  0  0  0  0  0  0  0
    1.2551   -4.1280   -1.2806 H   0  0  0  0  0  0  0  0  0  0  0  0
    2.1867   -3.4337   -2.6074 H   0  0  0  0  0  0  0  0  0  0  0  0
    2.0826    2.6149   -1.0246 H   0  0  0  0  0  0  0  0  0  0  0  0
    3.1655    1.2476   -0.9231 H   0  0  0  0  0  0  0  0  0  0  0  0
    2.7117    2.1387    0.5536 H   0  0  0  0  0  0  0  0  0  0  0  0
   -2.6260    1.9195   -0.6721 H   0  0  0  0  0  0  0  0  0  0  0  0
   -2.0345    4.7560    0.0060 H   0  0  0  0  0  0  0  0  0  0  0  0
   -1.8076    3.9066   -2.6080 H   0  0  0  0  0  0  0  0  0  0  0  0
   -1.9400    5.5502   -2.0421 H   0  0  0  0  0  0  0  0  0  0  0  0
   -4.4161    3.9075   -2.8018 H   0  0  0  0  0  0  0  0  0  0  0  0
   -3.4390    4.7874   -3.9584 H   0  0  0  0  0  0  0  0  0  0  0  0
   -5.1406    6.2908   -3.4597 H   0  0  0  0  0  0  0  0  0  0  0  0
   -3.7496    6.9064   -2.5934 H   0  0  0  0  0  0  0  0  0  0  0  0
   -6.1920    5.4569   -1.4905 H   0  0  0  0  0  0  0  0  0  0  0  0
   -5.6906    7.1115   -1.2075 H   0  0  0  0  0  0  0  0  0  0  0  0
   -5.3178    5.7801    0.7566 H   0  0  0  0  0  0  0  0  0  0  0  0
   -3.7805    6.3732    0.1579 H   0  0  0  0  0  0  0  0  0  0  0  0
   -4.0597    3.8838    0.9895 H   0  0  0  0  0  0  0  0  0  0  0  0
   -4.7803    3.5554   -0.5679 H   0  0  0  0  0  0  0  0  0  0  0  0
    0.7364   -2.7696    1.7769 H   0  0  0  0  0  0  0  0  0  0  0  0
   -3.2112   -4.2375   -0.8686 H   0  0  0  0  0  0  0  0  0  0  0  0
   -2.2770   -1.9872   -1.2333 H   0  0  0  0  0  0  0  0  0  0  0  0
  1  5  1  0  0  0  0
  1  2  1  0  0  0  0
  1 24  1  0  0  0  0
  2  3  2  0  0  0  0
  3  4  1  0  0  0  0
  3 14  1  0  0  0  0
  4  5  2  0  0  0  0
  4 13  1  0  0  0  0
  5  6  1  0  0  0  0
  6 10  1  0  0  0  0
  6  7  1  0  0  0  0
  7  8  2  0  0  0  0
  7 12  1  0  0  0  0
  8  9  1  0  0  0  0
  8 32  1  0  0  0  0
  9 10  2  0  0  0  0
  9 33  1  0  0  0  0
 10 11  1  0  0  0  0
 11 34  1  0  0  0  0
 11 35  1  0  0  0  0
 11 36  1  0  0  0  0
 12 37  1  0  0  0  0
 12 38  1  0  0  0  0
 12 39  1  0  0  0  0
 13 40  1  0  0  0  0
 13 41  1  0  0  0  0
 13 42  1  0  0  0  0
 14 15  2  0  0  0  0
 14 16  1  0  0  0  0
 16 17  1  0  0  0  0
 16 43  1  0  0  0  0
 17 23  1  0  0  0  0
 17 18  1  0  0  0  0
 17 44  1  0  0  0  0
 18 19  1  0  0  0  0
 18 45  1  0  0  0  0
 18 46  1  0  0  0  0
 19 20  1  0  0  0  0
 19 47  1  0  0  0  0
 19 48  1  0  0  0  0
 20 21  1  0  0  0  0
 20 49  1  0  0  0  0
 20 50  1  0  0  0  0
 21 22  1  0  0  0  0
 21 51  1  0  0  0  0
 21 52  1  0  0  0  0
 22 23  1  0  0  0  0
 22 53  1  0  0  0  0
 22 54  1  0  0  0  0
 23 55  1  0  0  0  0
 23 56  1  0  0  0  0
 24 29  2  0  0  0  0
 24 25  1  0  0  0  0
 25 26  2  0  0  0  0
 25 57  1  0  0  0  0
 26 27  1  0  0  0  0
 26 31  1  0  0  0  0
 27 28  2  0  0  0  0
 27 30  1  0  0  0  0
 28 29  1  0  0  0  0
 28 58  1  0  0  0  0
 29 59  1  0  0  0  0
M  END
$$$$
CHEMBL576140
 OpenBabel12022417383D

 50 53  0  0  0  0  0  0  0  0999 V2000
   -0.0973   -1.0067    0.1144 N   0  0  0  0  0  0  0  0  0  0  0  0
   -0.9662    0.0477    0.1245 N   0  0  0  0  0  0  0  0  0  0  0  0
   -0.2103    1.1537    0.0226 C   0  0  0  0  0  0  0  0  0  0  0  0
    1.1715    0.8212   -0.0968 C   0  0  0  0  0  0  0  0  0  0  0  0
    1.2208   -0.5623    0.0316 C   0  0  0  0  0  0  0  0  0  0  0  0
    2.3853   -1.3584    0.0038 N   0  0  0  0  0  0  0  0  0  0  0  0
    2.6213   -2.5278   -0.7319 C   0  0  0  0  0  0  0  0  0  0  0  0
    3.9166   -2.9513   -0.4926 C   0  0  0  0  0  0  0  0  0  0  0  0
    4.5145   -2.0420    0.3832 C   0  0  0  0  0  0  0  0  0  0  0  0
    3.5643   -1.0994    0.7202 C   0  0  0  0  0  0  0  0  0  0  0  0
    3.7499   -0.0350    1.7500 C   0  0  0  0  0  0  0  0  0  0  0  0
    1.6810   -3.1880   -1.6831 C   0  0  0  0  0  0  0  0  0  0  0  0
    2.2804    1.7840   -0.3672 C   0  0  0  0  0  0  0  0  0  0  0  0
   -0.8008    2.5150    0.0331 C   0  0  0  0  0  0  0  0  0  0  0  0
   -0.0841    3.5132   -0.0145 O   0  0  0  0  0  0  0  0  0  0  0  0
   -2.1795    2.5398    0.1514 N   0  0  0  0  0  0  0  0  0  0  0  0
   -3.0024    3.6898    0.1587 C   0  0  0  0  0  0  0  0  0  0  0  0
   -4.3455    3.5433    0.5207 C   0  0  0  0  0  0  0  0  0  0  0  0
   -5.2005    4.6562    0.5593 C   0  0  0  0  0  0  0  0  0  0  0  0
   -4.7203    5.9193    0.2207 C   0  0  0  0  0  0  0  0  0  0  0  0
   -3.3937    6.0787   -0.1605 C   0  0  0  0  0  0  0  0  0  0  0  0
   -2.5416    4.9669   -0.1862 C   0  0  0  0  0  0  0  0  0  0  0  0
   -5.7674    7.2842    0.2651 Cl  0  0  0  0  0  0  0  0  0  0  0  0
   -0.6235   -2.3134    0.3709 C   0  0  0  0  0  0  0  0  0  0  0  0
   -1.8620   -2.7325   -0.1586 C   0  0  0  0  0  0  0  0  0  0  0  0
   -2.3421   -4.0234    0.1096 C   0  0  0  0  0  0  0  0  0  0  0  0
   -1.5917   -4.9033    0.8825 C   0  0  0  0  0  0  0  0  0  0  0  0
   -0.3647   -4.5078    1.4022 C   0  0  0  0  0  0  0  0  0  0  0  0
    0.1093   -3.2131    1.1662 C   0  0  0  0  0  0  0  0  0  0  0  0
   -2.1763   -6.4922    1.1846 Cl  0  0  0  0  0  0  0  0  0  0  0  0
   -2.8096   -1.8120   -1.2814 Cl  0  0  0  0  0  0  0  0  0  0  0  0
    4.3830   -3.8255   -0.9301 H   0  0  0  0  0  0  0  0  0  0  0  0
    5.5252   -2.0809    0.7719 H   0  0  0  0  0  0  0  0  0  0  0  0
    2.8121    0.3928    2.1094 H   0  0  0  0  0  0  0  0  0  0  0  0
    4.3905    0.7612    1.3555 H   0  0  0  0  0  0  0  0  0  0  0  0
    4.2593   -0.4504    2.6268 H   0  0  0  0  0  0  0  0  0  0  0  0
    0.8024   -2.5910   -1.9242 H   0  0  0  0  0  0  0  0  0  0  0  0
    1.3602   -4.1537   -1.2752 H   0  0  0  0  0  0  0  0  0  0  0  0
    2.1937   -3.3953   -2.6283 H   0  0  0  0  0  0  0  0  0  0  0  0
    1.9336    2.6793   -0.8879 H   0  0  0  0  0  0  0  0  0  0  0  0
    3.0418    1.3347   -1.0113 H   0  0  0  0  0  0  0  0  0  0  0  0
    2.7419    2.1174    0.5646 H   0  0  0  0  0  0  0  0  0  0  0  0
   -2.6065    1.6285    0.2933 H   0  0  0  0  0  0  0  0  0  0  0  0
   -4.7457    2.5705    0.7988 H   0  0  0  0  0  0  0  0  0  0  0  0
   -6.2375    4.5320    0.8648 H   0  0  0  0  0  0  0  0  0  0  0  0
   -3.0096    7.0582   -0.4322 H   0  0  0  0  0  0  0  0  0  0  0  0
   -1.5193    5.1424   -0.5037 H   0  0  0  0  0  0  0  0  0  0  0  0
   -3.2913   -4.3518   -0.3089 H   0  0  0  0  0  0  0  0  0  0  0  0
    0.2328   -5.2004    1.9908 H   0  0  0  0  0  0  0  0  0  0  0  0
    1.0563   -2.9356    1.6226 H   0  0  0  0  0  0  0  0  0  0  0  0
  1  5  1  0  0  0  0
  1  2  1  0  0  0  0
  1 24  1  0  0  0  0
  2  3  2  0  0  0  0
  3  4  1  0  0  0  0
  3 14  1  0  0  0  0
  4  5  2  0  0  0  0
  4 13  1  0  0  0  0
  5  6  1  0  0  0  0
  6 10  1  0  0  0  0
  6  7  1  0  0  0  0
  7  8  2  0  0  0  0
  7 12  1  0  0  0  0
  8  9  1  0  0  0  0
  8 32  1  0  0  0  0
  9 10  2  0  0  0  0
  9 33  1  0  0  0  0
 10 11  1  0  0  0  0
 11 34  1  0  0  0  0
 11 35  1  0  0  0  0
 11 36  1  0  0  0  0
 12 37  1  0  0  0  0
 12 38  1  0  0  0  0
 12 39  1  0  0  0  0
 13 40  1  0  0  0  0
 13 41  1  0  0  0  0
 13 42  1  0  0  0  0
 14 15  2  0  0  0  0
 14 16  1  0  0  0  0
 16 17  1  0  0  0  0
 16 43  1  0  0  0  0
 17 22  2  0  0  0  0
 17 18  1  0  0  0  0
 18 19  2  0  0  0  0
 18 44  1  0  0  0  0
 19 20  1  0  0  0  0
 19 45  1  0  0  0  0
 20 21  2  0  0  0  0
 20 23  1  0  0  0  0
 21 22  1  0  0  0  0
 21 46  1  0  0  0  0
 22 47  1  0  0  0  0
 24 29  2  0  0  0  0
 24 25  1  0  0  0  0
 25 26  2  0  0  0  0
 25 31  1  0  0  0  0
 26 27  1  0  0  0  0
 26 48  1  0  0  0  0
 27 28  2  0  0  0  0
 27 30  1  0  0  0  0
 28 29  1  0  0  0  0
 28 49  1  0  0  0  0
 29 50  1  0  0  0  0
M  END
$$$$
CHEMBL2030929
 OpenBabel12022417383D

 60 63  0  0  1  0  0  0  0  0999 V2000
    5.5285    5.6023   -1.5346 C   0  0  0  0  0  0  0  0  0  0  0  0
    4.7733    4.3063   -1.2966 C   0  0  0  0  0  0  0  0  0  0  0  0
    4.9458    3.9332    0.0778 O   0  0  0  0  0  0  0  0  0  0  0  0
    6.0926    3.2494    0.3428 C   0  0  0  0  0  0  0  0  0  0  0  0
    6.7977    2.7559   -0.5349 O   0  0  0  0  0  0  0  0  0  0  0  0
    6.4063    3.2195    1.6861 N   0  0  0  0  0  0  0  0  0  0  0  0
    7.7577    2.8221    2.0457 C   0  0  0  0  0  0  0  0  0  0  0  0
    7.7519    2.0031    3.3241 C   0  0  0  0  0  0  0  0  0  0  0  0
    7.0898    2.7724    4.4649 C   0  0  0  0  0  0  0  0  0  0  0  0
    5.6864    3.2831    4.0863 C   0  0  2  0  0  0  0  0  0  0  0  0
    5.6780    3.9865    2.7059 C   0  0  0  0  0  0  0  0  0  0  0  0
    5.0973    4.0827    5.1624 N   0  0  0  0  0  0  0  0  0  0  0  0
    5.6016    5.2864    5.6159 C   0  0  0  0  0  0  0  0  0  0  0  0
    6.5662    5.8379    5.0956 O   0  0  0  0  0  0  0  0  0  0  0  0
    4.8791    5.8480    6.7889 C   0  0  0  0  0  0  0  0  0  0  0  0
    5.1564    7.0375    7.5292 C   0  0  0  0  0  0  0  0  0  0  0  0
    4.1374    7.1389    8.4805 C   0  0  0  0  0  0  0  0  0  0  0  0
    3.8690    8.2251    9.4578 C   0  0  0  0  0  0  0  0  0  0  0  0
    4.9056    8.7477   10.2469 C   0  0  0  0  0  0  0  0  0  0  0  0
    4.6397    9.6268   11.3046 C   0  0  0  0  0  0  0  0  0  0  0  0
    3.3270    9.9742   11.6029 C   0  0  0  0  0  0  0  0  0  0  0  0
    2.2883    9.5245   10.7954 C   0  0  0  0  0  0  0  0  0  0  0  0
    2.5654    8.6970    9.6986 C   0  0  0  0  0  0  0  0  0  0  0  0
    2.9864   10.9282   12.9923 Cl  0  0  0  0  0  0  0  0  0  0  0  0
    3.3559    5.9793    8.3175 N   0  0  0  0  0  0  0  0  0  0  0  0
    2.2445    5.5101    9.0925 C   0  0  0  0  0  0  0  0  0  0  0  0
    2.1799    5.8174   10.4660 C   0  0  0  0  0  0  0  0  0  0  0  0
    1.0423    5.5235   11.2228 C   0  0  0  0  0  0  0  0  0  0  0  0
   -0.0166    4.8468   10.6351 C   0  0  0  0  0  0  0  0  0  0  0  0
    0.0608    4.4487    9.3046 C   0  0  0  0  0  0  0  0  0  0  0  0
    1.1831    4.7743    8.5252 C   0  0  0  0  0  0  0  0  0  0  0  0
    1.0660    4.3118    6.8595 Cl  0  0  0  0  0  0  0  0  0  0  0  0
   -1.4304    4.5081   11.5526 Cl  0  0  0  0  0  0  0  0  0  0  0  0
    3.8045    5.2211    7.2853 N   0  0  0  0  0  0  0  0  0  0  0  0
    6.2761    7.9942    7.2915 C   0  0  0  0  0  0  0  0  0  0  0  0
    5.3678    5.9756   -2.5484 H   0  0  0  0  0  0  0  0  0  0  0  0
    6.6038    5.4606   -1.3797 H   0  0  0  0  0  0  0  0  0  0  0  0
    5.2074    6.3643   -0.8162 H   0  0  0  0  0  0  0  0  0  0  0  0
    5.1001    3.5176   -1.9851 H   0  0  0  0  0  0  0  0  0  0  0  0
    3.7031    4.4579   -1.4673 H   0  0  0  0  0  0  0  0  0  0  0  0
    8.3462    3.7401    2.1687 H   0  0  0  0  0  0  0  0  0  0  0  0
    8.2285    2.2461    1.2425 H   0  0  0  0  0  0  0  0  0  0  0  0
    8.7804    1.7418    3.5967 H   0  0  0  0  0  0  0  0  0  0  0  0
    7.2116    1.0643    3.1513 H   0  0  0  0  0  0  0  0  0  0  0  0
    7.7422    3.6072    4.7447 H   0  0  0  0  0  0  0  0  0  0  0  0
    7.0212    2.1234    5.3460 H   0  0  0  0  0  0  0  0  0  0  0  0
    5.0375    2.4011    3.9974 H   0  0  0  0  0  0  0  0  0  0  0  0
    4.6407    4.1506    2.3939 H   0  0  0  0  0  0  0  0  0  0  0  0
    6.1517    4.9729    2.7529 H   0  0  0  0  0  0  0  0  0  0  0  0
    4.3020    3.7254    5.6878 H   0  0  0  0  0  0  0  0  0  0  0  0
    5.9365    8.4462   10.0877 H   0  0  0  0  0  0  0  0  0  0  0  0
    5.4594   10.0016   11.9125 H   0  0  0  0  0  0  0  0  0  0  0  0
    1.2586    9.7839   11.0300 H   0  0  0  0  0  0  0  0  0  0  0  0
    1.7289    8.3597    9.0892 H   0  0  0  0  0  0  0  0  0  0  0  0
    3.0065    6.3028   10.9808 H   0  0  0  0  0  0  0  0  0  0  0  0
    0.9908    5.8349   12.2640 H   0  0  0  0  0  0  0  0  0  0  0  0
   -0.7714    3.9075    8.8596 H   0  0  0  0  0  0  0  0  0  0  0  0
    6.9374    7.6820    6.4779 H   0  0  0  0  0  0  0  0  0  0  0  0
    6.9141    8.0686    8.1778 H   0  0  0  0  0  0  0  0  0  0  0  0
    5.8959    8.9866    7.0429 H   0  0  0  0  0  0  0  0  0  0  0  0
  1  2  1  0  0  0  0
  1 36  1  0  0  0  0
  1 37  1  0  0  0  0
  1 38  1  0  0  0  0
  2  3  1  0  0  0  0
  2 39  1  0  0  0  0
  2 40  1  0  0  0  0
  3  4  1  0  0  0  0
  4  5  2  0  0  0  0
  4  6  1  0  0  0  0
  6 11  1  0  0  0  0
  6  7  1  0  0  0  0
  7  8  1  0  0  0  0
  7 41  1  0  0  0  0
  7 42  1  0  0  0  0
  8  9  1  0  0  0  0
  8 43  1  0  0  0  0
  8 44  1  0  0  0  0
  9 10  1  0  0  0  0
  9 45  1  0  0  0  0
  9 46  1  0  0  0  0
 10 11  1  0  0  0  0
 10 12  1  0  0  0  0
 10 47  1  6  0  0  0
 11 48  1  0  0  0  0
 11 49  1  0  0  0  0
 12 13  1  0  0  0  0
 12 50  1  0  0  0  0
 13 14  2  0  0  0  0
 13 15  1  0  0  0  0
 15 34  2  0  0  0  0
 15 16  1  0  0  0  0
 16 17  2  0  0  0  0
 16 35  1  0  0  0  0
 17 18  1  0  0  0  0
 17 25  1  0  0  0  0
 18 23  2  0  0  0  0
 18 19  1  0  0  0  0
 19 20  2  0  0  0  0
 19 51  1  0  0  0  0
 20 21  1  0  0  0  0
 20 52  1  0  0  0  0
 21 22  2  0  0  0  0
 21 24  1  0  0  0  0
 22 23  1  0  0  0  0
 22 53  1  0  0  0  0
 23 54  1  0  0  0  0
 25 26  1  0  0  0  0
 25 34  1  0  0  0  0
 26 31  2  0  0  0  0
 26 27  1  0  0  0  0
 27 28  2  0  0  0  0
 27 55  1  0  0  0  0
 28 29  1  0  0  0  0
 28 56  1  0  0  0  0
 29 30  2  0  0  0  0
 29 33  1  0  0  0  0
 30 31  1  0  0  0  0
 30 57  1  0  0  0  0
 31 32  1  0  0  0  0
 35 58  1  0  0  0  0
 35 59  1  0  0  0  0
 35 60  1  0  0  0  0
M  END
$$$$
CHEMBL368441
 OpenBabel12022417383D

 52 55  0  0  0  0  0  0  0  0999 V2000
    2.1864    0.1089    0.0677 C   0  0  0  0  0  0  0  0  0  0  0  0
    0.7449   -0.0231    0.0290 N   0  0  0  0  0  0  0  0  0  0  0  0
   -0.0982    1.0763   -0.0141 C   0  0  0  0  0  0  0  0  0  0  0  0
    0.2888    2.4898    0.0460 C   0  0  0  0  0  0  0  0  0  0  0  0
    1.4590    2.8775    0.1137 O   0  0  0  0  0  0  0  0  0  0  0  0
   -0.7700    3.3744    0.0450 N   0  0  0  0  0  0  0  0  0  0  0  0
   -0.6210    4.8218    0.2014 C   0  0  0  0  0  0  0  0  0  0  0  0
   -0.3387    5.5228   -1.1383 C   0  0  0  0  0  0  0  0  0  0  0  0
   -0.2035    7.0417   -0.9540 C   0  0  0  0  0  0  0  0  0  0  0  0
   -1.4257    7.6467   -0.2686 C   0  0  0  0  0  0  0  0  0  0  0  0
   -1.7291    6.9416    1.0512 C   0  0  0  0  0  0  0  0  0  0  0  0
   -1.8621    5.4269    0.8679 C   0  0  0  0  0  0  0  0  0  0  0  0
   -1.3548    0.6781   -0.0971 N   0  0  0  0  0  0  0  0  0  0  0  0
   -1.3271   -0.7007   -0.1016 C   0  0  0  0  0  0  0  0  0  0  0  0
   -2.5680   -1.4676   -0.1880 C   0  0  0  0  0  0  0  0  0  0  0  0
   -3.7269   -0.9690    0.4293 C   0  0  0  0  0  0  0  0  0  0  0  0
   -4.9048   -1.7234    0.4547 C   0  0  0  0  0  0  0  0  0  0  0  0
   -4.9280   -2.9874   -0.1289 C   0  0  0  0  0  0  0  0  0  0  0  0
   -3.7979   -3.4855   -0.7704 C   0  0  0  0  0  0  0  0  0  0  0  0
   -2.6339   -2.7132   -0.8295 C   0  0  0  0  0  0  0  0  0  0  0  0
   -6.3582   -3.9405   -0.0583 Cl  0  0  0  0  0  0  0  0  0  0  0  0
   -0.0207   -1.1908    0.0296 C   0  0  0  0  0  0  0  0  0  0  0  0
    0.5126   -2.5796    0.1255 C   0  0  0  0  0  0  0  0  0  0  0  0
    1.5790   -2.9633   -0.7117 C   0  0  0  0  0  0  0  0  0  0  0  0
    2.1110   -4.2587   -0.6865 C   0  0  0  0  0  0  0  0  0  0  0  0
    1.5139   -5.2347    0.0990 C   0  0  0  0  0  0  0  0  0  0  0  0
    0.4338   -4.9091    0.9081 C   0  0  0  0  0  0  0  0  0  0  0  0
   -0.0212   -3.5814    0.9723 C   0  0  0  0  0  0  0  0  0  0  0  0
   -1.2148   -3.2645    2.1879 Cl  0  0  0  0  0  0  0  0  0  0  0  0
    2.1237   -6.8424    0.0806 Cl  0  0  0  0  0  0  0  0  0  0  0  0
    2.6773   -0.8548    0.1755 H   0  0  0  0  0  0  0  0  0  0  0  0
    2.4659    0.7213    0.9269 H   0  0  0  0  0  0  0  0  0  0  0  0
    2.5057    0.5759   -0.8698 H   0  0  0  0  0  0  0  0  0  0  0  0
   -1.6899    2.9604   -0.0786 H   0  0  0  0  0  0  0  0  0  0  0  0
    0.2406    4.9868    0.8602 H   0  0  0  0  0  0  0  0  0  0  0  0
   -1.1520    5.3199   -1.8462 H   0  0  0  0  0  0  0  0  0  0  0  0
    0.5777    5.1330   -1.5894 H   0  0  0  0  0  0  0  0  0  0  0  0
   -0.0559    7.5225   -1.9282 H   0  0  0  0  0  0  0  0  0  0  0  0
    0.6900    7.2570   -0.3552 H   0  0  0  0  0  0  0  0  0  0  0  0
   -2.2943    7.5687   -0.9333 H   0  0  0  0  0  0  0  0  0  0  0  0
   -1.2581    8.7160   -0.0866 H   0  0  0  0  0  0  0  0  0  0  0  0
   -2.6539    7.3474    1.4786 H   0  0  0  0  0  0  0  0  0  0  0  0
   -0.9279    7.1539    1.7678 H   0  0  0  0  0  0  0  0  0  0  0  0
   -2.0282    4.9604    1.8458 H   0  0  0  0  0  0  0  0  0  0  0  0
   -2.7552    5.2154    0.2661 H   0  0  0  0  0  0  0  0  0  0  0  0
   -3.7078    0.0016    0.9206 H   0  0  0  0  0  0  0  0  0  0  0  0
   -5.7882   -1.3270    0.9473 H   0  0  0  0  0  0  0  0  0  0  0  0
   -3.8071   -4.4773   -1.2138 H   0  0  0  0  0  0  0  0  0  0  0  0
   -1.7706   -3.1180   -1.3489 H   0  0  0  0  0  0  0  0  0  0  0  0
    2.0254   -2.2526   -1.4044 H   0  0  0  0  0  0  0  0  0  0  0  0
    2.9799   -4.4988   -1.2951 H   0  0  0  0  0  0  0  0  0  0  0  0
   -0.0437   -5.6823    1.5063 H   0  0  0  0  0  0  0  0  0  0  0  0
  1  2  1  0  0  0  0
  1 31  1  0  0  0  0
  1 32  1  0  0  0  0
  1 33  1  0  0  0  0
  2 22  1  0  0  0  0
  2  3  1  0  0  0  0
  3  4  1  0  0  0  0
  3 13  2  0  0  0  0
  4  5  2  0  0  0  0
  4  6  1  0  0  0  0
  6  7  1  0  0  0  0
  6 34  1  0  0  0  0
  7 12  1  0  0  0  0
  7  8  1  0  0  0  0
  7 35  1  0  0  0  0
  8  9  1  0  0  0  0
  8 36  1  0  0  0  0
  8 37  1  0  0  0  0
  9 10  1  0  0  0  0
  9 38  1  0  0  0  0
  9 39  1  0  0  0  0
 10 11  1  0  0  0  0
 10 40  1  0  0  0  0
 10 41  1  0  0  0  0
 11 12  1  0  0  0  0
 11 42  1  0  0  0  0
 11 43  1  0  0  0  0
 12 44  1  0  0  0  0
 12 45  1  0  0  0  0
 13 14  1  0  0  0  0
 14 15  1  0  0  0  0
 14 22  2  0  0  0  0
 15 20  2  0  0  0  0
 15 16  1  0  0  0  0
 16 17  2  0  0  0  0
 16 46  1  0  0  0  0
 17 18  1  0  0  0  0
 17 47  1  0  0  0  0
 18 19  2  0  0  0  0
 18 21  1  0  0  0  0
 19 20  1  0  0  0  0
 19 48  1  0  0  0  0
 20 49  1  0  0  0  0
 22 23  1  0  0  0  0
 23 28  2  0  0  0  0
 23 24  1  0  0  0  0
 24 25  2  0  0  0  0
 24 50  1  0  0  0  0
 25 26  1  0  0  0  0
 25 51  1  0  0  0  0
 26 27  2  0  0  0  0
 26 30  1  0  0  0  0
 27 28  1  0  0  0  0
 27 52  1  0  0  0  0
 28 29  1  0  0  0  0
M  END
$$$$
CHEMBL177990
 OpenBabel12022417383D

 51 54  0  0  0  0  0  0  0  0999 V2000
    2.6677    0.2688   -1.5390 O   0  0  0  0  0  0  0  0  0  0  0  0
    2.4219    0.5593   -0.3705 C   0  0  0  0  0  0  0  0  0  0  0  0
    3.0541    1.7286    0.2833 C   0  0  0  0  0  0  0  0  0  0  0  0
    3.9457    2.6217   -0.3050 C   0  0  0  0  0  0  0  0  0  0  0  0
    4.4425    2.6251   -1.7043 C   0  0  0  0  0  0  0  0  0  0  0  0
    5.7690    2.3358   -1.7419 F   0  0  0  0  0  0  0  0  0  0  0  0
    4.3965    3.4509    0.7259 N   0  0  0  0  0  0  0  0  0  0  0  0
    3.5681    3.1656    1.8358 C   0  0  0  0  0  0  0  0  0  0  0  0
    3.4675    3.9826    3.0751 C   0  0  0  0  0  0  0  0  0  0  0  0
    3.5055    5.3906    2.9903 C   0  0  0  0  0  0  0  0  0  0  0  0
    3.5549    6.1928    4.1344 C   0  0  0  0  0  0  0  0  0  0  0  0
    3.4836    5.6043    5.3885 C   0  0  0  0  0  0  0  0  0  0  0  0
    3.3570    4.2240    5.5083 C   0  0  0  0  0  0  0  0  0  0  0  0
    3.3560    3.4147    4.3607 C   0  0  0  0  0  0  0  0  0  0  0  0
    3.2603    1.7071    4.6294 Cl  0  0  0  0  0  0  0  0  0  0  0  0
    3.5649    6.5871    6.7984 Cl  0  0  0  0  0  0  0  0  0  0  0  0
    2.8131    2.1035    1.5879 N   0  0  0  0  0  0  0  0  0  0  0  0
    5.4689    4.4174    0.6892 C   0  0  0  0  0  0  0  0  0  0  0  0
    6.2594    4.6428    1.8315 C   0  0  0  0  0  0  0  0  0  0  0  0
    7.2157    5.6685    1.8568 C   0  0  0  0  0  0  0  0  0  0  0  0
    7.4318    6.4436    0.7234 C   0  0  0  0  0  0  0  0  0  0  0  0
    6.6969    6.2026   -0.4309 C   0  0  0  0  0  0  0  0  0  0  0  0
    5.7131    5.2041   -0.4446 C   0  0  0  0  0  0  0  0  0  0  0  0
    8.5876    7.7161    0.7535 Cl  0  0  0  0  0  0  0  0  0  0  0  0
    1.5535   -0.1705    0.4351 N   0  0  0  0  0  0  0  0  0  0  0  0
    0.8525   -1.3445   -0.0130 N   0  0  0  0  0  0  0  0  0  0  0  0
   -0.0562   -1.0558   -1.1373 C   0  0  0  0  0  0  0  0  0  0  0  0
   -0.8317   -2.2941   -1.6067 C   0  0  0  0  0  0  0  0  0  0  0  0
    0.1011   -3.4474   -1.9410 C   0  0  0  0  0  0  0  0  0  0  0  0
    1.0229   -3.7231   -0.7507 C   0  0  0  0  0  0  0  0  0  0  0  0
    1.7704   -2.4594   -0.3152 C   0  0  0  0  0  0  0  0  0  0  0  0
    4.2779    3.5876   -2.1906 H   0  0  0  0  0  0  0  0  0  0  0  0
    3.9338    1.9146   -2.3539 H   0  0  0  0  0  0  0  0  0  0  0  0
    3.5479    5.8885    2.0238 H   0  0  0  0  0  0  0  0  0  0  0  0
    3.6647    7.2702    4.0334 H   0  0  0  0  0  0  0  0  0  0  0  0
    3.2802    3.7730    6.4953 H   0  0  0  0  0  0  0  0  0  0  0  0
    6.1520    4.0381    2.7297 H   0  0  0  0  0  0  0  0  0  0  0  0
    7.7824    5.8592    2.7654 H   0  0  0  0  0  0  0  0  0  0  0  0
    6.8635    6.8036   -1.3221 H   0  0  0  0  0  0  0  0  0  0  0  0
    5.1226    5.1334   -1.3466 H   0  0  0  0  0  0  0  0  0  0  0  0
    1.4387    0.1331    1.3994 H   0  0  0  0  0  0  0  0  0  0  0  0
    0.4854   -0.6526   -2.0002 H   0  0  0  0  0  0  0  0  0  0  0  0
   -0.7824   -0.2947   -0.8286 H   0  0  0  0  0  0  0  0  0  0  0  0
   -1.4261   -2.0429   -2.4913 H   0  0  0  0  0  0  0  0  0  0  0  0
   -1.5362   -2.6090   -0.8265 H   0  0  0  0  0  0  0  0  0  0  0  0
    0.7072   -3.1963   -2.8212 H   0  0  0  0  0  0  0  0  0  0  0  0
   -0.4714   -4.3455   -2.1867 H   0  0  0  0  0  0  0  0  0  0  0  0
    1.7458   -4.5019   -1.0245 H   0  0  0  0  0  0  0  0  0  0  0  0
    0.4334   -4.1186    0.0833 H   0  0  0  0  0  0  0  0  0  0  0  0
    2.3560   -2.7014    0.5800 H   0  0  0  0  0  0  0  0  0  0  0  0
    2.4828   -2.1899   -1.1039 H   0  0  0  0  0  0  0  0  0  0  0  0
  1  2  2  0  0  0  0
  2  3  1  0  0  0  0
  2 25  1  0  0  0  0
  3 17  1  0  0  0  0
  3  4  2  0  0  0  0
  4  5  1  0  0  0  0
  4  7  1  0  0  0  0
  5  6  1  0  0  0  0
  5 32  1  0  0  0  0
  5 33  1  0  0  0  0
  7  8  1  0  0  0  0
  7 18  1  0  0  0  0
  8  9  1  0  0  0  0
  8 17  2  0  0  0  0
  9 14  2  0  0  0  0
  9 10  1  0  0  0  0
 10 11  2  0  0  0  0
 10 34  1  0  0  0  0
 11 12  1  0  0  0  0
 11 35  1  0  0  0  0
 12 13  2  0  0  0  0
 12 16  1  0  0  0  0
 13 14  1  0  0  0  0
 13 36  1  0  0  0  0
 14 15  1  0  0  0  0
 18 23  2  0  0  0  0
 18 19  1  0  0  0  0
 19 20  2  0  0  0  0
 19 37  1  0  0  0  0
 20 21  1  0  0  0  0
 20 38  1  0  0  0  0
 21 22  2  0  0  0  0
 21 24  1  0  0  0  0
 22 23  1  0  0  0  0
 22 39  1  0  0  0  0
 23 40  1  0  0  0  0
 25 26  1  0  0  0  0
 25 41  1  0  0  0  0
 26 31  1  0  0  0  0
 26 27  1  0  0  0  0
 27 28  1  0  0  0  0
 27 42  1  0  0  0  0
 27 43  1  0  0  0  0
 28 29  1  0  0  0  0
 28 44  1  0  0  0  0
 28 45  1  0  0  0  0
 29 30  1  0  0  0  0
 29 46  1  0  0  0  0
 29 47  1  0  0  0  0
 30 31  1  0  0  0  0
 30 48  1  0  0  0  0
 30 49  1  0  0  0  0
 31 50  1  0  0  0  0
 31 51  1  0  0  0  0
M  END
$$$$
CHEMBL572887
 OpenBabel12022417383D

 53 56  0  0  0  0  0  0  0  0999 V2000
    1.0869    0.3613    0.0025 C   0  0  0  0  0  0  0  0  0  0  0  0
    2.5552    0.1147   -0.0012 C   0  0  0  0  0  0  0  0  0  0  0  0
    3.5633    1.1363    0.0810 C   0  0  0  0  0  0  0  0  0  0  0  0
    3.3952    2.6281    0.1187 C   0  0  0  0  0  0  0  0  0  0  0  0
    2.3048    3.1827    0.0322 O   0  0  0  0  0  0  0  0  0  0  0  0
    4.5917    3.3057    0.2474 N   0  0  0  0  0  0  0  0  0  0  0  0
    4.8408    4.7553    0.2283 C   0  0  0  0  0  0  0  0  0  0  0  0
    4.6319    5.3794   -1.1633 C   0  0  0  0  0  0  0  0  0  0  0  0
    3.5176    6.4206   -1.3068 C   0  0  0  0  0  0  0  0  0  0  0  0
    3.9077    7.8126   -0.8070 C   0  0  0  0  0  0  0  0  0  0  0  0
    3.9039    7.9881    0.7069 C   0  0  0  0  0  0  0  0  0  0  0  0
    4.7216    6.9706    1.4980 C   0  0  0  0  0  0  0  0  0  0  0  0
    4.2102    5.5229    1.4003 C   0  0  0  0  0  0  0  0  0  0  0  0
    4.7911    0.5860    0.1474 N   0  0  0  0  0  0  0  0  0  0  0  0
    4.6089   -0.7605    0.0727 N   0  0  0  0  0  0  0  0  0  0  0  0
    5.7452   -1.5910   -0.1750 C   0  0  0  0  0  0  0  0  0  0  0  0
    5.6535   -2.6275   -1.1266 C   0  0  0  0  0  0  0  0  0  0  0  0
    6.7560   -3.4413   -1.4047 C   0  0  0  0  0  0  0  0  0  0  0  0
    7.9637   -3.2146   -0.7526 C   0  0  0  0  0  0  0  0  0  0  0  0
    8.0738   -2.1927    0.1868 C   0  0  0  0  0  0  0  0  0  0  0  0
    6.9702   -1.3797    0.4829 C   0  0  0  0  0  0  0  0  0  0  0  0
    7.1875   -0.2527    1.7794 Cl  0  0  0  0  0  0  0  0  0  0  0  0
    9.3242   -4.2075   -1.1012 Cl  0  0  0  0  0  0  0  0  0  0  0  0
    3.2600   -1.0856    0.0414 C   0  0  0  0  0  0  0  0  0  0  0  0
    2.7552   -2.3950    0.1264 N   0  0  0  0  0  0  0  0  0  0  0  0
    3.3175   -3.4610    0.8134 C   0  0  0  0  0  0  0  0  0  0  0  0
    2.5247   -4.5795    0.6728 C   0  0  0  0  0  0  0  0  0  0  0  0
    1.4304   -4.2105   -0.1285 C   0  0  0  0  0  0  0  0  0  0  0  0
    1.5917   -2.8771   -0.4506 C   0  0  0  0  0  0  0  0  0  0  0  0
    0.5032   -0.5448    0.1766 H   0  0  0  0  0  0  0  0  0  0  0  0
    0.7712    0.7907   -0.9529 H   0  0  0  0  0  0  0  0  0  0  0  0
    0.8170    1.0523    0.8067 H   0  0  0  0  0  0  0  0  0  0  0  0
    5.3974    2.6854    0.2618 H   0  0  0  0  0  0  0  0  0  0  0  0
    5.9255    4.7926    0.4058 H   0  0  0  0  0  0  0  0  0  0  0  0
    4.4624    4.5859   -1.9012 H   0  0  0  0  0  0  0  0  0  0  0  0
    5.5761    5.8545   -1.4649 H   0  0  0  0  0  0  0  0  0  0  0  0
    2.5876    6.0819   -0.8374 H   0  0  0  0  0  0  0  0  0  0  0  0
    3.3009    6.5181   -2.3777 H   0  0  0  0  0  0  0  0  0  0  0  0
    3.2031    8.5400   -1.2269 H   0  0  0  0  0  0  0  0  0  0  0  0
    4.8939    8.0904   -1.2047 H   0  0  0  0  0  0  0  0  0  0  0  0
    2.8651    7.9794    1.0683 H   0  0  0  0  0  0  0  0  0  0  0  0
    4.2865    8.9891    0.9318 H   0  0  0  0  0  0  0  0  0  0  0  0
    4.6832    7.2772    2.5515 H   0  0  0  0  0  0  0  0  0  0  0  0
    5.7756    7.0323    1.2029 H   0  0  0  0  0  0  0  0  0  0  0  0
    4.4840    5.0107    2.3313 H   0  0  0  0  0  0  0  0  0  0  0  0
    3.1152    5.5022    1.3601 H   0  0  0  0  0  0  0  0  0  0  0  0
    4.7377   -2.8104   -1.6859 H   0  0  0  0  0  0  0  0  0  0  0  0
    6.6673   -4.2442   -2.1344 H   0  0  0  0  0  0  0  0  0  0  0  0
    9.0169   -2.0400    0.7063 H   0  0  0  0  0  0  0  0  0  0  0  0
    4.2245   -3.3378    1.3882 H   0  0  0  0  0  0  0  0  0  0  0  0
    2.7146   -5.5514    1.1125 H   0  0  0  0  0  0  0  0  0  0  0  0
    0.6097   -4.8421   -0.4463 H   0  0  0  0  0  0  0  0  0  0  0  0
    0.9891   -2.2482   -1.0860 H   0  0  0  0  0  0  0  0  0  0  0  0
  1  2  1  0  0  0  0
  1 30  1  0  0  0  0
  1 31  1  0  0  0  0
  1 32  1  0  0  0  0
  2 24  2  0  0  0  0
  2  3  1  0  0  0  0
  3  4  1  0  0  0  0
  3 14  2  0  0  0  0
  4  5  2  0  0  0  0
  4  6  1  0  0  0  0
  6  7  1  0  0  0  0
  6 33  1  0  0  0  0
  7 13  1  0  0  0  0
  7  8  1  0  0  0  0
  7 34  1  0  0  0  0
  8  9  1  0  0  0  0
  8 35  1  0  0  0  0
  8 36  1  0  0  0  0
  9 10  1  0  0  0  0
  9 37  1  0  0  0  0
  9 38  1  0  0  0  0
 10 11  1  0  0  0  0
 10 39  1  0  0  0  0
 10 40  1  0  0  0  0
 11 12  1  0  0  0  0
 11 41  1  0  0  0  0
 11 42  1  0  0  0  0
 12 13  1  0  0  0  0
 12 43  1  0  0  0  0
 12 44  1  0  0  0  0
 13 45  1  0  0  0  0
 13 46  1  0  0  0  0
 14 15  1  0  0  0  0
 15 16  1  0  0  0  0
 15 24  1  0  0  0  0
 16 21  2  0  0  0  0
 16 17  1  0  0  0  0
 17 18  2  0  0  0  0
 17 47  1  0  0  0  0
 18 19  1  0  0  0  0
 18 48  1  0  0  0  0
 19 20  2  0  0  0  0
 19 23  1  0  0  0  0
 20 21  1  0  0  0  0
 20 49  1  0  0  0  0
 21 22  1  0  0  0  0
 24 25  1  0  0  0  0
 25 29  1  0  0  0  0
 25 26  1  0  0  0  0
 26 27  2  0  0  0  0
 26 50  1  0  0  0  0
 27 28  1  0  0  0  0
 27 51  1  0  0  0  0
 28 29  2  0  0  0  0
 28 52  1  0  0  0  0
 29 53  1  0  0  0  0
M  END
$$$$
CHEMBL3941829
 OpenBabel12022417383D

 63 68  0  0  0  0  0  0  0  0999 V2000
   -0.7291   -1.5072    1.2167 C   0  0  0  0  0  0  0  0  0  0  0  0
   -0.9380   -0.6335   -0.0123 C   0  0  0  0  0  0  0  0  0  0  0  0
   -1.6739   -0.3571    1.3039 C   0  0  0  0  0  0  0  0  0  0  0  0
    0.1511    0.4003   -0.3578 C   0  0  0  0  0  0  0  0  0  0  0  0
   -0.2005    1.6937   -0.7638 C   0  0  0  0  0  0  0  0  0  0  0  0
    0.7646    2.6947   -0.8285 C   0  0  0  0  0  0  0  0  0  0  0  0
    2.0757    2.3870   -0.5046 C   0  0  0  0  0  0  0  0  0  0  0  0
    2.3708    1.0770   -0.1748 C   0  0  0  0  0  0  0  0  0  0  0  0
    1.4513    0.0884   -0.1042 N   0  0  0  0  0  0  0  0  0  0  0  0
   -1.6944   -1.1575   -1.1291 N   0  0  0  0  0  0  0  0  0  0  0  0
   -2.8405   -0.5289   -1.5619 C   0  0  0  0  0  0  0  0  0  0  0  0
   -3.2401    0.5032   -1.0279 O   0  0  0  0  0  0  0  0  0  0  0  0
   -3.5861   -1.1491   -2.6743 C   0  0  0  0  0  0  0  0  0  0  0  0
   -4.8425   -0.6907   -3.1507 C   0  0  0  0  0  0  0  0  0  0  0  0
   -5.2011   -1.5644   -4.1640 C   0  0  0  0  0  0  0  0  0  0  0  0
   -6.4392   -1.5063   -4.9012 C   0  0  0  0  0  0  0  0  0  0  0  0
   -6.4139   -1.5108   -6.2532 C   0  0  0  0  0  0  0  0  0  0  0  0
   -7.5905   -1.3563   -7.0435 C   0  0  0  0  0  0  0  0  0  0  0  0
   -8.1272   -0.2006   -7.5873 C   0  0  0  0  0  0  0  0  0  0  0  0
   -9.3284   -0.4394   -8.3202 C   0  0  0  0  0  0  0  0  0  0  0  0
   -9.6432   -1.7722   -8.3248 C   0  0  0  0  0  0  0  0  0  0  0  0
  -10.9988   -2.4992   -9.0887 Cl  0  0  0  0  0  0  0  0  0  0  0  0
   -8.5340   -2.7322   -7.4839 S   0  0  0  0  0  0  0  0  0  0  0  0
   -7.7150   -1.2294   -4.1031 C   0  0  0  0  0  0  0  0  0  0  0  0
   -7.9064    0.2602   -3.7811 C   0  0  0  0  0  0  0  0  0  0  0  0
   -6.6279    1.0857   -3.6027 C   0  0  0  0  0  0  0  0  0  0  0  0
   -5.6211    0.4830   -2.6277 C   0  0  0  0  0  0  0  0  0  0  0  0
   -4.1569   -2.4925   -4.2812 N   0  0  0  0  0  0  0  0  0  0  0  0
   -4.0237   -3.6216   -5.1610 C   0  0  0  0  0  0  0  0  0  0  0  0
   -5.1756   -4.3005   -5.6042 C   0  0  0  0  0  0  0  0  0  0  0  0
   -5.1024   -5.3197   -6.5631 C   0  0  0  0  0  0  0  0  0  0  0  0
   -3.8694   -5.7166   -7.0825 C   0  0  0  0  0  0  0  0  0  0  0  0
   -2.7111   -5.0964   -6.5915 C   0  0  0  0  0  0  0  0  0  0  0  0
   -2.7743   -4.0657   -5.6341 C   0  0  0  0  0  0  0  0  0  0  0  0
   -1.2413   -3.3782   -5.2159 Cl  0  0  0  0  0  0  0  0  0  0  0  0
   -3.7640   -6.7748   -8.1547 C   0  0  0  0  0  0  0  0  0  0  0  0
   -4.9598   -7.3354   -8.4861 F   0  0  0  0  0  0  0  0  0  0  0  0
   -3.2475   -6.2837   -9.3152 F   0  0  0  0  0  0  0  0  0  0  0  0
   -2.9543   -7.8061   -7.7906 F   0  0  0  0  0  0  0  0  0  0  0  0
   -3.1834   -2.2379   -3.3477 N   0  0  0  0  0  0  0  0  0  0  0  0
   -1.1552   -2.5014    1.2341 H   0  0  0  0  0  0  0  0  0  0  0  0
    0.2081   -1.4210    1.7569 H   0  0  0  0  0  0  0  0  0  0  0  0
   -1.3776    0.5205    1.8699 H   0  0  0  0  0  0  0  0  0  0  0  0
   -2.7362   -0.5607    1.3571 H   0  0  0  0  0  0  0  0  0  0  0  0
   -1.2382    1.9382   -0.9677 H   0  0  0  0  0  0  0  0  0  0  0  0
    0.4809    3.7087   -1.0938 H   0  0  0  0  0  0  0  0  0  0  0  0
    2.8458    3.1491   -0.5001 H   0  0  0  0  0  0  0  0  0  0  0  0
    3.3848    0.7797    0.0756 H   0  0  0  0  0  0  0  0  0  0  0  0
   -1.3953   -2.0047   -1.6081 H   0  0  0  0  0  0  0  0  0  0  0  0
   -5.4787   -1.5978   -6.8010 H   0  0  0  0  0  0  0  0  0  0  0  0
   -7.6894    0.7799   -7.4401 H   0  0  0  0  0  0  0  0  0  0  0  0
   -9.9150    0.3245   -8.8136 H   0  0  0  0  0  0  0  0  0  0  0  0
   -7.6556   -1.7895   -3.1586 H   0  0  0  0  0  0  0  0  0  0  0  0
   -8.6150   -1.6161   -4.5922 H   0  0  0  0  0  0  0  0  0  0  0  0
   -8.5118    0.3423   -2.8692 H   0  0  0  0  0  0  0  0  0  0  0  0
   -8.4974    0.7278   -4.5776 H   0  0  0  0  0  0  0  0  0  0  0  0
   -6.9164    2.0768   -3.2307 H   0  0  0  0  0  0  0  0  0  0  0  0
   -6.1510    1.2594   -4.5762 H   0  0  0  0  0  0  0  0  0  0  0  0
   -4.9207    1.2908   -2.3900 H   0  0  0  0  0  0  0  0  0  0  0  0
   -6.1178    0.1956   -1.6931 H   0  0  0  0  0  0  0  0  0  0  0  0
   -6.1598   -4.0671   -5.2057 H   0  0  0  0  0  0  0  0  0  0  0  0
   -6.0228   -5.7945   -6.9049 H   0  0  0  0  0  0  0  0  0  0  0  0
   -1.7414   -5.4070   -6.9844 H   0  0  0  0  0  0  0  0  0  0  0  0
  1  3  1  0  0  0  0
  1  2  1  0  0  0  0
  1 41  1  0  0  0  0
  1 42  1  0  0  0  0
  2  3  1  0  0  0  0
  2  4  1  0  0  0  0
  2 10  1  0  0  0  0
  3 43  1  0  0  0  0
  3 44  1  0  0  0  0
  4  9  2  0  0  0  0
  4  5  1  0  0  0  0
  5  6  2  0  0  0  0
  5 45  1  0  0  0  0
  6  7  1  0  0  0  0
  6 46  1  0  0  0  0
  7  8  2  0  0  0  0
  7 47  1  0  0  0  0
  8  9  1  0  0  0  0
  8 48  1  0  0  0  0
 10 11  1  0  0  0  0
 10 49  1  0  0  0  0
 11 12  2  0  0  0  0
 11 13  1  0  0  0  0
 13 40  2  0  0  0  0
 13 14  1  0  0  0  0
 14 27  1  0  0  0  0
 14 15  2  0  0  0  0
 15 16  1  0  0  0  0
 15 28  1  0  0  0  0
 16 17  2  0  0  0  0
 16 24  1  0  0  0  0
 17 18  1  0  0  0  0
 17 50  1  0  0  0  0
 18 23  1  0  0  0  0
 18 19  2  0  0  0  0
 19 20  1  0  0  0  0
 19 51  1  0  0  0  0
 20 21  2  0  0  0  0
 20 52  1  0  0  0  0
 21 22  1  0  0  0  0
 21 23  1  0  0  0  0
 24 25  1  0  0  0  0
 24 53  1  0  0  0  0
 24 54  1  0  0  0  0
 25 26  1  0  0  0  0
 25 55  1  0  0  0  0
 25 56  1  0  0  0  0
 26 27  1  0  0  0  0
 26 57  1  0  0  0  0
 26 58  1  0  0  0  0
 27 59  1  0  0  0  0
 27 60  1  0  0  0  0
 28 29  1  0  0  0  0
 28 40  1  0  0  0  0
 29 34  2  0  0  0  0
 29 30  1  0  0  0  0
 30 31  2  0  0  0  0
 30 61  1  0  0  0  0
 31 32  1  0  0  0  0
 31 62  1  0  0  0  0
 32 33  2  0  0  0  0
 32 36  1  0  0  0  0
 33 34  1  0  0  0  0
 33 63  1  0  0  0  0
 34 35  1  0  0  0  0
 36 37  1  0  0  0  0
 36 38  1  0  0  0  0
 36 39  1  0  0  0  0
M  END
$$$$
CHEMBL1909848
 OpenBabel12022417383D

 60 64  0  0  0  0  0  0  0  0999 V2000
    1.2728    0.1683    0.2059 C   0  0  0  0  0  0  0  0  0  0  0  0
    2.7520    0.0552    0.2092 C   0  0  0  0  0  0  0  0  0  0  0  0
    3.6663    1.1645    0.0857 C   0  0  0  0  0  0  0  0  0  0  0  0
    3.3458    2.6214    0.0486 C   0  0  0  0  0  0  0  0  0  0  0  0
    2.1994    3.0551    0.0551 O   0  0  0  0  0  0  0  0  0  0  0  0
    4.4751    3.4308    0.0272 N   0  0  0  0  0  0  0  0  0  0  0  0
    4.5138    4.8905    0.0081 C   0  0  0  0  0  0  0  0  0  0  0  0
    3.8795    5.4875   -1.2540 C   0  0  0  0  0  0  0  0  0  0  0  0
    4.0314    7.0098   -1.2955 C   0  0  0  0  0  0  0  0  0  0  0  0
    3.4801    7.6733   -0.0372 C   0  0  0  0  0  0  0  0  0  0  0  0
    4.0947    7.0772    1.2264 C   0  0  0  0  0  0  0  0  0  0  0  0
    3.9463    5.5518    1.2737 C   0  0  0  0  0  0  0  0  0  0  0  0
    4.9488    0.7483    0.0472 N   0  0  0  0  0  0  0  0  0  0  0  0
    4.8621   -0.6029    0.1276 N   0  0  0  0  0  0  0  0  0  0  0  0
    5.9868   -1.3791   -0.2633 C   0  0  0  0  0  0  0  0  0  0  0  0
    5.8156   -2.4185   -1.1870 C   0  0  0  0  0  0  0  0  0  0  0  0
    6.9275   -3.1557   -1.6228 C   0  0  0  0  0  0  0  0  0  0  0  0
    8.1991   -2.8557   -1.1222 C   0  0  0  0  0  0  0  0  0  0  0  0
    8.3721   -1.8398   -0.1842 C   0  0  0  0  0  0  0  0  0  0  0  0
    7.2684   -1.0986    0.2478 C   0  0  0  0  0  0  0  0  0  0  0  0
    7.5444    0.0187    1.5401 Cl  0  0  0  0  0  0  0  0  0  0  0  0
    9.5751   -3.7580   -1.6461 Cl  0  0  0  0  0  0  0  0  0  0  0  0
    3.5875   -1.0202    0.4859 C   0  0  0  0  0  0  0  0  0  0  0  0
    3.3160   -2.2371    1.1369 N   0  0  0  0  0  0  0  0  0  0  0  0
    4.2562   -3.0803    1.7221 C   0  0  0  0  0  0  0  0  0  0  0  0
    3.5794   -3.9477    2.5432 C   0  0  0  0  0  0  0  0  0  0  0  0
    2.3777   -4.0874    1.8621 C   0  0  0  0  0  0  0  0  0  0  0  0
    2.0844   -2.7983    1.4728 C   0  0  0  0  0  0  0  0  0  0  0  0
    1.8396   -5.4238    1.5369 C   0  0  0  0  0  0  0  0  0  0  0  0
    2.5330   -6.5647    2.3182 C   0  0  0  0  0  0  0  0  0  0  0  0
    3.3391   -6.2081    3.5835 C   0  0  0  0  0  0  0  0  0  0  0  0
    4.0209   -4.8386    3.6265 C   0  0  0  0  0  0  0  0  0  0  0  0
    0.7788   -0.7908    0.0541 H   0  0  0  0  0  0  0  0  0  0  0  0
    0.9473    0.7944   -0.6323 H   0  0  0  0  0  0  0  0  0  0  0  0
    0.9185    0.6137    1.1391 H   0  0  0  0  0  0  0  0  0  0  0  0
    5.3412    2.9116    0.0301 H   0  0  0  0  0  0  0  0  0  0  0  0
    5.5892    5.1231   -0.0231 H   0  0  0  0  0  0  0  0  0  0  0  0
    2.8140    5.2344   -1.2978 H   0  0  0  0  0  0  0  0  0  0  0  0
    4.3431    5.0532   -2.1473 H   0  0  0  0  0  0  0  0  0  0  0  0
    3.5145    7.4085   -2.1762 H   0  0  0  0  0  0  0  0  0  0  0  0
    5.0916    7.2694   -1.4061 H   0  0  0  0  0  0  0  0  0  0  0  0
    2.3903    7.5542   -0.0062 H   0  0  0  0  0  0  0  0  0  0  0  0
    3.6794    8.7513   -0.0723 H   0  0  0  0  0  0  0  0  0  0  0  0
    3.6225    7.5257    2.1080 H   0  0  0  0  0  0  0  0  0  0  0  0
    5.1584    7.3443    1.2690 H   0  0  0  0  0  0  0  0  0  0  0  0
    4.4610    5.1694    2.1633 H   0  0  0  0  0  0  0  0  0  0  0  0
    2.8858    5.3006    1.3915 H   0  0  0  0  0  0  0  0  0  0  0  0
    4.8511   -2.6727   -1.6141 H   0  0  0  0  0  0  0  0  0  0  0  0
    6.8169   -3.9527   -2.3581 H   0  0  0  0  0  0  0  0  0  0  0  0
    9.3580   -1.6398    0.2322 H   0  0  0  0  0  0  0  0  0  0  0  0
    5.3183   -2.9522    1.6104 H   0  0  0  0  0  0  0  0  0  0  0  0
    1.1462   -2.3078    1.2775 H   0  0  0  0  0  0  0  0  0  0  0  0
    2.1401   -5.5732    0.4843 H   0  0  0  0  0  0  0  0  0  0  0  0
    0.7516   -5.5017    1.5402 H   0  0  0  0  0  0  0  0  0  0  0  0
    1.7766   -7.3121    2.5847 H   0  0  0  0  0  0  0  0  0  0  0  0
    3.2165   -7.0873    1.6333 H   0  0  0  0  0  0  0  0  0  0  0  0
    4.1113   -6.9719    3.7433 H   0  0  0  0  0  0  0  0  0  0  0  0
    2.6717   -6.2948    4.4507 H   0  0  0  0  0  0  0  0  0  0  0  0
    3.7343   -4.3586    4.5770 H   0  0  0  0  0  0  0  0  0  0  0  0
    5.1105   -4.9197    3.6536 H   0  0  0  0  0  0  0  0  0  0  0  0
  1  2  1  0  0  0  0
  1 33  1  0  0  0  0
  1 34  1  0  0  0  0
  1 35  1  0  0  0  0
  2 23  2  0  0  0  0
  2  3  1  0  0  0  0
  3  4  1  0  0  0  0
  3 13  2  0  0  0  0
  4  5  2  0  0  0  0
  4  6  1  0  0  0  0
  6  7  1  0  0  0  0
  6 36  1  0  0  0  0
  7 12  1  0  0  0  0
  7  8  1  0  0  0  0
  7 37  1  0  0  0  0
  8  9  1  0  0  0  0
  8 38  1  0  0  0  0
  8 39  1  0  0  0  0
  9 10  1  0  0  0  0
  9 40  1  0  0  0  0
  9 41  1  0  0  0  0
 10 11  1  0  0  0  0
 10 42  1  0  0  0  0
 10 43  1  0  0  0  0
 11 12  1  0  0  0  0
 11 44  1  0  0  0  0
 11 45  1  0  0  0  0
 12 46  1  0  0  0  0
 12 47  1  0  0  0  0
 13 14  1  0  0  0  0
 14 15  1  0  0  0  0
 14 23  1  0  0  0  0
 15 20  2  0  0  0  0
 15 16  1  0  0  0  0
 16 17  2  0  0  0  0
 16 48  1  0  0  0  0
 17 18  1  0  0  0  0
 17 49  1  0  0  0  0
 18 19  2  0  0  0  0
 18 22  1  0  0  0  0
 19 20  1  0  0  0  0
 19 50  1  0  0  0  0
 20 21  1  0  0  0  0
 23 24  1  0  0  0  0
 24 28  1  0  0  0  0
 24 25  1  0  0  0  0
 25 26  2  0  0  0  0
 25 51  1  0  0  0  0
 26 32  1  0  0  0  0
 26 27  1  0  0  0  0
 27 28  2  0  0  0  0
 27 29  1  0  0  0  0
 28 52  1  0  0  0  0
 29 30  1  0  0  0  0
 29 53  1  0  0  0  0
 29 54  1  0  0  0  0
 30 31  1  0  0  0  0
 30 55  1  0  0  0  0
 30 56  1  0  0  0  0
 31 32  1  0  0  0  0
 31 57  1  0  0  0  0
 31 58  1  0  0  0  0
 32 59  1  0  0  0  0
 32 60  1  0  0  0  0
M  END
$$$$
CHEMBL1909860
 OpenBabel12022417383D

 53 56  0  0  0  0  0  0  0  0999 V2000
    2.8905    1.5623    0.4705 C   0  0  0  0  0  0  0  0  0  0  0  0
    2.6943    0.0900    0.1851 C   0  0  0  0  0  0  0  0  0  0  0  0
    3.0278   -0.9320    1.2430 C   0  0  0  0  0  0  0  0  0  0  0  0
    3.5333   -0.7571    2.5862 C   0  0  0  0  0  0  0  0  0  0  0  0
    4.1212    0.4473    3.2310 C   0  0  0  0  0  0  0  0  0  0  0  0
    4.7125    1.3197    2.6012 O   0  0  0  0  0  0  0  0  0  0  0  0
    3.9906    0.5139    4.6055 N   0  0  0  0  0  0  0  0  0  0  0  0
    4.4175    1.6751    5.3906 C   0  0  0  0  0  0  0  0  0  0  0  0
    3.3153    2.7480    5.4447 C   0  0  0  0  0  0  0  0  0  0  0  0
    3.6824    3.9267    6.3510 C   0  0  0  0  0  0  0  0  0  0  0  0
    4.0911    3.4695    7.7463 C   0  0  0  0  0  0  0  0  0  0  0  0
    5.2159    2.4434    7.6822 C   0  0  0  0  0  0  0  0  0  0  0  0
    4.8403    1.2493    6.8024 C   0  0  0  0  0  0  0  0  0  0  0  0
    3.3807   -1.8951    3.2967 N   0  0  0  0  0  0  0  0  0  0  0  0
    3.1166   -2.8584    2.3737 N   0  0  0  0  0  0  0  0  0  0  0  0
    3.3211   -4.2262    2.7357 C   0  0  0  0  0  0  0  0  0  0  0  0
    3.7515   -5.1757    1.7967 C   0  0  0  0  0  0  0  0  0  0  0  0
    3.8911   -6.5182    2.1654 C   0  0  0  0  0  0  0  0  0  0  0  0
    3.6251   -6.9201    3.4765 C   0  0  0  0  0  0  0  0  0  0  0  0
    3.2284   -5.9707    4.4256 C   0  0  0  0  0  0  0  0  0  0  0  0
    3.0924   -4.6249    4.0607 C   0  0  0  0  0  0  0  0  0  0  0  0
    2.8638   -6.4001    6.0596 Cl  0  0  0  0  0  0  0  0  0  0  0  0
    3.8100   -8.5956    3.8562 Cl  0  0  0  0  0  0  0  0  0  0  0  0
    2.7479   -2.3020    1.1614 C   0  0  0  0  0  0  0  0  0  0  0  0
    2.1396   -3.0081    0.1042 N   0  0  0  0  0  0  0  0  0  0  0  0
    2.1944   -2.7094   -1.2461 C   0  0  0  0  0  0  0  0  0  0  0  0
    1.4779   -3.6385   -1.9677 C   0  0  0  0  0  0  0  0  0  0  0  0
    0.9519   -4.5582   -1.0454 C   0  0  0  0  0  0  0  0  0  0  0  0
    1.3411   -4.1384    0.2074 C   0  0  0  0  0  0  0  0  0  0  0  0
    2.4384    2.1573   -0.3306 H   0  0  0  0  0  0  0  0  0  0  0  0
    3.9539    1.8155    0.4723 H   0  0  0  0  0  0  0  0  0  0  0  0
    2.4300    1.8699    1.4132 H   0  0  0  0  0  0  0  0  0  0  0  0
    3.2719   -0.1298   -0.7166 H   0  0  0  0  0  0  0  0  0  0  0  0
    1.6317   -0.0434   -0.0624 H   0  0  0  0  0  0  0  0  0  0  0  0
    3.4831   -0.2504    5.0393 H   0  0  0  0  0  0  0  0  0  0  0  0
    5.2910    2.1149    4.8901 H   0  0  0  0  0  0  0  0  0  0  0  0
    2.3813    2.2990    5.8059 H   0  0  0  0  0  0  0  0  0  0  0  0
    3.1078    3.1250    4.4359 H   0  0  0  0  0  0  0  0  0  0  0  0
    2.8308    4.6133    6.4274 H   0  0  0  0  0  0  0  0  0  0  0  0
    4.5064    4.4943    5.9008 H   0  0  0  0  0  0  0  0  0  0  0  0
    3.2247    3.0334    8.2592 H   0  0  0  0  0  0  0  0  0  0  0  0
    4.4105    4.3338    8.3425 H   0  0  0  0  0  0  0  0  0  0  0  0
    5.4544    2.0965    8.6942 H   0  0  0  0  0  0  0  0  0  0  0  0
    6.1218    2.9214    7.2882 H   0  0  0  0  0  0  0  0  0  0  0  0
    5.6926    0.5635    6.7432 H   0  0  0  0  0  0  0  0  0  0  0  0
    4.0241    0.6936    7.2829 H   0  0  0  0  0  0  0  0  0  0  0  0
    3.9989   -4.8996    0.7732 H   0  0  0  0  0  0  0  0  0  0  0  0
    4.2069   -7.2475    1.4215 H   0  0  0  0  0  0  0  0  0  0  0  0
    2.7645   -3.9003    4.8038 H   0  0  0  0  0  0  0  0  0  0  0  0
    2.7825   -1.8868   -1.6166 H   0  0  0  0  0  0  0  0  0  0  0  0
    1.3629   -3.6505   -3.0445 H   0  0  0  0  0  0  0  0  0  0  0  0
    0.3397   -5.4243   -1.2635 H   0  0  0  0  0  0  0  0  0  0  0  0
    1.0901   -4.5591    1.1710 H   0  0  0  0  0  0  0  0  0  0  0  0
  1  2  1  0  0  0  0
  1 30  1  0  0  0  0
  1 31  1  0  0  0  0
  1 32  1  0  0  0  0
  2  3  1  0  0  0  0
  2 33  1  0  0  0  0
  2 34  1  0  0  0  0
  3 24  2  0  0  0  0
  3  4  1  0  0  0  0
  4  5  1  0  0  0  0
  4 14  2  0  0  0  0
  5  6  2  0  0  0  0
  5  7  1  0  0  0  0
  7  8  1  0  0  0  0
  7 35  1  0  0  0  0
  8 13  1  0  0  0  0
  8  9  1  0  0  0  0
  8 36  1  0  0  0  0
  9 10  1  0  0  0  0
  9 37  1  0  0  0  0
  9 38  1  0  0  0  0
 10 11  1  0  0  0  0
 10 39  1  0  0  0  0
 10 40  1  0  0  0  0
 11 12  1  0  0  0  0
 11 41  1  0  0  0  0
 11 42  1  0  0  0  0
 12 13  1  0  0  0  0
 12 43  1  0  0  0  0
 12 44  1  0  0  0  0
 13 45  1  0  0  0  0
 13 46  1  0  0  0  0
 14 15  1  0  0  0  0
 15 16  1  0  0  0  0
 15 24  1  0  0  0  0
 16 21  2  0  0  0  0
 16 17  1  0  0  0  0
 17 18  2  0  0  0  0
 17 47  1  0  0  0  0
 18 19  1  0  0  0  0
 18 48  1  0  0  0  0
 19 20  2  0  0  0  0
 19 23  1  0  0  0  0
 20 21  1  0  0  0  0
 20 22  1  0  0  0  0
 21 49  1  0  0  0  0
 24 25  1  0  0  0  0
 25 29  1  0  0  0  0
 25 26  1  0  0  0  0
 26 27  2  0  0  0  0
 26 50  1  0  0  0  0
 27 28  1  0  0  0  0
 27 51  1  0  0  0  0
 28 29  2  0  0  0  0
 28 52  1  0  0  0  0
 29 53  1  0  0  0  0
M  END
$$$$
CHEMBL15764
 OpenBabel12022417383D

 51 53  0  0  1  0  0  0  0  0999 V2000
    1.2081    0.3758    0.1171 C   0  0  0  0  0  0  0  0  0  0  0  0
    2.6787    0.1355    0.0656 C   0  0  0  0  0  0  0  0  0  0  0  0
    3.6826    1.1656    0.0964 C   0  0  0  0  0  0  0  0  0  0  0  0
    3.4775    2.6364    0.1409 C   0  0  0  0  0  0  0  0  0  0  0  0
    2.3692    3.1554    0.1284 O   0  0  0  0  0  0  0  0  0  0  0  0
    4.6573    3.3899    0.1924 N   0  0  0  0  0  0  0  0  0  0  0  0
    4.6701    4.8553    0.2978 C   0  0  1  0  0  0  0  0  0  0  0  0
    4.5781    5.2736    1.7709 C   0  0  0  0  0  0  0  0  0  0  0  0
    5.9203    5.4743   -0.3944 C   0  0  0  0  0  0  0  0  0  0  0  0
    5.9714    5.1129   -1.8832 C   0  0  0  0  0  0  0  0  0  0  0  0
    5.9829    7.0064   -0.2744 C   0  0  0  0  0  0  0  0  0  0  0  0
    4.9125    0.6191    0.0866 N   0  0  0  0  0  0  0  0  0  0  0  0
    4.7245   -0.7183    0.0034 N   0  0  0  0  0  0  0  0  0  0  0  0
    5.8692   -1.5420   -0.2116 C   0  0  0  0  0  0  0  0  0  0  0  0
    5.8115   -2.5631   -1.1748 C   0  0  0  0  0  0  0  0  0  0  0  0
    6.9300   -3.3680   -1.4140 C   0  0  0  0  0  0  0  0  0  0  0  0
    8.1082   -3.1410   -0.7096 C   0  0  0  0  0  0  0  0  0  0  0  0
    8.1704   -2.1457    0.2629 C   0  0  0  0  0  0  0  0  0  0  0  0
    7.0489   -1.3457    0.5216 C   0  0  0  0  0  0  0  0  0  0  0  0
    7.1800   -0.2751    1.8783 Cl  0  0  0  0  0  0  0  0  0  0  0  0
    9.4962   -4.1033   -1.0350 Cl  0  0  0  0  0  0  0  0  0  0  0  0
    3.3720   -1.0826    0.0223 C   0  0  0  0  0  0  0  0  0  0  0  0
    2.8607   -2.4790    0.1089 C   0  0  0  0  0  0  0  0  0  0  0  0
    3.5633   -3.4764    0.8132 C   0  0  0  0  0  0  0  0  0  0  0  0
    3.1072   -4.8005    0.8664 C   0  0  0  0  0  0  0  0  0  0  0  0
    1.8896   -5.1340    0.2893 C   0  0  0  0  0  0  0  0  0  0  0  0
    1.1504   -4.1644   -0.3774 C   0  0  0  0  0  0  0  0  0  0  0  0
    1.6526   -2.8585   -0.4958 C   0  0  0  0  0  0  0  0  0  0  0  0
    1.2988   -6.7444    0.4049 Cl  0  0  0  0  0  0  0  0  0  0  0  0
    0.6329   -0.5375    0.2812 H   0  0  0  0  0  0  0  0  0  0  0  0
    0.8656    0.8233   -0.8220 H   0  0  0  0  0  0  0  0  0  0  0  0
    0.9512    1.0452    0.9429 H   0  0  0  0  0  0  0  0  0  0  0  0
    5.5137    2.8513    0.2971 H   0  0  0  0  0  0  0  0  0  0  0  0
    3.7687    5.2312   -0.2065 H   0  0  0  0  0  0  0  0  0  0  0  0
    5.4851    4.9932    2.3178 H   0  0  0  0  0  0  0  0  0  0  0  0
    3.7270    4.7990    2.2697 H   0  0  0  0  0  0  0  0  0  0  0  0
    4.4432    6.3559    1.8719 H   0  0  0  0  0  0  0  0  0  0  0  0
    6.8222    5.0657    0.0807 H   0  0  0  0  0  0  0  0  0  0  0  0
    5.0993    5.5083   -2.4148 H   0  0  0  0  0  0  0  0  0  0  0  0
    6.0055    4.0302   -2.0320 H   0  0  0  0  0  0  0  0  0  0  0  0
    6.8680    5.5357   -2.3503 H   0  0  0  0  0  0  0  0  0  0  0  0
    5.0817    7.4761   -0.6847 H   0  0  0  0  0  0  0  0  0  0  0  0
    6.8444    7.4041   -0.8240 H   0  0  0  0  0  0  0  0  0  0  0  0
    6.0985    7.3323    0.7634 H   0  0  0  0  0  0  0  0  0  0  0  0
    4.9148   -2.7414   -1.7650 H   0  0  0  0  0  0  0  0  0  0  0  0
    6.8759   -4.1613   -2.1568 H   0  0  0  0  0  0  0  0  0  0  0  0
    9.0854   -2.0044    0.8334 H   0  0  0  0  0  0  0  0  0  0  0  0
    4.4931   -3.2533    1.3293 H   0  0  0  0  0  0  0  0  0  0  0  0
    3.7054   -5.5556    1.3701 H   0  0  0  0  0  0  0  0  0  0  0  0
    0.1854   -4.4141   -0.8124 H   0  0  0  0  0  0  0  0  0  0  0  0
    1.0660   -2.1474   -1.0726 H   0  0  0  0  0  0  0  0  0  0  0  0
  1  2  1  0  0  0  0
  1 30  1  0  0  0  0
  1 31  1  0  0  0  0
  1 32  1  0  0  0  0
  2 22  2  0  0  0  0
  2  3  1  0  0  0  0
  3  4  1  0  0  0  0
  3 12  2  0  0  0  0
  4  5  2  0  0  0  0
  4  6  1  0  0  0  0
  6  7  1  0  0  0  0
  6 33  1  0  0  0  0
  7  8  1  0  0  0  0
  7  9  1  0  0  0  0
  7 34  1  6  0  0  0
  8 35  1  0  0  0  0
  8 36  1  0  0  0  0
  8 37  1  0  0  0  0
  9 10  1  0  0  0  0
  9 11  1  0  0  0  0
  9 38  1  0  0  0  0
 10 39  1  0  0  0  0
 10 40  1  0  0  0  0
 10 41  1  0  0  0  0
 11 42  1  0  0  0  0
 11 43  1  0  0  0  0
 11 44  1  0  0  0  0
 12 13  1  0  0  0  0
 13 14  1  0  0  0  0
 13 22  1  0  0  0  0
 14 19  2  0  0  0  0
 14 15  1  0  0  0  0
 15 16  2  0  0  0  0
 15 45  1  0  0  0  0
 16 17  1  0  0  0  0
 16 46  1  0  0  0  0
 17 18  2  0  0  0  0
 17 21  1  0  0  0  0
 18 19  1  0  0  0  0
 18 47  1  0  0  0  0
 19 20  1  0  0  0  0
 22 23  1  0  0  0  0
 23 28  2  0  0  0  0
 23 24  1  0  0  0  0
 24 25  2  0  0  0  0
 24 48  1  0  0  0  0
 25 26  1  0  0  0  0
 25 49  1  0  0  0  0
 26 27  2  0  0  0  0
 26 29  1  0  0  0  0
 27 28  1  0  0  0  0
 27 50  1  0  0  0  0
 28 51  1  0  0  0  0
M  END
$$$$
CHEMBL558598	5TGZ	best_smi
 OpenBabel12022417383D

 51 54  0  0  0  0  0  0  0  0999 V2000
    1.0460    0.3937   -0.0482 C   0  0  0  0  0  0  0  0  0  0  0  0
    2.5149    0.1430    0.0099 C   0  0  0  0  0  0  0  0  0  0  0  0
    3.5146    1.1687    0.0002 C   0  0  0  0  0  0  0  0  0  0  0  0
    3.3280    2.6445   -0.0418 C   0  0  0  0  0  0  0  0  0  0  0  0
    2.2162    3.1674   -0.0862 O   0  0  0  0  0  0  0  0  0  0  0  0
    4.5354    3.3439   -0.0140 N   0  0  0  0  0  0  0  0  0  0  0  0
    4.6809    4.7585    0.0050 N   0  0  0  0  0  0  0  0  0  0  0  0
    4.3448    5.3895   -1.2778 C   0  0  0  0  0  0  0  0  0  0  0  0
    4.7219    6.8765   -1.2705 C   0  0  0  0  0  0  0  0  0  0  0  0
    4.0761    7.6144   -0.1017 C   0  0  0  0  0  0  0  0  0  0  0  0
    4.3695    6.8947    1.2123 C   0  0  0  0  0  0  0  0  0  0  0  0
    3.9999    5.4060    1.1345 C   0  0  0  0  0  0  0  0  0  0  0  0
    4.7397    0.6253    0.0354 N   0  0  0  0  0  0  0  0  0  0  0  0
    4.5672   -0.7198    0.0535 N   0  0  0  0  0  0  0  0  0  0  0  0
    5.7278   -1.5548    0.1528 C   0  0  0  0  0  0  0  0  0  0  0  0
    5.6723   -2.7314    0.9237 C   0  0  0  0  0  0  0  0  0  0  0  0
    6.7587   -3.6102    0.9722 C   0  0  0  0  0  0  0  0  0  0  0  0
    7.9308   -3.2971    0.2952 C   0  0  0  0  0  0  0  0  0  0  0  0
    9.2649   -4.3809    0.3479 Cl  0  0  0  0  0  0  0  0  0  0  0  0
    8.0265   -2.1143   -0.4306 C   0  0  0  0  0  0  0  0  0  0  0  0
    6.9316   -1.2401   -0.5107 C   0  0  0  0  0  0  0  0  0  0  0  0
    7.1526    0.1152   -1.5683 Cl  0  0  0  0  0  0  0  0  0  0  0  0
    3.2050   -1.0761    0.0441 C   0  0  0  0  0  0  0  0  0  0  0  0
    2.6616   -2.4596   -0.0073 C   0  0  0  0  0  0  0  0  0  0  0  0
    1.5345   -2.8130    0.7543 C   0  0  0  0  0  0  0  0  0  0  0  0
    1.0311   -4.1210    0.7509 C   0  0  0  0  0  0  0  0  0  0  0  0
    1.6825   -5.1120    0.0262 C   0  0  0  0  0  0  0  0  0  0  0  0
    1.1136   -6.7338    0.0826 Cl  0  0  0  0  0  0  0  0  0  0  0  0
    2.7985   -4.7925   -0.7385 C   0  0  0  0  0  0  0  0  0  0  0  0
    3.2532   -3.4671   -0.7913 C   0  0  0  0  0  0  0  0  0  0  0  0
    0.4614   -0.5203   -0.1705 H   0  0  0  0  0  0  0  0  0  0  0  0
    0.7988    1.0373   -0.8986 H   0  0  0  0  0  0  0  0  0  0  0  0
    0.7128    0.8867    0.8715 H   0  0  0  0  0  0  0  0  0  0  0  0
    5.3783    2.7705    0.0202 H   0  0  0  0  0  0  0  0  0  0  0  0
    3.2766    5.2830   -1.5032 H   0  0  0  0  0  0  0  0  0  0  0  0
    4.9008    4.9028   -2.0881 H   0  0  0  0  0  0  0  0  0  0  0  0
    4.4163    7.3437   -2.2139 H   0  0  0  0  0  0  0  0  0  0  0  0
    5.8125    6.9800   -1.2044 H   0  0  0  0  0  0  0  0  0  0  0  0
    2.9940    7.6716   -0.2568 H   0  0  0  0  0  0  0  0  0  0  0  0
    4.4495    8.6460   -0.0571 H   0  0  0  0  0  0  0  0  0  0  0  0
    3.8112    7.3749    2.0239 H   0  0  0  0  0  0  0  0  0  0  0  0
    5.4347    7.0001    1.4522 H   0  0  0  0  0  0  0  0  0  0  0  0
    4.3015    4.9333    2.0739 H   0  0  0  0  0  0  0  0  0  0  0  0
    2.9117    5.3184    1.0516 H   0  0  0  0  0  0  0  0  0  0  0  0
    4.7903   -2.9895    1.5062 H   0  0  0  0  0  0  0  0  0  0  0  0
    6.6802   -4.5353    1.5392 H   0  0  0  0  0  0  0  0  0  0  0  0
    8.9485   -1.8825   -0.9597 H   0  0  0  0  0  0  0  0  0  0  0  0
    1.0294   -2.0754    1.3729 H   0  0  0  0  0  0  0  0  0  0  0  0
    0.1414   -4.3580    1.3289 H   0  0  0  0  0  0  0  0  0  0  0  0
    3.3239   -5.5665   -1.2927 H   0  0  0  0  0  0  0  0  0  0  0  0
    4.1092   -3.2520   -1.4275 H   0  0  0  0  0  0  0  0  0  0  0  0
  1  2  1  0  0  0  0
  1 31  1  0  0  0  0
  1 32  1  0  0  0  0
  1 33  1  0  0  0  0
  2 23  2  0  0  0  0
  2  3  1  0  0  0  0
  3  4  1  0  0  0  0
  3 13  2  0  0  0  0
  4  5  2  0  0  0  0
  4  6  1  0  0  0  0
  6  7  1  0  0  0  0
  6 34  1  0  0  0  0
  7 12  1  0  0  0  0
  7  8  1  0  0  0  0
  8  9  1  0  0  0  0
  8 35  1  0  0  0  0
  8 36  1  0  0  0  0
  9 10  1  0  0  0  0
  9 37  1  0  0  0  0
  9 38  1  0  0  0  0
 10 11  1  0  0  0  0
 10 39  1  0  0  0  0
 10 40  1  0  0  0  0
 11 12  1  0  0  0  0
 11 41  1  0  0  0  0
 11 42  1  0  0  0  0
 12 43  1  0  0  0  0
 12 44  1  0  0  0  0
 13 14  1  0  0  0  0
 14 15  1  0  0  0  0
 14 23  1  0  0  0  0
 15 21  2  0  0  0  0
 15 16  1  0  0  0  0
 16 17  2  0  0  0  0
 16 45  1  0  0  0  0
 17 18  1  0  0  0  0
 17 46  1  0  0  0  0
 18 19  1  0  0  0  0
 18 20  2  0  0  0  0
 20 21  1  0  0  0  0
 20 47  1  0  0  0  0
 21 22  1  0  0  0  0
 23 24  1  0  0  0  0
 24 30  2  0  0  0  0
 24 25  1  0  0  0  0
 25 26  2  0  0  0  0
 25 48  1  0  0  0  0
 26 27  1  0  0  0  0
 26 49  1  0  0  0  0
 27 28  1  0  0  0  0
 27 29  2  0  0  0  0
 29 30  1  0  0  0  0
 29 50  1  0  0  0  0
 30 51  1  0  0  0  0
M  END
$$$$
CHEMBL462070	5TGZ	best_smi
 OpenBabel12022417383D

 59 62  0  0  0  0  0  0  0  0999 V2000
    5.4865    2.0787   -7.6970 C   0  0  0  0  0  0  0  0  0  0  0  0
    6.0218    2.2263   -6.2837 C   0  0  0  0  0  0  0  0  0  0  0  0
    6.6028    0.9101   -5.7819 C   0  0  0  0  0  0  0  0  0  0  0  0
    7.1335    1.0758   -4.3673 C   0  0  0  0  0  0  0  0  0  0  0  0
    7.5888    1.2180   -3.1538 C   0  0  0  0  0  0  0  0  0  0  0  0
    8.1505    1.3334   -1.8468 C   0  0  0  0  0  0  0  0  0  0  0  0
    7.4968    1.2256   -0.6415 C   0  0  0  0  0  0  0  0  0  0  0  0
    8.3797    1.4495    0.4671 C   0  0  0  0  0  0  0  0  0  0  0  0
    9.6803    1.7197    0.0689 C   0  0  0  0  0  0  0  0  0  0  0  0
   10.8430    2.0444    0.8826 C   0  0  0  0  0  0  0  0  0  0  0  0
   11.8755    2.9513    0.6410 C   0  0  0  0  0  0  0  0  0  0  0  0
   12.0792    3.8245   -0.5555 C   0  0  0  0  0  0  0  0  0  0  0  0
   12.6868    2.9399    1.8342 C   0  0  0  0  0  0  0  0  0  0  0  0
   13.9463    3.7144    2.0782 C   0  0  0  0  0  0  0  0  0  0  0  0
   14.3926    4.4485    1.2265 O   0  0  0  0  0  0  0  0  0  0  0  0
   14.5560    3.5074    3.3380 N   0  0  0  0  0  0  0  0  0  0  0  0
   15.8077    4.1375    3.7571 N   0  0  0  0  0  0  0  0  0  0  0  0
   16.9616    3.6758    2.9625 C   0  0  0  0  0  0  0  0  0  0  0  0
   18.2918    4.3231    3.3870 C   0  0  0  0  0  0  0  0  0  0  0  0
   18.2071    5.8435    3.3803 C   0  0  0  0  0  0  0  0  0  0  0  0
   17.0296    6.2952    4.2339 C   0  0  0  0  0  0  0  0  0  0  0  0
   15.7302    5.6109    3.7820 C   0  0  0  0  0  0  0  0  0  0  0  0
   12.1626    2.1188    2.7502 N   0  0  0  0  0  0  0  0  0  0  0  0
   11.0580    1.5740    2.1746 N   0  0  0  0  0  0  0  0  0  0  0  0
   10.3288    0.5726    2.8705 C   0  0  0  0  0  0  0  0  0  0  0  0
    9.7791   -0.5015    2.1430 C   0  0  0  0  0  0  0  0  0  0  0  0
    9.0809   -1.5139    2.7972 C   0  0  0  0  0  0  0  0  0  0  0  0
    8.9483   -1.4661    4.1781 C   0  0  0  0  0  0  0  0  0  0  0  0
    8.1312   -2.7433    4.9929 Cl  0  0  0  0  0  0  0  0  0  0  0  0
    9.4675   -0.4013    4.9096 C   0  0  0  0  0  0  0  0  0  0  0  0
   10.1641    0.6235    4.2607 C   0  0  0  0  0  0  0  0  0  0  0  0
   10.6562    1.9609    5.2425 Cl  0  0  0  0  0  0  0  0  0  0  0  0
    9.8148    1.5909   -1.6355 S   0  0  0  0  0  0  0  0  0  0  0  0
    5.0717    3.0280   -8.0483 H   0  0  0  0  0  0  0  0  0  0  0  0
    4.6948    1.3237   -7.7362 H   0  0  0  0  0  0  0  0  0  0  0  0
    6.2827    1.7773   -8.3851 H   0  0  0  0  0  0  0  0  0  0  0  0
    5.2143    2.5591   -5.6199 H   0  0  0  0  0  0  0  0  0  0  0  0
    6.7900    3.0092   -6.2637 H   0  0  0  0  0  0  0  0  0  0  0  0
    7.4224    0.5790   -6.4296 H   0  0  0  0  0  0  0  0  0  0  0  0
    5.8370    0.1262   -5.7818 H   0  0  0  0  0  0  0  0  0  0  0  0
    6.4369    1.0228   -0.5438 H   0  0  0  0  0  0  0  0  0  0  0  0
    8.0487    1.4034    1.5024 H   0  0  0  0  0  0  0  0  0  0  0  0
   11.3077    3.6910   -1.3143 H   0  0  0  0  0  0  0  0  0  0  0  0
   13.0402    3.6249   -1.0375 H   0  0  0  0  0  0  0  0  0  0  0  0
   12.0404    4.8819   -0.2754 H   0  0  0  0  0  0  0  0  0  0  0  0
   14.0875    2.8865    3.9902 H   0  0  0  0  0  0  0  0  0  0  0  0
   16.7956    3.8864    1.9007 H   0  0  0  0  0  0  0  0  0  0  0  0
   17.0682    2.5899    3.0687 H   0  0  0  0  0  0  0  0  0  0  0  0
   19.0909    4.0038    2.7070 H   0  0  0  0  0  0  0  0  0  0  0  0
   18.5766    3.9825    4.3906 H   0  0  0  0  0  0  0  0  0  0  0  0
   18.0782    6.2009    2.3507 H   0  0  0  0  0  0  0  0  0  0  0  0
   19.1397    6.2841    3.7530 H   0  0  0  0  0  0  0  0  0  0  0  0
   16.9163    7.3826    4.1389 H   0  0  0  0  0  0  0  0  0  0  0  0
   17.2333    6.0868    5.2920 H   0  0  0  0  0  0  0  0  0  0  0  0
   14.9225    5.9253    4.4532 H   0  0  0  0  0  0  0  0  0  0  0  0
   15.5086    6.0030    2.7852 H   0  0  0  0  0  0  0  0  0  0  0  0
    9.8808   -0.5718    1.0635 H   0  0  0  0  0  0  0  0  0  0  0  0
    8.6716   -2.3410    2.2249 H   0  0  0  0  0  0  0  0  0  0  0  0
    9.3226   -0.3617    5.9863 H   0  0  0  0  0  0  0  0  0  0  0  0
  1  2  1  0  0  0  0
  1 34  1  0  0  0  0
  1 35  1  0  0  0  0
  1 36  1  0  0  0  0
  2  3  1  0  0  0  0
  2 37  1  0  0  0  0
  2 38  1  0  0  0  0
  3  4  1  0  0  0  0
  3 39  1  0  0  0  0
  3 40  1  0  0  0  0
  4  5  3  0  0  0  0
  5  6  1  0  0  0  0
  6 33  1  0  0  0  0
  6  7  2  0  0  0  0
  7  8  1  0  0  0  0
  7 41  1  0  0  0  0
  8  9  2  0  0  0  0
  8 42  1  0  0  0  0
  9 10  1  0  0  0  0
  9 33  1  0  0  0  0
 10 24  1  0  0  0  0
 10 11  2  0  0  0  0
 11 12  1  0  0  0  0
 11 13  1  0  0  0  0
 12 43  1  0  0  0  0
 12 44  1  0  0  0  0
 12 45  1  0  0  0  0
 13 14  1  0  0  0  0
 13 23  2  0  0  0  0
 14 15  2  0  0  0  0
 14 16  1  0  0  0  0
 16 17  1  0  0  0  0
 16 46  1  0  0  0  0
 17 22  1  0  0  0  0
 17 18  1  0  0  0  0
 18 19  1  0  0  0  0
 18 47  1  0  0  0  0
 18 48  1  0  0  0  0
 19 20  1  0  0  0  0
 19 49  1  0  0  0  0
 19 50  1  0  0  0  0
 20 21  1  0  0  0  0
 20 51  1  0  0  0  0
 20 52  1  0  0  0  0
 21 22  1  0  0  0  0
 21 53  1  0  0  0  0
 21 54  1  0  0  0  0
 22 55  1  0  0  0  0
 22 56  1  0  0  0  0
 23 24  1  0  0  0  0
 24 25  1  0  0  0  0
 25 31  2  0  0  0  0
 25 26  1  0  0  0  0
 26 27  2  0  0  0  0
 26 57  1  0  0  0  0
 27 28  1  0  0  0  0
 27 58  1  0  0  0  0
 28 29  1  0  0  0  0
 28 30  2  0  0  0  0
 30 31  1  0  0  0  0
 30 59  1  0  0  0  0
 31 32  1  0  0  0  0
M  END
$$$$
CHEMBL285932	5TGZ	best_smi
 OpenBabel12022417383D

 51 54  0  0  0  0  0  0  0  0999 V2000
    1.0303    0.3815   -0.0866 C   0  0  0  0  0  0  0  0  0  0  0  0
    2.4973    0.1302   -0.0280 C   0  0  0  0  0  0  0  0  0  0  0  0
    3.4970    1.1524   -0.0268 C   0  0  0  0  0  0  0  0  0  0  0  0
    3.3128    2.6298   -0.0652 C   0  0  0  0  0  0  0  0  0  0  0  0
    2.2029    3.1535   -0.1136 O   0  0  0  0  0  0  0  0  0  0  0  0
    4.5235    3.3235   -0.0329 N   0  0  0  0  0  0  0  0  0  0  0  0
    4.6750    4.7346   -0.0157 N   0  0  0  0  0  0  0  0  0  0  0  0
    4.3445    5.3714   -1.2965 C   0  0  0  0  0  0  0  0  0  0  0  0
    4.7356    6.8554   -1.2863 C   0  0  0  0  0  0  0  0  0  0  0  0
    4.0989    7.5977   -0.1160 C   0  0  0  0  0  0  0  0  0  0  0  0
    4.3827    6.8721    1.1959 C   0  0  0  0  0  0  0  0  0  0  0  0
    4.0004    5.3906    1.1144 C   0  0  0  0  0  0  0  0  0  0  0  0
    4.7221    0.6135    0.0124 N   0  0  0  0  0  0  0  0  0  0  0  0
    4.5530   -0.7324    0.0200 N   0  0  0  0  0  0  0  0  0  0  0  0
    5.7135   -1.5623    0.1246 C   0  0  0  0  0  0  0  0  0  0  0  0
    5.6605   -2.7402    0.8958 C   0  0  0  0  0  0  0  0  0  0  0  0
    6.7499   -3.6155    0.9423 C   0  0  0  0  0  0  0  0  0  0  0  0
    7.9217   -3.2994    0.2676 C   0  0  0  0  0  0  0  0  0  0  0  0
    9.2565   -4.3828    0.3118 Cl  0  0  0  0  0  0  0  0  0  0  0  0
    8.0150   -2.1162   -0.4575 C   0  0  0  0  0  0  0  0  0  0  0  0
    6.9172   -1.2424   -0.5355 C   0  0  0  0  0  0  0  0  0  0  0  0
    7.1361    0.1127   -1.5934 Cl  0  0  0  0  0  0  0  0  0  0  0  0
    3.1902   -1.0895    0.0077 C   0  0  0  0  0  0  0  0  0  0  0  0
    2.6479   -2.4713   -0.0477 C   0  0  0  0  0  0  0  0  0  0  0  0
    1.5125   -2.8279    0.6991 C   0  0  0  0  0  0  0  0  0  0  0  0
    1.0010   -4.1334    0.6766 C   0  0  0  0  0  0  0  0  0  0  0  0
    1.6553   -5.1209   -0.0525 C   0  0  0  0  0  0  0  0  0  0  0  0
    0.9504   -7.0744   -0.0252 I   0  0  0  0  0  0  0  0  0  0  0  0
    2.7843   -4.7985   -0.7980 C   0  0  0  0  0  0  0  0  0  0  0  0
    3.2450   -3.4748   -0.8303 C   0  0  0  0  0  0  0  0  0  0  0  0
    0.4458   -0.5318   -0.2117 H   0  0  0  0  0  0  0  0  0  0  0  0
    0.7866    1.0260   -0.9366 H   0  0  0  0  0  0  0  0  0  0  0  0
    0.6933    0.8730    0.8322 H   0  0  0  0  0  0  0  0  0  0  0  0
    5.3631    2.7449   -0.0027 H   0  0  0  0  0  0  0  0  0  0  0  0
    3.2754    5.2759   -1.5225 H   0  0  0  0  0  0  0  0  0  0  0  0
    4.8960    4.8825   -2.1084 H   0  0  0  0  0  0  0  0  0  0  0  0
    4.4337    7.3285   -2.2280 H   0  0  0  0  0  0  0  0  0  0  0  0
    5.8271    6.9489   -1.2211 H   0  0  0  0  0  0  0  0  0  0  0  0
    3.0153    7.6671   -0.2705 H   0  0  0  0  0  0  0  0  0  0  0  0
    4.4858    8.6201   -0.0703 H   0  0  0  0  0  0  0  0  0  0  0  0
    3.8283    7.3547    2.0095 H   0  0  0  0  0  0  0  0  0  0  0  0
    5.4490    6.9663    1.4387 H   0  0  0  0  0  0  0  0  0  0  0  0
    4.2961    4.9078    2.0533 H   0  0  0  0  0  0  0  0  0  0  0  0
    2.9104    5.3077    1.0311 H   0  0  0  0  0  0  0  0  0  0  0  0
    4.7782   -3.0018    1.4757 H   0  0  0  0  0  0  0  0  0  0  0  0
    6.6737   -4.5428    1.5068 H   0  0  0  0  0  0  0  0  0  0  0  0
    8.9344   -1.8928   -0.9945 H   0  0  0  0  0  0  0  0  0  0  0  0
    1.0027   -2.0947    1.3197 H   0  0  0  0  0  0  0  0  0  0  0  0
    0.1009   -4.3619    1.2426 H   0  0  0  0  0  0  0  0  0  0  0  0
    3.3196   -5.5619   -1.3583 H   0  0  0  0  0  0  0  0  0  0  0  0
    4.1084   -3.2573   -1.4554 H   0  0  0  0  0  0  0  0  0  0  0  0
  1  2  1  0  0  0  0
  1 31  1  0  0  0  0
  1 32  1  0  0  0  0
  1 33  1  0  0  0  0
  2 23  2  0  0  0  0
  2  3  1  0  0  0  0
  3  4  1  0  0  0  0
  3 13  2  0  0  0  0
  4  5  2  0  0  0  0
  4  6  1  0  0  0  0
  6  7  1  0  0  0  0
  6 34  1  0  0  0  0
  7 12  1  0  0  0  0
  7  8  1  0  0  0  0
  8  9  1  0  0  0  0
  8 35  1  0  0  0  0
  8 36  1  0  0  0  0
  9 10  1  0  0  0  0
  9 37  1  0  0  0  0
  9 38  1  0  0  0  0
 10 11  1  0  0  0  0
 10 39  1  0  0  0  0
 10 40  1  0  0  0  0
 11 12  1  0  0  0  0
 11 41  1  0  0  0  0
 11 42  1  0  0  0  0
 12 43  1  0  0  0  0
 12 44  1  0  0  0  0
 13 14  1  0  0  0  0
 14 15  1  0  0  0  0
 14 23  1  0  0  0  0
 15 21  2  0  0  0  0
 15 16  1  0  0  0  0
 16 17  2  0  0  0  0
 16 45  1  0  0  0  0
 17 18  1  0  0  0  0
 17 46  1  0  0  0  0
 18 19  1  0  0  0  0
 18 20  2  0  0  0  0
 20 21  1  0  0  0  0
 20 47  1  0  0  0  0
 21 22  1  0  0  0  0
 23 24  1  0  0  0  0
 24 30  2  0  0  0  0
 24 25  1  0  0  0  0
 25 26  2  0  0  0  0
 25 48  1  0  0  0  0
 26 27  1  0  0  0  0
 26 49  1  0  0  0  0
 27 28  1  0  0  0  0
 27 29  2  0  0  0  0
 29 30  1  0  0  0  0
 29 50  1  0  0  0  0
 30 51  1  0  0  0  0
M  END
$$$$
CHEMBL522522	5TGZ	best_smi
 OpenBabel12022417383D

 65 68  0  0  0  0  0  0  0  0999 V2000
    3.3918    8.3205   -1.8658 C   0  0  0  0  0  0  0  0  0  0  0  0
    2.5435    7.7401   -0.7473 C   0  0  0  0  0  0  0  0  0  0  0  0
    3.4144    7.0882    0.3228 C   0  0  0  0  0  0  0  0  0  0  0  0
    2.5613    6.5066    1.4437 C   0  0  0  0  0  0  0  0  0  0  0  0
    3.4507    5.8656    2.4965 C   0  0  0  0  0  0  0  0  0  0  0  0
    4.2137    5.3157    3.3996 C   0  0  0  0  0  0  0  0  0  0  0  0
    5.1206    4.8061    4.3717 C   0  0  0  0  0  0  0  0  0  0  0  0
    5.8612    3.6551    4.2453 C   0  0  0  0  0  0  0  0  0  0  0  0
    6.6207    3.3810    5.4250 C   0  0  0  0  0  0  0  0  0  0  0  0
    6.5181    4.3770    6.3851 C   0  0  0  0  0  0  0  0  0  0  0  0
    7.1817    4.4728    7.6778 C   0  0  0  0  0  0  0  0  0  0  0  0
    6.6429    4.8780    8.9000 C   0  0  0  0  0  0  0  0  0  0  0  0
    5.2572    5.3406    9.2228 C   0  0  0  0  0  0  0  0  0  0  0  0
    7.6870    4.7316    9.8659 C   0  0  0  0  0  0  0  0  0  0  0  0
    7.6240    5.0252   11.3201 C   0  0  0  0  0  0  0  0  0  0  0  0
    6.6252    5.5218   11.8289 O   0  0  0  0  0  0  0  0  0  0  0  0
    8.7783    4.6985   12.0419 N   0  0  0  0  0  0  0  0  0  0  0  0
    8.9148    4.9184   13.4664 N   0  0  0  0  0  0  0  0  0  0  0  0
    8.9387    6.3508   13.7941 C   0  0  0  0  0  0  0  0  0  0  0  0
    9.6673    6.6983   15.1032 C   0  0  0  0  0  0  0  0  0  0  0  0
    8.8843    6.4609   16.3893 C   0  0  0  0  0  0  0  0  0  0  0  0
    8.4307    5.0225   16.5837 C   0  0  0  0  0  0  0  0  0  0  0  0
    7.3929    4.6074   15.5497 C   0  0  0  0  0  0  0  0  0  0  0  0
    7.9745    4.0816   14.2292 C   0  0  0  0  0  0  0  0  0  0  0  0
    8.7978    4.2557    9.2922 N   0  0  0  0  0  0  0  0  0  0  0  0
    8.4933    4.0699    7.9710 N   0  0  0  0  0  0  0  0  0  0  0  0
    9.5036    3.5574    7.0903 C   0  0  0  0  0  0  0  0  0  0  0  0
    9.5688    4.0121    5.7586 C   0  0  0  0  0  0  0  0  0  0  0  0
   10.4650    3.4455    4.8470 C   0  0  0  0  0  0  0  0  0  0  0  0
   11.3544    2.4685    5.2749 C   0  0  0  0  0  0  0  0  0  0  0  0
   12.4575    1.7680    4.1577 Cl  0  0  0  0  0  0  0  0  0  0  0  0
   11.3508    2.0479    6.5997 C   0  0  0  0  0  0  0  0  0  0  0  0
   10.4302    2.5806    7.5132 C   0  0  0  0  0  0  0  0  0  0  0  0
   10.4456    1.8444    9.0817 Cl  0  0  0  0  0  0  0  0  0  0  0  0
    5.4698    5.6217    5.8234 S   0  0  0  0  0  0  0  0  0  0  0  0
    2.7537    8.7838   -2.6241 H   0  0  0  0  0  0  0  0  0  0  0  0
    3.9866    7.5395   -2.3502 H   0  0  0  0  0  0  0  0  0  0  0  0
    4.0754    9.0842   -1.4813 H   0  0  0  0  0  0  0  0  0  0  0  0
    1.8500    7.0008   -1.1647 H   0  0  0  0  0  0  0  0  0  0  0  0
    1.9384    8.5375   -0.3003 H   0  0  0  0  0  0  0  0  0  0  0  0
    4.1134    7.8278    0.7341 H   0  0  0  0  0  0  0  0  0  0  0  0
    4.0254    6.2954   -0.1277 H   0  0  0  0  0  0  0  0  0  0  0  0
    1.8744    5.7480    1.0520 H   0  0  0  0  0  0  0  0  0  0  0  0
    1.9612    7.2910    1.9185 H   0  0  0  0  0  0  0  0  0  0  0  0
    5.8475    3.0243    3.3639 H   0  0  0  0  0  0  0  0  0  0  0  0
    7.2481    2.5036    5.5247 H   0  0  0  0  0  0  0  0  0  0  0  0
    4.5840    5.3357    8.3652 H   0  0  0  0  0  0  0  0  0  0  0  0
    5.2762    6.3612    9.6182 H   0  0  0  0  0  0  0  0  0  0  0  0
    4.8012    4.6814    9.9686 H   0  0  0  0  0  0  0  0  0  0  0  0
    9.5640    4.3032   11.5257 H   0  0  0  0  0  0  0  0  0  0  0  0
    7.9352    6.7903   13.7805 H   0  0  0  0  0  0  0  0  0  0  0  0
    9.5064    6.8629   13.0055 H   0  0  0  0  0  0  0  0  0  0  0  0
    9.9172    7.7673   15.0736 H   0  0  0  0  0  0  0  0  0  0  0  0
   10.6267    6.1687   15.1561 H   0  0  0  0  0  0  0  0  0  0  0  0
    8.0148    7.1305   16.4192 H   0  0  0  0  0  0  0  0  0  0  0  0
    9.5131    6.7484   17.2422 H   0  0  0  0  0  0  0  0  0  0  0  0
    7.9731    4.9505   17.5801 H   0  0  0  0  0  0  0  0  0  0  0  0
    9.2871    4.3404   16.5830 H   0  0  0  0  0  0  0  0  0  0  0  0
    6.6948    5.4313   15.3546 H   0  0  0  0  0  0  0  0  0  0  0  0
    6.7870    3.8020   15.9853 H   0  0  0  0  0  0  0  0  0  0  0  0
    8.4820    3.1312   14.4379 H   0  0  0  0  0  0  0  0  0  0  0  0
    7.1048    3.8093   13.6190 H   0  0  0  0  0  0  0  0  0  0  0  0
    8.9260    4.8115    5.3937 H   0  0  0  0  0  0  0  0  0  0  0  0
   10.4580    3.7700    3.8088 H   0  0  0  0  0  0  0  0  0  0  0  0
   12.0489    1.2786    6.9218 H   0  0  0  0  0  0  0  0  0  0  0  0
  1  2  1  0  0  0  0
  1 36  1  0  0  0  0
  1 37  1  0  0  0  0
  1 38  1  0  0  0  0
  2  3  1  0  0  0  0
  2 39  1  0  0  0  0
  2 40  1  0  0  0  0
  3  4  1  0  0  0  0
  3 41  1  0  0  0  0
  3 42  1  0  0  0  0
  4  5  1  0  0  0  0
  4 43  1  0  0  0  0
  4 44  1  0  0  0  0
  5  6  3  0  0  0  0
  6  7  1  0  0  0  0
  7 35  1  0  0  0  0
  7  8  2  0  0  0  0
  8  9  1  0  0  0  0
  8 45  1  0  0  0  0
  9 10  2  0  0  0  0
  9 46  1  0  0  0  0
 10 11  1  0  0  0  0
 10 35  1  0  0  0  0
 11 26  1  0  0  0  0
 11 12  2  0  0  0  0
 12 13  1  0  0  0  0
 12 14  1  0  0  0  0
 13 47  1  0  0  0  0
 13 48  1  0  0  0  0
 13 49  1  0  0  0  0
 14 15  1  0  0  0  0
 14 25  2  0  0  0  0
 15 16  2  0  0  0  0
 15 17  1  0  0  0  0
 17 18  1  0  0  0  0
 17 50  1  0  0  0  0
 18 24  1  0  0  0  0
 18 19  1  0  0  0  0
 19 20  1  0  0  0  0
 19 51  1  0  0  0  0
 19 52  1  0  0  0  0
 20 21  1  0  0  0  0
 20 53  1  0  0  0  0
 20 54  1  0  0  0  0
 21 22  1  0  0  0  0
 21 55  1  0  0  0  0
 21 56  1  0  0  0  0
 22 23  1  0  0  0  0
 22 57  1  0  0  0  0
 22 58  1  0  0  0  0
 23 24  1  0  0  0  0
 23 59  1  0  0  0  0
 23 60  1  0  0  0  0
 24 61  1  0  0  0  0
 24 62  1  0  0  0  0
 25 26  1  0  0  0  0
 26 27  1  0  0  0  0
 27 33  2  0  0  0  0
 27 28  1  0  0  0  0
 28 29  2  0  0  0  0
 28 63  1  0  0  0  0
 29 30  1  0  0  0  0
 29 64  1  0  0  0  0
 30 31  1  0  0  0  0
 30 32  2  0  0  0  0
 32 33  1  0  0  0  0
 32 65  1  0  0  0  0
 33 34  1  0  0  0  0
M  END
$$$$
CHEMBL476833	5TGZ	best_smi
 OpenBabel12022417383D

 49 52  0  0  0  0  0  0  0  0999 V2000
    1.0690    0.3389   -0.1278 C   0  0  0  0  0  0  0  0  0  0  0  0
    2.5393    0.0994   -0.0423 C   0  0  0  0  0  0  0  0  0  0  0  0
    3.5248    1.1339    0.0159 C   0  0  0  0  0  0  0  0  0  0  0  0
    3.2855    2.5957    0.0276 C   0  0  0  0  0  0  0  0  0  0  0  0
    2.1416    3.0596   -0.0305 O   0  0  0  0  0  0  0  0  0  0  0  0
    4.4285    3.3813    0.1163 N   0  0  0  0  0  0  0  0  0  0  0  0
    4.2852    4.7783    0.1518 N   0  0  0  0  0  0  0  0  0  0  0  0
    4.5732    5.3860    1.4573 C   0  0  0  0  0  0  0  0  0  0  0  0
    4.1051    6.8486    1.4255 C   0  0  0  0  0  0  0  0  0  0  0  0
    4.7726    7.5825    0.3852 O   0  0  0  0  0  0  0  0  0  0  0  0
    4.5288    6.9722   -0.8931 C   0  0  0  0  0  0  0  0  0  0  0  0
    4.9913    5.5040   -0.9117 C   0  0  0  0  0  0  0  0  0  0  0  0
    4.7557    0.6174    0.0594 N   0  0  0  0  0  0  0  0  0  0  0  0
    4.6027   -0.7340    0.0078 N   0  0  0  0  0  0  0  0  0  0  0  0
    5.7688   -1.5572    0.0830 C   0  0  0  0  0  0  0  0  0  0  0  0
    5.7186   -2.7656    0.8037 C   0  0  0  0  0  0  0  0  0  0  0  0
    6.8162   -3.6309    0.8309 C   0  0  0  0  0  0  0  0  0  0  0  0
    7.9920   -3.2737    0.1837 C   0  0  0  0  0  0  0  0  0  0  0  0
    9.3420   -4.3385    0.2127 Cl  0  0  0  0  0  0  0  0  0  0  0  0
    8.0790   -2.0623   -0.4952 C   0  0  0  0  0  0  0  0  0  0  0  0
    6.9737   -1.2015   -0.5553 C   0  0  0  0  0  0  0  0  0  0  0  0
    7.1835    0.1939   -1.5624 Cl  0  0  0  0  0  0  0  0  0  0  0  0
    3.2441   -1.1056   -0.0336 C   0  0  0  0  0  0  0  0  0  0  0  0
    2.7118   -2.4890   -0.1302 C   0  0  0  0  0  0  0  0  0  0  0  0
    1.5886   -2.8718    0.6220 C   0  0  0  0  0  0  0  0  0  0  0  0
    1.0926   -4.1823    0.5800 C   0  0  0  0  0  0  0  0  0  0  0  0
    1.7497   -5.1451   -0.1786 C   0  0  0  0  0  0  0  0  0  0  0  0
    1.0806   -7.1104   -0.1667 I   0  0  0  0  0  0  0  0  0  0  0  0
    2.8597   -4.7905   -0.9403 C   0  0  0  0  0  0  0  0  0  0  0  0
    3.3060   -3.4627   -0.9501 C   0  0  0  0  0  0  0  0  0  0  0  0
    0.4921   -0.5794   -0.2548 H   0  0  0  0  0  0  0  0  0  0  0  0
    0.8339    0.9756   -0.9857 H   0  0  0  0  0  0  0  0  0  0  0  0
    0.7151    0.8331    0.7817 H   0  0  0  0  0  0  0  0  0  0  0  0
    5.3319    2.9158    0.1719 H   0  0  0  0  0  0  0  0  0  0  0  0
    5.6496    5.3422    1.6680 H   0  0  0  0  0  0  0  0  0  0  0  0
    4.0468    4.8554    2.2586 H   0  0  0  0  0  0  0  0  0  0  0  0
    4.3355    7.3384    2.3769 H   0  0  0  0  0  0  0  0  0  0  0  0
    3.0200    6.9145    1.2742 H   0  0  0  0  0  0  0  0  0  0  0  0
    5.0773    7.5495   -1.6435 H   0  0  0  0  0  0  0  0  0  0  0  0
    3.4604    7.0528   -1.1306 H   0  0  0  0  0  0  0  0  0  0  0  0
    4.7709    5.0703   -1.8929 H   0  0  0  0  0  0  0  0  0  0  0  0
    6.0762    5.4552   -0.7514 H   0  0  0  0  0  0  0  0  0  0  0  0
    4.8329   -3.0593    1.3638 H   0  0  0  0  0  0  0  0  0  0  0  0
    6.7429   -4.5796    1.3601 H   0  0  0  0  0  0  0  0  0  0  0  0
    9.0034   -1.7984   -1.0042 H   0  0  0  0  0  0  0  0  0  0  0  0
    1.0803   -2.1567    1.2644 H   0  0  0  0  0  0  0  0  0  0  0  0
    0.2070   -4.4331    1.1569 H   0  0  0  0  0  0  0  0  0  0  0  0
    3.3924   -5.5346   -1.5280 H   0  0  0  0  0  0  0  0  0  0  0  0
    4.1553   -3.2168   -1.5821 H   0  0  0  0  0  0  0  0  0  0  0  0
  1  2  1  0  0  0  0
  1 31  1  0  0  0  0
  1 32  1  0  0  0  0
  1 33  1  0  0  0  0
  2 23  2  0  0  0  0
  2  3  1  0  0  0  0
  3  4  1  0  0  0  0
  3 13  2  0  0  0  0
  4  5  2  0  0  0  0
  4  6  1  0  0  0  0
  6  7  1  0  0  0  0
  6 34  1  0  0  0  0
  7 12  1  0  0  0  0
  7  8  1  0  0  0  0
  8  9  1  0  0  0  0
  8 35  1  0  0  0  0
  8 36  1  0  0  0  0
  9 10  1  0  0  0  0
  9 37  1  0  0  0  0
  9 38  1  0  0  0  0
 10 11  1  0  0  0  0
 11 12  1  0  0  0  0
 11 39  1  0  0  0  0
 11 40  1  0  0  0  0
 12 41  1  0  0  0  0
 12 42  1  0  0  0  0
 13 14  1  0  0  0  0
 14 15  1  0  0  0  0
 14 23  1  0  0  0  0
 15 21  2  0  0  0  0
 15 16  1  0  0  0  0
 16 17  2  0  0  0  0
 16 43  1  0  0  0  0
 17 18  1  0  0  0  0
 17 44  1  0  0  0  0
 18 19  1  0  0  0  0
 18 20  2  0  0  0  0
 20 21  1  0  0  0  0
 20 45  1  0  0  0  0
 21 22  1  0  0  0  0
 23 24  1  0  0  0  0
 24 30  2  0  0  0  0
 24 25  1  0  0  0  0
 25 26  2  0  0  0  0
 25 46  1  0  0  0  0
 26 27  1  0  0  0  0
 26 47  1  0  0  0  0
 27 28  1  0  0  0  0
 27 29  2  0  0  0  0
 29 30  1  0  0  0  0
 29 48  1  0  0  0  0
 30 49  1  0  0  0  0
M  END
$$$$
CHEMBL349955	5TGZ	best_smi
 OpenBabel12022417383D

 53 56  0  0  0  0  0  0  0  0999 V2000
    1.1971    0.3003   -0.0838 C   0  0  0  0  0  0  0  0  0  0  0  0
    2.6692    0.0604   -0.0335 C   0  0  0  0  0  0  0  0  0  0  0  0
    3.6630    1.0887   -0.0343 C   0  0  0  0  0  0  0  0  0  0  0  0
    3.4690    2.5667   -0.0733 C   0  0  0  0  0  0  0  0  0  0  0  0
    2.3519    3.0759   -0.1198 O   0  0  0  0  0  0  0  0  0  0  0  0
    4.6702    3.2696   -0.0450 N   0  0  0  0  0  0  0  0  0  0  0  0
    4.8073    4.6864   -0.0344 N   0  0  0  0  0  0  0  0  0  0  0  0
    4.4667    5.3118   -1.3197 C   0  0  0  0  0  0  0  0  0  0  0  0
    4.8351    6.8016   -1.3181 C   0  0  0  0  0  0  0  0  0  0  0  0
    4.1868    7.5421   -0.1530 C   0  0  0  0  0  0  0  0  0  0  0  0
    4.4833    6.8293    1.1626 C   0  0  0  0  0  0  0  0  0  0  0  0
    4.1241    5.3399    1.0913 C   0  0  0  0  0  0  0  0  0  0  0  0
    4.8925    0.5523   -0.0073 N   0  0  0  0  0  0  0  0  0  0  0  0
    4.7239   -0.7942    0.0114 N   0  0  0  0  0  0  0  0  0  0  0  0
    5.8877   -1.6226    0.1159 C   0  0  0  0  0  0  0  0  0  0  0  0
    5.8367   -2.7968    0.8903 C   0  0  0  0  0  0  0  0  0  0  0  0
    6.9265   -3.6716    0.9425 C   0  0  0  0  0  0  0  0  0  0  0  0
    8.0975   -3.3568    0.2650 C   0  0  0  0  0  0  0  0  0  0  0  0
    9.4353   -4.4360    0.3201 Cl  0  0  0  0  0  0  0  0  0  0  0  0
    8.1890   -2.1756   -0.4643 C   0  0  0  0  0  0  0  0  0  0  0  0
    7.0908   -1.3052   -0.5473 C   0  0  0  0  0  0  0  0  0  0  0  0
    7.3076    0.0474   -1.6096 Cl  0  0  0  0  0  0  0  0  0  0  0  0
    3.3637   -1.1551   -0.0036 C   0  0  0  0  0  0  0  0  0  0  0  0
    2.8285   -2.5402   -0.0473 C   0  0  0  0  0  0  0  0  0  0  0  0
    1.7241   -2.9051    0.7353 C   0  0  0  0  0  0  0  0  0  0  0  0
    1.2450   -4.2242    0.7532 C   0  0  0  0  0  0  0  0  0  0  0  0
    1.8627   -5.2217    0.0011 C   0  0  0  0  0  0  0  0  0  0  0  0
    1.5113   -6.5632    0.1818 N   0  0  0  0  0  0  0  0  0  0  0  0
    2.9896   -4.8793   -0.7430 C   0  0  0  0  0  0  0  0  0  0  0  0
    3.4237   -3.5471   -0.8228 C   0  0  0  0  0  0  0  0  0  0  0  0
    0.6180   -0.6196   -0.1924 H   0  0  0  0  0  0  0  0  0  0  0  0
    0.9405    0.9350   -0.9376 H   0  0  0  0  0  0  0  0  0  0  0  0
    0.8661    0.7988    0.8341 H   0  0  0  0  0  0  0  0  0  0  0  0
    5.5165    2.6990   -0.0206 H   0  0  0  0  0  0  0  0  0  0  0  0
    3.3991    5.1993   -1.5440 H   0  0  0  0  0  0  0  0  0  0  0  0
    5.0249    4.8256   -2.1288 H   0  0  0  0  0  0  0  0  0  0  0  0
    4.5270    7.2635   -2.2634 H   0  0  0  0  0  0  0  0  0  0  0  0
    5.9254    6.9120   -1.2528 H   0  0  0  0  0  0  0  0  0  0  0  0
    3.1023    7.5948   -0.3081 H   0  0  0  0  0  0  0  0  0  0  0  0
    4.5537    8.5746   -0.1120 H   0  0  0  0  0  0  0  0  0  0  0  0
    3.9219    7.3087    1.9730 H   0  0  0  0  0  0  0  0  0  0  0  0
    5.5479    6.9419    1.4038 H   0  0  0  0  0  0  0  0  0  0  0  0
    4.4282    4.8694    2.0335 H   0  0  0  0  0  0  0  0  0  0  0  0
    3.0351    5.2414    1.0109 H   0  0  0  0  0  0  0  0  0  0  0  0
    4.9540   -3.0592    1.4702 H   0  0  0  0  0  0  0  0  0  0  0  0
    6.8490   -4.5958    1.5112 H   0  0  0  0  0  0  0  0  0  0  0  0
    9.1101   -1.9428   -0.9946 H   0  0  0  0  0  0  0  0  0  0  0  0
    1.2269   -2.1755    1.3697 H   0  0  0  0  0  0  0  0  0  0  0  0
    0.3930   -4.4664    1.3837 H   0  0  0  0  0  0  0  0  0  0  0  0
    0.5355   -6.7046    0.4252 H   0  0  0  0  0  0  0  0  0  0  0  0
    1.8110   -7.1794   -0.5672 H   0  0  0  0  0  0  0  0  0  0  0  0
    3.5497   -5.6486   -1.2691 H   0  0  0  0  0  0  0  0  0  0  0  0
    4.2782   -3.3322   -1.4601 H   0  0  0  0  0  0  0  0  0  0  0  0
  1  2  1  0  0  0  0
  1 31  1  0  0  0  0
  1 32  1  0  0  0  0
  1 33  1  0  0  0  0
  2 23  2  0  0  0  0
  2  3  1  0  0  0  0
  3  4  1  0  0  0  0
  3 13  2  0  0  0  0
  4  5  2  0  0  0  0
  4  6  1  0  0  0  0
  6  7  1  0  0  0  0
  6 34  1  0  0  0  0
  7 12  1  0  0  0  0
  7  8  1  0  0  0  0
  8  9  1  0  0  0  0
  8 35  1  0  0  0  0
  8 36  1  0  0  0  0
  9 10  1  0  0  0  0
  9 37  1  0  0  0  0
  9 38  1  0  0  0  0
 10 11  1  0  0  0  0
 10 39  1  0  0  0  0
 10 40  1  0  0  0  0
 11 12  1  0  0  0  0
 11 41  1  0  0  0  0
 11 42  1  0  0  0  0
 12 43  1  0  0  0  0
 12 44  1  0  0  0  0
 13 14  1  0  0  0  0
 14 15  1  0  0  0  0
 14 23  1  0  0  0  0
 15 21  2  0  0  0  0
 15 16  1  0  0  0  0
 16 17  2  0  0  0  0
 16 45  1  0  0  0  0
 17 18  1  0  0  0  0
 17 46  1  0  0  0  0
 18 19  1  0  0  0  0
 18 20  2  0  0  0  0
 20 21  1  0  0  0  0
 20 47  1  0  0  0  0
 21 22  1  0  0  0  0
 23 24  1  0  0  0  0
 24 30  2  0  0  0  0
 24 25  1  0  0  0  0
 25 26  2  0  0  0  0
 25 48  1  0  0  0  0
 26 27  1  0  0  0  0
 26 49  1  0  0  0  0
 27 28  1  0  0  0  0
 27 29  2  0  0  0  0
 28 50  1  0  0  0  0
 28 51  1  0  0  0  0
 29 30  1  0  0  0  0
 29 52  1  0  0  0  0
 30 53  1  0  0  0  0
M  END
$$$$
CHEMBL484504	5TGZ	best_smi
 OpenBabel12022417383D

 51 54  0  0  0  0  0  0  0  0999 V2000
    1.0871    0.4633   -0.2595 C   0  0  0  0  0  0  0  0  0  0  0  0
    2.5482    0.2088   -0.1057 C   0  0  0  0  0  0  0  0  0  0  0  0
    3.5452    1.2331   -0.0803 C   0  0  0  0  0  0  0  0  0  0  0  0
    3.3620    2.7118   -0.1495 C   0  0  0  0  0  0  0  0  0  0  0  0
    2.2562    3.2317   -0.2230 O   0  0  0  0  0  0  0  0  0  0  0  0
    4.5720    3.4106   -0.1066 N   0  0  0  0  0  0  0  0  0  0  0  0
    4.7127    4.8229   -0.0845 N   0  0  0  0  0  0  0  0  0  0  0  0
    4.3524    5.4636   -1.3580 C   0  0  0  0  0  0  0  0  0  0  0  0
    4.7197    6.9542   -1.3439 C   0  0  0  0  0  0  0  0  0  0  0  0
    4.0854    7.6806   -0.1620 C   0  0  0  0  0  0  0  0  0  0  0  0
    4.3943    6.9490    1.1411 C   0  0  0  0  0  0  0  0  0  0  0  0
    4.0335    5.4578    1.0537 C   0  0  0  0  0  0  0  0  0  0  0  0
    4.7670    0.6953    0.0103 N   0  0  0  0  0  0  0  0  0  0  0  0
    4.5956   -0.6480    0.0256 N   0  0  0  0  0  0  0  0  0  0  0  0
    5.7661   -1.4718    0.0932 C   0  0  0  0  0  0  0  0  0  0  0  0
    5.7570   -2.6344    0.8850 C   0  0  0  0  0  0  0  0  0  0  0  0
    6.8624   -3.4913    0.9106 C   0  0  0  0  0  0  0  0  0  0  0  0
    8.0059   -3.1699    0.1884 C   0  0  0  0  0  0  0  0  0  0  0  0
    9.3658   -4.2220    0.2255 Cl  0  0  0  0  0  0  0  0  0  0  0  0
    8.0517   -2.0050   -0.5697 C   0  0  0  0  0  0  0  0  0  0  0  0
    6.9367   -1.1553   -0.6289 C   0  0  0  0  0  0  0  0  0  0  0  0
    7.0805    0.1659   -1.7424 Cl  0  0  0  0  0  0  0  0  0  0  0  0
    3.2310   -1.0093    0.0308 C   0  0  0  0  0  0  0  0  0  0  0  0
    2.6993   -2.4089    0.0324 C   0  0  0  0  0  0  0  0  0  0  0  0
    3.3172   -3.3847   -0.7808 C   0  0  0  0  0  0  0  0  0  0  0  0
    2.9716   -4.7412   -0.7030 C   0  0  0  0  0  0  0  0  0  0  0  0
    1.9118   -5.1387    0.0987 C   0  0  0  0  0  0  0  0  0  0  0  0
    1.4866   -6.8016    0.2024 Cl  0  0  0  0  0  0  0  0  0  0  0  0
    1.2140   -4.1953    0.8403 C   0  0  0  0  0  0  0  0  0  0  0  0
    1.6296   -2.8521    0.8452 C   0  0  0  0  0  0  0  0  0  0  0  0
    0.8150   -1.8367    1.9865 Cl  0  0  0  0  0  0  0  0  0  0  0  0
    0.5328   -0.4439   -0.5116 H   0  0  0  0  0  0  0  0  0  0  0  0
    0.8979    1.1773   -1.0668 H   0  0  0  0  0  0  0  0  0  0  0  0
    0.6784    0.8820    0.6670 H   0  0  0  0  0  0  0  0  0  0  0  0
    5.4135    2.8391   -0.0468 H   0  0  0  0  0  0  0  0  0  0  0  0
    3.2813    5.3546   -1.5699 H   0  0  0  0  0  0  0  0  0  0  0  0
    4.8991    4.9873   -2.1801 H   0  0  0  0  0  0  0  0  0  0  0  0
    4.4001    7.4274   -2.2799 H   0  0  0  0  0  0  0  0  0  0  0  0
    5.8107    7.0640   -1.2901 H   0  0  0  0  0  0  0  0  0  0  0  0
    2.9990    7.7351   -0.3043 H   0  0  0  0  0  0  0  0  0  0  0  0
    4.4544    8.7126   -0.1129 H   0  0  0  0  0  0  0  0  0  0  0  0
    3.8411    7.4195    1.9636 H   0  0  0  0  0  0  0  0  0  0  0  0
    5.4619    7.0607    1.3743 H   0  0  0  0  0  0  0  0  0  0  0  0
    4.3479    4.9804    1.9891 H   0  0  0  0  0  0  0  0  0  0  0  0
    2.9446    5.3622    0.9829 H   0  0  0  0  0  0  0  0  0  0  0  0
    4.9014   -2.8948    1.5040 H   0  0  0  0  0  0  0  0  0  0  0  0
    6.8239   -4.4054    1.4992 H   0  0  0  0  0  0  0  0  0  0  0  0
    8.9487   -1.7689   -1.1387 H   0  0  0  0  0  0  0  0  0  0  0  0
    4.1325   -3.1175   -1.4514 H   0  0  0  0  0  0  0  0  0  0  0  0
    3.5451   -5.4792   -1.2599 H   0  0  0  0  0  0  0  0  0  0  0  0
    0.3678   -4.5094    1.4479 H   0  0  0  0  0  0  0  0  0  0  0  0
  1  2  1  0  0  0  0
  1 32  1  0  0  0  0
  1 33  1  0  0  0  0
  1 34  1  0  0  0  0
  2 23  2  0  0  0  0
  2  3  1  0  0  0  0
  3  4  1  0  0  0  0
  3 13  2  0  0  0  0
  4  5  2  0  0  0  0
  4  6  1  0  0  0  0
  6  7  1  0  0  0  0
  6 35  1  0  0  0  0
  7 12  1  0  0  0  0
  7  8  1  0  0  0  0
  8  9  1  0  0  0  0
  8 36  1  0  0  0  0
  8 37  1  0  0  0  0
  9 10  1  0  0  0  0
  9 38  1  0  0  0  0
  9 39  1  0  0  0  0
 10 11  1  0  0  0  0
 10 40  1  0  0  0  0
 10 41  1  0  0  0  0
 11 12  1  0  0  0  0
 11 42  1  0  0  0  0
 11 43  1  0  0  0  0
 12 44  1  0  0  0  0
 12 45  1  0  0  0  0
 13 14  1  0  0  0  0
 14 15  1  0  0  0  0
 14 23  1  0  0  0  0
 15 21  2  0  0  0  0
 15 16  1  0  0  0  0
 16 17  2  0  0  0  0
 16 46  1  0  0  0  0
 17 18  1  0  0  0  0
 17 47  1  0  0  0  0
 18 19  1  0  0  0  0
 18 20  2  0  0  0  0
 20 21  1  0  0  0  0
 20 48  1  0  0  0  0
 21 22  1  0  0  0  0
 23 24  1  0  0  0  0
 24 30  2  0  0  0  0
 24 25  1  0  0  0  0
 25 26  2  0  0  0  0
 25 49  1  0  0  0  0
 26 27  1  0  0  0  0
 26 50  1  0  0  0  0
 27 28  1  0  0  0  0
 27 29  2  0  0  0  0
 29 30  1  0  0  0  0
 29 51  1  0  0  0  0
 30 31  1  0  0  0  0
M  END
$$$$
CHEMBL3341898	5TGZ	best_smi
 OpenBabel12022417383D

 60 63  0  0  0  0  0  0  0  0999 V2000
    1.1406    0.4425   -0.0608 C   0  0  0  0  0  0  0  0  0  0  0  0
    2.6179    0.2357    0.0056 C   0  0  0  0  0  0  0  0  0  0  0  0
    3.5951    1.2838    0.0199 C   0  0  0  0  0  0  0  0  0  0  0  0
    3.3168    2.7438    0.0201 C   0  0  0  0  0  0  0  0  0  0  0  0
    2.1632    3.1790    0.0348 O   0  0  0  0  0  0  0  0  0  0  0  0
    4.4338    3.5916   -0.0009 N   0  0  0  0  0  0  0  0  0  0  0  0
    4.2203    4.9919    0.0389 N   0  0  0  0  0  0  0  0  0  0  0  0
    5.0122    5.7281    1.0283 C   0  0  0  0  0  0  0  0  0  0  0  0
    4.2819    7.0117    1.3991 C   0  0  0  0  0  0  0  0  0  0  0  0
    4.0516    8.0390   -0.0326 S   0  0  0  0  0  0  0  0  0  0  0  0
    3.0280    9.0197    0.2779 O   0  0  0  0  0  0  0  0  0  0  0  0
    5.3600    8.4664   -0.4925 O   0  0  0  0  0  0  0  0  0  0  0  0
    3.3886    6.9047   -1.2286 C   0  0  0  0  0  0  0  0  0  0  0  0
    4.2259    5.6371   -1.2799 C   0  0  0  0  0  0  0  0  0  0  0  0
    4.8362    0.7759    0.0347 N   0  0  0  0  0  0  0  0  0  0  0  0
    4.6856   -0.5821    0.0607 N   0  0  0  0  0  0  0  0  0  0  0  0
    5.8465   -1.4169    0.1735 C   0  0  0  0  0  0  0  0  0  0  0  0
    5.7809   -2.5880    0.9559 C   0  0  0  0  0  0  0  0  0  0  0  0
    6.8484   -3.4896    0.9976 C   0  0  0  0  0  0  0  0  0  0  0  0
    8.0163   -3.2039    0.3037 C   0  0  0  0  0  0  0  0  0  0  0  0
    9.3297   -4.3133    0.3494 Cl  0  0  0  0  0  0  0  0  0  0  0  0
    8.1241   -2.0269   -0.4317 C   0  0  0  0  0  0  0  0  0  0  0  0
    7.0458   -1.1294   -0.5043 C   0  0  0  0  0  0  0  0  0  0  0  0
    7.2749    0.2165   -1.5696 Cl  0  0  0  0  0  0  0  0  0  0  0  0
    3.3317   -0.9647    0.0403 C   0  0  0  0  0  0  0  0  0  0  0  0
    2.8078   -2.3557   -0.0015 C   0  0  0  0  0  0  0  0  0  0  0  0
    1.6849   -2.7167    0.7614 C   0  0  0  0  0  0  0  0  0  0  0  0
    1.1904   -4.0280    0.7585 C   0  0  0  0  0  0  0  0  0  0  0  0
    1.8511   -5.0242    0.0402 C   0  0  0  0  0  0  0  0  0  0  0  0
    1.3590   -6.3619    0.0686 C   0  0  0  0  0  0  0  0  0  0  0  0
    0.8541   -7.4492    0.1214 C   0  0  0  0  0  0  0  0  0  0  0  0
    0.0972   -8.7114    0.2147 C   0  0  0  0  0  0  0  0  0  0  0  0
   -0.8092   -8.7159    1.4415 C   0  0  0  0  0  0  0  0  0  0  0  0
   -1.8150   -7.5783    1.3748 C   0  0  0  0  0  0  0  0  0  0  0  0
   -2.6494   -6.6345    1.3194 N   0  0  0  0  0  0  0  0  0  0  0  0
    2.9701   -4.6937   -0.7152 C   0  0  0  0  0  0  0  0  0  0  0  0
    3.4115   -3.3632   -0.7748 C   0  0  0  0  0  0  0  0  0  0  0  0
    0.5857   -0.4865   -0.2042 H   0  0  0  0  0  0  0  0  0  0  0  0
    0.8781    1.0884   -0.9046 H   0  0  0  0  0  0  0  0  0  0  0  0
    0.7827    0.9075    0.8641 H   0  0  0  0  0  0  0  0  0  0  0  0
    5.3620    3.1706   -0.0185 H   0  0  0  0  0  0  0  0  0  0  0  0
    6.0185    5.9452    0.6477 H   0  0  0  0  0  0  0  0  0  0  0  0
    5.1366    5.1331    1.9404 H   0  0  0  0  0  0  0  0  0  0  0  0
    4.8466    7.5976    2.1322 H   0  0  0  0  0  0  0  0  0  0  0  0
    3.2905    6.8014    1.8143 H   0  0  0  0  0  0  0  0  0  0  0  0
    3.3794    7.4176   -2.1945 H   0  0  0  0  0  0  0  0  0  0  0  0
    2.3551    6.6891   -0.9384 H   0  0  0  0  0  0  0  0  0  0  0  0
    3.7843    4.9745   -2.0331 H   0  0  0  0  0  0  0  0  0  0  0  0
    5.2511    5.8529   -1.6076 H   0  0  0  0  0  0  0  0  0  0  0  0
    4.8979   -2.8305    1.5445 H   0  0  0  0  0  0  0  0  0  0  0  0
    6.7549   -4.4112    1.5682 H   0  0  0  0  0  0  0  0  0  0  0  0
    9.0433   -1.8199   -0.9758 H   0  0  0  0  0  0  0  0  0  0  0  0
    1.1676   -1.9828    1.3753 H   0  0  0  0  0  0  0  0  0  0  0  0
    0.2902   -4.2617    1.3249 H   0  0  0  0  0  0  0  0  0  0  0  0
    0.7911   -9.5590    0.2705 H   0  0  0  0  0  0  0  0  0  0  0  0
   -0.5011   -8.8459   -0.6963 H   0  0  0  0  0  0  0  0  0  0  0  0
   -0.2204   -8.6125    2.3605 H   0  0  0  0  0  0  0  0  0  0  0  0
   -1.3530   -9.6654    1.4979 H   0  0  0  0  0  0  0  0  0  0  0  0
    3.5062   -5.4637   -1.2657 H   0  0  0  0  0  0  0  0  0  0  0  0
    4.2656   -3.1432   -1.4115 H   0  0  0  0  0  0  0  0  0  0  0  0
  1  2  1  0  0  0  0
  1 38  1  0  0  0  0
  1 39  1  0  0  0  0
  1 40  1  0  0  0  0
  2 25  2  0  0  0  0
  2  3  1  0  0  0  0
  3  4  1  0  0  0  0
  3 15  2  0  0  0  0
  4  5  2  0  0  0  0
  4  6  1  0  0  0  0
  6  7  1  0  0  0  0
  6 41  1  0  0  0  0
  7 14  1  0  0  0  0
  7  8  1  0  0  0  0
  8  9  1  0  0  0  0
  8 42  1  0  0  0  0
  8 43  1  0  0  0  0
  9 10  1  0  0  0  0
  9 44  1  0  0  0  0
  9 45  1  0  0  0  0
 10 11  2  0  0  0  0
 10 12  2  0  0  0  0
 10 13  1  0  0  0  0
 13 14  1  0  0  0  0
 13 46  1  0  0  0  0
 13 47  1  0  0  0  0
 14 48  1  0  0  0  0
 14 49  1  0  0  0  0
 15 16  1  0  0  0  0
 16 17  1  0  0  0  0
 16 25  1  0  0  0  0
 17 23  2  0  0  0  0
 17 18  1  0  0  0  0
 18 19  2  0  0  0  0
 18 50  1  0  0  0  0
 19 20  1  0  0  0  0
 19 51  1  0  0  0  0
 20 21  1  0  0  0  0
 20 22  2  0  0  0  0
 22 23  1  0  0  0  0
 22 52  1  0  0  0  0
 23 24  1  0  0  0  0
 25 26  1  0  0  0  0
 26 37  2  0  0  0  0
 26 27  1  0  0  0  0
 27 28  2  0  0  0  0
 27 53  1  0  0  0  0
 28 29  1  0  0  0  0
 28 54  1  0  0  0  0
 29 30  1  0  0  0  0
 29 36  2  0  0  0  0
 30 31  3  0  0  0  0
 31 32  1  0  0  0  0
 32 33  1  0  0  0  0
 32 55  1  0  0  0  0
 32 56  1  0  0  0  0
 33 34  1  0  0  0  0
 33 57  1  0  0  0  0
 33 58  1  0  0  0  0
 34 35  3  0  0  0  0
 36 37  1  0  0  0  0
 36 59  1  0  0  0  0
 37 60  1  0  0  0  0
M  END
$$$$
CHEMBL522165	5TGZ	best_smi
 OpenBabel12022417383D

 62 65  0  0  0  0  0  0  0  0999 V2000
    1.0255    0.2857   -0.0029 C   0  0  0  0  0  0  0  0  0  0  0  0
    2.5122    0.1931   -0.0525 C   0  0  0  0  0  0  0  0  0  0  0  0
    3.5234    1.2233   -0.0275 C   0  0  0  0  0  0  0  0  0  0  0  0
    3.3469    2.7260   -0.0210 C   0  0  0  0  0  0  0  0  0  0  0  0
    2.2567    3.2354   -0.0651 O   0  0  0  0  0  0  0  0  0  0  0  0
    4.5636    3.4635    0.0288 N   0  0  0  0  0  0  0  0  0  0  0  0
    4.6439    4.9047    0.0881 N   0  0  0  0  0  0  0  0  0  0  0  0
    4.2696    5.5977   -1.1547 C   0  0  0  0  0  0  0  0  0  0  0  0
    4.5861    7.1005   -1.0749 C   0  0  0  0  0  0  0  0  0  0  0  0
    3.9160    7.7471    0.1340 C   0  0  0  0  0  0  0  0  0  0  0  0
    4.2529    6.9720    1.4021 C   0  0  0  0  0  0  0  0  0  0  0  0
    3.9528    5.4757    1.2519 C   0  0  0  0  0  0  0  0  0  0  0  0
    4.7472    0.6673    0.0137 N   0  0  0  0  0  0  0  0  0  0  0  0
    4.5671   -0.6775   -0.0752 N   0  0  0  0  0  0  0  0  0  0  0  0
    5.6733   -1.5861   -0.0447 C   0  0  0  0  0  0  0  0  0  0  0  0
    5.5581   -2.7944    0.6715 C   0  0  0  0  0  0  0  0  0  0  0  0
    6.6324   -3.6711    0.8206 C   0  0  0  0  0  0  0  0  0  0  0  0
    7.8519   -3.3355    0.2605 C   0  0  0  0  0  0  0  0  0  0  0  0
    9.2052   -4.3667    0.5077 Cl  0  0  0  0  0  0  0  0  0  0  0  0
    7.9954   -2.1532   -0.4625 C   0  0  0  0  0  0  0  0  0  0  0  0
    6.9150   -1.2679   -0.6153 C   0  0  0  0  0  0  0  0  0  0  0  0
    7.2448    0.2163   -1.4282 Cl  0  0  0  0  0  0  0  0  0  0  0  0
    3.2247   -0.9985   -0.0759 C   0  0  0  0  0  0  0  0  0  0  0  0
    2.7047   -2.3333   -0.0337 C   0  0  0  0  0  0  0  0  0  0  0  0
    3.1817   -3.4803   -0.6294 C   0  0  0  0  0  0  0  0  0  0  0  0
    2.5036   -4.6386   -0.1408 C   0  0  0  0  0  0  0  0  0  0  0  0
    1.5232   -4.2968    0.7468 C   0  0  0  0  0  0  0  0  0  0  0  0
    0.6777   -5.1448    1.4506 C   0  0  0  0  0  0  0  0  0  0  0  0
   -0.1598   -5.9296    2.0693 C   0  0  0  0  0  0  0  0  0  0  0  0
   -1.1362   -6.8444    2.7905 C   0  0  0  0  0  0  0  0  0  0  0  0
   -2.0708   -7.4910    1.7609 C   0  0  0  0  0  0  0  0  0  0  0  0
   -0.3490   -7.9300    3.5346 C   0  0  0  0  0  0  0  0  0  0  0  0
   -1.9537   -6.0161    3.7893 C   0  0  0  0  0  0  0  0  0  0  0  0
    1.3751   -2.6522    0.9812 S   0  0  0  0  0  0  0  0  0  0  0  0
    0.5325   -0.6876    0.0064 H   0  0  0  0  0  0  0  0  0  0  0  0
    0.6067    0.7607   -0.8908 H   0  0  0  0  0  0  0  0  0  0  0  0
    0.6835    0.7757    0.9115 H   0  0  0  0  0  0  0  0  0  0  0  0
    5.4363    2.9604    0.0751 H   0  0  0  0  0  0  0  0  0  0  0  0
    3.1983    5.4897   -1.3622 H   0  0  0  0  0  0  0  0  0  0  0  0
    4.8198    5.1771   -2.0062 H   0  0  0  0  0  0  0  0  0  0  0  0
    4.2446    7.6025   -1.9887 H   0  0  0  0  0  0  0  0  0  0  0  0
    5.6718    7.2547   -1.0152 H   0  0  0  0  0  0  0  0  0  0  0  0
    2.8285    7.7619   -0.0103 H   0  0  0  0  0  0  0  0  0  0  0  0
    4.2373    8.7910    0.2323 H   0  0  0  0  0  0  0  0  0  0  0  0
    3.6819    7.3799    2.2438 H   0  0  0  0  0  0  0  0  0  0  0  0
    5.3144    7.1152    1.6397 H   0  0  0  0  0  0  0  0  0  0  0  0
    4.2883    4.9686    2.1631 H   0  0  0  0  0  0  0  0  0  0  0  0
    2.8722    5.3257    1.1682 H   0  0  0  0  0  0  0  0  0  0  0  0
    4.6398   -3.0762    1.1716 H   0  0  0  0  0  0  0  0  0  0  0  0
    6.5128   -4.5781    1.4079 H   0  0  0  0  0  0  0  0  0  0  0  0
    8.9729   -1.8853   -0.8554 H   0  0  0  0  0  0  0  0  0  0  0  0
    4.0488   -3.5208   -1.2758 H   0  0  0  0  0  0  0  0  0  0  0  0
    2.7332   -5.6513   -0.4195 H   0  0  0  0  0  0  0  0  0  0  0  0
   -1.5086   -8.0801    1.0268 H   0  0  0  0  0  0  0  0  0  0  0  0
   -2.6374   -6.7340    1.2060 H   0  0  0  0  0  0  0  0  0  0  0  0
   -2.7912   -8.1596    2.2456 H   0  0  0  0  0  0  0  0  0  0  0  0
    0.2544   -8.5296    2.8430 H   0  0  0  0  0  0  0  0  0  0  0  0
   -1.0218   -8.6108    4.0684 H   0  0  0  0  0  0  0  0  0  0  0  0
    0.3366   -7.4922    4.2697 H   0  0  0  0  0  0  0  0  0  0  0  0
   -2.5174   -5.2237    3.2828 H   0  0  0  0  0  0  0  0  0  0  0  0
   -1.3063   -5.5326    4.5304 H   0  0  0  0  0  0  0  0  0  0  0  0
   -2.6709   -6.6438    4.3302 H   0  0  0  0  0  0  0  0  0  0  0  0
  1  2  1  0  0  0  0
  1 35  1  0  0  0  0
  1 36  1  0  0  0  0
  1 37  1  0  0  0  0
  2 23  2  0  0  0  0
  2  3  1  0  0  0  0
  3  4  1  0  0  0  0
  3 13  2  0  0  0  0
  4  5  2  0  0  0  0
  4  6  1  0  0  0  0
  6  7  1  0  0  0  0
  6 38  1  0  0  0  0
  7 12  1  0  0  0  0
  7  8  1  0  0  0  0
  8  9  1  0  0  0  0
  8 39  1  0  0  0  0
  8 40  1  0  0  0  0
  9 10  1  0  0  0  0
  9 41  1  0  0  0  0
  9 42  1  0  0  0  0
 10 11  1  0  0  0  0
 10 43  1  0  0  0  0
 10 44  1  0  0  0  0
 11 12  1  0  0  0  0
 11 45  1  0  0  0  0
 11 46  1  0  0  0  0
 12 47  1  0  0  0  0
 12 48  1  0  0  0  0
 13 14  1  0  0  0  0
 14 15  1  0  0  0  0
 14 23  1  0  0  0  0
 15 21  2  0  0  0  0
 15 16  1  0  0  0  0
 16 17  2  0  0  0  0
 16 49  1  0  0  0  0
 17 18  1  0  0  0  0
 17 50  1  0  0  0  0
 18 19  1  0  0  0  0
 18 20  2  0  0  0  0
 20 21  1  0  0  0  0
 20 51  1  0  0  0  0
 21 22  1  0  0  0  0
 23 24  1  0  0  0  0
 24 34  1  0  0  0  0
 24 25  2  0  0  0  0
 25 26  1  0  0  0  0
 25 52  1  0  0  0  0
 26 27  2  0  0  0  0
 26 53  1  0  0  0  0
 27 28  1  0  0  0  0
 27 34  1  0  0  0  0
 28 29  3  0  0  0  0
 29 30  1  0  0  0  0
 30 31  1  0  0  0  0
 30 32  1  0  0  0  0
 30 33  1  0  0  0  0
 31 54  1  0  0  0  0
 31 55  1  0  0  0  0
 31 56  1  0  0  0  0
 32 57  1  0  0  0  0
 32 58  1  0  0  0  0
 32 59  1  0  0  0  0
 33 60  1  0  0  0  0
 33 61  1  0  0  0  0
 33 62  1  0  0  0  0
M  END
$$$$
CHEMBL461216	5TGZ	best_smi
 OpenBabel12022417383D

 51 54  0  0  0  0  0  0  0  0999 V2000
    1.2166    0.3443   -0.0786 C   0  0  0  0  0  0  0  0  0  0  0  0
    2.6868    0.0902   -0.0174 C   0  0  0  0  0  0  0  0  0  0  0  0
    3.6938    1.1085    0.0260 C   0  0  0  0  0  0  0  0  0  0  0  0
    3.5174    2.5853    0.0891 C   0  0  0  0  0  0  0  0  0  0  0  0
    2.4112    3.1211    0.0205 O   0  0  0  0  0  0  0  0  0  0  0  0
    4.7241    3.2699    0.2404 N   0  0  0  0  0  0  0  0  0  0  0  0
    4.8585    4.6837    0.3606 N   0  0  0  0  0  0  0  0  0  0  0  0
    4.6409    5.3990   -0.8949 C   0  0  0  0  0  0  0  0  0  0  0  0
    5.5358    6.6425   -1.0126 C   0  0  0  0  0  0  0  0  0  0  0  0
    5.0603    7.8752   -0.2548 C   0  0  0  0  0  0  0  0  0  0  0  0
    4.9067    7.6855    1.2452 C   0  0  0  0  0  0  0  0  0  0  0  0
    3.8053    6.6940    1.5968 C   0  0  0  0  0  0  0  0  0  0  0  0
    4.2362    5.2221    1.5738 C   0  0  0  0  0  0  0  0  0  0  0  0
    4.9163    0.5594    0.0291 N   0  0  0  0  0  0  0  0  0  0  0  0
    4.7358   -0.7858   -0.0036 N   0  0  0  0  0  0  0  0  0  0  0  0
    5.8896   -1.6317    0.0508 C   0  0  0  0  0  0  0  0  0  0  0  0
    5.8370   -2.8336    0.7816 C   0  0  0  0  0  0  0  0  0  0  0  0
    6.9283   -3.7059    0.8149 C   0  0  0  0  0  0  0  0  0  0  0  0
    8.1056   -3.3620    0.1641 C   0  0  0  0  0  0  0  0  0  0  0  0
    9.4529   -4.4287    0.2158 Cl  0  0  0  0  0  0  0  0  0  0  0  0
    8.1977   -2.1583   -0.5268 C   0  0  0  0  0  0  0  0  0  0  0  0
    7.0957   -1.2916   -0.5943 C   0  0  0  0  0  0  0  0  0  0  0  0
    7.3172    0.0974   -1.6070 Cl  0  0  0  0  0  0  0  0  0  0  0  0
    3.3776   -1.1248    0.0134 C   0  0  0  0  0  0  0  0  0  0  0  0
    2.8382   -2.4726    0.0145 C   0  0  0  0  0  0  0  0  0  0  0  0
    3.2433   -3.5669   -0.7364 C   0  0  0  0  0  0  0  0  0  0  0  0
    2.5946   -4.7814   -0.3454 C   0  0  0  0  0  0  0  0  0  0  0  0
    1.6442   -4.5448    0.6123 C   0  0  0  0  0  0  0  0  0  0  0  0
    0.5400   -5.8782    1.3276 Br  0  0  0  0  0  0  0  0  0  0  0  0
    1.5826   -2.9291    1.1056 S   0  0  0  0  0  0  0  0  0  0  0  0
    0.6303   -0.5713   -0.1770 H   0  0  0  0  0  0  0  0  0  0  0  0
    0.9743    0.9640   -0.9482 H   0  0  0  0  0  0  0  0  0  0  0  0
    0.8811    0.8634    0.8248 H   0  0  0  0  0  0  0  0  0  0  0  0
    5.5671    2.6952    0.2384 H   0  0  0  0  0  0  0  0  0  0  0  0
    3.5845    5.6424   -1.0558 H   0  0  0  0  0  0  0  0  0  0  0  0
    4.9349    4.7448   -1.7278 H   0  0  0  0  0  0  0  0  0  0  0  0
    5.6054    6.9141   -2.0741 H   0  0  0  0  0  0  0  0  0  0  0  0
    6.5599    6.3993   -0.6998 H   0  0  0  0  0  0  0  0  0  0  0  0
    4.1093    8.2234   -0.6834 H   0  0  0  0  0  0  0  0  0  0  0  0
    5.7802    8.6877   -0.4293 H   0  0  0  0  0  0  0  0  0  0  0  0
    4.6431    8.6611    1.6778 H   0  0  0  0  0  0  0  0  0  0  0  0
    5.8594    7.3913    1.6979 H   0  0  0  0  0  0  0  0  0  0  0  0
    2.9345    6.8460    0.9480 H   0  0  0  0  0  0  0  0  0  0  0  0
    3.4625    6.9174    2.6158 H   0  0  0  0  0  0  0  0  0  0  0  0
    4.9453    5.0635    2.3966 H   0  0  0  0  0  0  0  0  0  0  0  0
    3.3434    4.6455    1.8397 H   0  0  0  0  0  0  0  0  0  0  0  0
    4.9627   -3.1117    1.3650 H   0  0  0  0  0  0  0  0  0  0  0  0
    6.8520   -4.6443    1.3598 H   0  0  0  0  0  0  0  0  0  0  0  0
    9.1255   -1.9004   -1.0332 H   0  0  0  0  0  0  0  0  0  0  0  0
    4.0241   -3.5292   -1.4873 H   0  0  0  0  0  0  0  0  0  0  0  0
    2.8176   -5.7601   -0.7542 H   0  0  0  0  0  0  0  0  0  0  0  0
  1  2  1  0  0  0  0
  1 31  1  0  0  0  0
  1 32  1  0  0  0  0
  1 33  1  0  0  0  0
  2 24  2  0  0  0  0
  2  3  1  0  0  0  0
  3  4  1  0  0  0  0
  3 14  2  0  0  0  0
  4  5  2  0  0  0  0
  4  6  1  0  0  0  0
  6  7  1  0  0  0  0
  6 34  1  0  0  0  0
  7 13  1  0  0  0  0
  7  8  1  0  0  0  0
  8  9  1  0  0  0  0
  8 35  1  0  0  0  0
  8 36  1  0  0  0  0
  9 10  1  0  0  0  0
  9 37  1  0  0  0  0
  9 38  1  0  0  0  0
 10 11  1  0  0  0  0
 10 39  1  0  0  0  0
 10 40  1  0  0  0  0
 11 12  1  0  0  0  0
 11 41  1  0  0  0  0
 11 42  1  0  0  0  0
 12 13  1  0  0  0  0
 12 43  1  0  0  0  0
 12 44  1  0  0  0  0
 13 45  1  0  0  0  0
 13 46  1  0  0  0  0
 14 15  1  0  0  0  0
 15 16  1  0  0  0  0
 15 24  1  0  0  0  0
 16 22  2  0  0  0  0
 16 17  1  0  0  0  0
 17 18  2  0  0  0  0
 17 47  1  0  0  0  0
 18 19  1  0  0  0  0
 18 48  1  0  0  0  0
 19 20  1  0  0  0  0
 19 21  2  0  0  0  0
 21 22  1  0  0  0  0
 21 49  1  0  0  0  0
 22 23  1  0  0  0  0
 24 25  1  0  0  0  0
 25 30  1  0  0  0  0
 25 26  2  0  0  0  0
 26 27  1  0  0  0  0
 26 50  1  0  0  0  0
 27 28  2  0  0  0  0
 27 51  1  0  0  0  0
 28 29  1  0  0  0  0
 28 30  1  0  0  0  0
M  END
$$$$
CHEMBL286188	5TGZ	best_smi
 OpenBabel12022417383D

 51 54  0  0  0  0  0  0  0  0999 V2000
    1.0759    0.4713   -0.0774 C   0  0  0  0  0  0  0  0  0  0  0  0
    2.5442    0.2176   -0.0226 C   0  0  0  0  0  0  0  0  0  0  0  0
    3.5468    1.2366   -0.0310 C   0  0  0  0  0  0  0  0  0  0  0  0
    3.3664    2.7203   -0.0767 C   0  0  0  0  0  0  0  0  0  0  0  0
    2.2586    3.2467   -0.1299 O   0  0  0  0  0  0  0  0  0  0  0  0
    4.5781    3.4139   -0.0472 N   0  0  0  0  0  0  0  0  0  0  0  0
    4.7348    4.8297   -0.0282 N   0  0  0  0  0  0  0  0  0  0  0  0
    4.4125    5.4692   -1.3114 C   0  0  0  0  0  0  0  0  0  0  0  0
    4.8066    6.9521   -1.2985 C   0  0  0  0  0  0  0  0  0  0  0  0
    4.1684    7.6982   -0.1335 C   0  0  0  0  0  0  0  0  0  0  0  0
    4.4427    6.9712    1.1840 C   0  0  0  0  0  0  0  0  0  0  0  0
    4.0563    5.4877    1.0977 C   0  0  0  0  0  0  0  0  0  0  0  0
    4.7670    0.7009    0.0097 N   0  0  0  0  0  0  0  0  0  0  0  0
    4.5946   -0.6488    0.0213 N   0  0  0  0  0  0  0  0  0  0  0  0
    5.7551   -1.4846    0.1164 C   0  0  0  0  0  0  0  0  0  0  0  0
    5.6979   -2.6694    0.8754 C   0  0  0  0  0  0  0  0  0  0  0  0
    6.7819   -3.5518    0.9134 C   0  0  0  0  0  0  0  0  0  0  0  0
    7.9558   -3.2318    0.2430 C   0  0  0  0  0  0  0  0  0  0  0  0
    9.2913   -4.3137    0.2926 Cl  0  0  0  0  0  0  0  0  0  0  0  0
    8.0533   -2.0419   -0.4709 C   0  0  0  0  0  0  0  0  0  0  0  0
    6.9594   -1.1657   -0.5435 C   0  0  0  0  0  0  0  0  0  0  0  0
    7.1836    0.1983   -1.5897 Cl  0  0  0  0  0  0  0  0  0  0  0  0
    3.2312   -1.0036    0.0073 C   0  0  0  0  0  0  0  0  0  0  0  0
    2.6850   -2.3876   -0.0569 C   0  0  0  0  0  0  0  0  0  0  0  0
    1.5394   -2.7438    0.6745 C   0  0  0  0  0  0  0  0  0  0  0  0
    1.0261   -4.0486    0.6454 C   0  0  0  0  0  0  0  0  0  0  0  0
    1.6927   -5.0383   -0.0670 C   0  0  0  0  0  0  0  0  0  0  0  0
    1.0517   -6.8154   -0.0438 Br  0  0  0  0  0  0  0  0  0  0  0  0
    2.8338   -4.7205   -0.7937 C   0  0  0  0  0  0  0  0  0  0  0  0
    3.2920   -3.3958   -0.8283 C   0  0  0  0  0  0  0  0  0  0  0  0
    0.4884   -0.4421   -0.1857 H   0  0  0  0  0  0  0  0  0  0  0  0
    0.8267    1.1029   -0.9349 H   0  0  0  0  0  0  0  0  0  0  0  0
    0.7462    0.9753    0.8377 H   0  0  0  0  0  0  0  0  0  0  0  0
    5.4182    2.8362   -0.0053 H   0  0  0  0  0  0  0  0  0  0  0  0
    3.3440    5.3768   -1.5407 H   0  0  0  0  0  0  0  0  0  0  0  0
    4.9656    4.9788   -2.1213 H   0  0  0  0  0  0  0  0  0  0  0  0
    4.5107    7.4259   -2.2427 H   0  0  0  0  0  0  0  0  0  0  0  0
    5.8988    7.0440   -1.2297 H   0  0  0  0  0  0  0  0  0  0  0  0
    3.0854    7.7739   -0.2928 H   0  0  0  0  0  0  0  0  0  0  0  0
    4.5551    8.7228   -0.0818 H   0  0  0  0  0  0  0  0  0  0  0  0
    3.8835    7.4530    1.9926 H   0  0  0  0  0  0  0  0  0  0  0  0
    5.5061    7.0608    1.4295 H   0  0  0  0  0  0  0  0  0  0  0  0
    4.3474    5.0056    2.0380 H   0  0  0  0  0  0  0  0  0  0  0  0
    2.9667    5.4072    1.0083 H   0  0  0  0  0  0  0  0  0  0  0  0
    4.8143   -2.9338    1.4529 H   0  0  0  0  0  0  0  0  0  0  0  0
    6.6997   -4.4845    1.4671 H   0  0  0  0  0  0  0  0  0  0  0  0
    8.9761   -1.8058   -0.9967 H   0  0  0  0  0  0  0  0  0  0  0  0
    1.0216   -2.0113    1.2888 H   0  0  0  0  0  0  0  0  0  0  0  0
    0.1160   -4.2800    1.1936 H   0  0  0  0  0  0  0  0  0  0  0  0
    3.3775   -5.4918   -1.3343 H   0  0  0  0  0  0  0  0  0  0  0  0
    4.1636   -3.1829   -1.4432 H   0  0  0  0  0  0  0  0  0  0  0  0
  1  2  1  0  0  0  0
  1 31  1  0  0  0  0
  1 32  1  0  0  0  0
  1 33  1  0  0  0  0
  2 23  2  0  0  0  0
  2  3  1  0  0  0  0
  3  4  1  0  0  0  0
  3 13  2  0  0  0  0
  4  5  2  0  0  0  0
  4  6  1  0  0  0  0
  6  7  1  0  0  0  0
  6 34  1  0  0  0  0
  7 12  1  0  0  0  0
  7  8  1  0  0  0  0
  8  9  1  0  0  0  0
  8 35  1  0  0  0  0
  8 36  1  0  0  0  0
  9 10  1  0  0  0  0
  9 37  1  0  0  0  0
  9 38  1  0  0  0  0
 10 11  1  0  0  0  0
 10 39  1  0  0  0  0
 10 40  1  0  0  0  0
 11 12  1  0  0  0  0
 11 41  1  0  0  0  0
 11 42  1  0  0  0  0
 12 43  1  0  0  0  0
 12 44  1  0  0  0  0
 13 14  1  0  0  0  0
 14 15  1  0  0  0  0
 14 23  1  0  0  0  0
 15 21  2  0  0  0  0
 15 16  1  0  0  0  0
 16 17  2  0  0  0  0
 16 45  1  0  0  0  0
 17 18  1  0  0  0  0
 17 46  1  0  0  0  0
 18 19  1  0  0  0  0
 18 20  2  0  0  0  0
 20 21  1  0  0  0  0
 20 47  1  0  0  0  0
 21 22  1  0  0  0  0
 23 24  1  0  0  0  0
 24 30  2  0  0  0  0
 24 25  1  0  0  0  0
 25 26  2  0  0  0  0
 25 48  1  0  0  0  0
 26 27  1  0  0  0  0
 26 49  1  0  0  0  0
 27 28  1  0  0  0  0
 27 29  2  0  0  0  0
 29 30  1  0  0  0  0
 29 50  1  0  0  0  0
 30 51  1  0  0  0  0
M  END
$$$$
CHEMBL460573	5TGZ	best_smi
 OpenBabel12022417383D

 56 59  0  0  0  0  0  0  0  0999 V2000
    3.0859    5.7295    4.7859 C   0  0  0  0  0  0  0  0  0  0  0  0
    1.9704    4.7036    4.6896 C   0  0  0  0  0  0  0  0  0  0  0  0
    2.5387    3.3040    4.8587 C   0  0  0  0  0  0  0  0  0  0  0  0
    3.0262    2.1035    5.0037 C   0  0  0  0  0  0  0  0  0  0  0  0
    3.6145    0.8190    5.2211 C   0  0  0  0  0  0  0  0  0  0  0  0
    4.0044   -0.1031    4.2812 C   0  0  0  0  0  0  0  0  0  0  0  0
    4.4998   -1.3104    4.8829 C   0  0  0  0  0  0  0  0  0  0  0  0
    4.4858   -1.2628    6.2725 C   0  0  0  0  0  0  0  0  0  0  0  0
    4.8695   -2.2811    7.2445 C   0  0  0  0  0  0  0  0  0  0  0  0
    4.2569   -2.6240    8.4660 C   0  0  0  0  0  0  0  0  0  0  0  0
    3.0948   -1.9703    9.1258 C   0  0  0  0  0  0  0  0  0  0  0  0
    4.9363   -3.8343    8.8943 C   0  0  0  0  0  0  0  0  0  0  0  0
    4.6259   -4.6788   10.0979 C   0  0  0  0  0  0  0  0  0  0  0  0
    3.7377   -4.3705   10.8684 O   0  0  0  0  0  0  0  0  0  0  0  0
    5.4369   -5.8281   10.2863 N   0  0  0  0  0  0  0  0  0  0  0  0
    5.2667   -6.7848   11.3993 N   0  0  0  0  0  0  0  0  0  0  0  0
    5.5227   -6.1588   12.7117 C   0  0  0  0  0  0  0  0  0  0  0  0
    5.4112   -7.1376   13.8822 C   0  0  0  0  0  0  0  0  0  0  0  0
    4.0441   -7.8108   13.9270 C   0  0  0  0  0  0  0  0  0  0  0  0
    3.7361   -8.4289   12.5729 C   0  0  0  0  0  0  0  0  0  0  0  0
    3.9233   -7.4197   11.4205 C   0  0  0  0  0  0  0  0  0  0  0  0
    5.8905   -4.1612    8.0495 N   0  0  0  0  0  0  0  0  0  0  0  0
    5.8523   -3.2344    7.0427 N   0  0  0  0  0  0  0  0  0  0  0  0
    6.7695   -3.3300    5.9605 C   0  0  0  0  0  0  0  0  0  0  0  0
    7.2176   -2.1559    5.3232 C   0  0  0  0  0  0  0  0  0  0  0  0
    8.0701   -2.2193    4.2296 C   0  0  0  0  0  0  0  0  0  0  0  0
    8.5167   -3.4568    3.7896 C   0  0  0  0  0  0  0  0  0  0  0  0
    9.6099   -3.5437    2.4617 Cl  0  0  0  0  0  0  0  0  0  0  0  0
    8.0922   -4.6284    4.4098 C   0  0  0  0  0  0  0  0  0  0  0  0
    7.2188   -4.5782    5.4967 C   0  0  0  0  0  0  0  0  0  0  0  0
    6.6591   -6.1031    6.0887 Cl  0  0  0  0  0  0  0  0  0  0  0  0
    3.9552    0.2874    6.7959 S   0  0  0  0  0  0  0  0  0  0  0  0
    2.6885    6.7416    4.6656 H   0  0  0  0  0  0  0  0  0  0  0  0
    3.8409    5.5630    4.0096 H   0  0  0  0  0  0  0  0  0  0  0  0
    3.5899    5.6720    5.7570 H   0  0  0  0  0  0  0  0  0  0  0  0
    1.4736    4.7758    3.7165 H   0  0  0  0  0  0  0  0  0  0  0  0
    1.2220    4.8851    5.4681 H   0  0  0  0  0  0  0  0  0  0  0  0
    3.9126    0.0499    3.2084 H   0  0  0  0  0  0  0  0  0  0  0  0
    4.8580   -2.1431    4.2946 H   0  0  0  0  0  0  0  0  0  0  0  0
    2.7282   -1.0924    8.5900 H   0  0  0  0  0  0  0  0  0  0  0  0
    3.3455   -1.6294   10.1352 H   0  0  0  0  0  0  0  0  0  0  0  0
    2.2375   -2.6488    9.1851 H   0  0  0  0  0  0  0  0  0  0  0  0
    6.2885   -5.8762    9.7359 H   0  0  0  0  0  0  0  0  0  0  0  0
    4.8178   -5.3345   12.8652 H   0  0  0  0  0  0  0  0  0  0  0  0
    6.5359   -5.7343   12.7389 H   0  0  0  0  0  0  0  0  0  0  0  0
    5.5866   -6.6038   14.8234 H   0  0  0  0  0  0  0  0  0  0  0  0
    6.1906   -7.9051   13.8016 H   0  0  0  0  0  0  0  0  0  0  0  0
    3.2786   -7.0705   14.1881 H   0  0  0  0  0  0  0  0  0  0  0  0
    4.0287   -8.5721   14.7171 H   0  0  0  0  0  0  0  0  0  0  0  0
    2.7037   -8.8005   12.5825 H   0  0  0  0  0  0  0  0  0  0  0  0
    4.3818   -9.3025   12.4190 H   0  0  0  0  0  0  0  0  0  0  0  0
    3.7361   -7.9444   10.4764 H   0  0  0  0  0  0  0  0  0  0  0  0
    3.1554   -6.6485   11.5230 H   0  0  0  0  0  0  0  0  0  0  0  0
    6.8821   -1.1696    5.6308 H   0  0  0  0  0  0  0  0  0  0  0  0
    8.3963   -1.3027    3.7381 H   0  0  0  0  0  0  0  0  0  0  0  0
    8.4256   -5.5930    4.0308 H   0  0  0  0  0  0  0  0  0  0  0  0
  1  2  1  0  0  0  0
  1 33  1  0  0  0  0
  1 34  1  0  0  0  0
  1 35  1  0  0  0  0
  2  3  1  0  0  0  0
  2 36  1  0  0  0  0
  2 37  1  0  0  0  0
  3  4  3  0  0  0  0
  4  5  1  0  0  0  0
  5 32  1  0  0  0  0
  5  6  2  0  0  0  0
  6  7  1  0  0  0  0
  6 38  1  0  0  0  0
  7  8  2  0  0  0  0
  7 39  1  0  0  0  0
  8  9  1  0  0  0  0
  8 32  1  0  0  0  0
  9 23  1  0  0  0  0
  9 10  2  0  0  0  0
 10 11  1  0  0  0  0
 10 12  1  0  0  0  0
 11 40  1  0  0  0  0
 11 41  1  0  0  0  0
 11 42  1  0  0  0  0
 12 13  1  0  0  0  0
 12 22  2  0  0  0  0
 13 14  2  0  0  0  0
 13 15  1  0  0  0  0
 15 16  1  0  0  0  0
 15 43  1  0  0  0  0
 16 21  1  0  0  0  0
 16 17  1  0  0  0  0
 17 18  1  0  0  0  0
 17 44  1  0  0  0  0
 17 45  1  0  0  0  0
 18 19  1  0  0  0  0
 18 46  1  0  0  0  0
 18 47  1  0  0  0  0
 19 20  1  0  0  0  0
 19 48  1  0  0  0  0
 19 49  1  0  0  0  0
 20 21  1  0  0  0  0
 20 50  1  0  0  0  0
 20 51  1  0  0  0  0
 21 52  1  0  0  0  0
 21 53  1  0  0  0  0
 22 23  1  0  0  0  0
 23 24  1  0  0  0  0
 24 30  2  0  0  0  0
 24 25  1  0  0  0  0
 25 26  2  0  0  0  0
 25 54  1  0  0  0  0
 26 27  1  0  0  0  0
 26 55  1  0  0  0  0
 27 28  1  0  0  0  0
 27 29  2  0  0  0  0
 29 30  1  0  0  0  0
 29 56  1  0  0  0  0
 30 31  1  0  0  0  0
M  END
$$$$
CHEMBL484505	5TGZ	best_smi
 OpenBabel12022417383D

 54 57  0  0  0  0  0  0  0  0999 V2000
   -1.2993   -3.1589    1.0501 C   0  0  0  0  0  0  0  0  0  0  0  0
   -1.2131   -1.7109    0.6475 C   0  0  0  0  0  0  0  0  0  0  0  0
    0.0997   -1.1681    0.6812 C   0  0  0  0  0  0  0  0  0  0  0  0
    0.3516    0.1408    0.2878 C   0  0  0  0  0  0  0  0  0  0  0  0
    1.9627    0.7405    0.2660 Cl  0  0  0  0  0  0  0  0  0  0  0  0
   -0.7014    0.9562   -0.0865 C   0  0  0  0  0  0  0  0  0  0  0  0
   -2.0111    0.4591   -0.0447 C   0  0  0  0  0  0  0  0  0  0  0  0
   -2.3018   -0.8930    0.2615 C   0  0  0  0  0  0  0  0  0  0  0  0
   -3.7177   -1.3718    0.1353 C   0  0  0  0  0  0  0  0  0  0  0  0
   -4.5023   -2.0874    1.0498 C   0  0  0  0  0  0  0  0  0  0  0  0
   -4.1429   -2.6287    2.3906 C   0  0  0  0  0  0  0  0  0  0  0  0
   -5.8047   -2.2014    0.4686 C   0  0  0  0  0  0  0  0  0  0  0  0
   -6.9970   -2.9052    1.0315 C   0  0  0  0  0  0  0  0  0  0  0  0
   -6.9278   -3.5798    2.0554 O   0  0  0  0  0  0  0  0  0  0  0  0
   -8.1592   -2.7044    0.2925 N   0  0  0  0  0  0  0  0  0  0  0  0
   -9.3708   -3.3468    0.6546 N   0  0  0  0  0  0  0  0  0  0  0  0
  -10.4208   -2.3769    0.9952 C   0  0  0  0  0  0  0  0  0  0  0  0
  -11.6991   -3.0794    1.4690 C   0  0  0  0  0  0  0  0  0  0  0  0
  -12.1965   -4.0988    0.4486 C   0  0  0  0  0  0  0  0  0  0  0  0
  -11.0713   -5.0447    0.0458 C   0  0  0  0  0  0  0  0  0  0  0  0
   -9.8178   -4.2771   -0.3905 C   0  0  0  0  0  0  0  0  0  0  0  0
   -5.8521   -1.5641   -0.7083 N   0  0  0  0  0  0  0  0  0  0  0  0
   -4.6168   -1.0340   -0.9061 N   0  0  0  0  0  0  0  0  0  0  0  0
   -4.3875   -0.2557   -2.0899 C   0  0  0  0  0  0  0  0  0  0  0  0
   -3.1371   -0.3260   -2.7318 C   0  0  0  0  0  0  0  0  0  0  0  0
   -2.8158    0.5495   -3.7744 C   0  0  0  0  0  0  0  0  0  0  0  0
   -3.7605    1.4619   -4.2271 C   0  0  0  0  0  0  0  0  0  0  0  0
   -3.3462    2.5814   -5.4650 Cl  0  0  0  0  0  0  0  0  0  0  0  0
   -5.0337    1.4878   -3.6672 C   0  0  0  0  0  0  0  0  0  0  0  0
   -5.3576    0.6326   -2.6019 C   0  0  0  0  0  0  0  0  0  0  0  0
   -6.9357    0.8778   -1.9273 Cl  0  0  0  0  0  0  0  0  0  0  0  0
   -2.2174   -3.6405    0.7063 H   0  0  0  0  0  0  0  0  0  0  0  0
   -1.2272   -3.2489    2.1403 H   0  0  0  0  0  0  0  0  0  0  0  0
   -0.4754   -3.7293    0.6081 H   0  0  0  0  0  0  0  0  0  0  0  0
    0.9334   -1.7882    1.0092 H   0  0  0  0  0  0  0  0  0  0  0  0
   -0.5177    1.9764   -0.4142 H   0  0  0  0  0  0  0  0  0  0  0  0
   -2.8077    1.1525   -0.3090 H   0  0  0  0  0  0  0  0  0  0  0  0
   -3.1787   -2.2610    2.7453 H   0  0  0  0  0  0  0  0  0  0  0  0
   -4.1092   -3.7235    2.3582 H   0  0  0  0  0  0  0  0  0  0  0  0
   -4.8822   -2.3279    3.1392 H   0  0  0  0  0  0  0  0  0  0  0  0
   -8.0875   -2.1342   -0.5494 H   0  0  0  0  0  0  0  0  0  0  0  0
  -10.6522   -1.7392    0.1323 H   0  0  0  0  0  0  0  0  0  0  0  0
  -10.0734   -1.7203    1.8018 H   0  0  0  0  0  0  0  0  0  0  0  0
  -12.4845   -2.3372    1.6562 H   0  0  0  0  0  0  0  0  0  0  0  0
  -11.5089   -3.5876    2.4229 H   0  0  0  0  0  0  0  0  0  0  0  0
  -12.5735   -3.5758   -0.4394 H   0  0  0  0  0  0  0  0  0  0  0  0
  -13.0355   -4.6680    0.8638 H   0  0  0  0  0  0  0  0  0  0  0  0
  -11.4108   -5.6930   -0.7700 H   0  0  0  0  0  0  0  0  0  0  0  0
  -10.8264   -5.6984    0.8916 H   0  0  0  0  0  0  0  0  0  0  0  0
   -9.0267   -5.0054   -0.6015 H   0  0  0  0  0  0  0  0  0  0  0  0
  -10.0223   -3.7382   -1.3248 H   0  0  0  0  0  0  0  0  0  0  0  0
   -2.3815   -1.0463   -2.4223 H   0  0  0  0  0  0  0  0  0  0  0  0
   -1.8209    0.5239   -4.2131 H   0  0  0  0  0  0  0  0  0  0  0  0
   -5.7673    2.2013   -4.0354 H   0  0  0  0  0  0  0  0  0  0  0  0
  1  2  1  0  0  0  0
  1 32  1  0  0  0  0
  1 33  1  0  0  0  0
  1 34  1  0  0  0  0
  2  8  2  0  0  0  0
  2  3  1  0  0  0  0
  3  4  2  0  0  0  0
  3 35  1  0  0  0  0
  4  5  1  0  0  0  0
  4  6  1  0  0  0  0
  6  7  2  0  0  0  0
  6 36  1  0  0  0  0
  7  8  1  0  0  0  0
  7 37  1  0  0  0  0
  8  9  1  0  0  0  0
  9 23  1  0  0  0  0
  9 10  2  0  0  0  0
 10 11  1  0  0  0  0
 10 12  1  0  0  0  0
 11 38  1  0  0  0  0
 11 39  1  0  0  0  0
 11 40  1  0  0  0  0
 12 13  1  0  0  0  0
 12 22  2  0  0  0  0
 13 14  2  0  0  0  0
 13 15  1  0  0  0  0
 15 16  1  0  0  0  0
 15 41  1  0  0  0  0
 16 21  1  0  0  0  0
 16 17  1  0  0  0  0
 17 18  1  0  0  0  0
 17 42  1  0  0  0  0
 17 43  1  0  0  0  0
 18 19  1  0  0  0  0
 18 44  1  0  0  0  0
 18 45  1  0  0  0  0
 19 20  1  0  0  0  0
 19 46  1  0  0  0  0
 19 47  1  0  0  0  0
 20 21  1  0  0  0  0
 20 48  1  0  0  0  0
 20 49  1  0  0  0  0
 21 50  1  0  0  0  0
 21 51  1  0  0  0  0
 22 23  1  0  0  0  0
 23 24  1  0  0  0  0
 24 30  2  0  0  0  0
 24 25  1  0  0  0  0
 25 26  2  0  0  0  0
 25 52  1  0  0  0  0
 26 27  1  0  0  0  0
 26 53  1  0  0  0  0
 27 28  1  0  0  0  0
 27 29  2  0  0  0  0
 29 30  1  0  0  0  0
 29 54  1  0  0  0  0
 30 31  1  0  0  0  0
M  END
$$$$
CHEMBL4554135	5TGZ	best_smi
 OpenBabel12022417383D

 65 68  0  0  0  0  0  0  0  0999 V2000
    5.2730   -0.8252    5.0702 C   0  0  0  0  0  0  0  0  0  0  0  0
    4.6803   -0.2920    3.8016 C   0  0  0  0  0  0  0  0  0  0  0  0
    4.1082   -0.9749    2.9628 O   0  0  0  0  0  0  0  0  0  0  0  0
    4.8865    1.0489    3.7217 O   0  0  0  0  0  0  0  0  0  0  0  0
    4.4030    1.6811    2.5216 C   0  0  0  0  0  0  0  0  0  0  0  0
    5.3411    1.4558    1.3343 C   0  0  0  0  0  0  0  0  0  0  0  0
    6.6925    2.0132    1.5391 C   0  0  0  0  0  0  0  0  0  0  0  0
    7.8313    2.4037    1.6328 C   0  0  0  0  0  0  0  0  0  0  0  0
    9.2092    2.8047    1.6893 C   0  0  0  0  0  0  0  0  0  0  0  0
    9.6242    3.8563    2.5098 C   0  0  0  0  0  0  0  0  0  0  0  0
   10.9773    4.2449    2.5431 C   0  0  0  0  0  0  0  0  0  0  0  0
   11.9791    3.5420    1.8472 C   0  0  0  0  0  0  0  0  0  0  0  0
   13.4390    3.8654    1.9915 C   0  0  0  0  0  0  0  0  0  0  0  0
   14.4500    3.9044    1.0187 C   0  0  0  0  0  0  0  0  0  0  0  0
   14.3746    3.5983   -0.4396 C   0  0  0  0  0  0  0  0  0  0  0  0
   15.6395    4.3692    1.6745 C   0  0  0  0  0  0  0  0  0  0  0  0
   16.9869    4.6151    1.0642 C   0  0  0  0  0  0  0  0  0  0  0  0
   17.2030    4.3771   -0.1229 O   0  0  0  0  0  0  0  0  0  0  0  0
   17.9485    5.1303    1.9423 N   0  0  0  0  0  0  0  0  0  0  0  0
   19.3089    5.4552    1.5770 N   0  0  0  0  0  0  0  0  0  0  0  0
   20.0927    4.2648    1.2065 C   0  0  0  0  0  0  0  0  0  0  0  0
   21.5483    4.5954    0.8465 C   0  0  0  0  0  0  0  0  0  0  0  0
   21.6231    5.6537   -0.2457 C   0  0  0  0  0  0  0  0  0  0  0  0
   20.8306    6.8826    0.1793 C   0  0  0  0  0  0  0  0  0  0  0  0
   19.3875    6.5190    0.5590 C   0  0  0  0  0  0  0  0  0  0  0  0
   15.3985    4.5869    2.9723 N   0  0  0  0  0  0  0  0  0  0  0  0
   14.0815    4.2992    3.1719 N   0  0  0  0  0  0  0  0  0  0  0  0
   13.5575    4.4095    4.4998 C   0  0  0  0  0  0  0  0  0  0  0  0
   12.6102    3.4708    4.9529 C   0  0  0  0  0  0  0  0  0  0  0  0
   11.9936    3.6191    6.1983 C   0  0  0  0  0  0  0  0  0  0  0  0
   12.3652    4.6672    7.0312 C   0  0  0  0  0  0  0  0  0  0  0  0
   11.6061    4.8524    8.5630 Cl  0  0  0  0  0  0  0  0  0  0  0  0
   13.3416    5.5724    6.6277 C   0  0  0  0  0  0  0  0  0  0  0  0
   13.9384    5.4558    5.3635 C   0  0  0  0  0  0  0  0  0  0  0  0
   15.0144    6.7461    4.9380 Cl  0  0  0  0  0  0  0  0  0  0  0  0
   11.5376    2.4946    1.0223 C   0  0  0  0  0  0  0  0  0  0  0  0
   10.1741    2.1510    0.9196 C   0  0  0  0  0  0  0  0  0  0  0  0
    5.1155   -1.9110    5.1132 H   0  0  0  0  0  0  0  0  0  0  0  0
    4.7816   -0.3700    5.9305 H   0  0  0  0  0  0  0  0  0  0  0  0
    6.3459   -0.6322    5.0859 H   0  0  0  0  0  0  0  0  0  0  0  0
    4.3015    2.7518    2.7381 H   0  0  0  0  0  0  0  0  0  0  0  0
    3.3955    1.3141    2.2896 H   0  0  0  0  0  0  0  0  0  0  0  0
    4.8941    1.9029    0.4434 H   0  0  0  0  0  0  0  0  0  0  0  0
    5.4396    0.3799    1.1384 H   0  0  0  0  0  0  0  0  0  0  0  0
    8.8998    4.3769    3.1318 H   0  0  0  0  0  0  0  0  0  0  0  0
   11.2296    5.0937    3.1763 H   0  0  0  0  0  0  0  0  0  0  0  0
   13.3740    3.3258   -0.7724 H   0  0  0  0  0  0  0  0  0  0  0  0
   15.0475    2.7695   -0.6844 H   0  0  0  0  0  0  0  0  0  0  0  0
   14.6735    4.4736   -1.0254 H   0  0  0  0  0  0  0  0  0  0  0  0
   17.6530    5.2907    2.9064 H   0  0  0  0  0  0  0  0  0  0  0  0
   19.6375    3.7432    0.3571 H   0  0  0  0  0  0  0  0  0  0  0  0
   20.1061    3.5646    2.0505 H   0  0  0  0  0  0  0  0  0  0  0  0
   22.0618    3.6871    0.5092 H   0  0  0  0  0  0  0  0  0  0  0  0
   22.0853    4.9512    1.7352 H   0  0  0  0  0  0  0  0  0  0  0  0
   21.2153    5.2520   -1.1816 H   0  0  0  0  0  0  0  0  0  0  0  0
   22.6674    5.9239   -0.4431 H   0  0  0  0  0  0  0  0  0  0  0  0
   20.8242    7.6114   -0.6404 H   0  0  0  0  0  0  0  0  0  0  0  0
   21.3334    7.3644    1.0274 H   0  0  0  0  0  0  0  0  0  0  0  0
   18.9025    7.4236    0.9444 H   0  0  0  0  0  0  0  0  0  0  0  0
   18.8586    6.2303   -0.3557 H   0  0  0  0  0  0  0  0  0  0  0  0
   12.3219    2.6152    4.3447 H   0  0  0  0  0  0  0  0  0  0  0  0
   11.2214    2.9170    6.5051 H   0  0  0  0  0  0  0  0  0  0  0  0
   13.6188    6.3927    7.2862 H   0  0  0  0  0  0  0  0  0  0  0  0
   12.2453    1.9055    0.4437 H   0  0  0  0  0  0  0  0  0  0  0  0
    9.8742    1.3510    0.2473 H   0  0  0  0  0  0  0  0  0  0  0  0
  1  2  1  0  0  0  0
  1 38  1  0  0  0  0
  1 39  1  0  0  0  0
  1 40  1  0  0  0  0
  2  3  2  0  0  0  0
  2  4  1  0  0  0  0
  4  5  1  0  0  0  0
  5  6  1  0  0  0  0
  5 41  1  0  0  0  0
  5 42  1  0  0  0  0
  6  7  1  0  0  0  0
  6 43  1  0  0  0  0
  6 44  1  0  0  0  0
  7  8  3  0  0  0  0
  8  9  1  0  0  0  0
  9 37  2  0  0  0  0
  9 10  1  0  0  0  0
 10 11  2  0  0  0  0
 10 45  1  0  0  0  0
 11 12  1  0  0  0  0
 11 46  1  0  0  0  0
 12 13  1  0  0  0  0
 12 36  2  0  0  0  0
 13 27  1  0  0  0  0
 13 14  2  0  0  0  0
 14 15  1  0  0  0  0
 14 16  1  0  0  0  0
 15 47  1  0  0  0  0
 15 48  1  0  0  0  0
 15 49  1  0  0  0  0
 16 17  1  0  0  0  0
 16 26  2  0  0  0  0
 17 18  2  0  0  0  0
 17 19  1  0  0  0  0
 19 20  1  0  0  0  0
 19 50  1  0  0  0  0
 20 25  1  0  0  0  0
 20 21  1  0  0  0  0
 21 22  1  0  0  0  0
 21 51  1  0  0  0  0
 21 52  1  0  0  0  0
 22 23  1  0  0  0  0
 22 53  1  0  0  0  0
 22 54  1  0  0  0  0
 23 24  1  0  0  0  0
 23 55  1  0  0  0  0
 23 56  1  0  0  0  0
 24 25  1  0  0  0  0
 24 57  1  0  0  0  0
 24 58  1  0  0  0  0
 25 59  1  0  0  0  0
 25 60  1  0  0  0  0
 26 27  1  0  0  0  0
 27 28  1  0  0  0  0
 28 34  2  0  0  0  0
 28 29  1  0  0  0  0
 29 30  2  0  0  0  0
 29 61  1  0  0  0  0
 30 31  1  0  0  0  0
 30 62  1  0  0  0  0
 31 32  1  0  0  0  0
 31 33  2  0  0  0  0
 33 34  1  0  0  0  0
 33 63  1  0  0  0  0
 34 35  1  0  0  0  0
 36 37  1  0  0  0  0
 36 64  1  0  0  0  0
 37 65  1  0  0  0  0
M  END
$$$$
CHEMBL492860	5TGZ	best_smi
 OpenBabel12022417383D

 60 63  0  0  0  0  0  0  0  0999 V2000
   13.3391   -0.4141   -4.0704 C   0  0  0  0  0  0  0  0  0  0  0  0
   12.0090   -0.0001   -4.6621 C   0  0  0  0  0  0  0  0  0  0  0  0
   11.0724   -1.0620   -4.4926 O   0  0  0  0  0  0  0  0  0  0  0  0
    9.8115   -0.7000   -5.0406 C   0  0  0  0  0  0  0  0  0  0  0  0
    8.8177   -1.8357   -4.8592 C   0  0  0  0  0  0  0  0  0  0  0  0
    7.9652   -2.8099   -4.7036 C   0  0  0  0  0  0  0  0  0  0  0  0
    7.0950   -3.9299   -4.5738 C   0  0  0  0  0  0  0  0  0  0  0  0
    5.9756   -4.0345   -3.7803 C   0  0  0  0  0  0  0  0  0  0  0  0
    5.4633   -5.3718   -3.7822 C   0  0  0  0  0  0  0  0  0  0  0  0
    6.1589   -6.2355   -4.6206 C   0  0  0  0  0  0  0  0  0  0  0  0
    5.9491   -7.6584   -4.8808 C   0  0  0  0  0  0  0  0  0  0  0  0
    6.8878   -8.6789   -5.0837 C   0  0  0  0  0  0  0  0  0  0  0  0
    8.3814   -8.5534   -5.0941 C   0  0  0  0  0  0  0  0  0  0  0  0
    6.1232   -9.9002   -5.2382 C   0  0  0  0  0  0  0  0  0  0  0  0
    6.6111  -11.3060   -5.4796 C   0  0  0  0  0  0  0  0  0  0  0  0
    7.8253  -11.5204   -5.5831 O   0  0  0  0  0  0  0  0  0  0  0  0
    5.6515  -12.3227   -5.5743 N   0  0  0  0  0  0  0  0  0  0  0  0
    5.9596  -13.7410   -5.8110 N   0  0  0  0  0  0  0  0  0  0  0  0
    6.5801  -13.9828   -7.1326 C   0  0  0  0  0  0  0  0  0  0  0  0
    6.7750  -15.4858   -7.4130 C   0  0  0  0  0  0  0  0  0  0  0  0
    7.6000  -16.1657   -6.3252 C   0  0  0  0  0  0  0  0  0  0  0  0
    7.0247  -15.8382   -4.9513 C   0  0  0  0  0  0  0  0  0  0  0  0
    6.8224  -14.3242   -4.7607 C   0  0  0  0  0  0  0  0  0  0  0  0
    4.8184   -9.6396   -5.1245 N   0  0  0  0  0  0  0  0  0  0  0  0
    4.7049   -8.3053   -4.8626 N   0  0  0  0  0  0  0  0  0  0  0  0
    3.4037   -7.7419   -4.7161 C   0  0  0  0  0  0  0  0  0  0  0  0
    3.1299   -6.4334   -5.1766 C   0  0  0  0  0  0  0  0  0  0  0  0
    1.8865   -5.8378   -4.9621 C   0  0  0  0  0  0  0  0  0  0  0  0
    0.8811   -6.5582   -4.3319 C   0  0  0  0  0  0  0  0  0  0  0  0
   -0.6664   -5.8462   -4.1139 Cl  0  0  0  0  0  0  0  0  0  0  0  0
    1.1176   -7.8557   -3.8862 C   0  0  0  0  0  0  0  0  0  0  0  0
    2.3714   -8.4516   -4.0686 C   0  0  0  0  0  0  0  0  0  0  0  0
    2.5664  -10.0054   -3.3315 Cl  0  0  0  0  0  0  0  0  0  0  0  0
    7.3672   -5.3532   -5.4638 S   0  0  0  0  0  0  0  0  0  0  0  0
   14.0758    0.3862   -4.1832 H   0  0  0  0  0  0  0  0  0  0  0  0
   13.7168   -1.3153   -4.5637 H   0  0  0  0  0  0  0  0  0  0  0  0
   13.2320   -0.6498   -3.0068 H   0  0  0  0  0  0  0  0  0  0  0  0
   12.1298    0.2167   -5.7294 H   0  0  0  0  0  0  0  0  0  0  0  0
   11.6411    0.8984   -4.1540 H   0  0  0  0  0  0  0  0  0  0  0  0
    9.9132   -0.4894   -6.1113 H   0  0  0  0  0  0  0  0  0  0  0  0
    9.4236    0.1901   -4.5324 H   0  0  0  0  0  0  0  0  0  0  0  0
    5.5609   -3.2293   -3.1819 H   0  0  0  0  0  0  0  0  0  0  0  0
    4.5898   -5.6557   -3.2021 H   0  0  0  0  0  0  0  0  0  0  0  0
    8.7210   -7.5347   -4.8978 H   0  0  0  0  0  0  0  0  0  0  0  0
    8.8034   -8.8425   -6.0610 H   0  0  0  0  0  0  0  0  0  0  0  0
    8.8354   -9.1592   -4.3055 H   0  0  0  0  0  0  0  0  0  0  0  0
    4.6605  -12.0647   -5.4517 H   0  0  0  0  0  0  0  0  0  0  0  0
    7.5581  -13.4918   -7.1936 H   0  0  0  0  0  0  0  0  0  0  0  0
    5.9524  -13.5644   -7.9265 H   0  0  0  0  0  0  0  0  0  0  0  0
    7.2711  -15.6274   -8.3815 H   0  0  0  0  0  0  0  0  0  0  0  0
    5.7987  -15.9817   -7.4841 H   0  0  0  0  0  0  0  0  0  0  0  0
    8.6429  -15.8290   -6.3832 H   0  0  0  0  0  0  0  0  0  0  0  0
    7.6148  -17.2524   -6.4814 H   0  0  0  0  0  0  0  0  0  0  0  0
    7.6985  -16.2262   -4.1772 H   0  0  0  0  0  0  0  0  0  0  0  0
    6.0678  -16.3603   -4.8291 H   0  0  0  0  0  0  0  0  0  0  0  0
    6.3785  -14.1567   -3.7738 H   0  0  0  0  0  0  0  0  0  0  0  0
    7.8092  -13.8479   -4.7639 H   0  0  0  0  0  0  0  0  0  0  0  0
    3.8780   -5.8269   -5.6820 H   0  0  0  0  0  0  0  0  0  0  0  0
    1.7192   -4.8149   -5.2912 H   0  0  0  0  0  0  0  0  0  0  0  0
    0.3283   -8.4028   -3.3750 H   0  0  0  0  0  0  0  0  0  0  0  0
  1  2  1  0  0  0  0
  1 35  1  0  0  0  0
  1 36  1  0  0  0  0
  1 37  1  0  0  0  0
  2  3  1  0  0  0  0
  2 38  1  0  0  0  0
  2 39  1  0  0  0  0
  3  4  1  0  0  0  0
  4  5  1  0  0  0  0
  4 40  1  0  0  0  0
  4 41  1  0  0  0  0
  5  6  3  0  0  0  0
  6  7  1  0  0  0  0
  7 34  1  0  0  0  0
  7  8  2  0  0  0  0
  8  9  1  0  0  0  0
  8 42  1  0  0  0  0
  9 10  2  0  0  0  0
  9 43  1  0  0  0  0
 10 11  1  0  0  0  0
 10 34  1  0  0  0  0
 11 25  1  0  0  0  0
 11 12  2  0  0  0  0
 12 13  1  0  0  0  0
 12 14  1  0  0  0  0
 13 44  1  0  0  0  0
 13 45  1  0  0  0  0
 13 46  1  0  0  0  0
 14 15  1  0  0  0  0
 14 24  2  0  0  0  0
 15 16  2  0  0  0  0
 15 17  1  0  0  0  0
 17 18  1  0  0  0  0
 17 47  1  0  0  0  0
 18 23  1  0  0  0  0
 18 19  1  0  0  0  0
 19 20  1  0  0  0  0
 19 48  1  0  0  0  0
 19 49  1  0  0  0  0
 20 21  1  0  0  0  0
 20 50  1  0  0  0  0
 20 51  1  0  0  0  0
 21 22  1  0  0  0  0
 21 52  1  0  0  0  0
 21 53  1  0  0  0  0
 22 23  1  0  0  0  0
 22 54  1  0  0  0  0
 22 55  1  0  0  0  0
 23 56  1  0  0  0  0
 23 57  1  0  0  0  0
 24 25  1  0  0  0  0
 25 26  1  0  0  0  0
 26 32  2  0  0  0  0
 26 27  1  0  0  0  0
 27 28  2  0  0  0  0
 27 58  1  0  0  0  0
 28 29  1  0  0  0  0
 28 59  1  0  0  0  0
 29 30  1  0  0  0  0
 29 31  2  0  0  0  0
 31 32  1  0  0  0  0
 31 60  1  0  0  0  0
 32 33  1  0  0  0  0
M  END
$$$$
CHEMBL461428	5TGZ	best_smi
 OpenBabel12022417383D

 62 65  0  0  0  0  0  0  0  0999 V2000
   13.4393    0.1275   -3.5513 C   0  0  0  0  0  0  0  0  0  0  0  0
   12.0962    0.5768   -4.1030 C   0  0  0  0  0  0  0  0  0  0  0  0
   11.0965   -0.5739   -4.1347 C   0  0  0  0  0  0  0  0  0  0  0  0
    9.7466   -0.1268   -4.6880 C   0  0  0  0  0  0  0  0  0  0  0  0
    8.7771   -1.2974   -4.7061 C   0  0  0  0  0  0  0  0  0  0  0  0
    7.9454   -2.3014   -4.7216 C   0  0  0  0  0  0  0  0  0  0  0  0
    7.1226   -3.4651   -4.8298 C   0  0  0  0  0  0  0  0  0  0  0  0
    6.0345   -3.7616   -4.0583 C   0  0  0  0  0  0  0  0  0  0  0  0
    5.5555   -5.0803   -4.3171 C   0  0  0  0  0  0  0  0  0  0  0  0
    6.2539   -5.7447   -5.3138 C   0  0  0  0  0  0  0  0  0  0  0  0
    6.0723   -7.1129   -5.8002 C   0  0  0  0  0  0  0  0  0  0  0  0
    7.0408   -8.0464   -6.2031 C   0  0  0  0  0  0  0  0  0  0  0  0
    8.5046   -7.8692   -6.2841 C   0  0  0  0  0  0  0  0  0  0  0  0
    6.3141   -9.2591   -6.4766 C   0  0  0  0  0  0  0  0  0  0  0  0
    6.8579  -10.5772   -6.9324 C   0  0  0  0  0  0  0  0  0  0  0  0
    8.0514  -10.7521   -7.1280 O   0  0  0  0  0  0  0  0  0  0  0  0
    5.8796  -11.5819   -7.0889 N   0  0  0  0  0  0  0  0  0  0  0  0
    6.2190  -12.9031   -7.5336 N   0  0  0  0  0  0  0  0  0  0  0  0
    5.9288  -13.9200   -6.5045 C   0  0  0  0  0  0  0  0  0  0  0  0
    6.3845  -15.3196   -6.9478 C   0  0  0  0  0  0  0  0  0  0  0  0
    5.7711  -15.7216   -8.2843 C   0  0  0  0  0  0  0  0  0  0  0  0
    5.9846  -14.6232   -9.3192 C   0  0  0  0  0  0  0  0  0  0  0  0
    5.5422  -13.2496   -8.7958 C   0  0  0  0  0  0  0  0  0  0  0  0
    5.0119   -9.0874   -6.2597 N   0  0  0  0  0  0  0  0  0  0  0  0
    4.8634   -7.8055   -5.8336 N   0  0  0  0  0  0  0  0  0  0  0  0
    3.5603   -7.3272   -5.5364 C   0  0  0  0  0  0  0  0  0  0  0  0
    3.2449   -5.9774   -5.7637 C   0  0  0  0  0  0  0  0  0  0  0  0
    2.0179   -5.4384   -5.3713 C   0  0  0  0  0  0  0  0  0  0  0  0
    1.0735   -6.2827   -4.8104 C   0  0  0  0  0  0  0  0  0  0  0  0
   -0.4671   -5.6532   -4.4040 Cl  0  0  0  0  0  0  0  0  0  0  0  0
    1.3468   -7.6206   -4.6055 C   0  0  0  0  0  0  0  0  0  0  0  0
    2.5854   -8.1739   -4.9613 C   0  0  0  0  0  0  0  0  0  0  0  0
    2.8613   -9.8081   -4.4914 Cl  0  0  0  0  0  0  0  0  0  0  0  0
    7.4113   -4.6740   -5.9983 S   0  0  0  0  0  0  0  0  0  0  0  0
   14.1434    0.9632   -3.5359 H   0  0  0  0  0  0  0  0  0  0  0  0
   13.8679   -0.6697   -4.1674 H   0  0  0  0  0  0  0  0  0  0  0  0
   13.3342   -0.2496   -2.5282 H   0  0  0  0  0  0  0  0  0  0  0  0
   12.2375    0.9760   -5.1161 H   0  0  0  0  0  0  0  0  0  0  0  0
   11.7064    1.3936   -3.4840 H   0  0  0  0  0  0  0  0  0  0  0  0
   10.9643   -0.9778   -3.1211 H   0  0  0  0  0  0  0  0  0  0  0  0
   11.4937   -1.3944   -4.7471 H   0  0  0  0  0  0  0  0  0  0  0  0
    9.8577    0.2567   -5.7084 H   0  0  0  0  0  0  0  0  0  0  0  0
    9.3239    0.6739   -4.0710 H   0  0  0  0  0  0  0  0  0  0  0  0
    5.6207   -3.1103   -3.3021 H   0  0  0  0  0  0  0  0  0  0  0  0
    4.7006   -5.4991   -3.7829 H   0  0  0  0  0  0  0  0  0  0  0  0
    8.8314   -6.8743   -5.9836 H   0  0  0  0  0  0  0  0  0  0  0  0
    8.8604   -8.0251   -7.3074 H   0  0  0  0  0  0  0  0  0  0  0  0
    9.0108   -8.5630   -5.6136 H   0  0  0  0  0  0  0  0  0  0  0  0
    4.9143  -11.3250   -6.8893 H   0  0  0  0  0  0  0  0  0  0  0  0
    4.8552  -13.9454   -6.2811 H   0  0  0  0  0  0  0  0  0  0  0  0
    6.4505  -13.6696   -5.5761 H   0  0  0  0  0  0  0  0  0  0  0  0
    6.1121  -16.0601   -6.1860 H   0  0  0  0  0  0  0  0  0  0  0  0
    7.4783  -15.3420   -7.0332 H   0  0  0  0  0  0  0  0  0  0  0  0
    4.6971  -15.9096   -8.1583 H   0  0  0  0  0  0  0  0  0  0  0  0
    6.2152  -16.6628   -8.6357 H   0  0  0  0  0  0  0  0  0  0  0  0
    5.4302  -14.8719  -10.2327 H   0  0  0  0  0  0  0  0  0  0  0  0
    7.0466  -14.5892   -9.5936 H   0  0  0  0  0  0  0  0  0  0  0  0
    5.7756  -12.5002   -9.5612 H   0  0  0  0  0  0  0  0  0  0  0  0
    4.4517  -13.2485   -8.6606 H   0  0  0  0  0  0  0  0  0  0  0  0
    3.9580   -5.2785   -6.2042 H   0  0  0  0  0  0  0  0  0  0  0  0
    1.8197   -4.3880   -5.5311 H   0  0  0  0  0  0  0  0  0  0  0  0
    0.5975   -8.2730   -4.1590 H   0  0  0  0  0  0  0  0  0  0  0  0
  1  2  1  0  0  0  0
  1 35  1  0  0  0  0
  1 36  1  0  0  0  0
  1 37  1  0  0  0  0
  2  3  1  0  0  0  0
  2 38  1  0  0  0  0
  2 39  1  0  0  0  0
  3  4  1  0  0  0  0
  3 40  1  0  0  0  0
  3 41  1  0  0  0  0
  4  5  1  0  0  0  0
  4 42  1  0  0  0  0
  4 43  1  0  0  0  0
  5  6  3  0  0  0  0
  6  7  1  0  0  0  0
  7 34  1  0  0  0  0
  7  8  2  0  0  0  0
  8  9  1  0  0  0  0
  8 44  1  0  0  0  0
  9 10  2  0  0  0  0
  9 45  1  0  0  0  0
 10 11  1  0  0  0  0
 10 34  1  0  0  0  0
 11 25  1  0  0  0  0
 11 12  2  0  0  0  0
 12 13  1  0  0  0  0
 12 14  1  0  0  0  0
 13 46  1  0  0  0  0
 13 47  1  0  0  0  0
 13 48  1  0  0  0  0
 14 15  1  0  0  0  0
 14 24  2  0  0  0  0
 15 16  2  0  0  0  0
 15 17  1  0  0  0  0
 17 18  1  0  0  0  0
 17 49  1  0  0  0  0
 18 23  1  0  0  0  0
 18 19  1  0  0  0  0
 19 20  1  0  0  0  0
 19 50  1  0  0  0  0
 19 51  1  0  0  0  0
 20 21  1  0  0  0  0
 20 52  1  0  0  0  0
 20 53  1  0  0  0  0
 21 22  1  0  0  0  0
 21 54  1  0  0  0  0
 21 55  1  0  0  0  0
 22 23  1  0  0  0  0
 22 56  1  0  0  0  0
 22 57  1  0  0  0  0
 23 58  1  0  0  0  0
 23 59  1  0  0  0  0
 24 25  1  0  0  0  0
 25 26  1  0  0  0  0
 26 32  2  0  0  0  0
 26 27  1  0  0  0  0
 27 28  2  0  0  0  0
 27 60  1  0  0  0  0
 28 29  1  0  0  0  0
 28 61  1  0  0  0  0
 29 30  1  0  0  0  0
 29 31  2  0  0  0  0
 31 32  1  0  0  0  0
 31 62  1  0  0  0  0
 32 33  1  0  0  0  0
M  END
$$$$
CHEMBL460132	5TGZ	best_smi
 OpenBabel12022417383D

 62 65  0  0  0  0  0  0  0  0999 V2000
    7.1133    8.4306    2.2006 C   0  0  0  0  0  0  0  0  0  0  0  0
    7.6435    7.0969    1.6919 C   0  0  0  0  0  0  0  0  0  0  0  0
    6.5256    6.0714    1.4948 C   0  0  0  0  0  0  0  0  0  0  0  0
    7.0486    4.7997    0.9686 C   0  0  0  0  0  0  0  0  0  0  0  0
    7.4997    3.7609    0.5417 C   0  0  0  0  0  0  0  0  0  0  0  0
    8.0831    2.5357    0.0861 C   0  0  0  0  0  0  0  0  0  0  0  0
    7.4075    1.4744   -0.4818 C   0  0  0  0  0  0  0  0  0  0  0  0
    8.2729    0.3554   -0.7156 C   0  0  0  0  0  0  0  0  0  0  0  0
    9.6015    0.6028   -0.3956 C   0  0  0  0  0  0  0  0  0  0  0  0
   10.7566   -0.2865   -0.5126 C   0  0  0  0  0  0  0  0  0  0  0  0
   11.8065   -0.4765    0.3930 C   0  0  0  0  0  0  0  0  0  0  0  0
   12.0608    0.1996    1.6982 C   0  0  0  0  0  0  0  0  0  0  0  0
   12.6105   -1.5404   -0.1414 C   0  0  0  0  0  0  0  0  0  0  0  0
   13.8226   -2.1574    0.4770 C   0  0  0  0  0  0  0  0  0  0  0  0
   14.2777   -1.7562    1.5451 O   0  0  0  0  0  0  0  0  0  0  0  0
   14.3772   -3.2348   -0.2386 N   0  0  0  0  0  0  0  0  0  0  0  0
   15.5531   -3.9694    0.1930 N   0  0  0  0  0  0  0  0  0  0  0  0
   16.7668   -3.1460    0.1272 C   0  0  0  0  0  0  0  0  0  0  0  0
   18.0802   -3.9266   -0.0486 C   0  0  0  0  0  0  0  0  0  0  0  0
   18.6452   -4.5794    1.2080 C   0  0  0  0  0  0  0  0  0  0  0  0
   17.7057   -5.5873    1.8507 C   0  0  0  0  0  0  0  0  0  0  0  0
   16.4704   -4.9196    2.4373 C   0  0  0  0  0  0  0  0  0  0  0  0
   15.3140   -4.6964    1.4526 C   0  0  0  0  0  0  0  0  0  0  0  0
   12.1134   -1.9561   -1.3138 N   0  0  0  0  0  0  0  0  0  0  0  0
   10.9772   -1.2341   -1.5286 N   0  0  0  0  0  0  0  0  0  0  0  0
   10.2117   -1.4826   -2.7167 C   0  0  0  0  0  0  0  0  0  0  0  0
    9.5528   -0.4113   -3.3609 C   0  0  0  0  0  0  0  0  0  0  0  0
    8.7170   -0.6361   -4.4517 C   0  0  0  0  0  0  0  0  0  0  0  0
    8.5707   -1.9221   -4.9583 C   0  0  0  0  0  0  0  0  0  0  0  0
    7.5439   -2.1996   -6.3079 Cl  0  0  0  0  0  0  0  0  0  0  0  0
    9.2521   -2.9860   -4.3722 C   0  0  0  0  0  0  0  0  0  0  0  0
   10.0682   -2.7794   -3.2517 C   0  0  0  0  0  0  0  0  0  0  0  0
   10.7204   -4.2201   -2.5446 Cl  0  0  0  0  0  0  0  0  0  0  0  0
    9.7585    2.2245    0.1696 S   0  0  0  0  0  0  0  0  0  0  0  0
    7.9357    9.1433    2.3233 H   0  0  0  0  0  0  0  0  0  0  0  0
    6.6190    8.3164    3.1706 H   0  0  0  0  0  0  0  0  0  0  0  0
    6.3950    8.8639    1.4971 H   0  0  0  0  0  0  0  0  0  0  0  0
    8.3856    6.7128    2.4029 H   0  0  0  0  0  0  0  0  0  0  0  0
    8.1698    7.2617    0.7437 H   0  0  0  0  0  0  0  0  0  0  0  0
    5.7759    6.4678    0.8013 H   0  0  0  0  0  0  0  0  0  0  0  0
    6.0160    5.8951    2.4513 H   0  0  0  0  0  0  0  0  0  0  0  0
    6.3457    1.4761   -0.6918 H   0  0  0  0  0  0  0  0  0  0  0  0
    7.9139   -0.5788   -1.1327 H   0  0  0  0  0  0  0  0  0  0  0  0
   11.2937    0.9232    1.9692 H   0  0  0  0  0  0  0  0  0  0  0  0
   13.0186    0.7291    1.6721 H   0  0  0  0  0  0  0  0  0  0  0  0
   12.0844   -0.5352    2.5092 H   0  0  0  0  0  0  0  0  0  0  0  0
   13.9497   -3.4715   -1.1324 H   0  0  0  0  0  0  0  0  0  0  0  0
   16.8355   -2.4623    0.9804 H   0  0  0  0  0  0  0  0  0  0  0  0
   16.6905   -2.5156   -0.7687 H   0  0  0  0  0  0  0  0  0  0  0  0
   18.8421   -3.2226   -0.4111 H   0  0  0  0  0  0  0  0  0  0  0  0
   17.9744   -4.6831   -0.8363 H   0  0  0  0  0  0  0  0  0  0  0  0
   18.9147   -3.8039    1.9368 H   0  0  0  0  0  0  0  0  0  0  0  0
   19.5838   -5.0873    0.9502 H   0  0  0  0  0  0  0  0  0  0  0  0
   18.2548   -6.0775    2.6667 H   0  0  0  0  0  0  0  0  0  0  0  0
   17.4338   -6.3755    1.1400 H   0  0  0  0  0  0  0  0  0  0  0  0
   16.7424   -3.9714    2.9179 H   0  0  0  0  0  0  0  0  0  0  0  0
   16.0929   -5.5628    3.2431 H   0  0  0  0  0  0  0  0  0  0  0  0
   14.8981   -5.6774    1.1882 H   0  0  0  0  0  0  0  0  0  0  0  0
   14.5284   -4.2043    2.0380 H   0  0  0  0  0  0  0  0  0  0  0  0
    9.6752    0.6165   -3.0260 H   0  0  0  0  0  0  0  0  0  0  0  0
    8.1693    0.1955   -4.8948 H   0  0  0  0  0  0  0  0  0  0  0  0
    9.1266   -3.9876   -4.7752 H   0  0  0  0  0  0  0  0  0  0  0  0
  1  2  1  0  0  0  0
  1 35  1  0  0  0  0
  1 36  1  0  0  0  0
  1 37  1  0  0  0  0
  2  3  1  0  0  0  0
  2 38  1  0  0  0  0
  2 39  1  0  0  0  0
  3  4  1  0  0  0  0
  3 40  1  0  0  0  0
  3 41  1  0  0  0  0
  4  5  3  0  0  0  0
  5  6  1  0  0  0  0
  6 34  1  0  0  0  0
  6  7  2  0  0  0  0
  7  8  1  0  0  0  0
  7 42  1  0  0  0  0
  8  9  2  0  0  0  0
  8 43  1  0  0  0  0
  9 10  1  0  0  0  0
  9 34  1  0  0  0  0
 10 25  1  0  0  0  0
 10 11  2  0  0  0  0
 11 12  1  0  0  0  0
 11 13  1  0  0  0  0
 12 44  1  0  0  0  0
 12 45  1  0  0  0  0
 12 46  1  0  0  0  0
 13 14  1  0  0  0  0
 13 24  2  0  0  0  0
 14 15  2  0  0  0  0
 14 16  1  0  0  0  0
 16 17  1  0  0  0  0
 16 47  1  0  0  0  0
 17 23  1  0  0  0  0
 17 18  1  0  0  0  0
 18 19  1  0  0  0  0
 18 48  1  0  0  0  0
 18 49  1  0  0  0  0
 19 20  1  0  0  0  0
 19 50  1  0  0  0  0
 19 51  1  0  0  0  0
 20 21  1  0  0  0  0
 20 52  1  0  0  0  0
 20 53  1  0  0  0  0
 21 22  1  0  0  0  0
 21 54  1  0  0  0  0
 21 55  1  0  0  0  0
 22 23  1  0  0  0  0
 22 56  1  0  0  0  0
 22 57  1  0  0  0  0
 23 58  1  0  0  0  0
 23 59  1  0  0  0  0
 24 25  1  0  0  0  0
 25 26  1  0  0  0  0
 26 32  2  0  0  0  0
 26 27  1  0  0  0  0
 27 28  2  0  0  0  0
 27 60  1  0  0  0  0
 28 29  1  0  0  0  0
 28 61  1  0  0  0  0
 29 30  1  0  0  0  0
 29 31  2  0  0  0  0
 31 32  1  0  0  0  0
 31 62  1  0  0  0  0
 32 33  1  0  0  0  0
M  END
$$$$
CHEMBL460343	5TGZ	best_smi
 OpenBabel12022417383D

 62 65  0  0  0  0  0  0  0  0999 V2000
    1.1814    0.4204   -0.1883 C   0  0  0  0  0  0  0  0  0  0  0  0
    2.6586    0.2047   -0.1976 C   0  0  0  0  0  0  0  0  0  0  0  0
    3.6626    1.2100   -0.2059 C   0  0  0  0  0  0  0  0  0  0  0  0
    3.4640    2.6814   -0.1938 C   0  0  0  0  0  0  0  0  0  0  0  0
    2.3447    3.1937   -0.2326 O   0  0  0  0  0  0  0  0  0  0  0  0
    4.6611    3.3880   -0.1242 N   0  0  0  0  0  0  0  0  0  0  0  0
    4.7790    4.8034   -0.0555 N   0  0  0  0  0  0  0  0  0  0  0  0
    4.3978    5.4682   -1.3103 C   0  0  0  0  0  0  0  0  0  0  0  0
    4.7296    6.9641   -1.2556 C   0  0  0  0  0  0  0  0  0  0  0  0
    4.0761    7.6395   -0.0537 C   0  0  0  0  0  0  0  0  0  0  0  0
    4.4091    6.8861    1.2296 C   0  0  0  0  0  0  0  0  0  0  0  0
    4.0922    5.3885    1.1039 C   0  0  0  0  0  0  0  0  0  0  0  0
    4.8877    0.6715   -0.2069 N   0  0  0  0  0  0  0  0  0  0  0  0
    4.7208   -0.6772   -0.1650 N   0  0  0  0  0  0  0  0  0  0  0  0
    5.8572   -1.5419   -0.0349 C   0  0  0  0  0  0  0  0  0  0  0  0
    5.7546   -2.7341    0.7128 C   0  0  0  0  0  0  0  0  0  0  0  0
    6.8177   -3.6372    0.7990 C   0  0  0  0  0  0  0  0  0  0  0  0
    8.0268   -3.3272    0.1961 C   0  0  0  0  0  0  0  0  0  0  0  0
    9.3497   -4.4170    0.3248 Cl  0  0  0  0  0  0  0  0  0  0  0  0
    8.1705   -2.1356   -0.5076 C   0  0  0  0  0  0  0  0  0  0  0  0
    7.0948   -1.2408   -0.6324 C   0  0  0  0  0  0  0  0  0  0  0  0
    7.3935    0.1277   -1.6501 Cl  0  0  0  0  0  0  0  0  0  0  0  0
    3.3609   -1.0037   -0.1689 C   0  0  0  0  0  0  0  0  0  0  0  0
    2.8303   -2.3313   -0.0960 C   0  0  0  0  0  0  0  0  0  0  0  0
    3.1994   -3.4768   -0.7873 C   0  0  0  0  0  0  0  0  0  0  0  0
    2.5578   -4.6411   -0.2672 C   0  0  0  0  0  0  0  0  0  0  0  0
    1.6507   -4.3106    0.7070 C   0  0  0  0  0  0  0  0  0  0  0  0
    0.7957   -5.1897    1.3913 C   0  0  0  0  0  0  0  0  0  0  0  0
   -0.0405   -5.9715    2.0155 C   0  0  0  0  0  0  0  0  0  0  0  0
   -1.0153   -6.8829    2.7432 C   0  0  0  0  0  0  0  0  0  0  0  0
   -2.1554   -6.0612    3.3703 C   0  0  0  0  0  0  0  0  0  0  0  0
   -2.9577   -5.2840    2.3192 C   0  0  0  0  0  0  0  0  0  0  0  0
   -3.0943   -6.9748    4.1566 C   0  0  0  0  0  0  0  0  0  0  0  0
    1.6331   -2.6663    1.0754 S   0  0  0  0  0  0  0  0  0  0  0  0
    0.6079   -0.5054   -0.2823 H   0  0  0  0  0  0  0  0  0  0  0  0
    0.8753    1.0487   -1.0283 H   0  0  0  0  0  0  0  0  0  0  0  0
    0.8741    0.9017    0.7471 H   0  0  0  0  0  0  0  0  0  0  0  0
    5.5134    2.8251   -0.1046 H   0  0  0  0  0  0  0  0  0  0  0  0
    3.3289    5.3383   -1.5191 H   0  0  0  0  0  0  0  0  0  0  0  0
    4.9509    5.0268   -2.1483 H   0  0  0  0  0  0  0  0  0  0  0  0
    4.3975    7.4532   -2.1784 H   0  0  0  0  0  0  0  0  0  0  0  0
    5.8179    7.0985   -1.1989 H   0  0  0  0  0  0  0  0  0  0  0  0
    2.9899    7.6690   -0.1941 H   0  0  0  0  0  0  0  0  0  0  0  0
    4.4194    8.6786    0.0200 H   0  0  0  0  0  0  0  0  0  0  0  0
    3.8450    7.3161    2.0656 H   0  0  0  0  0  0  0  0  0  0  0  0
    5.4729    7.0186    1.4625 H   0  0  0  0  0  0  0  0  0  0  0  0
    4.4239    4.8917    2.0219 H   0  0  0  0  0  0  0  0  0  0  0  0
    3.0064    5.2649    1.0349 H   0  0  0  0  0  0  0  0  0  0  0  0
    4.8565   -2.9926    1.2686 H   0  0  0  0  0  0  0  0  0  0  0  0
    6.6935   -4.5684    1.3480 H   0  0  0  0  0  0  0  0  0  0  0  0
    9.1227   -1.9072   -0.9814 H   0  0  0  0  0  0  0  0  0  0  0  0
    3.9610   -3.5067   -1.5580 H   0  0  0  0  0  0  0  0  0  0  0  0
    2.7549   -5.6573   -0.5922 H   0  0  0  0  0  0  0  0  0  0  0  0
   -0.4691   -7.4290    3.5210 H   0  0  0  0  0  0  0  0  0  0  0  0
   -1.4111   -7.6188    2.0336 H   0  0  0  0  0  0  0  0  0  0  0  0
   -1.7273   -5.3302    4.0704 H   0  0  0  0  0  0  0  0  0  0  0  0
   -3.3925   -5.9580    1.5754 H   0  0  0  0  0  0  0  0  0  0  0  0
   -2.3330   -4.5553    1.7920 H   0  0  0  0  0  0  0  0  0  0  0  0
   -3.7732   -4.7259    2.7882 H   0  0  0  0  0  0  0  0  0  0  0  0
   -3.5637   -7.7169    3.5031 H   0  0  0  0  0  0  0  0  0  0  0  0
   -3.8904   -6.3929    4.6329 H   0  0  0  0  0  0  0  0  0  0  0  0
   -2.5517   -7.5061    4.9431 H   0  0  0  0  0  0  0  0  0  0  0  0
  1  2  1  0  0  0  0
  1 35  1  0  0  0  0
  1 36  1  0  0  0  0
  1 37  1  0  0  0  0
  2 23  2  0  0  0  0
  2  3  1  0  0  0  0
  3  4  1  0  0  0  0
  3 13  2  0  0  0  0
  4  5  2  0  0  0  0
  4  6  1  0  0  0  0
  6  7  1  0  0  0  0
  6 38  1  0  0  0  0
  7 12  1  0  0  0  0
  7  8  1  0  0  0  0
  8  9  1  0  0  0  0
  8 39  1  0  0  0  0
  8 40  1  0  0  0  0
  9 10  1  0  0  0  0
  9 41  1  0  0  0  0
  9 42  1  0  0  0  0
 10 11  1  0  0  0  0
 10 43  1  0  0  0  0
 10 44  1  0  0  0  0
 11 12  1  0  0  0  0
 11 45  1  0  0  0  0
 11 46  1  0  0  0  0
 12 47  1  0  0  0  0
 12 48  1  0  0  0  0
 13 14  1  0  0  0  0
 14 15  1  0  0  0  0
 14 23  1  0  0  0  0
 15 21  2  0  0  0  0
 15 16  1  0  0  0  0
 16 17  2  0  0  0  0
 16 49  1  0  0  0  0
 17 18  1  0  0  0  0
 17 50  1  0  0  0  0
 18 19  1  0  0  0  0
 18 20  2  0  0  0  0
 20 21  1  0  0  0  0
 20 51  1  0  0  0  0
 21 22  1  0  0  0  0
 23 24  1  0  0  0  0
 24 34  1  0  0  0  0
 24 25  2  0  0  0  0
 25 26  1  0  0  0  0
 25 52  1  0  0  0  0
 26 27  2  0  0  0  0
 26 53  1  0  0  0  0
 27 28  1  0  0  0  0
 27 34  1  0  0  0  0
 28 29  3  0  0  0  0
 29 30  1  0  0  0  0
 30 31  1  0  0  0  0
 30 54  1  0  0  0  0
 30 55  1  0  0  0  0
 31 32  1  0  0  0  0
 31 33  1  0  0  0  0
 31 56  1  0  0  0  0
 32 57  1  0  0  0  0
 32 58  1  0  0  0  0
 32 59  1  0  0  0  0
 33 60  1  0  0  0  0
 33 61  1  0  0  0  0
 33 62  1  0  0  0  0
M  END
$$$$
CHEMBL461427	5TGZ	best_smi
 OpenBabel12022417383D

 59 62  0  0  0  0  0  0  0  0999 V2000
    8.2722   -2.3382    4.5323 C   0  0  0  0  0  0  0  0  0  0  0  0
    7.0941   -1.6079    3.9061 C   0  0  0  0  0  0  0  0  0  0  0  0
    6.3206   -2.5076    3.0342 C   0  0  0  0  0  0  0  0  0  0  0  0
    5.7031   -3.2858    2.3606 C   0  0  0  0  0  0  0  0  0  0  0  0
    4.9571   -4.2609    1.6287 C   0  0  0  0  0  0  0  0  0  0  0  0
    3.9743   -3.9998    0.7035 C   0  0  0  0  0  0  0  0  0  0  0  0
    3.3330   -5.1985    0.2502 C   0  0  0  0  0  0  0  0  0  0  0  0
    3.8949   -6.3515    0.7791 C   0  0  0  0  0  0  0  0  0  0  0  0
    3.5298   -7.7400    0.5358 C   0  0  0  0  0  0  0  0  0  0  0  0
    3.3719   -8.7717    1.4637 C   0  0  0  0  0  0  0  0  0  0  0  0
    3.5439   -8.7546    2.9454 C   0  0  0  0  0  0  0  0  0  0  0  0
    2.9387   -9.9131    0.7159 C   0  0  0  0  0  0  0  0  0  0  0  0
    2.6274  -11.2712    1.2482 C   0  0  0  0  0  0  0  0  0  0  0  0
    2.8061  -11.5580    2.4317 O   0  0  0  0  0  0  0  0  0  0  0  0
    2.1102  -12.1652    0.3047 N   0  0  0  0  0  0  0  0  0  0  0  0
    1.7197  -13.5195    0.6138 N   0  0  0  0  0  0  0  0  0  0  0  0
    2.8626  -14.3524    1.0050 C   0  0  0  0  0  0  0  0  0  0  0  0
    2.6824  -15.8469    0.6914 C   0  0  0  0  0  0  0  0  0  0  0  0
    1.8082  -16.6347    1.6601 C   0  0  0  0  0  0  0  0  0  0  0  0
    0.3823  -16.1179    1.7735 C   0  0  0  0  0  0  0  0  0  0  0  0
    0.3270  -14.7477    2.4341 C   0  0  0  0  0  0  0  0  0  0  0  0
    0.5386  -13.5571    1.4906 C   0  0  0  0  0  0  0  0  0  0  0  0
    2.8157   -9.6071   -0.5832 N   0  0  0  0  0  0  0  0  0  0  0  0
    3.1600   -8.2928   -0.7000 N   0  0  0  0  0  0  0  0  0  0  0  0
    3.1551   -7.6853   -1.9979 C   0  0  0  0  0  0  0  0  0  0  0  0
    4.1364   -6.7278   -2.3233 C   0  0  0  0  0  0  0  0  0  0  0  0
    4.1054   -6.0525   -3.5479 C   0  0  0  0  0  0  0  0  0  0  0  0
    3.1244   -6.3616   -4.4815 C   0  0  0  0  0  0  0  0  0  0  0  0
    3.0742   -5.5220   -5.9813 Cl  0  0  0  0  0  0  0  0  0  0  0  0
    2.1770   -7.3413   -4.2030 C   0  0  0  0  0  0  0  0  0  0  0  0
    2.1820   -8.0046   -2.9659 C   0  0  0  0  0  0  0  0  0  0  0  0
    0.8534   -9.0877   -2.7115 Cl  0  0  0  0  0  0  0  0  0  0  0  0
    5.2015   -5.9388    1.8228 S   0  0  0  0  0  0  0  0  0  0  0  0
    8.8531   -1.6553    5.1593 H   0  0  0  0  0  0  0  0  0  0  0  0
    8.9383   -2.7478    3.7621 H   0  0  0  0  0  0  0  0  0  0  0  0
    7.9316   -3.1707    5.1573 H   0  0  0  0  0  0  0  0  0  0  0  0
    7.4593   -0.7528    3.3279 H   0  0  0  0  0  0  0  0  0  0  0  0
    6.4473   -1.2109    4.6978 H   0  0  0  0  0  0  0  0  0  0  0  0
    3.6950   -3.0007    0.3877 H   0  0  0  0  0  0  0  0  0  0  0  0
    2.5085   -5.1940   -0.4534 H   0  0  0  0  0  0  0  0  0  0  0  0
    3.7852   -7.7694    3.3446 H   0  0  0  0  0  0  0  0  0  0  0  0
    4.3424   -9.4427    3.2418 H   0  0  0  0  0  0  0  0  0  0  0  0
    2.6150   -9.0658    3.4348 H   0  0  0  0  0  0  0  0  0  0  0  0
    1.9996  -11.8226   -0.6489 H   0  0  0  0  0  0  0  0  0  0  0  0
    3.1414  -14.2031    2.0542 H   0  0  0  0  0  0  0  0  0  0  0  0
    3.7297  -14.0372    0.4084 H   0  0  0  0  0  0  0  0  0  0  0  0
    3.6758  -16.3152    0.7004 H   0  0  0  0  0  0  0  0  0  0  0  0
    2.3006  -15.9744   -0.3295 H   0  0  0  0  0  0  0  0  0  0  0  0
    2.2775  -16.6469    2.6524 H   0  0  0  0  0  0  0  0  0  0  0  0
    1.7755  -17.6814    1.3305 H   0  0  0  0  0  0  0  0  0  0  0  0
   -0.1779  -16.8250    2.3998 H   0  0  0  0  0  0  0  0  0  0  0  0
   -0.1109  -16.1089    0.7950 H   0  0  0  0  0  0  0  0  0  0  0  0
    1.0402  -14.6993    3.2664 H   0  0  0  0  0  0  0  0  0  0  0  0
   -0.6667  -14.6322    2.8865 H   0  0  0  0  0  0  0  0  0  0  0  0
   -0.3433  -13.4787    0.8419 H   0  0  0  0  0  0  0  0  0  0  0  0
    0.5058  -12.6680    2.1324 H   0  0  0  0  0  0  0  0  0  0  0  0
    4.9517   -6.4909   -1.6426 H   0  0  0  0  0  0  0  0  0  0  0  0
    4.8491   -5.2880   -3.7630 H   0  0  0  0  0  0  0  0  0  0  0  0
    1.4120   -7.5724   -4.9413 H   0  0  0  0  0  0  0  0  0  0  0  0
  1  2  1  0  0  0  0
  1 34  1  0  0  0  0
  1 35  1  0  0  0  0
  1 36  1  0  0  0  0
  2  3  1  0  0  0  0
  2 37  1  0  0  0  0
  2 38  1  0  0  0  0
  3  4  3  0  0  0  0
  4  5  1  0  0  0  0
  5 33  1  0  0  0  0
  5  6  2  0  0  0  0
  6  7  1  0  0  0  0
  6 39  1  0  0  0  0
  7  8  2  0  0  0  0
  7 40  1  0  0  0  0
  8  9  1  0  0  0  0
  8 33  1  0  0  0  0
  9 24  1  0  0  0  0
  9 10  2  0  0  0  0
 10 11  1  0  0  0  0
 10 12  1  0  0  0  0
 11 41  1  0  0  0  0
 11 42  1  0  0  0  0
 11 43  1  0  0  0  0
 12 13  1  0  0  0  0
 12 23  2  0  0  0  0
 13 14  2  0  0  0  0
 13 15  1  0  0  0  0
 15 16  1  0  0  0  0
 15 44  1  0  0  0  0
 16 22  1  0  0  0  0
 16 17  1  0  0  0  0
 17 18  1  0  0  0  0
 17 45  1  0  0  0  0
 17 46  1  0  0  0  0
 18 19  1  0  0  0  0
 18 47  1  0  0  0  0
 18 48  1  0  0  0  0
 19 20  1  0  0  0  0
 19 49  1  0  0  0  0
 19 50  1  0  0  0  0
 20 21  1  0  0  0  0
 20 51  1  0  0  0  0
 20 52  1  0  0  0  0
 21 22  1  0  0  0  0
 21 53  1  0  0  0  0
 21 54  1  0  0  0  0
 22 55  1  0  0  0  0
 22 56  1  0  0  0  0
 23 24  1  0  0  0  0
 24 25  1  0  0  0  0
 25 31  2  0  0  0  0
 25 26  1  0  0  0  0
 26 27  2  0  0  0  0
 26 57  1  0  0  0  0
 27 28  1  0  0  0  0
 27 58  1  0  0  0  0
 28 29  1  0  0  0  0
 28 30  2  0  0  0  0
 30 31  1  0  0  0  0
 30 59  1  0  0  0  0
 31 32  1  0  0  0  0
M  END
$$$$
CHEMBL15138	5TGZ	best_smi
 OpenBabel12022417383D

 54 57  0  0  0  0  0  0  0  0999 V2000
    1.0852    0.3576   -0.1250 C   0  0  0  0  0  0  0  0  0  0  0  0
    2.5493    0.0913   -0.0475 C   0  0  0  0  0  0  0  0  0  0  0  0
    3.5588    1.1025    0.0300 C   0  0  0  0  0  0  0  0  0  0  0  0
    3.3949    2.5835    0.0759 C   0  0  0  0  0  0  0  0  0  0  0  0
    2.2950    3.1265   -0.0160 O   0  0  0  0  0  0  0  0  0  0  0  0
    4.6047    3.2601    0.2591 N   0  0  0  0  0  0  0  0  0  0  0  0
    4.7497    4.6753    0.3650 N   0  0  0  0  0  0  0  0  0  0  0  0
    4.5774    5.3754   -0.9058 C   0  0  0  0  0  0  0  0  0  0  0  0
    5.4894    6.6086   -1.0155 C   0  0  0  0  0  0  0  0  0  0  0  0
    5.0029    7.8608   -0.2949 C   0  0  0  0  0  0  0  0  0  0  0  0
    4.8028    7.6951    1.2049 C   0  0  0  0  0  0  0  0  0  0  0  0
    3.6846    6.7149    1.5376 C   0  0  0  0  0  0  0  0  0  0  0  0
    4.0994    5.2397    1.5512 C   0  0  0  0  0  0  0  0  0  0  0  0
    4.7786    0.5468    0.0620 N   0  0  0  0  0  0  0  0  0  0  0  0
    4.5953   -0.7953   -0.0033 N   0  0  0  0  0  0  0  0  0  0  0  0
    5.7454   -1.6423    0.0693 C   0  0  0  0  0  0  0  0  0  0  0  0
    5.6676   -2.8579    0.7743 C   0  0  0  0  0  0  0  0  0  0  0  0
    6.7497   -3.7420    0.8042 C   0  0  0  0  0  0  0  0  0  0  0  0
    7.9407   -3.3960    0.1788 C   0  0  0  0  0  0  0  0  0  0  0  0
    9.2731   -4.4818    0.2176 Cl  0  0  0  0  0  0  0  0  0  0  0  0
    8.0578   -2.1768   -0.4808 C   0  0  0  0  0  0  0  0  0  0  0  0
    6.9663   -1.2975   -0.5455 C   0  0  0  0  0  0  0  0  0  0  0  0
    7.2182    0.1117   -1.5228 Cl  0  0  0  0  0  0  0  0  0  0  0  0
    3.2273   -1.1337   -0.0468 C   0  0  0  0  0  0  0  0  0  0  0  0
    2.6687   -2.5073   -0.1278 C   0  0  0  0  0  0  0  0  0  0  0  0
    1.5644   -2.8701    0.6633 C   0  0  0  0  0  0  0  0  0  0  0  0
    1.0625   -4.1782    0.6633 C   0  0  0  0  0  0  0  0  0  0  0  0
    1.6898   -5.1555   -0.1014 C   0  0  0  0  0  0  0  0  0  0  0  0
    1.1312   -6.7836   -0.0314 Cl  0  0  0  0  0  0  0  0  0  0  0  0
    2.7765   -4.8274   -0.8985 C   0  0  0  0  0  0  0  0  0  0  0  0
    3.2318   -3.5028   -0.9494 C   0  0  0  0  0  0  0  0  0  0  0  0
    0.4913   -0.5538   -0.2225 H   0  0  0  0  0  0  0  0  0  0  0  0
    0.8528    0.9790   -0.9942 H   0  0  0  0  0  0  0  0  0  0  0  0
    0.7488    0.8778    0.7784 H   0  0  0  0  0  0  0  0  0  0  0  0
    5.4425    2.6781    0.2775 H   0  0  0  0  0  0  0  0  0  0  0  0
    3.5295    5.6284   -1.1031 H   0  0  0  0  0  0  0  0  0  0  0  0
    4.8886    4.7062   -1.7193 H   0  0  0  0  0  0  0  0  0  0  0  0
    5.5950    6.8623   -2.0784 H   0  0  0  0  0  0  0  0  0  0  0  0
    6.5000    6.3592   -0.6663 H   0  0  0  0  0  0  0  0  0  0  0  0
    4.0685    8.2072   -0.7545 H   0  0  0  0  0  0  0  0  0  0  0  0
    5.7352    8.6632   -0.4597 H   0  0  0  0  0  0  0  0  0  0  0  0
    4.5325    8.6768    1.6135 H   0  0  0  0  0  0  0  0  0  0  0  0
    5.7398    7.4024    1.6927 H   0  0  0  0  0  0  0  0  0  0  0  0
    2.8339    6.8659    0.8598 H   0  0  0  0  0  0  0  0  0  0  0  0
    3.3110    6.9596    2.5415 H   0  0  0  0  0  0  0  0  0  0  0  0
    4.7857    5.0908    2.3948 H   0  0  0  0  0  0  0  0  0  0  0  0
    3.1939    4.6739    1.8040 H   0  0  0  0  0  0  0  0  0  0  0  0
    4.7736   -3.1419    1.3251 H   0  0  0  0  0  0  0  0  0  0  0  0
    6.6535   -4.6947    1.3202 H   0  0  0  0  0  0  0  0  0  0  0  0
    8.9953   -1.9182   -0.9683 H   0  0  0  0  0  0  0  0  0  0  0  0
    1.0803   -2.1390    1.3086 H   0  0  0  0  0  0  0  0  0  0  0  0
    0.1947   -4.4229    1.2689 H   0  0  0  0  0  0  0  0  0  0  0  0
    3.2841   -5.5944   -1.4776 H   0  0  0  0  0  0  0  0  0  0  0  0
    4.0705   -3.2763   -1.6026 H   0  0  0  0  0  0  0  0  0  0  0  0
  1  2  1  0  0  0  0
  1 32  1  0  0  0  0
  1 33  1  0  0  0  0
  1 34  1  0  0  0  0
  2 24  2  0  0  0  0
  2  3  1  0  0  0  0
  3  4  1  0  0  0  0
  3 14  2  0  0  0  0
  4  5  2  0  0  0  0
  4  6  1  0  0  0  0
  6  7  1  0  0  0  0
  6 35  1  0  0  0  0
  7 13  1  0  0  0  0
  7  8  1  0  0  0  0
  8  9  1  0  0  0  0
  8 36  1  0  0  0  0
  8 37  1  0  0  0  0
  9 10  1  0  0  0  0
  9 38  1  0  0  0  0
  9 39  1  0  0  0  0
 10 11  1  0  0  0  0
 10 40  1  0  0  0  0
 10 41  1  0  0  0  0
 11 12  1  0  0  0  0
 11 42  1  0  0  0  0
 11 43  1  0  0  0  0
 12 13  1  0  0  0  0
 12 44  1  0  0  0  0
 12 45  1  0  0  0  0
 13 46  1  0  0  0  0
 13 47  1  0  0  0  0
 14 15  1  0  0  0  0
 15 16  1  0  0  0  0
 15 24  1  0  0  0  0
 16 22  2  0  0  0  0
 16 17  1  0  0  0  0
 17 18  2  0  0  0  0
 17 48  1  0  0  0  0
 18 19  1  0  0  0  0
 18 49  1  0  0  0  0
 19 20  1  0  0  0  0
 19 21  2  0  0  0  0
 21 22  1  0  0  0  0
 21 50  1  0  0  0  0
 22 23  1  0  0  0  0
 24 25  1  0  0  0  0
 25 31  2  0  0  0  0
 25 26  1  0  0  0  0
 26 27  2  0  0  0  0
 26 51  1  0  0  0  0
 27 28  1  0  0  0  0
 27 52  1  0  0  0  0
 28 29  1  0  0  0  0
 28 30  2  0  0  0  0
 30 31  1  0  0  0  0
 30 53  1  0  0  0  0
 31 54  1  0  0  0  0
M  END
$$$$
CHEMBL4562705	5TGZ	best_smi
 OpenBabel12022417383D

 94 97  0  0  0  0  0  0  0  0999 V2000
    3.6110   -0.6003   -2.5993 C   0  0  0  0  0  0  0  0  0  0  0  0
    3.6780   -0.2030   -1.1549 C   0  0  0  0  0  0  0  0  0  0  0  0
    4.0726    1.0546   -0.5674 C   0  0  0  0  0  0  0  0  0  0  0  0
    4.5205    2.3270   -1.2717 C   0  0  0  0  0  0  0  0  0  0  0  0
    4.6098    2.3779   -2.5082 O   0  0  0  0  0  0  0  0  0  0  0  0
    4.8193    3.4089   -0.4272 N   0  0  0  0  0  0  0  0  0  0  0  0
    5.2152    4.7456   -0.8366 N   0  0  0  0  0  0  0  0  0  0  0  0
    6.5802    4.8354   -1.3859 C   0  0  0  0  0  0  0  0  0  0  0  0
    7.0126    6.2979   -1.6100 C   0  0  0  0  0  0  0  0  0  0  0  0
    6.0261    7.0505   -2.4979 C   0  0  0  0  0  0  0  0  0  0  0  0
    4.6096    6.8906   -1.9549 C   0  0  0  0  0  0  0  0  0  0  0  0
    4.2472    5.4147   -1.7203 C   0  0  0  0  0  0  0  0  0  0  0  0
    3.9874    1.0088    0.7695 N   0  0  0  0  0  0  0  0  0  0  0  0
    3.5725   -0.2558    1.0688 N   0  0  0  0  0  0  0  0  0  0  0  0
    3.3504   -0.6206    2.4437 C   0  0  0  0  0  0  0  0  0  0  0  0
    2.2920   -1.4893    2.7808 C   0  0  0  0  0  0  0  0  0  0  0  0
    2.0619   -1.9051    4.0921 C   0  0  0  0  0  0  0  0  0  0  0  0
    2.8630   -1.4017    5.1029 C   0  0  0  0  0  0  0  0  0  0  0  0
    2.5122   -1.7990    6.7371 Cl  0  0  0  0  0  0  0  0  0  0  0  0
    3.9115   -0.5333    4.8049 C   0  0  0  0  0  0  0  0  0  0  0  0
    4.1662   -0.1313    3.4835 C   0  0  0  0  0  0  0  0  0  0  0  0
    5.5228    0.9119    3.2578 Cl  0  0  0  0  0  0  0  0  0  0  0  0
    3.3613   -1.0450   -0.0680 C   0  0  0  0  0  0  0  0  0  0  0  0
    2.9436   -2.4710   -0.0875 C   0  0  0  0  0  0  0  0  0  0  0  0
    2.0785   -2.9515   -1.0745 C   0  0  0  0  0  0  0  0  0  0  0  0
    1.6505   -4.2671   -1.0839 C   0  0  0  0  0  0  0  0  0  0  0  0
    2.0032   -5.1314   -0.0578 C   0  0  0  0  0  0  0  0  0  0  0  0
    1.5461   -6.4729   -0.0862 C   0  0  0  0  0  0  0  0  0  0  0  0
    1.1550   -7.6080   -0.2063 C   0  0  0  0  0  0  0  0  0  0  0  0
    0.7116   -8.9845   -0.4267 C   0  0  0  0  0  0  0  0  0  0  0  0
    1.4803   -9.9733    0.4456 C   0  0  0  0  0  0  0  0  0  0  0  0
    2.8865   -9.9603    0.1374 O   0  0  0  0  0  0  0  0  0  0  0  0
    3.2092  -10.6457   -0.9918 C   0  0  0  0  0  0  0  0  0  0  0  0
    2.4180  -11.2584   -1.6934 O   0  0  0  0  0  0  0  0  0  0  0  0
    4.6824  -10.5390   -1.2911 C   0  0  0  0  0  0  0  0  0  0  0  0
    4.8840   -9.9098   -2.6671 C   0  0  0  0  0  0  0  0  0  0  0  0
    6.3620   -9.8015   -3.0316 C   0  0  0  0  0  0  0  0  0  0  0  0
    6.5242   -9.1650   -4.4090 C   0  0  0  0  0  0  0  0  0  0  0  0
    7.9976   -9.0478   -4.7892 C   0  0  0  0  0  0  0  0  0  0  0  0
    8.1561   -8.4108   -6.1656 C   0  0  0  0  0  0  0  0  0  0  0  0
    9.6304   -8.2973   -6.5372 C   0  0  0  0  0  0  0  0  0  0  0  0
    9.7955   -7.6610   -7.9130 C   0  0  0  0  0  0  0  0  0  0  0  0
   11.2718   -7.5477   -8.2839 C   0  0  0  0  0  0  0  0  0  0  0  0
   11.4357   -6.9130   -9.6605 C   0  0  0  0  0  0  0  0  0  0  0  0
   12.8493   -6.8128   -9.9977 N   0  0  0  0  0  0  0  0  0  0  0  0
    2.8343   -4.6866    0.9662 C   0  0  0  0  0  0  0  0  0  0  0  0
    3.3480   -3.3926    0.9170 C   0  0  0  0  0  0  0  0  0  0  0  0
    3.3322   -1.6373   -2.7488 H   0  0  0  0  0  0  0  0  0  0  0  0
    4.5891   -0.5268   -3.0802 H   0  0  0  0  0  0  0  0  0  0  0  0
    2.8656   -0.0011   -3.1294 H   0  0  0  0  0  0  0  0  0  0  0  0
    4.6803    3.2526    0.5767 H   0  0  0  0  0  0  0  0  0  0  0  0
    6.6498    4.3004   -2.3406 H   0  0  0  0  0  0  0  0  0  0  0  0
    7.2957    4.3761   -0.6945 H   0  0  0  0  0  0  0  0  0  0  0  0
    8.0080    6.3308   -2.0716 H   0  0  0  0  0  0  0  0  0  0  0  0
    7.0987    6.8197   -0.6470 H   0  0  0  0  0  0  0  0  0  0  0  0
    6.0773    6.6589   -3.5212 H   0  0  0  0  0  0  0  0  0  0  0  0
    6.2943    8.1122   -2.5531 H   0  0  0  0  0  0  0  0  0  0  0  0
    3.8999    7.3419   -2.6593 H   0  0  0  0  0  0  0  0  0  0  0  0
    4.5212    7.4523   -1.0157 H   0  0  0  0  0  0  0  0  0  0  0  0
    3.2488    5.3801   -1.2701 H   0  0  0  0  0  0  0  0  0  0  0  0
    4.1932    4.9084   -2.6909 H   0  0  0  0  0  0  0  0  0  0  0  0
    1.6152   -1.8974    2.0266 H   0  0  0  0  0  0  0  0  0  0  0  0
    1.2412   -2.5865    4.3098 H   0  0  0  0  0  0  0  0  0  0  0  0
    4.5228   -0.1353    5.6094 H   0  0  0  0  0  0  0  0  0  0  0  0
    1.7040   -2.3070   -1.8612 H   0  0  0  0  0  0  0  0  0  0  0  0
    1.0260   -4.6249   -1.9055 H   0  0  0  0  0  0  0  0  0  0  0  0
    0.8422   -9.2245   -1.4845 H   0  0  0  0  0  0  0  0  0  0  0  0
   -0.3563   -9.0546   -0.2079 H   0  0  0  0  0  0  0  0  0  0  0  0
    1.0813  -10.9817    0.3133 H   0  0  0  0  0  0  0  0  0  0  0  0
    1.3686   -9.7238    1.5087 H   0  0  0  0  0  0  0  0  0  0  0  0
    5.1022  -11.5508   -1.2518 H   0  0  0  0  0  0  0  0  0  0  0  0
    5.1823   -9.9432   -0.5201 H   0  0  0  0  0  0  0  0  0  0  0  0
    4.4244   -8.9137   -2.6832 H   0  0  0  0  0  0  0  0  0  0  0  0
    4.3648  -10.5065   -3.4259 H   0  0  0  0  0  0  0  0  0  0  0  0
    6.8205  -10.7975   -3.0284 H   0  0  0  0  0  0  0  0  0  0  0  0
    6.8880   -9.1991   -2.2816 H   0  0  0  0  0  0  0  0  0  0  0  0
    6.0646   -8.1688   -4.4148 H   0  0  0  0  0  0  0  0  0  0  0  0
    5.9992   -9.7663   -5.1612 H   0  0  0  0  0  0  0  0  0  0  0  0
    8.4592  -10.0429   -4.7876 H   0  0  0  0  0  0  0  0  0  0  0  0
    8.5247   -8.4442   -4.0401 H   0  0  0  0  0  0  0  0  0  0  0  0
    7.6956   -7.4152   -6.1692 H   0  0  0  0  0  0  0  0  0  0  0  0
    7.6302   -9.0132   -6.9163 H   0  0  0  0  0  0  0  0  0  0  0  0
   10.0899   -9.2933   -6.5326 H   0  0  0  0  0  0  0  0  0  0  0  0
   10.1553   -7.6952   -5.7854 H   0  0  0  0  0  0  0  0  0  0  0  0
    9.3351   -6.6654   -7.9164 H   0  0  0  0  0  0  0  0  0  0  0  0
    9.2697   -8.2637   -8.6637 H   0  0  0  0  0  0  0  0  0  0  0  0
   11.7293   -8.5453   -8.2744 H   0  0  0  0  0  0  0  0  0  0  0  0
   11.7928   -6.9466   -7.5278 H   0  0  0  0  0  0  0  0  0  0  0  0
   10.9849   -5.9146   -9.6731 H   0  0  0  0  0  0  0  0  0  0  0  0
   10.9264   -7.5193  -10.4173 H   0  0  0  0  0  0  0  0  0  0  0  0
   13.3223   -6.2229   -9.3141 H   0  0  0  0  0  0  0  0  0  0  0  0
   12.9487   -6.3458  -10.8975 H   0  0  0  0  0  0  0  0  0  0  0  0
    3.0893   -5.3340    1.8069 H   0  0  0  0  0  0  0  0  0  0  0  0
    3.9903   -3.0891    1.7422 H   0  0  0  0  0  0  0  0  0  0  0  0
  1  2  1  0  0  0  0
  1 48  1  0  0  0  0
  1 49  1  0  0  0  0
  1 50  1  0  0  0  0
  2 23  2  0  0  0  0
  2  3  1  0  0  0  0
  3  4  1  0  0  0  0
  3 13  2  0  0  0  0
  4  5  2  0  0  0  0
  4  6  1  0  0  0  0
  6  7  1  0  0  0  0
  6 51  1  0  0  0  0
  7 12  1  0  0  0  0
  7  8  1  0  0  0  0
  8  9  1  0  0  0  0
  8 52  1  0  0  0  0
  8 53  1  0  0  0  0
  9 10  1  0  0  0  0
  9 54  1  0  0  0  0
  9 55  1  0  0  0  0
 10 11  1  0  0  0  0
 10 56  1  0  0  0  0
 10 57  1  0  0  0  0
 11 12  1  0  0  0  0
 11 58  1  0  0  0  0
 11 59  1  0  0  0  0
 12 60  1  0  0  0  0
 12 61  1  0  0  0  0
 13 14  1  0  0  0  0
 14 15  1  0  0  0  0
 14 23  1  0  0  0  0
 15 21  2  0  0  0  0
 15 16  1  0  0  0  0
 16 17  2  0  0  0  0
 16 62  1  0  0  0  0
 17 18  1  0  0  0  0
 17 63  1  0  0  0  0
 18 19  1  0  0  0  0
 18 20  2  0  0  0  0
 20 21  1  0  0  0  0
 20 64  1  0  0  0  0
 21 22  1  0  0  0  0
 23 24  1  0  0  0  0
 24 47  2  0  0  0  0
 24 25  1  0  0  0  0
 25 26  2  0  0  0  0
 25 65  1  0  0  0  0
 26 27  1  0  0  0  0
 26 66  1  0  0  0  0
 27 28  1  0  0  0  0
 27 46  2  0  0  0  0
 28 29  3  0  0  0  0
 29 30  1  0  0  0  0
 30 31  1  0  0  0  0
 30 67  1  0  0  0  0
 30 68  1  0  0  0  0
 31 32  1  0  0  0  0
 31 69  1  0  0  0  0
 31 70  1  0  0  0  0
 32 33  1  0  0  0  0
 33 34  2  0  0  0  0
 33 35  1  0  0  0  0
 35 36  1  0  0  0  0
 35 71  1  0  0  0  0
 35 72  1  0  0  0  0
 36 37  1  0  0  0  0
 36 73  1  0  0  0  0
 36 74  1  0  0  0  0
 37 38  1  0  0  0  0
 37 75  1  0  0  0  0
 37 76  1  0  0  0  0
 38 39  1  0  0  0  0
 38 77  1  0  0  0  0
 38 78  1  0  0  0  0
 39 40  1  0  0  0  0
 39 79  1  0  0  0  0
 39 80  1  0  0  0  0
 40 41  1  0  0  0  0
 40 81  1  0  0  0  0
 40 82  1  0  0  0  0
 41 42  1  0  0  0  0
 41 83  1  0  0  0  0
 41 84  1  0  0  0  0
 42 43  1  0  0  0  0
 42 85  1  0  0  0  0
 42 86  1  0  0  0  0
 43 44  1  0  0  0  0
 43 87  1  0  0  0  0
 43 88  1  0  0  0  0
 44 45  1  0  0  0  0
 44 89  1  0  0  0  0
 44 90  1  0  0  0  0
 45 91  1  0  0  0  0
 45 92  1  0  0  0  0
 46 47  1  0  0  0  0
 46 93  1  0  0  0  0
 47 94  1  0  0  0  0
M  END
$$$$
CHEMBL4449666	5TGZ	best_smi
 OpenBabel12022417383D

 89 92  0  0  0  0  0  0  0  0999 V2000
    3.4463   -0.5794   -2.5350 C   0  0  0  0  0  0  0  0  0  0  0  0
    3.4916   -0.2352   -1.0809 C   0  0  0  0  0  0  0  0  0  0  0  0
    3.8970    1.0262   -0.5104 C   0  0  0  0  0  0  0  0  0  0  0  0
    4.3524    2.2802   -1.2034 C   0  0  0  0  0  0  0  0  0  0  0  0
    4.4433    2.3445   -2.4259 O   0  0  0  0  0  0  0  0  0  0  0  0
    4.6512    3.3503   -0.3371 N   0  0  0  0  0  0  0  0  0  0  0  0
    5.0525    4.6808   -0.7272 N   0  0  0  0  0  0  0  0  0  0  0  0
    6.4231    4.7610   -1.2545 C   0  0  0  0  0  0  0  0  0  0  0  0
    6.8676    6.2254   -1.4524 C   0  0  0  0  0  0  0  0  0  0  0  0
    5.8922    6.9895   -2.3349 C   0  0  0  0  0  0  0  0  0  0  0  0
    4.4724    6.8423   -1.8184 C   0  0  0  0  0  0  0  0  0  0  0  0
    4.0922    5.3652   -1.6072 C   0  0  0  0  0  0  0  0  0  0  0  0
    3.8105    0.9674    0.8297 N   0  0  0  0  0  0  0  0  0  0  0  0
    3.3964   -0.2894    1.1410 N   0  0  0  0  0  0  0  0  0  0  0  0
    3.1690   -0.6246    2.5179 C   0  0  0  0  0  0  0  0  0  0  0  0
    2.1039   -1.4862    2.8586 C   0  0  0  0  0  0  0  0  0  0  0  0
    1.8926   -1.8930    4.1767 C   0  0  0  0  0  0  0  0  0  0  0  0
    2.7029   -1.3884    5.1825 C   0  0  0  0  0  0  0  0  0  0  0  0
    2.3818   -1.8017    6.8189 Cl  0  0  0  0  0  0  0  0  0  0  0  0
    3.7469   -0.5188    4.8740 C   0  0  0  0  0  0  0  0  0  0  0  0
    3.9870   -0.1311    3.5477 C   0  0  0  0  0  0  0  0  0  0  0  0
    5.3742    0.8805    3.3124 Cl  0  0  0  0  0  0  0  0  0  0  0  0
    3.1772   -1.0739   -0.0028 C   0  0  0  0  0  0  0  0  0  0  0  0
    2.7631   -2.5068   -0.0167 C   0  0  0  0  0  0  0  0  0  0  0  0
    1.8844   -2.9863   -0.9998 C   0  0  0  0  0  0  0  0  0  0  0  0
    1.4583   -4.3158   -1.0140 C   0  0  0  0  0  0  0  0  0  0  0  0
    1.8337   -5.1752    0.0141 C   0  0  0  0  0  0  0  0  0  0  0  0
    1.3744   -6.5133    0.0048 C   0  0  0  0  0  0  0  0  0  0  0  0
    0.9952   -7.6557   -0.1047 C   0  0  0  0  0  0  0  0  0  0  0  0
    0.5658   -9.0253   -0.3708 C   0  0  0  0  0  0  0  0  0  0  0  0
    1.3402   -9.5823   -1.5665 C   0  0  0  0  0  0  0  0  0  0  0  0
    0.9239  -10.9207   -1.8668 O   0  0  0  0  0  0  0  0  0  0  0  0
   -0.2307  -11.0025   -2.5826 C   0  0  0  0  0  0  0  0  0  0  0  0
   -0.8847  -10.0494   -2.9827 O   0  0  0  0  0  0  0  0  0  0  0  0
   -0.6221  -12.4387   -2.8030 C   0  0  0  0  0  0  0  0  0  0  0  0
   -0.8459  -13.1853   -1.4890 C   0  0  0  0  0  0  0  0  0  0  0  0
   -1.9575  -12.5460   -0.6566 C   0  0  0  0  0  0  0  0  0  0  0  0
   -2.1991  -13.2927    0.6451 C   0  0  0  0  0  0  0  0  0  0  0  0
   -3.2429  -12.5641    1.4428 C   0  0  0  0  0  0  0  0  0  0  0  0
   -2.9505  -11.6456    2.1969 O   0  0  0  0  0  0  0  0  0  0  0  0
   -4.4995  -13.0245    1.1769 O   0  0  0  0  0  0  0  0  0  0  0  0
   -5.6236  -12.4226    1.8794 C   0  0  0  0  0  0  0  0  0  0  0  0
   -5.7794  -10.9463    1.4910 C   0  0  0  0  0  0  0  0  0  0  0  0
   -6.8962  -13.1913    1.4696 C   0  0  0  0  0  0  0  0  0  0  0  0
   -5.4578  -12.5868    3.3947 C   0  0  0  0  0  0  0  0  0  0  0  0
    2.6745   -4.7236    1.0216 C   0  0  0  0  0  0  0  0  0  0  0  0
    3.1855   -3.4232    0.9641 C   0  0  0  0  0  0  0  0  0  0  0  0
    3.1721   -1.6198   -2.7148 H   0  0  0  0  0  0  0  0  0  0  0  0
    4.4265   -0.4634   -3.0026 H   0  0  0  0  0  0  0  0  0  0  0  0
    2.7081    0.0364   -3.0549 H   0  0  0  0  0  0  0  0  0  0  0  0
    4.5148    3.1699    0.6581 H   0  0  0  0  0  0  0  0  0  0  0  0
    6.5062    4.2346   -2.2099 H   0  0  0  0  0  0  0  0  0  0  0  0
    7.1235    4.2944   -0.5532 H   0  0  0  0  0  0  0  0  0  0  0  0
    7.8682    6.2567   -1.8990 H   0  0  0  0  0  0  0  0  0  0  0  0
    6.9407    6.7300   -0.4804 H   0  0  0  0  0  0  0  0  0  0  0  0
    5.9537    6.6116   -3.3690 H   0  0  0  0  0  0  0  0  0  0  0  0
    6.1745    8.0527   -2.3725 H   0  0  0  0  0  0  0  0  0  0  0  0
    3.7739    7.3088   -2.5224 H   0  0  0  0  0  0  0  0  0  0  0  0
    4.3767    7.3920   -0.8698 H   0  0  0  0  0  0  0  0  0  0  0  0
    3.0926    5.3351   -1.1633 H   0  0  0  0  0  0  0  0  0  0  0  0
    4.0390    4.8772   -2.5864 H   0  0  0  0  0  0  0  0  0  0  0  0
    1.4152   -1.8727    2.1106 H   0  0  0  0  0  0  0  0  0  0  0  0
    1.0848   -2.5866    4.4037 H   0  0  0  0  0  0  0  0  0  0  0  0
    4.3796   -0.1375    5.6724 H   0  0  0  0  0  0  0  0  0  0  0  0
    1.4971   -2.3365   -1.7803 H   0  0  0  0  0  0  0  0  0  0  0  0
    0.8232   -4.6669   -1.8231 H   0  0  0  0  0  0  0  0  0  0  0  0
   -0.5112   -9.0441   -0.5685 H   0  0  0  0  0  0  0  0  0  0  0  0
    0.7265   -9.6625    0.5057 H   0  0  0  0  0  0  0  0  0  0  0  0
    2.4129   -9.6211   -1.3403 H   0  0  0  0  0  0  0  0  0  0  0  0
    1.2419   -8.9440   -2.4563 H   0  0  0  0  0  0  0  0  0  0  0  0
    0.1580  -12.9208   -3.4013 H   0  0  0  0  0  0  0  0  0  0  0  0
   -1.5412  -12.4489   -3.4002 H   0  0  0  0  0  0  0  0  0  0  0  0
    0.0838  -13.2105   -0.9079 H   0  0  0  0  0  0  0  0  0  0  0  0
   -1.1092  -14.2256   -1.7141 H   0  0  0  0  0  0  0  0  0  0  0  0
   -2.8864  -12.5119   -1.2396 H   0  0  0  0  0  0  0  0  0  0  0  0
   -1.7002  -11.5042   -0.4252 H   0  0  0  0  0  0  0  0  0  0  0  0
   -1.2843  -13.3140    1.2540 H   0  0  0  0  0  0  0  0  0  0  0  0
   -2.4965  -14.3323    0.4857 H   0  0  0  0  0  0  0  0  0  0  0  0
   -5.9140  -10.8296    0.4098 H   0  0  0  0  0  0  0  0  0  0  0  0
   -4.8935  -10.3615    1.7534 H   0  0  0  0  0  0  0  0  0  0  0  0
   -6.6312  -10.4885    2.0035 H   0  0  0  0  0  0  0  0  0  0  0  0
   -7.0818  -13.1395    0.3916 H   0  0  0  0  0  0  0  0  0  0  0  0
   -7.7818  -12.7968    1.9857 H   0  0  0  0  0  0  0  0  0  0  0  0
   -6.8110  -14.2556    1.7197 H   0  0  0  0  0  0  0  0  0  0  0  0
   -4.5710  -12.0749    3.7731 H   0  0  0  0  0  0  0  0  0  0  0  0
   -5.3401  -13.6447    3.6551 H   0  0  0  0  0  0  0  0  0  0  0  0
   -6.3177  -12.1793    3.9329 H   0  0  0  0  0  0  0  0  0  0  0  0
    2.9368   -5.3724    1.8562 H   0  0  0  0  0  0  0  0  0  0  0  0
    3.8623   -3.1279    1.7623 H   0  0  0  0  0  0  0  0  0  0  0  0
  1  2  1  0  0  0  0
  1 48  1  0  0  0  0
  1 49  1  0  0  0  0
  1 50  1  0  0  0  0
  2 23  2  0  0  0  0
  2  3  1  0  0  0  0
  3  4  1  0  0  0  0
  3 13  2  0  0  0  0
  4  5  2  0  0  0  0
  4  6  1  0  0  0  0
  6  7  1  0  0  0  0
  6 51  1  0  0  0  0
  7 12  1  0  0  0  0
  7  8  1  0  0  0  0
  8  9  1  0  0  0  0
  8 52  1  0  0  0  0
  8 53  1  0  0  0  0
  9 10  1  0  0  0  0
  9 54  1  0  0  0  0
  9 55  1  0  0  0  0
 10 11  1  0  0  0  0
 10 56  1  0  0  0  0
 10 57  1  0  0  0  0
 11 12  1  0  0  0  0
 11 58  1  0  0  0  0
 11 59  1  0  0  0  0
 12 60  1  0  0  0  0
 12 61  1  0  0  0  0
 13 14  1  0  0  0  0
 14 15  1  0  0  0  0
 14 23  1  0  0  0  0
 15 21  2  0  0  0  0
 15 16  1  0  0  0  0
 16 17  2  0  0  0  0
 16 62  1  0  0  0  0
 17 18  1  0  0  0  0
 17 63  1  0  0  0  0
 18 19  1  0  0  0  0
 18 20  2  0  0  0  0
 20 21  1  0  0  0  0
 20 64  1  0  0  0  0
 21 22  1  0  0  0  0
 23 24  1  0  0  0  0
 24 47  2  0  0  0  0
 24 25  1  0  0  0  0
 25 26  2  0  0  0  0
 25 65  1  0  0  0  0
 26 27  1  0  0  0  0
 26 66  1  0  0  0  0
 27 28  1  0  0  0  0
 27 46  2  0  0  0  0
 28 29  3  0  0  0  0
 29 30  1  0  0  0  0
 30 31  1  0  0  0  0
 30 67  1  0  0  0  0
 30 68  1  0  0  0  0
 31 32  1  0  0  0  0
 31 69  1  0  0  0  0
 31 70  1  0  0  0  0
 32 33  1  0  0  0  0
 33 34  2  0  0  0  0
 33 35  1  0  0  0  0
 35 36  1  0  0  0  0
 35 71  1  0  0  0  0
 35 72  1  0  0  0  0
 36 37  1  0  0  0  0
 36 73  1  0  0  0  0
 36 74  1  0  0  0  0
 37 38  1  0  0  0  0
 37 75  1  0  0  0  0
 37 76  1  0  0  0  0
 38 39  1  0  0  0  0
 38 77  1  0  0  0  0
 38 78  1  0  0  0  0
 39 40  2  0  0  0  0
 39 41  1  0  0  0  0
 41 42  1  0  0  0  0
 42 43  1  0  0  0  0
 42 44  1  0  0  0  0
 42 45  1  0  0  0  0
 43 79  1  0  0  0  0
 43 80  1  0  0  0  0
 43 81  1  0  0  0  0
 44 82  1  0  0  0  0
 44 83  1  0  0  0  0
 44 84  1  0  0  0  0
 45 85  1  0  0  0  0
 45 86  1  0  0  0  0
 45 87  1  0  0  0  0
 46 47  1  0  0  0  0
 46 88  1  0  0  0  0
 47 89  1  0  0  0  0
M  END
$$$$
CHEMBL5267903	5TGZ	best_smi
 OpenBabel12022417383D

 62 65  0  0  0  0  0  0  0  0999 V2000
    1.0620    0.2157   -0.0765 C   0  0  0  0  0  0  0  0  0  0  0  0
    2.5491    0.0779   -0.0630 C   0  0  0  0  0  0  0  0  0  0  0  0
    3.5604    1.1202   -0.0665 C   0  0  0  0  0  0  0  0  0  0  0  0
    3.4038    2.6253   -0.1195 C   0  0  0  0  0  0  0  0  0  0  0  0
    2.2986    3.1431   -0.1601 O   0  0  0  0  0  0  0  0  0  0  0  0
    4.6136    3.3666   -0.0817 N   0  0  0  0  0  0  0  0  0  0  0  0
    4.7223    4.8091   -0.0570 N   0  0  0  0  0  0  0  0  0  0  0  0
    4.3770    5.4740   -1.3251 C   0  0  0  0  0  0  0  0  0  0  0  0
    4.7296    6.9739   -1.2921 C   0  0  0  0  0  0  0  0  0  0  0  0
    4.0703    7.6798   -0.1115 C   0  0  0  0  0  0  0  0  0  0  0  0
    4.3795    6.9375    1.1836 C   0  0  0  0  0  0  0  0  0  0  0  0
    4.0407    5.4414    1.0814 C   0  0  0  0  0  0  0  0  0  0  0  0
    4.7748    0.5553   -0.0131 N   0  0  0  0  0  0  0  0  0  0  0  0
    4.5971   -0.7847   -0.0764 N   0  0  0  0  0  0  0  0  0  0  0  0
    5.7260   -1.6620   -0.0473 C   0  0  0  0  0  0  0  0  0  0  0  0
    5.6604   -2.8696    0.6823 C   0  0  0  0  0  0  0  0  0  0  0  0
    6.7398   -3.7439    0.7566 C   0  0  0  0  0  0  0  0  0  0  0  0
    7.9224   -3.3884    0.1342 C   0  0  0  0  0  0  0  0  0  0  0  0
    9.3068   -4.3853    0.3371 Cl  0  0  0  0  0  0  0  0  0  0  0  0
    8.0149   -2.2047   -0.5960 C   0  0  0  0  0  0  0  0  0  0  0  0
    6.9223   -1.3318   -0.6931 C   0  0  0  0  0  0  0  0  0  0  0  0
    7.1797    0.1252   -1.5845 Cl  0  0  0  0  0  0  0  0  0  0  0  0
    3.2451   -1.1371   -0.0561 C   0  0  0  0  0  0  0  0  0  0  0  0
    2.7233   -2.5195   -0.0921 C   0  0  0  0  0  0  0  0  0  0  0  0
    1.5435   -2.8437    0.5776 C   0  0  0  0  0  0  0  0  0  0  0  0
    1.0524   -4.1409    0.5830 C   0  0  0  0  0  0  0  0  0  0  0  0
    1.7710   -5.1555   -0.0312 C   0  0  0  0  0  0  0  0  0  0  0  0
    1.2477   -6.4814   -0.0195 C   0  0  0  0  0  0  0  0  0  0  0  0
    0.7375   -7.5523   -0.0105 C   0  0  0  0  0  0  0  0  0  0  0  0
    0.0016   -8.8214   -0.0115 C   0  0  0  0  0  0  0  0  0  0  0  0
    0.7878   -9.9664    0.6267 C   0  0  0  0  0  0  0  0  0  0  0  0
   -0.0385  -11.1300    0.5657 O   0  0  0  0  0  0  0  0  0  0  0  0
    0.5561  -12.2713    1.1384 N   0  3  0  0  0  0  0  0  0  0  0  0
    1.7157  -12.1436    1.5891 O   0  0  0  0  0  0  0  0  0  0  0  0
   -0.1501  -13.2715    1.0708 O   0  5  0  0  0  0  0  0  0  0  0  0
    2.9629   -4.8799   -0.6805 C   0  0  0  0  0  0  0  0  0  0  0  0
    3.4018   -3.5586   -0.7501 C   0  0  0  0  0  0  0  0  0  0  0  0
    0.5446   -0.7431   -0.0968 H   0  0  0  0  0  0  0  0  0  0  0  0
    0.6997    0.7039   -0.9784 H   0  0  0  0  0  0  0  0  0  0  0  0
    0.7114    0.7217    0.8250 H   0  0  0  0  0  0  0  0  0  0  0  0
    5.4826    2.8381   -0.0307 H   0  0  0  0  0  0  0  0  0  0  0  0
    3.3061    5.3782   -1.5413 H   0  0  0  0  0  0  0  0  0  0  0  0
    4.9274    5.0162   -2.1550 H   0  0  0  0  0  0  0  0  0  0  0  0
    4.4090    7.4550   -2.2244 H   0  0  0  0  0  0  0  0  0  0  0  0
    5.8183    7.1043   -1.2293 H   0  0  0  0  0  0  0  0  0  0  0  0
    2.9848    7.7212   -0.2638 H   0  0  0  0  0  0  0  0  0  0  0  0
    4.4198    8.7179   -0.0456 H   0  0  0  0  0  0  0  0  0  0  0  0
    3.8154    7.3906    2.0074 H   0  0  0  0  0  0  0  0  0  0  0  0
    5.4435    7.0624    1.4228 H   0  0  0  0  0  0  0  0  0  0  0  0
    4.3562    4.9610    2.0136 H   0  0  0  0  0  0  0  0  0  0  0  0
    2.9551    5.3249    0.9961 H   0  0  0  0  0  0  0  0  0  0  0  0
    4.7545   -3.1820    1.1987 H   0  0  0  0  0  0  0  0  0  0  0  0
    6.6515   -4.6605    1.3333 H   0  0  0  0  0  0  0  0  0  0  0  0
    8.9641   -1.9260   -1.0445 H   0  0  0  0  0  0  0  0  0  0  0  0
    0.9687   -2.0932    1.1057 H   0  0  0  0  0  0  0  0  0  0  0  0
    0.0972   -4.3384    1.0648 H   0  0  0  0  0  0  0  0  0  0  0  0
   -0.2733   -9.0960   -1.0306 H   0  0  0  0  0  0  0  0  0  0  0  0
   -0.9470   -8.6978    0.5276 H   0  0  0  0  0  0  0  0  0  0  0  0
    1.0216   -9.7222    1.6707 H   0  0  0  0  0  0  0  0  0  0  0  0
    1.7184  -10.1324    0.0692 H   0  0  0  0  0  0  0  0  0  0  0  0
    3.5516   -5.6575   -1.1557 H   0  0  0  0  0  0  0  0  0  0  0  0
    4.3513   -3.3901   -1.2502 H   0  0  0  0  0  0  0  0  0  0  0  0
  1  2  1  0  0  0  0
  1 38  1  0  0  0  0
  1 39  1  0  0  0  0
  1 40  1  0  0  0  0
  2 23  2  0  0  0  0
  2  3  1  0  0  0  0
  3  4  1  0  0  0  0
  3 13  2  0  0  0  0
  4  5  2  0  0  0  0
  4  6  1  0  0  0  0
  6  7  1  0  0  0  0
  6 41  1  0  0  0  0
  7 12  1  0  0  0  0
  7  8  1  0  0  0  0
  8  9  1  0  0  0  0
  8 42  1  0  0  0  0
  8 43  1  0  0  0  0
  9 10  1  0  0  0  0
  9 44  1  0  0  0  0
  9 45  1  0  0  0  0
 10 11  1  0  0  0  0
 10 46  1  0  0  0  0
 10 47  1  0  0  0  0
 11 12  1  0  0  0  0
 11 48  1  0  0  0  0
 11 49  1  0  0  0  0
 12 50  1  0  0  0  0
 12 51  1  0  0  0  0
 13 14  1  0  0  0  0
 14 15  1  0  0  0  0
 14 23  1  0  0  0  0
 15 21  2  0  0  0  0
 15 16  1  0  0  0  0
 16 17  2  0  0  0  0
 16 52  1  0  0  0  0
 17 18  1  0  0  0  0
 17 53  1  0  0  0  0
 18 19  1  0  0  0  0
 18 20  2  0  0  0  0
 20 21  1  0  0  0  0
 20 54  1  0  0  0  0
 21 22  1  0  0  0  0
 23 24  1  0  0  0  0
 24 37  2  0  0  0  0
 24 25  1  0  0  0  0
 25 26  2  0  0  0  0
 25 55  1  0  0  0  0
 26 27  1  0  0  0  0
 26 56  1  0  0  0  0
 27 28  1  0  0  0  0
 27 36  2  0  0  0  0
 28 29  3  0  0  0  0
 29 30  1  0  0  0  0
 30 31  1  0  0  0  0
 30 57  1  0  0  0  0
 30 58  1  0  0  0  0
 31 32  1  0  0  0  0
 31 59  1  0  0  0  0
 31 60  1  0  0  0  0
 32 33  1  0  0  0  0
 33 34  2  0  0  0  0
 33 35  1  0  0  0  0
 36 37  1  0  0  0  0
 36 61  1  0  0  0  0
 37 62  1  0  0  0  0
M  CHG  2  33   1  35  -1
M  END
$$$$
