CHEMBL220360	5U09	best_smi
 OpenBabel12022417383D

 61 63  0  0  1  0  0  0  0  0999 V2000
    3.1237   -1.6870    0.2500 C   0  0  0  0  0  0  0  0  0  0  0  0
    2.5571   -0.2495    0.2493 C   0  0  2  0  0  0  0  0  0  0  0  0
    1.0749   -0.2168    0.3858 N   0  0  0  0  0  0  0  0  0  0  0  0
    0.3110   -1.1979    1.0194 C   0  0  0  0  0  0  0  0  0  0  0  0
    0.7809   -2.2919    1.3297 O   0  0  0  0  0  0  0  0  0  0  0  0
   -1.2072   -0.8750    1.3017 C   0  0  0  0  0  0  0  0  0  0  0  0
   -1.7963   -0.0788    0.1149 C   0  0  0  0  0  0  0  0  0  0  0  0
   -2.0094   -2.2032    1.3130 C   0  0  0  0  0  0  0  0  0  0  0  0
   -1.4549   -0.0635    2.4698 O   0  0  0  0  0  0  0  0  0  0  0  0
   -1.0733   -0.5747    3.6965 C   0  0  0  0  0  0  0  0  0  0  0  0
   -1.3646    0.1541    4.8377 C   0  0  0  0  0  0  0  0  0  0  0  0
   -0.9992   -0.3723    6.0836 C   0  0  0  0  0  0  0  0  0  0  0  0
   -0.3499   -1.6092    6.1520 C   0  0  0  0  0  0  0  0  0  0  0  0
    0.0821   -2.2606    7.4281 C   0  0  0  0  0  0  0  0  0  0  0  0
   -0.2419   -1.5468    8.5413 F   0  0  0  0  0  0  0  0  0  0  0  0
   -0.4736   -3.4920    7.6029 F   0  0  0  0  0  0  0  0  0  0  0  0
    1.4295   -2.4507    7.4868 F   0  0  0  0  0  0  0  0  0  0  0  0
   -0.0965   -2.2526    4.9552 C   0  0  0  0  0  0  0  0  0  0  0  0
   -0.4437   -1.7542    3.7496 N   0  0  0  0  0  0  0  0  0  0  0  0
    3.0669    0.5086   -1.0406 C   0  0  1  0  0  0  0  0  0  0  0  0
    2.5972    1.9744   -1.2173 C   0  0  0  0  0  0  0  0  0  0  0  0
    3.0784    2.9940   -0.2084 C   0  0  0  0  0  0  0  0  0  0  0  0
    2.2959    3.3007    0.9167 C   0  0  0  0  0  0  0  0  0  0  0  0
    2.6921    4.2999    1.8072 C   0  0  0  0  0  0  0  0  0  0  0  0
    3.8777    4.9956    1.5875 C   0  0  0  0  0  0  0  0  0  0  0  0
    4.3413    6.2520    2.6661 Cl  0  0  0  0  0  0  0  0  0  0  0  0
    4.6748    4.6865    0.4841 C   0  0  0  0  0  0  0  0  0  0  0  0
    4.2780    3.6975   -0.4151 C   0  0  0  0  0  0  0  0  0  0  0  0
    4.5817    0.4136   -1.2696 C   0  0  0  0  0  0  0  0  0  0  0  0
    5.0764    0.2437   -2.5727 C   0  0  0  0  0  0  0  0  0  0  0  0
    6.4406    0.0489   -2.7989 C   0  0  0  0  0  0  0  0  0  0  0  0
    7.3307    0.0127   -1.7259 C   0  0  0  0  0  0  0  0  0  0  0  0
    6.8627    0.2094   -0.4254 C   0  0  0  0  0  0  0  0  0  0  0  0
    7.7633    0.1317    0.6873 C   0  0  0  0  0  0  0  0  0  0  0  0
    8.4868    0.0562    1.5915 N   0  0  0  0  0  0  0  0  0  0  0  0
    5.5004    0.4410   -0.2043 C   0  0  0  0  0  0  0  0  0  0  0  0
    4.1987   -1.7380    0.0746 H   0  0  0  0  0  0  0  0  0  0  0  0
    2.6391   -2.2990   -0.5184 H   0  0  0  0  0  0  0  0  0  0  0  0
    2.9949   -2.1611    1.2267 H   0  0  0  0  0  0  0  0  0  0  0  0
    2.9270    0.2662    1.1425 H   0  0  0  0  0  0  0  0  0  0  0  0
    0.6485    0.6934    0.3064 H   0  0  0  0  0  0  0  0  0  0  0  0
   -1.7106   -0.6405   -0.8225 H   0  0  0  0  0  0  0  0  0  0  0  0
   -1.3144    0.8936   -0.0228 H   0  0  0  0  0  0  0  0  0  0  0  0
   -2.8560    0.1458    0.2881 H   0  0  0  0  0  0  0  0  0  0  0  0
   -1.6659   -2.8700    0.5126 H   0  0  0  0  0  0  0  0  0  0  0  0
   -3.0796   -2.0250    1.1651 H   0  0  0  0  0  0  0  0  0  0  0  0
   -1.9305   -2.7646    2.2467 H   0  0  0  0  0  0  0  0  0  0  0  0
   -1.8834    1.1060    4.7714 H   0  0  0  0  0  0  0  0  0  0  0  0
   -1.2201    0.1832    6.9928 H   0  0  0  0  0  0  0  0  0  0  0  0
    0.3947   -3.2228    4.9184 H   0  0  0  0  0  0  0  0  0  0  0  0
    2.6005   -0.0364   -1.8766 H   0  0  0  0  0  0  0  0  0  0  0  0
    1.5023    2.0103   -1.2573 H   0  0  0  0  0  0  0  0  0  0  0  0
    2.9069    2.3273   -2.2138 H   0  0  0  0  0  0  0  0  0  0  0  0
    1.3517    2.7926    1.0928 H   0  0  0  0  0  0  0  0  0  0  0  0
    2.0632    4.5412    2.6605 H   0  0  0  0  0  0  0  0  0  0  0  0
    5.6018    5.2359    0.3149 H   0  0  0  0  0  0  0  0  0  0  0  0
    4.9023    3.4878   -1.2819 H   0  0  0  0  0  0  0  0  0  0  0  0
    4.3974    0.2357   -3.4240 H   0  0  0  0  0  0  0  0  0  0  0  0
    6.8065   -0.1013   -3.8122 H   0  0  0  0  0  0  0  0  0  0  0  0
    8.3857   -0.1802   -1.9099 H   0  0  0  0  0  0  0  0  0  0  0  0
    5.1526    0.5861    0.8175 H   0  0  0  0  0  0  0  0  0  0  0  0
  1 37  1  0  0  0  0
  1 38  1  0  0  0  0
  1 39  1  0  0  0  0
  2 20  1  0  0  0  0
  2  3  1  0  0  0  0
  2  1  1  0  0  0  0
  2 40  1  1  0  0  0
  3  4  1  0  0  0  0
  3 41  1  0  0  0  0
  4  5  2  0  0  0  0
  4  6  1  0  0  0  0
  6  7  1  0  0  0  0
  6  8  1  0  0  0  0
  6  9  1  0  0  0  0
  7 42  1  0  0  0  0
  7 43  1  0  0  0  0
  7 44  1  0  0  0  0
  8 45  1  0  0  0  0
  8 46  1  0  0  0  0
  8 47  1  0  0  0  0
  9 10  1  0  0  0  0
 10 19  2  0  0  0  0
 10 11  1  0  0  0  0
 11 12  2  0  0  0  0
 11 48  1  0  0  0  0
 12 13  1  0  0  0  0
 12 49  1  0  0  0  0
 13 14  1  0  0  0  0
 13 18  2  0  0  0  0
 14 15  1  0  0  0  0
 14 16  1  0  0  0  0
 14 17  1  0  0  0  0
 18 19  1  0  0  0  0
 18 50  1  0  0  0  0
 20 21  1  0  0  0  0
 20 29  1  0  0  0  0
 20 51  1  6  0  0  0
 21 22  1  0  0  0  0
 21 52  1  0  0  0  0
 21 53  1  0  0  0  0
 22 28  2  0  0  0  0
 22 23  1  0  0  0  0
 23 24  2  0  0  0  0
 23 54  1  0  0  0  0
 24 25  1  0  0  0  0
 24 55  1  0  0  0  0
 25 26  1  0  0  0  0
 25 27  2  0  0  0  0
 27 28  1  0  0  0  0
 27 56  1  0  0  0  0
 28 57  1  0  0  0  0
 29 36  2  0  0  0  0
 29 30  1  0  0  0  0
 30 31  2  0  0  0  0
 30 58  1  0  0  0  0
 31 32  1  0  0  0  0
 31 59  1  0  0  0  0
 32 33  2  0  0  0  0
 32 60  1  0  0  0  0
 33 34  1  0  0  0  0
 33 36  1  0  0  0  0
 34 35  3  0  0  0  0
 36 61  1  0  0  0  0
M  END
$$$$
CHEMBL226534	5U09	best_smi
 OpenBabel12022417383D

 68 70  0  0  1  0  0  0  0  0999 V2000
    3.0652   -0.7908    1.6689 C   0  0  0  0  0  0  0  0  0  0  0  0
    2.5658   -0.1349    0.3676 C   0  0  2  0  0  0  0  0  0  0  0  0
    1.0945   -0.2522    0.4072 N   0  0  0  0  0  0  0  0  0  0  0  0
    0.2868    0.5954    1.1614 C   0  0  0  0  0  0  0  0  0  0  0  0
    0.7565    1.5744    1.7423 O   0  0  0  0  0  0  0  0  0  0  0  0
   -1.2395    0.2137    1.2441 C   0  0  0  0  0  0  0  0  0  0  0  0
   -2.0303    1.5361    1.2911 C   0  0  0  0  0  0  0  0  0  0  0  0
   -1.6229   -0.6106   -0.0016 C   0  0  0  0  0  0  0  0  0  0  0  0
   -1.3932   -0.5139    2.4921 O   0  0  0  0  0  0  0  0  0  0  0  0
   -2.6679   -0.9257    2.8292 C   0  0  0  0  0  0  0  0  0  0  0  0
   -2.9670   -1.1357    4.1666 C   0  0  0  0  0  0  0  0  0  0  0  0
   -4.2521   -1.5862    4.5031 C   0  0  0  0  0  0  0  0  0  0  0  0
   -5.1908   -1.8219    3.4935 C   0  0  0  0  0  0  0  0  0  0  0  0
   -6.5879   -2.3008    3.7383 C   0  0  0  0  0  0  0  0  0  0  0  0
   -6.8821   -2.4869    5.0532 F   0  0  0  0  0  0  0  0  0  0  0  0
   -7.5241   -1.4331    3.2631 F   0  0  0  0  0  0  0  0  0  0  0  0
   -6.8421   -3.4901    3.1248 F   0  0  0  0  0  0  0  0  0  0  0  0
   -4.7861   -1.5971    2.1905 C   0  0  0  0  0  0  0  0  0  0  0  0
   -3.5547   -1.1645    1.8472 N   0  0  0  0  0  0  0  0  0  0  0  0
    3.1886   -0.7843   -0.9327 C   0  0  1  0  0  0  0  0  0  0  0  0
    2.4926   -0.3040   -2.2438 C   0  0  0  0  0  0  0  0  0  0  0  0
    2.6485    1.1481   -2.6288 C   0  0  0  0  0  0  0  0  0  0  0  0
    1.6468    2.0483   -2.2646 C   0  0  0  0  0  0  0  0  0  0  0  0
    1.6915    3.3733   -2.6900 C   0  0  0  0  0  0  0  0  0  0  0  0
    2.7356    3.8312   -3.4940 C   0  0  0  0  0  0  0  0  0  0  0  0
    2.8212    5.0997   -4.0113 O   0  0  0  0  0  0  0  0  0  0  0  0
    1.6459    5.8929   -3.8330 C   0  0  0  0  0  0  0  0  0  0  0  0
    1.7572    7.2171   -4.5595 C   0  0  0  0  0  0  0  0  0  0  0  0
    0.6254    7.9370   -4.3220 F   0  0  0  0  0  0  0  0  0  0  0  0
    3.7676    2.9524   -3.8225 C   0  0  0  0  0  0  0  0  0  0  0  0
    3.7240    1.6173   -3.3978 C   0  0  0  0  0  0  0  0  0  0  0  0
    4.7194   -0.7322   -1.0887 C   0  0  0  0  0  0  0  0  0  0  0  0
    5.5572   -0.0449   -0.1993 C   0  0  0  0  0  0  0  0  0  0  0  0
    6.9486   -0.0940   -0.3220 C   0  0  0  0  0  0  0  0  0  0  0  0
    7.5352   -0.7478   -1.4003 C   0  0  0  0  0  0  0  0  0  0  0  0
    6.7279   -1.3709   -2.3499 C   0  0  0  0  0  0  0  0  0  0  0  0
    7.3150   -1.9384   -3.5266 C   0  0  0  0  0  0  0  0  0  0  0  0
    7.7885   -2.3686   -4.4982 N   0  0  0  0  0  0  0  0  0  0  0  0
    5.3369   -1.4015   -2.1681 C   0  0  0  0  0  0  0  0  0  0  0  0
    4.1199   -1.0635    1.6604 H   0  0  0  0  0  0  0  0  0  0  0  0
    2.5034   -1.7045    1.8911 H   0  0  0  0  0  0  0  0  0  0  0  0
    2.9139   -0.1042    2.5099 H   0  0  0  0  0  0  0  0  0  0  0  0
    2.8205    0.9324    0.3885 H   0  0  0  0  0  0  0  0  0  0  0  0
    0.7206   -1.1663    0.1902 H   0  0  0  0  0  0  0  0  0  0  0  0
   -1.8417    2.1419    0.3999 H   0  0  0  0  0  0  0  0  0  0  0  0
   -1.7627    2.1288    2.1744 H   0  0  0  0  0  0  0  0  0  0  0  0
   -3.1110    1.3667    1.3559 H   0  0  0  0  0  0  0  0  0  0  0  0
   -1.1248   -0.2440   -0.9044 H   0  0  0  0  0  0  0  0  0  0  0  0
   -2.6929   -0.5655   -0.2225 H   0  0  0  0  0  0  0  0  0  0  0  0
   -1.3659   -1.6676    0.1407 H   0  0  0  0  0  0  0  0  0  0  0  0
   -2.2284   -0.9449    4.9375 H   0  0  0  0  0  0  0  0  0  0  0  0
   -4.5121   -1.7484    5.5468 H   0  0  0  0  0  0  0  0  0  0  0  0
   -5.4564   -1.7624    1.3499 H   0  0  0  0  0  0  0  0  0  0  0  0
    2.9511   -1.8574   -0.8553 H   0  0  0  0  0  0  0  0  0  0  0  0
    1.4195   -0.5322   -2.1820 H   0  0  0  0  0  0  0  0  0  0  0  0
    2.8210   -0.9081   -3.0995 H   0  0  0  0  0  0  0  0  0  0  0  0
    0.8022    1.7237   -1.6640 H   0  0  0  0  0  0  0  0  0  0  0  0
    0.8753    4.0151   -2.3772 H   0  0  0  0  0  0  0  0  0  0  0  0
    1.4943    6.1011   -2.7674 H   0  0  0  0  0  0  0  0  0  0  0  0
    0.7656    5.3679   -4.2258 H   0  0  0  0  0  0  0  0  0  0  0  0
    1.8533    7.0751   -5.6392 H   0  0  0  0  0  0  0  0  0  0  0  0
    2.6148    7.7968   -4.2091 H   0  0  0  0  0  0  0  0  0  0  0  0
    4.6011    3.2954   -4.4317 H   0  0  0  0  0  0  0  0  0  0  0  0
    4.5276    0.9477   -3.6968 H   0  0  0  0  0  0  0  0  0  0  0  0
    5.1558    0.5392    0.6249 H   0  0  0  0  0  0  0  0  0  0  0  0
    7.5711    0.3978    0.4221 H   0  0  0  0  0  0  0  0  0  0  0  0
    8.6181   -0.7474   -1.5032 H   0  0  0  0  0  0  0  0  0  0  0  0
    4.7320   -1.9294   -2.9047 H   0  0  0  0  0  0  0  0  0  0  0  0
  1 40  1  0  0  0  0
  1 41  1  0  0  0  0
  1 42  1  0  0  0  0
  2 20  1  0  0  0  0
  2  3  1  0  0  0  0
  2  1  1  0  0  0  0
  2 43  1  1  0  0  0
  3  4  1  0  0  0  0
  3 44  1  0  0  0  0
  4  5  2  0  0  0  0
  4  6  1  0  0  0  0
  6  7  1  0  0  0  0
  6  8  1  0  0  0  0
  6  9  1  0  0  0  0
  7 45  1  0  0  0  0
  7 46  1  0  0  0  0
  7 47  1  0  0  0  0
  8 48  1  0  0  0  0
  8 49  1  0  0  0  0
  8 50  1  0  0  0  0
  9 10  1  0  0  0  0
 10 19  2  0  0  0  0
 10 11  1  0  0  0  0
 11 12  2  0  0  0  0
 11 51  1  0  0  0  0
 12 13  1  0  0  0  0
 12 52  1  0  0  0  0
 13 14  1  0  0  0  0
 13 18  2  0  0  0  0
 14 15  1  0  0  0  0
 14 16  1  0  0  0  0
 14 17  1  0  0  0  0
 18 19  1  0  0  0  0
 18 53  1  0  0  0  0
 20 21  1  0  0  0  0
 20 32  1  0  0  0  0
 20 54  1  1  0  0  0
 21 22  1  0  0  0  0
 21 55  1  0  0  0  0
 21 56  1  0  0  0  0
 22 31  2  0  0  0  0
 22 23  1  0  0  0  0
 23 24  2  0  0  0  0
 23 57  1  0  0  0  0
 24 25  1  0  0  0  0
 24 58  1  0  0  0  0
 25 26  1  0  0  0  0
 25 30  2  0  0  0  0
 26 27  1  0  0  0  0
 27 28  1  0  0  0  0
 27 59  1  0  0  0  0
 27 60  1  0  0  0  0
 28 29  1  0  0  0  0
 28 61  1  0  0  0  0
 28 62  1  0  0  0  0
 30 31  1  0  0  0  0
 30 63  1  0  0  0  0
 31 64  1  0  0  0  0
 32 39  2  0  0  0  0
 32 33  1  0  0  0  0
 33 34  2  0  0  0  0
 33 65  1  0  0  0  0
 34 35  1  0  0  0  0
 34 66  1  0  0  0  0
 35 36  2  0  0  0  0
 35 67  1  0  0  0  0
 36 37  1  0  0  0  0
 36 39  1  0  0  0  0
 37 38  3  0  0  0  0
 39 68  1  0  0  0  0
M  END
$$$$
CHEMBL226640	5U09	best_smi
 OpenBabel12022417383D

 67 69  0  0  1  0  0  0  0  0999 V2000
    3.2375   -1.1771    1.2773 C   0  0  0  0  0  0  0  0  0  0  0  0
    2.6240   -0.1465    0.3089 C   0  0  2  0  0  0  0  0  0  0  0  0
    1.1569   -0.2840    0.3604 N   0  0  0  0  0  0  0  0  0  0  0  0
    0.3866   -0.0050    1.4866 C   0  0  0  0  0  0  0  0  0  0  0  0
    0.8966    0.4608    2.5076 O   0  0  0  0  0  0  0  0  0  0  0  0
   -1.1520   -0.3431    1.4183 C   0  0  0  0  0  0  0  0  0  0  0  0
   -1.5366   -0.7952   -0.0019 C   0  0  0  0  0  0  0  0  0  0  0  0
   -1.3973   -1.4469    2.4674 C   0  0  0  0  0  0  0  0  0  0  0  0
   -1.8159    0.8936    1.7904 O   0  0  0  0  0  0  0  0  0  0  0  0
   -3.1933    0.8997    1.8808 C   0  0  0  0  0  0  0  0  0  0  0  0
   -3.7995    2.0550    2.3179 C   0  0  0  0  0  0  0  0  0  0  0  0
   -5.1880    2.0521    2.3357 C   0  0  0  0  0  0  0  0  0  0  0  0
   -5.9599    3.2669    2.8190 C   0  0  0  0  0  0  0  0  0  0  0  0
   -5.1598    4.3087    3.1892 F   0  0  0  0  0  0  0  0  0  0  0  0
   -6.8011    3.7717    1.8713 F   0  0  0  0  0  0  0  0  0  0  0  0
   -6.7379    2.9987    3.9067 F   0  0  0  0  0  0  0  0  0  0  0  0
   -5.9071    0.9724    1.9268 N   0  0  0  0  0  0  0  0  0  0  0  0
   -5.2128   -0.0938    1.5301 C   0  0  0  0  0  0  0  0  0  0  0  0
   -3.8831   -0.1827    1.5018 N   0  0  0  0  0  0  0  0  0  0  0  0
    3.1913   -0.3623   -1.1479 C   0  0  1  0  0  0  0  0  0  0  0  0
    2.5569    0.5166   -2.2579 C   0  0  0  0  0  0  0  0  0  0  0  0
    2.7065    2.0126   -2.1474 C   0  0  0  0  0  0  0  0  0  0  0  0
    1.7111    2.7411   -1.4950 C   0  0  0  0  0  0  0  0  0  0  0  0
    1.7446    4.1298   -1.4787 C   0  0  0  0  0  0  0  0  0  0  0  0
    2.7695    4.8285   -2.1168 C   0  0  0  0  0  0  0  0  0  0  0  0
    2.8278    6.2020   -2.2181 O   0  0  0  0  0  0  0  0  0  0  0  0
    1.6516    6.8779   -1.7593 C   0  0  0  0  0  0  0  0  0  0  0  0
    1.7125    8.3641   -2.0400 C   0  0  0  0  0  0  0  0  0  0  0  0
    0.5881    8.9440   -1.5338 F   0  0  0  0  0  0  0  0  0  0  0  0
    3.8050    4.1133   -2.7211 C   0  0  0  0  0  0  0  0  0  0  0  0
    3.7724    2.7016   -2.7361 C   0  0  0  0  0  0  0  0  0  0  0  0
    4.7139   -0.3086   -1.2802 C   0  0  0  0  0  0  0  0  0  0  0  0
    5.5053    0.5028   -0.4552 C   0  0  0  0  0  0  0  0  0  0  0  0
    6.8943    0.5127   -0.5813 C   0  0  0  0  0  0  0  0  0  0  0  0
    7.5131   -0.2498   -1.5678 C   0  0  0  0  0  0  0  0  0  0  0  0
    6.7437   -1.0294   -2.4340 C   0  0  0  0  0  0  0  0  0  0  0  0
    7.3740   -1.7788   -3.4803 C   0  0  0  0  0  0  0  0  0  0  0  0
    7.8759   -2.3773   -4.3336 N   0  0  0  0  0  0  0  0  0  0  0  0
    5.3506   -1.0660   -2.2818 C   0  0  0  0  0  0  0  0  0  0  0  0
    4.3290   -1.1983    1.2415 H   0  0  0  0  0  0  0  0  0  0  0  0
    2.8752   -2.1863    1.0518 H   0  0  0  0  0  0  0  0  0  0  0  0
    2.9677   -0.9560    2.3144 H   0  0  0  0  0  0  0  0  0  0  0  0
    2.8593    0.8618    0.6671 H   0  0  0  0  0  0  0  0  0  0  0  0
    0.7272   -0.7120   -0.4431 H   0  0  0  0  0  0  0  0  0  0  0  0
   -0.9828   -1.6910   -0.3012 H   0  0  0  0  0  0  0  0  0  0  0  0
   -1.3424    0.0114   -0.7187 H   0  0  0  0  0  0  0  0  0  0  0  0
   -2.5879   -1.0565   -0.1219 H   0  0  0  0  0  0  0  0  0  0  0  0
   -0.6204   -2.2181    2.4396 H   0  0  0  0  0  0  0  0  0  0  0  0
   -2.3549   -1.9556    2.3129 H   0  0  0  0  0  0  0  0  0  0  0  0
   -1.4259   -1.0288    3.4815 H   0  0  0  0  0  0  0  0  0  0  0  0
   -3.2178    2.9144    2.6285 H   0  0  0  0  0  0  0  0  0  0  0  0
   -5.7713   -0.9595    1.1924 H   0  0  0  0  0  0  0  0  0  0  0  0
    2.9059   -1.3949   -1.4072 H   0  0  0  0  0  0  0  0  0  0  0  0
    1.4844    0.2865   -2.3284 H   0  0  0  0  0  0  0  0  0  0  0  0
    2.9506    0.2147   -3.2398 H   0  0  0  0  0  0  0  0  0  0  0  0
    0.8745    2.2344   -1.0198 H   0  0  0  0  0  0  0  0  0  0  0  0
    0.9299    4.6321   -0.9689 H   0  0  0  0  0  0  0  0  0  0  0  0
    1.5445    6.7401   -0.6764 H   0  0  0  0  0  0  0  0  0  0  0  0
    0.7601    6.4817   -2.2619 H   0  0  0  0  0  0  0  0  0  0  0  0
    1.7485    8.5687   -3.1137 H   0  0  0  0  0  0  0  0  0  0  0  0
    2.5817    8.8291   -1.5686 H   0  0  0  0  0  0  0  0  0  0  0  0
    4.6261    4.6376   -3.2017 H   0  0  0  0  0  0  0  0  0  0  0  0
    4.5740    2.1700   -3.2402 H   0  0  0  0  0  0  0  0  0  0  0  0
    5.0553    1.1345    0.3077 H   0  0  0  0  0  0  0  0  0  0  0  0
    7.4896    1.1248    0.0927 H   0  0  0  0  0  0  0  0  0  0  0  0
    8.5971   -0.2231   -1.6612 H   0  0  0  0  0  0  0  0  0  0  0  0
    4.7575   -1.6815   -2.9588 H   0  0  0  0  0  0  0  0  0  0  0  0
  1 40  1  0  0  0  0
  1 41  1  0  0  0  0
  1 42  1  0  0  0  0
  2 20  1  0  0  0  0
  2  3  1  0  0  0  0
  2  1  1  0  0  0  0
  2 43  1  1  0  0  0
  3  4  1  0  0  0  0
  3 44  1  0  0  0  0
  4  5  2  0  0  0  0
  4  6  1  0  0  0  0
  6  7  1  0  0  0  0
  6  8  1  0  0  0  0
  6  9  1  0  0  0  0
  7 45  1  0  0  0  0
  7 46  1  0  0  0  0
  7 47  1  0  0  0  0
  8 48  1  0  0  0  0
  8 49  1  0  0  0  0
  8 50  1  0  0  0  0
  9 10  1  0  0  0  0
 10 19  2  0  0  0  0
 10 11  1  0  0  0  0
 11 12  2  0  0  0  0
 11 51  1  0  0  0  0
 12 13  1  0  0  0  0
 12 17  1  0  0  0  0
 13 14  1  0  0  0  0
 13 15  1  0  0  0  0
 13 16  1  0  0  0  0
 17 18  2  0  0  0  0
 18 19  1  0  0  0  0
 18 52  1  0  0  0  0
 20 21  1  0  0  0  0
 20 32  1  0  0  0  0
 20 53  1  6  0  0  0
 21 22  1  0  0  0  0
 21 54  1  0  0  0  0
 21 55  1  0  0  0  0
 22 31  2  0  0  0  0
 22 23  1  0  0  0  0
 23 24  2  0  0  0  0
 23 56  1  0  0  0  0
 24 25  1  0  0  0  0
 24 57  1  0  0  0  0
 25 26  1  0  0  0  0
 25 30  2  0  0  0  0
 26 27  1  0  0  0  0
 27 28  1  0  0  0  0
 27 58  1  0  0  0  0
 27 59  1  0  0  0  0
 28 29  1  0  0  0  0
 28 60  1  0  0  0  0
 28 61  1  0  0  0  0
 30 31  1  0  0  0  0
 30 62  1  0  0  0  0
 31 63  1  0  0  0  0
 32 39  2  0  0  0  0
 32 33  1  0  0  0  0
 33 34  2  0  0  0  0
 33 64  1  0  0  0  0
 34 35  1  0  0  0  0
 34 65  1  0  0  0  0
 35 36  2  0  0  0  0
 35 66  1  0  0  0  0
 36 37  1  0  0  0  0
 36 39  1  0  0  0  0
 37 38  3  0  0  0  0
 39 67  1  0  0  0  0
M  END
$$$$
CHEMBL230715	5U09	best_smi
 OpenBabel12022417383D

 56 58  0  0  1  0  0  0  0  0999 V2000
    3.1072    1.0572   -1.0610 C   0  0  0  0  0  0  0  0  0  0  0  0
    2.6430   -0.0849   -0.1318 C   0  0  2  0  0  0  0  0  0  0  0  0
    1.1621    0.0274   -0.1942 N   0  0  0  0  0  0  0  0  0  0  0  0
    0.0160   -1.0923    0.2557 S   0  0  0  0  0  0  0  0  0  0  0  0
   -1.1449   -0.8432   -0.5656 O   0  0  0  0  0  0  0  0  0  0  0  0
    0.6053   -2.3962    0.3894 O   0  0  0  0  0  0  0  0  0  0  0  0
   -0.4240   -0.4779    1.8811 C   0  0  0  0  0  0  0  0  0  0  0  0
    0.0011    0.8095    2.2413 C   0  0  0  0  0  0  0  0  0  0  0  0
   -0.1657    1.2894    3.5391 C   0  0  0  0  0  0  0  0  0  0  0  0
    0.4257    2.6212    3.9376 C   0  0  0  0  0  0  0  0  0  0  0  0
    1.2548    3.1393    2.9849 F   0  0  0  0  0  0  0  0  0  0  0  0
   -0.5200    3.5666    4.1682 F   0  0  0  0  0  0  0  0  0  0  0  0
    1.1760    2.5384    5.0686 F   0  0  0  0  0  0  0  0  0  0  0  0
   -0.8765    0.4967    4.4472 C   0  0  0  0  0  0  0  0  0  0  0  0
   -1.3584   -0.7807    4.0854 C   0  0  0  0  0  0  0  0  0  0  0  0
   -2.1676   -1.5982    5.0666 C   0  0  0  0  0  0  0  0  0  0  0  0
   -2.4407   -0.9296    6.2209 F   0  0  0  0  0  0  0  0  0  0  0  0
   -3.3719   -1.9687    4.5549 F   0  0  0  0  0  0  0  0  0  0  0  0
   -1.5377   -2.7451    5.4341 F   0  0  0  0  0  0  0  0  0  0  0  0
   -1.0859   -1.2887    2.8013 C   0  0  0  0  0  0  0  0  0  0  0  0
    3.2644    0.0005    1.3420 C   0  0  1  0  0  0  0  0  0  0  0  0
    2.8298   -1.2092    2.2349 C   0  0  0  0  0  0  0  0  0  0  0  0
    3.2147   -2.6213    1.8238 C   0  0  0  0  0  0  0  0  0  0  0  0
    2.7268   -3.6880    2.5944 C   0  0  0  0  0  0  0  0  0  0  0  0
    3.0385   -5.0105    2.2526 C   0  0  0  0  0  0  0  0  0  0  0  0
    3.8342   -5.2718    1.1381 C   0  0  0  0  0  0  0  0  0  0  0  0
    4.2076   -6.8915    0.7095 Cl  0  0  0  0  0  0  0  0  0  0  0  0
    4.3340   -4.2286    0.3734 C   0  0  0  0  0  0  0  0  0  0  0  0
    4.0322   -2.9159    0.7219 C   0  0  0  0  0  0  0  0  0  0  0  0
    4.7991    0.2202    1.5035 C   0  0  0  0  0  0  0  0  0  0  0  0
    5.4608    1.3271    0.9592 C   0  0  0  0  0  0  0  0  0  0  0  0
    6.8622    1.4421    1.0241 C   0  0  0  0  0  0  0  0  0  0  0  0
    7.6291    0.4885    1.6835 C   0  0  0  0  0  0  0  0  0  0  0  0
    6.9972   -0.5530    2.3399 C   0  0  0  0  0  0  0  0  0  0  0  0
    7.7309   -1.5381    3.0725 C   0  0  0  0  0  0  0  0  0  0  0  0
    8.2941   -2.3610    3.6742 N   0  0  0  0  0  0  0  0  0  0  0  0
    5.6051   -0.6552    2.2700 C   0  0  0  0  0  0  0  0  0  0  0  0
    4.1758    1.0133   -1.2757 H   0  0  0  0  0  0  0  0  0  0  0  0
    2.8525    2.0372   -0.6377 H   0  0  0  0  0  0  0  0  0  0  0  0
    2.6050    0.9974   -2.0357 H   0  0  0  0  0  0  0  0  0  0  0  0
    2.9291   -1.0052   -0.6415 H   0  0  0  0  0  0  0  0  0  0  0  0
    0.7513    0.7418   -0.7962 H   0  0  0  0  0  0  0  0  0  0  0  0
    0.5264    1.4384    1.5265 H   0  0  0  0  0  0  0  0  0  0  0  0
   -1.0582    0.8798    5.4529 H   0  0  0  0  0  0  0  0  0  0  0  0
   -1.3919   -2.2979    2.5267 H   0  0  0  0  0  0  0  0  0  0  0  0
    2.8238    0.8947    1.8065 H   0  0  0  0  0  0  0  0  0  0  0  0
    1.7584   -1.2102    2.3590 H   0  0  0  0  0  0  0  0  0  0  0  0
    3.1783   -1.0329    3.2633 H   0  0  0  0  0  0  0  0  0  0  0  0
    2.0943   -3.5032    3.4586 H   0  0  0  0  0  0  0  0  0  0  0  0
    2.6538   -5.8267    2.8558 H   0  0  0  0  0  0  0  0  0  0  0  0
    4.9547   -4.4201   -0.4961 H   0  0  0  0  0  0  0  0  0  0  0  0
    4.4756   -2.1386    0.1085 H   0  0  0  0  0  0  0  0  0  0  0  0
    4.9153    2.1299    0.4717 H   0  0  0  0  0  0  0  0  0  0  0  0
    7.3514    2.2860    0.5414 H   0  0  0  0  0  0  0  0  0  0  0  0
    8.7123    0.5736    1.7043 H   0  0  0  0  0  0  0  0  0  0  0  0
    5.1808   -1.4812    2.8355 H   0  0  0  0  0  0  0  0  0  0  0  0
  1 38  1  0  0  0  0
  1 39  1  0  0  0  0
  1 40  1  0  0  0  0
  2 21  1  0  0  0  0
  2  3  1  0  0  0  0
  2  1  1  0  0  0  0
  2 41  1  6  0  0  0
  3  4  1  0  0  0  0
  3 42  1  0  0  0  0
  4  5  2  0  0  0  0
  4  6  2  0  0  0  0
  4  7  1  0  0  0  0
  7 20  2  0  0  0  0
  7  8  1  0  0  0  0
  8  9  2  0  0  0  0
  8 43  1  0  0  0  0
  9 10  1  0  0  0  0
  9 14  1  0  0  0  0
 10 11  1  0  0  0  0
 10 12  1  0  0  0  0
 10 13  1  0  0  0  0
 14 15  2  0  0  0  0
 14 44  1  0  0  0  0
 15 16  1  0  0  0  0
 15 20  1  0  0  0  0
 16 17  1  0  0  0  0
 16 18  1  0  0  0  0
 16 19  1  0  0  0  0
 20 45  1  0  0  0  0
 21 22  1  0  0  0  0
 21 30  1  0  0  0  0
 21 46  1  1  0  0  0
 22 23  1  0  0  0  0
 22 47  1  0  0  0  0
 22 48  1  0  0  0  0
 23 29  2  0  0  0  0
 23 24  1  0  0  0  0
 24 25  2  0  0  0  0
 24 49  1  0  0  0  0
 25 26  1  0  0  0  0
 25 50  1  0  0  0  0
 26 27  1  0  0  0  0
 26 28  2  0  0  0  0
 28 29  1  0  0  0  0
 28 51  1  0  0  0  0
 29 52  1  0  0  0  0
 30 37  2  0  0  0  0
 30 31  1  0  0  0  0
 31 32  2  0  0  0  0
 31 53  1  0  0  0  0
 32 33  1  0  0  0  0
 32 54  1  0  0  0  0
 33 34  2  0  0  0  0
 33 55  1  0  0  0  0
 34 35  1  0  0  0  0
 34 37  1  0  0  0  0
 35 36  3  0  0  0  0
 37 56  1  0  0  0  0
M  END
$$$$
CHEMBL567874	5U09	best_smi
 OpenBabel12022417383D

 62 64  0  0  1  0  0  0  0  0999 V2000
    2.8918    1.4919   -0.1141 C   0  0  0  0  0  0  0  0  0  0  0  0
    2.4999    0.0067   -0.2582 C   0  0  2  0  0  0  0  0  0  0  0  0
    1.0303   -0.0791   -0.3757 N   0  0  0  0  0  0  0  0  0  0  0  0
    0.2974    0.4363   -1.4404 C   0  0  0  0  0  0  0  0  0  0  0  0
    0.8573    0.9806   -2.3972 O   0  0  0  0  0  0  0  0  0  0  0  0
   -1.2796    0.2271   -1.4093 C   0  0  0  0  0  0  0  0  0  0  0  0
   -1.6723   -0.6010   -0.1657 C   0  0  0  0  0  0  0  0  0  0  0  0
   -1.9355    1.6177   -1.3658 C   0  0  0  0  0  0  0  0  0  0  0  0
   -1.6484   -0.4743   -2.6681 N   0  0  0  0  0  0  0  0  0  0  0  0
   -2.8700   -1.1364   -2.7816 C   0  0  0  0  0  0  0  0  0  0  0  0
   -3.9182   -0.6902   -2.0552 N   0  0  0  0  0  0  0  0  0  0  0  0
   -5.0676   -1.4007   -2.0484 C   0  0  0  0  0  0  0  0  0  0  0  0
   -5.2782   -2.5304   -2.8168 C   0  0  0  0  0  0  0  0  0  0  0  0
   -6.5603   -3.2915   -2.7213 C   0  0  0  0  0  0  0  0  0  0  0  0
   -7.3866   -2.8436   -1.7392 F   0  0  0  0  0  0  0  0  0  0  0  0
   -7.2844   -3.2374   -3.8745 F   0  0  0  0  0  0  0  0  0  0  0  0
   -6.3602   -4.6123   -2.4642 F   0  0  0  0  0  0  0  0  0  0  0  0
   -4.2289   -2.9416   -3.6435 C   0  0  0  0  0  0  0  0  0  0  0  0
   -3.0116   -2.2559   -3.6143 C   0  0  0  0  0  0  0  0  0  0  0  0
   -1.6776   -2.9017   -4.4990 Cl  0  0  0  0  0  0  0  0  0  0  0  0
    3.0380   -0.8324    0.9674 C   0  0  1  0  0  0  0  0  0  0  0  0
    2.6361   -2.3384    0.9753 C   0  0  0  0  0  0  0  0  0  0  0  0
    3.1720   -3.1789   -0.1584 C   0  0  0  0  0  0  0  0  0  0  0  0
    2.4286   -3.3458   -1.3345 C   0  0  0  0  0  0  0  0  0  0  0  0
    2.9494   -4.0742   -2.4056 C   0  0  0  0  0  0  0  0  0  0  0  0
    4.2133   -4.6502   -2.3040 C   0  0  0  0  0  0  0  0  0  0  0  0
    4.8806   -5.4915   -3.6482 Cl  0  0  0  0  0  0  0  0  0  0  0  0
    4.9465   -4.5357   -1.1260 C   0  0  0  0  0  0  0  0  0  0  0  0
    4.4246   -3.8089   -0.0534 C   0  0  0  0  0  0  0  0  0  0  0  0
    4.5391   -0.6706    1.2507 C   0  0  0  0  0  0  0  0  0  0  0  0
    5.4705   -0.4650    0.2287 C   0  0  0  0  0  0  0  0  0  0  0  0
    6.8140   -0.2109    0.5164 C   0  0  0  0  0  0  0  0  0  0  0  0
    7.2594   -0.2231    1.8326 C   0  0  0  0  0  0  0  0  0  0  0  0
    6.3658   -0.5050    2.8736 C   0  0  0  0  0  0  0  0  0  0  0  0
    6.8319   -0.5707    4.2232 C   0  0  0  0  0  0  0  0  0  0  0  0
    7.2163   -0.6235    5.3206 N   0  0  0  0  0  0  0  0  0  0  0  0
    5.0086   -0.7207    2.5803 C   0  0  0  0  0  0  0  0  0  0  0  0
    3.9726    1.6366   -0.0894 H   0  0  0  0  0  0  0  0  0  0  0  0
    2.4715    1.9144    0.8037 H   0  0  0  0  0  0  0  0  0  0  0  0
    2.5260    2.0904   -0.9519 H   0  0  0  0  0  0  0  0  0  0  0  0
    2.9086   -0.3747   -1.1966 H   0  0  0  0  0  0  0  0  0  0  0  0
    0.5410   -0.3771    0.4536 H   0  0  0  0  0  0  0  0  0  0  0  0
   -1.5410   -0.0113    0.7462 H   0  0  0  0  0  0  0  0  0  0  0  0
   -1.0679   -1.5120   -0.0968 H   0  0  0  0  0  0  0  0  0  0  0  0
   -2.7074   -0.9402   -0.1485 H   0  0  0  0  0  0  0  0  0  0  0  0
   -1.5072    2.2338   -0.5669 H   0  0  0  0  0  0  0  0  0  0  0  0
   -3.0146    1.5586   -1.1832 H   0  0  0  0  0  0  0  0  0  0  0  0
   -1.7990    2.1651   -2.3071 H   0  0  0  0  0  0  0  0  0  0  0  0
   -0.8781   -1.0005   -3.0749 H   0  0  0  0  0  0  0  0  0  0  0  0
   -5.8199   -1.0272   -1.3570 H   0  0  0  0  0  0  0  0  0  0  0  0
   -4.3461   -3.8204   -4.2755 H   0  0  0  0  0  0  0  0  0  0  0  0
    2.5263   -0.4039    1.8443 H   0  0  0  0  0  0  0  0  0  0  0  0
    1.5411   -2.4264    0.9900 H   0  0  0  0  0  0  0  0  0  0  0  0
    2.9595   -2.7964    1.9206 H   0  0  0  0  0  0  0  0  0  0  0  0
    1.4430   -2.8978   -1.4308 H   0  0  0  0  0  0  0  0  0  0  0  0
    2.3702   -4.1760   -3.3197 H   0  0  0  0  0  0  0  0  0  0  0  0
    5.9269   -4.9963   -1.0402 H   0  0  0  0  0  0  0  0  0  0  0  0
    5.0127   -3.7223    0.8582 H   0  0  0  0  0  0  0  0  0  0  0  0
    5.1619   -0.4470   -0.8163 H   0  0  0  0  0  0  0  0  0  0  0  0
    7.5069    0.0023   -0.2943 H   0  0  0  0  0  0  0  0  0  0  0  0
    8.3109   -0.0319    2.0439 H   0  0  0  0  0  0  0  0  0  0  0  0
    4.3158   -0.9176    3.3967 H   0  0  0  0  0  0  0  0  0  0  0  0
  1 38  1  0  0  0  0
  1 39  1  0  0  0  0
  1 40  1  0  0  0  0
  2 21  1  0  0  0  0
  2  3  1  0  0  0  0
  2  1  1  0  0  0  0
  2 41  1  6  0  0  0
  3  4  1  0  0  0  0
  3 42  1  0  0  0  0
  4  5  2  0  0  0  0
  4  6  1  0  0  0  0
  6  7  1  0  0  0  0
  6  8  1  0  0  0  0
  6  9  1  0  0  0  0
  7 43  1  0  0  0  0
  7 44  1  0  0  0  0
  7 45  1  0  0  0  0
  8 46  1  0  0  0  0
  8 47  1  0  0  0  0
  8 48  1  0  0  0  0
  9 10  1  0  0  0  0
  9 49  1  0  0  0  0
 10 19  2  0  0  0  0
 10 11  1  0  0  0  0
 11 12  2  0  0  0  0
 12 13  1  0  0  0  0
 12 50  1  0  0  0  0
 13 14  1  0  0  0  0
 13 18  2  0  0  0  0
 14 15  1  0  0  0  0
 14 16  1  0  0  0  0
 14 17  1  0  0  0  0
 18 19  1  0  0  0  0
 18 51  1  0  0  0  0
 19 20  1  0  0  0  0
 21 22  1  0  0  0  0
 21 30  1  0  0  0  0
 21 52  1  1  0  0  0
 22 23  1  0  0  0  0
 22 53  1  0  0  0  0
 22 54  1  0  0  0  0
 23 29  2  0  0  0  0
 23 24  1  0  0  0  0
 24 25  2  0  0  0  0
 24 55  1  0  0  0  0
 25 26  1  0  0  0  0
 25 56  1  0  0  0  0
 26 27  1  0  0  0  0
 26 28  2  0  0  0  0
 28 29  1  0  0  0  0
 28 57  1  0  0  0  0
 29 58  1  0  0  0  0
 30 37  2  0  0  0  0
 30 31  1  0  0  0  0
 31 32  2  0  0  0  0
 31 59  1  0  0  0  0
 32 33  1  0  0  0  0
 32 60  1  0  0  0  0
 33 34  2  0  0  0  0
 33 61  1  0  0  0  0
 34 35  1  0  0  0  0
 34 37  1  0  0  0  0
 35 36  3  0  0  0  0
 37 62  1  0  0  0  0
M  END
$$$$
CHEMBL2113250	5U09	best_smi
 OpenBabel12022417383D

 58 60  0  0  1  0  0  0  0  0999 V2000
    2.7626   -1.2276    1.1304 C   0  0  0  0  0  0  0  0  0  0  0  0
    2.4940   -0.1033    0.1202 C   0  0  2  0  0  0  0  0  0  0  0  0
    1.0496    0.1756    0.1268 N   0  0  0  0  0  0  0  0  0  0  0  0
    0.0800   -0.5737   -0.5254 C   0  0  0  0  0  0  0  0  0  0  0  0
    0.3788   -1.5342   -1.2354 O   0  0  0  0  0  0  0  0  0  0  0  0
   -1.4144   -0.1067   -0.3431 C   0  0  0  0  0  0  0  0  0  0  0  0
   -1.4422    1.3588    0.1295 C   0  0  0  0  0  0  0  0  0  0  0  0
   -2.0552   -0.3118   -1.7312 C   0  0  0  0  0  0  0  0  0  0  0  0
   -1.9890   -0.9930    0.6403 O   0  0  0  0  0  0  0  0  0  0  0  0
   -3.3100   -0.9450    0.9952 C   0  0  0  0  0  0  0  0  0  0  0  0
   -4.2634   -0.0275    0.5520 C   0  0  0  0  0  0  0  0  0  0  0  0
   -5.5688   -0.0333    1.0470 C   0  0  0  0  0  0  0  0  0  0  0  0
   -5.9520   -0.9878    1.9751 C   0  0  0  0  0  0  0  0  0  0  0  0
   -7.5526   -0.9774    2.5973 Cl  0  0  0  0  0  0  0  0  0  0  0  0
   -5.0293   -1.9426    2.4058 C   0  0  0  0  0  0  0  0  0  0  0  0
   -3.7175   -1.9170    1.9154 C   0  0  0  0  0  0  0  0  0  0  0  0
    3.1283   -0.3609   -1.2869 C   0  0  1  0  0  0  0  0  0  0  0  0
    2.7719    0.7098   -2.3523 C   0  0  0  0  0  0  0  0  0  0  0  0
    3.2600    2.1282   -2.1458 C   0  0  0  0  0  0  0  0  0  0  0  0
    2.4310    3.0906   -1.5505 C   0  0  0  0  0  0  0  0  0  0  0  0
    2.8328    4.4273   -1.4713 C   0  0  0  0  0  0  0  0  0  0  0  0
    4.0696    4.8098   -1.9842 C   0  0  0  0  0  0  0  0  0  0  0  0
    4.5390    6.4650   -1.9414 Cl  0  0  0  0  0  0  0  0  0  0  0  0
    4.9177    3.8632   -2.5525 C   0  0  0  0  0  0  0  0  0  0  0  0
    4.5140    2.5271   -2.6328 C   0  0  0  0  0  0  0  0  0  0  0  0
    4.6294   -0.6606   -1.2800 C   0  0  0  0  0  0  0  0  0  0  0  0
    5.1409   -1.5790   -2.2171 C   0  0  0  0  0  0  0  0  0  0  0  0
    6.4855   -1.9579   -2.1979 C   0  0  0  0  0  0  0  0  0  0  0  0
    7.3408   -1.4267   -1.2372 C   0  0  0  0  0  0  0  0  0  0  0  0
    6.8514   -0.4961   -0.3302 C   0  0  0  0  0  0  0  0  0  0  0  0
    7.6700    0.0063    0.6037 F   0  0  0  0  0  0  0  0  0  0  0  0
    5.5187   -0.0926   -0.3568 C   0  0  0  0  0  0  0  0  0  0  0  0
    3.8182   -1.4982    1.1996 H   0  0  0  0  0  0  0  0  0  0  0  0
    2.1946   -2.1316    0.8880 H   0  0  0  0  0  0  0  0  0  0  0  0
    2.4527   -0.9049    2.1313 H   0  0  0  0  0  0  0  0  0  0  0  0
    2.9403    0.8121    0.5302 H   0  0  0  0  0  0  0  0  0  0  0  0
    0.7467    0.7083    0.9291 H   0  0  0  0  0  0  0  0  0  0  0  0
   -0.8391    2.0013   -0.5196 H   0  0  0  0  0  0  0  0  0  0  0  0
   -1.0711    1.4403    1.1581 H   0  0  0  0  0  0  0  0  0  0  0  0
   -2.4361    1.8016    0.1658 H   0  0  0  0  0  0  0  0  0  0  0  0
   -1.4134    0.0741   -2.5314 H   0  0  0  0  0  0  0  0  0  0  0  0
   -3.0183    0.1883   -1.8436 H   0  0  0  0  0  0  0  0  0  0  0  0
   -2.2343   -1.3773   -1.9215 H   0  0  0  0  0  0  0  0  0  0  0  0
   -4.0520    0.7326   -0.1831 H   0  0  0  0  0  0  0  0  0  0  0  0
   -6.2759    0.7107    0.6920 H   0  0  0  0  0  0  0  0  0  0  0  0
   -5.3284   -2.7015    3.1202 H   0  0  0  0  0  0  0  0  0  0  0  0
   -3.0091   -2.6682    2.2612 H   0  0  0  0  0  0  0  0  0  0  0  0
    2.6717   -1.2916   -1.6482 H   0  0  0  0  0  0  0  0  0  0  0  0
    1.6825    0.7450   -2.4832 H   0  0  0  0  0  0  0  0  0  0  0  0
    3.1427    0.3751   -3.3320 H   0  0  0  0  0  0  0  0  0  0  0  0
    1.4494    2.8135   -1.1757 H   0  0  0  0  0  0  0  0  0  0  0  0
    2.1693    5.1675   -1.0319 H   0  0  0  0  0  0  0  0  0  0  0  0
    5.8830    4.1590   -2.9543 H   0  0  0  0  0  0  0  0  0  0  0  0
    5.1756    1.8040   -3.1070 H   0  0  0  0  0  0  0  0  0  0  0  0
    4.4810   -2.0266   -2.9601 H   0  0  0  0  0  0  0  0  0  0  0  0
    6.8564   -2.6813   -2.9195 H   0  0  0  0  0  0  0  0  0  0  0  0
    8.3800   -1.7335   -1.1868 H   0  0  0  0  0  0  0  0  0  0  0  0
    5.1950    0.6394    0.3758 H   0  0  0  0  0  0  0  0  0  0  0  0
  1 33  1  0  0  0  0
  1 34  1  0  0  0  0
  1 35  1  0  0  0  0
  2 17  1  0  0  0  0
  2  3  1  0  0  0  0
  2  1  1  0  0  0  0
  2 36  1  1  0  0  0
  3  4  1  0  0  0  0
  3 37  1  0  0  0  0
  4  5  2  0  0  0  0
  4  6  1  0  0  0  0
  6  7  1  0  0  0  0
  6  8  1  0  0  0  0
  6  9  1  0  0  0  0
  7 38  1  0  0  0  0
  7 39  1  0  0  0  0
  7 40  1  0  0  0  0
  8 41  1  0  0  0  0
  8 42  1  0  0  0  0
  8 43  1  0  0  0  0
  9 10  1  0  0  0  0
 10 16  2  0  0  0  0
 10 11  1  0  0  0  0
 11 12  2  0  0  0  0
 11 44  1  0  0  0  0
 12 13  1  0  0  0  0
 12 45  1  0  0  0  0
 13 14  1  0  0  0  0
 13 15  2  0  0  0  0
 15 16  1  0  0  0  0
 15 46  1  0  0  0  0
 16 47  1  0  0  0  0
 17 18  1  0  0  0  0
 17 26  1  0  0  0  0
 17 48  1  6  0  0  0
 18 19  1  0  0  0  0
 18 49  1  0  0  0  0
 18 50  1  0  0  0  0
 19 25  2  0  0  0  0
 19 20  1  0  0  0  0
 20 21  2  0  0  0  0
 20 51  1  0  0  0  0
 21 22  1  0  0  0  0
 21 52  1  0  0  0  0
 22 23  1  0  0  0  0
 22 24  2  0  0  0  0
 24 25  1  0  0  0  0
 24 53  1  0  0  0  0
 25 54  1  0  0  0  0
 26 32  2  0  0  0  0
 26 27  1  0  0  0  0
 27 28  2  0  0  0  0
 27 55  1  0  0  0  0
 28 29  1  0  0  0  0
 28 56  1  0  0  0  0
 29 30  2  0  0  0  0
 29 57  1  0  0  0  0
 30 31  1  0  0  0  0
 30 32  1  0  0  0  0
 32 58  1  0  0  0  0
M  END
$$$$
CHEMBL226590	5U09	best_smi
 OpenBabel12022417383D

 68 70  0  0  1  0  0  0  0  0999 V2000
   -4.1310   -2.2900    3.1102 C   0  0  0  0  0  0  0  0  0  0  0  0
   -2.8858   -2.0386    2.3144 C   0  0  0  0  0  0  0  0  0  0  0  0
   -2.7359   -0.8093    1.6676 C   0  0  0  0  0  0  0  0  0  0  0  0
   -1.5867   -0.5947    0.9391 C   0  0  0  0  0  0  0  0  0  0  0  0
   -0.6131   -1.5158    0.8071 N   0  0  0  0  0  0  0  0  0  0  0  0
   -0.7632   -2.7072    1.4164 C   0  0  0  0  0  0  0  0  0  0  0  0
    0.2137   -3.6870    1.2540 O   0  0  0  0  0  0  0  0  0  0  0  0
    1.0405   -3.5566    0.0704 C   0  0  0  0  0  0  0  0  0  0  0  0
    0.1574   -3.6878   -1.1850 C   0  0  0  0  0  0  0  0  0  0  0  0
    1.9205   -2.2817    0.1071 C   0  0  0  0  0  0  0  0  0  0  0  0
    2.0610   -4.7403   -0.0681 C   0  0  0  0  0  0  0  0  0  0  0  0
    3.1808   -4.5832   -0.5616 O   0  0  0  0  0  0  0  0  0  0  0  0
    1.6161   -6.0198    0.2399 N   0  0  0  0  0  0  0  0  0  0  0  0
    2.5790   -7.1366    0.1343 C   0  0  1  0  0  0  0  0  0  0  0  0
    3.4776   -7.1029    1.3866 C   0  0  0  0  0  0  0  0  0  0  0  0
    1.9146   -8.5356   -0.0783 C   0  0  1  0  0  0  0  0  0  0  0  0
    0.9413   -8.6268   -1.2793 C   0  0  0  0  0  0  0  0  0  0  0  0
    1.4508   -8.3627   -2.6851 C   0  0  0  0  0  0  0  0  0  0  0  0
    1.2664   -7.0938   -3.2411 C   0  0  0  0  0  0  0  0  0  0  0  0
    1.5152   -6.8686   -4.5906 C   0  0  0  0  0  0  0  0  0  0  0  0
    1.9812   -7.8915   -5.4127 C   0  0  0  0  0  0  0  0  0  0  0  0
    2.0254   -7.5571   -6.7332 O   0  0  0  0  0  0  0  0  0  0  0  0
    2.9769   -8.2094   -7.5660 C   0  0  0  0  0  0  0  0  0  0  0  0
    2.8342   -7.6006   -8.9542 C   0  0  0  0  0  0  0  0  0  0  0  0
    3.7569   -8.1383   -9.7923 F   0  0  0  0  0  0  0  0  0  0  0  0
    2.2407   -9.1453   -4.8629 C   0  0  0  0  0  0  0  0  0  0  0  0
    1.9701   -9.3798   -3.4994 C   0  0  0  0  0  0  0  0  0  0  0  0
    2.8919   -9.7162   -0.0988 C   0  0  0  0  0  0  0  0  0  0  0  0
    2.4770  -10.9580    0.4093 C   0  0  0  0  0  0  0  0  0  0  0  0
    3.3694  -12.0291    0.4980 C   0  0  0  0  0  0  0  0  0  0  0  0
    4.6974  -11.8697    0.0972 C   0  0  0  0  0  0  0  0  0  0  0  0
    5.1200  -10.6560   -0.4468 C   0  0  0  0  0  0  0  0  0  0  0  0
    6.4969  -10.4556   -0.7946 C   0  0  0  0  0  0  0  0  0  0  0  0
    7.6158  -10.2787   -1.0466 N   0  0  0  0  0  0  0  0  0  0  0  0
    4.2076   -9.6022   -0.5805 C   0  0  0  0  0  0  0  0  0  0  0  0
   -1.8709   -3.0017    2.1957 C   0  0  0  0  0  0  0  0  0  0  0  0
   -4.1424   -3.2998    3.5303 H   0  0  0  0  0  0  0  0  0  0  0  0
   -5.0142   -2.1796    2.4712 H   0  0  0  0  0  0  0  0  0  0  0  0
   -4.1992   -1.5737    3.9357 H   0  0  0  0  0  0  0  0  0  0  0  0
   -3.4944   -0.0352    1.7264 H   0  0  0  0  0  0  0  0  0  0  0  0
   -1.4118    0.3434    0.4196 H   0  0  0  0  0  0  0  0  0  0  0  0
   -0.6040   -2.9082   -1.2599 H   0  0  0  0  0  0  0  0  0  0  0  0
   -0.3912   -4.6381   -1.1587 H   0  0  0  0  0  0  0  0  0  0  0  0
    0.7525   -3.6653   -2.1038 H   0  0  0  0  0  0  0  0  0  0  0  0
    1.3909   -1.3760   -0.1930 H   0  0  0  0  0  0  0  0  0  0  0  0
    2.7822   -2.3267   -0.5654 H   0  0  0  0  0  0  0  0  0  0  0  0
    2.3006   -2.1206    1.1244 H   0  0  0  0  0  0  0  0  0  0  0  0
    0.8739   -6.0693    0.9294 H   0  0  0  0  0  0  0  0  0  0  0  0
    3.2153   -6.9305   -0.7340 H   0  0  0  0  0  0  0  0  0  0  0  0
    2.8756   -7.2030    2.2954 H   0  0  0  0  0  0  0  0  0  0  0  0
    4.0232   -6.1551    1.4520 H   0  0  0  0  0  0  0  0  0  0  0  0
    4.2333   -7.8921    1.3996 H   0  0  0  0  0  0  0  0  0  0  0  0
    1.2871   -8.6870    0.8149 H   0  0  0  0  0  0  0  0  0  0  0  0
    0.1044   -7.9389   -1.0933 H   0  0  0  0  0  0  0  0  0  0  0  0
    0.4666   -9.6192   -1.2855 H   0  0  0  0  0  0  0  0  0  0  0  0
    0.8711   -6.2811   -2.6392 H   0  0  0  0  0  0  0  0  0  0  0  0
    1.3122   -5.8886   -5.0155 H   0  0  0  0  0  0  0  0  0  0  0  0
    2.7964   -9.2875   -7.6286 H   0  0  0  0  0  0  0  0  0  0  0  0
    3.9927   -8.0363   -7.1929 H   0  0  0  0  0  0  0  0  0  0  0  0
    2.9748   -6.5146   -8.9286 H   0  0  0  0  0  0  0  0  0  0  0  0
    1.8370   -7.7904   -9.3661 H   0  0  0  0  0  0  0  0  0  0  0  0
    2.5859   -9.9721   -5.4747 H   0  0  0  0  0  0  0  0  0  0  0  0
    2.1156  -10.3829   -3.1011 H   0  0  0  0  0  0  0  0  0  0  0  0
    1.4550  -11.1013    0.7583 H   0  0  0  0  0  0  0  0  0  0  0  0
    3.0388  -12.9817    0.9098 H   0  0  0  0  0  0  0  0  0  0  0  0
    5.3975  -12.6925    0.2226 H   0  0  0  0  0  0  0  0  0  0  0  0
    4.5497   -8.6672   -1.0206 H   0  0  0  0  0  0  0  0  0  0  0  0
   -1.9550   -3.9671    2.6800 H   0  0  0  0  0  0  0  0  0  0  0  0
  1  2  1  0  0  0  0
  1 37  1  0  0  0  0
  1 38  1  0  0  0  0
  1 39  1  0  0  0  0
  2 36  2  0  0  0  0
  2  3  1  0  0  0  0
  3  4  2  0  0  0  0
  3 40  1  0  0  0  0
  4  5  1  0  0  0  0
  4 41  1  0  0  0  0
  5  6  2  0  0  0  0
  6  7  1  0  0  0  0
  6 36  1  0  0  0  0
  7  8  1  0  0  0  0
  8  9  1  0  0  0  0
  8 10  1  0  0  0  0
  8 11  1  0  0  0  0
  9 42  1  0  0  0  0
  9 43  1  0  0  0  0
  9 44  1  0  0  0  0
 10 45  1  0  0  0  0
 10 46  1  0  0  0  0
 10 47  1  0  0  0  0
 11 12  2  0  0  0  0
 11 13  1  0  0  0  0
 13 14  1  0  0  0  0
 13 48  1  0  0  0  0
 14 15  1  0  0  0  0
 14 16  1  0  0  0  0
 14 49  1  6  0  0  0
 15 50  1  0  0  0  0
 15 51  1  0  0  0  0
 15 52  1  0  0  0  0
 16 17  1  0  0  0  0
 16 28  1  0  0  0  0
 16 53  1  1  0  0  0
 17 18  1  0  0  0  0
 17 54  1  0  0  0  0
 17 55  1  0  0  0  0
 18 27  2  0  0  0  0
 18 19  1  0  0  0  0
 19 20  2  0  0  0  0
 19 56  1  0  0  0  0
 20 21  1  0  0  0  0
 20 57  1  0  0  0  0
 21 22  1  0  0  0  0
 21 26  2  0  0  0  0
 22 23  1  0  0  0  0
 23 24  1  0  0  0  0
 23 58  1  0  0  0  0
 23 59  1  0  0  0  0
 24 25  1  0  0  0  0
 24 60  1  0  0  0  0
 24 61  1  0  0  0  0
 26 27  1  0  0  0  0
 26 62  1  0  0  0  0
 27 63  1  0  0  0  0
 28 35  2  0  0  0  0
 28 29  1  0  0  0  0
 29 30  2  0  0  0  0
 29 64  1  0  0  0  0
 30 31  1  0  0  0  0
 30 65  1  0  0  0  0
 31 32  2  0  0  0  0
 31 66  1  0  0  0  0
 32 33  1  0  0  0  0
 32 35  1  0  0  0  0
 33 34  3  0  0  0  0
 35 67  1  0  0  0  0
 36 68  1  0  0  0  0
M  END
$$$$
CHEMBL227329	5U09	best_smi
 OpenBabel12022417383D

 65 67  0  0  1  0  0  0  0  0999 V2000
    3.0199   -1.2631   -0.4678 C   0  0  0  0  0  0  0  0  0  0  0  0
    2.4529    0.0296    0.1474 C   0  0  2  0  0  0  0  0  0  0  0  0
    0.9936    0.0207   -0.0961 N   0  0  0  0  0  0  0  0  0  0  0  0
    0.1274   -0.6924    0.7193 C   0  0  0  0  0  0  0  0  0  0  0  0
    0.5502   -1.2686    1.7260 O   0  0  0  0  0  0  0  0  0  0  0  0
   -1.3962   -0.6994    0.3581 C   0  0  0  0  0  0  0  0  0  0  0  0
   -1.7328    0.0558   -0.9295 C   0  0  0  0  0  0  0  0  0  0  0  0
   -1.7987   -2.1770    0.2230 C   0  0  0  0  0  0  0  0  0  0  0  0
   -1.9118    0.0133    1.5024 O   0  0  0  0  0  0  0  0  0  0  0  0
   -3.2110   -0.1352    1.9257 C   0  0  0  0  0  0  0  0  0  0  0  0
   -3.4803    0.3566    3.1972 C   0  0  0  0  0  0  0  0  0  0  0  0
   -4.7714    0.2391    3.7050 C   0  0  0  0  0  0  0  0  0  0  0  0
   -5.7494   -0.3537    2.9209 C   0  0  0  0  0  0  0  0  0  0  0  0
   -5.3945   -0.7882    1.6524 C   0  0  0  0  0  0  0  0  0  0  0  0
   -4.1469   -0.6804    1.1297 N   0  0  0  0  0  0  0  0  0  0  0  0
    3.1200    1.3179   -0.4494 C   0  0  1  0  0  0  0  0  0  0  0  0
    2.4776    2.6453    0.0519 C   0  0  0  0  0  0  0  0  0  0  0  0
    2.6079    3.1601    1.4755 C   0  0  0  0  0  0  0  0  0  0  0  0
    1.6490    2.8671    2.4557 C   0  0  0  0  0  0  0  0  0  0  0  0
    1.5959    3.6063    3.6544 C   0  0  0  0  0  0  0  0  0  0  0  0
    2.4973    4.6461    3.9019 C   0  0  0  0  0  0  0  0  0  0  0  0
    2.2735    5.3934    5.0323 O   0  0  0  0  0  0  0  0  0  0  0  0
    3.4151    6.0305    5.6172 C   0  0  0  0  0  0  0  0  0  0  0  0
    2.9839    7.0306    6.6816 C   0  0  0  0  0  0  0  0  0  0  0  0
    4.0943    7.5491    7.2764 F   0  0  0  0  0  0  0  0  0  0  0  0
    3.4798    4.9084    2.9498 C   0  0  0  0  0  0  0  0  0  0  0  0
    3.5523    4.1555    1.7660 C   0  0  0  0  0  0  0  0  0  0  0  0
    4.6512    1.3983   -0.4657 C   0  0  0  0  0  0  0  0  0  0  0  0
    5.4485    0.7941    0.5154 C   0  0  0  0  0  0  0  0  0  0  0  0
    6.8454    0.8708    0.4528 C   0  0  0  0  0  0  0  0  0  0  0  0
    7.4723    1.5777   -0.5717 C   0  0  0  0  0  0  0  0  0  0  0  0
    6.7063    2.2027   -1.5563 C   0  0  0  0  0  0  0  0  0  0  0  0
    7.3483    2.9378   -2.6167 C   0  0  0  0  0  0  0  0  0  0  0  0
    7.8671    3.5293   -3.4646 N   0  0  0  0  0  0  0  0  0  0  0  0
    5.2965    2.1063   -1.5011 C   0  0  0  0  0  0  0  0  0  0  0  0
    4.0441   -1.4618   -0.1437 H   0  0  0  0  0  0  0  0  0  0  0  0
    3.0110   -1.2149   -1.5628 H   0  0  0  0  0  0  0  0  0  0  0  0
    2.4212   -2.1357   -0.1813 H   0  0  0  0  0  0  0  0  0  0  0  0
    2.6157   -0.0002    1.2309 H   0  0  0  0  0  0  0  0  0  0  0  0
    0.6952    0.2073   -1.0432 H   0  0  0  0  0  0  0  0  0  0  0  0
   -1.3339   -0.4639   -1.8084 H   0  0  0  0  0  0  0  0  0  0  0  0
   -1.3278    1.0734   -0.9188 H   0  0  0  0  0  0  0  0  0  0  0  0
   -2.8143    0.1575   -1.0637 H   0  0  0  0  0  0  0  0  0  0  0  0
   -1.1882   -2.6719   -0.5425 H   0  0  0  0  0  0  0  0  0  0  0  0
   -2.8398   -2.2987   -0.0906 H   0  0  0  0  0  0  0  0  0  0  0  0
   -1.6744   -2.7251    1.1625 H   0  0  0  0  0  0  0  0  0  0  0  0
   -2.6925    0.8127    3.7850 H   0  0  0  0  0  0  0  0  0  0  0  0
   -5.0033    0.6040    4.7021 H   0  0  0  0  0  0  0  0  0  0  0  0
   -6.7643   -0.4723    3.2886 H   0  0  0  0  0  0  0  0  0  0  0  0
   -6.1311   -1.2514    1.0040 H   0  0  0  0  0  0  0  0  0  0  0  0
    2.8466    1.2772   -1.5176 H   0  0  0  0  0  0  0  0  0  0  0  0
    1.4039    2.6195   -0.1774 H   0  0  0  0  0  0  0  0  0  0  0  0
    2.8515    3.4509   -0.5980 H   0  0  0  0  0  0  0  0  0  0  0  0
    0.8823    2.1156    2.2729 H   0  0  0  0  0  0  0  0  0  0  0  0
    0.8116    3.3925    4.3781 H   0  0  0  0  0  0  0  0  0  0  0  0
    4.0084    6.5882    4.8880 H   0  0  0  0  0  0  0  0  0  0  0  0
    4.0552    5.2687    6.0758 H   0  0  0  0  0  0  0  0  0  0  0  0
    2.3627    6.5702    7.4545 H   0  0  0  0  0  0  0  0  0  0  0  0
    2.4192    7.8592    6.2423 H   0  0  0  0  0  0  0  0  0  0  0  0
    4.1645    5.7428    3.0498 H   0  0  0  0  0  0  0  0  0  0  0  0
    4.3078    4.4234    1.0305 H   0  0  0  0  0  0  0  0  0  0  0  0
    4.9991    0.2352    1.3345 H   0  0  0  0  0  0  0  0  0  0  0  0
    7.4449    0.3763    1.2147 H   0  0  0  0  0  0  0  0  0  0  0  0
    8.5592    1.6327   -0.5973 H   0  0  0  0  0  0  0  0  0  0  0  0
    4.7145    2.5880   -2.2829 H   0  0  0  0  0  0  0  0  0  0  0  0
  1 36  1  0  0  0  0
  1 37  1  0  0  0  0
  1 38  1  0  0  0  0
  2 16  1  0  0  0  0
  2  3  1  0  0  0  0
  2  1  1  0  0  0  0
  2 39  1  1  0  0  0
  3  4  1  0  0  0  0
  3 40  1  0  0  0  0
  4  5  2  0  0  0  0
  4  6  1  0  0  0  0
  6  7  1  0  0  0  0
  6  8  1  0  0  0  0
  6  9  1  0  0  0  0
  7 41  1  0  0  0  0
  7 42  1  0  0  0  0
  7 43  1  0  0  0  0
  8 44  1  0  0  0  0
  8 45  1  0  0  0  0
  8 46  1  0  0  0  0
  9 10  1  0  0  0  0
 10 15  2  0  0  0  0
 10 11  1  0  0  0  0
 11 12  2  0  0  0  0
 11 47  1  0  0  0  0
 12 13  1  0  0  0  0
 12 48  1  0  0  0  0
 13 14  2  0  0  0  0
 13 49  1  0  0  0  0
 14 15  1  0  0  0  0
 14 50  1  0  0  0  0
 16 17  1  0  0  0  0
 16 28  1  0  0  0  0
 16 51  1  6  0  0  0
 17 18  1  0  0  0  0
 17 52  1  0  0  0  0
 17 53  1  0  0  0  0
 18 27  2  0  0  0  0
 18 19  1  0  0  0  0
 19 20  2  0  0  0  0
 19 54  1  0  0  0  0
 20 21  1  0  0  0  0
 20 55  1  0  0  0  0
 21 22  1  0  0  0  0
 21 26  2  0  0  0  0
 22 23  1  0  0  0  0
 23 24  1  0  0  0  0
 23 56  1  0  0  0  0
 23 57  1  0  0  0  0
 24 25  1  0  0  0  0
 24 58  1  0  0  0  0
 24 59  1  0  0  0  0
 26 27  1  0  0  0  0
 26 60  1  0  0  0  0
 27 61  1  0  0  0  0
 28 35  2  0  0  0  0
 28 29  1  0  0  0  0
 29 30  2  0  0  0  0
 29 62  1  0  0  0  0
 30 31  1  0  0  0  0
 30 63  1  0  0  0  0
 31 32  2  0  0  0  0
 31 64  1  0  0  0  0
 32 33  1  0  0  0  0
 32 35  1  0  0  0  0
 33 34  3  0  0  0  0
 35 65  1  0  0  0  0
M  END
$$$$
CHEMBL373626	5U09	best_smi
 OpenBabel12022417383D

 60 62  0  0  1  0  0  0  0  0999 V2000
    2.8414   -1.5468   -0.4336 C   0  0  0  0  0  0  0  0  0  0  0  0
    2.4172   -0.1912    0.1814 C   0  0  2  0  0  0  0  0  0  0  0  0
    0.9467   -0.1633    0.3745 N   0  0  0  0  0  0  0  0  0  0  0  0
    0.2892   -1.1332    1.1334 C   0  0  0  0  0  0  0  0  0  0  0  0
    0.9182   -2.0679    1.6315 O   0  0  0  0  0  0  0  0  0  0  0  0
   -1.2678   -0.9937    1.3318 C   0  0  0  0  0  0  0  0  0  0  0  0
   -1.9116   -0.4144    0.0528 C   0  0  0  0  0  0  0  0  0  0  0  0
   -1.9018   -2.4014    1.4862 C   0  0  0  0  0  0  0  0  0  0  0  0
   -1.6720   -0.0985    2.3863 O   0  0  0  0  0  0  0  0  0  0  0  0
   -1.2390   -0.3857    3.6646 C   0  0  0  0  0  0  0  0  0  0  0  0
   -1.6125    0.4690    4.6870 C   0  0  0  0  0  0  0  0  0  0  0  0
   -1.1705    0.1881    5.9850 C   0  0  0  0  0  0  0  0  0  0  0  0
   -0.3735   -0.9377    6.2246 C   0  0  0  0  0  0  0  0  0  0  0  0
    0.1590   -1.3139    7.5706 C   0  0  0  0  0  0  0  0  0  0  0  0
   -0.2364   -0.4732    8.5660 F   0  0  0  0  0  0  0  0  0  0  0  0
   -0.2309   -2.5598    7.9588 F   0  0  0  0  0  0  0  0  0  0  0  0
    1.5201   -1.3222    7.6087 F   0  0  0  0  0  0  0  0  0  0  0  0
   -0.0667   -1.7330    5.1379 C   0  0  0  0  0  0  0  0  0  0  0  0
   -0.4864   -1.4725    3.8838 N   0  0  0  0  0  0  0  0  0  0  0  0
    2.9582    0.9714   -0.7374 C   0  0  1  0  0  0  0  0  0  0  0  0
    2.5563    2.4111   -0.3293 C   0  0  0  0  0  0  0  0  0  0  0  0
    3.0729    2.9335    0.9905 C   0  0  0  0  0  0  0  0  0  0  0  0
    2.2911    2.8373    2.1431 C   0  0  0  0  0  0  0  0  0  0  0  0
    2.7376    3.3780    3.3516 C   0  0  0  0  0  0  0  0  0  0  0  0
    3.9774    4.0112    3.4130 C   0  0  0  0  0  0  0  0  0  0  0  0
    4.5121    4.6985    4.8971 Cl  0  0  0  0  0  0  0  0  0  0  0  0
    4.7771    4.1026    2.2795 C   0  0  0  0  0  0  0  0  0  0  0  0
    4.3250    3.5687    1.0687 C   0  0  0  0  0  0  0  0  0  0  0  0
    4.4657    0.9189   -1.0248 C   0  0  0  0  0  0  0  0  0  0  0  0
    5.3978    0.4943   -0.0633 C   0  0  0  0  0  0  0  0  0  0  0  0
    6.7573    0.4110   -0.3702 C   0  0  0  0  0  0  0  0  0  0  0  0
    7.2131    0.7873   -1.6299 C   0  0  0  0  0  0  0  0  0  0  0  0
    6.3100    1.2515   -2.5830 C   0  0  0  0  0  0  0  0  0  0  0  0
    4.9464    1.3147   -2.2852 C   0  0  0  0  0  0  0  0  0  0  0  0
    3.9239   -1.6353   -0.5406 H   0  0  0  0  0  0  0  0  0  0  0  0
    2.3876   -1.6824   -1.4204 H   0  0  0  0  0  0  0  0  0  0  0  0
    2.5532   -2.4046    0.1752 H   0  0  0  0  0  0  0  0  0  0  0  0
    2.8495   -0.1061    1.1849 H   0  0  0  0  0  0  0  0  0  0  0  0
    0.4198    0.6049   -0.0120 H   0  0  0  0  0  0  0  0  0  0  0  0
   -1.6543   -1.0089   -0.8310 H   0  0  0  0  0  0  0  0  0  0  0  0
   -1.6129    0.6230   -0.1234 H   0  0  0  0  0  0  0  0  0  0  0  0
   -3.0051   -0.3886    0.1445 H   0  0  0  0  0  0  0  0  0  0  0  0
   -1.5004   -3.0944    0.7374 H   0  0  0  0  0  0  0  0  0  0  0  0
   -2.9902   -2.3604    1.3633 H   0  0  0  0  0  0  0  0  0  0  0  0
   -1.7359   -2.8592    2.4634 H   0  0  0  0  0  0  0  0  0  0  0  0
   -2.2346    1.3337    4.4861 H   0  0  0  0  0  0  0  0  0  0  0  0
   -1.4483    0.8492    6.8037 H   0  0  0  0  0  0  0  0  0  0  0  0
    0.5449   -2.6292    5.2314 H   0  0  0  0  0  0  0  0  0  0  0  0
    2.4644    0.8043   -1.7081 H   0  0  0  0  0  0  0  0  0  0  0  0
    1.4629    2.5056   -0.3363 H   0  0  0  0  0  0  0  0  0  0  0  0
    2.8848    3.1114   -1.1128 H   0  0  0  0  0  0  0  0  0  0  0  0
    1.3162    2.3552    2.1102 H   0  0  0  0  0  0  0  0  0  0  0  0
    2.1112    3.3084    4.2362 H   0  0  0  0  0  0  0  0  0  0  0  0
    5.7477    4.5909    2.3242 H   0  0  0  0  0  0  0  0  0  0  0  0
    4.9571    3.6580    0.1882 H   0  0  0  0  0  0  0  0  0  0  0  0
    5.0791    0.2022    0.9347 H   0  0  0  0  0  0  0  0  0  0  0  0
    7.4579    0.0455    0.3763 H   0  0  0  0  0  0  0  0  0  0  0  0
    8.2711    0.7188   -1.8675 H   0  0  0  0  0  0  0  0  0  0  0  0
    6.6673    1.5569   -3.5629 H   0  0  0  0  0  0  0  0  0  0  0  0
    4.2604    1.6734   -3.0496 H   0  0  0  0  0  0  0  0  0  0  0  0
  1 35  1  0  0  0  0
  1 36  1  0  0  0  0
  1 37  1  0  0  0  0
  2 20  1  0  0  0  0
  2  3  1  0  0  0  0
  2  1  1  0  0  0  0
  2 38  1  1  0  0  0
  3  4  1  0  0  0  0
  3 39  1  0  0  0  0
  4  5  2  0  0  0  0
  4  6  1  0  0  0  0
  6  7  1  0  0  0  0
  6  8  1  0  0  0  0
  6  9  1  0  0  0  0
  7 40  1  0  0  0  0
  7 41  1  0  0  0  0
  7 42  1  0  0  0  0
  8 43  1  0  0  0  0
  8 44  1  0  0  0  0
  8 45  1  0  0  0  0
  9 10  1  0  0  0  0
 10 19  2  0  0  0  0
 10 11  1  0  0  0  0
 11 12  2  0  0  0  0
 11 46  1  0  0  0  0
 12 13  1  0  0  0  0
 12 47  1  0  0  0  0
 13 14  1  0  0  0  0
 13 18  2  0  0  0  0
 14 15  1  0  0  0  0
 14 16  1  0  0  0  0
 14 17  1  0  0  0  0
 18 19  1  0  0  0  0
 18 48  1  0  0  0  0
 20 21  1  0  0  0  0
 20 29  1  0  0  0  0
 20 49  1  6  0  0  0
 21 22  1  0  0  0  0
 21 50  1  0  0  0  0
 21 51  1  0  0  0  0
 22 28  2  0  0  0  0
 22 23  1  0  0  0  0
 23 24  2  0  0  0  0
 23 52  1  0  0  0  0
 24 25  1  0  0  0  0
 24 53  1  0  0  0  0
 25 26  1  0  0  0  0
 25 27  2  0  0  0  0
 27 28  1  0  0  0  0
 27 54  1  0  0  0  0
 28 55  1  0  0  0  0
 29 34  2  0  0  0  0
 29 30  1  0  0  0  0
 30 31  2  0  0  0  0
 30 56  1  0  0  0  0
 31 32  1  0  0  0  0
 31 57  1  0  0  0  0
 32 33  2  0  0  0  0
 32 58  1  0  0  0  0
 33 34  1  0  0  0  0
 33 59  1  0  0  0  0
 34 60  1  0  0  0  0
M  END
$$$$
CHEMBL374791	5U09	best_smi
 OpenBabel12022417383D

 57 59  0  0  1  0  0  0  0  0999 V2000
    2.6098    0.3446    1.3952 C   0  0  0  0  0  0  0  0  0  0  0  0
    2.2493   -0.2696    0.0300 C   0  0  2  0  0  0  0  0  0  0  0  0
    0.7791   -0.4458    0.0118 N   0  0  0  0  0  0  0  0  0  0  0  0
   -0.0342    0.6337   -0.3095 C   0  0  0  0  0  0  0  0  0  0  0  0
    0.4565    1.6860   -0.7263 O   0  0  0  0  0  0  0  0  0  0  0  0
   -1.5879    0.4918   -0.1126 C   0  0  0  0  0  0  0  0  0  0  0  0
   -2.2915    1.5043   -1.0479 C   0  0  0  0  0  0  0  0  0  0  0  0
   -1.9981   -0.9072   -0.6283 C   0  0  0  0  0  0  0  0  0  0  0  0
   -2.1390    0.5667    1.2032 O   0  0  0  0  0  0  0  0  0  0  0  0
   -2.0456    1.6588    2.0163 C   0  0  0  0  0  0  0  0  0  0  0  0
   -1.0238    2.5912    2.0093 C   0  0  0  0  0  0  0  0  0  0  0  0
   -0.9445    3.5247    3.0406 C   0  0  0  0  0  0  0  0  0  0  0  0
   -1.9176    3.5567    4.0274 C   0  0  0  0  0  0  0  0  0  0  0  0
   -2.9461    2.6414    3.9268 C   0  0  0  0  0  0  0  0  0  0  0  0
   -3.0163    1.6884    2.9622 N   0  0  0  0  0  0  0  0  0  0  0  0
    3.0704   -1.5740   -0.2590 C   0  0  1  0  0  0  0  0  0  0  0  0
    2.6945   -2.2898   -1.5869 C   0  0  0  0  0  0  0  0  0  0  0  0
    2.8865   -1.5510   -2.8956 C   0  0  0  0  0  0  0  0  0  0  0  0
    1.7965   -0.9021   -3.4908 C   0  0  0  0  0  0  0  0  0  0  0  0
    1.9170   -0.3170   -4.7487 C   0  0  0  0  0  0  0  0  0  0  0  0
    3.1327   -0.3574   -5.4232 C   0  0  0  0  0  0  0  0  0  0  0  0
    3.2566    0.3139   -7.0020 Cl  0  0  0  0  0  0  0  0  0  0  0  0
    4.2367   -0.9667   -4.8337 C   0  0  0  0  0  0  0  0  0  0  0  0
    4.1163   -1.5622   -3.5731 C   0  0  0  0  0  0  0  0  0  0  0  0
    4.5975   -1.4311   -0.1897 C   0  0  0  0  0  0  0  0  0  0  0  0
    5.2547   -0.2243   -0.4840 C   0  0  0  0  0  0  0  0  0  0  0  0
    6.6458   -0.1282   -0.4163 C   0  0  0  0  0  0  0  0  0  0  0  0
    7.4087   -1.2468   -0.0974 C   0  0  0  0  0  0  0  0  0  0  0  0
    6.7794   -2.4613    0.1617 C   0  0  0  0  0  0  0  0  0  0  0  0
    5.3851   -2.5534    0.1252 C   0  0  0  0  0  0  0  0  0  0  0  0
    3.6836    0.4921    1.5288 H   0  0  0  0  0  0  0  0  0  0  0  0
    2.2534   -0.2860    2.2163 H   0  0  0  0  0  0  0  0  0  0  0  0
    2.1415    1.3283    1.5077 H   0  0  0  0  0  0  0  0  0  0  0  0
    2.4930    0.4640   -0.7463 H   0  0  0  0  0  0  0  0  0  0  0  0
    0.3820   -1.1945    0.5681 H   0  0  0  0  0  0  0  0  0  0  0  0
   -1.9479    1.3835   -2.0802 H   0  0  0  0  0  0  0  0  0  0  0  0
   -2.0940    2.5381   -0.7504 H   0  0  0  0  0  0  0  0  0  0  0  0
   -3.3797    1.3705   -1.0287 H   0  0  0  0  0  0  0  0  0  0  0  0
   -1.5749   -1.1121   -1.6172 H   0  0  0  0  0  0  0  0  0  0  0  0
   -3.0892   -1.0005   -0.6941 H   0  0  0  0  0  0  0  0  0  0  0  0
   -1.6724   -1.6971    0.0577 H   0  0  0  0  0  0  0  0  0  0  0  0
   -0.2516    2.6129    1.2576 H   0  0  0  0  0  0  0  0  0  0  0  0
   -0.1097    4.2275    3.0739 H   0  0  0  0  0  0  0  0  0  0  0  0
   -1.8701    4.2680    4.8451 H   0  0  0  0  0  0  0  0  0  0  0  0
   -3.7626    2.6449    4.6463 H   0  0  0  0  0  0  0  0  0  0  0  0
    2.7963   -2.2779    0.5431 H   0  0  0  0  0  0  0  0  0  0  0  0
    1.6481   -2.6117   -1.5271 H   0  0  0  0  0  0  0  0  0  0  0  0
    3.2529   -3.2348   -1.6646 H   0  0  0  0  0  0  0  0  0  0  0  0
    0.8332   -0.8798   -2.9875 H   0  0  0  0  0  0  0  0  0  0  0  0
    1.0511    0.1626   -5.2028 H   0  0  0  0  0  0  0  0  0  0  0  0
    5.1888   -0.9945   -5.3577 H   0  0  0  0  0  0  0  0  0  0  0  0
    4.9857   -2.0525   -3.1375 H   0  0  0  0  0  0  0  0  0  0  0  0
    4.6987    0.6671   -0.7662 H   0  0  0  0  0  0  0  0  0  0  0  0
    7.1312    0.8230   -0.6201 H   0  0  0  0  0  0  0  0  0  0  0  0
    8.4921   -1.1722   -0.0592 H   0  0  0  0  0  0  0  0  0  0  0  0
    7.3764   -3.3404    0.3912 H   0  0  0  0  0  0  0  0  0  0  0  0
    4.9199   -3.5132    0.3297 H   0  0  0  0  0  0  0  0  0  0  0  0
  1 31  1  0  0  0  0
  1 32  1  0  0  0  0
  1 33  1  0  0  0  0
  2 16  1  0  0  0  0
  2  3  1  0  0  0  0
  2  1  1  0  0  0  0
  2 34  1  6  0  0  0
  3  4  1  0  0  0  0
  3 35  1  0  0  0  0
  4  5  2  0  0  0  0
  4  6  1  0  0  0  0
  6  7  1  0  0  0  0
  6  8  1  0  0  0  0
  6  9  1  0  0  0  0
  7 36  1  0  0  0  0
  7 37  1  0  0  0  0
  7 38  1  0  0  0  0
  8 39  1  0  0  0  0
  8 40  1  0  0  0  0
  8 41  1  0  0  0  0
  9 10  1  0  0  0  0
 10 15  2  0  0  0  0
 10 11  1  0  0  0  0
 11 12  2  0  0  0  0
 11 42  1  0  0  0  0
 12 13  1  0  0  0  0
 12 43  1  0  0  0  0
 13 14  2  0  0  0  0
 13 44  1  0  0  0  0
 14 15  1  0  0  0  0
 14 45  1  0  0  0  0
 16 17  1  0  0  0  0
 16 25  1  0  0  0  0
 16 46  1  1  0  0  0
 17 18  1  0  0  0  0
 17 47  1  0  0  0  0
 17 48  1  0  0  0  0
 18 24  2  0  0  0  0
 18 19  1  0  0  0  0
 19 20  2  0  0  0  0
 19 49  1  0  0  0  0
 20 21  1  0  0  0  0
 20 50  1  0  0  0  0
 21 22  1  0  0  0  0
 21 23  2  0  0  0  0
 23 24  1  0  0  0  0
 23 51  1  0  0  0  0
 24 52  1  0  0  0  0
 25 30  2  0  0  0  0
 25 26  1  0  0  0  0
 26 27  2  0  0  0  0
 26 53  1  0  0  0  0
 27 28  1  0  0  0  0
 27 54  1  0  0  0  0
 28 29  2  0  0  0  0
 28 55  1  0  0  0  0
 29 30  1  0  0  0  0
 29 56  1  0  0  0  0
 30 57  1  0  0  0  0
M  END
$$$$
CHEMBL582806	5U09	best_smi
 OpenBabel12022417383D

 62 64  0  0  1  0  0  0  0  0999 V2000
    2.9841   -1.5445    0.4487 C   0  0  0  0  0  0  0  0  0  0  0  0
    2.4366   -0.1220    0.2034 C   0  0  2  0  0  0  0  0  0  0  0  0
    0.9560   -0.1059    0.2703 N   0  0  0  0  0  0  0  0  0  0  0  0
    0.2048   -0.7124    1.2711 C   0  0  0  0  0  0  0  0  0  0  0  0
    0.7304   -1.3513    2.1831 O   0  0  0  0  0  0  0  0  0  0  0  0
   -1.3585   -0.4821    1.2445 C   0  0  0  0  0  0  0  0  0  0  0  0
   -1.8386   -0.0183   -0.1419 C   0  0  0  0  0  0  0  0  0  0  0  0
   -1.9864   -1.8462    1.6042 C   0  0  0  0  0  0  0  0  0  0  0  0
   -1.6562    0.5306    2.2931 N   0  0  0  0  0  0  0  0  0  0  0  0
   -2.9676    0.9018    2.5687 C   0  0  0  0  0  0  0  0  0  0  0  0
   -3.2188    1.8328    3.5718 C   0  0  0  0  0  0  0  0  0  0  0  0
   -4.5337    2.2316    3.8305 C   0  0  0  0  0  0  0  0  0  0  0  0
   -5.5795    1.6773    3.0935 C   0  0  0  0  0  0  0  0  0  0  0  0
   -7.0113    2.0768    3.2421 C   0  0  0  0  0  0  0  0  0  0  0  0
   -7.2110    3.0614    4.1586 F   0  0  0  0  0  0  0  0  0  0  0  0
   -7.5358    2.5434    2.0738 F   0  0  0  0  0  0  0  0  0  0  0  0
   -7.8097    1.0410    3.6183 F   0  0  0  0  0  0  0  0  0  0  0  0
   -5.2475    0.7160    2.1604 C   0  0  0  0  0  0  0  0  0  0  0  0
   -3.9822    0.3317    1.8981 N   0  0  0  0  0  0  0  0  0  0  0  0
    2.9573    0.4053   -1.1924 C   0  0  1  0  0  0  0  0  0  0  0  0
    2.4747    1.8191   -1.6180 C   0  0  0  0  0  0  0  0  0  0  0  0
    2.9176    3.0040   -0.7900 C   0  0  0  0  0  0  0  0  0  0  0  0
    2.1241    3.4662    0.2677 C   0  0  0  0  0  0  0  0  0  0  0  0
    2.4872    4.6134    0.9779 C   0  0  0  0  0  0  0  0  0  0  0  0
    3.6481    5.3037    0.6374 C   0  0  0  0  0  0  0  0  0  0  0  0
    4.0689    6.7383    1.4883 Cl  0  0  0  0  0  0  0  0  0  0  0  0
    4.4584    4.8478   -0.3985 C   0  0  0  0  0  0  0  0  0  0  0  0
    4.0930    3.7028   -1.1109 C   0  0  0  0  0  0  0  0  0  0  0  0
    4.4689    0.2883   -1.3964 C   0  0  0  0  0  0  0  0  0  0  0  0
    4.9700   -0.1027   -2.6485 C   0  0  0  0  0  0  0  0  0  0  0  0
    6.3374   -0.3133   -2.8380 C   0  0  0  0  0  0  0  0  0  0  0  0
    7.2240   -0.1364   -1.7760 C   0  0  0  0  0  0  0  0  0  0  0  0
    6.7507    0.2862   -0.5338 C   0  0  0  0  0  0  0  0  0  0  0  0
    7.6549    0.4532    0.5637 C   0  0  0  0  0  0  0  0  0  0  0  0
    8.3889    0.5831    1.4591 N   0  0  0  0  0  0  0  0  0  0  0  0
    5.3830    0.5223   -0.3544 C   0  0  0  0  0  0  0  0  0  0  0  0
    4.0708   -1.6047    0.3620 H   0  0  0  0  0  0  0  0  0  0  0  0
    2.5501   -2.2564   -0.2609 H   0  0  0  0  0  0  0  0  0  0  0  0
    2.7745   -1.9011    1.4586 H   0  0  0  0  0  0  0  0  0  0  0  0
    2.7811    0.5365    1.0105 H   0  0  0  0  0  0  0  0  0  0  0  0
    0.4942    0.6134   -0.2620 H   0  0  0  0  0  0  0  0  0  0  0  0
   -1.5164   -0.7151   -0.9230 H   0  0  0  0  0  0  0  0  0  0  0  0
   -1.4553    0.9784   -0.3880 H   0  0  0  0  0  0  0  0  0  0  0  0
   -2.9266    0.0539   -0.2177 H   0  0  0  0  0  0  0  0  0  0  0  0
   -1.5447   -2.6522    1.0067 H   0  0  0  0  0  0  0  0  0  0  0  0
   -3.0646   -1.8779    1.4209 H   0  0  0  0  0  0  0  0  0  0  0  0
   -1.8283   -2.0939    2.6609 H   0  0  0  0  0  0  0  0  0  0  0  0
   -1.0396    1.3337    2.2591 H   0  0  0  0  0  0  0  0  0  0  0  0
   -2.4020    2.2531    4.1505 H   0  0  0  0  0  0  0  0  0  0  0  0
   -4.7302    2.9756    4.5996 H   0  0  0  0  0  0  0  0  0  0  0  0
   -6.0032    0.2130    1.5614 H   0  0  0  0  0  0  0  0  0  0  0  0
    2.5053   -0.2788   -1.9247 H   0  0  0  0  0  0  0  0  0  0  0  0
    1.3812    1.8377   -1.6870 H   0  0  0  0  0  0  0  0  0  0  0  0
    2.8008    2.0052   -2.6549 H   0  0  0  0  0  0  0  0  0  0  0  0
    1.2025    2.9557    0.5331 H   0  0  0  0  0  0  0  0  0  0  0  0
    1.8531    4.9726    1.7837 H   0  0  0  0  0  0  0  0  0  0  0  0
    5.3643    5.3867   -0.6661 H   0  0  0  0  0  0  0  0  0  0  0  0
    4.7267    3.3726   -1.9327 H   0  0  0  0  0  0  0  0  0  0  0  0
    4.2955   -0.2670   -3.4867 H   0  0  0  0  0  0  0  0  0  0  0  0
    6.7087   -0.6335   -3.8089 H   0  0  0  0  0  0  0  0  0  0  0  0
    8.2837   -0.3380   -1.9239 H   0  0  0  0  0  0  0  0  0  0  0  0
    5.0289    0.8469    0.6224 H   0  0  0  0  0  0  0  0  0  0  0  0
  1 37  1  0  0  0  0
  1 38  1  0  0  0  0
  1 39  1  0  0  0  0
  2 20  1  0  0  0  0
  2  3  1  0  0  0  0
  2  1  1  0  0  0  0
  2 40  1  1  0  0  0
  3  4  1  0  0  0  0
  3 41  1  0  0  0  0
  4  5  2  0  0  0  0
  4  6  1  0  0  0  0
  6  7  1  0  0  0  0
  6  8  1  0  0  0  0
  6  9  1  0  0  0  0
  7 42  1  0  0  0  0
  7 43  1  0  0  0  0
  7 44  1  0  0  0  0
  8 45  1  0  0  0  0
  8 46  1  0  0  0  0
  8 47  1  0  0  0  0
  9 10  1  0  0  0  0
  9 48  1  0  0  0  0
 10 19  2  0  0  0  0
 10 11  1  0  0  0  0
 11 12  2  0  0  0  0
 11 49  1  0  0  0  0
 12 13  1  0  0  0  0
 12 50  1  0  0  0  0
 13 14  1  0  0  0  0
 13 18  2  0  0  0  0
 14 15  1  0  0  0  0
 14 16  1  0  0  0  0
 14 17  1  0  0  0  0
 18 19  1  0  0  0  0
 18 51  1  0  0  0  0
 20 21  1  0  0  0  0
 20 29  1  0  0  0  0
 20 52  1  6  0  0  0
 21 22  1  0  0  0  0
 21 53  1  0  0  0  0
 21 54  1  0  0  0  0
 22 28  2  0  0  0  0
 22 23  1  0  0  0  0
 23 24  2  0  0  0  0
 23 55  1  0  0  0  0
 24 25  1  0  0  0  0
 24 56  1  0  0  0  0
 25 26  1  0  0  0  0
 25 27  2  0  0  0  0
 27 28  1  0  0  0  0
 27 57  1  0  0  0  0
 28 58  1  0  0  0  0
 29 36  2  0  0  0  0
 29 30  1  0  0  0  0
 30 31  2  0  0  0  0
 30 59  1  0  0  0  0
 31 32  1  0  0  0  0
 31 60  1  0  0  0  0
 32 33  2  0  0  0  0
 32 61  1  0  0  0  0
 33 34  1  0  0  0  0
 33 36  1  0  0  0  0
 34 35  3  0  0  0  0
 36 62  1  0  0  0  0
M  END
$$$$
CHEMBL1209596	5U09	best_smi
 OpenBabel12022417383D

 60 62  0  0  1  0  0  0  0  0999 V2000
    3.2726    0.2893   -1.5766 C   0  0  0  0  0  0  0  0  0  0  0  0
    2.5182    0.0665   -0.2588 C   0  0  2  0  0  0  0  0  0  0  0  0
    1.0481    0.2478   -0.4148 N   0  0  0  0  0  0  0  0  0  0  0  0
    0.3047   -0.1843   -1.5075 C   0  0  0  0  0  0  0  0  0  0  0  0
    0.8135   -0.7546   -2.4717 O   0  0  0  0  0  0  0  0  0  0  0  0
   -1.2383    0.0656   -1.4616 C   0  0  0  0  0  0  0  0  0  0  0  0
   -1.6191    1.1508   -0.4399 C   0  0  0  0  0  0  0  0  0  0  0  0
   -1.5994    0.5006   -2.9009 C   0  0  0  0  0  0  0  0  0  0  0  0
   -1.7812   -1.2157   -1.0706 O   0  0  0  0  0  0  0  0  0  0  0  0
   -3.1482   -1.3396   -1.0288 C   0  0  0  0  0  0  0  0  0  0  0  0
   -3.6855   -2.3865   -0.3027 C   0  0  0  0  0  0  0  0  0  0  0  0
   -5.0763   -2.4976   -0.2160 C   0  0  0  0  0  0  0  0  0  0  0  0
   -5.8883   -1.5750   -0.8806 C   0  0  0  0  0  0  0  0  0  0  0  0
   -7.3827   -1.5924   -0.8350 C   0  0  0  0  0  0  0  0  0  0  0  0
   -7.8948   -2.6008   -0.0788 F   0  0  0  0  0  0  0  0  0  0  0  0
   -7.8988   -0.4412   -0.3201 F   0  0  0  0  0  0  0  0  0  0  0  0
   -7.9388   -1.7269   -2.0695 F   0  0  0  0  0  0  0  0  0  0  0  0
   -5.2563   -0.5831   -1.6094 C   0  0  0  0  0  0  0  0  0  0  0  0
   -3.9179   -0.4503   -1.6823 N   0  0  0  0  0  0  0  0  0  0  0  0
    3.0849    0.9624    0.9602 C   0  0  1  0  0  0  0  0  0  0  0  0
    2.3932    0.5664    2.3153 C   0  0  0  0  0  0  0  0  0  0  0  0
    2.6145   -0.8302    2.8937 C   0  0  0  0  0  0  0  0  0  0  0  0
    2.0515   -1.1389    4.1420 C   0  0  0  0  0  0  0  0  0  0  0  0
    2.2515   -2.3964    4.7249 C   0  0  0  0  0  0  0  0  0  0  0  0
    3.0121   -3.3580    4.0640 C   0  0  0  0  0  0  0  0  0  0  0  0
    3.2407   -4.9119    4.7596 Cl  0  0  0  0  0  0  0  0  0  0  0  0
    3.5954   -3.0647    2.8404 C   0  0  0  0  0  0  0  0  0  0  0  0
    3.4137   -1.8051    2.2736 C   0  0  0  0  0  0  0  0  0  0  0  0
    4.6243    1.1093    1.1075 C   0  0  0  0  0  0  0  0  0  0  0  0
    5.3358    0.7401    2.2669 C   0  0  0  0  0  0  0  0  0  0  0  0
    6.7352    0.7159    2.3101 C   0  0  0  0  0  0  0  0  0  0  0  0
    7.4670    1.0942    1.1924 C   0  0  0  0  0  0  0  0  0  0  0  0
    6.7938    1.5912    0.0863 C   0  0  0  0  0  0  0  0  0  0  0  0
    7.7723    2.1180   -1.4443 Br  0  0  0  0  0  0  0  0  0  0  0  0
    5.3967    1.6566    0.0699 C   0  0  0  0  0  0  0  0  0  0  0  0
    4.3330    0.0523   -1.4711 H   0  0  0  0  0  0  0  0  0  0  0  0
    3.1404    1.3108   -1.9448 H   0  0  0  0  0  0  0  0  0  0  0  0
    2.9574   -0.3901   -2.3687 H   0  0  0  0  0  0  0  0  0  0  0  0
    2.6256   -0.9950   -0.0368 H   0  0  0  0  0  0  0  0  0  0  0  0
    0.5276    0.1611    0.4462 H   0  0  0  0  0  0  0  0  0  0  0  0
   -1.0907    2.0887   -0.6335 H   0  0  0  0  0  0  0  0  0  0  0  0
   -1.3989    0.8242    0.5823 H   0  0  0  0  0  0  0  0  0  0  0  0
   -2.6911    1.3641   -0.4502 H   0  0  0  0  0  0  0  0  0  0  0  0
   -0.8790    1.2319   -3.2871 H   0  0  0  0  0  0  0  0  0  0  0  0
   -2.5768    0.9878   -2.9640 H   0  0  0  0  0  0  0  0  0  0  0  0
   -1.6160   -0.3577   -3.5825 H   0  0  0  0  0  0  0  0  0  0  0  0
   -3.0360   -3.0936    0.2006 H   0  0  0  0  0  0  0  0  0  0  0  0
   -5.5164   -3.3024    0.3711 H   0  0  0  0  0  0  0  0  0  0  0  0
   -5.8181    0.1628   -2.1677 H   0  0  0  0  0  0  0  0  0  0  0  0
    2.7356    1.9880    0.7587 H   0  0  0  0  0  0  0  0  0  0  0  0
    1.3096    0.7098    2.2207 H   0  0  0  0  0  0  0  0  0  0  0  0
    2.7016    1.2964    3.0794 H   0  0  0  0  0  0  0  0  0  0  0  0
    1.4726   -0.3956    4.6873 H   0  0  0  0  0  0  0  0  0  0  0  0
    1.8224   -2.6171    5.6980 H   0  0  0  0  0  0  0  0  0  0  0  0
    4.2132   -3.7958    2.3251 H   0  0  0  0  0  0  0  0  0  0  0  0
    3.9514   -1.6127    1.3514 H   0  0  0  0  0  0  0  0  0  0  0  0
    4.8339    0.4319    3.1794 H   0  0  0  0  0  0  0  0  0  0  0  0
    7.2406    0.3646    3.2026 H   0  0  0  0  0  0  0  0  0  0  0  0
    8.5498    1.0151    1.2044 H   0  0  0  0  0  0  0  0  0  0  0  0
    4.9160    2.0984   -0.7982 H   0  0  0  0  0  0  0  0  0  0  0  0
  1 36  1  0  0  0  0
  1 37  1  0  0  0  0
  1 38  1  0  0  0  0
  2 20  1  0  0  0  0
  2  3  1  0  0  0  0
  2  1  1  0  0  0  0
  2 39  1  1  0  0  0
  3  4  1  0  0  0  0
  3 40  1  0  0  0  0
  4  5  2  0  0  0  0
  4  6  1  0  0  0  0
  6  7  1  0  0  0  0
  6  8  1  0  0  0  0
  6  9  1  0  0  0  0
  7 41  1  0  0  0  0
  7 42  1  0  0  0  0
  7 43  1  0  0  0  0
  8 44  1  0  0  0  0
  8 45  1  0  0  0  0
  8 46  1  0  0  0  0
  9 10  1  0  0  0  0
 10 19  2  0  0  0  0
 10 11  1  0  0  0  0
 11 12  2  0  0  0  0
 11 47  1  0  0  0  0
 12 13  1  0  0  0  0
 12 48  1  0  0  0  0
 13 14  1  0  0  0  0
 13 18  2  0  0  0  0
 14 15  1  0  0  0  0
 14 16  1  0  0  0  0
 14 17  1  0  0  0  0
 18 19  1  0  0  0  0
 18 49  1  0  0  0  0
 20 21  1  0  0  0  0
 20 29  1  0  0  0  0
 20 50  1  6  0  0  0
 21 22  1  0  0  0  0
 21 51  1  0  0  0  0
 21 52  1  0  0  0  0
 22 28  2  0  0  0  0
 22 23  1  0  0  0  0
 23 24  2  0  0  0  0
 23 53  1  0  0  0  0
 24 25  1  0  0  0  0
 24 54  1  0  0  0  0
 25 26  1  0  0  0  0
 25 27  2  0  0  0  0
 27 28  1  0  0  0  0
 27 55  1  0  0  0  0
 28 56  1  0  0  0  0
 29 35  2  0  0  0  0
 29 30  1  0  0  0  0
 30 31  2  0  0  0  0
 30 57  1  0  0  0  0
 31 32  1  0  0  0  0
 31 58  1  0  0  0  0
 32 33  2  0  0  0  0
 32 59  1  0  0  0  0
 33 34  1  0  0  0  0
 33 35  1  0  0  0  0
 35 60  1  0  0  0  0
M  END
$$$$
CHEMBL569292	5U09	best_smi
 OpenBabel12022417383D

 59 61  0  0  1  0  0  0  0  0999 V2000
    2.8256   -1.6109    0.4202 C   0  0  0  0  0  0  0  0  0  0  0  0
    2.4286   -0.1401    0.2220 C   0  0  2  0  0  0  0  0  0  0  0  0
    0.9620   -0.0382    0.3310 N   0  0  0  0  0  0  0  0  0  0  0  0
    0.3456    0.0914    1.5689 C   0  0  0  0  0  0  0  0  0  0  0  0
    1.0064    0.0501    2.6095 O   0  0  0  0  0  0  0  0  0  0  0  0
   -1.2246    0.2851    1.5889 C   0  0  0  0  0  0  0  0  0  0  0  0
   -1.4996    1.1665    2.8296 C   0  0  0  0  0  0  0  0  0  0  0  0
   -1.6620    0.9924    0.2931 C   0  0  0  0  0  0  0  0  0  0  0  0
   -1.8777   -1.0522    1.7143 N   0  0  0  0  0  0  0  0  0  0  0  0
   -3.2798   -1.1166    1.8492 C   0  0  0  0  0  0  0  0  0  0  0  0
   -4.0004    0.0212    1.7437 N   0  0  0  0  0  0  0  0  0  0  0  0
   -5.3484   -0.0233    1.8657 C   0  0  0  0  0  0  0  0  0  0  0  0
   -6.0550   -1.1901    2.0624 C   0  0  0  0  0  0  0  0  0  0  0  0
   -7.7645   -1.1668    2.1987 Cl  0  0  0  0  0  0  0  0  0  0  0  0
   -5.3402   -2.3784    2.1430 C   0  0  0  0  0  0  0  0  0  0  0  0
   -3.9449   -2.3436    2.0406 C   0  0  0  0  0  0  0  0  0  0  0  0
   -3.0830   -3.8359    2.1636 Cl  0  0  0  0  0  0  0  0  0  0  0  0
    2.9790    0.4323   -1.1318 C   0  0  1  0  0  0  0  0  0  0  0  0
    2.5361    1.8870   -1.4453 C   0  0  0  0  0  0  0  0  0  0  0  0
    2.9941    2.9847   -0.5111 C   0  0  0  0  0  0  0  0  0  0  0  0
    2.1983    3.3623    0.5785 C   0  0  0  0  0  0  0  0  0  0  0  0
    2.5716    4.4286    1.3989 C   0  0  0  0  0  0  0  0  0  0  0  0
    3.7455    5.1276    1.1366 C   0  0  0  0  0  0  0  0  0  0  0  0
    4.1779    6.4716    2.1194 Cl  0  0  0  0  0  0  0  0  0  0  0  0
    4.5602    4.7543    0.0720 C   0  0  0  0  0  0  0  0  0  0  0  0
    4.1859    3.6867   -0.7501 C   0  0  0  0  0  0  0  0  0  0  0  0
    4.4904    0.2795   -1.3386 C   0  0  0  0  0  0  0  0  0  0  0  0
    4.9921    0.0349   -2.6289 C   0  0  0  0  0  0  0  0  0  0  0  0
    6.3589   -0.1601   -2.8436 C   0  0  0  0  0  0  0  0  0  0  0  0
    7.2490   -0.1113   -1.7723 C   0  0  0  0  0  0  0  0  0  0  0  0
    6.7765    0.1657   -0.4879 C   0  0  0  0  0  0  0  0  0  0  0  0
    7.6872    0.2089    0.6193 C   0  0  0  0  0  0  0  0  0  0  0  0
    8.4266    0.2333    1.5107 N   0  0  0  0  0  0  0  0  0  0  0  0
    5.4074    0.3780   -0.2788 C   0  0  0  0  0  0  0  0  0  0  0  0
    3.9084   -1.7385    0.5007 H   0  0  0  0  0  0  0  0  0  0  0  0
    2.4735   -2.2265   -0.4144 H   0  0  0  0  0  0  0  0  0  0  0  0
    2.3887   -2.0172    1.3382 H   0  0  0  0  0  0  0  0  0  0  0  0
    2.8532    0.4376    1.0512 H   0  0  0  0  0  0  0  0  0  0  0  0
    0.3995   -0.4236   -0.4184 H   0  0  0  0  0  0  0  0  0  0  0  0
   -1.0125    2.1422    2.7213 H   0  0  0  0  0  0  0  0  0  0  0  0
   -1.1115    0.7032    3.7449 H   0  0  0  0  0  0  0  0  0  0  0  0
   -2.5579    1.3640    3.0108 H   0  0  0  0  0  0  0  0  0  0  0  0
   -1.0231    1.8540    0.0758 H   0  0  0  0  0  0  0  0  0  0  0  0
   -2.6864    1.3699    0.3335 H   0  0  0  0  0  0  0  0  0  0  0  0
   -1.6127    0.3098   -0.5642 H   0  0  0  0  0  0  0  0  0  0  0  0
   -1.4512   -1.6011    2.4639 H   0  0  0  0  0  0  0  0  0  0  0  0
   -5.8424    0.9422    1.8019 H   0  0  0  0  0  0  0  0  0  0  0  0
   -5.8651   -3.3177    2.2871 H   0  0  0  0  0  0  0  0  0  0  0  0
    2.5067   -0.1845   -1.9130 H   0  0  0  0  0  0  0  0  0  0  0  0
    1.4403    1.9251   -1.5070 H   0  0  0  0  0  0  0  0  0  0  0  0
    2.8698    2.1537   -2.4592 H   0  0  0  0  0  0  0  0  0  0  0  0
    1.2674    2.8431    0.7881 H   0  0  0  0  0  0  0  0  0  0  0  0
    1.9351    4.7146    2.2315 H   0  0  0  0  0  0  0  0  0  0  0  0
    5.4778    5.3005   -0.1350 H   0  0  0  0  0  0  0  0  0  0  0  0
    4.8255    3.4205   -1.5901 H   0  0  0  0  0  0  0  0  0  0  0  0
    4.3187   -0.0148   -3.4834 H   0  0  0  0  0  0  0  0  0  0  0  0
    6.7304   -0.3612   -3.8463 H   0  0  0  0  0  0  0  0  0  0  0  0
    8.3088   -0.2917   -1.9438 H   0  0  0  0  0  0  0  0  0  0  0  0
    5.0628    0.6018    0.7300 H   0  0  0  0  0  0  0  0  0  0  0  0
  1 35  1  0  0  0  0
  1 36  1  0  0  0  0
  1 37  1  0  0  0  0
  2 18  1  0  0  0  0
  2  3  1  0  0  0  0
  2  1  1  0  0  0  0
  2 38  1  1  0  0  0
  3  4  1  0  0  0  0
  3 39  1  0  0  0  0
  4  5  2  0  0  0  0
  4  6  1  0  0  0  0
  6  7  1  0  0  0  0
  6  8  1  0  0  0  0
  6  9  1  0  0  0  0
  7 40  1  0  0  0  0
  7 41  1  0  0  0  0
  7 42  1  0  0  0  0
  8 43  1  0  0  0  0
  8 44  1  0  0  0  0
  8 45  1  0  0  0  0
  9 10  1  0  0  0  0
  9 46  1  0  0  0  0
 10 16  2  0  0  0  0
 10 11  1  0  0  0  0
 11 12  2  0  0  0  0
 12 13  1  0  0  0  0
 12 47  1  0  0  0  0
 13 14  1  0  0  0  0
 13 15  2  0  0  0  0
 15 16  1  0  0  0  0
 15 48  1  0  0  0  0
 16 17  1  0  0  0  0
 18 19  1  0  0  0  0
 18 27  1  0  0  0  0
 18 49  1  6  0  0  0
 19 20  1  0  0  0  0
 19 50  1  0  0  0  0
 19 51  1  0  0  0  0
 20 26  2  0  0  0  0
 20 21  1  0  0  0  0
 21 22  2  0  0  0  0
 21 52  1  0  0  0  0
 22 23  1  0  0  0  0
 22 53  1  0  0  0  0
 23 24  1  0  0  0  0
 23 25  2  0  0  0  0
 25 26  1  0  0  0  0
 25 54  1  0  0  0  0
 26 55  1  0  0  0  0
 27 34  2  0  0  0  0
 27 28  1  0  0  0  0
 28 29  2  0  0  0  0
 28 56  1  0  0  0  0
 29 30  1  0  0  0  0
 29 57  1  0  0  0  0
 30 31  2  0  0  0  0
 30 58  1  0  0  0  0
 31 32  1  0  0  0  0
 31 34  1  0  0  0  0
 32 33  3  0  0  0  0
 34 59  1  0  0  0  0
M  END
$$$$
CHEMBL567679	5U09	best_smi
 OpenBabel12022417383D

 62 64  0  0  1  0  0  0  0  0999 V2000
    2.9375    0.3221    1.5458 C   0  0  0  0  0  0  0  0  0  0  0  0
    2.4093   -0.0331    0.1545 C   0  0  2  0  0  0  0  0  0  0  0  0
    0.9443   -0.1052    0.2135 N   0  0  0  0  0  0  0  0  0  0  0  0
    0.2201   -1.0404    0.9252 C   0  0  0  0  0  0  0  0  0  0  0  0
    0.7683   -1.9962    1.4725 O   0  0  0  0  0  0  0  0  0  0  0  0
   -1.3570   -0.8764    0.9479 C   0  0  0  0  0  0  0  0  0  0  0  0
   -1.7675   -0.8412    2.4307 C   0  0  0  0  0  0  0  0  0  0  0  0
   -1.8125    0.4145    0.2487 C   0  0  0  0  0  0  0  0  0  0  0  0
   -1.8811   -2.0841    0.2585 N   0  0  0  0  0  0  0  0  0  0  0  0
   -3.2481   -2.3267    0.1327 C   0  0  0  0  0  0  0  0  0  0  0  0
   -3.6553   -3.4781   -0.5357 C   0  0  0  0  0  0  0  0  0  0  0  0
   -5.0190   -3.7257   -0.7450 C   0  0  0  0  0  0  0  0  0  0  0  0
   -5.4936   -4.9467   -1.4815 C   0  0  0  0  0  0  0  0  0  0  0  0
   -4.4870   -5.7647   -1.8954 F   0  0  0  0  0  0  0  0  0  0  0  0
   -6.3173   -5.7222   -0.7239 F   0  0  0  0  0  0  0  0  0  0  0  0
   -6.2038   -4.6318   -2.6002 F   0  0  0  0  0  0  0  0  0  0  0  0
   -5.9452   -2.7992   -0.2652 C   0  0  0  0  0  0  0  0  0  0  0  0
   -5.4645   -1.6807    0.3828 C   0  0  0  0  0  0  0  0  0  0  0  0
   -4.1513   -1.4351    0.5760 N   0  0  0  0  0  0  0  0  0  0  0  0
    3.0782   -1.2484   -0.6121 C   0  0  1  0  0  0  0  0  0  0  0  0
    2.4210   -1.4196   -2.0318 C   0  0  0  0  0  0  0  0  0  0  0  0
    2.5301   -0.3194   -3.0875 C   0  0  0  0  0  0  0  0  0  0  0  0
    1.9165   -0.5340   -4.3350 C   0  0  0  0  0  0  0  0  0  0  0  0
    1.9719    0.4355   -5.3443 C   0  0  0  0  0  0  0  0  0  0  0  0
    2.6420    1.6338   -5.1202 C   0  0  0  0  0  0  0  0  0  0  0  0
    2.6813    2.8465   -6.3388 Cl  0  0  0  0  0  0  0  0  0  0  0  0
    3.2867    1.8546   -3.9105 C   0  0  0  0  0  0  0  0  0  0  0  0
    3.2402    0.8785   -2.9133 C   0  0  0  0  0  0  0  0  0  0  0  0
    4.6229   -1.2736   -0.6463 C   0  0  0  0  0  0  0  0  0  0  0  0
    5.3564   -1.3183    0.5487 C   0  0  0  0  0  0  0  0  0  0  0  0
    6.7511   -1.2081    0.5624 C   0  0  0  0  0  0  0  0  0  0  0  0
    7.4594   -1.1317   -0.6324 C   0  0  0  0  0  0  0  0  0  0  0  0
    6.7722   -1.2106   -1.8398 C   0  0  0  0  0  0  0  0  0  0  0  0
    7.4850   -1.1867   -3.0839 C   0  0  0  0  0  0  0  0  0  0  0  0
    8.0564   -1.1643   -4.0942 N   0  0  0  0  0  0  0  0  0  0  0  0
    5.3723   -1.2991   -1.8393 C   0  0  0  0  0  0  0  0  0  0  0  0
    3.9729    0.6705    1.5047 H   0  0  0  0  0  0  0  0  0  0  0  0
    2.8591   -0.5146    2.2454 H   0  0  0  0  0  0  0  0  0  0  0  0
    2.3608    1.1544    1.9682 H   0  0  0  0  0  0  0  0  0  0  0  0
    2.5819    0.8736   -0.4250 H   0  0  0  0  0  0  0  0  0  0  0  0
    0.4638    0.6887   -0.1837 H   0  0  0  0  0  0  0  0  0  0  0  0
   -1.3064    0.0145    2.9384 H   0  0  0  0  0  0  0  0  0  0  0  0
   -1.4545   -1.7464    2.9627 H   0  0  0  0  0  0  0  0  0  0  0  0
   -2.8491   -0.7438    2.5668 H   0  0  0  0  0  0  0  0  0  0  0  0
   -1.3209    1.2924    0.6852 H   0  0  0  0  0  0  0  0  0  0  0  0
   -2.8852    0.5988    0.3416 H   0  0  0  0  0  0  0  0  0  0  0  0
   -1.5802    0.3880   -0.8224 H   0  0  0  0  0  0  0  0  0  0  0  0
   -1.4095   -2.9161    0.6134 H   0  0  0  0  0  0  0  0  0  0  0  0
   -2.9099   -4.1752   -0.9114 H   0  0  0  0  0  0  0  0  0  0  0  0
   -7.0120   -2.9413   -0.3986 H   0  0  0  0  0  0  0  0  0  0  0  0
   -6.1380   -0.9227    0.7726 H   0  0  0  0  0  0  0  0  0  0  0  0
    2.8067   -2.1643   -0.0670 H   0  0  0  0  0  0  0  0  0  0  0  0
    1.3487   -1.6123   -1.8891 H   0  0  0  0  0  0  0  0  0  0  0  0
    2.8190   -2.3424   -2.4796 H   0  0  0  0  0  0  0  0  0  0  0  0
    1.3951   -1.4687   -4.5359 H   0  0  0  0  0  0  0  0  0  0  0  0
    1.4922    0.2478   -6.3014 H   0  0  0  0  0  0  0  0  0  0  0  0
    3.8352    2.7757   -3.7351 H   0  0  0  0  0  0  0  0  0  0  0  0
    3.8080    1.0848   -2.0116 H   0  0  0  0  0  0  0  0  0  0  0  0
    4.8511   -1.4287    1.5063 H   0  0  0  0  0  0  0  0  0  0  0  0
    7.2811   -1.1803    1.5116 H   0  0  0  0  0  0  0  0  0  0  0  0
    8.5423   -1.0335   -0.6142 H   0  0  0  0  0  0  0  0  0  0  0  0
    4.8887   -1.3769   -2.8096 H   0  0  0  0  0  0  0  0  0  0  0  0
  1 37  1  0  0  0  0
  1 38  1  0  0  0  0
  1 39  1  0  0  0  0
  2 20  1  0  0  0  0
  2  3  1  0  0  0  0
  2  1  1  0  0  0  0
  2 40  1  6  0  0  0
  3  4  1  0  0  0  0
  3 41  1  0  0  0  0
  4  5  2  0  0  0  0
  4  6  1  0  0  0  0
  6  7  1  0  0  0  0
  6  8  1  0  0  0  0
  6  9  1  0  0  0  0
  7 42  1  0  0  0  0
  7 43  1  0  0  0  0
  7 44  1  0  0  0  0
  8 45  1  0  0  0  0
  8 46  1  0  0  0  0
  8 47  1  0  0  0  0
  9 10  1  0  0  0  0
  9 48  1  0  0  0  0
 10 19  2  0  0  0  0
 10 11  1  0  0  0  0
 11 12  2  0  0  0  0
 11 49  1  0  0  0  0
 12 13  1  0  0  0  0
 12 17  1  0  0  0  0
 13 14  1  0  0  0  0
 13 15  1  0  0  0  0
 13 16  1  0  0  0  0
 17 18  2  0  0  0  0
 17 50  1  0  0  0  0
 18 19  1  0  0  0  0
 18 51  1  0  0  0  0
 20 21  1  0  0  0  0
 20 29  1  0  0  0  0
 20 52  1  1  0  0  0
 21 22  1  0  0  0  0
 21 53  1  0  0  0  0
 21 54  1  0  0  0  0
 22 28  2  0  0  0  0
 22 23  1  0  0  0  0
 23 24  2  0  0  0  0
 23 55  1  0  0  0  0
 24 25  1  0  0  0  0
 24 56  1  0  0  0  0
 25 26  1  0  0  0  0
 25 27  2  0  0  0  0
 27 28  1  0  0  0  0
 27 57  1  0  0  0  0
 28 58  1  0  0  0  0
 29 36  2  0  0  0  0
 29 30  1  0  0  0  0
 30 31  2  0  0  0  0
 30 59  1  0  0  0  0
 31 32  1  0  0  0  0
 31 60  1  0  0  0  0
 32 33  2  0  0  0  0
 32 61  1  0  0  0  0
 33 34  1  0  0  0  0
 33 36  1  0  0  0  0
 34 35  3  0  0  0  0
 36 62  1  0  0  0  0
M  END
$$$$
CHEMBL513814	5U09	best_smi
 OpenBabel12022417383D

 57 59  0  0  1  0  0  0  0  0999 V2000
    0.9140    0.0332   -0.7997 C   0  0  0  0  0  0  0  0  0  0  0  0
    2.3430   -0.0322   -0.2333 C   0  0  3  0  0  0  0  0  0  0  0  0
    3.0663   -1.0034   -1.0667 N   0  0  0  0  0  0  0  0  0  0  0  0
    3.0935   -2.3495   -0.7614 C   0  0  0  0  0  0  0  0  0  0  0  0
    2.4748   -2.7923    0.2140 O   0  0  0  0  0  0  0  0  0  0  0  0
    3.9369   -3.2728   -1.6986 C   0  0  0  0  0  0  0  0  0  0  0  0
    5.1341   -2.5046   -2.2854 C   0  0  0  0  0  0  0  0  0  0  0  0
    4.4121   -4.4380   -0.8030 C   0  0  0  0  0  0  0  0  0  0  0  0
    3.0099   -3.6621   -2.7360 O   0  0  0  0  0  0  0  0  0  0  0  0
    3.4765   -4.5115   -3.7153 C   0  0  0  0  0  0  0  0  0  0  0  0
    2.7834   -4.5415   -4.9149 C   0  0  0  0  0  0  0  0  0  0  0  0
    3.2593   -5.3661   -5.9390 C   0  0  0  0  0  0  0  0  0  0  0  0
    4.3903   -6.1389   -5.7169 C   0  0  0  0  0  0  0  0  0  0  0  0
    5.0246   -7.1531   -6.9510 Cl  0  0  0  0  0  0  0  0  0  0  0  0
    5.0016   -6.0667   -4.4817 C   0  0  0  0  0  0  0  0  0  0  0  0
    4.5663   -5.2651   -3.4821 N   0  0  0  0  0  0  0  0  0  0  0  0
    3.0619    1.3723   -0.1377 C   0  0  3  0  0  0  0  0  0  0  0  0
    2.2552    2.3894    0.7449 C   0  0  0  0  0  0  0  0  0  0  0  0
    2.0990    1.9949    2.1967 C   0  0  0  0  0  0  0  0  0  0  0  0
    1.0000    1.2314    2.6155 C   0  0  0  0  0  0  0  0  0  0  0  0
    0.9300    0.7492    3.9237 C   0  0  0  0  0  0  0  0  0  0  0  0
    1.9477    1.0466    4.8259 C   0  0  0  0  0  0  0  0  0  0  0  0
    1.9031    0.3868    6.4139 Cl  0  0  0  0  0  0  0  0  0  0  0  0
    3.0105    1.8605    4.4444 C   0  0  0  0  0  0  0  0  0  0  0  0
    3.0813    2.3396    3.1355 C   0  0  0  0  0  0  0  0  0  0  0  0
    4.5599    1.3742    0.2466 C   0  0  0  0  0  0  0  0  0  0  0  0
    5.2809    2.5867    0.2283 C   0  0  0  0  0  0  0  0  0  0  0  0
    6.6475    2.6347    0.5279 C   0  0  0  0  0  0  0  0  0  0  0  0
    7.3414    1.4637    0.8075 C   0  0  0  0  0  0  0  0  0  0  0  0
    6.6553    0.2559    0.8365 C   0  0  0  0  0  0  0  0  0  0  0  0
    5.2767    0.2190    0.5926 C   0  0  0  0  0  0  0  0  0  0  0  0
    0.2814   -0.7024   -0.2898 H   0  0  0  0  0  0  0  0  0  0  0  0
    0.8935   -0.2187   -1.8669 H   0  0  0  0  0  0  0  0  0  0  0  0
    0.4326    1.0047   -0.6929 H   0  0  0  0  0  0  0  0  0  0  0  0
    2.2916   -0.4462    0.7804 H   0  0  0  0  0  0  0  0  0  0  0  0
    3.3283   -0.7091   -1.9962 H   0  0  0  0  0  0  0  0  0  0  0  0
    5.7783   -2.1027   -1.5018 H   0  0  0  0  0  0  0  0  0  0  0  0
    4.8069   -1.6799   -2.9306 H   0  0  0  0  0  0  0  0  0  0  0  0
    5.7516   -3.1364   -2.9323 H   0  0  0  0  0  0  0  0  0  0  0  0
    4.8111   -4.0674    0.1494 H   0  0  0  0  0  0  0  0  0  0  0  0
    5.2213   -5.0178   -1.2546 H   0  0  0  0  0  0  0  0  0  0  0  0
    3.5925   -5.1323   -0.5872 H   0  0  0  0  0  0  0  0  0  0  0  0
    1.9038   -3.9257   -5.0615 H   0  0  0  0  0  0  0  0  0  0  0  0
    2.7487   -5.3936   -6.8969 H   0  0  0  0  0  0  0  0  0  0  0  0
    5.8835   -6.6534   -4.2442 H   0  0  0  0  0  0  0  0  0  0  0  0
    3.0513    1.7741   -1.1626 H   0  0  0  0  0  0  0  0  0  0  0  0
    1.2600    2.5601    0.3200 H   0  0  0  0  0  0  0  0  0  0  0  0
    2.7136    3.3863    0.7062 H   0  0  0  0  0  0  0  0  0  0  0  0
    0.2049    0.9740    1.9199 H   0  0  0  0  0  0  0  0  0  0  0  0
    0.0937    0.1232    4.2226 H   0  0  0  0  0  0  0  0  0  0  0  0
    3.7997    2.1055    5.1495 H   0  0  0  0  0  0  0  0  0  0  0  0
    3.9277    2.9596    2.8482 H   0  0  0  0  0  0  0  0  0  0  0  0
    4.7850    3.5245   -0.0107 H   0  0  0  0  0  0  0  0  0  0  0  0
    7.1710    3.5875    0.5327 H   0  0  0  0  0  0  0  0  0  0  0  0
    8.4087    1.4916    1.0090 H   0  0  0  0  0  0  0  0  0  0  0  0
    7.1893   -0.6662    1.0539 H   0  0  0  0  0  0  0  0  0  0  0  0
    4.7901   -0.7464    0.6809 H   0  0  0  0  0  0  0  0  0  0  0  0
  1  2  1  0  0  0  0
  1 32  1  0  0  0  0
  1 33  1  0  0  0  0
  1 34  1  0  0  0  0
  2  3  1  0  0  0  0
  2 17  1  0  0  0  0
  2 35  1  0  0  0  0
  3  4  1  0  0  0  0
  3 36  1  0  0  0  0
  4  5  2  0  0  0  0
  4  6  1  0  0  0  0
  6  7  1  0  0  0  0
  6  8  1  0  0  0  0
  6  9  1  0  0  0  0
  7 37  1  0  0  0  0
  7 38  1  0  0  0  0
  7 39  1  0  0  0  0
  8 40  1  0  0  0  0
  8 41  1  0  0  0  0
  8 42  1  0  0  0  0
  9 10  1  0  0  0  0
 10 16  2  0  0  0  0
 10 11  1  0  0  0  0
 11 12  2  0  0  0  0
 11 43  1  0  0  0  0
 12 13  1  0  0  0  0
 12 44  1  0  0  0  0
 13 14  1  0  0  0  0
 13 15  2  0  0  0  0
 15 16  1  0  0  0  0
 15 45  1  0  0  0  0
 17 18  1  0  0  0  0
 17 26  1  0  0  0  0
 17 46  1  0  0  0  0
 18 19  1  0  0  0  0
 18 47  1  0  0  0  0
 18 48  1  0  0  0  0
 19 25  2  0  0  0  0
 19 20  1  0  0  0  0
 20 21  2  0  0  0  0
 20 49  1  0  0  0  0
 21 22  1  0  0  0  0
 21 50  1  0  0  0  0
 22 23  1  0  0  0  0
 22 24  2  0  0  0  0
 24 25  1  0  0  0  0
 24 51  1  0  0  0  0
 25 52  1  0  0  0  0
 26 31  2  0  0  0  0
 26 27  1  0  0  0  0
 27 28  2  0  0  0  0
 27 53  1  0  0  0  0
 28 29  1  0  0  0  0
 28 54  1  0  0  0  0
 29 30  2  0  0  0  0
 29 55  1  0  0  0  0
 30 31  1  0  0  0  0
 30 56  1  0  0  0  0
 31 57  1  0  0  0  0
M  END
$$$$
CHEMBL568094	5U09	best_smi
 OpenBabel12022417383D

 59 61  0  0  1  0  0  0  0  0999 V2000
    2.9096    1.4154    0.3376 C   0  0  0  0  0  0  0  0  0  0  0  0
    2.5634    0.0036   -0.1612 C   0  0  2  0  0  0  0  0  0  0  0  0
    1.1090   -0.0855   -0.3824 N   0  0  0  0  0  0  0  0  0  0  0  0
    0.1663   -0.2958    0.6013 C   0  0  0  0  0  0  0  0  0  0  0  0
    0.4696   -0.5634    1.7662 O   0  0  0  0  0  0  0  0  0  0  0  0
   -1.3327   -0.0900    0.1781 C   0  0  0  0  0  0  0  0  0  0  0  0
   -1.6686   -0.4015   -1.2927 C   0  0  0  0  0  0  0  0  0  0  0  0
   -2.1641   -1.0919    1.0161 C   0  0  0  0  0  0  0  0  0  0  0  0
   -1.7817    1.2759    0.5572 N   0  0  0  0  0  0  0  0  0  0  0  0
   -1.1999    2.3765   -0.0849 C   0  0  0  0  0  0  0  0  0  0  0  0
   -1.6485    3.6524    0.2493 C   0  0  0  0  0  0  0  0  0  0  0  0
   -1.1301    4.7619   -0.4165 C   0  0  0  0  0  0  0  0  0  0  0  0
   -0.1687    4.5794   -1.3975 C   0  0  0  0  0  0  0  0  0  0  0  0
    0.2290    3.2882   -1.6708 C   0  0  0  0  0  0  0  0  0  0  0  0
   -0.2658    2.1987   -1.0418 N   0  0  0  0  0  0  0  0  0  0  0  0
    3.1787   -1.1114    0.7510 C   0  0  1  0  0  0  0  0  0  0  0  0
    2.7834   -2.5531    0.3334 C   0  0  0  0  0  0  0  0  0  0  0  0
    3.3054   -3.0066   -1.0107 C   0  0  0  0  0  0  0  0  0  0  0  0
    2.5494   -2.8090   -2.1739 C   0  0  0  0  0  0  0  0  0  0  0  0
    3.0624   -3.1708   -3.4214 C   0  0  0  0  0  0  0  0  0  0  0  0
    4.3316   -3.7404   -3.5086 C   0  0  0  0  0  0  0  0  0  0  0  0
    4.9801   -4.1495   -5.0470 Cl  0  0  0  0  0  0  0  0  0  0  0  0
    5.0829   -3.9685   -2.3577 C   0  0  0  0  0  0  0  0  0  0  0  0
    4.5674   -3.6099   -1.1122 C   0  0  0  0  0  0  0  0  0  0  0  0
    4.6894   -0.9933    0.9884 C   0  0  0  0  0  0  0  0  0  0  0  0
    5.2097   -1.3619    2.2411 C   0  0  0  0  0  0  0  0  0  0  0  0
    6.5670   -1.2102    2.5292 C   0  0  0  0  0  0  0  0  0  0  0  0
    7.4287   -0.6830    1.5701 C   0  0  0  0  0  0  0  0  0  0  0  0
    6.9373   -0.3346    0.3102 C   0  0  0  0  0  0  0  0  0  0  0  0
    7.8113    0.2351   -0.6689 C   0  0  0  0  0  0  0  0  0  0  0  0
    8.5172    0.7114   -1.4624 N   0  0  0  0  0  0  0  0  0  0  0  0
    5.5793   -0.5107    0.0153 C   0  0  0  0  0  0  0  0  0  0  0  0
    3.9877    1.5934    0.3671 H   0  0  0  0  0  0  0  0  0  0  0  0
    2.5067    1.5988    1.3378 H   0  0  0  0  0  0  0  0  0  0  0  0
    2.4982    2.1732   -0.3352 H   0  0  0  0  0  0  0  0  0  0  0  0
    2.9847   -0.0887   -1.1696 H   0  0  0  0  0  0  0  0  0  0  0  0
    0.7602    0.5587   -1.0937 H   0  0  0  0  0  0  0  0  0  0  0  0
   -1.4270   -1.4399   -1.5413 H   0  0  0  0  0  0  0  0  0  0  0  0
   -1.1375    0.2199   -2.0169 H   0  0  0  0  0  0  0  0  0  0  0  0
   -2.7378   -0.2433   -1.4844 H   0  0  0  0  0  0  0  0  0  0  0  0
   -1.7589   -2.1072    0.9192 H   0  0  0  0  0  0  0  0  0  0  0  0
   -3.2102   -1.1196    0.6885 H   0  0  0  0  0  0  0  0  0  0  0  0
   -2.1650   -0.8378    2.0820 H   0  0  0  0  0  0  0  0  0  0  0  0
   -1.6846    1.4106    1.5642 H   0  0  0  0  0  0  0  0  0  0  0  0
   -2.4155    3.7857    1.0064 H   0  0  0  0  0  0  0  0  0  0  0  0
   -1.4851    5.7606   -0.1774 H   0  0  0  0  0  0  0  0  0  0  0  0
    0.2572    5.4158   -1.9390 H   0  0  0  0  0  0  0  0  0  0  0  0
    0.9854    3.0795   -2.4221 H   0  0  0  0  0  0  0  0  0  0  0  0
    2.7408   -0.9586    1.7457 H   0  0  0  0  0  0  0  0  0  0  0  0
    1.6919   -2.6627    0.3393 H   0  0  0  0  0  0  0  0  0  0  0  0
    3.1326   -3.2625    1.0969 H   0  0  0  0  0  0  0  0  0  0  0  0
    1.5590   -2.3622   -2.1169 H   0  0  0  0  0  0  0  0  0  0  0  0
    2.4729   -3.0017   -4.3163 H   0  0  0  0  0  0  0  0  0  0  0  0
    6.0702   -4.4170   -2.4227 H   0  0  0  0  0  0  0  0  0  0  0  0
    5.1643   -3.7870   -0.2193 H   0  0  0  0  0  0  0  0  0  0  0  0
    4.5495   -1.7559    3.0127 H   0  0  0  0  0  0  0  0  0  0  0  0
    6.9469   -1.4873    3.5099 H   0  0  0  0  0  0  0  0  0  0  0  0
    8.4796   -0.5399    1.8133 H   0  0  0  0  0  0  0  0  0  0  0  0
    5.2197   -0.2399   -0.9758 H   0  0  0  0  0  0  0  0  0  0  0  0
  1 33  1  0  0  0  0
  1 34  1  0  0  0  0
  1 35  1  0  0  0  0
  2 16  1  0  0  0  0
  2  3  1  0  0  0  0
  2  1  1  0  0  0  0
  2 36  1  6  0  0  0
  3  4  1  0  0  0  0
  3 37  1  0  0  0  0
  4  5  2  0  0  0  0
  4  6  1  0  0  0  0
  6  7  1  0  0  0  0
  6  8  1  0  0  0  0
  6  9  1  0  0  0  0
  7 38  1  0  0  0  0
  7 39  1  0  0  0  0
  7 40  1  0  0  0  0
  8 41  1  0  0  0  0
  8 42  1  0  0  0  0
  8 43  1  0  0  0  0
  9 10  1  0  0  0  0
  9 44  1  0  0  0  0
 10 15  2  0  0  0  0
 10 11  1  0  0  0  0
 11 12  2  0  0  0  0
 11 45  1  0  0  0  0
 12 13  1  0  0  0  0
 12 46  1  0  0  0  0
 13 14  2  0  0  0  0
 13 47  1  0  0  0  0
 14 15  1  0  0  0  0
 14 48  1  0  0  0  0
 16 17  1  0  0  0  0
 16 25  1  0  0  0  0
 16 49  1  1  0  0  0
 17 18  1  0  0  0  0
 17 50  1  0  0  0  0
 17 51  1  0  0  0  0
 18 24  2  0  0  0  0
 18 19  1  0  0  0  0
 19 20  2  0  0  0  0
 19 52  1  0  0  0  0
 20 21  1  0  0  0  0
 20 53  1  0  0  0  0
 21 22  1  0  0  0  0
 21 23  2  0  0  0  0
 23 24  1  0  0  0  0
 23 54  1  0  0  0  0
 24 55  1  0  0  0  0
 25 32  2  0  0  0  0
 25 26  1  0  0  0  0
 26 27  2  0  0  0  0
 26 56  1  0  0  0  0
 27 28  1  0  0  0  0
 27 57  1  0  0  0  0
 28 29  2  0  0  0  0
 28 58  1  0  0  0  0
 29 30  1  0  0  0  0
 29 32  1  0  0  0  0
 30 31  3  0  0  0  0
 32 59  1  0  0  0  0
M  END
$$$$
CHEMBL567461	5U09	best_smi
 OpenBabel12022417383D

 58 60  0  0  1  0  0  0  0  0999 V2000
    2.8558   -1.5750    0.2567 C   0  0  0  0  0  0  0  0  0  0  0  0
    2.5508   -0.0851    0.0867 C   0  0  2  0  0  0  0  0  0  0  0  0
    1.1036    0.1239    0.2523 N   0  0  0  0  0  0  0  0  0  0  0  0
    0.1531   -0.1215   -0.7174 C   0  0  0  0  0  0  0  0  0  0  0  0
    0.4382   -0.2501   -1.9108 O   0  0  0  0  0  0  0  0  0  0  0  0
   -1.3417   -0.2095   -0.2460 C   0  0  0  0  0  0  0  0  0  0  0  0
   -1.5817   -0.1620    1.2763 C   0  0  0  0  0  0  0  0  0  0  0  0
   -2.0860    1.0029   -0.8457 C   0  0  0  0  0  0  0  0  0  0  0  0
   -1.9510   -1.4397   -0.8313 N   0  0  0  0  0  0  0  0  0  0  0  0
   -1.4182   -2.6712   -0.3988 C   0  0  0  0  0  0  0  0  0  0  0  0
   -1.9871   -3.8373   -0.8697 C   0  0  0  0  0  0  0  0  0  0  0  0
   -1.4982   -5.0171   -0.3522 C   0  0  0  0  0  0  0  0  0  0  0  0
   -0.4997   -5.0812    0.5443 N   0  0  0  0  0  0  0  0  0  0  0  0
   -0.0010   -3.9020    0.9172 C   0  0  0  0  0  0  0  0  0  0  0  0
   -0.4150   -2.7005    0.4911 N   0  0  0  0  0  0  0  0  0  0  0  0
    3.1811    0.6282   -1.1749 C   0  0  1  0  0  0  0  0  0  0  0  0
    2.7338    2.1302   -1.2020 C   0  0  0  0  0  0  0  0  0  0  0  0
    3.1969    3.0902   -0.1100 C   0  0  0  0  0  0  0  0  0  0  0  0
    2.8158    4.4376   -0.2142 C   0  0  0  0  0  0  0  0  0  0  0  0
    3.2884    5.3888    0.6960 C   0  0  0  0  0  0  0  0  0  0  0  0
    4.1350    5.0028    1.7309 C   0  0  0  0  0  0  0  0  0  0  0  0
    4.7633    6.1738    2.8210 Cl  0  0  0  0  0  0  0  0  0  0  0  0
    4.5018    3.6722    1.8707 C   0  0  0  0  0  0  0  0  0  0  0  0
    4.0424    2.7299    0.9514 C   0  0  0  0  0  0  0  0  0  0  0  0
    4.6903    0.4162   -1.4253 C   0  0  0  0  0  0  0  0  0  0  0  0
    5.6079    1.4737   -1.5622 C   0  0  0  0  0  0  0  0  0  0  0  0
    6.9791    1.2559   -1.7214 C   0  0  0  0  0  0  0  0  0  0  0  0
    7.4759   -0.0405   -1.7679 C   0  0  0  0  0  0  0  0  0  0  0  0
    6.5885   -1.1136   -1.7172 C   0  0  0  0  0  0  0  0  0  0  0  0
    7.0797   -2.4530   -1.7484 C   0  0  0  0  0  0  0  0  0  0  0  0
    7.4781   -3.5473   -1.7463 N   0  0  0  0  0  0  0  0  0  0  0  0
    5.2092   -0.8772   -1.5986 C   0  0  0  0  0  0  0  0  0  0  0  0
    3.9125   -1.7367    0.4913 H   0  0  0  0  0  0  0  0  0  0  0  0
    2.5789   -2.1535   -0.6289 H   0  0  0  0  0  0  0  0  0  0  0  0
    2.3073   -1.9885    1.1094 H   0  0  0  0  0  0  0  0  0  0  0  0
    2.9584    0.3659    0.9924 H   0  0  0  0  0  0  0  0  0  0  0  0
    0.7929    0.0843    1.2120 H   0  0  0  0  0  0  0  0  0  0  0  0
   -1.4361    0.8511    1.6672 H   0  0  0  0  0  0  0  0  0  0  0  0
   -0.9074   -0.8077    1.8457 H   0  0  0  0  0  0  0  0  0  0  0  0
   -2.6013   -0.4788    1.5239 H   0  0  0  0  0  0  0  0  0  0  0  0
   -1.5527    1.9376   -0.6348 H   0  0  0  0  0  0  0  0  0  0  0  0
   -3.0957    1.0933   -0.4254 H   0  0  0  0  0  0  0  0  0  0  0  0
   -2.1960    0.9241   -1.9330 H   0  0  0  0  0  0  0  0  0  0  0  0
   -1.8464   -1.4146   -1.8487 H   0  0  0  0  0  0  0  0  0  0  0  0
   -2.8021   -3.8331   -1.5799 H   0  0  0  0  0  0  0  0  0  0  0  0
   -1.9177   -5.9748   -0.6422 H   0  0  0  0  0  0  0  0  0  0  0  0
    0.8106   -3.9082    1.6355 H   0  0  0  0  0  0  0  0  0  0  0  0
    2.7254    0.1771   -2.0657 H   0  0  0  0  0  0  0  0  0  0  0  0
    1.6376    2.1753   -1.2176 H   0  0  0  0  0  0  0  0  0  0  0  0
    3.0467    2.5539   -2.1668 H   0  0  0  0  0  0  0  0  0  0  0  0
    2.1704    4.7618   -1.0290 H   0  0  0  0  0  0  0  0  0  0  0  0
    3.0096    6.4327    0.5781 H   0  0  0  0  0  0  0  0  0  0  0  0
    5.1680    3.3564    2.6696 H   0  0  0  0  0  0  0  0  0  0  0  0
    4.4206    1.7204    1.0696 H   0  0  0  0  0  0  0  0  0  0  0  0
    5.2907    2.5155   -1.5486 H   0  0  0  0  0  0  0  0  0  0  0  0
    7.6561    2.1032   -1.7962 H   0  0  0  0  0  0  0  0  0  0  0  0
    8.5462   -0.2064   -1.8566 H   0  0  0  0  0  0  0  0  0  0  0  0
    4.5439   -1.7351   -1.6381 H   0  0  0  0  0  0  0  0  0  0  0  0
  1 33  1  0  0  0  0
  1 34  1  0  0  0  0
  1 35  1  0  0  0  0
  2 16  1  0  0  0  0
  2  3  1  0  0  0  0
  2  1  1  0  0  0  0
  2 36  1  1  0  0  0
  3  4  1  0  0  0  0
  3 37  1  0  0  0  0
  4  5  2  0  0  0  0
  4  6  1  0  0  0  0
  6  7  1  0  0  0  0
  6  8  1  0  0  0  0
  6  9  1  0  0  0  0
  7 38  1  0  0  0  0
  7 39  1  0  0  0  0
  7 40  1  0  0  0  0
  8 41  1  0  0  0  0
  8 42  1  0  0  0  0
  8 43  1  0  0  0  0
  9 10  1  0  0  0  0
  9 44  1  0  0  0  0
 10 15  2  0  0  0  0
 10 11  1  0  0  0  0
 11 12  2  0  0  0  0
 11 45  1  0  0  0  0
 12 13  1  0  0  0  0
 12 46  1  0  0  0  0
 13 14  2  0  0  0  0
 14 15  1  0  0  0  0
 14 47  1  0  0  0  0
 16 17  1  0  0  0  0
 16 25  1  0  0  0  0
 16 48  1  6  0  0  0
 17 18  1  0  0  0  0
 17 49  1  0  0  0  0
 17 50  1  0  0  0  0
 18 24  2  0  0  0  0
 18 19  1  0  0  0  0
 19 20  2  0  0  0  0
 19 51  1  0  0  0  0
 20 21  1  0  0  0  0
 20 52  1  0  0  0  0
 21 22  1  0  0  0  0
 21 23  2  0  0  0  0
 23 24  1  0  0  0  0
 23 53  1  0  0  0  0
 24 54  1  0  0  0  0
 25 32  2  0  0  0  0
 25 26  1  0  0  0  0
 26 27  2  0  0  0  0
 26 55  1  0  0  0  0
 27 28  1  0  0  0  0
 27 56  1  0  0  0  0
 28 29  2  0  0  0  0
 28 57  1  0  0  0  0
 29 30  1  0  0  0  0
 29 32  1  0  0  0  0
 30 31  3  0  0  0  0
 32 58  1  0  0  0  0
M  END
$$$$
CHEMBL572097	5U09	best_smi
 OpenBabel12022417383D

 65 68  0  0  1  0  0  0  0  0999 V2000
    3.1157   -1.5000    0.8673 C   0  0  0  0  0  0  0  0  0  0  0  0
    2.5209   -0.2005    0.2760 C   0  0  2  0  0  0  0  0  0  0  0  0
    1.0431   -0.2293    0.3308 N   0  0  0  0  0  0  0  0  0  0  0  0
    0.3090   -0.6259    1.4412 C   0  0  0  0  0  0  0  0  0  0  0  0
    0.8491   -1.0355    2.4691 O   0  0  0  0  0  0  0  0  0  0  0  0
   -1.2520   -0.4337    1.3773 C   0  0  0  0  0  0  0  0  0  0  0  0
   -1.7582   -0.3208   -0.0693 C   0  0  0  0  0  0  0  0  0  0  0  0
   -1.8463   -1.6858    2.0602 C   0  0  0  0  0  0  0  0  0  0  0  0
   -1.5425    0.8002    2.1508 N   0  0  0  0  0  0  0  0  0  0  0  0
   -2.8481    1.2063    2.3926 C   0  0  0  0  0  0  0  0  0  0  0  0
   -3.0854    2.3119    3.2025 C   0  0  0  0  0  0  0  0  0  0  0  0
   -4.4070    2.6583    3.5491 C   0  0  0  0  0  0  0  0  0  0  0  0
   -4.7112    3.7549    4.3707 C   0  0  0  0  0  0  0  0  0  0  0  0
   -6.0374    4.0322    4.7199 C   0  0  0  0  0  0  0  0  0  0  0  0
   -7.0717    3.2183    4.2587 C   0  0  0  0  0  0  0  0  0  0  0  0
   -6.7855    2.1350    3.4336 C   0  0  0  0  0  0  0  0  0  0  0  0
   -5.4593    1.8586    3.0744 C   0  0  0  0  0  0  0  0  0  0  0  0
   -5.1261    0.7924    2.2577 C   0  0  0  0  0  0  0  0  0  0  0  0
   -3.8629    0.4700    1.9111 N   0  0  0  0  0  0  0  0  0  0  0  0
    3.0375   -0.0043   -1.2006 C   0  0  1  0  0  0  0  0  0  0  0  0
    2.5171    1.2467   -1.9580 C   0  0  0  0  0  0  0  0  0  0  0  0
    2.9192    2.6096   -1.4424 C   0  0  0  0  0  0  0  0  0  0  0  0
    2.0977    3.2966   -0.5390 C   0  0  0  0  0  0  0  0  0  0  0  0
    2.4225    4.5932   -0.1315 C   0  0  0  0  0  0  0  0  0  0  0  0
    3.5711    5.2091   -0.6215 C   0  0  0  0  0  0  0  0  0  0  0  0
    3.9484    6.8183   -0.1436 Cl  0  0  0  0  0  0  0  0  0  0  0  0
    4.4074    4.5350   -1.5070 C   0  0  0  0  0  0  0  0  0  0  0  0
    4.0825    3.2386   -1.9152 C   0  0  0  0  0  0  0  0  0  0  0  0
    4.5537   -0.1245   -1.3654 C   0  0  0  0  0  0  0  0  0  0  0  0
    5.4496    0.3443   -0.3915 C   0  0  0  0  0  0  0  0  0  0  0  0
    6.8194    0.1086   -0.5086 C   0  0  0  0  0  0  0  0  0  0  0  0
    7.3219   -0.5463   -1.6295 C   0  0  0  0  0  0  0  0  0  0  0  0
    6.4531   -0.9641   -2.6407 C   0  0  0  0  0  0  0  0  0  0  0  0
    6.9684   -1.6154   -3.8066 C   0  0  0  0  0  0  0  0  0  0  0  0
    7.3800   -2.1373   -4.7571 N   0  0  0  0  0  0  0  0  0  0  0  0
    5.0754   -0.7565   -2.5069 C   0  0  0  0  0  0  0  0  0  0  0  0
    4.2013   -1.5603    0.7783 H   0  0  0  0  0  0  0  0  0  0  0  0
    2.6897   -2.3816    0.3779 H   0  0  0  0  0  0  0  0  0  0  0  0
    2.9340   -1.5831    1.9407 H   0  0  0  0  0  0  0  0  0  0  0  0
    2.8291    0.6472    0.8989 H   0  0  0  0  0  0  0  0  0  0  0  0
    0.5530    0.3069   -0.3675 H   0  0  0  0  0  0  0  0  0  0  0  0
   -1.3778   -1.1410   -0.6876 H   0  0  0  0  0  0  0  0  0  0  0  0
   -1.4497    0.6263   -0.5272 H   0  0  0  0  0  0  0  0  0  0  0  0
   -2.8491   -0.3535   -0.1394 H   0  0  0  0  0  0  0  0  0  0  0  0
   -1.4606   -2.6016    1.5964 H   0  0  0  0  0  0  0  0  0  0  0  0
   -2.9362   -1.7395    1.9888 H   0  0  0  0  0  0  0  0  0  0  0  0
   -1.5908   -1.7233    3.1261 H   0  0  0  0  0  0  0  0  0  0  0  0
   -0.9217    1.5725    1.9489 H   0  0  0  0  0  0  0  0  0  0  0  0
   -2.2515    2.8811    3.5988 H   0  0  0  0  0  0  0  0  0  0  0  0
   -3.9208    4.3987    4.7466 H   0  0  0  0  0  0  0  0  0  0  0  0
   -6.2606    4.8808    5.3610 H   0  0  0  0  0  0  0  0  0  0  0  0
   -8.0986    3.4261    4.5451 H   0  0  0  0  0  0  0  0  0  0  0  0
   -7.5980    1.5026    3.0814 H   0  0  0  0  0  0  0  0  0  0  0  0
   -5.8822    0.1259    1.8509 H   0  0  0  0  0  0  0  0  0  0  0  0
    2.6081   -0.8580   -1.7503 H   0  0  0  0  0  0  0  0  0  0  0  0
    1.4226    1.2137   -2.0271 H   0  0  0  0  0  0  0  0  0  0  0  0
    2.8423    1.1843   -3.0077 H   0  0  0  0  0  0  0  0  0  0  0  0
    1.1840    2.8429   -0.1655 H   0  0  0  0  0  0  0  0  0  0  0  0
    1.7669    5.1230    0.5545 H   0  0  0  0  0  0  0  0  0  0  0  0
    5.3026    5.0150   -1.8932 H   0  0  0  0  0  0  0  0  0  0  0  0
    4.7351    2.7337   -2.6260 H   0  0  0  0  0  0  0  0  0  0  0  0
    5.0892    0.8559    0.4992 H   0  0  0  0  0  0  0  0  0  0  0  0
    7.4903    0.4237    0.2876 H   0  0  0  0  0  0  0  0  0  0  0  0
    8.3912   -0.7331   -1.7056 H   0  0  0  0  0  0  0  0  0  0  0  0
    4.4029   -1.1061   -3.2901 H   0  0  0  0  0  0  0  0  0  0  0  0
  1 37  1  0  0  0  0
  1 38  1  0  0  0  0
  1 39  1  0  0  0  0
  2 20  1  0  0  0  0
  2  3  1  0  0  0  0
  2  1  1  0  0  0  0
  2 40  1  1  0  0  0
  3  4  1  0  0  0  0
  3 41  1  0  0  0  0
  4  5  2  0  0  0  0
  4  6  1  0  0  0  0
  6  7  1  0  0  0  0
  6  8  1  0  0  0  0
  6  9  1  0  0  0  0
  7 42  1  0  0  0  0
  7 43  1  0  0  0  0
  7 44  1  0  0  0  0
  8 45  1  0  0  0  0
  8 46  1  0  0  0  0
  8 47  1  0  0  0  0
  9 10  1  0  0  0  0
  9 48  1  0  0  0  0
 10 19  2  0  0  0  0
 10 11  1  0  0  0  0
 11 12  2  0  0  0  0
 11 49  1  0  0  0  0
 12 17  1  0  0  0  0
 12 13  1  0  0  0  0
 13 14  2  0  0  0  0
 13 50  1  0  0  0  0
 14 15  1  0  0  0  0
 14 51  1  0  0  0  0
 15 16  2  0  0  0  0
 15 52  1  0  0  0  0
 16 17  1  0  0  0  0
 16 53  1  0  0  0  0
 17 18  2  0  0  0  0
 18 19  1  0  0  0  0
 18 54  1  0  0  0  0
 20 21  1  0  0  0  0
 20 29  1  0  0  0  0
 20 55  1  6  0  0  0
 21 22  1  0  0  0  0
 21 56  1  0  0  0  0
 21 57  1  0  0  0  0
 22 28  2  0  0  0  0
 22 23  1  0  0  0  0
 23 24  2  0  0  0  0
 23 58  1  0  0  0  0
 24 25  1  0  0  0  0
 24 59  1  0  0  0  0
 25 26  1  0  0  0  0
 25 27  2  0  0  0  0
 27 28  1  0  0  0  0
 27 60  1  0  0  0  0
 28 61  1  0  0  0  0
 29 36  2  0  0  0  0
 29 30  1  0  0  0  0
 30 31  2  0  0  0  0
 30 62  1  0  0  0  0
 31 32  1  0  0  0  0
 31 63  1  0  0  0  0
 32 33  2  0  0  0  0
 32 64  1  0  0  0  0
 33 34  1  0  0  0  0
 33 36  1  0  0  0  0
 34 35  3  0  0  0  0
 36 65  1  0  0  0  0
M  END
$$$$
CHEMBL376794	5U09	best_smi
 OpenBabel12022417383D

 68 70  0  0  1  0  0  0  0  0999 V2000
    2.7977   -0.1188   -1.5590 C   0  0  0  0  0  0  0  0  0  0  0  0
    2.2714    0.1455   -0.1393 C   0  0  2  0  0  0  0  0  0  0  0  0
    0.8001    0.3000   -0.2402 N   0  0  0  0  0  0  0  0  0  0  0  0
    0.1042    1.4790   -0.4741 C   0  0  0  0  0  0  0  0  0  0  0  0
    0.6781    2.5637   -0.5706 O   0  0  0  0  0  0  0  0  0  0  0  0
   -1.4592    1.3653   -0.6080 C   0  0  0  0  0  0  0  0  0  0  0  0
   -1.9541    0.1031    0.1256 C   0  0  0  0  0  0  0  0  0  0  0  0
   -2.0547    2.6077    0.0836 C   0  0  0  0  0  0  0  0  0  0  0  0
   -1.7043    1.4173   -2.0377 O   0  0  0  0  0  0  0  0  0  0  0  0
   -3.0109    1.3471   -2.4629 C   0  0  0  0  0  0  0  0  0  0  0  0
   -3.4248    2.1386   -3.5289 C   0  0  0  0  0  0  0  0  0  0  0  0
   -4.7446    2.0011   -3.9991 C   0  0  0  0  0  0  0  0  0  0  0  0
   -5.3077    2.8255   -5.1275 C   0  0  0  0  0  0  0  0  0  0  0  0
   -4.4434    3.7462   -5.6296 F   0  0  0  0  0  0  0  0  0  0  0  0
   -5.6976    2.0568   -6.1827 F   0  0  0  0  0  0  0  0  0  0  0  0
   -6.4194    3.5189   -4.7502 F   0  0  0  0  0  0  0  0  0  0  0  0
   -5.5768    1.0529   -3.3932 C   0  0  0  0  0  0  0  0  0  0  0  0
   -5.0629    0.2943   -2.3603 C   0  0  0  0  0  0  0  0  0  0  0  0
   -3.8060    0.4187   -1.9021 N   0  0  0  0  0  0  0  0  0  0  0  0
    3.0333    1.2884    0.6196 C   0  0  1  0  0  0  0  0  0  0  0  0
    2.4662    1.6052    2.0386 C   0  0  0  0  0  0  0  0  0  0  0  0
    2.6005    0.5534    3.1206 C   0  0  0  0  0  0  0  0  0  0  0  0
    1.5300   -0.3049    3.4014 C   0  0  0  0  0  0  0  0  0  0  0  0
    1.6395   -1.2742    4.4003 C   0  0  0  0  0  0  0  0  0  0  0  0
    2.8356   -1.4293    5.1016 C   0  0  0  0  0  0  0  0  0  0  0  0
    3.0735   -2.4586    5.9775 O   0  0  0  0  0  0  0  0  0  0  0  0
    2.4665   -3.6896    5.5608 C   0  0  0  0  0  0  0  0  0  0  0  0
    3.3033   -4.8753    5.9991 C   0  0  0  0  0  0  0  0  0  0  0  0
    2.7273   -6.0139    5.5221 F   0  0  0  0  0  0  0  0  0  0  0  0
    3.8716   -0.5210    4.9017 C   0  0  0  0  0  0  0  0  0  0  0  0
    3.7562    0.4611    3.9103 C   0  0  0  0  0  0  0  0  0  0  0  0
    4.5629    1.2041    0.6681 C   0  0  0  0  0  0  0  0  0  0  0  0
    5.2802   -0.0007    0.6919 C   0  0  0  0  0  0  0  0  0  0  0  0
    6.6787    0.0040    0.7161 C   0  0  0  0  0  0  0  0  0  0  0  0
    7.3830    1.2093    0.7521 C   0  0  0  0  0  0  0  0  0  0  0  0
    6.6902    2.4198    0.7619 C   0  0  0  0  0  0  0  0  0  0  0  0
    7.4006    3.6602    0.8249 C   0  0  0  0  0  0  0  0  0  0  0  0
    7.9756    4.6720    0.8936 N   0  0  0  0  0  0  0  0  0  0  0  0
    5.2908    2.4124    0.7124 C   0  0  0  0  0  0  0  0  0  0  0  0
    3.8821   -0.2400   -1.6018 H   0  0  0  0  0  0  0  0  0  0  0  0
    2.5130    0.6791   -2.2509 H   0  0  0  0  0  0  0  0  0  0  0  0
    2.3640   -1.0516   -1.9446 H   0  0  0  0  0  0  0  0  0  0  0  0
    2.4066   -0.7836    0.4278 H   0  0  0  0  0  0  0  0  0  0  0  0
    0.3221   -0.5491   -0.5121 H   0  0  0  0  0  0  0  0  0  0  0  0
   -1.5311    0.0447    1.1354 H   0  0  0  0  0  0  0  0  0  0  0  0
   -1.6929   -0.8104   -0.4189 H   0  0  0  0  0  0  0  0  0  0  0  0
   -3.0391    0.0922    0.2610 H   0  0  0  0  0  0  0  0  0  0  0  0
   -1.7798    2.6348    1.1442 H   0  0  0  0  0  0  0  0  0  0  0  0
   -3.1481    2.6196    0.0185 H   0  0  0  0  0  0  0  0  0  0  0  0
   -1.7022    3.5361   -0.3803 H   0  0  0  0  0  0  0  0  0  0  0  0
   -2.7394    2.8509   -3.9833 H   0  0  0  0  0  0  0  0  0  0  0  0
   -6.6021    0.9074   -3.7205 H   0  0  0  0  0  0  0  0  0  0  0  0
   -5.6667   -0.4586   -1.8635 H   0  0  0  0  0  0  0  0  0  0  0  0
    2.8530    2.1902    0.0213 H   0  0  0  0  0  0  0  0  0  0  0  0
    1.4055    1.8687    1.9562 H   0  0  0  0  0  0  0  0  0  0  0  0
    2.9392    2.5220    2.4165 H   0  0  0  0  0  0  0  0  0  0  0  0
    0.5981   -0.2213    2.8492 H   0  0  0  0  0  0  0  0  0  0  0  0
    0.7837   -1.9088    4.6091 H   0  0  0  0  0  0  0  0  0  0  0  0
    2.3717   -3.7505    4.4688 H   0  0  0  0  0  0  0  0  0  0  0  0
    1.4644   -3.7641    5.9977 H   0  0  0  0  0  0  0  0  0  0  0  0
    3.3672   -4.9485    7.0871 H   0  0  0  0  0  0  0  0  0  0  0  0
    4.3195   -4.8133    5.5981 H   0  0  0  0  0  0  0  0  0  0  0  0
    4.7796   -0.5892    5.4949 H   0  0  0  0  0  0  0  0  0  0  0  0
    4.5842    1.1515    3.7577 H   0  0  0  0  0  0  0  0  0  0  0  0
    4.7667   -0.9593    0.6824 H   0  0  0  0  0  0  0  0  0  0  0  0
    7.2242   -0.9377    0.7069 H   0  0  0  0  0  0  0  0  0  0  0  0
    8.4708    1.1956    0.7749 H   0  0  0  0  0  0  0  0  0  0  0  0
    4.7535    3.3610    0.7090 H   0  0  0  0  0  0  0  0  0  0  0  0
  1 40  1  0  0  0  0
  1 41  1  0  0  0  0
  1 42  1  0  0  0  0
  2 20  1  0  0  0  0
  2  3  1  0  0  0  0
  2  1  1  0  0  0  0
  2 43  1  1  0  0  0
  3  4  1  0  0  0  0
  3 44  1  0  0  0  0
  4  5  2  0  0  0  0
  4  6  1  0  0  0  0
  6  7  1  0  0  0  0
  6  8  1  0  0  0  0
  6  9  1  0  0  0  0
  7 45  1  0  0  0  0
  7 46  1  0  0  0  0
  7 47  1  0  0  0  0
  8 48  1  0  0  0  0
  8 49  1  0  0  0  0
  8 50  1  0  0  0  0
  9 10  1  0  0  0  0
 10 19  2  0  0  0  0
 10 11  1  0  0  0  0
 11 12  2  0  0  0  0
 11 51  1  0  0  0  0
 12 13  1  0  0  0  0
 12 17  1  0  0  0  0
 13 14  1  0  0  0  0
 13 15  1  0  0  0  0
 13 16  1  0  0  0  0
 17 18  2  0  0  0  0
 17 52  1  0  0  0  0
 18 19  1  0  0  0  0
 18 53  1  0  0  0  0
 20 21  1  0  0  0  0
 20 32  1  0  0  0  0
 20 54  1  6  0  0  0
 21 22  1  0  0  0  0
 21 55  1  0  0  0  0
 21 56  1  0  0  0  0
 22 31  2  0  0  0  0
 22 23  1  0  0  0  0
 23 24  2  0  0  0  0
 23 57  1  0  0  0  0
 24 25  1  0  0  0  0
 24 58  1  0  0  0  0
 25 26  1  0  0  0  0
 25 30  2  0  0  0  0
 26 27  1  0  0  0  0
 27 28  1  0  0  0  0
 27 59  1  0  0  0  0
 27 60  1  0  0  0  0
 28 29  1  0  0  0  0
 28 61  1  0  0  0  0
 28 62  1  0  0  0  0
 30 31  1  0  0  0  0
 30 63  1  0  0  0  0
 31 64  1  0  0  0  0
 32 39  2  0  0  0  0
 32 33  1  0  0  0  0
 33 34  2  0  0  0  0
 33 65  1  0  0  0  0
 34 35  1  0  0  0  0
 34 66  1  0  0  0  0
 35 36  2  0  0  0  0
 35 67  1  0  0  0  0
 36 37  1  0  0  0  0
 36 39  1  0  0  0  0
 37 38  3  0  0  0  0
 39 68  1  0  0  0  0
M  END
$$$$
CHEMBL226685	5U09	best_smi
 OpenBabel12022417383D

 65 67  0  0  1  0  0  0  0  0999 V2000
    3.0049    0.4433   -1.6337 C   0  0  0  0  0  0  0  0  0  0  0  0
    2.4164    0.1350   -0.2592 C   0  0  2  0  0  0  0  0  0  0  0  0
    0.9503    0.0449   -0.3858 N   0  0  0  0  0  0  0  0  0  0  0  0
    0.0387    1.0603   -0.1946 C   0  0  0  0  0  0  0  0  0  0  0  0
    0.4058    2.1969    0.1033 O   0  0  0  0  0  0  0  0  0  0  0  0
   -1.4756    0.6854   -0.3720 C   0  0  0  0  0  0  0  0  0  0  0  0
   -1.7360   -0.8082   -0.0919 C   0  0  0  0  0  0  0  0  0  0  0  0
   -2.2250    1.5673    0.6493 C   0  0  0  0  0  0  0  0  0  0  0  0
   -1.7536    0.9980   -1.7566 O   0  0  0  0  0  0  0  0  0  0  0  0
   -3.0503    0.8397   -2.1969 C   0  0  0  0  0  0  0  0  0  0  0  0
   -3.2591    0.7321   -3.5618 C   0  0  0  0  0  0  0  0  0  0  0  0
   -4.5660    0.5499   -4.0224 C   0  0  0  0  0  0  0  0  0  0  0  0
   -5.6243    0.5009   -3.1097 C   0  0  0  0  0  0  0  0  0  0  0  0
   -7.0548    0.3027   -3.4995 C   0  0  0  0  0  0  0  0  0  0  0  0
   -7.2401    0.1532   -4.8390 F   0  0  0  0  0  0  0  0  0  0  0  0
   -7.5995   -0.8038   -2.9210 F   0  0  0  0  0  0  0  0  0  0  0  0
   -7.8464    1.3446   -3.1239 F   0  0  0  0  0  0  0  0  0  0  0  0
   -5.3115    0.6416   -1.7691 C   0  0  0  0  0  0  0  0  0  0  0  0
   -4.0549    0.8023   -1.3051 N   0  0  0  0  0  0  0  0  0  0  0  0
    2.9786    0.9773    0.9818 C   0  0  1  0  0  0  0  0  0  0  0  0
    2.2794    0.5101    2.3107 C   0  0  0  0  0  0  0  0  0  0  0  0
    2.5601   -0.8973    2.8291 C   0  0  0  0  0  0  0  0  0  0  0  0
    2.0756   -1.2769    4.0889 C   0  0  0  0  0  0  0  0  0  0  0  0
    2.3252   -2.5614    4.5921 C   0  0  0  0  0  0  0  0  0  0  0  0
    3.0335   -3.4941    3.8337 C   0  0  0  0  0  0  0  0  0  0  0  0
    3.1780   -4.7491    4.3583 O   0  0  0  0  0  0  0  0  0  0  0  0
    3.2108   -5.7717    3.3659 C   0  0  0  0  0  0  0  0  0  0  0  0
    3.1523   -6.9618    4.0197 F   0  0  0  0  0  0  0  0  0  0  0  0
    3.5847   -3.1070    2.6254 C   0  0  0  0  0  0  0  0  0  0  0  0
    3.3554   -1.8238    2.1416 C   0  0  0  0  0  0  0  0  0  0  0  0
    4.5225    1.0801    1.1476 C   0  0  0  0  0  0  0  0  0  0  0  0
    5.1958    0.7256    2.3368 C   0  0  0  0  0  0  0  0  0  0  0  0
    6.5838    0.7000    2.4245 C   0  0  0  0  0  0  0  0  0  0  0  0
    7.1639    0.2756    3.5517 F   0  0  0  0  0  0  0  0  0  0  0  0
    7.3686    1.0860    1.3554 C   0  0  0  0  0  0  0  0  0  0  0  0
    6.7364    1.5598    0.2120 C   0  0  0  0  0  0  0  0  0  0  0  0
    7.5292    1.9974   -0.8988 C   0  0  0  0  0  0  0  0  0  0  0  0
    8.1734    2.3405   -1.8087 N   0  0  0  0  0  0  0  0  0  0  0  0
    5.3319    1.5840    0.1190 C   0  0  0  0  0  0  0  0  0  0  0  0
    4.0631    0.1691   -1.6773 H   0  0  0  0  0  0  0  0  0  0  0  0
    2.8769    1.4920   -1.9100 H   0  0  0  0  0  0  0  0  0  0  0  0
    2.5173   -0.1669   -2.4045 H   0  0  0  0  0  0  0  0  0  0  0  0
    2.6749   -0.9121   -0.1117 H   0  0  0  0  0  0  0  0  0  0  0  0
    0.6215   -0.7676   -0.8887 H   0  0  0  0  0  0  0  0  0  0  0  0
   -1.3980   -1.0968    0.9077 H   0  0  0  0  0  0  0  0  0  0  0  0
   -1.2414   -1.4496   -0.8302 H   0  0  0  0  0  0  0  0  0  0  0  0
   -2.7982   -1.0624   -0.1692 H   0  0  0  0  0  0  0  0  0  0  0  0
   -1.7222    1.5549    1.6237 H   0  0  0  0  0  0  0  0  0  0  0  0
   -3.2440    1.2189    0.8427 H   0  0  0  0  0  0  0  0  0  0  0  0
   -2.2908    2.6050    0.3052 H   0  0  0  0  0  0  0  0  0  0  0  0
   -2.4249    0.7730   -4.2538 H   0  0  0  0  0  0  0  0  0  0  0  0
   -4.7527    0.4455   -5.0894 H   0  0  0  0  0  0  0  0  0  0  0  0
   -6.0796    0.6243   -0.9987 H   0  0  0  0  0  0  0  0  0  0  0  0
    2.6688    2.0195    0.8289 H   0  0  0  0  0  0  0  0  0  0  0  0
    1.1914    0.6070    2.2097 H   0  0  0  0  0  0  0  0  0  0  0  0
    2.5534    1.2225    3.1034 H   0  0  0  0  0  0  0  0  0  0  0  0
    1.5183   -0.5689    4.7001 H   0  0  0  0  0  0  0  0  0  0  0  0
    1.9559   -2.8365    5.5769 H   0  0  0  0  0  0  0  0  0  0  0  0
    4.1459   -5.7605    2.7969 H   0  0  0  0  0  0  0  0  0  0  0  0
    2.3427   -5.7120    2.6989 H   0  0  0  0  0  0  0  0  0  0  0  0
    4.2252   -3.7528    2.0356 H   0  0  0  0  0  0  0  0  0  0  0  0
    3.8827   -1.5729    1.2292 H   0  0  0  0  0  0  0  0  0  0  0  0
    4.6746    0.4254    3.2421 H   0  0  0  0  0  0  0  0  0  0  0  0
    8.4492    1.0335    1.4409 H   0  0  0  0  0  0  0  0  0  0  0  0
    4.8838    2.0067   -0.7761 H   0  0  0  0  0  0  0  0  0  0  0  0
  1 40  1  0  0  0  0
  1 41  1  0  0  0  0
  1 42  1  0  0  0  0
  2 20  1  0  0  0  0
  2  3  1  0  0  0  0
  2  1  1  0  0  0  0
  2 43  1  1  0  0  0
  3  4  1  0  0  0  0
  3 44  1  0  0  0  0
  4  5  2  0  0  0  0
  4  6  1  0  0  0  0
  6  7  1  0  0  0  0
  6  8  1  0  0  0  0
  6  9  1  0  0  0  0
  7 45  1  0  0  0  0
  7 46  1  0  0  0  0
  7 47  1  0  0  0  0
  8 48  1  0  0  0  0
  8 49  1  0  0  0  0
  8 50  1  0  0  0  0
  9 10  1  0  0  0  0
 10 19  2  0  0  0  0
 10 11  1  0  0  0  0
 11 12  2  0  0  0  0
 11 51  1  0  0  0  0
 12 13  1  0  0  0  0
 12 52  1  0  0  0  0
 13 14  1  0  0  0  0
 13 18  2  0  0  0  0
 14 15  1  0  0  0  0
 14 16  1  0  0  0  0
 14 17  1  0  0  0  0
 18 19  1  0  0  0  0
 18 53  1  0  0  0  0
 20 21  1  0  0  0  0
 20 31  1  0  0  0  0
 20 54  1  6  0  0  0
 21 22  1  0  0  0  0
 21 55  1  0  0  0  0
 21 56  1  0  0  0  0
 22 30  2  0  0  0  0
 22 23  1  0  0  0  0
 23 24  2  0  0  0  0
 23 57  1  0  0  0  0
 24 25  1  0  0  0  0
 24 58  1  0  0  0  0
 25 26  1  0  0  0  0
 25 29  2  0  0  0  0
 26 27  1  0  0  0  0
 27 28  1  0  0  0  0
 27 59  1  0  0  0  0
 27 60  1  0  0  0  0
 29 30  1  0  0  0  0
 29 61  1  0  0  0  0
 30 62  1  0  0  0  0
 31 39  2  0  0  0  0
 31 32  1  0  0  0  0
 32 33  2  0  0  0  0
 32 63  1  0  0  0  0
 33 34  1  0  0  0  0
 33 35  1  0  0  0  0
 35 36  2  0  0  0  0
 35 64  1  0  0  0  0
 36 37  1  0  0  0  0
 36 39  1  0  0  0  0
 37 38  3  0  0  0  0
 39 65  1  0  0  0  0
M  END
$$$$
CHEMBL387027	5U09	best_smi
 OpenBabel12022417383D

 57 59  0  0  1  0  0  0  0  0999 V2000
    2.9953    1.4603   -0.6429 C   0  0  0  0  0  0  0  0  0  0  0  0
    2.5766    0.0604   -0.1736 C   0  0  2  0  0  0  0  0  0  0  0  0
    1.0967   -0.0118   -0.2479 N   0  0  0  0  0  0  0  0  0  0  0  0
    0.4162    0.0061   -1.4629 C   0  0  0  0  0  0  0  0  0  0  0  0
    1.0274    0.0988   -2.5291 O   0  0  0  0  0  0  0  0  0  0  0  0
   -1.1481   -0.1550   -1.4106 C   0  0  0  0  0  0  0  0  0  0  0  0
   -1.5776   -0.5478   -2.8436 C   0  0  0  0  0  0  0  0  0  0  0  0
   -1.4346   -1.2844   -0.4025 C   0  0  0  0  0  0  0  0  0  0  0  0
   -1.7449    1.1122   -1.0385 O   0  0  0  0  0  0  0  0  0  0  0  0
   -3.1299    1.1598   -1.0384 C   0  0  0  0  0  0  0  0  0  0  0  0
   -3.7580    2.3726   -1.2942 C   0  0  0  0  0  0  0  0  0  0  0  0
   -5.1592    2.4174   -1.2940 C   0  0  0  0  0  0  0  0  0  0  0  0
   -5.8808    1.2592   -1.0275 C   0  0  0  0  0  0  0  0  0  0  0  0
   -7.5960    1.2554   -1.0287 Cl  0  0  0  0  0  0  0  0  0  0  0  0
   -5.1726    0.1035   -0.7623 C   0  0  0  0  0  0  0  0  0  0  0  0
   -3.8203    0.0391   -0.7533 N   0  0  0  0  0  0  0  0  0  0  0  0
    3.1309   -0.3636    1.2626 C   0  0  1  0  0  0  0  0  0  0  0  0
    2.5935   -1.7899    1.7127 C   0  0  0  0  0  0  0  0  0  0  0  0
    3.0765   -3.0458    0.9986 C   0  0  0  0  0  0  0  0  0  0  0  0
    2.8154   -3.2707   -0.3570 C   0  0  0  0  0  0  0  0  0  0  0  0
    3.3924   -4.3535   -1.0286 C   0  0  0  0  0  0  0  0  0  0  0  0
    4.2154   -5.2428   -0.3452 C   0  0  0  0  0  0  0  0  0  0  0  0
    4.9927   -6.5216   -1.1933 Cl  0  0  0  0  0  0  0  0  0  0  0  0
    4.4099   -5.0977    1.0233 C   0  0  0  0  0  0  0  0  0  0  0  0
    3.8116   -4.0266    1.6949 C   0  0  0  0  0  0  0  0  0  0  0  0
    4.6416   -0.1205    1.5139 C   0  0  0  0  0  0  0  0  0  0  0  0
    5.5382   -1.1233    1.9088 C   0  0  0  0  0  0  0  0  0  0  0  0
    6.9098   -0.8888    2.0852 C   0  0  0  0  0  0  0  0  0  0  0  0
    7.4271    0.3793    1.8874 C   0  0  0  0  0  0  0  0  0  0  0  0
    6.5610    1.4123    1.5763 C   0  0  0  0  0  0  0  0  0  0  0  0
    5.1824    1.1711    1.4419 C   0  0  0  0  0  0  0  0  0  0  0  0
    4.0674    1.5058   -0.8505 H   0  0  0  0  0  0  0  0  0  0  0  0
    2.7137    2.2214    0.0911 H   0  0  0  0  0  0  0  0  0  0  0  0
    2.5128    1.7457   -1.5822 H   0  0  0  0  0  0  0  0  0  0  0  0
    2.9798   -0.6302   -0.9205 H   0  0  0  0  0  0  0  0  0  0  0  0
    0.5568    0.1394    0.5951 H   0  0  0  0  0  0  0  0  0  0  0  0
   -1.0656   -1.4605   -3.1714 H   0  0  0  0  0  0  0  0  0  0  0  0
   -1.3379    0.2513   -3.5544 H   0  0  0  0  0  0  0  0  0  0  0  0
   -2.6531   -0.7240   -2.9303 H   0  0  0  0  0  0  0  0  0  0  0  0
   -0.6703   -2.0678   -0.4422 H   0  0  0  0  0  0  0  0  0  0  0  0
   -2.3854   -1.7878   -0.5976 H   0  0  0  0  0  0  0  0  0  0  0  0
   -1.4764   -0.8891    0.6192 H   0  0  0  0  0  0  0  0  0  0  0  0
   -3.1820    3.2657   -1.5101 H   0  0  0  0  0  0  0  0  0  0  0  0
   -5.6799    3.3476   -1.5062 H   0  0  0  0  0  0  0  0  0  0  0  0
   -5.6743   -0.8356   -0.5475 H   0  0  0  0  0  0  0  0  0  0  0  0
    2.6367    0.3218    1.9714 H   0  0  0  0  0  0  0  0  0  0  0  0
    1.4964   -1.7984    1.6717 H   0  0  0  0  0  0  0  0  0  0  0  0
    2.8248   -1.8984    2.7833 H   0  0  0  0  0  0  0  0  0  0  0  0
    2.1708   -2.6050   -0.9226 H   0  0  0  0  0  0  0  0  0  0  0  0
    3.2082   -4.4806   -2.0921 H   0  0  0  0  0  0  0  0  0  0  0  0
    5.0440   -5.7939    1.5661 H   0  0  0  0  0  0  0  0  0  0  0  0
    3.9893   -3.9291    2.7655 H   0  0  0  0  0  0  0  0  0  0  0  0
    5.2226   -2.1301    2.1153 H   0  0  0  0  0  0  0  0  0  0  0  0
    7.5641   -1.7052    2.3806 H   0  0  0  0  0  0  0  0  0  0  0  0
    8.4912    0.5676    1.9906 H   0  0  0  0  0  0  0  0  0  0  0  0
    6.9468    2.4199    1.4297 H   0  0  0  0  0  0  0  0  0  0  0  0
    4.5545    2.0383    1.2642 H   0  0  0  0  0  0  0  0  0  0  0  0
  1 32  1  0  0  0  0
  1 33  1  0  0  0  0
  1 34  1  0  0  0  0
  2 17  1  0  0  0  0
  2  3  1  0  0  0  0
  2  1  1  0  0  0  0
  2 35  1  6  0  0  0
  3  4  1  0  0  0  0
  3 36  1  0  0  0  0
  4  5  2  0  0  0  0
  4  6  1  0  0  0  0
  6  7  1  0  0  0  0
  6  8  1  0  0  0  0
  6  9  1  0  0  0  0
  7 37  1  0  0  0  0
  7 38  1  0  0  0  0
  7 39  1  0  0  0  0
  8 40  1  0  0  0  0
  8 41  1  0  0  0  0
  8 42  1  0  0  0  0
  9 10  1  0  0  0  0
 10 16  2  0  0  0  0
 10 11  1  0  0  0  0
 11 12  2  0  0  0  0
 11 43  1  0  0  0  0
 12 13  1  0  0  0  0
 12 44  1  0  0  0  0
 13 14  1  0  0  0  0
 13 15  2  0  0  0  0
 15 16  1  0  0  0  0
 15 45  1  0  0  0  0
 17 18  1  0  0  0  0
 17 26  1  0  0  0  0
 17 46  1  1  0  0  0
 18 19  1  0  0  0  0
 18 47  1  0  0  0  0
 18 48  1  0  0  0  0
 19 25  2  0  0  0  0
 19 20  1  0  0  0  0
 20 21  2  0  0  0  0
 20 49  1  0  0  0  0
 21 22  1  0  0  0  0
 21 50  1  0  0  0  0
 22 23  1  0  0  0  0
 22 24  2  0  0  0  0
 24 25  1  0  0  0  0
 24 51  1  0  0  0  0
 25 52  1  0  0  0  0
 26 31  2  0  0  0  0
 26 27  1  0  0  0  0
 27 28  2  0  0  0  0
 27 53  1  0  0  0  0
 28 29  1  0  0  0  0
 28 54  1  0  0  0  0
 29 30  2  0  0  0  0
 29 55  1  0  0  0  0
 30 31  1  0  0  0  0
 30 56  1  0  0  0  0
 31 57  1  0  0  0  0
M  END
$$$$
CHEMBL226591	5U09	best_smi
 OpenBabel12022417383D

 68 70  0  0  1  0  0  0  0  0999 V2000
    2.1173    3.7115    0.8552 C   0  0  0  0  0  0  0  0  0  0  0  0
    0.6440    3.4494    0.8101 C   0  0  0  0  0  0  0  0  0  0  0  0
   -0.2943    4.4831    0.8720 C   0  0  0  0  0  0  0  0  0  0  0  0
   -1.6645    4.1927    0.8297 C   0  0  0  0  0  0  0  0  0  0  0  0
   -2.0552    2.8711    0.7111 C   0  0  0  0  0  0  0  0  0  0  0  0
   -3.4147    2.5861    0.6308 O   0  0  0  0  0  0  0  0  0  0  0  0
   -3.7481    1.3505   -0.0430 C   0  0  0  0  0  0  0  0  0  0  0  0
   -3.2435    1.3955   -1.5010 C   0  0  0  0  0  0  0  0  0  0  0  0
   -3.2933    0.1081    0.7593 C   0  0  0  0  0  0  0  0  0  0  0  0
   -5.2880    1.1456   -0.2190 C   0  0  0  0  0  0  0  0  0  0  0  0
   -5.7401    0.0984   -0.6914 O   0  0  0  0  0  0  0  0  0  0  0  0
   -6.1308    2.1969    0.0975 N   0  0  0  0  0  0  0  0  0  0  0  0
   -7.5892    1.9715    0.0382 C   0  0  1  0  0  0  0  0  0  0  0  0
   -8.0081    1.2329    1.3263 C   0  0  0  0  0  0  0  0  0  0  0  0
   -8.4248    3.2734   -0.1873 C   0  0  1  0  0  0  0  0  0  0  0  0
   -7.9950    4.1252   -1.4058 C   0  0  0  0  0  0  0  0  0  0  0  0
   -8.0487    3.5278   -2.7959 C   0  0  0  0  0  0  0  0  0  0  0  0
   -6.8766    3.0084   -3.3499 C   0  0  0  0  0  0  0  0  0  0  0  0
   -6.8188    2.6644   -4.6964 C   0  0  0  0  0  0  0  0  0  0  0  0
   -7.9357    2.7981   -5.5168 C   0  0  0  0  0  0  0  0  0  0  0  0
   -7.6756    2.5883   -6.8372 O   0  0  0  0  0  0  0  0  0  0  0  0
   -8.7050    2.0283   -7.6454 C   0  0  0  0  0  0  0  0  0  0  0  0
   -8.0845    1.7664   -9.0115 C   0  0  0  0  0  0  0  0  0  0  0  0
   -9.0028    1.2062   -9.8390 F   0  0  0  0  0  0  0  0  0  0  0  0
   -9.1393    3.2350   -4.9682 C   0  0  0  0  0  0  0  0  0  0  0  0
   -9.1931    3.6035   -3.6085 C   0  0  0  0  0  0  0  0  0  0  0  0
   -9.9444    3.0813   -0.1967 C   0  0  0  0  0  0  0  0  0  0  0  0
  -10.7682    4.1185    0.2729 C   0  0  0  0  0  0  0  0  0  0  0  0
  -12.1523    3.9550    0.3533 C   0  0  0  0  0  0  0  0  0  0  0  0
  -12.7353    2.7459   -0.0217 C   0  0  0  0  0  0  0  0  0  0  0  0
  -11.9399    1.7135   -0.5225 C   0  0  0  0  0  0  0  0  0  0  0  0
  -12.5343    0.4550   -0.8813 C   0  0  0  0  0  0  0  0  0  0  0  0
  -13.0053   -0.5736   -1.1402 N   0  0  0  0  0  0  0  0  0  0  0  0
  -10.5546    1.9000   -0.6436 C   0  0  0  0  0  0  0  0  0  0  0  0
   -1.1650    1.8621    0.6713 N   0  0  0  0  0  0  0  0  0  0  0  0
    0.1500    2.1612    0.7134 C   0  0  0  0  0  0  0  0  0  0  0  0
    2.6822    2.7782    0.7655 H   0  0  0  0  0  0  0  0  0  0  0  0
    2.3907    4.1709    1.8097 H   0  0  0  0  0  0  0  0  0  0  0  0
    2.4167    4.3649    0.0350 H   0  0  0  0  0  0  0  0  0  0  0  0
    0.0364    5.5161    0.9476 H   0  0  0  0  0  0  0  0  0  0  0  0
   -2.3985    4.9882    0.8653 H   0  0  0  0  0  0  0  0  0  0  0  0
   -2.1591    1.5017   -1.5832 H   0  0  0  0  0  0  0  0  0  0  0  0
   -3.6725    2.2684   -2.0107 H   0  0  0  0  0  0  0  0  0  0  0  0
   -3.5308    0.5028   -2.0648 H   0  0  0  0  0  0  0  0  0  0  0  0
   -2.2418   -0.1446    0.6031 H   0  0  0  0  0  0  0  0  0  0  0  0
   -3.8450   -0.8003    0.4985 H   0  0  0  0  0  0  0  0  0  0  0  0
   -3.4330    0.2826    1.8337 H   0  0  0  0  0  0  0  0  0  0  0  0
   -5.7542    2.8849    0.7409 H   0  0  0  0  0  0  0  0  0  0  0  0
   -7.7753    1.2971   -0.8061 H   0  0  0  0  0  0  0  0  0  0  0  0
   -7.7631    1.8240    2.2148 H   0  0  0  0  0  0  0  0  0  0  0  0
   -7.4864    0.2735    1.4150 H   0  0  0  0  0  0  0  0  0  0  0  0
   -9.0769    1.0071    1.3605 H   0  0  0  0  0  0  0  0  0  0  0  0
   -8.2103    3.8985    0.6941 H   0  0  0  0  0  0  0  0  0  0  0  0
   -6.9680    4.4750   -1.2297 H   0  0  0  0  0  0  0  0  0  0  0  0
   -8.5841    5.0536   -1.4270 H   0  0  0  0  0  0  0  0  0  0  0  0
   -5.9727    2.9280   -2.7507 H   0  0  0  0  0  0  0  0  0  0  0  0
   -5.8799    2.3208   -5.1212 H   0  0  0  0  0  0  0  0  0  0  0  0
   -9.5503    2.7148   -7.7580 H   0  0  0  0  0  0  0  0  0  0  0  0
   -9.0626    1.0842   -7.2190 H   0  0  0  0  0  0  0  0  0  0  0  0
   -7.2250    1.0917   -8.9333 H   0  0  0  0  0  0  0  0  0  0  0  0
   -7.7264    2.6966   -9.4661 H   0  0  0  0  0  0  0  0  0  0  0  0
  -10.0243    3.3664   -5.5828 H   0  0  0  0  0  0  0  0  0  0  0  0
  -10.1217    4.0098   -3.2120 H   0  0  0  0  0  0  0  0  0  0  0  0
  -10.3334    5.0641    0.5937 H   0  0  0  0  0  0  0  0  0  0  0  0
  -12.7738    4.7646    0.7288 H   0  0  0  0  0  0  0  0  0  0  0  0
  -13.8096    2.6119    0.0836 H   0  0  0  0  0  0  0  0  0  0  0  0
   -9.9552    1.0836   -1.0475 H   0  0  0  0  0  0  0  0  0  0  0  0
    0.8105    1.2990    0.6574 H   0  0  0  0  0  0  0  0  0  0  0  0
  1  2  1  0  0  0  0
  1 37  1  0  0  0  0
  1 38  1  0  0  0  0
  1 39  1  0  0  0  0
  2 36  2  0  0  0  0
  2  3  1  0  0  0  0
  3  4  2  0  0  0  0
  3 40  1  0  0  0  0
  4  5  1  0  0  0  0
  4 41  1  0  0  0  0
  5  6  1  0  0  0  0
  5 35  2  0  0  0  0
  6  7  1  0  0  0  0
  7  8  1  0  0  0  0
  7  9  1  0  0  0  0
  7 10  1  0  0  0  0
  8 42  1  0  0  0  0
  8 43  1  0  0  0  0
  8 44  1  0  0  0  0
  9 45  1  0  0  0  0
  9 46  1  0  0  0  0
  9 47  1  0  0  0  0
 10 11  2  0  0  0  0
 10 12  1  0  0  0  0
 12 13  1  0  0  0  0
 12 48  1  0  0  0  0
 13 14  1  0  0  0  0
 13 15  1  0  0  0  0
 13 49  1  6  0  0  0
 14 50  1  0  0  0  0
 14 51  1  0  0  0  0
 14 52  1  0  0  0  0
 15 16  1  0  0  0  0
 15 27  1  0  0  0  0
 15 53  1  1  0  0  0
 16 17  1  0  0  0  0
 16 54  1  0  0  0  0
 16 55  1  0  0  0  0
 17 26  2  0  0  0  0
 17 18  1  0  0  0  0
 18 19  2  0  0  0  0
 18 56  1  0  0  0  0
 19 20  1  0  0  0  0
 19 57  1  0  0  0  0
 20 21  1  0  0  0  0
 20 25  2  0  0  0  0
 21 22  1  0  0  0  0
 22 23  1  0  0  0  0
 22 58  1  0  0  0  0
 22 59  1  0  0  0  0
 23 24  1  0  0  0  0
 23 60  1  0  0  0  0
 23 61  1  0  0  0  0
 25 26  1  0  0  0  0
 25 62  1  0  0  0  0
 26 63  1  0  0  0  0
 27 34  2  0  0  0  0
 27 28  1  0  0  0  0
 28 29  2  0  0  0  0
 28 64  1  0  0  0  0
 29 30  1  0  0  0  0
 29 65  1  0  0  0  0
 30 31  2  0  0  0  0
 30 66  1  0  0  0  0
 31 32  1  0  0  0  0
 31 34  1  0  0  0  0
 32 33  3  0  0  0  0
 34 67  1  0  0  0  0
 35 36  1  0  0  0  0
 36 68  1  0  0  0  0
M  END
$$$$
CHEMBL582820	5U09	best_smi
 OpenBabel12022417383D

 68 70  0  0  1  0  0  0  0  0999 V2000
    2.8739    1.2787    0.3656 C   0  0  0  0  0  0  0  0  0  0  0  0
    2.4303   -0.1109   -0.1412 C   0  0  2  0  0  0  0  0  0  0  0  0
    0.9468   -0.1758   -0.2144 N   0  0  0  0  0  0  0  0  0  0  0  0
    0.1478   -0.4315    0.8713 C   0  0  0  0  0  0  0  0  0  0  0  0
    0.6431   -0.6996    1.9715 O   0  0  0  0  0  0  0  0  0  0  0  0
   -1.4116   -0.2853    0.7500 C   0  0  0  0  0  0  0  0  0  0  0  0
   -2.1265   -0.4760   -0.5937 C   0  0  0  0  0  0  0  0  0  0  0  0
   -1.9764   -1.4236    1.6452 C   0  0  0  0  0  0  0  0  0  0  0  0
   -1.7717    0.9963    1.3963 N   0  0  0  0  0  0  0  0  0  0  0  0
   -1.8124    2.1898    0.7621 C   0  0  0  0  0  0  0  0  0  0  0  0
   -2.1172    3.3563    1.4879 C   0  0  0  0  0  0  0  0  0  0  0  0
   -2.3229    4.3252    0.5348 C   0  0  0  0  0  0  0  0  0  0  0  0
   -2.8718    5.7206    0.6256 C   0  0  0  0  0  0  0  0  0  0  0  0
   -1.9330    6.5651    1.5038 C   0  0  0  0  0  0  0  0  0  0  0  0
   -3.0336    6.3916   -0.7486 C   0  0  0  0  0  0  0  0  0  0  0  0
   -4.2631    5.6474    1.2900 C   0  0  0  0  0  0  0  0  0  0  0  0
   -2.0036    3.8082   -0.6819 O   0  0  0  0  0  0  0  0  0  0  0  0
   -1.6621    2.4745   -0.5349 N   0  0  0  0  0  0  0  0  0  0  0  0
    3.1543   -1.2547    0.6809 C   0  0  1  0  0  0  0  0  0  0  0  0
    2.7139   -2.7119    0.3487 C   0  0  0  0  0  0  0  0  0  0  0  0
    3.0790   -3.1531   -1.0496 C   0  0  0  0  0  0  0  0  0  0  0  0
    2.2277   -2.8450   -2.1157 C   0  0  0  0  0  0  0  0  0  0  0  0
    2.6690   -2.9909   -3.4285 C   0  0  0  0  0  0  0  0  0  0  0  0
    3.9494   -3.4798   -3.6771 C   0  0  0  0  0  0  0  0  0  0  0  0
    4.5478   -3.5134   -5.2891 Cl  0  0  0  0  0  0  0  0  0  0  0  0
    4.7624   -3.9000   -2.6275 C   0  0  0  0  0  0  0  0  0  0  0  0
    4.3220   -3.7492   -1.3127 C   0  0  0  0  0  0  0  0  0  0  0  0
    4.6876   -1.1511    0.6744 C   0  0  0  0  0  0  0  0  0  0  0  0
    5.4110   -0.6375   -0.4166 C   0  0  0  0  0  0  0  0  0  0  0  0
    6.8004   -0.5112   -0.3691 C   0  0  0  0  0  0  0  0  0  0  0  0
    7.4936   -0.9280    0.7594 C   0  0  0  0  0  0  0  0  0  0  0  0
    6.7965   -1.4746    1.8391 C   0  0  0  0  0  0  0  0  0  0  0  0
    7.5100   -1.9094    2.9908 C   0  0  0  0  0  0  0  0  0  0  0  0
    8.0985   -2.2649    3.9397 N   0  0  0  0  0  0  0  0  0  0  0  0
    5.4048   -1.5889    1.7989 C   0  0  0  0  0  0  0  0  0  0  0  0
    3.9610    1.4080    0.3323 H   0  0  0  0  0  0  0  0  0  0  0  0
    2.5633    1.4496    1.4007 H   0  0  0  0  0  0  0  0  0  0  0  0
    2.4548    2.0759   -0.2560 H   0  0  0  0  0  0  0  0  0  0  0  0
    2.7404   -0.1803   -1.1895 H   0  0  0  0  0  0  0  0  0  0  0  0
    0.5126    0.3124   -0.9909 H   0  0  0  0  0  0  0  0  0  0  0  0
   -1.9816   -1.4847   -0.9913 H   0  0  0  0  0  0  0  0  0  0  0  0
   -1.8231    0.2196   -1.3766 H   0  0  0  0  0  0  0  0  0  0  0  0
   -3.2118   -0.3379   -0.4555 H   0  0  0  0  0  0  0  0  0  0  0  0
   -1.5405   -2.3855    1.3484 H   0  0  0  0  0  0  0  0  0  0  0  0
   -3.0656   -1.5128    1.5569 H   0  0  0  0  0  0  0  0  0  0  0  0
   -1.7517   -1.2710    2.7071 H   0  0  0  0  0  0  0  0  0  0  0  0
   -1.4907    1.0066    2.3703 H   0  0  0  0  0  0  0  0  0  0  0  0
   -2.2928    3.4574    2.5479 H   0  0  0  0  0  0  0  0  0  0  0  0
   -0.9485    6.6792    1.0349 H   0  0  0  0  0  0  0  0  0  0  0  0
   -1.7722    6.0960    2.4823 H   0  0  0  0  0  0  0  0  0  0  0  0
   -2.3425    7.5648    1.6825 H   0  0  0  0  0  0  0  0  0  0  0  0
   -2.0722    6.5063   -1.2613 H   0  0  0  0  0  0  0  0  0  0  0  0
   -3.4760    7.3904   -0.6474 H   0  0  0  0  0  0  0  0  0  0  0  0
   -3.6916    5.8093   -1.4050 H   0  0  0  0  0  0  0  0  0  0  0  0
   -4.2117    5.1863    2.2837 H   0  0  0  0  0  0  0  0  0  0  0  0
   -4.9553    5.0440    0.6893 H   0  0  0  0  0  0  0  0  0  0  0  0
   -4.7029    6.6428    1.4117 H   0  0  0  0  0  0  0  0  0  0  0  0
    2.8803   -1.0915    1.7311 H   0  0  0  0  0  0  0  0  0  0  0  0
    1.6340   -2.8322    0.4958 H   0  0  0  0  0  0  0  0  0  0  0  0
    3.1731   -3.4077    1.0660 H   0  0  0  0  0  0  0  0  0  0  0  0
    1.2395   -2.4345   -1.9245 H   0  0  0  0  0  0  0  0  0  0  0  0
    2.0244   -2.6845   -4.2468 H   0  0  0  0  0  0  0  0  0  0  0  0
    5.7529   -4.3024   -2.8215 H   0  0  0  0  0  0  0  0  0  0  0  0
    4.9832   -4.0360   -0.4965 H   0  0  0  0  0  0  0  0  0  0  0  0
    4.9048   -0.3074   -1.3208 H   0  0  0  0  0  0  0  0  0  0  0  0
    7.3328   -0.0835   -1.2131 H   0  0  0  0  0  0  0  0  0  0  0  0
    8.5774   -0.8260    0.7923 H   0  0  0  0  0  0  0  0  0  0  0  0
    4.8747   -2.0132    2.6487 H   0  0  0  0  0  0  0  0  0  0  0  0
  1 36  1  0  0  0  0
  1 37  1  0  0  0  0
  1 38  1  0  0  0  0
  2 19  1  0  0  0  0
  2  3  1  0  0  0  0
  2  1  1  0  0  0  0
  2 39  1  6  0  0  0
  3  4  1  0  0  0  0
  3 40  1  0  0  0  0
  4  5  2  0  0  0  0
  4  6  1  0  0  0  0
  6  7  1  0  0  0  0
  6  8  1  0  0  0  0
  6  9  1  0  0  0  0
  7 41  1  0  0  0  0
  7 42  1  0  0  0  0
  7 43  1  0  0  0  0
  8 44  1  0  0  0  0
  8 45  1  0  0  0  0
  8 46  1  0  0  0  0
  9 10  1  0  0  0  0
  9 47  1  0  0  0  0
 10 18  2  0  0  0  0
 10 11  1  0  0  0  0
 11 12  2  0  0  0  0
 11 48  1  0  0  0  0
 12 13  1  0  0  0  0
 12 17  1  0  0  0  0
 13 14  1  0  0  0  0
 13 15  1  0  0  0  0
 13 16  1  0  0  0  0
 14 49  1  0  0  0  0
 14 50  1  0  0  0  0
 14 51  1  0  0  0  0
 15 52  1  0  0  0  0
 15 53  1  0  0  0  0
 15 54  1  0  0  0  0
 16 55  1  0  0  0  0
 16 56  1  0  0  0  0
 16 57  1  0  0  0  0
 17 18  1  0  0  0  0
 19 20  1  0  0  0  0
 19 28  1  0  0  0  0
 19 58  1  1  0  0  0
 20 21  1  0  0  0  0
 20 59  1  0  0  0  0
 20 60  1  0  0  0  0
 21 27  2  0  0  0  0
 21 22  1  0  0  0  0
 22 23  2  0  0  0  0
 22 61  1  0  0  0  0
 23 24  1  0  0  0  0
 23 62  1  0  0  0  0
 24 25  1  0  0  0  0
 24 26  2  0  0  0  0
 26 27  1  0  0  0  0
 26 63  1  0  0  0  0
 27 64  1  0  0  0  0
 28 35  2  0  0  0  0
 28 29  1  0  0  0  0
 29 30  2  0  0  0  0
 29 65  1  0  0  0  0
 30 31  1  0  0  0  0
 30 66  1  0  0  0  0
 31 32  2  0  0  0  0
 31 67  1  0  0  0  0
 32 33  1  0  0  0  0
 32 35  1  0  0  0  0
 33 34  3  0  0  0  0
 35 68  1  0  0  0  0
M  END
$$$$
CHEMBL231636	5U09	best_smi
 OpenBabel12022417383D

 61 63  0  0  1  0  0  0  0  0999 V2000
    3.1345   -0.1297    1.5814 C   0  0  0  0  0  0  0  0  0  0  0  0
    2.4445    0.0756    0.2241 C   0  0  2  0  0  0  0  0  0  0  0  0
    0.9835   -0.0608    0.4169 N   0  0  0  0  0  0  0  0  0  0  0  0
    0.2679    0.8346    1.2033 C   0  0  0  0  0  0  0  0  0  0  0  0
    0.8173    1.8150    1.7123 O   0  0  0  0  0  0  0  0  0  0  0  0
   -1.2564    0.5558    1.4319 C   0  0  0  0  0  0  0  0  0  0  0  0
   -1.6308   -0.8996    1.1164 C   0  0  0  0  0  0  0  0  0  0  0  0
   -1.4833    0.8663    2.9258 C   0  0  0  0  0  0  0  0  0  0  0  0
   -1.9218    1.4852    0.5462 O   0  0  0  0  0  0  0  0  0  0  0  0
   -3.2765    1.4894    0.3986 C   0  0  0  0  0  0  0  0  0  0  0  0
   -3.7775    1.8461   -0.8474 C   0  0  0  0  0  0  0  0  0  0  0  0
   -5.0974    1.8637   -1.1716 N   0  0  0  0  0  0  0  0  0  0  0  0
   -5.9722    1.5205   -0.2017 C   0  0  0  0  0  0  0  0  0  0  0  0
   -5.5865    1.1845    1.0815 C   0  0  0  0  0  0  0  0  0  0  0  0
   -6.5809    0.7769    2.1258 C   0  0  0  0  0  0  0  0  0  0  0  0
   -7.8674    0.7719    1.6930 F   0  0  0  0  0  0  0  0  0  0  0  0
   -6.3358   -0.4766    2.5983 F   0  0  0  0  0  0  0  0  0  0  0  0
   -6.5519    1.5929    3.2170 F   0  0  0  0  0  0  0  0  0  0  0  0
   -4.2161    1.2052    1.3798 C   0  0  0  0  0  0  0  0  0  0  0  0
    3.0047   -0.8667   -0.9462 C   0  0  1  0  0  0  0  0  0  0  0  0
    2.2744   -0.5416   -2.2995 C   0  0  0  0  0  0  0  0  0  0  0  0
    2.5515    0.7847   -3.0026 C   0  0  0  0  0  0  0  0  0  0  0  0
    2.1025    0.9496   -4.3227 C   0  0  0  0  0  0  0  0  0  0  0  0
    2.4516    2.0903   -5.0578 C   0  0  0  0  0  0  0  0  0  0  0  0
    3.2359    3.0847   -4.4773 C   0  0  0  0  0  0  0  0  0  0  0  0
    3.7058    4.4639   -5.3894 Cl  0  0  0  0  0  0  0  0  0  0  0  0
    3.6768    2.9499   -3.1708 C   0  0  0  0  0  0  0  0  0  0  0  0
    3.3359    1.8103   -2.4454 C   0  0  0  0  0  0  0  0  0  0  0  0
    4.5463   -0.9744   -1.1238 C   0  0  0  0  0  0  0  0  0  0  0  0
    5.2093   -0.6835   -2.3345 C   0  0  0  0  0  0  0  0  0  0  0  0
    6.6004   -0.5827   -2.4276 C   0  0  0  0  0  0  0  0  0  0  0  0
    7.3846   -0.8503   -1.3200 C   0  0  0  0  0  0  0  0  0  0  0  0
    6.7720   -1.2953   -0.1511 C   0  0  0  0  0  0  0  0  0  0  0  0
    7.5722   -1.6132    0.9899 C   0  0  0  0  0  0  0  0  0  0  0  0
    8.2174   -1.8572    1.9208 N   0  0  0  0  0  0  0  0  0  0  0  0
    5.3720   -1.3951   -0.0718 C   0  0  0  0  0  0  0  0  0  0  0  0
    4.1784    0.1929    1.5480 H   0  0  0  0  0  0  0  0  0  0  0  0
    3.0712   -1.1737    1.9016 H   0  0  0  0  0  0  0  0  0  0  0  0
    2.6828    0.4673    2.3788 H   0  0  0  0  0  0  0  0  0  0  0  0
    2.5951    1.1251   -0.0265 H   0  0  0  0  0  0  0  0  0  0  0  0
    0.4621   -0.6158   -0.2446 H   0  0  0  0  0  0  0  0  0  0  0  0
   -1.0554   -1.6010    1.7293 H   0  0  0  0  0  0  0  0  0  0  0  0
   -1.4636   -1.1381    0.0604 H   0  0  0  0  0  0  0  0  0  0  0  0
   -2.6926   -1.0960    1.2940 H   0  0  0  0  0  0  0  0  0  0  0  0
   -0.6408    0.5306    3.5415 H   0  0  0  0  0  0  0  0  0  0  0  0
   -2.3512    0.3404    3.3323 H   0  0  0  0  0  0  0  0  0  0  0  0
   -1.6264    1.9398    3.0929 H   0  0  0  0  0  0  0  0  0  0  0  0
   -3.1076    2.1261   -1.6566 H   0  0  0  0  0  0  0  0  0  0  0  0
   -7.0179    1.5288   -0.5019 H   0  0  0  0  0  0  0  0  0  0  0  0
   -3.9391    0.9995    2.4026 H   0  0  0  0  0  0  0  0  0  0  0  0
    2.6858   -1.8893   -0.6872 H   0  0  0  0  0  0  0  0  0  0  0  0
    1.1896   -0.6277   -2.1708 H   0  0  0  0  0  0  0  0  0  0  0  0
    2.5371   -1.3452   -3.0051 H   0  0  0  0  0  0  0  0  0  0  0  0
    1.5190    0.1699   -4.8111 H   0  0  0  0  0  0  0  0  0  0  0  0
    2.1272    2.1876   -6.0902 H   0  0  0  0  0  0  0  0  0  0  0  0
    4.3150    3.7004   -2.7104 H   0  0  0  0  0  0  0  0  0  0  0  0
    3.7848    1.7269   -1.4623 H   0  0  0  0  0  0  0  0  0  0  0  0
    4.6718   -0.4845   -3.2571 H   0  0  0  0  0  0  0  0  0  0  0  0
    7.0567   -0.2722   -3.3651 H   0  0  0  0  0  0  0  0  0  0  0  0
    8.4635   -0.7302   -1.3801 H   0  0  0  0  0  0  0  0  0  0  0  0
    4.9443   -1.7810    0.8499 H   0  0  0  0  0  0  0  0  0  0  0  0
  1 37  1  0  0  0  0
  1 38  1  0  0  0  0
  1 39  1  0  0  0  0
  2 20  1  0  0  0  0
  2  3  1  0  0  0  0
  2  1  1  0  0  0  0
  2 40  1  6  0  0  0
  3  4  1  0  0  0  0
  3 41  1  0  0  0  0
  4  5  2  0  0  0  0
  4  6  1  0  0  0  0
  6  7  1  0  0  0  0
  6  8  1  0  0  0  0
  6  9  1  0  0  0  0
  7 42  1  0  0  0  0
  7 43  1  0  0  0  0
  7 44  1  0  0  0  0
  8 45  1  0  0  0  0
  8 46  1  0  0  0  0
  8 47  1  0  0  0  0
  9 10  1  0  0  0  0
 10 19  2  0  0  0  0
 10 11  1  0  0  0  0
 11 12  2  0  0  0  0
 11 48  1  0  0  0  0
 12 13  1  0  0  0  0
 13 14  2  0  0  0  0
 13 49  1  0  0  0  0
 14 15  1  0  0  0  0
 14 19  1  0  0  0  0
 15 16  1  0  0  0  0
 15 17  1  0  0  0  0
 15 18  1  0  0  0  0
 19 50  1  0  0  0  0
 20 21  1  0  0  0  0
 20 29  1  0  0  0  0
 20 51  1  1  0  0  0
 21 22  1  0  0  0  0
 21 52  1  0  0  0  0
 21 53  1  0  0  0  0
 22 28  2  0  0  0  0
 22 23  1  0  0  0  0
 23 24  2  0  0  0  0
 23 54  1  0  0  0  0
 24 25  1  0  0  0  0
 24 55  1  0  0  0  0
 25 26  1  0  0  0  0
 25 27  2  0  0  0  0
 27 28  1  0  0  0  0
 27 56  1  0  0  0  0
 28 57  1  0  0  0  0
 29 36  2  0  0  0  0
 29 30  1  0  0  0  0
 30 31  2  0  0  0  0
 30 58  1  0  0  0  0
 31 32  1  0  0  0  0
 31 59  1  0  0  0  0
 32 33  2  0  0  0  0
 32 60  1  0  0  0  0
 33 34  1  0  0  0  0
 33 36  1  0  0  0  0
 34 35  3  0  0  0  0
 36 61  1  0  0  0  0
M  END
$$$$
CHEMBL567513	5U09	best_smi
 OpenBabel12022417383D

 66 69  0  0  1  0  0  0  0  0999 V2000
    2.7883    0.9094    1.3265 C   0  0  0  0  0  0  0  0  0  0  0  0
    2.3679    0.0119    0.1365 C   0  0  2  0  0  0  0  0  0  0  0  0
    0.8658   -0.0851    0.1145 N   0  0  0  0  0  0  0  0  0  0  0  0
    0.0495    1.0336    0.2405 C   0  0  0  0  0  0  0  0  0  0  0  0
    0.5344    2.1703    0.2771 O   0  0  0  0  0  0  0  0  0  0  0  0
   -1.5326    0.8885    0.2018 C   0  0  0  0  0  0  0  0  0  0  0  0
   -2.0530   -0.5363    0.3680 C   0  0  0  0  0  0  0  0  0  0  0  0
   -2.0399    1.7413    1.3857 C   0  0  0  0  0  0  0  0  0  0  0  0
   -1.9222    1.4489   -1.1090 N   0  0  0  0  0  0  0  0  0  0  0  0
   -3.1735    1.6015   -1.5982 C   0  0  0  0  0  0  0  0  0  0  0  0
   -4.3181    1.1585   -1.1273 N   0  0  0  0  0  0  0  0  0  0  0  0
   -5.2776    1.5214   -2.0507 C   0  0  0  0  0  0  0  0  0  0  0  0
   -6.6600    1.2579   -2.0807 C   0  0  0  0  0  0  0  0  0  0  0  0
   -7.4273    1.7496   -3.1520 C   0  0  0  0  0  0  0  0  0  0  0  0
   -6.8397    2.5061   -4.1671 C   0  0  0  0  0  0  0  0  0  0  0  0
   -5.4718    2.7808   -4.1566 C   0  0  0  0  0  0  0  0  0  0  0  0
   -4.7201    2.2513   -3.0928 C   0  0  0  0  0  0  0  0  0  0  0  0
   -3.3764    2.2639   -2.7966 N   0  0  0  0  0  0  0  0  0  0  0  0
   -2.3747    2.8389   -3.6614 C   0  0  0  0  0  0  0  0  0  0  0  0
    3.0855   -1.4012    0.2345 C   0  0  1  0  0  0  0  0  0  0  0  0
    2.8233   -2.3787   -0.9507 C   0  0  0  0  0  0  0  0  0  0  0  0
    3.2473   -1.9118   -2.3246 C   0  0  0  0  0  0  0  0  0  0  0  0
    2.3348   -1.2180   -3.1296 C   0  0  0  0  0  0  0  0  0  0  0  0
    2.7213   -0.7144   -4.3718 C   0  0  0  0  0  0  0  0  0  0  0  0
    4.0210   -0.9157   -4.8273 C   0  0  0  0  0  0  0  0  0  0  0  0
    4.5126   -0.2280   -6.3256 Cl  0  0  0  0  0  0  0  0  0  0  0  0
    4.9247   -1.6564   -4.0695 C   0  0  0  0  0  0  0  0  0  0  0  0
    4.5376   -2.1580   -2.8220 C   0  0  0  0  0  0  0  0  0  0  0  0
    4.5924   -1.4118    0.5676 C   0  0  0  0  0  0  0  0  0  0  0  0
    5.4803   -0.3951    0.1822 C   0  0  0  0  0  0  0  0  0  0  0  0
    6.8171   -0.4122    0.5993 C   0  0  0  0  0  0  0  0  0  0  0  0
    7.3103   -1.4816    1.3495 C   0  0  0  0  0  0  0  0  0  0  0  0
    6.4648   -2.5391    1.6898 C   0  0  0  0  0  0  0  0  0  0  0  0
    6.9706   -3.6614    2.4400 C   0  0  0  0  0  0  0  0  0  0  0  0
    7.3761   -4.5725    3.0323 N   0  0  0  0  0  0  0  0  0  0  0  0
    5.1152   -2.4945    1.3073 C   0  0  0  0  0  0  0  0  0  0  0  0
    3.8426    0.8499    1.5902 H   0  0  0  0  0  0  0  0  0  0  0  0
    2.2124    0.6634    2.2239 H   0  0  0  0  0  0  0  0  0  0  0  0
    2.6297    1.9672    1.0954 H   0  0  0  0  0  0  0  0  0  0  0  0
    2.6649    0.5119   -0.7940 H   0  0  0  0  0  0  0  0  0  0  0  0
    0.4433   -0.9007   -0.3099 H   0  0  0  0  0  0  0  0  0  0  0  0
   -1.5956   -1.0338    1.2291 H   0  0  0  0  0  0  0  0  0  0  0  0
   -1.8645   -1.1412   -0.5238 H   0  0  0  0  0  0  0  0  0  0  0  0
   -3.1381   -0.5409    0.5351 H   0  0  0  0  0  0  0  0  0  0  0  0
   -1.5346    1.4364    2.3141 H   0  0  0  0  0  0  0  0  0  0  0  0
   -3.1160    1.6279    1.5553 H   0  0  0  0  0  0  0  0  0  0  0  0
   -1.8369    2.8096    1.2507 H   0  0  0  0  0  0  0  0  0  0  0  0
   -1.1302    1.8552   -1.5965 H   0  0  0  0  0  0  0  0  0  0  0  0
   -7.1263    0.6722   -1.2971 H   0  0  0  0  0  0  0  0  0  0  0  0
   -8.4917    1.5344   -3.2008 H   0  0  0  0  0  0  0  0  0  0  0  0
   -7.4507    2.8864   -4.9848 H   0  0  0  0  0  0  0  0  0  0  0  0
   -5.0119    3.3639   -4.9459 H   0  0  0  0  0  0  0  0  0  0  0  0
   -1.4333    2.2960   -3.5657 H   0  0  0  0  0  0  0  0  0  0  0  0
   -2.2492    3.8894   -3.3903 H   0  0  0  0  0  0  0  0  0  0  0  0
   -2.7026    2.7535   -4.7012 H   0  0  0  0  0  0  0  0  0  0  0  0
    2.6068   -1.8740    1.1061 H   0  0  0  0  0  0  0  0  0  0  0  0
    1.7559   -2.6302   -0.9816 H   0  0  0  0  0  0  0  0  0  0  0  0
    3.3204   -3.3404   -0.7541 H   0  0  0  0  0  0  0  0  0  0  0  0
    1.3148   -1.0573   -2.7905 H   0  0  0  0  0  0  0  0  0  0  0  0
    2.0064   -0.1593   -4.9719 H   0  0  0  0  0  0  0  0  0  0  0  0
    5.9312   -1.8367   -4.4392 H   0  0  0  0  0  0  0  0  0  0  0  0
    5.2579   -2.7345   -2.2432 H   0  0  0  0  0  0  0  0  0  0  0  0
    5.1399    0.4538   -0.4088 H   0  0  0  0  0  0  0  0  0  0  0  0
    7.4756    0.4169    0.3470 H   0  0  0  0  0  0  0  0  0  0  0  0
    8.3517   -1.4801    1.6656 H   0  0  0  0  0  0  0  0  0  0  0  0
    4.4588   -3.3142    1.5972 H   0  0  0  0  0  0  0  0  0  0  0  0
  1 37  1  0  0  0  0
  1 38  1  0  0  0  0
  1 39  1  0  0  0  0
  2 20  1  0  0  0  0
  2  3  1  0  0  0  0
  2  1  1  0  0  0  0
  2 40  1  6  0  0  0
  3  4  1  0  0  0  0
  3 41  1  0  0  0  0
  4  5  2  0  0  0  0
  4  6  1  0  0  0  0
  6  7  1  0  0  0  0
  6  8  1  0  0  0  0
  6  9  1  0  0  0  0
  7 42  1  0  0  0  0
  7 43  1  0  0  0  0
  7 44  1  0  0  0  0
  8 45  1  0  0  0  0
  8 46  1  0  0  0  0
  8 47  1  0  0  0  0
  9 10  1  0  0  0  0
  9 48  1  0  0  0  0
 10 18  1  0  0  0  0
 10 11  2  0  0  0  0
 11 12  1  0  0  0  0
 12 17  2  0  0  0  0
 12 13  1  0  0  0  0
 13 14  2  0  0  0  0
 13 49  1  0  0  0  0
 14 15  1  0  0  0  0
 14 50  1  0  0  0  0
 15 16  2  0  0  0  0
 15 51  1  0  0  0  0
 16 17  1  0  0  0  0
 16 52  1  0  0  0  0
 17 18  1  0  0  0  0
 18 19  1  0  0  0  0
 19 53  1  0  0  0  0
 19 54  1  0  0  0  0
 19 55  1  0  0  0  0
 20 21  1  0  0  0  0
 20 29  1  0  0  0  0
 20 56  1  1  0  0  0
 21 22  1  0  0  0  0
 21 57  1  0  0  0  0
 21 58  1  0  0  0  0
 22 28  2  0  0  0  0
 22 23  1  0  0  0  0
 23 24  2  0  0  0  0
 23 59  1  0  0  0  0
 24 25  1  0  0  0  0
 24 60  1  0  0  0  0
 25 26  1  0  0  0  0
 25 27  2  0  0  0  0
 27 28  1  0  0  0  0
 27 61  1  0  0  0  0
 28 62  1  0  0  0  0
 29 36  2  0  0  0  0
 29 30  1  0  0  0  0
 30 31  2  0  0  0  0
 30 63  1  0  0  0  0
 31 32  1  0  0  0  0
 31 64  1  0  0  0  0
 32 33  2  0  0  0  0
 32 65  1  0  0  0  0
 33 34  1  0  0  0  0
 33 36  1  0  0  0  0
 34 35  3  0  0  0  0
 36 66  1  0  0  0  0
M  END
$$$$
CHEMBL226589	5U09	best_smi
 OpenBabel12022417383D

 65 67  0  0  1  0  0  0  0  0999 V2000
    3.0801   -1.2172    1.1568 C   0  0  0  0  0  0  0  0  0  0  0  0
    2.5140   -0.0451    0.3511 C   0  0  2  0  0  0  0  0  0  0  0  0
    1.0472   -0.1108    0.4076 N   0  0  0  0  0  0  0  0  0  0  0  0
    0.3344    0.5134    1.4256 C   0  0  0  0  0  0  0  0  0  0  0  0
    0.9213    1.0928    2.3407 O   0  0  0  0  0  0  0  0  0  0  0  0
   -1.2344    0.4559    1.3345 C   0  0  0  0  0  0  0  0  0  0  0  0
   -1.7218    1.7472    2.0294 C   0  0  0  0  0  0  0  0  0  0  0  0
   -1.6330    0.4134   -0.1547 C   0  0  0  0  0  0  0  0  0  0  0  0
   -1.6602   -0.7311    2.0458 O   0  0  0  0  0  0  0  0  0  0  0  0
   -3.0202   -0.9755    2.1165 C   0  0  0  0  0  0  0  0  0  0  0  0
   -3.4469   -2.1109    2.7901 C   0  0  0  0  0  0  0  0  0  0  0  0
   -4.8166   -2.4057    2.8077 C   0  0  0  0  0  0  0  0  0  0  0  0
   -5.7084   -1.5538    2.1664 C   0  0  0  0  0  0  0  0  0  0  0  0
   -7.3909   -1.8819    2.1339 Cl  0  0  0  0  0  0  0  0  0  0  0  0
   -5.1977   -0.4342    1.5415 C   0  0  0  0  0  0  0  0  0  0  0  0
   -3.8790   -0.1395    1.5025 N   0  0  0  0  0  0  0  0  0  0  0  0
    3.0603   -0.0114   -1.1185 C   0  0  1  0  0  0  0  0  0  0  0  0
    2.4430    1.1321   -1.9951 C   0  0  0  0  0  0  0  0  0  0  0  0
    2.8059    2.5877   -1.7698 C   0  0  0  0  0  0  0  0  0  0  0  0
    2.4057    3.5358   -2.7208 C   0  0  0  0  0  0  0  0  0  0  0  0
    2.8196    4.8706   -2.6268 C   0  0  0  0  0  0  0  0  0  0  0  0
    3.6677    5.2790   -1.5974 C   0  0  0  0  0  0  0  0  0  0  0  0
    4.2184    6.5215   -1.4458 O   0  0  0  0  0  0  0  0  0  0  0  0
    3.9610    7.4278   -2.5124 C   0  0  0  0  0  0  0  0  0  0  0  0
    4.7460    8.7050   -2.3054 C   0  0  0  0  0  0  0  0  0  0  0  0
    4.4372    9.5716   -3.3074 F   0  0  0  0  0  0  0  0  0  0  0  0
    4.0098    4.3677   -0.6128 C   0  0  0  0  0  0  0  0  0  0  0  0
    3.5454    3.0550   -0.6845 C   0  0  0  0  0  0  0  0  0  0  0  0
    4.5871   -0.0673   -1.2830 C   0  0  0  0  0  0  0  0  0  0  0  0
    5.4796    0.4835   -0.3401 C   0  0  0  0  0  0  0  0  0  0  0  0
    6.8637    0.5026   -0.5602 C   0  0  0  0  0  0  0  0  0  0  0  0
    7.3942   -0.0845   -1.7009 C   0  0  0  0  0  0  0  0  0  0  0  0
    6.5433   -0.6863   -2.6197 C   0  0  0  0  0  0  0  0  0  0  0  0
    7.0857   -1.3321   -3.7678 C   0  0  0  0  0  0  0  0  0  0  0  0
    7.5348   -1.8724   -4.6909 N   0  0  0  0  0  0  0  0  0  0  0  0
    5.1443   -0.6662   -2.4230 C   0  0  0  0  0  0  0  0  0  0  0  0
    4.1685   -1.1762    1.2388 H   0  0  0  0  0  0  0  0  0  0  0  0
    2.8088   -2.1737    0.7005 H   0  0  0  0  0  0  0  0  0  0  0  0
    2.6864   -1.2050    2.1782 H   0  0  0  0  0  0  0  0  0  0  0  0
    2.8058    0.8666    0.8730 H   0  0  0  0  0  0  0  0  0  0  0  0
    0.5822   -0.8383   -0.1192 H   0  0  0  0  0  0  0  0  0  0  0  0
   -1.2651    2.6338    1.5761 H   0  0  0  0  0  0  0  0  0  0  0  0
   -1.4667    1.7365    3.0962 H   0  0  0  0  0  0  0  0  0  0  0  0
   -2.8036    1.8892    1.9788 H   0  0  0  0  0  0  0  0  0  0  0  0
   -1.0538    1.1268   -0.7486 H   0  0  0  0  0  0  0  0  0  0  0  0
   -2.6845    0.6535   -0.3261 H   0  0  0  0  0  0  0  0  0  0  0  0
   -1.4806   -0.5929   -0.5646 H   0  0  0  0  0  0  0  0  0  0  0  0
   -2.7369   -2.7642    3.2849 H   0  0  0  0  0  0  0  0  0  0  0  0
   -5.1787   -3.2967    3.3127 H   0  0  0  0  0  0  0  0  0  0  0  0
   -5.8376    0.2792    1.0307 H   0  0  0  0  0  0  0  0  0  0  0  0
    2.6870   -0.9435   -1.5735 H   0  0  0  0  0  0  0  0  0  0  0  0
    1.3484    1.0523   -1.9727 H   0  0  0  0  0  0  0  0  0  0  0  0
    2.7269    0.9143   -3.0380 H   0  0  0  0  0  0  0  0  0  0  0  0
    1.7771    3.2450   -3.5602 H   0  0  0  0  0  0  0  0  0  0  0  0
    2.4749    5.5596   -3.3893 H   0  0  0  0  0  0  0  0  0  0  0  0
    2.8925    7.6691   -2.5410 H   0  0  0  0  0  0  0  0  0  0  0  0
    4.2610    6.9930   -3.4735 H   0  0  0  0  0  0  0  0  0  0  0  0
    5.8239    8.5178   -2.3278 H   0  0  0  0  0  0  0  0  0  0  0  0
    4.5018    9.1755   -1.3488 H   0  0  0  0  0  0  0  0  0  0  0  0
    4.6504    4.6603    0.2152 H   0  0  0  0  0  0  0  0  0  0  0  0
    3.8178    2.4214    0.1393 H   0  0  0  0  0  0  0  0  0  0  0  0
    5.1257    0.9284    0.5839 H   0  0  0  0  0  0  0  0  0  0  0  0
    7.5089    0.9793    0.1682 H   0  0  0  0  0  0  0  0  0  0  0  0
    8.4691   -0.0744   -1.8534 H   0  0  0  0  0  0  0  0  0  0  0  0
    4.4966   -1.1233   -3.1726 H   0  0  0  0  0  0  0  0  0  0  0  0
  1 37  1  0  0  0  0
  1 38  1  0  0  0  0
  1 39  1  0  0  0  0
  2 17  1  0  0  0  0
  2  3  1  0  0  0  0
  2  1  1  0  0  0  0
  2 40  1  1  0  0  0
  3  4  1  0  0  0  0
  3 41  1  0  0  0  0
  4  5  2  0  0  0  0
  4  6  1  0  0  0  0
  6  7  1  0  0  0  0
  6  8  1  0  0  0  0
  6  9  1  0  0  0  0
  7 42  1  0  0  0  0
  7 43  1  0  0  0  0
  7 44  1  0  0  0  0
  8 45  1  0  0  0  0
  8 46  1  0  0  0  0
  8 47  1  0  0  0  0
  9 10  1  0  0  0  0
 10 16  2  0  0  0  0
 10 11  1  0  0  0  0
 11 12  2  0  0  0  0
 11 48  1  0  0  0  0
 12 13  1  0  0  0  0
 12 49  1  0  0  0  0
 13 14  1  0  0  0  0
 13 15  2  0  0  0  0
 15 16  1  0  0  0  0
 15 50  1  0  0  0  0
 17 18  1  0  0  0  0
 17 29  1  0  0  0  0
 17 51  1  6  0  0  0
 18 19  1  0  0  0  0
 18 52  1  0  0  0  0
 18 53  1  0  0  0  0
 19 28  2  0  0  0  0
 19 20  1  0  0  0  0
 20 21  2  0  0  0  0
 20 54  1  0  0  0  0
 21 22  1  0  0  0  0
 21 55  1  0  0  0  0
 22 23  1  0  0  0  0
 22 27  2  0  0  0  0
 23 24  1  0  0  0  0
 24 25  1  0  0  0  0
 24 56  1  0  0  0  0
 24 57  1  0  0  0  0
 25 26  1  0  0  0  0
 25 58  1  0  0  0  0
 25 59  1  0  0  0  0
 27 28  1  0  0  0  0
 27 60  1  0  0  0  0
 28 61  1  0  0  0  0
 29 36  2  0  0  0  0
 29 30  1  0  0  0  0
 30 31  2  0  0  0  0
 30 62  1  0  0  0  0
 31 32  1  0  0  0  0
 31 63  1  0  0  0  0
 32 33  2  0  0  0  0
 32 64  1  0  0  0  0
 33 34  1  0  0  0  0
 33 36  1  0  0  0  0
 34 35  3  0  0  0  0
 36 65  1  0  0  0  0
M  END
$$$$
CHEMBL376767	5U09	best_smi
 OpenBabel12022417383D

 68 70  0  0  1  0  0  0  0  0999 V2000
    3.0775   -1.4402    1.0722 C   0  0  0  0  0  0  0  0  0  0  0  0
    2.4936   -0.1992    0.3689 C   0  0  2  0  0  0  0  0  0  0  0  0
    1.0308   -0.2999    0.3626 N   0  0  0  0  0  0  0  0  0  0  0  0
    0.2780   -0.2679    1.5325 C   0  0  0  0  0  0  0  0  0  0  0  0
    0.8002    0.0517    2.6037 O   0  0  0  0  0  0  0  0  0  0  0  0
   -1.2378   -0.6358    1.4206 C   0  0  0  0  0  0  0  0  0  0  0  0
   -1.4767   -1.5130    0.1746 C   0  0  0  0  0  0  0  0  0  0  0  0
   -1.5893   -1.3956    2.7166 C   0  0  0  0  0  0  0  0  0  0  0  0
   -1.9106    0.6421    1.3536 O   0  0  0  0  0  0  0  0  0  0  0  0
   -3.2857    0.6426    1.2739 C   0  0  0  0  0  0  0  0  0  0  0  0
   -3.9313    1.8672    1.2591 C   0  0  0  0  0  0  0  0  0  0  0  0
   -5.3128    1.8879    1.0460 C   0  0  0  0  0  0  0  0  0  0  0  0
   -6.0032    0.6871    0.8517 C   0  0  0  0  0  0  0  0  0  0  0  0
   -7.4602    0.6007    0.5281 C   0  0  0  0  0  0  0  0  0  0  0  0
   -8.0753    1.8109    0.4420 F   0  0  0  0  0  0  0  0  0  0  0  0
   -7.6830   -0.0169   -0.6665 F   0  0  0  0  0  0  0  0  0  0  0  0
   -8.1604   -0.1154    1.4498 F   0  0  0  0  0  0  0  0  0  0  0  0
   -5.2727   -0.4843    0.9324 C   0  0  0  0  0  0  0  0  0  0  0  0
   -3.9426   -0.5232    1.1412 N   0  0  0  0  0  0  0  0  0  0  0  0
    3.0823   -0.0446   -1.0786 C   0  0  1  0  0  0  0  0  0  0  0  0
    2.4581    1.1159   -1.9114 C   0  0  0  0  0  0  0  0  0  0  0  0
    2.7059    2.5679   -1.5690 C   0  0  0  0  0  0  0  0  0  0  0  0
    2.2487    3.5411   -2.4691 C   0  0  0  0  0  0  0  0  0  0  0  0
    2.5242    4.8969   -2.2688 C   0  0  0  0  0  0  0  0  0  0  0  0
    3.2805    5.3105   -1.1732 C   0  0  0  0  0  0  0  0  0  0  0  0
    3.6858    6.5899   -0.9110 O   0  0  0  0  0  0  0  0  0  0  0  0
    3.3863    7.5399   -1.9289 C   0  0  0  0  0  0  0  0  0  0  0  0
    4.0338    8.8692   -1.6029 C   0  0  0  0  0  0  0  0  0  0  0  0
    3.6859    9.7691   -2.5623 F   0  0  0  0  0  0  0  0  0  0  0  0
    3.6805    4.3638   -0.2412 C   0  0  0  0  0  0  0  0  0  0  0  0
    3.3698    3.0165   -0.4282 C   0  0  0  0  0  0  0  0  0  0  0  0
    4.6136   -0.0740   -1.1849 C   0  0  0  0  0  0  0  0  0  0  0  0
    5.2308   -0.6494   -2.3067 C   0  0  0  0  0  0  0  0  0  0  0  0
    6.6212   -0.7601   -2.3677 C   0  0  0  0  0  0  0  0  0  0  0  0
    7.1851   -1.3509   -3.4294 F   0  0  0  0  0  0  0  0  0  0  0  0
    7.4363   -0.2970   -1.3417 C   0  0  0  0  0  0  0  0  0  0  0  0
    6.8475    0.2996   -0.2314 C   0  0  0  0  0  0  0  0  0  0  0  0
    7.6479    0.7733    0.8635 C   0  0  0  0  0  0  0  0  0  0  0  0
    8.2725    1.1516    1.7592 N   0  0  0  0  0  0  0  0  0  0  0  0
    5.4512    0.4077   -0.1624 C   0  0  0  0  0  0  0  0  0  0  0  0
    4.1674   -1.4184    1.1293 H   0  0  0  0  0  0  0  0  0  0  0  0
    2.7847   -2.3595    0.5555 H   0  0  0  0  0  0  0  0  0  0  0  0
    2.7258   -1.5114    2.1055 H   0  0  0  0  0  0  0  0  0  0  0  0
    2.7327    0.6675    0.9873 H   0  0  0  0  0  0  0  0  0  0  0  0
    0.5876   -0.5876   -0.4948 H   0  0  0  0  0  0  0  0  0  0  0  0
   -0.7551   -2.3334    0.1181 H   0  0  0  0  0  0  0  0  0  0  0  0
   -1.4107   -0.9111   -0.7403 H   0  0  0  0  0  0  0  0  0  0  0  0
   -2.4644   -1.9789    0.1523 H   0  0  0  0  0  0  0  0  0  0  0  0
   -0.8575   -2.1827    2.9289 H   0  0  0  0  0  0  0  0  0  0  0  0
   -2.5692   -1.8806    2.6642 H   0  0  0  0  0  0  0  0  0  0  0  0
   -1.6220   -0.7155    3.5763 H   0  0  0  0  0  0  0  0  0  0  0  0
   -3.3721    2.7880    1.3863 H   0  0  0  0  0  0  0  0  0  0  0  0
   -5.8392    2.8396    1.0098 H   0  0  0  0  0  0  0  0  0  0  0  0
   -5.7391   -1.4587    0.8059 H   0  0  0  0  0  0  0  0  0  0  0  0
    2.7489   -0.9576   -1.6017 H   0  0  0  0  0  0  0  0  0  0  0  0
    1.3701    0.9726   -1.9599 H   0  0  0  0  0  0  0  0  0  0  0  0
    2.8103    0.9872   -2.9478 H   0  0  0  0  0  0  0  0  0  0  0  0
    1.6794    3.2511   -3.3505 H   0  0  0  0  0  0  0  0  0  0  0  0
    2.1425    5.6005   -3.0014 H   0  0  0  0  0  0  0  0  0  0  0  0
    2.3020    7.6809   -1.9969 H   0  0  0  0  0  0  0  0  0  0  0  0
    3.7693    7.2040   -2.9006 H   0  0  0  0  0  0  0  0  0  0  0  0
    5.1246    8.7870   -1.5836 H   0  0  0  0  0  0  0  0  0  0  0  0
    3.7035    9.2494   -0.6319 H   0  0  0  0  0  0  0  0  0  0  0  0
    4.2451    4.6636    0.6380 H   0  0  0  0  0  0  0  0  0  0  0  0
    3.6823    2.3504    0.3575 H   0  0  0  0  0  0  0  0  0  0  0  0
    4.6461   -1.0454   -3.1335 H   0  0  0  0  0  0  0  0  0  0  0  0
    8.5114   -0.4190   -1.4123 H   0  0  0  0  0  0  0  0  0  0  0  0
    5.0290    0.8410    0.7417 H   0  0  0  0  0  0  0  0  0  0  0  0
  1 41  1  0  0  0  0
  1 42  1  0  0  0  0
  1 43  1  0  0  0  0
  2 20  1  0  0  0  0
  2  3  1  0  0  0  0
  2  1  1  0  0  0  0
  2 44  1  1  0  0  0
  3  4  1  0  0  0  0
  3 45  1  0  0  0  0
  4  5  2  0  0  0  0
  4  6  1  0  0  0  0
  6  7  1  0  0  0  0
  6  8  1  0  0  0  0
  6  9  1  0  0  0  0
  7 46  1  0  0  0  0
  7 47  1  0  0  0  0
  7 48  1  0  0  0  0
  8 49  1  0  0  0  0
  8 50  1  0  0  0  0
  8 51  1  0  0  0  0
  9 10  1  0  0  0  0
 10 19  2  0  0  0  0
 10 11  1  0  0  0  0
 11 12  2  0  0  0  0
 11 52  1  0  0  0  0
 12 13  1  0  0  0  0
 12 53  1  0  0  0  0
 13 14  1  0  0  0  0
 13 18  2  0  0  0  0
 14 15  1  0  0  0  0
 14 16  1  0  0  0  0
 14 17  1  0  0  0  0
 18 19  1  0  0  0  0
 18 54  1  0  0  0  0
 20 21  1  0  0  0  0
 20 32  1  0  0  0  0
 20 55  1  6  0  0  0
 21 22  1  0  0  0  0
 21 56  1  0  0  0  0
 21 57  1  0  0  0  0
 22 31  2  0  0  0  0
 22 23  1  0  0  0  0
 23 24  2  0  0  0  0
 23 58  1  0  0  0  0
 24 25  1  0  0  0  0
 24 59  1  0  0  0  0
 25 26  1  0  0  0  0
 25 30  2  0  0  0  0
 26 27  1  0  0  0  0
 27 28  1  0  0  0  0
 27 60  1  0  0  0  0
 27 61  1  0  0  0  0
 28 29  1  0  0  0  0
 28 62  1  0  0  0  0
 28 63  1  0  0  0  0
 30 31  1  0  0  0  0
 30 64  1  0  0  0  0
 31 65  1  0  0  0  0
 32 40  2  0  0  0  0
 32 33  1  0  0  0  0
 33 34  2  0  0  0  0
 33 66  1  0  0  0  0
 34 35  1  0  0  0  0
 34 36  1  0  0  0  0
 36 37  2  0  0  0  0
 36 67  1  0  0  0  0
 37 38  1  0  0  0  0
 37 40  1  0  0  0  0
 38 39  3  0  0  0  0
 40 68  1  0  0  0  0
M  END
$$$$
CHEMBL226642	5U09	best_smi
 OpenBabel12022417383D

 68 70  0  0  1  0  0  0  0  0999 V2000
    2.1173    3.7115    0.8552 C   0  0  0  0  0  0  0  0  0  0  0  0
    0.6440    3.4494    0.8101 C   0  0  0  0  0  0  0  0  0  0  0  0
   -0.2943    4.4831    0.8720 C   0  0  0  0  0  0  0  0  0  0  0  0
   -1.6645    4.1927    0.8297 C   0  0  0  0  0  0  0  0  0  0  0  0
   -2.0552    2.8711    0.7111 C   0  0  0  0  0  0  0  0  0  0  0  0
   -3.4147    2.5861    0.6308 O   0  0  0  0  0  0  0  0  0  0  0  0
   -3.7481    1.3505   -0.0430 C   0  0  0  0  0  0  0  0  0  0  0  0
   -3.2435    1.3955   -1.5010 C   0  0  0  0  0  0  0  0  0  0  0  0
   -3.2933    0.1081    0.7593 C   0  0  0  0  0  0  0  0  0  0  0  0
   -5.2880    1.1456   -0.2190 C   0  0  0  0  0  0  0  0  0  0  0  0
   -5.7401    0.0984   -0.6914 O   0  0  0  0  0  0  0  0  0  0  0  0
   -6.1308    2.1969    0.0975 N   0  0  0  0  0  0  0  0  0  0  0  0
   -7.5892    1.9715    0.0382 C   0  0  1  0  0  0  0  0  0  0  0  0
   -8.0081    1.2329    1.3263 C   0  0  0  0  0  0  0  0  0  0  0  0
   -8.4248    3.2734   -0.1873 C   0  0  1  0  0  0  0  0  0  0  0  0
   -7.9950    4.1252   -1.4058 C   0  0  0  0  0  0  0  0  0  0  0  0
   -8.0487    3.5278   -2.7959 C   0  0  0  0  0  0  0  0  0  0  0  0
   -6.8766    3.0084   -3.3499 C   0  0  0  0  0  0  0  0  0  0  0  0
   -6.8188    2.6644   -4.6964 C   0  0  0  0  0  0  0  0  0  0  0  0
   -7.9357    2.7981   -5.5168 C   0  0  0  0  0  0  0  0  0  0  0  0
   -7.6756    2.5883   -6.8372 O   0  0  0  0  0  0  0  0  0  0  0  0
   -8.7050    2.0283   -7.6454 C   0  0  0  0  0  0  0  0  0  0  0  0
   -8.0845    1.7664   -9.0115 C   0  0  0  0  0  0  0  0  0  0  0  0
   -9.0028    1.2062   -9.8390 F   0  0  0  0  0  0  0  0  0  0  0  0
   -9.1393    3.2350   -4.9682 C   0  0  0  0  0  0  0  0  0  0  0  0
   -9.1931    3.6035   -3.6085 C   0  0  0  0  0  0  0  0  0  0  0  0
   -9.9444    3.0813   -0.1967 C   0  0  0  0  0  0  0  0  0  0  0  0
  -10.7682    4.1185    0.2729 C   0  0  0  0  0  0  0  0  0  0  0  0
  -12.1523    3.9550    0.3533 C   0  0  0  0  0  0  0  0  0  0  0  0
  -12.7353    2.7459   -0.0217 C   0  0  0  0  0  0  0  0  0  0  0  0
  -11.9399    1.7135   -0.5225 C   0  0  0  0  0  0  0  0  0  0  0  0
  -12.5343    0.4550   -0.8813 C   0  0  0  0  0  0  0  0  0  0  0  0
  -13.0053   -0.5736   -1.1402 N   0  0  0  0  0  0  0  0  0  0  0  0
  -10.5546    1.9000   -0.6436 C   0  0  0  0  0  0  0  0  0  0  0  0
   -1.1650    1.8621    0.6713 N   0  0  0  0  0  0  0  0  0  0  0  0
    0.1500    2.1612    0.7134 C   0  0  0  0  0  0  0  0  0  0  0  0
    2.6822    2.7782    0.7655 H   0  0  0  0  0  0  0  0  0  0  0  0
    2.3907    4.1709    1.8097 H   0  0  0  0  0  0  0  0  0  0  0  0
    2.4167    4.3649    0.0350 H   0  0  0  0  0  0  0  0  0  0  0  0
    0.0364    5.5161    0.9476 H   0  0  0  0  0  0  0  0  0  0  0  0
   -2.3985    4.9882    0.8653 H   0  0  0  0  0  0  0  0  0  0  0  0
   -2.1591    1.5017   -1.5832 H   0  0  0  0  0  0  0  0  0  0  0  0
   -3.6725    2.2684   -2.0107 H   0  0  0  0  0  0  0  0  0  0  0  0
   -3.5308    0.5028   -2.0648 H   0  0  0  0  0  0  0  0  0  0  0  0
   -2.2418   -0.1446    0.6031 H   0  0  0  0  0  0  0  0  0  0  0  0
   -3.8450   -0.8003    0.4985 H   0  0  0  0  0  0  0  0  0  0  0  0
   -3.4330    0.2826    1.8337 H   0  0  0  0  0  0  0  0  0  0  0  0
   -5.7542    2.8849    0.7409 H   0  0  0  0  0  0  0  0  0  0  0  0
   -7.7753    1.2971   -0.8061 H   0  0  0  0  0  0  0  0  0  0  0  0
   -7.7631    1.8240    2.2148 H   0  0  0  0  0  0  0  0  0  0  0  0
   -7.4864    0.2735    1.4150 H   0  0  0  0  0  0  0  0  0  0  0  0
   -9.0769    1.0071    1.3605 H   0  0  0  0  0  0  0  0  0  0  0  0
   -8.2103    3.8985    0.6941 H   0  0  0  0  0  0  0  0  0  0  0  0
   -6.9680    4.4750   -1.2297 H   0  0  0  0  0  0  0  0  0  0  0  0
   -8.5841    5.0536   -1.4270 H   0  0  0  0  0  0  0  0  0  0  0  0
   -5.9727    2.9280   -2.7507 H   0  0  0  0  0  0  0  0  0  0  0  0
   -5.8799    2.3208   -5.1212 H   0  0  0  0  0  0  0  0  0  0  0  0
   -9.5503    2.7148   -7.7580 H   0  0  0  0  0  0  0  0  0  0  0  0
   -9.0626    1.0842   -7.2190 H   0  0  0  0  0  0  0  0  0  0  0  0
   -7.2250    1.0917   -8.9333 H   0  0  0  0  0  0  0  0  0  0  0  0
   -7.7264    2.6966   -9.4661 H   0  0  0  0  0  0  0  0  0  0  0  0
  -10.0243    3.3664   -5.5828 H   0  0  0  0  0  0  0  0  0  0  0  0
  -10.1217    4.0098   -3.2120 H   0  0  0  0  0  0  0  0  0  0  0  0
  -10.3334    5.0641    0.5937 H   0  0  0  0  0  0  0  0  0  0  0  0
  -12.7738    4.7646    0.7288 H   0  0  0  0  0  0  0  0  0  0  0  0
  -13.8096    2.6119    0.0836 H   0  0  0  0  0  0  0  0  0  0  0  0
   -9.9552    1.0836   -1.0475 H   0  0  0  0  0  0  0  0  0  0  0  0
    0.8105    1.2990    0.6574 H   0  0  0  0  0  0  0  0  0  0  0  0
  1  2  1  0  0  0  0
  1 37  1  0  0  0  0
  1 38  1  0  0  0  0
  1 39  1  0  0  0  0
  2 36  2  0  0  0  0
  2  3  1  0  0  0  0
  3  4  2  0  0  0  0
  3 40  1  0  0  0  0
  4  5  1  0  0  0  0
  4 41  1  0  0  0  0
  5  6  1  0  0  0  0
  5 35  2  0  0  0  0
  6  7  1  0  0  0  0
  7  8  1  0  0  0  0
  7  9  1  0  0  0  0
  7 10  1  0  0  0  0
  8 42  1  0  0  0  0
  8 43  1  0  0  0  0
  8 44  1  0  0  0  0
  9 45  1  0  0  0  0
  9 46  1  0  0  0  0
  9 47  1  0  0  0  0
 10 11  2  0  0  0  0
 10 12  1  0  0  0  0
 12 13  1  0  0  0  0
 12 48  1  0  0  0  0
 13 14  1  0  0  0  0
 13 15  1  0  0  0  0
 13 49  1  6  0  0  0
 14 50  1  0  0  0  0
 14 51  1  0  0  0  0
 14 52  1  0  0  0  0
 15 16  1  0  0  0  0
 15 27  1  0  0  0  0
 15 53  1  1  0  0  0
 16 17  1  0  0  0  0
 16 54  1  0  0  0  0
 16 55  1  0  0  0  0
 17 26  2  0  0  0  0
 17 18  1  0  0  0  0
 18 19  2  0  0  0  0
 18 56  1  0  0  0  0
 19 20  1  0  0  0  0
 19 57  1  0  0  0  0
 20 21  1  0  0  0  0
 20 25  2  0  0  0  0
 21 22  1  0  0  0  0
 22 23  1  0  0  0  0
 22 58  1  0  0  0  0
 22 59  1  0  0  0  0
 23 24  1  0  0  0  0
 23 60  1  0  0  0  0
 23 61  1  0  0  0  0
 25 26  1  0  0  0  0
 25 62  1  0  0  0  0
 26 63  1  0  0  0  0
 27 34  2  0  0  0  0
 27 28  1  0  0  0  0
 28 29  2  0  0  0  0
 28 64  1  0  0  0  0
 29 30  1  0  0  0  0
 29 65  1  0  0  0  0
 30 31  2  0  0  0  0
 30 66  1  0  0  0  0
 31 32  1  0  0  0  0
 31 34  1  0  0  0  0
 32 33  3  0  0  0  0
 34 67  1  0  0  0  0
 35 36  1  0  0  0  0
 36 68  1  0  0  0  0
M  ISO  1  24  18
M  END
$$$$
CHEMBL468313	5U09	best_smi
 OpenBabel12022417383D

 61 63  0  0  1  0  0  0  0  0999 V2000
    0.9468   -0.0726   -0.1840 C   0  0  0  0  0  0  0  0  0  0  0  0
    2.4765   -0.0263   -0.1063 C   0  0  3  0  0  0  0  0  0  0  0  0
    2.8786    1.2887   -0.6169 N   0  0  0  0  0  0  0  0  0  0  0  0
    3.1890    1.5039   -1.9480 C   0  0  0  0  0  0  0  0  0  0  0  0
    3.0530    0.6077   -2.7830 O   0  0  0  0  0  0  0  0  0  0  0  0
    3.7979    2.8884   -2.3166 C   0  0  0  0  0  0  0  0  0  0  0  0
    3.8674    3.8396   -1.1118 C   0  0  0  0  0  0  0  0  0  0  0  0
    5.2005    2.5677   -2.8711 C   0  0  0  0  0  0  0  0  0  0  0  0
    2.8588    3.3808   -3.2949 O   0  0  0  0  0  0  0  0  0  0  0  0
    3.1230    4.6006   -3.8652 C   0  0  0  0  0  0  0  0  0  0  0  0
    2.0504    5.2952   -4.3975 C   0  0  0  0  0  0  0  0  0  0  0  0
    2.3017    6.5170   -5.0183 C   0  0  0  0  0  0  0  0  0  0  0  0
    3.6120    6.9991   -5.0968 C   0  0  0  0  0  0  0  0  0  0  0  0
    3.9773    8.2814   -5.7742 C   0  0  0  0  0  0  0  0  0  0  0  0
    2.9087    8.9419   -6.2980 F   0  0  0  0  0  0  0  0  0  0  0  0
    4.5848    9.1601   -4.9304 F   0  0  0  0  0  0  0  0  0  0  0  0
    4.8455    8.0942   -6.8059 F   0  0  0  0  0  0  0  0  0  0  0  0
    4.6120    6.2328   -4.5249 C   0  0  0  0  0  0  0  0  0  0  0  0
    4.3881    5.0521   -3.9139 N   0  0  0  0  0  0  0  0  0  0  0  0
    3.0800   -0.2805    1.3303 C   0  0  3  0  0  0  0  0  0  0  0  0
    2.6308   -1.6475    1.9428 C   0  0  0  0  0  0  0  0  0  0  0  0
    3.1431   -2.8548    1.1892 C   0  0  0  0  0  0  0  0  0  0  0  0
    2.4220   -3.3702    0.1054 C   0  0  0  0  0  0  0  0  0  0  0  0
    2.9836   -4.3407   -0.7236 C   0  0  0  0  0  0  0  0  0  0  0  0
    4.2524   -4.8364   -0.4436 C   0  0  0  0  0  0  0  0  0  0  0  0
    4.9764   -5.9750   -1.5093 Cl  0  0  0  0  0  0  0  0  0  0  0  0
    4.9447   -4.4030    0.6834 C   0  0  0  0  0  0  0  0  0  0  0  0
    4.3890   -3.4174    1.5013 C   0  0  0  0  0  0  0  0  0  0  0  0
    4.6121   -0.0797    1.4531 C   0  0  0  0  0  0  0  0  0  0  0  0
    5.4418    0.2020    0.3549 C   0  0  0  0  0  0  0  0  0  0  0  0
    6.8107    0.4458    0.4930 C   0  0  0  0  0  0  0  0  0  0  0  0
    7.4115    0.3245    1.7348 C   0  0  0  0  0  0  0  0  0  0  0  0
    6.6302   -0.0102    2.8400 C   0  0  0  0  0  0  0  0  0  0  0  0
    7.2473   -0.1992    4.1103 C   0  0  0  0  0  0  0  0  0  0  0  0
    7.7464   -0.3633    5.1519 N   0  0  0  0  0  0  0  0  0  0  0  0
    5.2389   -0.1752    2.7067 C   0  0  0  0  0  0  0  0  0  0  0  0
    0.6185    0.0978   -1.2178 H   0  0  0  0  0  0  0  0  0  0  0  0
    0.4947    0.7146    0.4283 H   0  0  0  0  0  0  0  0  0  0  0  0
    0.5269   -1.0293    0.1270 H   0  0  0  0  0  0  0  0  0  0  0  0
    2.8749   -0.7825   -0.7920 H   0  0  0  0  0  0  0  0  0  0  0  0
    2.9551    2.0313    0.0605 H   0  0  0  0  0  0  0  0  0  0  0  0
    4.5325    3.4545   -0.3315 H   0  0  0  0  0  0  0  0  0  0  0  0
    2.8691    3.9917   -0.6830 H   0  0  0  0  0  0  0  0  0  0  0  0
    4.2282    4.8350   -1.3832 H   0  0  0  0  0  0  0  0  0  0  0  0
    5.7607    1.9199   -2.1897 H   0  0  0  0  0  0  0  0  0  0  0  0
    5.8197    3.4592   -3.0051 H   0  0  0  0  0  0  0  0  0  0  0  0
    5.1395    2.0654   -3.8433 H   0  0  0  0  0  0  0  0  0  0  0  0
    1.0447    4.8965   -4.3240 H   0  0  0  0  0  0  0  0  0  0  0  0
    1.4756    7.0831   -5.4455 H   0  0  0  0  0  0  0  0  0  0  0  0
    5.6534    6.5448   -4.5370 H   0  0  0  0  0  0  0  0  0  0  0  0
    2.6486    0.5021    1.9745 H   0  0  0  0  0  0  0  0  0  0  0  0
    1.5368   -1.6933    2.0055 H   0  0  0  0  0  0  0  0  0  0  0  0
    2.9570   -1.7245    2.9883 H   0  0  0  0  0  0  0  0  0  0  0  0
    1.4331   -2.9934   -0.1373 H   0  0  0  0  0  0  0  0  0  0  0  0
    2.4355   -4.6793   -1.5980 H   0  0  0  0  0  0  0  0  0  0  0  0
    5.9272   -4.8040    0.9150 H   0  0  0  0  0  0  0  0  0  0  0  0
    4.9572   -3.0701    2.3609 H   0  0  0  0  0  0  0  0  0  0  0  0
    5.0538    0.2272   -0.6565 H   0  0  0  0  0  0  0  0  0  0  0  0
    7.4025    0.7064   -0.3815 H   0  0  0  0  0  0  0  0  0  0  0  0
    8.4851    0.4719    1.8295 H   0  0  0  0  0  0  0  0  0  0  0  0
    4.6592   -0.4154    3.5964 H   0  0  0  0  0  0  0  0  0  0  0  0
  1  2  1  0  0  0  0
  1 37  1  0  0  0  0
  1 38  1  0  0  0  0
  1 39  1  0  0  0  0
  2  3  1  0  0  0  0
  2 20  1  0  0  0  0
  2 40  1  0  0  0  0
  3  4  1  0  0  0  0
  3 41  1  0  0  0  0
  4  5  2  0  0  0  0
  4  6  1  0  0  0  0
  6  7  1  0  0  0  0
  6  8  1  0  0  0  0
  6  9  1  0  0  0  0
  7 42  1  0  0  0  0
  7 43  1  0  0  0  0
  7 44  1  0  0  0  0
  8 45  1  0  0  0  0
  8 46  1  0  0  0  0
  8 47  1  0  0  0  0
  9 10  1  0  0  0  0
 10 19  2  0  0  0  0
 10 11  1  0  0  0  0
 11 12  2  0  0  0  0
 11 48  1  0  0  0  0
 12 13  1  0  0  0  0
 12 49  1  0  0  0  0
 13 14  1  0  0  0  0
 13 18  2  0  0  0  0
 14 15  1  0  0  0  0
 14 16  1  0  0  0  0
 14 17  1  0  0  0  0
 18 19  1  0  0  0  0
 18 50  1  0  0  0  0
 20 21  1  0  0  0  0
 20 29  1  0  0  0  0
 20 51  1  0  0  0  0
 21 22  1  0  0  0  0
 21 52  1  0  0  0  0
 21 53  1  0  0  0  0
 22 28  2  0  0  0  0
 22 23  1  0  0  0  0
 23 24  2  0  0  0  0
 23 54  1  0  0  0  0
 24 25  1  0  0  0  0
 24 55  1  0  0  0  0
 25 26  1  0  0  0  0
 25 27  2  0  0  0  0
 27 28  1  0  0  0  0
 27 56  1  0  0  0  0
 28 57  1  0  0  0  0
 29 36  2  0  0  0  0
 29 30  1  0  0  0  0
 30 31  2  0  0  0  0
 30 58  1  0  0  0  0
 31 32  1  0  0  0  0
 31 59  1  0  0  0  0
 32 33  2  0  0  0  0
 32 60  1  0  0  0  0
 33 34  1  0  0  0  0
 33 36  1  0  0  0  0
 34 35  3  0  0  0  0
 36 61  1  0  0  0  0
M  END
$$$$
CHEMBL226684	5U09	best_smi
 OpenBabel12022417382D

 38 40  0  0  1  0  0  0  0  0999 V2000
    2.5981   -0.5000    0.0000 C   0  0  0  0  0  0  0  0  0  0  0  0
    1.7321   -0.0000    0.0000 O   0  0  0  0  0  0  0  0  0  0  0  0
    0.8660   -0.5000    0.0000 C   0  0  0  0  0  0  0  0  0  0  0  0
    0.8660   -1.5000    0.0000 C   0  0  0  0  0  0  0  0  0  0  0  0
    0.0000   -2.0000    0.0000 C   0  0  0  0  0  0  0  0  0  0  0  0
   -0.8660   -1.5000    0.0000 C   0  0  0  0  0  0  0  0  0  0  0  0
   -1.7321   -2.0000    0.0000 C   0  0  0  0  0  0  0  0  0  0  0  0
   -1.7321   -3.0000    0.0000 C   0  0  1  0  0  0  0  0  0  0  0  0
   -2.5981   -3.5000    0.0000 C   0  0  0  0  0  0  0  0  0  0  0  0
   -2.5981   -4.5000    0.0000 C   0  0  0  0  0  0  0  0  0  0  0  0
   -3.4641   -5.0000    0.0000 C   0  0  0  0  0  0  0  0  0  0  0  0
   -3.4641   -6.0000    0.0000 F   0  0  0  0  0  0  0  0  0  0  0  0
   -4.3301   -4.5000    0.0000 C   0  0  0  0  0  0  0  0  0  0  0  0
   -4.3301   -3.5000    0.0000 C   0  0  0  0  0  0  0  0  0  0  0  0
   -5.1962   -3.0000    0.0000 C   0  0  0  0  0  0  0  0  0  0  0  0
   -6.0622   -2.5000    0.0000 N   0  0  0  0  0  0  0  0  0  0  0  0
   -3.4641   -3.0000    0.0000 C   0  0  0  0  0  0  0  0  0  0  0  0
   -0.8660   -3.5000    0.0000 C   0  0  2  0  0  0  0  0  0  0  0  0
   -0.8660   -4.5000    0.0000 C   0  0  0  0  0  0  0  0  0  0  0  0
   -0.0000   -3.0000    0.0000 N   0  0  0  0  0  0  0  0  0  0  0  0
    0.8660   -3.5000    0.0000 C   0  0  0  0  0  0  0  0  0  0  0  0
    0.8660   -4.5000    0.0000 O   0  0  0  0  0  0  0  0  0  0  0  0
    1.7321   -3.0000    0.0000 C   0  0  0  0  0  0  0  0  0  0  0  0
    2.2321   -2.1340    0.0000 C   0  0  0  0  0  0  0  0  0  0  0  0
    1.2321   -2.1340    0.0000 C   0  0  0  0  0  0  0  0  0  0  0  0
    2.5981   -3.5000    0.0000 O   0  0  0  0  0  0  0  0  0  0  0  0
    2.5981   -4.5000    0.0000 C   0  0  0  0  0  0  0  0  0  0  0  0
    3.4641   -5.0000    0.0000 C   0  0  0  0  0  0  0  0  0  0  0  0
    3.4641   -6.0000    0.0000 C   0  0  0  0  0  0  0  0  0  0  0  0
    2.5981   -6.5000    0.0000 C   0  0  0  0  0  0  0  0  0  0  0  0
    2.5981   -7.5000    0.0000 C   0  0  0  0  0  0  0  0  0  0  0  0
    3.0981   -8.3660    0.0000 F   0  0  0  0  0  0  0  0  0  0  0  0
    3.5981   -7.5000    0.0000 F   0  0  0  0  0  0  0  0  0  0  0  0
    1.7321   -8.0000    0.0000 F   0  0  0  0  0  0  0  0  0  0  0  0
    1.7321   -6.0000    0.0000 C   0  0  0  0  0  0  0  0  0  0  0  0
    1.7321   -5.0000    0.0000 N   0  0  0  0  0  0  0  0  0  0  0  0
   -0.8660   -0.5000    0.0000 C   0  0  0  0  0  0  0  0  0  0  0  0
   -0.0000   -0.0000    0.0000 C   0  0  0  0  0  0  0  0  0  0  0  0
  1  2  1  0  0  0  0
  2  3  1  0  0  0  0
  3 38  2  0  0  0  0
  3  4  1  0  0  0  0
  4  5  2  0  0  0  0
  5  6  1  0  0  0  0
  6  7  1  0  0  0  0
  6 37  2  0  0  0  0
  8  7  1  6  0  0  0
  8  9  1  0  0  0  0
  8 18  1  0  0  0  0
  9 17  2  0  0  0  0
  9 10  1  0  0  0  0
 10 11  2  0  0  0  0
 11 12  1  0  0  0  0
 11 13  1  0  0  0  0
 13 14  2  0  0  0  0
 14 15  1  0  0  0  0
 14 17  1  0  0  0  0
 15 16  3  0  0  0  0
 18 19  1  1  0  0  0
 18 20  1  0  0  0  0
 20 21  1  0  0  0  0
 21 22  2  0  0  0  0
 21 23  1  0  0  0  0
 23 24  1  0  0  0  0
 23 25  1  0  0  0  0
 23 26  1  0  0  0  0
 26 27  1  0  0  0  0
 27 36  2  0  0  0  0
 27 28  1  0  0  0  0
 28 29  2  0  0  0  0
 29 30  1  0  0  0  0
 30 31  1  0  0  0  0
 30 35  2  0  0  0  0
 31 32  1  0  0  0  0
 31 33  1  0  0  0  0
 31 34  1  0  0  0  0
 35 36  1  0  0  0  0
 37 38  1  0  0  0  0
M  END
$$$$
CHEMBL572271	5U09	best_smi
 OpenBabel12022417383D

 59 61  0  0  1  0  0  0  0  0999 V2000
    0.6126    1.3105    0.2309 C   0  0  0  0  0  0  0  0  0  0  0  0
    0.0547   -0.0217   -0.0606 C   0  0  0  0  0  0  0  0  0  0  0  0
   -1.1120   -0.6798    0.2537 C   0  0  0  0  0  0  0  0  0  0  0  0
   -0.9927   -1.9497   -0.3698 C   0  0  0  0  0  0  0  0  0  0  0  0
   -1.9556   -2.9195   -0.2650 N   0  0  0  0  0  0  0  0  0  0  0  0
   -1.7139   -4.2686   -0.8683 C   0  0  0  0  0  0  0  0  0  0  0  0
   -1.4996   -4.1597   -2.3934 C   0  0  0  0  0  0  0  0  0  0  0  0
   -0.5493   -4.9603   -0.1416 C   0  0  0  0  0  0  0  0  0  0  0  0
   -2.9400   -5.2298   -0.7308 C   0  0  0  0  0  0  0  0  0  0  0  0
   -2.9325   -6.3430   -1.2608 O   0  0  0  0  0  0  0  0  0  0  0  0
   -4.0248   -4.7966    0.0123 N   0  0  0  0  0  0  0  0  0  0  0  0
   -5.3488   -5.4592   -0.1097 C   0  0  1  0  0  0  0  0  0  0  0  0
   -5.8940   -5.0779   -1.5036 C   0  0  0  0  0  0  0  0  0  0  0  0
   -5.3895   -7.0192    0.1708 C   0  0  1  0  0  0  0  0  0  0  0  0
   -4.5904   -7.4270    1.4503 C   0  0  0  0  0  0  0  0  0  0  0  0
   -5.2172   -7.0494    2.7747 C   0  0  0  0  0  0  0  0  0  0  0  0
   -4.8020   -5.8993    3.4559 C   0  0  0  0  0  0  0  0  0  0  0  0
   -5.4237   -5.5224    4.6512 C   0  0  0  0  0  0  0  0  0  0  0  0
   -6.4574   -6.2978    5.1714 C   0  0  0  0  0  0  0  0  0  0  0  0
   -7.2682   -5.7978    6.6037 Cl  0  0  0  0  0  0  0  0  0  0  0  0
   -6.8516   -7.4720    4.5305 C   0  0  0  0  0  0  0  0  0  0  0  0
   -6.2206   -7.8487    3.3469 C   0  0  0  0  0  0  0  0  0  0  0  0
   -6.7753   -7.7013    0.1294 C   0  0  0  0  0  0  0  0  0  0  0  0
   -6.8530   -9.1086    0.1791 C   0  0  0  0  0  0  0  0  0  0  0  0
   -8.0785   -9.7783    0.1064 C   0  0  0  0  0  0  0  0  0  0  0  0
   -9.2516   -9.0606   -0.1044 C   0  0  0  0  0  0  0  0  0  0  0  0
   -9.2017   -7.6697   -0.1812 C   0  0  0  0  0  0  0  0  0  0  0  0
  -10.3805   -6.9201   -0.5096 C   0  0  0  0  0  0  0  0  0  0  0  0
  -11.3136   -6.3042   -0.8154 N   0  0  0  0  0  0  0  0  0  0  0  0
   -7.9831   -6.9988    0.0012 C   0  0  0  0  0  0  0  0  0  0  0  0
    0.1762   -2.0317   -1.0096 N   0  0  0  0  0  0  0  0  0  0  0  0
    0.8274   -0.8390   -0.8192 O   0  0  0  0  0  0  0  0  0  0  0  0
    1.6207    1.4206   -0.1859 H   0  0  0  0  0  0  0  0  0  0  0  0
    0.6792    1.4705    1.3111 H   0  0  0  0  0  0  0  0  0  0  0  0
   -0.0163    2.0942   -0.1986 H   0  0  0  0  0  0  0  0  0  0  0  0
   -1.9346   -0.2919    0.8336 H   0  0  0  0  0  0  0  0  0  0  0  0
   -2.3485   -2.9929    0.6691 H   0  0  0  0  0  0  0  0  0  0  0  0
   -0.6539   -3.5321   -2.6805 H   0  0  0  0  0  0  0  0  0  0  0  0
   -2.3904   -3.7362   -2.8753 H   0  0  0  0  0  0  0  0  0  0  0  0
   -1.3195   -5.1414   -2.8452 H   0  0  0  0  0  0  0  0  0  0  0  0
    0.4234   -4.6135   -0.5020 H   0  0  0  0  0  0  0  0  0  0  0  0
   -0.5710   -6.0480   -0.2667 H   0  0  0  0  0  0  0  0  0  0  0  0
   -0.5936   -4.7630    0.9372 H   0  0  0  0  0  0  0  0  0  0  0  0
   -4.0632   -3.7918    0.1329 H   0  0  0  0  0  0  0  0  0  0  0  0
   -5.9720   -4.9656    0.6464 H   0  0  0  0  0  0  0  0  0  0  0  0
   -5.2140   -5.3872   -2.3031 H   0  0  0  0  0  0  0  0  0  0  0  0
   -6.0012   -3.9883   -1.5708 H   0  0  0  0  0  0  0  0  0  0  0  0
   -6.8682   -5.5049   -1.7395 H   0  0  0  0  0  0  0  0  0  0  0  0
   -4.8611   -7.4875   -0.6704 H   0  0  0  0  0  0  0  0  0  0  0  0
   -3.5757   -7.0138    1.4060 H   0  0  0  0  0  0  0  0  0  0  0  0
   -4.4248   -8.5131    1.4596 H   0  0  0  0  0  0  0  0  0  0  0  0
   -3.9902   -5.2916    3.0632 H   0  0  0  0  0  0  0  0  0  0  0  0
   -5.0985   -4.6249    5.1668 H   0  0  0  0  0  0  0  0  0  0  0  0
   -7.6441   -8.0855    4.9403 H   0  0  0  0  0  0  0  0  0  0  0  0
   -6.5262   -8.7788    2.8736 H   0  0  0  0  0  0  0  0  0  0  0  0
   -5.9501   -9.7071    0.2924 H   0  0  0  0  0  0  0  0  0  0  0  0
   -8.1110  -10.8626    0.1864 H   0  0  0  0  0  0  0  0  0  0  0  0
  -10.1946   -9.5904   -0.2218 H   0  0  0  0  0  0  0  0  0  0  0  0
   -8.0025   -5.9123   -0.0008 H   0  0  0  0  0  0  0  0  0  0  0  0
  1  2  1  0  0  0  0
  1 33  1  0  0  0  0
  1 34  1  0  0  0  0
  1 35  1  0  0  0  0
  2 32  1  0  0  0  0
  2  3  2  0  0  0  0
  3  4  1  0  0  0  0
  3 36  1  0  0  0  0
  4  5  1  0  0  0  0
  4 31  2  0  0  0  0
  5  6  1  0  0  0  0
  5 37  1  0  0  0  0
  6  7  1  0  0  0  0
  6  8  1  0  0  0  0
  6  9  1  0  0  0  0
  7 38  1  0  0  0  0
  7 39  1  0  0  0  0
  7 40  1  0  0  0  0
  8 41  1  0  0  0  0
  8 42  1  0  0  0  0
  8 43  1  0  0  0  0
  9 10  2  0  0  0  0
  9 11  1  0  0  0  0
 11 12  1  0  0  0  0
 11 44  1  0  0  0  0
 12 13  1  0  0  0  0
 12 14  1  0  0  0  0
 12 45  1  1  0  0  0
 13 46  1  0  0  0  0
 13 47  1  0  0  0  0
 13 48  1  0  0  0  0
 14 15  1  0  0  0  0
 14 23  1  0  0  0  0
 14 49  1  6  0  0  0
 15 16  1  0  0  0  0
 15 50  1  0  0  0  0
 15 51  1  0  0  0  0
 16 22  2  0  0  0  0
 16 17  1  0  0  0  0
 17 18  2  0  0  0  0
 17 52  1  0  0  0  0
 18 19  1  0  0  0  0
 18 53  1  0  0  0  0
 19 20  1  0  0  0  0
 19 21  2  0  0  0  0
 21 22  1  0  0  0  0
 21 54  1  0  0  0  0
 22 55  1  0  0  0  0
 23 30  2  0  0  0  0
 23 24  1  0  0  0  0
 24 25  2  0  0  0  0
 24 56  1  0  0  0  0
 25 26  1  0  0  0  0
 25 57  1  0  0  0  0
 26 27  2  0  0  0  0
 26 58  1  0  0  0  0
 27 28  1  0  0  0  0
 27 30  1  0  0  0  0
 28 29  3  0  0  0  0
 30 59  1  0  0  0  0
 31 32  1  0  0  0  0
M  END
$$$$
CHEMBL584309	5U09	best_smi
 OpenBabel12022417383D

 56 58  0  0  1  0  0  0  0  0999 V2000
    2.8632   -1.6000    0.3194 C   0  0  0  0  0  0  0  0  0  0  0  0
    2.5180   -0.1089    0.1618 C   0  0  2  0  0  0  0  0  0  0  0  0
    1.0588    0.0420    0.2564 N   0  0  0  0  0  0  0  0  0  0  0  0
    0.4289    0.1402    1.4896 C   0  0  0  0  0  0  0  0  0  0  0  0
    1.0727    0.1759    2.5397 O   0  0  0  0  0  0  0  0  0  0  0  0
   -1.1440    0.2119    1.4639 C   0  0  0  0  0  0  0  0  0  0  0  0
   -1.5631    1.0135    2.7184 C   0  0  0  0  0  0  0  0  0  0  0  0
   -1.6824    0.9621    0.2348 C   0  0  0  0  0  0  0  0  0  0  0  0
   -1.7745   -1.1219    1.5605 N   0  0  0  0  0  0  0  0  0  0  0  0
   -1.5016   -2.1361    0.6973 C   0  0  0  0  0  0  0  0  0  0  0  0
   -2.0985   -3.4086    0.8125 C   0  0  0  0  0  0  0  0  0  0  0  0
   -1.5626   -4.1292   -0.2272 C   0  0  0  0  0  0  0  0  0  0  0  0
   -0.7167   -3.3437   -0.9244 O   0  0  0  0  0  0  0  0  0  0  0  0
   -0.6763   -2.0935   -0.3526 N   0  0  0  0  0  0  0  0  0  0  0  0
    3.0874    0.4757   -1.1754 C   0  0  1  0  0  0  0  0  0  0  0  0
    2.6895    1.9488   -1.4508 C   0  0  0  0  0  0  0  0  0  0  0  0
    3.1529    2.9964   -0.4640 C   0  0  0  0  0  0  0  0  0  0  0  0
    2.3322    3.3556    0.6128 C   0  0  0  0  0  0  0  0  0  0  0  0
    2.7051    4.3788    1.4849 C   0  0  0  0  0  0  0  0  0  0  0  0
    3.9065    5.0520    1.2863 C   0  0  0  0  0  0  0  0  0  0  0  0
    4.3361    6.3546    2.3251 Cl  0  0  0  0  0  0  0  0  0  0  0  0
    4.7496    4.6918    0.2378 C   0  0  0  0  0  0  0  0  0  0  0  0
    4.3754    3.6655   -0.6346 C   0  0  0  0  0  0  0  0  0  0  0  0
    4.5937    0.2826   -1.3755 C   0  0  0  0  0  0  0  0  0  0  0  0
    5.1006    0.0845   -2.6708 C   0  0  0  0  0  0  0  0  0  0  0  0
    6.4594   -0.1632   -2.8785 C   0  0  0  0  0  0  0  0  0  0  0  0
    7.3331   -0.2253   -1.7936 C   0  0  0  0  0  0  0  0  0  0  0  0
    6.8544   -0.0023   -0.5012 C   0  0  0  0  0  0  0  0  0  0  0  0
    7.7389   -0.0959    0.6232 C   0  0  0  0  0  0  0  0  0  0  0  0
    8.4531   -0.1882    1.5334 N   0  0  0  0  0  0  0  0  0  0  0  0
    5.4986    0.2797   -0.2998 C   0  0  0  0  0  0  0  0  0  0  0  0
    3.9412   -1.7791    0.3400 H   0  0  0  0  0  0  0  0  0  0  0  0
    2.4448   -2.1878   -0.5050 H   0  0  0  0  0  0  0  0  0  0  0  0
    2.4577   -2.0018    1.2536 H   0  0  0  0  0  0  0  0  0  0  0  0
    2.9566    0.4302    1.0088 H   0  0  0  0  0  0  0  0  0  0  0  0
    0.5067   -0.4557   -0.4410 H   0  0  0  0  0  0  0  0  0  0  0  0
   -1.2047    2.0485    2.6540 H   0  0  0  0  0  0  0  0  0  0  0  0
   -1.1496    0.5823    3.6382 H   0  0  0  0  0  0  0  0  0  0  0  0
   -2.6521    1.0417    2.8395 H   0  0  0  0  0  0  0  0  0  0  0  0
   -1.1210    1.8849    0.0611 H   0  0  0  0  0  0  0  0  0  0  0  0
   -2.7397    1.2214    0.3612 H   0  0  0  0  0  0  0  0  0  0  0  0
   -1.6157    0.3655   -0.6806 H   0  0  0  0  0  0  0  0  0  0  0  0
   -2.6715   -1.1262    2.0297 H   0  0  0  0  0  0  0  0  0  0  0  0
   -2.7956   -3.7713    1.5520 H   0  0  0  0  0  0  0  0  0  0  0  0
   -1.6654   -5.1440   -0.5826 H   0  0  0  0  0  0  0  0  0  0  0  0
    2.6011   -0.1081   -1.9733 H   0  0  0  0  0  0  0  0  0  0  0  0
    1.5963    2.0175   -1.5330 H   0  0  0  0  0  0  0  0  0  0  0  0
    3.0510    2.2438   -2.4467 H   0  0  0  0  0  0  0  0  0  0  0  0
    1.3827    2.8513    0.7722 H   0  0  0  0  0  0  0  0  0  0  0  0
    2.0492    4.6488    2.3081 H   0  0  0  0  0  0  0  0  0  0  0  0
    5.6899    5.2143    0.0859 H   0  0  0  0  0  0  0  0  0  0  0  0
    5.0364    3.4065   -1.4594 H   0  0  0  0  0  0  0  0  0  0  0  0
    4.4349    0.1080   -3.5322 H   0  0  0  0  0  0  0  0  0  0  0  0
    6.8344   -0.3263   -3.8864 H   0  0  0  0  0  0  0  0  0  0  0  0
    8.3838   -0.4525   -1.9617 H   0  0  0  0  0  0  0  0  0  0  0  0
    5.1491    0.4641    0.7150 H   0  0  0  0  0  0  0  0  0  0  0  0
  1 32  1  0  0  0  0
  1 33  1  0  0  0  0
  1 34  1  0  0  0  0
  2 15  1  0  0  0  0
  2  3  1  0  0  0  0
  2  1  1  0  0  0  0
  2 35  1  1  0  0  0
  3  4  1  0  0  0  0
  3 36  1  0  0  0  0
  4  5  2  0  0  0  0
  4  6  1  0  0  0  0
  6  7  1  0  0  0  0
  6  8  1  0  0  0  0
  6  9  1  0  0  0  0
  7 37  1  0  0  0  0
  7 38  1  0  0  0  0
  7 39  1  0  0  0  0
  8 40  1  0  0  0  0
  8 41  1  0  0  0  0
  8 42  1  0  0  0  0
  9 10  1  0  0  0  0
  9 43  1  0  0  0  0
 10 14  2  0  0  0  0
 10 11  1  0  0  0  0
 11 12  2  0  0  0  0
 11 44  1  0  0  0  0
 12 13  1  0  0  0  0
 12 45  1  0  0  0  0
 13 14  1  0  0  0  0
 15 16  1  0  0  0  0
 15 24  1  0  0  0  0
 15 46  1  6  0  0  0
 16 17  1  0  0  0  0
 16 47  1  0  0  0  0
 16 48  1  0  0  0  0
 17 23  2  0  0  0  0
 17 18  1  0  0  0  0
 18 19  2  0  0  0  0
 18 49  1  0  0  0  0
 19 20  1  0  0  0  0
 19 50  1  0  0  0  0
 20 21  1  0  0  0  0
 20 22  2  0  0  0  0
 22 23  1  0  0  0  0
 22 51  1  0  0  0  0
 23 52  1  0  0  0  0
 24 31  2  0  0  0  0
 24 25  1  0  0  0  0
 25 26  2  0  0  0  0
 25 53  1  0  0  0  0
 26 27  1  0  0  0  0
 26 54  1  0  0  0  0
 27 28  2  0  0  0  0
 27 55  1  0  0  0  0
 28 29  1  0  0  0  0
 28 31  1  0  0  0  0
 29 30  3  0  0  0  0
 31 56  1  0  0  0  0
M  END
$$$$
CHEMBL230189	5U09	best_smi
 OpenBabel12022417383D

 49 51  0  0  1  0  0  0  0  0999 V2000
    2.9899   -0.0145    1.5466 C   0  0  0  0  0  0  0  0  0  0  0  0
    2.4239   -0.1810    0.1373 C   0  0  2  0  0  0  0  0  0  0  0  0
    0.9515   -0.2086    0.1999 N   0  0  0  0  0  0  0  0  0  0  0  0
    0.1837   -1.2651    0.6835 C   0  0  0  0  0  0  0  0  0  0  0  0
    0.6967   -2.2646    1.1381 O   0  0  0  0  0  0  0  0  0  0  0  0
   -1.3080   -1.0487    0.6830 C   0  0  0  0  0  0  0  0  0  0  0  0
   -2.1269   -1.5695    1.7054 C   0  0  0  0  0  0  0  0  0  0  0  0
   -1.7238   -2.9754    2.6312 Cl  0  0  0  0  0  0  0  0  0  0  0  0
   -3.4336   -1.0849    1.8998 C   0  0  0  0  0  0  0  0  0  0  0  0
   -4.0131   -0.2384    0.9637 C   0  0  0  0  0  0  0  0  0  0  0  0
   -3.2943    0.0906   -0.1777 C   0  0  0  0  0  0  0  0  0  0  0  0
   -1.9492   -0.2906   -0.3084 C   0  0  0  0  0  0  0  0  0  0  0  0
   -1.2005    0.1176   -1.8168 Cl  0  0  0  0  0  0  0  0  0  0  0  0
    3.0705   -1.3059   -0.7914 C   0  0  1  0  0  0  0  0  0  0  0  0
    2.4535   -1.2477   -2.2363 C   0  0  0  0  0  0  0  0  0  0  0  0
    2.6670    0.0033   -3.0888 C   0  0  0  0  0  0  0  0  0  0  0  0
    2.1281    0.0437   -4.3865 C   0  0  0  0  0  0  0  0  0  0  0  0
    2.3188    1.1547   -5.2015 C   0  0  0  0  0  0  0  0  0  0  0  0
    3.0714    2.2450   -4.7435 C   0  0  0  0  0  0  0  0  0  0  0  0
    3.3329    3.6046   -5.7540 Cl  0  0  0  0  0  0  0  0  0  0  0  0
    3.6185    2.2198   -3.4710 C   0  0  0  0  0  0  0  0  0  0  0  0
    3.4255    1.1053   -2.6660 C   0  0  0  0  0  0  0  0  0  0  0  0
    4.6221   -1.3781   -0.8326 C   0  0  0  0  0  0  0  0  0  0  0  0
    5.3583   -1.5931    0.3389 C   0  0  0  0  0  0  0  0  0  0  0  0
    6.7577   -1.5315    0.3463 C   0  0  0  0  0  0  0  0  0  0  0  0
    7.4648   -1.3471   -0.8387 C   0  0  0  0  0  0  0  0  0  0  0  0
    6.7712   -1.2492   -2.0396 C   0  0  0  0  0  0  0  0  0  0  0  0
    7.4756   -1.1348   -3.2873 C   0  0  0  0  0  0  0  0  0  0  0  0
    8.0365   -1.0553   -4.2984 N   0  0  0  0  0  0  0  0  0  0  0  0
    5.3714   -1.2715   -2.0262 C   0  0  0  0  0  0  0  0  0  0  0  0
    4.0390    0.2977    1.5282 H   0  0  0  0  0  0  0  0  0  0  0  0
    2.8900   -0.9304    2.1379 H   0  0  0  0  0  0  0  0  0  0  0  0
    2.4579    0.7801    2.0817 H   0  0  0  0  0  0  0  0  0  0  0  0
    2.6110    0.7905   -0.3185 H   0  0  0  0  0  0  0  0  0  0  0  0
    0.4835    0.6468   -0.0686 H   0  0  0  0  0  0  0  0  0  0  0  0
   -4.0264   -1.4161    2.7525 H   0  0  0  0  0  0  0  0  0  0  0  0
   -5.0437    0.0879    1.0814 H   0  0  0  0  0  0  0  0  0  0  0  0
   -3.7888    0.6340   -0.9794 H   0  0  0  0  0  0  0  0  0  0  0  0
    2.7578   -2.2790   -0.3834 H   0  0  0  0  0  0  0  0  0  0  0  0
    1.3721   -1.4068   -2.1686 H   0  0  0  0  0  0  0  0  0  0  0  0
    2.8342   -2.1112   -2.8046 H   0  0  0  0  0  0  0  0  0  0  0  0
    1.5682   -0.8097   -4.7742 H   0  0  0  0  0  0  0  0  0  0  0  0
    1.8824    1.1743   -6.2062 H   0  0  0  0  0  0  0  0  0  0  0  0
    4.2059    3.0515   -3.0989 H   0  0  0  0  0  0  0  0  0  0  0  0
    3.9385    1.1196   -1.7113 H   0  0  0  0  0  0  0  0  0  0  0  0
    4.8567   -1.8026    1.2807 H   0  0  0  0  0  0  0  0  0  0  0  0
    7.2951   -1.6318    1.2857 H   0  0  0  0  0  0  0  0  0  0  0  0
    8.5513   -1.3089   -0.8224 H   0  0  0  0  0  0  0  0  0  0  0  0
    4.8897   -1.1842   -2.9964 H   0  0  0  0  0  0  0  0  0  0  0  0
  1 31  1  0  0  0  0
  1 32  1  0  0  0  0
  1 33  1  0  0  0  0
  2 14  1  0  0  0  0
  2  3  1  0  0  0  0
  2  1  1  0  0  0  0
  2 34  1  6  0  0  0
  3  4  1  0  0  0  0
  3 35  1  0  0  0  0
  4  5  2  0  0  0  0
  4  6  1  0  0  0  0
  6 12  2  0  0  0  0
  6  7  1  0  0  0  0
  7  8  1  0  0  0  0
  7  9  2  0  0  0  0
  9 10  1  0  0  0  0
  9 36  1  0  0  0  0
 10 11  2  0  0  0  0
 10 37  1  0  0  0  0
 11 12  1  0  0  0  0
 11 38  1  0  0  0  0
 12 13  1  0  0  0  0
 14 15  1  0  0  0  0
 14 23  1  0  0  0  0
 14 39  1  1  0  0  0
 15 16  1  0  0  0  0
 15 40  1  0  0  0  0
 15 41  1  0  0  0  0
 16 22  2  0  0  0  0
 16 17  1  0  0  0  0
 17 18  2  0  0  0  0
 17 42  1  0  0  0  0
 18 19  1  0  0  0  0
 18 43  1  0  0  0  0
 19 20  1  0  0  0  0
 19 21  2  0  0  0  0
 21 22  1  0  0  0  0
 21 44  1  0  0  0  0
 22 45  1  0  0  0  0
 23 30  2  0  0  0  0
 23 24  1  0  0  0  0
 24 25  2  0  0  0  0
 24 46  1  0  0  0  0
 25 26  1  0  0  0  0
 25 47  1  0  0  0  0
 26 27  2  0  0  0  0
 26 48  1  0  0  0  0
 27 28  1  0  0  0  0
 27 30  1  0  0  0  0
 28 29  3  0  0  0  0
 30 49  1  0  0  0  0
M  END
$$$$
CHEMBL567876	5U09	best_smi
 OpenBabel12022417383D

 62 64  0  0  1  0  0  0  0  0999 V2000
   -0.5526   -2.3113    5.5459 C   0  0  0  0  0  0  0  0  0  0  0  0
    0.2943   -2.9441    4.4834 C   0  0  0  0  0  0  0  0  0  0  0  0
    1.5691   -3.4116    4.7872 C   0  0  0  0  0  0  0  0  0  0  0  0
    2.3278   -3.9521    3.7646 C   0  0  0  0  0  0  0  0  0  0  0  0
    1.9065   -4.0608    2.4854 N   0  0  0  0  0  0  0  0  0  0  0  0
    0.6732   -3.6218    2.1918 C   0  0  0  0  0  0  0  0  0  0  0  0
    0.2108   -3.7003    0.8881 N   0  0  0  0  0  0  0  0  0  0  0  0
    1.1444   -3.6840   -0.2604 C   0  0  0  0  0  0  0  0  0  0  0  0
    0.2761   -3.7853   -1.5298 C   0  0  0  0  0  0  0  0  0  0  0  0
    1.9055   -2.3466   -0.2892 C   0  0  0  0  0  0  0  0  0  0  0  0
    2.1553   -4.8622   -0.3255 C   0  0  0  0  0  0  0  0  0  0  0  0
    3.2570   -4.7434   -0.8658 O   0  0  0  0  0  0  0  0  0  0  0  0
    1.6759   -6.1004    0.0904 N   0  0  0  0  0  0  0  0  0  0  0  0
    2.6028   -7.2421    0.1348 C   0  0  1  0  0  0  0  0  0  0  0  0
    3.3743   -7.1718    1.4640 C   0  0  0  0  0  0  0  0  0  0  0  0
    1.8863   -8.6170   -0.0577 C   0  0  1  0  0  0  0  0  0  0  0  0
    0.9841   -8.6855   -1.3193 C   0  0  0  0  0  0  0  0  0  0  0  0
    1.6367   -8.5838   -2.6818 C   0  0  0  0  0  0  0  0  0  0  0  0
    1.7499   -7.3417   -3.3209 C   0  0  0  0  0  0  0  0  0  0  0  0
    2.2309   -7.2534   -4.6294 C   0  0  0  0  0  0  0  0  0  0  0  0
    2.6088   -8.4087   -5.3075 C   0  0  0  0  0  0  0  0  0  0  0  0
    3.1332   -8.3074   -6.9433 Cl  0  0  0  0  0  0  0  0  0  0  0  0
    2.5422   -9.6477   -4.6758 C   0  0  0  0  0  0  0  0  0  0  0  0
    2.0601   -9.7343   -3.3659 C   0  0  0  0  0  0  0  0  0  0  0  0
    2.8013   -9.8453    0.0037 C   0  0  0  0  0  0  0  0  0  0  0  0
    4.1372   -9.8128   -0.4277 C   0  0  0  0  0  0  0  0  0  0  0  0
    4.9530  -10.9416   -0.3313 C   0  0  0  0  0  0  0  0  0  0  0  0
    4.4363  -12.1384    0.1591 C   0  0  0  0  0  0  0  0  0  0  0  0
    3.0975  -12.2095    0.5514 C   0  0  0  0  0  0  0  0  0  0  0  0
    2.5517  -13.4507    1.0175 C   0  0  0  0  0  0  0  0  0  0  0  0
    2.1038  -14.4587    1.3813 N   0  0  0  0  0  0  0  0  0  0  0  0
    2.2883  -11.0663    0.4802 C   0  0  0  0  0  0  0  0  0  0  0  0
   -0.1618   -3.0774    3.1678 C   0  0  0  0  0  0  0  0  0  0  0  0
   -1.4617   -1.8687    5.1256 H   0  0  0  0  0  0  0  0  0  0  0  0
    0.0025   -1.5091    6.0444 H   0  0  0  0  0  0  0  0  0  0  0  0
   -0.8474   -3.0577    6.2899 H   0  0  0  0  0  0  0  0  0  0  0  0
    1.9737   -3.3446    5.7912 H   0  0  0  0  0  0  0  0  0  0  0  0
    3.3332   -4.3189    3.9483 H   0  0  0  0  0  0  0  0  0  0  0  0
   -0.6156   -4.2762    0.7901 H   0  0  0  0  0  0  0  0  0  0  0  0
   -0.4881   -3.0001   -1.5554 H   0  0  0  0  0  0  0  0  0  0  0  0
   -0.2429   -4.7502   -1.5814 H   0  0  0  0  0  0  0  0  0  0  0  0
    0.8851   -3.6963   -2.4369 H   0  0  0  0  0  0  0  0  0  0  0  0
    1.2372   -1.4973   -0.1080 H   0  0  0  0  0  0  0  0  0  0  0  0
    2.3977   -2.1874   -1.2557 H   0  0  0  0  0  0  0  0  0  0  0  0
    2.6927   -2.3180    0.4732 H   0  0  0  0  0  0  0  0  0  0  0  0
    0.9997   -6.0222    0.8433 H   0  0  0  0  0  0  0  0  0  0  0  0
    3.3243   -7.1091   -0.6785 H   0  0  0  0  0  0  0  0  0  0  0  0
    2.6880   -7.1999    2.3178 H   0  0  0  0  0  0  0  0  0  0  0  0
    3.9427   -6.2377    1.5311 H   0  0  0  0  0  0  0  0  0  0  0  0
    4.0901   -7.9888    1.5820 H   0  0  0  0  0  0  0  0  0  0  0  0
    1.1999   -8.7073    0.7992 H   0  0  0  0  0  0  0  0  0  0  0  0
    0.2115   -7.9079   -1.2522 H   0  0  0  0  0  0  0  0  0  0  0  0
    0.4140   -9.6262   -1.2991 H   0  0  0  0  0  0  0  0  0  0  0  0
    1.4402   -6.4320   -2.8139 H   0  0  0  0  0  0  0  0  0  0  0  0
    2.2899   -6.2837   -5.1156 H   0  0  0  0  0  0  0  0  0  0  0  0
    2.8436  -10.5496   -5.2022 H   0  0  0  0  0  0  0  0  0  0  0  0
    1.9944  -10.7129   -2.8947 H   0  0  0  0  0  0  0  0  0  0  0  0
    4.5729   -8.9048   -0.8402 H   0  0  0  0  0  0  0  0  0  0  0  0
    5.9933  -10.8825   -0.6437 H   0  0  0  0  0  0  0  0  0  0  0  0
    5.0819  -13.0119    0.2240 H   0  0  0  0  0  0  0  0  0  0  0  0
    1.2465  -11.1304    0.7935 H   0  0  0  0  0  0  0  0  0  0  0  0
   -1.1446   -2.7091    2.8883 H   0  0  0  0  0  0  0  0  0  0  0  0
  1  2  1  0  0  0  0
  1 34  1  0  0  0  0
  1 35  1  0  0  0  0
  1 36  1  0  0  0  0
  2 33  2  0  0  0  0
  2  3  1  0  0  0  0
  3  4  2  0  0  0  0
  3 37  1  0  0  0  0
  4  5  1  0  0  0  0
  4 38  1  0  0  0  0
  5  6  2  0  0  0  0
  6  7  1  0  0  0  0
  6 33  1  0  0  0  0
  7  8  1  0  0  0  0
  7 39  1  0  0  0  0
  8  9  1  0  0  0  0
  8 10  1  0  0  0  0
  8 11  1  0  0  0  0
  9 40  1  0  0  0  0
  9 41  1  0  0  0  0
  9 42  1  0  0  0  0
 10 43  1  0  0  0  0
 10 44  1  0  0  0  0
 10 45  1  0  0  0  0
 11 12  2  0  0  0  0
 11 13  1  0  0  0  0
 13 14  1  0  0  0  0
 13 46  1  0  0  0  0
 14 15  1  0  0  0  0
 14 16  1  0  0  0  0
 14 47  1  6  0  0  0
 15 48  1  0  0  0  0
 15 49  1  0  0  0  0
 15 50  1  0  0  0  0
 16 17  1  0  0  0  0
 16 25  1  0  0  0  0
 16 51  1  1  0  0  0
 17 18  1  0  0  0  0
 17 52  1  0  0  0  0
 17 53  1  0  0  0  0
 18 24  2  0  0  0  0
 18 19  1  0  0  0  0
 19 20  2  0  0  0  0
 19 54  1  0  0  0  0
 20 21  1  0  0  0  0
 20 55  1  0  0  0  0
 21 22  1  0  0  0  0
 21 23  2  0  0  0  0
 23 24  1  0  0  0  0
 23 56  1  0  0  0  0
 24 57  1  0  0  0  0
 25 32  2  0  0  0  0
 25 26  1  0  0  0  0
 26 27  2  0  0  0  0
 26 58  1  0  0  0  0
 27 28  1  0  0  0  0
 27 59  1  0  0  0  0
 28 29  2  0  0  0  0
 28 60  1  0  0  0  0
 29 30  1  0  0  0  0
 29 32  1  0  0  0  0
 30 31  3  0  0  0  0
 32 61  1  0  0  0  0
 33 62  1  0  0  0  0
M  END
$$$$
CHEMBL568849	5U09	best_smi
 OpenBabel12022417383D

 59 61  0  0  1  0  0  0  0  0999 V2000
    3.1999   -2.1921   -1.9993 C   0  0  0  0  0  0  0  0  0  0  0  0
    1.8478   -2.3757   -1.4231 C   0  0  0  0  0  0  0  0  0  0  0  0
    0.7292   -3.0668   -1.9591 C   0  0  0  0  0  0  0  0  0  0  0  0
   -0.2492   -2.9520   -0.9994 C   0  0  0  0  0  0  0  0  0  0  0  0
   -1.5430   -3.3938   -0.9292 N   0  0  0  0  0  0  0  0  0  0  0  0
   -2.4140   -2.9495    0.2069 C   0  0  0  0  0  0  0  0  0  0  0  0
   -1.8470   -3.4692    1.5426 C   0  0  0  0  0  0  0  0  0  0  0  0
   -2.5797   -1.4156    0.1556 C   0  0  0  0  0  0  0  0  0  0  0  0
   -3.8433   -3.5846    0.1327 C   0  0  0  0  0  0  0  0  0  0  0  0
   -4.8536   -2.9645    0.4694 O   0  0  0  0  0  0  0  0  0  0  0  0
   -3.9163   -4.9340   -0.1861 N   0  0  0  0  0  0  0  0  0  0  0  0
   -5.2386   -5.5867   -0.2921 C   0  0  1  0  0  0  0  0  0  0  0  0
   -5.7959   -5.2210   -1.6818 C   0  0  0  0  0  0  0  0  0  0  0  0
   -5.2172   -7.1340    0.0038 C   0  0  1  0  0  0  0  0  0  0  0  0
   -4.4120   -7.5091    1.2935 C   0  0  0  0  0  0  0  0  0  0  0  0
   -5.0802   -7.2229    2.6234 C   0  0  0  0  0  0  0  0  0  0  0  0
   -5.1892   -5.9132    3.1027 C   0  0  0  0  0  0  0  0  0  0  0  0
   -5.8606   -5.6466    4.2990 C   0  0  0  0  0  0  0  0  0  0  0  0
   -6.4081   -6.6896    5.0354 C   0  0  0  0  0  0  0  0  0  0  0  0
   -7.2712   -6.3546    6.4847 Cl  0  0  0  0  0  0  0  0  0  0  0  0
   -6.2642   -8.0047    4.6012 C   0  0  0  0  0  0  0  0  0  0  0  0
   -5.5963   -8.2704    3.4037 C   0  0  0  0  0  0  0  0  0  0  0  0
   -6.5842   -7.8561   -0.0281 C   0  0  0  0  0  0  0  0  0  0  0  0
   -6.6324   -9.2625    0.0314 C   0  0  0  0  0  0  0  0  0  0  0  0
   -7.8419   -9.9587   -0.0798 C   0  0  0  0  0  0  0  0  0  0  0  0
   -9.0292   -9.2696   -0.3151 C   0  0  0  0  0  0  0  0  0  0  0  0
   -9.0164   -7.8768   -0.3682 C   0  0  0  0  0  0  0  0  0  0  0  0
  -10.2159   -7.1512   -0.6999 C   0  0  0  0  0  0  0  0  0  0  0  0
  -11.1619   -6.5668   -1.0196 N   0  0  0  0  0  0  0  0  0  0  0  0
   -7.8123   -7.1830   -0.1634 C   0  0  0  0  0  0  0  0  0  0  0  0
    0.2679   -2.2249    0.0330 O   0  0  0  0  0  0  0  0  0  0  0  0
    1.5657   -1.8564   -0.2278 N   0  0  0  0  0  0  0  0  0  0  0  0
    3.8319   -1.5719   -1.3501 H   0  0  0  0  0  0  0  0  0  0  0  0
    3.1413   -1.7005   -2.9737 H   0  0  0  0  0  0  0  0  0  0  0  0
    3.6980   -3.1579   -2.1213 H   0  0  0  0  0  0  0  0  0  0  0  0
    0.6650   -3.5874   -2.9015 H   0  0  0  0  0  0  0  0  0  0  0  0
   -2.0377   -3.3915   -1.8189 H   0  0  0  0  0  0  0  0  0  0  0  0
   -0.8621   -3.0694    1.7917 H   0  0  0  0  0  0  0  0  0  0  0  0
   -1.7421   -4.5616    1.5183 H   0  0  0  0  0  0  0  0  0  0  0  0
   -2.5098   -3.2194    2.3777 H   0  0  0  0  0  0  0  0  0  0  0  0
   -1.7000   -0.8875    0.5315 H   0  0  0  0  0  0  0  0  0  0  0  0
   -3.4329   -1.0620    0.7399 H   0  0  0  0  0  0  0  0  0  0  0  0
   -2.7435   -1.0857   -0.8812 H   0  0  0  0  0  0  0  0  0  0  0  0
   -3.1222   -5.3137   -0.6921 H   0  0  0  0  0  0  0  0  0  0  0  0
   -5.8925   -5.1193    0.4539 H   0  0  0  0  0  0  0  0  0  0  0  0
   -5.0980   -5.5083   -2.4722 H   0  0  0  0  0  0  0  0  0  0  0  0
   -5.9470   -4.1372   -1.7502 H   0  0  0  0  0  0  0  0  0  0  0  0
   -6.7563   -5.6781   -1.9176 H   0  0  0  0  0  0  0  0  0  0  0  0
   -4.6456   -7.5684   -0.8315 H   0  0  0  0  0  0  0  0  0  0  0  0
   -3.4263   -7.0270    1.2854 H   0  0  0  0  0  0  0  0  0  0  0  0
   -4.1756   -8.5818    1.2581 H   0  0  0  0  0  0  0  0  0  0  0  0
   -4.7604   -5.0810    2.5526 H   0  0  0  0  0  0  0  0  0  0  0  0
   -5.9512   -4.6199    4.6441 H   0  0  0  0  0  0  0  0  0  0  0  0
   -6.6755   -8.8237    5.1859 H   0  0  0  0  0  0  0  0  0  0  0  0
   -5.4925   -9.3052    3.0835 H   0  0  0  0  0  0  0  0  0  0  0  0
   -5.7226   -9.8445    0.1670 H   0  0  0  0  0  0  0  0  0  0  0  0
   -7.8535  -11.0441   -0.0089 H   0  0  0  0  0  0  0  0  0  0  0  0
   -9.9550   -9.8215   -0.4629 H   0  0  0  0  0  0  0  0  0  0  0  0
   -7.8603   -6.0959   -0.1499 H   0  0  0  0  0  0  0  0  0  0  0  0
  1  2  1  0  0  0  0
  1 33  1  0  0  0  0
  1 34  1  0  0  0  0
  1 35  1  0  0  0  0
  2 32  2  0  0  0  0
  2  3  1  0  0  0  0
  3  4  2  0  0  0  0
  3 36  1  0  0  0  0
  4  5  1  0  0  0  0
  4 31  1  0  0  0  0
  5  6  1  0  0  0  0
  5 37  1  0  0  0  0
  6  7  1  0  0  0  0
  6  8  1  0  0  0  0
  6  9  1  0  0  0  0
  7 38  1  0  0  0  0
  7 39  1  0  0  0  0
  7 40  1  0  0  0  0
  8 41  1  0  0  0  0
  8 42  1  0  0  0  0
  8 43  1  0  0  0  0
  9 10  2  0  0  0  0
  9 11  1  0  0  0  0
 11 12  1  0  0  0  0
 11 44  1  0  0  0  0
 12 13  1  0  0  0  0
 12 14  1  0  0  0  0
 12 45  1  1  0  0  0
 13 46  1  0  0  0  0
 13 47  1  0  0  0  0
 13 48  1  0  0  0  0
 14 15  1  0  0  0  0
 14 23  1  0  0  0  0
 14 49  1  6  0  0  0
 15 16  1  0  0  0  0
 15 50  1  0  0  0  0
 15 51  1  0  0  0  0
 16 22  2  0  0  0  0
 16 17  1  0  0  0  0
 17 18  2  0  0  0  0
 17 52  1  0  0  0  0
 18 19  1  0  0  0  0
 18 53  1  0  0  0  0
 19 20  1  0  0  0  0
 19 21  2  0  0  0  0
 21 22  1  0  0  0  0
 21 54  1  0  0  0  0
 22 55  1  0  0  0  0
 23 30  2  0  0  0  0
 23 24  1  0  0  0  0
 24 25  2  0  0  0  0
 24 56  1  0  0  0  0
 25 26  1  0  0  0  0
 25 57  1  0  0  0  0
 26 27  2  0  0  0  0
 26 58  1  0  0  0  0
 27 28  1  0  0  0  0
 27 30  1  0  0  0  0
 28 29  3  0  0  0  0
 30 59  1  0  0  0  0
 31 32  1  0  0  0  0
M  END
$$$$
CHEMBL230294	5U09	best_smi
 OpenBabel12022417383D

 52 54  0  0  1  0  0  0  0  0999 V2000
    3.1615    0.2163   -1.6658 C   0  0  0  0  0  0  0  0  0  0  0  0
    2.6079   -0.0076   -0.2589 C   0  0  2  0  0  0  0  0  0  0  0  0
    1.1387   -0.0260   -0.3278 N   0  0  0  0  0  0  0  0  0  0  0  0
    0.4645   -1.1765   -0.7137 C   0  0  0  0  0  0  0  0  0  0  0  0
    1.0330   -2.2387   -0.9569 O   0  0  0  0  0  0  0  0  0  0  0  0
   -1.0395   -1.0327   -0.8347 C   0  0  0  0  0  0  0  0  0  0  0  0
   -1.7910   -1.3667    0.4300 C   0  0  0  0  0  0  0  0  0  0  0  0
   -1.7900   -2.6730    0.9415 C   0  0  0  0  0  0  0  0  0  0  0  0
   -2.5556   -2.9959    2.0642 C   0  0  0  0  0  0  0  0  0  0  0  0
   -3.3255   -2.0171    2.6890 C   0  0  0  0  0  0  0  0  0  0  0  0
   -3.3183   -0.7118    2.2018 C   0  0  0  0  0  0  0  0  0  0  0  0
   -2.5540   -0.3869    1.0796 C   0  0  0  0  0  0  0  0  0  0  0  0
    3.1532    0.9598    0.8830 C   0  0  1  0  0  0  0  0  0  0  0  0
    2.5034    0.5520    2.2556 C   0  0  0  0  0  0  0  0  0  0  0  0
    2.8678   -0.8018    2.8619 C   0  0  0  0  0  0  0  0  0  0  0  0
    2.4038   -1.1265    4.1411 C   0  0  0  0  0  0  0  0  0  0  0  0
    2.7285   -2.3558    4.7269 C   0  0  0  0  0  0  0  0  0  0  0  0
    3.5061   -3.2848    4.0354 C   0  0  0  0  0  0  0  0  0  0  0  0
    3.8807   -4.8071    4.7334 Cl  0  0  0  0  0  0  0  0  0  0  0  0
    4.0008   -2.9716    2.7814 C   0  0  0  0  0  0  0  0  0  0  0  0
    3.7094   -1.7376    2.2173 C   0  0  0  0  0  0  0  0  0  0  0  0
    4.6892    1.1573    1.0062 C   0  0  0  0  0  0  0  0  0  0  0  0
    5.3951    0.9361    2.2101 C   0  0  0  0  0  0  0  0  0  0  0  0
    6.7900    0.9613    2.2818 C   0  0  0  0  0  0  0  0  0  0  0  0
    7.5298    1.2792    1.1557 C   0  0  0  0  0  0  0  0  0  0  0  0
    6.8646    1.6308   -0.0176 C   0  0  0  0  0  0  0  0  0  0  0  0
    7.6194    2.0016   -1.1763 C   0  0  0  0  0  0  0  0  0  0  0  0
    8.2243    2.2920   -2.1222 N   0  0  0  0  0  0  0  0  0  0  0  0
    5.4620    1.5941   -0.0792 C   0  0  0  0  0  0  0  0  0  0  0  0
    4.2184   -0.0624   -1.7152 H   0  0  0  0  0  0  0  0  0  0  0  0
    3.0321    1.2515   -1.9915 H   0  0  0  0  0  0  0  0  0  0  0  0
    2.6540   -0.4227   -2.3976 H   0  0  0  0  0  0  0  0  0  0  0  0
    2.8878   -1.0329   -0.0331 H   0  0  0  0  0  0  0  0  0  0  0  0
    0.6243    0.8429   -0.2649 H   0  0  0  0  0  0  0  0  0  0  0  0
   -1.3815   -1.6992   -1.6376 H   0  0  0  0  0  0  0  0  0  0  0  0
   -1.2783   -0.0180   -1.1743 H   0  0  0  0  0  0  0  0  0  0  0  0
   -1.2025   -3.4537    0.4594 H   0  0  0  0  0  0  0  0  0  0  0  0
   -2.5594   -4.0147    2.4438 H   0  0  0  0  0  0  0  0  0  0  0  0
   -3.9351   -2.2732    3.5517 H   0  0  0  0  0  0  0  0  0  0  0  0
   -3.9205    0.0512    2.6879 H   0  0  0  0  0  0  0  0  0  0  0  0
   -2.5776    0.6333    0.7051 H   0  0  0  0  0  0  0  0  0  0  0  0
    2.7591    1.9624    0.6537 H   0  0  0  0  0  0  0  0  0  0  0  0
    1.4104    0.5921    2.1620 H   0  0  0  0  0  0  0  0  0  0  0  0
    2.7514    1.3311    2.9922 H   0  0  0  0  0  0  0  0  0  0  0  0
    1.8013   -0.4170    4.7035 H   0  0  0  0  0  0  0  0  0  0  0  0
    2.3761   -2.5874    5.7264 H   0  0  0  0  0  0  0  0  0  0  0  0
    4.6316   -3.6675    2.2278 H   0  0  0  0  0  0  0  0  0  0  0  0
    4.1951   -1.5256    1.2807 H   0  0  0  0  0  0  0  0  0  0  0  0
    4.8903    0.6946    3.1418 H   0  0  0  0  0  0  0  0  0  0  0  0
    7.2849    0.7127    3.2190 H   0  0  0  0  0  0  0  0  0  0  0  0
    8.6169    1.2715    1.2081 H   0  0  0  0  0  0  0  0  0  0  0  0
    4.9843    1.9068   -1.0058 H   0  0  0  0  0  0  0  0  0  0  0  0
  1 30  1  0  0  0  0
  1 31  1  0  0  0  0
  1 32  1  0  0  0  0
  2 13  1  0  0  0  0
  2  3  1  0  0  0  0
  2  1  1  0  0  0  0
  2 33  1  1  0  0  0
  3  4  1  0  0  0  0
  3 34  1  0  0  0  0
  4  5  2  0  0  0  0
  4  6  1  0  0  0  0
  6  7  1  0  0  0  0
  6 35  1  0  0  0  0
  6 36  1  0  0  0  0
  7 12  2  0  0  0  0
  7  8  1  0  0  0  0
  8  9  2  0  0  0  0
  8 37  1  0  0  0  0
  9 10  1  0  0  0  0
  9 38  1  0  0  0  0
 10 11  2  0  0  0  0
 10 39  1  0  0  0  0
 11 12  1  0  0  0  0
 11 40  1  0  0  0  0
 12 41  1  0  0  0  0
 13 14  1  0  0  0  0
 13 22  1  0  0  0  0
 13 42  1  6  0  0  0
 14 15  1  0  0  0  0
 14 43  1  0  0  0  0
 14 44  1  0  0  0  0
 15 21  2  0  0  0  0
 15 16  1  0  0  0  0
 16 17  2  0  0  0  0
 16 45  1  0  0  0  0
 17 18  1  0  0  0  0
 17 46  1  0  0  0  0
 18 19  1  0  0  0  0
 18 20  2  0  0  0  0
 20 21  1  0  0  0  0
 20 47  1  0  0  0  0
 21 48  1  0  0  0  0
 22 29  2  0  0  0  0
 22 23  1  0  0  0  0
 23 24  2  0  0  0  0
 23 49  1  0  0  0  0
 24 25  1  0  0  0  0
 24 50  1  0  0  0  0
 25 26  2  0  0  0  0
 25 51  1  0  0  0  0
 26 27  1  0  0  0  0
 26 29  1  0  0  0  0
 27 28  3  0  0  0  0
 29 52  1  0  0  0  0
M  END
$$$$
CHEMBL387526	5U09	best_smi
 OpenBabel12022417383D

 66 68  0  0  1  0  0  0  0  0999 V2000
    2.8782   -0.1333   -1.5767 C   0  0  0  0  0  0  0  0  0  0  0  0
    2.3809   -0.0456   -0.1225 C   0  0  2  0  0  0  0  0  0  0  0  0
    0.9235    0.0490   -0.1770 N   0  0  0  0  0  0  0  0  0  0  0  0
    0.1363   -1.0871   -0.2665 C   0  0  0  0  0  0  0  0  0  0  0  0
    0.6339   -2.2000   -0.0973 O   0  0  0  0  0  0  0  0  0  0  0  0
   -1.3779   -0.8698   -0.6108 C   0  0  0  0  0  0  0  0  0  0  0  0
   -2.2591   -1.5061    0.4810 C   0  0  0  0  0  0  0  0  0  0  0  0
   -1.7558    0.6306   -0.5920 C   0  0  0  0  0  0  0  0  0  0  0  0
   -1.6977   -1.2800   -1.9551 O   0  0  0  0  0  0  0  0  0  0  0  0
   -1.4499   -2.5858   -2.3099 C   0  0  0  0  0  0  0  0  0  0  0  0
   -1.2057   -2.8528   -3.6493 C   0  0  0  0  0  0  0  0  0  0  0  0
   -1.0368   -4.1824   -4.0462 C   0  0  0  0  0  0  0  0  0  0  0  0
   -1.1158   -5.1964   -3.0920 C   0  0  0  0  0  0  0  0  0  0  0  0
   -0.9911   -6.5748   -3.4407 C   0  0  0  0  0  0  0  0  0  0  0  0
   -0.9136   -7.6988   -3.7193 N   0  0  0  0  0  0  0  0  0  0  0  0
   -1.3568   -4.8294   -1.7801 C   0  0  0  0  0  0  0  0  0  0  0  0
   -1.5558   -3.5523   -1.3840 N   0  0  0  0  0  0  0  0  0  0  0  0
    2.9918    1.1664    0.6424 C   0  0  1  0  0  0  0  0  0  0  0  0
    2.4110    1.3809    2.0727 C   0  0  0  0  0  0  0  0  0  0  0  0
    2.6724    0.2913    3.0872 C   0  0  0  0  0  0  0  0  0  0  0  0
    1.7401   -0.7336    3.2714 C   0  0  0  0  0  0  0  0  0  0  0  0
    1.9840   -1.7616    4.1832 C   0  0  0  0  0  0  0  0  0  0  0  0
    3.1779   -1.7983    4.9025 C   0  0  0  0  0  0  0  0  0  0  0  0
    3.5125   -2.8148    5.7622 O   0  0  0  0  0  0  0  0  0  0  0  0
    3.1799   -4.1074    5.2385 C   0  0  0  0  0  0  0  0  0  0  0  0
    3.7382   -5.2007    6.1291 C   0  0  0  0  0  0  0  0  0  0  0  0
    3.4353   -6.4099    5.5819 F   0  0  0  0  0  0  0  0  0  0  0  0
    4.0873   -0.7502    4.7747 C   0  0  0  0  0  0  0  0  0  0  0  0
    3.8381    0.2874    3.8689 C   0  0  0  0  0  0  0  0  0  0  0  0
    4.5150    1.1827    0.6860 C   0  0  0  0  0  0  0  0  0  0  0  0
    5.2779    0.0046    0.7533 C   0  0  0  0  0  0  0  0  0  0  0  0
    6.6665    0.0570    0.8292 C   0  0  0  0  0  0  0  0  0  0  0  0
    7.3187    1.2855    0.8668 C   0  0  0  0  0  0  0  0  0  0  0  0
    6.5770    2.4703    0.8103 C   0  0  0  0  0  0  0  0  0  0  0  0
    7.2418    3.7354    0.8654 C   0  0  0  0  0  0  0  0  0  0  0  0
    7.7715    4.7662    0.9148 N   0  0  0  0  0  0  0  0  0  0  0  0
    5.1830    2.4138    0.7166 C   0  0  0  0  0  0  0  0  0  0  0  0
    3.9667   -0.1824   -1.6523 H   0  0  0  0  0  0  0  0  0  0  0  0
    2.5372    0.7302   -2.1602 H   0  0  0  0  0  0  0  0  0  0  0  0
    2.4800   -1.0299   -2.0659 H   0  0  0  0  0  0  0  0  0  0  0  0
    2.6434   -0.9793    0.3854 H   0  0  0  0  0  0  0  0  0  0  0  0
    0.5536    0.9344   -0.4870 H   0  0  0  0  0  0  0  0  0  0  0  0
   -2.0529   -1.0501    1.4566 H   0  0  0  0  0  0  0  0  0  0  0  0
   -2.0926   -2.5760    0.6172 H   0  0  0  0  0  0  0  0  0  0  0  0
   -3.3221   -1.3741    0.2501 H   0  0  0  0  0  0  0  0  0  0  0  0
   -1.5015    1.1023    0.3648 H   0  0  0  0  0  0  0  0  0  0  0  0
   -2.8299    0.7684   -0.7615 H   0  0  0  0  0  0  0  0  0  0  0  0
   -1.2565    1.1800   -1.3991 H   0  0  0  0  0  0  0  0  0  0  0  0
   -1.1515   -2.0475   -4.3733 H   0  0  0  0  0  0  0  0  0  0  0  0
   -0.8531   -4.4182   -5.0919 H   0  0  0  0  0  0  0  0  0  0  0  0
   -1.4091   -5.5625   -0.9789 H   0  0  0  0  0  0  0  0  0  0  0  0
    2.6869    2.0560    0.0685 H   0  0  0  0  0  0  0  0  0  0  0  0
    1.3268    1.5436    2.0065 H   0  0  0  0  0  0  0  0  0  0  0  0
    2.8007    2.3230    2.4836 H   0  0  0  0  0  0  0  0  0  0  0  0
    0.8136   -0.7502    2.7038 H   0  0  0  0  0  0  0  0  0  0  0  0
    1.2211   -2.5220    4.3109 H   0  0  0  0  0  0  0  0  0  0  0  0
    3.5925   -4.2256    4.2283 H   0  0  0  0  0  0  0  0  0  0  0  0
    2.0943   -4.2430    5.1926 H   0  0  0  0  0  0  0  0  0  0  0  0
    3.2997   -5.1586    7.1305 H   0  0  0  0  0  0  0  0  0  0  0  0
    4.8246   -5.1285    6.2284 H   0  0  0  0  0  0  0  0  0  0  0  0
    5.0037   -0.7482    5.3586 H   0  0  0  0  0  0  0  0  0  0  0  0
    4.5720    1.0837    3.7667 H   0  0  0  0  0  0  0  0  0  0  0  0
    4.8016   -0.9744    0.7588 H   0  0  0  0  0  0  0  0  0  0  0  0
    7.2397   -0.8685    0.8728 H   0  0  0  0  0  0  0  0  0  0  0  0
    8.4015    1.3158    0.9363 H   0  0  0  0  0  0  0  0  0  0  0  0
    4.6136    3.3466    0.6832 H   0  0  0  0  0  0  0  0  0  0  0  0
  1 38  1  0  0  0  0
  1 39  1  0  0  0  0
  1 40  1  0  0  0  0
  2 18  1  0  0  0  0
  2  3  1  0  0  0  0
  2  1  1  0  0  0  0
  2 41  1  1  0  0  0
  3  4  1  0  0  0  0
  3 42  1  0  0  0  0
  4  5  2  0  0  0  0
  4  6  1  0  0  0  0
  6  7  1  0  0  0  0
  6  8  1  0  0  0  0
  6  9  1  0  0  0  0
  7 43  1  0  0  0  0
  7 44  1  0  0  0  0
  7 45  1  0  0  0  0
  8 46  1  0  0  0  0
  8 47  1  0  0  0  0
  8 48  1  0  0  0  0
  9 10  1  0  0  0  0
 10 17  2  0  0  0  0
 10 11  1  0  0  0  0
 11 12  2  0  0  0  0
 11 49  1  0  0  0  0
 12 13  1  0  0  0  0
 12 50  1  0  0  0  0
 13 14  1  0  0  0  0
 13 16  2  0  0  0  0
 14 15  3  0  0  0  0
 16 17  1  0  0  0  0
 16 51  1  0  0  0  0
 18 19  1  0  0  0  0
 18 30  1  0  0  0  0
 18 52  1  6  0  0  0
 19 20  1  0  0  0  0
 19 53  1  0  0  0  0
 19 54  1  0  0  0  0
 20 29  2  0  0  0  0
 20 21  1  0  0  0  0
 21 22  2  0  0  0  0
 21 55  1  0  0  0  0
 22 23  1  0  0  0  0
 22 56  1  0  0  0  0
 23 24  1  0  0  0  0
 23 28  2  0  0  0  0
 24 25  1  0  0  0  0
 25 26  1  0  0  0  0
 25 57  1  0  0  0  0
 25 58  1  0  0  0  0
 26 27  1  0  0  0  0
 26 59  1  0  0  0  0
 26 60  1  0  0  0  0
 28 29  1  0  0  0  0
 28 61  1  0  0  0  0
 29 62  1  0  0  0  0
 30 37  2  0  0  0  0
 30 31  1  0  0  0  0
 31 32  2  0  0  0  0
 31 63  1  0  0  0  0
 32 33  1  0  0  0  0
 32 64  1  0  0  0  0
 33 34  2  0  0  0  0
 33 65  1  0  0  0  0
 34 35  1  0  0  0  0
 34 37  1  0  0  0  0
 35 36  3  0  0  0  0
 37 66  1  0  0  0  0
M  END
$$$$
CHEMBL231245	5U09	best_smi
 OpenBabel12022417383D

 55 57  0  0  1  0  0  0  0  0999 V2000
    3.1792   -1.3365    0.9732 C   0  0  0  0  0  0  0  0  0  0  0  0
    2.6408   -0.1094    0.2274 C   0  0  2  0  0  0  0  0  0  0  0  0
    1.1632   -0.2055    0.2715 N   0  0  0  0  0  0  0  0  0  0  0  0
    0.4534    0.1997    1.3882 C   0  0  0  0  0  0  0  0  0  0  0  0
    0.9935    0.7175    2.3614 O   0  0  0  0  0  0  0  0  0  0  0  0
   -1.0445   -0.0418    1.3157 C   0  0  0  0  0  0  0  0  0  0  0  0
   -1.7738    1.0043    2.1615 C   0  0  0  0  0  0  0  0  0  0  0  0
   -3.2767    0.8691    2.1571 C   0  0  0  0  0  0  0  0  0  0  0  0
   -4.0548    1.5773    1.2312 C   0  0  0  0  0  0  0  0  0  0  0  0
   -5.4497    1.5190    1.2860 C   0  0  0  0  0  0  0  0  0  0  0  0
   -6.0796    0.7467    2.2599 C   0  0  0  0  0  0  0  0  0  0  0  0
   -5.3155    0.0205    3.1710 C   0  0  0  0  0  0  0  0  0  0  0  0
   -3.9207    0.0769    3.1175 C   0  0  0  0  0  0  0  0  0  0  0  0
    3.1651    0.1046   -1.2518 C   0  0  1  0  0  0  0  0  0  0  0  0
    2.4204    1.3096   -1.9635 C   0  0  0  0  0  0  0  0  0  0  0  0
    2.5805    2.7331   -1.4379 C   0  0  0  0  0  0  0  0  0  0  0  0
    2.1096    3.1090   -0.1752 C   0  0  0  0  0  0  0  0  0  0  0  0
    2.2783    4.4070    0.3145 C   0  0  0  0  0  0  0  0  0  0  0  0
    2.9034    5.3657   -0.4702 C   0  0  0  0  0  0  0  0  0  0  0  0
    3.1009    6.9656    0.1270 Cl  0  0  0  0  0  0  0  0  0  0  0  0
    3.3450    5.0378   -1.7467 C   0  0  0  0  0  0  0  0  0  0  0  0
    3.1593    3.7387   -2.2351 C   0  0  0  0  0  0  0  0  0  0  0  0
    4.7002    0.0997   -1.4459 C   0  0  0  0  0  0  0  0  0  0  0  0
    5.4025    1.1518   -2.0555 C   0  0  0  0  0  0  0  0  0  0  0  0
    6.7938    1.1515   -2.2090 C   0  0  0  0  0  0  0  0  0  0  0  0
    7.5366    0.0767   -1.7522 C   0  0  0  0  0  0  0  0  0  0  0  0
    6.8796   -1.0149   -1.1976 C   0  0  0  0  0  0  0  0  0  0  0  0
    7.6351   -2.1330   -0.7240 C   0  0  0  0  0  0  0  0  0  0  0  0
    8.2469   -3.0369   -0.3253 N   0  0  0  0  0  0  0  0  0  0  0  0
    5.4772   -1.0145   -1.0836 C   0  0  0  0  0  0  0  0  0  0  0  0
    4.2360   -1.2207    1.2269 H   0  0  0  0  0  0  0  0  0  0  0  0
    3.0331   -2.2527    0.3918 H   0  0  0  0  0  0  0  0  0  0  0  0
    2.6599   -1.4804    1.9281 H   0  0  0  0  0  0  0  0  0  0  0  0
    2.9518    0.7515    0.8274 H   0  0  0  0  0  0  0  0  0  0  0  0
    0.7078   -0.8541   -0.3595 H   0  0  0  0  0  0  0  0  0  0  0  0
   -1.2440   -1.0522    1.6913 H   0  0  0  0  0  0  0  0  0  0  0  0
   -1.3807    0.0052    0.2739 H   0  0  0  0  0  0  0  0  0  0  0  0
   -1.5066    2.0101    1.8096 H   0  0  0  0  0  0  0  0  0  0  0  0
   -1.4240    0.9649    3.2017 H   0  0  0  0  0  0  0  0  0  0  0  0
   -3.5816    2.2036    0.4787 H   0  0  0  0  0  0  0  0  0  0  0  0
   -6.0457    2.0905    0.5791 H   0  0  0  0  0  0  0  0  0  0  0  0
   -7.1649    0.7175    2.3144 H   0  0  0  0  0  0  0  0  0  0  0  0
   -5.8060   -0.5770    3.9353 H   0  0  0  0  0  0  0  0  0  0  0  0
   -3.3404   -0.4788    3.8507 H   0  0  0  0  0  0  0  0  0  0  0  0
    2.8286   -0.7795   -1.8174 H   0  0  0  0  0  0  0  0  0  0  0  0
    1.3425    1.1008   -1.9848 H   0  0  0  0  0  0  0  0  0  0  0  0
    2.7122    1.2975   -3.0241 H   0  0  0  0  0  0  0  0  0  0  0  0
    1.5878    2.4076    0.4620 H   0  0  0  0  0  0  0  0  0  0  0  0
    1.9130    4.6517    1.3084 H   0  0  0  0  0  0  0  0  0  0  0  0
    3.8309    5.7857   -2.3674 H   0  0  0  0  0  0  0  0  0  0  0  0
    3.4964    3.5208   -3.2472 H   0  0  0  0  0  0  0  0  0  0  0  0
    4.8986    2.0149   -2.4584 H   0  0  0  0  0  0  0  0  0  0  0  0
    7.2827    2.0001   -2.6809 H   0  0  0  0  0  0  0  0  0  0  0  0
    8.6215    0.0924   -1.8485 H   0  0  0  0  0  0  0  0  0  0  0  0
    5.0051   -1.9170   -0.7075 H   0  0  0  0  0  0  0  0  0  0  0  0
  1 31  1  0  0  0  0
  1 32  1  0  0  0  0
  1 33  1  0  0  0  0
  2 14  1  0  0  0  0
  2  3  1  0  0  0  0
  2  1  1  0  0  0  0
  2 34  1  1  0  0  0
  3  4  1  0  0  0  0
  3 35  1  0  0  0  0
  4  5  2  0  0  0  0
  4  6  1  0  0  0  0
  6  7  1  0  0  0  0
  6 36  1  0  0  0  0
  6 37  1  0  0  0  0
  7  8  1  0  0  0  0
  7 38  1  0  0  0  0
  7 39  1  0  0  0  0
  8 13  2  0  0  0  0
  8  9  1  0  0  0  0
  9 10  2  0  0  0  0
  9 40  1  0  0  0  0
 10 11  1  0  0  0  0
 10 41  1  0  0  0  0
 11 12  2  0  0  0  0
 11 42  1  0  0  0  0
 12 13  1  0  0  0  0
 12 43  1  0  0  0  0
 13 44  1  0  0  0  0
 14 15  1  0  0  0  0
 14 23  1  0  0  0  0
 14 45  1  6  0  0  0
 15 16  1  0  0  0  0
 15 46  1  0  0  0  0
 15 47  1  0  0  0  0
 16 22  2  0  0  0  0
 16 17  1  0  0  0  0
 17 18  2  0  0  0  0
 17 48  1  0  0  0  0
 18 19  1  0  0  0  0
 18 49  1  0  0  0  0
 19 20  1  0  0  0  0
 19 21  2  0  0  0  0
 21 22  1  0  0  0  0
 21 50  1  0  0  0  0
 22 51  1  0  0  0  0
 23 30  2  0  0  0  0
 23 24  1  0  0  0  0
 24 25  2  0  0  0  0
 24 52  1  0  0  0  0
 25 26  1  0  0  0  0
 25 53  1  0  0  0  0
 26 27  2  0  0  0  0
 26 54  1  0  0  0  0
 27 28  1  0  0  0  0
 27 30  1  0  0  0  0
 28 29  3  0  0  0  0
 30 55  1  0  0  0  0
M  END
$$$$
CHEMBL385767
 OpenBabel12022417383D

 58 60  0  0  1  0  0  0  0  0999 V2000
    0.9426    0.2406    0.1020 C   0  0  0  0  0  0  0  0  0  0  0  0
    2.4749    0.1097    0.0061 C   0  0  1  0  0  0  0  0  0  0  0  0
    2.9801    0.2710   -1.4774 C   0  0  1  0  0  0  0  0  0  0  0  0
    4.5224    0.4715   -1.5916 C   0  0  0  0  0  0  0  0  0  0  0  0
    5.4085   -0.7182   -1.2800 C   0  0  0  0  0  0  0  0  0  0  0  0
    6.0106   -0.8314   -0.0239 C   0  0  0  0  0  0  0  0  0  0  0  0
    6.8795   -1.8896    0.2523 C   0  0  0  0  0  0  0  0  0  0  0  0
    7.1446   -2.8442   -0.7237 C   0  0  0  0  0  0  0  0  0  0  0  0
    6.5447   -2.7582   -1.9732 C   0  0  0  0  0  0  0  0  0  0  0  0
    5.6870   -1.6939   -2.2525 C   0  0  0  0  0  0  0  0  0  0  0  0
    8.2437   -4.1281   -0.3916 Cl  0  0  0  0  0  0  0  0  0  0  0  0
    2.5076   -0.8297   -2.4549 C   0  0  0  0  0  0  0  0  0  0  0  0
    2.7407   -0.6884   -3.8350 C   0  0  0  0  0  0  0  0  0  0  0  0
    2.3968   -1.7077   -4.7283 C   0  0  0  0  0  0  0  0  0  0  0  0
    1.7570   -2.8567   -4.2684 C   0  0  0  0  0  0  0  0  0  0  0  0
    1.4931   -3.0020   -2.9141 C   0  0  0  0  0  0  0  0  0  0  0  0
    1.8937   -2.0140   -2.0156 C   0  0  0  0  0  0  0  0  0  0  0  0
    3.0157    1.0933    0.9602 N   0  0  0  0  0  0  0  0  0  0  0  0
    3.2628    0.7293    2.2820 C   0  0  0  0  0  0  0  0  0  0  0  0
    3.2576   -0.4506    2.6364 O   0  0  0  0  0  0  0  0  0  0  0  0
    3.5169    1.8893    3.3022 C   0  0  0  0  0  0  0  0  0  0  0  0
    4.4253    1.4144    4.4543 C   0  0  0  0  0  0  0  0  0  0  0  0
    4.3154    3.0104    2.5975 C   0  0  0  0  0  0  0  0  0  0  0  0
    2.3315    2.5436    3.7762 O   0  0  0  0  0  0  0  0  0  0  0  0
    1.3379    1.9341    4.4870 C   0  0  0  0  0  0  0  0  0  0  0  0
    0.2497    2.7697    4.7840 C   0  0  0  0  0  0  0  0  0  0  0  0
   -0.8592    2.3102    5.4986 C   0  0  0  0  0  0  0  0  0  0  0  0
   -0.8886    1.0022    5.9510 C   0  0  0  0  0  0  0  0  0  0  0  0
    0.1886    0.1700    5.6739 C   0  0  0  0  0  0  0  0  0  0  0  0
    1.2937    0.6216    4.9445 C   0  0  0  0  0  0  0  0  0  0  0  0
    0.1732   -1.0921    6.1252 F   0  0  0  0  0  0  0  0  0  0  0  0
    0.4017   -0.4333   -0.5637 H   0  0  0  0  0  0  0  0  0  0  0  0
    0.6255    1.2615   -0.1413 H   0  0  0  0  0  0  0  0  0  0  0  0
    0.6045    0.0289    1.1227 H   0  0  0  0  0  0  0  0  0  0  0  0
    2.7705   -0.8823    0.3631 H   0  0  0  0  0  0  0  0  0  0  0  0
    2.5340    1.2098   -1.8430 H   0  0  0  0  0  0  0  0  0  0  0  0
    4.8293    1.3175   -0.9627 H   0  0  0  0  0  0  0  0  0  0  0  0
    4.7739    0.8075   -2.6084 H   0  0  0  0  0  0  0  0  0  0  0  0
    5.8211   -0.0911    0.7484 H   0  0  0  0  0  0  0  0  0  0  0  0
    7.3506   -1.9544    1.2278 H   0  0  0  0  0  0  0  0  0  0  0  0
    6.7418   -3.5044   -2.7358 H   0  0  0  0  0  0  0  0  0  0  0  0
    5.2439   -1.6375   -3.2433 H   0  0  0  0  0  0  0  0  0  0  0  0
    3.2406    0.1939   -4.2279 H   0  0  0  0  0  0  0  0  0  0  0  0
    2.6391   -1.6117   -5.7829 H   0  0  0  0  0  0  0  0  0  0  0  0
    1.4752   -3.6426   -4.9634 H   0  0  0  0  0  0  0  0  0  0  0  0
    0.9859   -3.8880   -2.5456 H   0  0  0  0  0  0  0  0  0  0  0  0
    1.7089   -2.2091   -0.9637 H   0  0  0  0  0  0  0  0  0  0  0  0
    2.7880    2.0627    0.7811 H   0  0  0  0  0  0  0  0  0  0  0  0
    5.3953    1.0788    4.0682 H   0  0  0  0  0  0  0  0  0  0  0  0
    4.0155    0.5753    5.0184 H   0  0  0  0  0  0  0  0  0  0  0  0
    4.5977    2.2198    5.1771 H   0  0  0  0  0  0  0  0  0  0  0  0
    5.1857    2.6124    2.0644 H   0  0  0  0  0  0  0  0  0  0  0  0
    4.6646    3.7576    3.3202 H   0  0  0  0  0  0  0  0  0  0  0  0
    3.6931    3.5635    1.8849 H   0  0  0  0  0  0  0  0  0  0  0  0
    0.2645    3.8071    4.4404 H   0  0  0  0  0  0  0  0  0  0  0  0
   -1.6937    2.9797    5.7043 H   0  0  0  0  0  0  0  0  0  0  0  0
   -1.7323    0.6169    6.5149 H   0  0  0  0  0  0  0  0  0  0  0  0
    2.0806   -0.0984    4.7678 H   0  0  0  0  0  0  0  0  0  0  0  0
  1 32  1  0  0  0  0
  1 33  1  0  0  0  0
  1 34  1  0  0  0  0
  2  1  1  0  0  0  0
  2  3  1  0  0  0  0
  2 18  1  0  0  0  0
  2 35  1  1  0  0  0
  3  4  1  0  0  0  0
  3 12  1  0  0  0  0
  3 36  1  6  0  0  0
  4  5  1  0  0  0  0
  4 37  1  0  0  0  0
  4 38  1  0  0  0  0
  5 10  2  0  0  0  0
  5  6  1  0  0  0  0
  6  7  2  0  0  0  0
  6 39  1  0  0  0  0
  7  8  1  0  0  0  0
  7 40  1  0  0  0  0
  8  9  2  0  0  0  0
  8 11  1  0  0  0  0
  9 10  1  0  0  0  0
  9 41  1  0  0  0  0
 10 42  1  0  0  0  0
 12 17  2  0  0  0  0
 12 13  1  0  0  0  0
 13 14  2  0  0  0  0
 13 43  1  0  0  0  0
 14 15  1  0  0  0  0
 14 44  1  0  0  0  0
 15 16  2  0  0  0  0
 15 45  1  0  0  0  0
 16 17  1  0  0  0  0
 16 46  1  0  0  0  0
 17 47  1  0  0  0  0
 18 19  1  0  0  0  0
 18 48  1  0  0  0  0
 19 20  2  0  0  0  0
 19 21  1  0  0  0  0
 21 22  1  0  0  0  0
 21 23  1  0  0  0  0
 21 24  1  0  0  0  0
 22 49  1  0  0  0  0
 22 50  1  0  0  0  0
 22 51  1  0  0  0  0
 23 52  1  0  0  0  0
 23 53  1  0  0  0  0
 23 54  1  0  0  0  0
 24 25  1  0  0  0  0
 25 30  2  0  0  0  0
 25 26  1  0  0  0  0
 26 27  2  0  0  0  0
 26 55  1  0  0  0  0
 27 28  1  0  0  0  0
 27 56  1  0  0  0  0
 28 29  2  0  0  0  0
 28 57  1  0  0  0  0
 29 30  1  0  0  0  0
 29 31  1  0  0  0  0
 30 58  1  0  0  0  0
M  END
$$$$
CHEMBL2113253
 OpenBabel12022417383D

 61 63  0  0  1  0  0  0  0  0999 V2000
    1.0884    0.1760    0.2553 C   0  0  0  0  0  0  0  0  0  0  0  0
    2.6116    0.0054    0.1584 C   0  0  1  0  0  0  0  0  0  0  0  0
    3.0164   -1.0027   -0.9790 C   0  0  1  0  0  0  0  0  0  0  0  0
    4.5552   -1.1408   -1.1313 C   0  0  0  0  0  0  0  0  0  0  0  0
    5.3404   -1.6997    0.0350 C   0  0  0  0  0  0  0  0  0  0  0  0
    5.8896   -0.8434    0.9974 C   0  0  0  0  0  0  0  0  0  0  0  0
    6.7405   -1.3339    1.9908 C   0  0  0  0  0  0  0  0  0  0  0  0
    7.0673   -2.6945    2.0372 C   0  0  0  0  0  0  0  0  0  0  0  0
    8.0859   -3.2230    3.0153 C   0  0  0  0  0  0  0  0  0  0  0  0
    8.5923   -2.2729    3.8507 F   0  0  0  0  0  0  0  0  0  0  0  0
    7.5905   -4.2037    3.8198 F   0  0  0  0  0  0  0  0  0  0  0  0
    9.1649   -3.7699    2.3854 F   0  0  0  0  0  0  0  0  0  0  0  0
    6.4662   -3.5632    1.1138 C   0  0  0  0  0  0  0  0  0  0  0  0
    5.6082   -3.0713    0.1262 C   0  0  0  0  0  0  0  0  0  0  0  0
    2.3665   -2.3919   -0.9912 C   0  0  0  0  0  0  0  0  0  0  0  0
    1.9530   -3.0518    0.1725 C   0  0  0  0  0  0  0  0  0  0  0  0
    1.4052   -4.3397    0.1122 C   0  0  0  0  0  0  0  0  0  0  0  0
    1.2834   -5.0012   -1.1085 C   0  0  0  0  0  0  0  0  0  0  0  0
    1.6971   -4.3678   -2.2734 C   0  0  0  0  0  0  0  0  0  0  0  0
    2.2272   -3.0763   -2.2173 C   0  0  0  0  0  0  0  0  0  0  0  0
    3.1750    1.3587   -0.0853 N   0  0  0  0  0  0  0  0  0  0  0  0
    3.5630    2.2086    0.9404 C   0  0  0  0  0  0  0  0  0  0  0  0
    3.6617    1.8003    2.1023 O   0  0  0  0  0  0  0  0  0  0  0  0
    3.8706    3.7146    0.5804 C   0  0  0  0  0  0  0  0  0  0  0  0
    5.2424    4.0333    1.1908 C   0  0  0  0  0  0  0  0  0  0  0  0
    3.9035    3.9693   -0.9284 C   0  0  0  0  0  0  0  0  0  0  0  0
    2.7378    4.4006    1.1473 O   0  0  0  0  0  0  0  0  0  0  0  0
    2.6081    5.7190    1.4410 C   0  0  0  0  0  0  0  0  0  0  0  0
    1.2781    6.0946    1.7050 C   0  0  0  0  0  0  0  0  0  0  0  0
    0.9442    7.3857    2.1286 C   0  0  0  0  0  0  0  0  0  0  0  0
    1.9469    8.3298    2.3055 C   0  0  0  0  0  0  0  0  0  0  0  0
    3.2690    7.9905    2.0157 C   0  0  0  0  0  0  0  0  0  0  0  0
    3.5916    6.6920    1.5800 C   0  0  0  0  0  0  0  0  0  0  0  0
    1.5639    9.8973    2.8926 Cl  0  0  0  0  0  0  0  0  0  0  0  0
    0.5981   -0.7126    0.6596 H   0  0  0  0  0  0  0  0  0  0  0  0
    0.6557    0.3866   -0.7293 H   0  0  0  0  0  0  0  0  0  0  0  0
    0.8294    1.0151    0.9109 H   0  0  0  0  0  0  0  0  0  0  0  0
    2.9756   -0.3554    1.1266 H   0  0  0  0  0  0  0  0  0  0  0  0
    2.6745   -0.5250   -1.9113 H   0  0  0  0  0  0  0  0  0  0  0  0
    4.9795   -0.1609   -1.3873 H   0  0  0  0  0  0  0  0  0  0  0  0
    4.7810   -1.7618   -2.0107 H   0  0  0  0  0  0  0  0  0  0  0  0
    5.6855    0.2240    0.9670 H   0  0  0  0  0  0  0  0  0  0  0  0
    7.1691   -0.6368    2.7098 H   0  0  0  0  0  0  0  0  0  0  0  0
    6.6922   -4.6282    1.1417 H   0  0  0  0  0  0  0  0  0  0  0  0
    5.1795   -3.7655   -0.5947 H   0  0  0  0  0  0  0  0  0  0  0  0
    2.0549   -2.5822    1.1478 H   0  0  0  0  0  0  0  0  0  0  0  0
    1.0806   -4.8301    1.0274 H   0  0  0  0  0  0  0  0  0  0  0  0
    0.8709   -6.0076   -1.1435 H   0  0  0  0  0  0  0  0  0  0  0  0
    1.6105   -4.8862   -3.2272 H   0  0  0  0  0  0  0  0  0  0  0  0
    2.5504   -2.6119   -3.1474 H   0  0  0  0  0  0  0  0  0  0  0  0
    2.9301    1.7685   -0.9737 H   0  0  0  0  0  0  0  0  0  0  0  0
    5.9501    3.2114    1.0295 H   0  0  0  0  0  0  0  0  0  0  0  0
    5.1795    4.2263    2.2670 H   0  0  0  0  0  0  0  0  0  0  0  0
    5.7002    4.9064    0.7171 H   0  0  0  0  0  0  0  0  0  0  0  0
    4.6057    3.2974   -1.4344 H   0  0  0  0  0  0  0  0  0  0  0  0
    4.2018    5.0008   -1.1491 H   0  0  0  0  0  0  0  0  0  0  0  0
    2.9103    3.8402   -1.3731 H   0  0  0  0  0  0  0  0  0  0  0  0
    0.4838    5.3566    1.5920 H   0  0  0  0  0  0  0  0  0  0  0  0
   -0.0936    7.6348    2.3375 H   0  0  0  0  0  0  0  0  0  0  0  0
    4.0605    8.7223    2.1596 H   0  0  0  0  0  0  0  0  0  0  0  0
    4.6381    6.4930    1.4045 H   0  0  0  0  0  0  0  0  0  0  0  0
  1 35  1  0  0  0  0
  1 36  1  0  0  0  0
  1 37  1  0  0  0  0
  2  1  1  0  0  0  0
  2  3  1  0  0  0  0
  2 21  1  0  0  0  0
  2 38  1  1  0  0  0
  3  4  1  0  0  0  0
  3 15  1  0  0  0  0
  3 39  1  6  0  0  0
  4  5  1  0  0  0  0
  4 40  1  0  0  0  0
  4 41  1  0  0  0  0
  5 14  2  0  0  0  0
  5  6  1  0  0  0  0
  6  7  2  0  0  0  0
  6 42  1  0  0  0  0
  7  8  1  0  0  0  0
  7 43  1  0  0  0  0
  8  9  1  0  0  0  0
  8 13  2  0  0  0  0
  9 10  1  0  0  0  0
  9 11  1  0  0  0  0
  9 12  1  0  0  0  0
 13 14  1  0  0  0  0
 13 44  1  0  0  0  0
 14 45  1  0  0  0  0
 15 20  2  0  0  0  0
 15 16  1  0  0  0  0
 16 17  2  0  0  0  0
 16 46  1  0  0  0  0
 17 18  1  0  0  0  0
 17 47  1  0  0  0  0
 18 19  2  0  0  0  0
 18 48  1  0  0  0  0
 19 20  1  0  0  0  0
 19 49  1  0  0  0  0
 20 50  1  0  0  0  0
 21 22  1  0  0  0  0
 21 51  1  0  0  0  0
 22 23  2  0  0  0  0
 22 24  1  0  0  0  0
 24 25  1  0  0  0  0
 24 26  1  0  0  0  0
 24 27  1  0  0  0  0
 25 52  1  0  0  0  0
 25 53  1  0  0  0  0
 25 54  1  0  0  0  0
 26 55  1  0  0  0  0
 26 56  1  0  0  0  0
 26 57  1  0  0  0  0
 27 28  1  0  0  0  0
 28 33  2  0  0  0  0
 28 29  1  0  0  0  0
 29 30  2  0  0  0  0
 29 58  1  0  0  0  0
 30 31  1  0  0  0  0
 30 59  1  0  0  0  0
 31 32  2  0  0  0  0
 31 34  1  0  0  0  0
 32 33  1  0  0  0  0
 32 60  1  0  0  0  0
 33 61  1  0  0  0  0
M  END
$$$$
CHEMBL2113255
 OpenBabel12022417383D

 58 60  0  0  1  0  0  0  0  0999 V2000
    0.9596    0.0246   -0.3013 C   0  0  0  0  0  0  0  0  0  0  0  0
    2.4902    0.0040   -0.1096 C   0  0  1  0  0  0  0  0  0  0  0  0
    2.9377   -1.2113    0.7919 C   0  0  1  0  0  0  0  0  0  0  0  0
    4.4823   -1.4230    0.8075 C   0  0  0  0  0  0  0  0  0  0  0  0
    5.2696   -0.3429    1.5156 C   0  0  0  0  0  0  0  0  0  0  0  0
    5.8066    0.7204    0.7875 C   0  0  0  0  0  0  0  0  0  0  0  0
    6.4139    1.7883    1.4427 C   0  0  0  0  0  0  0  0  0  0  0  0
    6.5177    1.7927    2.8310 C   0  0  0  0  0  0  0  0  0  0  0  0
    6.0412    0.7116    3.5647 C   0  0  0  0  0  0  0  0  0  0  0  0
    5.4286   -0.3557    2.9082 C   0  0  0  0  0  0  0  0  0  0  0  0
    2.3681   -1.2372    2.2232 C   0  0  0  0  0  0  0  0  0  0  0  0
    2.4763   -2.4086    2.9980 C   0  0  0  0  0  0  0  0  0  0  0  0
    1.9784   -2.4615    4.3052 C   0  0  0  0  0  0  0  0  0  0  0  0
    1.3233   -1.3609    4.8487 C   0  0  0  0  0  0  0  0  0  0  0  0
    1.2132   -0.1919    4.1058 C   0  0  0  0  0  0  0  0  0  0  0  0
    1.7636   -0.1207    2.8238 C   0  0  0  0  0  0  0  0  0  0  0  0
    3.0737   -0.0486   -1.4701 N   0  0  0  0  0  0  0  0  0  0  0  0
    3.5865    1.0702   -2.1264 C   0  0  0  0  0  0  0  0  0  0  0  0
    3.7696    2.1295   -1.5235 O   0  0  0  0  0  0  0  0  0  0  0  0
    4.0240    0.8954   -3.6417 C   0  0  0  0  0  0  0  0  0  0  0  0
    5.5580    0.7924   -3.6231 C   0  0  0  0  0  0  0  0  0  0  0  0
    3.3380   -0.3406   -4.2423 C   0  0  0  0  0  0  0  0  0  0  0  0
    3.5912    2.1090   -4.3003 O   0  0  0  0  0  0  0  0  0  0  0  0
    3.8215    2.4037   -5.6155 C   0  0  0  0  0  0  0  0  0  0  0  0
    4.4104    1.5831   -6.5783 C   0  0  0  0  0  0  0  0  0  0  0  0
    4.5418    2.0014   -7.9074 C   0  0  0  0  0  0  0  0  0  0  0  0
    4.1050    3.2631   -8.2788 C   0  0  0  0  0  0  0  0  0  0  0  0
    3.5429    4.1175   -7.3380 C   0  0  0  0  0  0  0  0  0  0  0  0
    3.3966    3.6817   -6.0129 C   0  0  0  0  0  0  0  0  0  0  0  0
    4.2806    3.7710   -9.9185 Cl  0  0  0  0  0  0  0  0  0  0  0  0
    0.4000    0.0549    0.6371 H   0  0  0  0  0  0  0  0  0  0  0  0
    0.6226   -0.8672   -0.8435 H   0  0  0  0  0  0  0  0  0  0  0  0
    0.6550    0.8990   -0.8837 H   0  0  0  0  0  0  0  0  0  0  0  0
    2.7973    0.9440    0.3605 H   0  0  0  0  0  0  0  0  0  0  0  0
    2.5243   -2.1065    0.3008 H   0  0  0  0  0  0  0  0  0  0  0  0
    4.8548   -1.5280   -0.2194 H   0  0  0  0  0  0  0  0  0  0  0  0
    4.7275   -2.3847    1.2785 H   0  0  0  0  0  0  0  0  0  0  0  0
    5.7166    0.7536   -0.2951 H   0  0  0  0  0  0  0  0  0  0  0  0
    6.7821    2.6310    0.8653 H   0  0  0  0  0  0  0  0  0  0  0  0
    6.9633    2.6415    3.3395 H   0  0  0  0  0  0  0  0  0  0  0  0
    6.1223    0.7054    4.6447 H   0  0  0  0  0  0  0  0  0  0  0  0
    5.0403   -1.1813    3.5021 H   0  0  0  0  0  0  0  0  0  0  0  0
    2.9794   -3.2889    2.6032 H   0  0  0  0  0  0  0  0  0  0  0  0
    2.1012   -3.3631    4.8998 H   0  0  0  0  0  0  0  0  0  0  0  0
    0.9090   -1.4074    5.8520 H   0  0  0  0  0  0  0  0  0  0  0  0
    0.7063    0.6751    4.5220 H   0  0  0  0  0  0  0  0  0  0  0  0
    1.6977    0.8337    2.3088 H   0  0  0  0  0  0  0  0  0  0  0  0
    2.7077   -0.7984   -2.0357 H   0  0  0  0  0  0  0  0  0  0  0  0
    5.8947   -0.1434   -3.1696 H   0  0  0  0  0  0  0  0  0  0  0  0
    5.9984    1.6212   -3.0542 H   0  0  0  0  0  0  0  0  0  0  0  0
    6.0083    0.8596   -4.6172 H   0  0  0  0  0  0  0  0  0  0  0  0
    3.6445   -1.2584   -3.7295 H   0  0  0  0  0  0  0  0  0  0  0  0
    3.5501   -0.5105   -5.2953 H   0  0  0  0  0  0  0  0  0  0  0  0
    2.2487   -0.2387   -4.1715 H   0  0  0  0  0  0  0  0  0  0  0  0
    4.7951    0.5977   -6.3540 H   0  0  0  0  0  0  0  0  0  0  0  0
    4.9878    1.3302   -8.6372 H   0  0  0  0  0  0  0  0  0  0  0  0
    3.2111    5.1106   -7.6224 H   0  0  0  0  0  0  0  0  0  0  0  0
    2.9499    4.3517   -5.2809 H   0  0  0  0  0  0  0  0  0  0  0  0
  1 31  1  0  0  0  0
  1 32  1  0  0  0  0
  1 33  1  0  0  0  0
  2  1  1  0  0  0  0
  2  3  1  0  0  0  0
  2 17  1  0  0  0  0
  2 34  1  1  0  0  0
  3  4  1  0  0  0  0
  3 11  1  0  0  0  0
  3 35  1  6  0  0  0
  4  5  1  0  0  0  0
  4 36  1  0  0  0  0
  4 37  1  0  0  0  0
  5 10  2  0  0  0  0
  5  6  1  0  0  0  0
  6  7  2  0  0  0  0
  6 38  1  0  0  0  0
  7  8  1  0  0  0  0
  7 39  1  0  0  0  0
  8  9  2  0  0  0  0
  8 40  1  0  0  0  0
  9 10  1  0  0  0  0
  9 41  1  0  0  0  0
 10 42  1  0  0  0  0
 11 16  2  0  0  0  0
 11 12  1  0  0  0  0
 12 13  2  0  0  0  0
 12 43  1  0  0  0  0
 13 14  1  0  0  0  0
 13 44  1  0  0  0  0
 14 15  2  0  0  0  0
 14 45  1  0  0  0  0
 15 16  1  0  0  0  0
 15 46  1  0  0  0  0
 16 47  1  0  0  0  0
 17 18  1  0  0  0  0
 17 48  1  0  0  0  0
 18 19  2  0  0  0  0
 18 20  1  0  0  0  0
 20 21  1  0  0  0  0
 20 22  1  0  0  0  0
 20 23  1  0  0  0  0
 21 49  1  0  0  0  0
 21 50  1  0  0  0  0
 21 51  1  0  0  0  0
 22 52  1  0  0  0  0
 22 53  1  0  0  0  0
 22 54  1  0  0  0  0
 23 24  1  0  0  0  0
 24 29  2  0  0  0  0
 24 25  1  0  0  0  0
 25 26  2  0  0  0  0
 25 55  1  0  0  0  0
 26 27  1  0  0  0  0
 26 56  1  0  0  0  0
 27 28  2  0  0  0  0
 27 30  1  0  0  0  0
 28 29  1  0  0  0  0
 28 57  1  0  0  0  0
 29 58  1  0  0  0  0
M  END
$$$$
CHEMBL219188
 OpenBabel12022417383D

 58 60  0  0  1  0  0  0  0  0999 V2000
    5.1790    0.2885    2.7465 C   0  0  0  0  0  0  0  0  0  0  0  0
    4.5509    0.1896    1.3505 C   0  0  1  0  0  0  0  0  0  0  0  0
    3.0090   -0.1186    1.3711 C   0  0  2  0  0  0  0  0  0  0  0  0
    2.2042    1.0998    1.9623 C   0  0  0  0  0  0  0  0  0  0  0  0
    0.6914    1.0439    1.8011 C   0  0  0  0  0  0  0  0  0  0  0  0
    0.1096    0.7345    0.5626 C   0  0  0  0  0  0  0  0  0  0  0  0
   -1.2322    0.3513    0.4911 C   0  0  0  0  0  0  0  0  0  0  0  0
   -2.0049    0.3088    1.6494 C   0  0  0  0  0  0  0  0  0  0  0  0
   -1.4728    0.7274    2.8667 C   0  0  0  0  0  0  0  0  0  0  0  0
   -0.1348    1.1272    2.9386 C   0  0  0  0  0  0  0  0  0  0  0  0
   -3.6050   -0.3212    1.5867 Cl  0  0  0  0  0  0  0  0  0  0  0  0
    2.6964   -1.5362    1.9347 C   0  0  0  0  0  0  0  0  0  0  0  0
    3.5870   -2.6166    1.7562 C   0  0  0  0  0  0  0  0  0  0  0  0
    3.2562   -3.9270    2.1260 C   0  0  0  0  0  0  0  0  0  0  0  0
    2.0140   -4.2150    2.6695 C   0  0  0  0  0  0  0  0  0  0  0  0
    1.1208   -3.1793    2.8766 C   0  0  0  0  0  0  0  0  0  0  0  0
    1.4705   -1.8703    2.5279 C   0  0  0  0  0  0  0  0  0  0  0  0
    4.9385    1.3485    0.5292 N   0  0  0  0  0  0  0  0  0  0  0  0
    6.1699    1.3504   -0.1128 C   0  0  0  0  0  0  0  0  0  0  0  0
    6.8284    0.3088   -0.1975 O   0  0  0  0  0  0  0  0  0  0  0  0
    6.6907    2.6918   -0.7332 C   0  0  0  0  0  0  0  0  0  0  0  0
    6.2942    3.8910    0.1379 C   0  0  0  0  0  0  0  0  0  0  0  0
    8.2243    2.5150   -0.7687 C   0  0  0  0  0  0  0  0  0  0  0  0
    6.0840    2.7652   -2.0390 O   0  0  0  0  0  0  0  0  0  0  0  0
    6.2578    3.8476   -2.8646 C   0  0  0  0  0  0  0  0  0  0  0  0
    7.3816    4.6675   -2.9344 C   0  0  0  0  0  0  0  0  0  0  0  0
    7.4387    5.7423   -3.8251 C   0  0  0  0  0  0  0  0  0  0  0  0
    6.3756    5.9946   -4.6815 C   0  0  0  0  0  0  0  0  0  0  0  0
    5.2544    5.1630   -4.6602 C   0  0  0  0  0  0  0  0  0  0  0  0
    5.2066    4.0893   -3.7584 C   0  0  0  0  0  0  0  0  0  0  0  0
    6.4503    7.3271   -5.7642 Cl  0  0  0  0  0  0  0  0  0  0  0  0
    6.2727    0.3085    2.6733 H   0  0  0  0  0  0  0  0  0  0  0  0
    4.9180   -0.5706    3.3722 H   0  0  0  0  0  0  0  0  0  0  0  0
    4.8711    1.1996    3.2678 H   0  0  0  0  0  0  0  0  0  0  0  0
    5.0350   -0.6526    0.8535 H   0  0  0  0  0  0  0  0  0  0  0  0
    2.7210   -0.1933    0.3129 H   0  0  0  0  0  0  0  0  0  0  0  0
    2.4520    1.2118    3.0253 H   0  0  0  0  0  0  0  0  0  0  0  0
    2.5195    2.0299    1.4742 H   0  0  0  0  0  0  0  0  0  0  0  0
    0.7120    0.6990   -0.3422 H   0  0  0  0  0  0  0  0  0  0  0  0
   -1.6494    0.0314   -0.4601 H   0  0  0  0  0  0  0  0  0  0  0  0
   -2.0712    0.6798    3.7730 H   0  0  0  0  0  0  0  0  0  0  0  0
    0.2863    1.3738    3.9116 H   0  0  0  0  0  0  0  0  0  0  0  0
    4.5670   -2.4898    1.3075 H   0  0  0  0  0  0  0  0  0  0  0  0
    3.9720   -4.7286    1.9626 H   0  0  0  0  0  0  0  0  0  0  0  0
    1.7368   -5.2331    2.9154 H   0  0  0  0  0  0  0  0  0  0  0  0
    0.1370   -3.3760    3.2952 H   0  0  0  0  0  0  0  0  0  0  0  0
    0.7061   -1.1430    2.7261 H   0  0  0  0  0  0  0  0  0  0  0  0
    4.4406    2.2193    0.6393 H   0  0  0  0  0  0  0  0  0  0  0  0
    6.6103    3.7541    1.1773 H   0  0  0  0  0  0  0  0  0  0  0  0
    5.2114    4.0568    0.1218 H   0  0  0  0  0  0  0  0  0  0  0  0
    6.7392    4.8217   -0.2282 H   0  0  0  0  0  0  0  0  0  0  0  0
    8.5935    2.0281    0.1424 H   0  0  0  0  0  0  0  0  0  0  0  0
    8.7641    3.4623   -0.8030 H   0  0  0  0  0  0  0  0  0  0  0  0
    8.5322    1.9120   -1.6304 H   0  0  0  0  0  0  0  0  0  0  0  0
    8.2559    4.5055   -2.3299 H   0  0  0  0  0  0  0  0  0  0  0  0
    8.3265    6.3676   -3.8460 H   0  0  0  0  0  0  0  0  0  0  0  0
    4.4300    5.3448   -5.3382 H   0  0  0  0  0  0  0  0  0  0  0  0
    4.3316    3.4463   -3.7538 H   0  0  0  0  0  0  0  0  0  0  0  0
  1 32  1  0  0  0  0
  1 33  1  0  0  0  0
  1 34  1  0  0  0  0
  2  1  1  0  0  0  0
  2 18  1  0  0  0  0
  2 35  1  6  0  0  0
  3 12  1  0  0  0  0
  3  4  1  0  0  0  0
  3  2  1  0  0  0  0
  3 36  1  6  0  0  0
  4  5  1  0  0  0  0
  4 37  1  0  0  0  0
  4 38  1  0  0  0  0
  5 10  2  0  0  0  0
  5  6  1  0  0  0  0
  6  7  2  0  0  0  0
  6 39  1  0  0  0  0
  7  8  1  0  0  0  0
  7 40  1  0  0  0  0
  8  9  2  0  0  0  0
  8 11  1  0  0  0  0
  9 10  1  0  0  0  0
  9 41  1  0  0  0  0
 10 42  1  0  0  0  0
 12 17  2  0  0  0  0
 12 13  1  0  0  0  0
 13 14  2  0  0  0  0
 13 43  1  0  0  0  0
 14 15  1  0  0  0  0
 14 44  1  0  0  0  0
 15 16  2  0  0  0  0
 15 45  1  0  0  0  0
 16 17  1  0  0  0  0
 16 46  1  0  0  0  0
 17 47  1  0  0  0  0
 18 19  1  0  0  0  0
 18 48  1  0  0  0  0
 19 20  2  0  0  0  0
 19 21  1  0  0  0  0
 21 22  1  0  0  0  0
 21 23  1  0  0  0  0
 21 24  1  0  0  0  0
 22 49  1  0  0  0  0
 22 50  1  0  0  0  0
 22 51  1  0  0  0  0
 23 52  1  0  0  0  0
 23 53  1  0  0  0  0
 23 54  1  0  0  0  0
 24 25  1  0  0  0  0
 25 30  2  0  0  0  0
 25 26  1  0  0  0  0
 26 27  2  0  0  0  0
 26 55  1  0  0  0  0
 27 28  1  0  0  0  0
 27 56  1  0  0  0  0
 28 29  2  0  0  0  0
 28 31  1  0  0  0  0
 29 30  1  0  0  0  0
 29 57  1  0  0  0  0
 30 58  1  0  0  0  0
M  END
$$$$
CHEMBL2096840
 OpenBabel12022417382D

 32 34  0  0  1  0  0  0  0  0999 V2000
    3.4641   -1.0000    0.0000 C   0  0  0  0  0  0  0  0  0  0  0  0
    3.4641    0.0000    0.0000 C   0  0  2  0  0  0  0  0  0  0  0  0
    4.3301    0.5000    0.0000 C   0  0  2  0  0  0  0  0  0  0  0  0
    5.1962    0.0000    0.0000 C   0  0  0  0  0  0  0  0  0  0  0  0
    5.1962   -1.0000    0.0000 C   0  0  0  0  0  0  0  0  0  0  0  0
    6.0622   -1.5000    0.0000 C   0  0  0  0  0  0  0  0  0  0  0  0
    6.0622   -2.5000    0.0000 C   0  0  0  0  0  0  0  0  0  0  0  0
    5.1962   -3.0000    0.0000 C   0  0  0  0  0  0  0  0  0  0  0  0
    4.3301   -2.5000    0.0000 C   0  0  0  0  0  0  0  0  0  0  0  0
    4.3301   -1.5000    0.0000 C   0  0  0  0  0  0  0  0  0  0  0  0
    5.1962   -4.0000    0.0000 Cl  0  0  0  0  0  0  0  0  0  0  0  0
    4.3301    1.5000    0.0000 C   0  0  0  0  0  0  0  0  0  0  0  0
    3.4641    2.0000    0.0000 C   0  0  0  0  0  0  0  0  0  0  0  0
    3.4641    3.0000    0.0000 C   0  0  0  0  0  0  0  0  0  0  0  0
    4.3301    3.5000    0.0000 C   0  0  0  0  0  0  0  0  0  0  0  0
    5.1962    3.0000    0.0000 C   0  0  0  0  0  0  0  0  0  0  0  0
    5.1962    2.0000    0.0000 C   0  0  0  0  0  0  0  0  0  0  0  0
    4.3301    4.5000    0.0000 Cl  0  0  0  0  0  0  0  0  0  0  0  0
    2.5981    0.5000    0.0000 N   0  0  0  0  0  0  0  0  0  0  0  0
    1.7321   -0.0000    0.0000 C   0  0  0  0  0  0  0  0  0  0  0  0
    0.8660    0.5000    0.0000 O   0  0  0  0  0  0  0  0  0  0  0  0
    1.7321   -1.0000    0.0000 C   0  0  0  0  0  0  0  0  0  0  0  0
    2.2321   -1.8660    0.0000 C   0  0  0  0  0  0  0  0  0  0  0  0
    2.7321   -1.0000    0.0000 C   0  0  0  0  0  0  0  0  0  0  0  0
    0.8660   -1.5000    0.0000 O   0  0  0  0  0  0  0  0  0  0  0  0
    0.0000   -1.0000    0.0000 C   0  0  0  0  0  0  0  0  0  0  0  0
   -0.8660   -1.5000    0.0000 C   0  0  0  0  0  0  0  0  0  0  0  0
   -1.7321   -1.0000    0.0000 C   0  0  0  0  0  0  0  0  0  0  0  0
   -1.7321   -0.0000    0.0000 C   0  0  0  0  0  0  0  0  0  0  0  0
   -0.8660    0.5000    0.0000 C   0  0  0  0  0  0  0  0  0  0  0  0
   -0.0000   -0.0000    0.0000 C   0  0  0  0  0  0  0  0  0  0  0  0
   -2.5981    0.5000    0.0000 Cl  0  0  0  0  0  0  0  0  0  0  0  0
  2  1  1  1  0  0  0
  2  3  1  0  0  0  0
  2 19  1  0  0  0  0
  3  4  1  1  0  0  0
  3 12  1  0  0  0  0
  4  5  1  0  0  0  0
  5 10  2  0  0  0  0
  5  6  1  0  0  0  0
  6  7  2  0  0  0  0
  7  8  1  0  0  0  0
  8  9  2  0  0  0  0
  8 11  1  0  0  0  0
  9 10  1  0  0  0  0
 12 17  2  0  0  0  0
 12 13  1  0  0  0  0
 13 14  2  0  0  0  0
 14 15  1  0  0  0  0
 15 16  2  0  0  0  0
 15 18  1  0  0  0  0
 16 17  1  0  0  0  0
 19 20  1  0  0  0  0
 20 21  2  0  0  0  0
 20 22  1  0  0  0  0
 22 23  1  0  0  0  0
 22 24  1  0  0  0  0
 22 25  1  0  0  0  0
 25 26  1  0  0  0  0
 26 31  2  0  0  0  0
 26 27  1  0  0  0  0
 27 28  2  0  0  0  0
 28 29  1  0  0  0  0
 29 30  2  0  0  0  0
 29 32  1  0  0  0  0
 30 31  1  0  0  0  0
M  END
$$$$
CHEMBL511245
 OpenBabel12022417383D

 58 60  0  0  1  0  0  0  0  0999 V2000
    5.4314    0.4086    1.9214 C   0  0  0  0  0  0  0  0  0  0  0  0
    4.6325   -0.8296    1.4993 C   0  0  1  0  0  0  0  0  0  0  0  0
    3.1167   -0.5321    1.1903 C   0  0  2  0  0  0  0  0  0  0  0  0
    2.3558    0.4321    2.1795 C   0  0  0  0  0  0  0  0  0  0  0  0
    1.7004    0.0754    3.5108 C   0  0  0  0  0  0  0  0  0  0  0  0
    1.0740   -1.1455    3.7901 C   0  0  0  0  0  0  0  0  0  0  0  0
    0.2685   -1.3110    4.9329 C   0  0  0  0  0  0  0  0  0  0  0  0
    0.0667   -0.2527    5.8187 C   0  0  0  0  0  0  0  0  0  0  0  0
    0.6911    0.9596    5.5770 C   0  0  0  0  0  0  0  0  0  0  0  0
    1.4963    1.1185    4.4356 C   0  0  0  0  0  0  0  0  0  0  0  0
   -0.9898   -0.4301    7.1590 Cl  0  0  0  0  0  0  0  0  0  0  0  0
    2.3016   -1.7602    0.7844 C   0  0  0  0  0  0  0  0  0  0  0  0
    2.7183   -3.0740    1.0585 C   0  0  0  0  0  0  0  0  0  0  0  0
    2.0495   -4.1697    0.5160 C   0  0  0  0  0  0  0  0  0  0  0  0
    0.9000   -3.9753   -0.2397 C   0  0  0  0  0  0  0  0  0  0  0  0
    0.4115   -2.6868   -0.4387 C   0  0  0  0  0  0  0  0  0  0  0  0
    1.1113   -1.5865    0.0596 C   0  0  0  0  0  0  0  0  0  0  0  0
    5.3376   -1.6129    0.4188 N   0  0  0  0  0  0  0  0  0  0  0  0
    6.1049   -1.1514   -0.6432 C   0  0  0  0  0  0  0  0  0  0  0  0
    6.1233    0.0448   -0.9365 O   0  0  0  0  0  0  0  0  0  0  0  0
    7.0874   -2.2389   -1.3770 C   0  0  0  0  0  0  0  0  0  0  0  0
    8.3647   -1.4002   -1.6288 C   0  0  0  0  0  0  0  0  0  0  0  0
    7.2733   -3.4180   -0.3959 C   0  0  0  0  0  0  0  0  0  0  0  0
    6.6206   -2.7481   -2.6544 O   0  0  0  0  0  0  0  0  0  0  0  0
    7.3647   -3.6408   -3.4097 C   0  0  0  0  0  0  0  0  0  0  0  0
    8.6104   -4.1884   -3.0810 C   0  0  0  0  0  0  0  0  0  0  0  0
    9.2347   -5.1454   -3.8839 C   0  0  0  0  0  0  0  0  0  0  0  0
    8.6608   -5.5712   -5.0607 C   0  0  0  0  0  0  0  0  0  0  0  0
    7.4509   -5.0048   -5.4314 C   0  0  0  0  0  0  0  0  0  0  0  0
    6.8014   -4.0540   -4.6246 C   0  0  0  0  0  0  0  0  0  0  0  0
    6.8914   -5.3865   -6.5881 F   0  0  0  0  0  0  0  0  0  0  0  0
   10.4104   -5.6561   -3.4911 F   0  0  0  0  0  0  0  0  0  0  0  0
    6.5055    0.1964    1.9582 H   0  0  0  0  0  0  0  0  0  0  0  0
    5.1361    0.7367    2.9244 H   0  0  0  0  0  0  0  0  0  0  0  0
    5.2737    1.2462    1.2348 H   0  0  0  0  0  0  0  0  0  0  0  0
    4.6669   -1.5017    2.3666 H   0  0  0  0  0  0  0  0  0  0  0  0
    3.1788    0.0594    0.2613 H   0  0  0  0  0  0  0  0  0  0  0  0
    3.0101    1.2918    2.3678 H   0  0  0  0  0  0  0  0  0  0  0  0
    1.5203    0.8588    1.6027 H   0  0  0  0  0  0  0  0  0  0  0  0
    1.1373   -1.9852    3.1110 H   0  0  0  0  0  0  0  0  0  0  0  0
   -0.2332   -2.2605    5.1047 H   0  0  0  0  0  0  0  0  0  0  0  0
    0.5343    1.8035    6.2467 H   0  0  0  0  0  0  0  0  0  0  0  0
    1.9226    2.1092    4.2532 H   0  0  0  0  0  0  0  0  0  0  0  0
    3.5843   -3.2775    1.6805 H   0  0  0  0  0  0  0  0  0  0  0  0
    2.4366   -5.1721    0.6772 H   0  0  0  0  0  0  0  0  0  0  0  0
    0.3834   -4.8280   -0.6688 H   0  0  0  0  0  0  0  0  0  0  0  0
   -0.5051   -2.5356   -1.0024 H   0  0  0  0  0  0  0  0  0  0  0  0
    0.7243   -0.5887   -0.1379 H   0  0  0  0  0  0  0  0  0  0  0  0
    5.1100   -2.5952    0.3818 H   0  0  0  0  0  0  0  0  0  0  0  0
    8.6569   -0.8288   -0.7444 H   0  0  0  0  0  0  0  0  0  0  0  0
    8.1815   -0.6903   -2.4480 H   0  0  0  0  0  0  0  0  0  0  0  0
    9.2409   -1.9701   -1.9349 H   0  0  0  0  0  0  0  0  0  0  0  0
    7.3772   -3.0824    0.6388 H   0  0  0  0  0  0  0  0  0  0  0  0
    8.1431   -4.0425   -0.5839 H   0  0  0  0  0  0  0  0  0  0  0  0
    6.4111   -4.0975   -0.4706 H   0  0  0  0  0  0  0  0  0  0  0  0
    9.1771   -3.9245   -2.2029 H   0  0  0  0  0  0  0  0  0  0  0  0
    9.1513   -6.3177   -5.6745 H   0  0  0  0  0  0  0  0  0  0  0  0
    5.8529   -3.6510   -4.9669 H   0  0  0  0  0  0  0  0  0  0  0  0
  1 33  1  0  0  0  0
  1 34  1  0  0  0  0
  1 35  1  0  0  0  0
  2  1  1  0  0  0  0
  2 18  1  0  0  0  0
  2 36  1  1  0  0  0
  3 12  1  0  0  0  0
  3  4  1  0  0  0  0
  3  2  1  0  0  0  0
  3 37  1  6  0  0  0
  4  5  1  0  0  0  0
  4 38  1  0  0  0  0
  4 39  1  0  0  0  0
  5 10  2  0  0  0  0
  5  6  1  0  0  0  0
  6  7  2  0  0  0  0
  6 40  1  0  0  0  0
  7  8  1  0  0  0  0
  7 41  1  0  0  0  0
  8  9  2  0  0  0  0
  8 11  1  0  0  0  0
  9 10  1  0  0  0  0
  9 42  1  0  0  0  0
 10 43  1  0  0  0  0
 12 17  2  0  0  0  0
 12 13  1  0  0  0  0
 13 14  2  0  0  0  0
 13 44  1  0  0  0  0
 14 15  1  0  0  0  0
 14 45  1  0  0  0  0
 15 16  2  0  0  0  0
 15 46  1  0  0  0  0
 16 17  1  0  0  0  0
 16 47  1  0  0  0  0
 17 48  1  0  0  0  0
 18 19  1  0  0  0  0
 18 49  1  0  0  0  0
 19 20  2  0  0  0  0
 19 21  1  0  0  0  0
 21 22  1  0  0  0  0
 21 23  1  0  0  0  0
 21 24  1  0  0  0  0
 22 50  1  0  0  0  0
 22 51  1  0  0  0  0
 22 52  1  0  0  0  0
 23 53  1  0  0  0  0
 23 54  1  0  0  0  0
 23 55  1  0  0  0  0
 24 25  1  0  0  0  0
 25 30  2  0  0  0  0
 25 26  1  0  0  0  0
 26 27  2  0  0  0  0
 26 56  1  0  0  0  0
 27 28  1  0  0  0  0
 27 32  1  0  0  0  0
 28 29  2  0  0  0  0
 28 57  1  0  0  0  0
 29 30  1  0  0  0  0
 29 31  1  0  0  0  0
 30 58  1  0  0  0  0
M  END
$$$$
CHEMBL2113249
 OpenBabel12022417383D

 58 60  0  0  1  0  0  0  0  0999 V2000
    5.3931    0.2562    0.5973 C   0  0  0  0  0  0  0  0  0  0  0  0
    4.4947    1.4972    0.6089 C   0  0  1  0  0  0  0  0  0  0  0  0
    2.9391    1.2572    0.5974 C   0  0  2  0  0  0  0  0  0  0  0  0
    2.4169    0.6361    1.9358 C   0  0  0  0  0  0  0  0  0  0  0  0
    2.8055   -0.7831    2.2981 C   0  0  0  0  0  0  0  0  0  0  0  0
    3.0590   -1.7770    1.3429 C   0  0  0  0  0  0  0  0  0  0  0  0
    3.5004   -3.0454    1.7145 C   0  0  0  0  0  0  0  0  0  0  0  0
    3.6525   -3.3542    3.0585 C   0  0  0  0  0  0  0  0  0  0  0  0
    3.3332   -2.4132    4.0327 C   0  0  0  0  0  0  0  0  0  0  0  0
    2.9046   -1.1346    3.6572 C   0  0  0  0  0  0  0  0  0  0  0  0
    4.2524   -4.9001    3.5103 Cl  0  0  0  0  0  0  0  0  0  0  0  0
    2.3502    0.6320   -0.6833 C   0  0  0  0  0  0  0  0  0  0  0  0
    3.0604    0.6063   -1.8981 C   0  0  0  0  0  0  0  0  0  0  0  0
    2.5160    0.0218   -3.0455 C   0  0  0  0  0  0  0  0  0  0  0  0
    1.2495   -0.5350   -2.9985 C   0  0  0  0  0  0  0  0  0  0  0  0
    0.5109   -0.5141   -1.8286 C   0  0  0  0  0  0  0  0  0  0  0  0
    1.0516    0.0790   -0.6850 C   0  0  0  0  0  0  0  0  0  0  0  0
    0.7363   -1.1017   -4.0975 F   0  0  0  0  0  0  0  0  0  0  0  0
    4.9103    2.3219    1.7459 N   0  0  0  0  0  0  0  0  0  0  0  0
    5.3167    3.6347    1.6179 C   0  0  0  0  0  0  0  0  0  0  0  0
    5.2385    4.2204    0.5360 O   0  0  0  0  0  0  0  0  0  0  0  0
    5.9933    4.2956    2.8634 C   0  0  0  0  0  0  0  0  0  0  0  0
    5.8658    3.4336    4.1306 C   0  0  0  0  0  0  0  0  0  0  0  0
    7.4599    4.4469    2.4222 C   0  0  0  0  0  0  0  0  0  0  0  0
    5.2990    5.5576    3.0055 O   0  0  0  0  0  0  0  0  0  0  0  0
    5.5043    6.3620    4.0884 C   0  0  0  0  0  0  0  0  0  0  0  0
    6.7246    6.5467    4.7314 C   0  0  0  0  0  0  0  0  0  0  0  0
    6.8312    7.3652    5.8575 C   0  0  0  0  0  0  0  0  0  0  0  0
    5.7140    8.0428    6.3263 C   0  0  0  0  0  0  0  0  0  0  0  0
    4.4962    7.9173    5.6635 C   0  0  0  0  0  0  0  0  0  0  0  0
    4.3929    7.0818    4.5440 C   0  0  0  0  0  0  0  0  0  0  0  0
    5.8508    9.0379    7.7210 Cl  0  0  0  0  0  0  0  0  0  0  0  0
    6.4303    0.5529    0.4008 H   0  0  0  0  0  0  0  0  0  0  0  0
    5.1099   -0.4572   -0.1793 H   0  0  0  0  0  0  0  0  0  0  0  0
    5.4046   -0.2544    1.5670 H   0  0  0  0  0  0  0  0  0  0  0  0
    4.7434    2.0659   -0.2933 H   0  0  0  0  0  0  0  0  0  0  0  0
    2.5084    2.2721    0.5870 H   0  0  0  0  0  0  0  0  0  0  0  0
    2.7538    1.2932    2.7519 H   0  0  0  0  0  0  0  0  0  0  0  0
    1.3227    0.7054    1.9859 H   0  0  0  0  0  0  0  0  0  0  0  0
    2.9645   -1.5902    0.2789 H   0  0  0  0  0  0  0  0  0  0  0  0
    3.7371   -3.7724    0.9419 H   0  0  0  0  0  0  0  0  0  0  0  0
    3.4252   -2.6630    5.0861 H   0  0  0  0  0  0  0  0  0  0  0  0
    2.6615   -0.4139    4.4338 H   0  0  0  0  0  0  0  0  0  0  0  0
    4.0574    1.0274   -1.9887 H   0  0  0  0  0  0  0  0  0  0  0  0
    3.0781   -0.0003   -3.9740 H   0  0  0  0  0  0  0  0  0  0  0  0
   -0.4769   -0.9618   -1.8051 H   0  0  0  0  0  0  0  0  0  0  0  0
    0.4387    0.0645    0.2124 H   0  0  0  0  0  0  0  0  0  0  0  0
    4.9203    1.8681    2.6475 H   0  0  0  0  0  0  0  0  0  0  0  0
    6.3868    2.4760    4.0212 H   0  0  0  0  0  0  0  0  0  0  0  0
    4.8126    3.2348    4.3629 H   0  0  0  0  0  0  0  0  0  0  0  0
    6.2870    3.9195    5.0147 H   0  0  0  0  0  0  0  0  0  0  0  0
    7.8177    3.5469    1.9084 H   0  0  0  0  0  0  0  0  0  0  0  0
    8.1447    4.5883    3.2600 H   0  0  0  0  0  0  0  0  0  0  0  0
    7.5788    5.2986    1.7426 H   0  0  0  0  0  0  0  0  0  0  0  0
    7.6345    6.0841    4.3860 H   0  0  0  0  0  0  0  0  0  0  0  0
    7.7934    7.4681    6.3518 H   0  0  0  0  0  0  0  0  0  0  0  0
    3.6255    8.4678    6.0127 H   0  0  0  0  0  0  0  0  0  0  0  0
    3.4370    6.9881    4.0331 H   0  0  0  0  0  0  0  0  0  0  0  0
  1 33  1  0  0  0  0
  1 34  1  0  0  0  0
  1 35  1  0  0  0  0
  2  1  1  0  0  0  0
  2 19  1  0  0  0  0
  2 36  1  6  0  0  0
  3 12  1  0  0  0  0
  3  4  1  0  0  0  0
  3  2  1  0  0  0  0
  3 37  1  1  0  0  0
  4  5  1  0  0  0  0
  4 38  1  0  0  0  0
  4 39  1  0  0  0  0
  5 10  2  0  0  0  0
  5  6  1  0  0  0  0
  6  7  2  0  0  0  0
  6 40  1  0  0  0  0
  7  8  1  0  0  0  0
  7 41  1  0  0  0  0
  8  9  2  0  0  0  0
  8 11  1  0  0  0  0
  9 10  1  0  0  0  0
  9 42  1  0  0  0  0
 10 43  1  0  0  0  0
 12 17  2  0  0  0  0
 12 13  1  0  0  0  0
 13 14  2  0  0  0  0
 13 44  1  0  0  0  0
 14 15  1  0  0  0  0
 14 45  1  0  0  0  0
 15 16  2  0  0  0  0
 15 18  1  0  0  0  0
 16 17  1  0  0  0  0
 16 46  1  0  0  0  0
 17 47  1  0  0  0  0
 19 20  1  0  0  0  0
 19 48  1  0  0  0  0
 20 21  2  0  0  0  0
 20 22  1  0  0  0  0
 22 23  1  0  0  0  0
 22 24  1  0  0  0  0
 22 25  1  0  0  0  0
 23 49  1  0  0  0  0
 23 50  1  0  0  0  0
 23 51  1  0  0  0  0
 24 52  1  0  0  0  0
 24 53  1  0  0  0  0
 24 54  1  0  0  0  0
 25 26  1  0  0  0  0
 26 31  2  0  0  0  0
 26 27  1  0  0  0  0
 27 28  2  0  0  0  0
 27 55  1  0  0  0  0
 28 29  1  0  0  0  0
 28 56  1  0  0  0  0
 29 30  2  0  0  0  0
 29 32  1  0  0  0  0
 30 31  1  0  0  0  0
 30 57  1  0  0  0  0
 31 58  1  0  0  0  0
M  END
$$$$
CHEMBL219480
 OpenBabel12022417383D

 58 60  0  0  1  0  0  0  0  0999 V2000
    1.0388    0.2882   -0.1049 C   0  0  0  0  0  0  0  0  0  0  0  0
    2.5738    0.3198   -0.0190 C   0  0  1  0  0  0  0  0  0  0  0  0
    3.2035   -1.0094   -0.5962 C   0  0  1  0  0  0  0  0  0  0  0  0
    2.8446   -1.3364   -2.0772 C   0  0  0  0  0  0  0  0  0  0  0  0
    3.6065   -0.5782   -3.1357 C   0  0  0  0  0  0  0  0  0  0  0  0
    3.0413    0.5270   -3.7809 C   0  0  0  0  0  0  0  0  0  0  0  0
    3.7855    1.2420   -4.7254 C   0  0  0  0  0  0  0  0  0  0  0  0
    5.0897    0.8478   -5.0280 C   0  0  0  0  0  0  0  0  0  0  0  0
    5.6505   -0.2676   -4.4260 C   0  0  0  0  0  0  0  0  0  0  0  0
    4.8969   -0.9871   -3.4974 C   0  0  0  0  0  0  0  0  0  0  0  0
    6.0122    1.7495   -6.1650 Cl  0  0  0  0  0  0  0  0  0  0  0  0
    4.6577   -1.3033   -0.2122 C   0  0  0  0  0  0  0  0  0  0  0  0
    5.2366   -2.5563   -0.5105 C   0  0  0  0  0  0  0  0  0  0  0  0
    6.5611   -2.8547   -0.1699 C   0  0  0  0  0  0  0  0  0  0  0  0
    7.3199   -1.9239    0.5313 C   0  0  0  0  0  0  0  0  0  0  0  0
    6.7597   -0.7002    0.8759 C   0  0  0  0  0  0  0  0  0  0  0  0
    5.4473   -0.3928    0.5026 C   0  0  0  0  0  0  0  0  0  0  0  0
    3.0857    1.6220   -0.5165 N   0  0  0  0  0  0  0  0  0  0  0  0
    2.9822    2.7582    0.2819 C   0  0  0  0  0  0  0  0  0  0  0  0
    2.6099    2.6413    1.4553 O   0  0  0  0  0  0  0  0  0  0  0  0
    3.3718    4.1809   -0.2890 C   0  0  0  0  0  0  0  0  0  0  0  0
    3.0099    4.3206   -1.7689 C   0  0  0  0  0  0  0  0  0  0  0  0
    2.5516    5.1835    0.5597 C   0  0  0  0  0  0  0  0  0  0  0  0
    4.7956    4.2971   -0.0849 O   0  0  0  0  0  0  0  0  0  0  0  0
    5.4693    5.4854   -0.0154 C   0  0  0  0  0  0  0  0  0  0  0  0
    6.6957    5.4204    0.6574 C   0  0  0  0  0  0  0  0  0  0  0  0
    7.4989    6.5539    0.7894 C   0  0  0  0  0  0  0  0  0  0  0  0
    7.1158    7.7724    0.2565 C   0  0  0  0  0  0  0  0  0  0  0  0
    5.9058    7.8316   -0.4224 C   0  0  0  0  0  0  0  0  0  0  0  0
    5.0899    6.7082   -0.5671 C   0  0  0  0  0  0  0  0  0  0  0  0
    5.5167    8.9993   -0.9538 F   0  0  0  0  0  0  0  0  0  0  0  0
    8.6657    6.4639    1.4434 F   0  0  0  0  0  0  0  0  0  0  0  0
    0.6458   -0.6398    0.3229 H   0  0  0  0  0  0  0  0  0  0  0  0
    0.6832    0.3735   -1.1359 H   0  0  0  0  0  0  0  0  0  0  0  0
    0.5955    1.1172    0.4575 H   0  0  0  0  0  0  0  0  0  0  0  0
    2.7936    0.3045    1.0566 H   0  0  0  0  0  0  0  0  0  0  0  0
    2.6647   -1.7893   -0.0320 H   0  0  0  0  0  0  0  0  0  0  0  0
    1.7672   -1.2154   -2.2452 H   0  0  0  0  0  0  0  0  0  0  0  0
    3.0066   -2.4079   -2.2637 H   0  0  0  0  0  0  0  0  0  0  0  0
    2.0243    0.8397   -3.5575 H   0  0  0  0  0  0  0  0  0  0  0  0
    3.3464    2.1021   -5.2202 H   0  0  0  0  0  0  0  0  0  0  0  0
    6.6595   -0.5875   -4.6580 H   0  0  0  0  0  0  0  0  0  0  0  0
    5.3441   -1.8754   -3.0573 H   0  0  0  0  0  0  0  0  0  0  0  0
    4.6683   -3.3192   -1.0401 H   0  0  0  0  0  0  0  0  0  0  0  0
    6.9944   -3.8112   -0.4446 H   0  0  0  0  0  0  0  0  0  0  0  0
    8.3417   -2.1549    0.8164 H   0  0  0  0  0  0  0  0  0  0  0  0
    7.3382    0.0243    1.4445 H   0  0  0  0  0  0  0  0  0  0  0  0
    5.0630    0.5779    0.8044 H   0  0  0  0  0  0  0  0  0  0  0  0
    3.3951    1.7022   -1.4786 H   0  0  0  0  0  0  0  0  0  0  0  0
    2.0096    3.9307   -1.9802 H   0  0  0  0  0  0  0  0  0  0  0  0
    3.7349    3.8068   -2.4079 H   0  0  0  0  0  0  0  0  0  0  0  0
    3.0132    5.3668   -2.0905 H   0  0  0  0  0  0  0  0  0  0  0  0
    1.4976    4.8864    0.6090 H   0  0  0  0  0  0  0  0  0  0  0  0
    2.5633    6.1979    0.1521 H   0  0  0  0  0  0  0  0  0  0  0  0
    2.9392    5.2474    1.5833 H   0  0  0  0  0  0  0  0  0  0  0  0
    7.0335    4.4847    1.0933 H   0  0  0  0  0  0  0  0  0  0  0  0
    7.7435    8.6471    0.3623 H   0  0  0  0  0  0  0  0  0  0  0  0
    4.1769    6.8459   -1.1281 H   0  0  0  0  0  0  0  0  0  0  0  0
  1 33  1  0  0  0  0
  1 34  1  0  0  0  0
  1 35  1  0  0  0  0
  2  1  1  0  0  0  0
  2  3  1  0  0  0  0
  2 18  1  0  0  0  0
  2 36  1  1  0  0  0
  3  4  1  0  0  0  0
  3 12  1  0  0  0  0
  3 37  1  1  0  0  0
  4  5  1  0  0  0  0
  4 38  1  0  0  0  0
  4 39  1  0  0  0  0
  5 10  2  0  0  0  0
  5  6  1  0  0  0  0
  6  7  2  0  0  0  0
  6 40  1  0  0  0  0
  7  8  1  0  0  0  0
  7 41  1  0  0  0  0
  8  9  2  0  0  0  0
  8 11  1  0  0  0  0
  9 10  1  0  0  0  0
  9 42  1  0  0  0  0
 10 43  1  0  0  0  0
 12 17  2  0  0  0  0
 12 13  1  0  0  0  0
 13 14  2  0  0  0  0
 13 44  1  0  0  0  0
 14 15  1  0  0  0  0
 14 45  1  0  0  0  0
 15 16  2  0  0  0  0
 15 46  1  0  0  0  0
 16 17  1  0  0  0  0
 16 47  1  0  0  0  0
 17 48  1  0  0  0  0
 18 19  1  0  0  0  0
 18 49  1  0  0  0  0
 19 20  2  0  0  0  0
 19 21  1  0  0  0  0
 21 22  1  0  0  0  0
 21 23  1  0  0  0  0
 21 24  1  0  0  0  0
 22 50  1  0  0  0  0
 22 51  1  0  0  0  0
 22 52  1  0  0  0  0
 23 53  1  0  0  0  0
 23 54  1  0  0  0  0
 23 55  1  0  0  0  0
 24 25  1  0  0  0  0
 25 30  2  0  0  0  0
 25 26  1  0  0  0  0
 26 27  2  0  0  0  0
 26 56  1  0  0  0  0
 27 28  1  0  0  0  0
 27 32  1  0  0  0  0
 28 29  2  0  0  0  0
 28 57  1  0  0  0  0
 29 30  1  0  0  0  0
 29 31  1  0  0  0  0
 30 58  1  0  0  0  0
M  END
$$$$
CHEMBL2113251
 OpenBabel12022417383D

 58 60  0  0  1  0  0  0  0  0999 V2000
    0.9673   -0.1006   -0.1717 C   0  0  0  0  0  0  0  0  0  0  0  0
    2.5004   -0.0036   -0.0640 C   0  0  1  0  0  0  0  0  0  0  0  0
    3.0015   -0.1427    1.4265 C   0  0  1  0  0  0  0  0  0  0  0  0
    4.5605   -0.2838    1.5492 C   0  0  0  0  0  0  0  0  0  0  0  0
    5.3568    0.9694    1.2345 C   0  0  0  0  0  0  0  0  0  0  0  0
    5.9107    1.1448   -0.0332 C   0  0  0  0  0  0  0  0  0  0  0  0
    6.4683    2.3662   -0.4117 C   0  0  0  0  0  0  0  0  0  0  0  0
    6.5362    3.4054    0.5069 C   0  0  0  0  0  0  0  0  0  0  0  0
    6.0885    3.2174    1.8124 C   0  0  0  0  0  0  0  0  0  0  0  0
    5.5135    1.9994    2.1775 C   0  0  0  0  0  0  0  0  0  0  0  0
    7.1743    4.9293    0.0297 Cl  0  0  0  0  0  0  0  0  0  0  0  0
    2.5014    0.9512    2.3902 C   0  0  0  0  0  0  0  0  0  0  0  0
    1.9607    2.1723    1.9513 C   0  0  0  0  0  0  0  0  0  0  0  0
    1.6250    3.1867    2.8530 C   0  0  0  0  0  0  0  0  0  0  0  0
    1.8686    3.0248    4.2124 C   0  0  0  0  0  0  0  0  0  0  0  0
    2.4066    1.8276    4.6743 C   0  0  0  0  0  0  0  0  0  0  0  0
    2.6878    0.7987    3.7746 C   0  0  0  0  0  0  0  0  0  0  0  0
    3.2238   -0.3319    4.2575 F   0  0  0  0  0  0  0  0  0  0  0  0
    3.0352   -1.0254   -0.9808 N   0  0  0  0  0  0  0  0  0  0  0  0
    3.7601   -0.6832   -2.1164 C   0  0  0  0  0  0  0  0  0  0  0  0
    4.1195    0.4784   -2.3045 O   0  0  0  0  0  0  0  0  0  0  0  0
    4.0746   -1.8129   -3.1590 C   0  0  0  0  0  0  0  0  0  0  0  0
    5.4737   -1.6200   -3.7850 C   0  0  0  0  0  0  0  0  0  0  0  0
    4.1480   -3.1782   -2.4382 C   0  0  0  0  0  0  0  0  0  0  0  0
    3.0811   -1.9825   -4.1827 O   0  0  0  0  0  0  0  0  0  0  0  0
    2.6616   -0.9736   -5.0057 C   0  0  0  0  0  0  0  0  0  0  0  0
    3.1724    0.3194   -5.1004 C   0  0  0  0  0  0  0  0  0  0  0  0
    2.5980    1.2677   -5.9562 C   0  0  0  0  0  0  0  0  0  0  0  0
    1.5135    0.9187   -6.7486 C   0  0  0  0  0  0  0  0  0  0  0  0
    1.0136   -0.3781   -6.7072 C   0  0  0  0  0  0  0  0  0  0  0  0
    1.5886   -1.3175   -5.8408 C   0  0  0  0  0  0  0  0  0  0  0  0
    0.7876    2.0951   -7.7729 Cl  0  0  0  0  0  0  0  0  0  0  0  0
    0.4388    0.6298    0.4436 H   0  0  0  0  0  0  0  0  0  0  0  0
    0.6163   -1.0957    0.1234 H   0  0  0  0  0  0  0  0  0  0  0  0
    0.6521    0.0636   -1.2088 H   0  0  0  0  0  0  0  0  0  0  0  0
    2.8017    0.9786   -0.4383 H   0  0  0  0  0  0  0  0  0  0  0  0
    2.5821   -1.0919    1.7950 H   0  0  0  0  0  0  0  0  0  0  0  0
    4.9059   -1.1069    0.9116 H   0  0  0  0  0  0  0  0  0  0  0  0
    4.8316   -0.6024    2.5632 H   0  0  0  0  0  0  0  0  0  0  0  0
    5.8776    0.3404   -0.7593 H   0  0  0  0  0  0  0  0  0  0  0  0
    6.8184    2.4967   -1.4314 H   0  0  0  0  0  0  0  0  0  0  0  0
    6.1581    4.0201    2.5399 H   0  0  0  0  0  0  0  0  0  0  0  0
    5.1580    1.8769    3.1977 H   0  0  0  0  0  0  0  0  0  0  0  0
    1.8101    2.3848    0.8964 H   0  0  0  0  0  0  0  0  0  0  0  0
    1.1994    4.1161    2.4807 H   0  0  0  0  0  0  0  0  0  0  0  0
    1.6515    3.8345    4.9037 H   0  0  0  0  0  0  0  0  0  0  0  0
    2.6331    1.6965    5.7277 H   0  0  0  0  0  0  0  0  0  0  0  0
    2.6189   -1.9398   -0.9290 H   0  0  0  0  0  0  0  0  0  0  0  0
    6.2528   -1.6187   -3.0138 H   0  0  0  0  0  0  0  0  0  0  0  0
    5.5811   -0.6892   -4.3421 H   0  0  0  0  0  0  0  0  0  0  0  0
    5.6934   -2.4244   -4.4985 H   0  0  0  0  0  0  0  0  0  0  0  0
    4.7937   -3.1333   -1.5534 H   0  0  0  0  0  0  0  0  0  0  0  0
    4.5366   -3.9594   -3.1030 H   0  0  0  0  0  0  0  0  0  0  0  0
    3.1556   -3.5250   -2.1299 H   0  0  0  0  0  0  0  0  0  0  0  0
    4.0215    0.6603   -4.5244 H   0  0  0  0  0  0  0  0  0  0  0  0
    3.0065    2.2756   -5.9850 H   0  0  0  0  0  0  0  0  0  0  0  0
    0.1768   -0.6653   -7.3372 H   0  0  0  0  0  0  0  0  0  0  0  0
    1.1908   -2.3288   -5.8163 H   0  0  0  0  0  0  0  0  0  0  0  0
  1 33  1  0  0  0  0
  1 34  1  0  0  0  0
  1 35  1  0  0  0  0
  2  1  1  0  0  0  0
  2  3  1  0  0  0  0
  2 19  1  0  0  0  0
  2 36  1  6  0  0  0
  3  4  1  0  0  0  0
  3 12  1  0  0  0  0
  3 37  1  1  0  0  0
  4  5  1  0  0  0  0
  4 38  1  0  0  0  0
  4 39  1  0  0  0  0
  5 10  2  0  0  0  0
  5  6  1  0  0  0  0
  6  7  2  0  0  0  0
  6 40  1  0  0  0  0
  7  8  1  0  0  0  0
  7 41  1  0  0  0  0
  8  9  2  0  0  0  0
  8 11  1  0  0  0  0
  9 10  1  0  0  0  0
  9 42  1  0  0  0  0
 10 43  1  0  0  0  0
 12 17  2  0  0  0  0
 12 13  1  0  0  0  0
 13 14  2  0  0  0  0
 13 44  1  0  0  0  0
 14 15  1  0  0  0  0
 14 45  1  0  0  0  0
 15 16  2  0  0  0  0
 15 46  1  0  0  0  0
 16 17  1  0  0  0  0
 16 47  1  0  0  0  0
 17 18  1  0  0  0  0
 19 20  1  0  0  0  0
 19 48  1  0  0  0  0
 20 21  2  0  0  0  0
 20 22  1  0  0  0  0
 22 23  1  0  0  0  0
 22 24  1  0  0  0  0
 22 25  1  0  0  0  0
 23 49  1  0  0  0  0
 23 50  1  0  0  0  0
 23 51  1  0  0  0  0
 24 52  1  0  0  0  0
 24 53  1  0  0  0  0
 24 54  1  0  0  0  0
 25 26  1  0  0  0  0
 26 31  2  0  0  0  0
 26 27  1  0  0  0  0
 27 28  2  0  0  0  0
 27 55  1  0  0  0  0
 28 29  1  0  0  0  0
 28 56  1  0  0  0  0
 29 30  2  0  0  0  0
 29 32  1  0  0  0  0
 30 31  1  0  0  0  0
 30 57  1  0  0  0  0
 31 58  1  0  0  0  0
M  END
$$$$
