CHEMBL70625	5XR8	best_smi
 OpenBabel12022417383D

 68 70  0  0  1  0  0  0  0  0999 V2000
    6.7979    7.8386    1.9662 C   0  0  0  0  0  0  0  0  0  0  0  0
    6.3403    7.4982    0.5564 C   0  0  0  0  0  0  0  0  0  0  0  0
    6.8958    6.1451    0.1194 C   0  0  0  0  0  0  0  0  0  0  0  0
    6.4541    5.7746   -1.2968 C   0  0  0  0  0  0  0  0  0  0  0  0
    7.0325    4.4144   -1.6927 C   0  0  0  0  0  0  0  0  0  0  0  0
    6.6181    4.0187   -3.1160 C   0  0  0  0  0  0  0  0  0  0  0  0
    7.1374    2.6270   -3.5916 C   0  0  0  0  0  0  0  0  0  0  0  0
    6.4906    1.5260   -2.7075 C   0  0  0  0  0  0  0  0  0  0  0  0
    6.6216    2.3906   -5.0297 C   0  0  0  0  0  0  0  0  0  0  0  0
    8.6770    2.5616   -3.5956 C   0  0  0  0  0  0  0  0  0  0  0  0
    9.3630    1.5701   -2.8884 C   0  0  0  0  0  0  0  0  0  0  0  0
   10.7573    1.5244   -2.8617 C   0  0  0  0  0  0  0  0  0  0  0  0
   11.3461    0.4854   -2.2027 O   0  0  0  0  0  0  0  0  0  0  0  0
   11.5387    2.4920   -3.5025 C   0  0  0  0  0  0  0  0  0  0  0  0
   10.8555    3.4358   -4.2899 C   0  0  0  0  0  0  0  0  0  0  0  0
    9.4568    3.4798   -4.3216 C   0  0  0  0  0  0  0  0  0  0  0  0
   11.4858    4.3735   -5.0770 O   0  0  0  0  0  0  0  0  0  0  0  0
   12.9212    4.2586   -5.2225 C   0  0  0  0  0  0  0  0  0  0  0  0
   13.3948    5.6333   -5.7266 C   0  0  0  0  0  0  0  0  0  0  0  0
   13.2224    3.2317   -6.3322 C   0  0  0  0  0  0  0  0  0  0  0  0
   13.5412    3.9269   -3.8400 C   0  0  2  0  0  0  0  0  0  0  0  0
   15.0704    4.0637   -3.7500 C   0  0  0  0  0  0  0  0  0  0  0  0
   15.6026    3.6789   -2.3668 C   0  0  0  0  0  0  0  0  0  0  0  0
   15.1485    2.2716   -1.9807 C   0  0  3  0  0  0  0  0  0  0  0  0
   15.6605    1.8403   -0.6039 C   0  0  0  0  0  0  0  0  0  0  0  0
   17.0808    1.8362   -0.5722 O   0  0  0  0  0  0  0  0  0  0  0  0
   13.6224    2.1892   -2.0107 C   0  0  0  0  0  0  0  0  0  0  0  0
   13.0539    2.5260   -3.4029 C   0  0  1  0  0  0  0  0  0  0  0  0
    6.3973    8.8093    2.2740 H   0  0  0  0  0  0  0  0  0  0  0  0
    7.8903    7.8874    2.0213 H   0  0  0  0  0  0  0  0  0  0  0  0
    6.4530    7.0849    2.6816 H   0  0  0  0  0  0  0  0  0  0  0  0
    6.6759    8.2817   -0.1326 H   0  0  0  0  0  0  0  0  0  0  0  0
    5.2448    7.4826    0.5247 H   0  0  0  0  0  0  0  0  0  0  0  0
    6.5609    5.3702    0.8199 H   0  0  0  0  0  0  0  0  0  0  0  0
    7.9911    6.1684    0.1644 H   0  0  0  0  0  0  0  0  0  0  0  0
    6.7895    6.5425   -2.0042 H   0  0  0  0  0  0  0  0  0  0  0  0
    5.3603    5.7403   -1.3465 H   0  0  0  0  0  0  0  0  0  0  0  0
    6.6839    3.6663   -0.9735 H   0  0  0  0  0  0  0  0  0  0  0  0
    8.1255    4.4531   -1.6172 H   0  0  0  0  0  0  0  0  0  0  0  0
    6.9523    4.8023   -3.8091 H   0  0  0  0  0  0  0  0  0  0  0  0
    5.5208    4.0229   -3.1687 H   0  0  0  0  0  0  0  0  0  0  0  0
    5.3992    1.5954   -2.7131 H   0  0  0  0  0  0  0  0  0  0  0  0
    6.8187    1.5917   -1.6640 H   0  0  0  0  0  0  0  0  0  0  0  0
    6.7508    0.5230   -3.0674 H   0  0  0  0  0  0  0  0  0  0  0  0
    5.5258    2.3881   -5.0577 H   0  0  0  0  0  0  0  0  0  0  0  0
    6.9663    1.4267   -5.4230 H   0  0  0  0  0  0  0  0  0  0  0  0
    6.9608    3.1697   -5.7220 H   0  0  0  0  0  0  0  0  0  0  0  0
    8.8251    0.7968   -2.3475 H   0  0  0  0  0  0  0  0  0  0  0  0
   10.6703    0.0016   -1.6967 H   0  0  0  0  0  0  0  0  0  0  0  0
    8.9762    4.2502   -4.9215 H   0  0  0  0  0  0  0  0  0  0  0  0
   12.8530    5.9222   -6.6348 H   0  0  0  0  0  0  0  0  0  0  0  0
   14.4645    5.6342   -5.9666 H   0  0  0  0  0  0  0  0  0  0  0  0
   13.1990    6.4139   -4.9868 H   0  0  0  0  0  0  0  0  0  0  0  0
   12.8295    3.5798   -7.2954 H   0  0  0  0  0  0  0  0  0  0  0  0
   12.7330    2.2682   -6.1567 H   0  0  0  0  0  0  0  0  0  0  0  0
   14.2963    3.0593   -6.4482 H   0  0  0  0  0  0  0  0  0  0  0  0
   13.1264    4.6544   -3.1221 H   0  0  0  0  0  0  0  0  0  0  0  0
   15.3674    5.1014   -3.9413 H   0  0  0  0  0  0  0  0  0  0  0  0
   15.5571    3.4428   -4.5103 H   0  0  0  0  0  0  0  0  0  0  0  0
   15.2454    4.4025   -1.6228 H   0  0  0  0  0  0  0  0  0  0  0  0
   16.6966    3.7425   -2.3729 H   0  0  0  0  0  0  0  0  0  0  0  0
   15.5582    1.5748   -2.7252 H   0  0  0  0  0  0  0  0  0  0  0  0
   15.3157    0.8281   -0.3632 H   0  0  0  0  0  0  0  0  0  0  0  0
   15.2992    2.5110    0.1833 H   0  0  0  0  0  0  0  0  0  0  0  0
   17.3825    1.2176   -1.2591 H   0  0  0  0  0  0  0  0  0  0  0  0
   13.1842    2.8532   -1.2537 H   0  0  0  0  0  0  0  0  0  0  0  0
   13.3700    1.1679   -1.7182 H   0  0  0  0  0  0  0  0  0  0  0  0
   13.4408    1.7686   -4.0973 H   0  0  0  0  0  0  0  0  0  0  0  0
  1  2  1  0  0  0  0
  1 29  1  0  0  0  0
  1 30  1  0  0  0  0
  1 31  1  0  0  0  0
  2  3  1  0  0  0  0
  2 32  1  0  0  0  0
  2 33  1  0  0  0  0
  3  4  1  0  0  0  0
  3 34  1  0  0  0  0
  3 35  1  0  0  0  0
  4  5  1  0  0  0  0
  4 36  1  0  0  0  0
  4 37  1  0  0  0  0
  5  6  1  0  0  0  0
  5 38  1  0  0  0  0
  5 39  1  0  0  0  0
  6  7  1  0  0  0  0
  6 40  1  0  0  0  0
  6 41  1  0  0  0  0
  7  8  1  0  0  0  0
  7  9  1  0  0  0  0
  7 10  1  0  0  0  0
  8 42  1  0  0  0  0
  8 43  1  0  0  0  0
  8 44  1  0  0  0  0
  9 45  1  0  0  0  0
  9 46  1  0  0  0  0
  9 47  1  0  0  0  0
 10 16  2  0  0  0  0
 10 11  1  0  0  0  0
 11 12  2  0  0  0  0
 11 48  1  0  0  0  0
 12 13  1  0  0  0  0
 12 14  1  0  0  0  0
 13 49  1  0  0  0  0
 14 28  1  0  0  0  0
 14 15  2  0  0  0  0
 15 16  1  0  0  0  0
 15 17  1  0  0  0  0
 16 50  1  0  0  0  0
 17 18  1  0  0  0  0
 18 19  1  0  0  0  0
 18 20  1  0  0  0  0
 18 21  1  0  0  0  0
 19 51  1  0  0  0  0
 19 52  1  0  0  0  0
 19 53  1  0  0  0  0
 20 54  1  0  0  0  0
 20 55  1  0  0  0  0
 20 56  1  0  0  0  0
 21 22  1  0  0  0  0
 21 28  1  0  0  0  0
 21 57  1  1  0  0  0
 22 23  1  0  0  0  0
 22 58  1  0  0  0  0
 22 59  1  0  0  0  0
 23 24  1  0  0  0  0
 23 60  1  0  0  0  0
 23 61  1  0  0  0  0
 24 25  1  0  0  0  0
 24 27  1  0  0  0  0
 24 62  1  0  0  0  0
 25 26  1  0  0  0  0
 25 63  1  0  0  0  0
 25 64  1  0  0  0  0
 26 65  1  0  0  0  0
 27 66  1  0  0  0  0
 27 67  1  0  0  0  0
 28 27  1  0  0  0  0
 28 68  1  6  0  0  0
M  END
$$$$
CHEMBL5085420	5XR8	best_smi
 OpenBabel12022417383D

 70 72  0  0  1  0  0  0  0  0999 V2000
    1.2949   -0.2153    0.8415 C   0  0  0  0  0  0  0  0  0  0  0  0
    2.5839    0.0567    0.0133 C   0  0  0  0  0  0  0  0  0  0  0  0
    2.2690    1.3015   -0.8460 C   0  0  0  0  0  0  0  0  0  0  0  0
    3.7489    0.3865    0.9954 C   0  0  0  0  0  0  0  0  0  0  0  0
    4.1429   -0.7906    1.8989 C   0  0  0  0  0  0  0  0  0  0  0  0
    5.2835   -0.4485    2.8554 C   0  0  0  0  0  0  0  0  0  0  0  0
    5.6076   -1.6680    3.7220 C   0  0  0  0  0  0  0  0  0  0  0  0
    6.7364   -1.3842    4.7064 C   0  0  0  0  0  0  0  0  0  0  0  0
    7.0411   -2.6142    5.5590 C   0  0  0  0  0  0  0  0  0  0  0  0
    8.1325   -2.2690    6.4846 N   0  0  0  0  0  0  0  0  0  0  0  0
    8.4678   -3.1449    7.1833 C   0  0  0  0  0  0  0  0  0  0  0  0
    8.9400   -4.3302    8.1415 S   0  0  0  0  0  0  0  0  0  0  0  0
    2.9608   -1.1067   -0.9215 C   0  0  0  0  0  0  0  0  0  0  0  0
    2.1809   -2.2648   -0.9620 C   0  0  0  0  0  0  0  0  0  0  0  0
    2.4789   -3.3193   -1.8194 C   0  0  0  0  0  0  0  0  0  0  0  0
    1.5937   -4.3593   -1.8578 O   0  0  0  0  0  0  0  0  0  0  0  0
    3.6171   -3.3133   -2.6311 C   0  0  0  0  0  0  0  0  0  0  0  0
    4.3974   -2.1458   -2.6277 C   0  0  0  0  0  0  0  0  0  0  0  0
    4.0787   -1.0663   -1.7799 C   0  0  0  0  0  0  0  0  0  0  0  0
    5.5092   -1.9642   -3.4211 O   0  0  0  0  0  0  0  0  0  0  0  0
    5.7498   -2.9503   -4.4571 C   0  0  0  0  0  0  0  0  0  0  0  0
    7.2236   -2.7892   -4.8741 C   0  0  0  0  0  0  0  0  0  0  0  0
    4.8899   -2.5811   -5.6832 C   0  0  0  0  0  0  0  0  0  0  0  0
    5.4916   -4.3684   -3.8798 C   0  0  2  0  0  0  0  0  0  0  0  0
    5.9682   -5.5418   -4.7567 C   0  0  0  0  0  0  0  0  0  0  0  0
    5.6297   -6.9021   -4.1391 C   0  0  0  0  0  0  0  0  0  0  0  0
    4.1366   -7.0073   -3.8400 C   0  0  1  0  0  0  0  0  0  0  0  0
    3.7396   -8.3450   -3.2099 C   0  0  0  0  0  0  0  0  0  0  0  0
    4.0490   -9.4238   -4.0791 O   0  0  0  0  0  0  0  0  0  0  0  0
    3.7111   -5.8712   -2.9144 C   0  0  0  0  0  0  0  0  0  0  0  0
    3.9965   -4.4865   -3.5167 C   0  0  1  0  0  0  0  0  0  0  0  0
    1.0245    0.6498    1.4569 H   0  0  0  0  0  0  0  0  0  0  0  0
    1.4005   -1.0721    1.5149 H   0  0  0  0  0  0  0  0  0  0  0  0
    0.4374   -0.4223    0.1892 H   0  0  0  0  0  0  0  0  0  0  0  0
    1.8796    2.1187   -0.2267 H   0  0  0  0  0  0  0  0  0  0  0  0
    1.5079    1.0735   -1.6028 H   0  0  0  0  0  0  0  0  0  0  0  0
    3.1535    1.6803   -1.3679 H   0  0  0  0  0  0  0  0  0  0  0  0
    3.4558    1.2351    1.6286 H   0  0  0  0  0  0  0  0  0  0  0  0
    4.6334    0.7182    0.4367 H   0  0  0  0  0  0  0  0  0  0  0  0
    4.4451   -1.6474    1.2860 H   0  0  0  0  0  0  0  0  0  0  0  0
    3.2837   -1.1103    2.4969 H   0  0  0  0  0  0  0  0  0  0  0  0
    4.9945    0.3956    3.4931 H   0  0  0  0  0  0  0  0  0  0  0  0
    6.1705   -0.1446    2.2881 H   0  0  0  0  0  0  0  0  0  0  0  0
    5.8853   -2.5101    3.0761 H   0  0  0  0  0  0  0  0  0  0  0  0
    4.7096   -1.9721    4.2736 H   0  0  0  0  0  0  0  0  0  0  0  0
    6.4623   -0.5435    5.3564 H   0  0  0  0  0  0  0  0  0  0  0  0
    7.6408   -1.0813    4.1638 H   0  0  0  0  0  0  0  0  0  0  0  0
    7.3353   -3.4502    4.9096 H   0  0  0  0  0  0  0  0  0  0  0  0
    6.1409   -2.9122    6.1144 H   0  0  0  0  0  0  0  0  0  0  0  0
    1.3089   -2.3657   -0.3253 H   0  0  0  0  0  0  0  0  0  0  0  0
    0.9063   -4.2277   -1.1852 H   0  0  0  0  0  0  0  0  0  0  0  0
    4.7217   -0.1858   -1.8040 H   0  0  0  0  0  0  0  0  0  0  0  0
    7.4405   -1.7533   -5.1604 H   0  0  0  0  0  0  0  0  0  0  0  0
    7.4771   -3.4257   -5.7302 H   0  0  0  0  0  0  0  0  0  0  0  0
    7.8990   -3.0316   -4.0474 H   0  0  0  0  0  0  0  0  0  0  0  0
    5.2043   -1.6146   -6.0956 H   0  0  0  0  0  0  0  0  0  0  0  0
    3.8332   -2.4523   -5.4290 H   0  0  0  0  0  0  0  0  0  0  0  0
    4.9683   -3.3282   -6.4785 H   0  0  0  0  0  0  0  0  0  0  0  0
    6.0640   -4.4383   -2.9388 H   0  0  0  0  0  0  0  0  0  0  0  0
    7.0557   -5.4999   -4.8866 H   0  0  0  0  0  0  0  0  0  0  0  0
    5.5218   -5.4789   -5.7552 H   0  0  0  0  0  0  0  0  0  0  0  0
    6.2054   -7.0383   -3.2141 H   0  0  0  0  0  0  0  0  0  0  0  0
    5.9390   -7.6976   -4.8262 H   0  0  0  0  0  0  0  0  0  0  0  0
    3.5976   -6.9109   -4.7933 H   0  0  0  0  0  0  0  0  0  0  0  0
    2.6622   -8.3724   -3.0090 H   0  0  0  0  0  0  0  0  0  0  0  0
    4.2578   -8.5061   -2.2583 H   0  0  0  0  0  0  0  0  0  0  0  0
    3.5554   -9.2775   -4.9043 H   0  0  0  0  0  0  0  0  0  0  0  0
    4.1997   -5.9644   -1.9346 H   0  0  0  0  0  0  0  0  0  0  0  0
    2.6416   -6.0157   -2.7512 H   0  0  0  0  0  0  0  0  0  0  0  0
    3.3891   -4.4075   -4.4292 H   0  0  0  0  0  0  0  0  0  0  0  0
  1  2  1  0  0  0  0
  1 32  1  0  0  0  0
  1 33  1  0  0  0  0
  1 34  1  0  0  0  0
  2  3  1  0  0  0  0
  2  4  1  0  0  0  0
  2 13  1  0  0  0  0
  3 35  1  0  0  0  0
  3 36  1  0  0  0  0
  3 37  1  0  0  0  0
  4  5  1  0  0  0  0
  4 38  1  0  0  0  0
  4 39  1  0  0  0  0
  5  6  1  0  0  0  0
  5 40  1  0  0  0  0
  5 41  1  0  0  0  0
  6  7  1  0  0  0  0
  6 42  1  0  0  0  0
  6 43  1  0  0  0  0
  7  8  1  0  0  0  0
  7 44  1  0  0  0  0
  7 45  1  0  0  0  0
  8  9  1  0  0  0  0
  8 46  1  0  0  0  0
  8 47  1  0  0  0  0
  9 10  1  0  0  0  0
  9 48  1  0  0  0  0
  9 49  1  0  0  0  0
 10 11  2  0  0  0  0
 11 12  2  0  0  0  0
 13 19  2  0  0  0  0
 13 14  1  0  0  0  0
 14 15  2  0  0  0  0
 14 50  1  0  0  0  0
 15 16  1  0  0  0  0
 15 17  1  0  0  0  0
 16 51  1  0  0  0  0
 17 31  1  0  0  0  0
 17 18  2  0  0  0  0
 18 19  1  0  0  0  0
 18 20  1  0  0  0  0
 19 52  1  0  0  0  0
 20 21  1  0  0  0  0
 21 22  1  0  0  0  0
 21 23  1  0  0  0  0
 21 24  1  0  0  0  0
 22 53  1  0  0  0  0
 22 54  1  0  0  0  0
 22 55  1  0  0  0  0
 23 56  1  0  0  0  0
 23 57  1  0  0  0  0
 23 58  1  0  0  0  0
 24 25  1  0  0  0  0
 24 31  1  0  0  0  0
 24 59  1  1  0  0  0
 25 26  1  0  0  0  0
 25 60  1  0  0  0  0
 25 61  1  0  0  0  0
 26 27  1  0  0  0  0
 26 62  1  0  0  0  0
 26 63  1  0  0  0  0
 27 28  1  0  0  0  0
 27 30  1  0  0  0  0
 27 64  1  6  0  0  0
 28 29  1  0  0  0  0
 28 65  1  0  0  0  0
 28 66  1  0  0  0  0
 29 67  1  0  0  0  0
 30 68  1  0  0  0  0
 30 69  1  0  0  0  0
 31 30  1  0  0  0  0
 31 70  1  6  0  0  0
M  END
$$$$
CHEMBL5092703	5XR8	best_smi
 OpenBabel12022417383D

 74 77  0  0  1  0  0  0  0  0999 V2000
    0.8841   -0.0461   -0.1353 C   0  0  0  0  0  0  0  0  0  0  0  0
    2.4208   -0.0341    0.0067 C   0  0  0  0  0  0  0  0  0  0  0  0
    2.9981   -0.6095   -1.2997 C   0  0  0  0  0  0  0  0  0  0  0  0
    2.8605    1.3471    0.0835 O   0  0  0  0  0  0  0  0  0  0  0  0
    2.7705    1.9576    1.3177 C   0  0  0  0  0  0  0  0  0  0  0  0
    3.0270    3.3444    1.3298 C   0  0  0  0  0  0  0  0  0  0  0  0
    2.9754    4.0906    2.5264 C   0  0  0  0  0  0  0  0  0  0  0  0
    3.3356    5.5805    2.6020 C   0  0  0  0  0  0  0  0  0  0  0  0
    4.8500    5.7393    2.9130 C   0  0  0  0  0  0  0  0  0  0  0  0
    5.8490    5.1991    1.8968 C   0  0  0  0  0  0  0  0  0  0  0  0
    7.2629    5.4443    2.4259 C   0  0  0  0  0  0  0  0  0  0  0  0
    8.2781    4.9244    1.4289 C   0  0  0  0  0  0  0  0  0  0  0  0
    9.6965    5.1523    1.9192 C   0  0  0  0  0  0  0  0  0  0  0  0
   10.6824    4.6210    0.8873 C   0  0  0  0  0  0  0  0  0  0  0  0
   12.0365    4.8586    1.3890 N   0  0  0  0  0  0  0  0  0  0  0  0
   12.8804    4.4897    0.6748 C   0  0  0  0  0  0  0  0  0  0  0  0
   14.0349    3.9855   -0.3036 S   0  0  0  0  0  0  0  0  0  0  0  0
    2.8619    6.3769    1.3719 C   0  0  0  0  0  0  0  0  0  0  0  0
    2.8400    7.8412    1.8014 C   0  0  0  0  0  0  0  0  0  0  0  0
    2.5941    7.8334    3.3055 C   0  0  0  0  0  0  0  0  0  0  0  0
    2.5739    6.3609    3.7211 C   0  0  0  0  0  0  0  0  0  0  0  0
    2.6125    3.4063    3.6864 C   0  0  0  0  0  0  0  0  0  0  0  0
    2.3266    2.0436    3.6675 C   0  0  0  0  0  0  0  0  0  0  0  0
    1.8782    1.4719    4.8219 O   0  0  0  0  0  0  0  0  0  0  0  0
    2.4676    1.2747    2.5053 C   0  0  0  0  0  0  0  0  0  0  0  0
    2.2941   -0.2340    2.5025 C   0  0  2  0  0  0  0  0  0  0  0  0
    2.8361   -0.9486    3.7522 C   0  0  0  0  0  0  0  0  0  0  0  0
    2.6477   -2.4605    3.6777 C   0  0  2  0  0  0  0  0  0  0  0  0
    3.1109   -3.0886    4.9954 C   0  0  0  0  0  0  0  0  0  0  0  0
    2.9376   -4.4967    4.9754 O   0  0  0  0  0  0  0  0  0  0  0  0
    3.3746   -3.0124    2.4541 C   0  0  0  0  0  0  0  0  0  0  0  0
    2.8777   -2.3389    1.1700 C   0  0  0  0  0  0  0  0  0  0  0  0
    2.9722   -0.8036    1.2381 C   0  0  1  0  0  0  0  0  0  0  0  0
    0.4818   -1.0634   -0.1283 H   0  0  0  0  0  0  0  0  0  0  0  0
    0.5804    0.4342   -1.0733 H   0  0  0  0  0  0  0  0  0  0  0  0
    0.3854    0.5298    0.6507 H   0  0  0  0  0  0  0  0  0  0  0  0
    2.6409   -1.6290   -1.4861 H   0  0  0  0  0  0  0  0  0  0  0  0
    4.0927   -0.6220   -1.2786 H   0  0  0  0  0  0  0  0  0  0  0  0
    2.7084    0.0020   -2.1622 H   0  0  0  0  0  0  0  0  0  0  0  0
    3.2928    3.8247    0.3916 H   0  0  0  0  0  0  0  0  0  0  0  0
    5.0614    5.2543    3.8765 H   0  0  0  0  0  0  0  0  0  0  0  0
    5.0870    6.8006    3.0555 H   0  0  0  0  0  0  0  0  0  0  0  0
    5.7305    5.7008    0.9302 H   0  0  0  0  0  0  0  0  0  0  0  0
    5.7147    4.1245    1.7333 H   0  0  0  0  0  0  0  0  0  0  0  0
    7.3975    4.9428    3.3935 H   0  0  0  0  0  0  0  0  0  0  0  0
    7.4211    6.5169    2.5975 H   0  0  0  0  0  0  0  0  0  0  0  0
    8.1356    5.4292    0.4659 H   0  0  0  0  0  0  0  0  0  0  0  0
    8.1138    3.8528    1.2633 H   0  0  0  0  0  0  0  0  0  0  0  0
    9.8551    4.6481    2.8814 H   0  0  0  0  0  0  0  0  0  0  0  0
    9.8754    6.2222    2.0899 H   0  0  0  0  0  0  0  0  0  0  0  0
   10.5224    5.1356   -0.0680 H   0  0  0  0  0  0  0  0  0  0  0  0
   10.5040    3.5504    0.7311 H   0  0  0  0  0  0  0  0  0  0  0  0
    1.8370    6.0814    1.1066 H   0  0  0  0  0  0  0  0  0  0  0  0
    3.4829    6.2267    0.4853 H   0  0  0  0  0  0  0  0  0  0  0  0
    2.0648    8.4026    1.2703 H   0  0  0  0  0  0  0  0  0  0  0  0
    3.8001    8.3205    1.5786 H   0  0  0  0  0  0  0  0  0  0  0  0
    1.6516    8.3265    3.5657 H   0  0  0  0  0  0  0  0  0  0  0  0
    3.3926    8.3805    3.8217 H   0  0  0  0  0  0  0  0  0  0  0  0
    3.0263    6.2367    4.7137 H   0  0  0  0  0  0  0  0  0  0  0  0
    1.5308    6.0311    3.7988 H   0  0  0  0  0  0  0  0  0  0  0  0
    2.5459    3.9381    4.6286 H   0  0  0  0  0  0  0  0  0  0  0  0
    2.0399    2.0774    5.5620 H   0  0  0  0  0  0  0  0  0  0  0  0
    1.2159   -0.4376    2.4628 H   0  0  0  0  0  0  0  0  0  0  0  0
    2.3035   -0.6328    4.6498 H   0  0  0  0  0  0  0  0  0  0  0  0
    3.8940   -0.6943    3.9023 H   0  0  0  0  0  0  0  0  0  0  0  0
    1.5779   -2.6823    3.5585 H   0  0  0  0  0  0  0  0  0  0  0  0
    2.5292   -2.6889    5.8352 H   0  0  0  0  0  0  0  0  0  0  0  0
    4.1657   -2.8708    5.1916 H   0  0  0  0  0  0  0  0  0  0  0  0
    1.9949   -4.6685    4.8107 H   0  0  0  0  0  0  0  0  0  0  0  0
    3.2215   -4.0945    2.3747 H   0  0  0  0  0  0  0  0  0  0  0  0
    4.4551   -2.8502    2.5600 H   0  0  0  0  0  0  0  0  0  0  0  0
    1.8457   -2.6494    0.9753 H   0  0  0  0  0  0  0  0  0  0  0  0
    3.4902   -2.7170    0.3431 H   0  0  0  0  0  0  0  0  0  0  0  0
    4.0478   -0.5682    1.3061 H   0  0  0  0  0  0  0  0  0  0  0  0
  1  2  1  0  0  0  0
  1 34  1  0  0  0  0
  1 35  1  0  0  0  0
  1 36  1  0  0  0  0
  2 33  1  0  0  0  0
  2  3  1  0  0  0  0
  2  4  1  0  0  0  0
  3 37  1  0  0  0  0
  3 38  1  0  0  0  0
  3 39  1  0  0  0  0
  4  5  1  0  0  0  0
  5 25  2  0  0  0  0
  5  6  1  0  0  0  0
  6  7  2  0  0  0  0
  6 40  1  0  0  0  0
  7  8  1  0  0  0  0
  7 22  1  0  0  0  0
  8 21  1  0  0  0  0
  8  9  1  0  0  0  0
  8 18  1  0  0  0  0
  9 10  1  0  0  0  0
  9 41  1  0  0  0  0
  9 42  1  0  0  0  0
 10 11  1  0  0  0  0
 10 43  1  0  0  0  0
 10 44  1  0  0  0  0
 11 12  1  0  0  0  0
 11 45  1  0  0  0  0
 11 46  1  0  0  0  0
 12 13  1  0  0  0  0
 12 47  1  0  0  0  0
 12 48  1  0  0  0  0
 13 14  1  0  0  0  0
 13 49  1  0  0  0  0
 13 50  1  0  0  0  0
 14 15  1  0  0  0  0
 14 51  1  0  0  0  0
 14 52  1  0  0  0  0
 15 16  2  0  0  0  0
 16 17  2  0  0  0  0
 18 19  1  0  0  0  0
 18 53  1  0  0  0  0
 18 54  1  0  0  0  0
 19 20  1  0  0  0  0
 19 55  1  0  0  0  0
 19 56  1  0  0  0  0
 20 21  1  0  0  0  0
 20 57  1  0  0  0  0
 20 58  1  0  0  0  0
 21 59  1  0  0  0  0
 21 60  1  0  0  0  0
 22 23  2  0  0  0  0
 22 61  1  0  0  0  0
 23 24  1  0  0  0  0
 23 25  1  0  0  0  0
 24 62  1  0  0  0  0
 25 26  1  0  0  0  0
 26 27  1  0  0  0  0
 26 33  1  0  0  0  0
 26 63  1  6  0  0  0
 27 28  1  0  0  0  0
 27 64  1  0  0  0  0
 27 65  1  0  0  0  0
 28 29  1  0  0  0  0
 28 31  1  0  0  0  0
 28 66  1  6  0  0  0
 29 30  1  0  0  0  0
 29 67  1  0  0  0  0
 29 68  1  0  0  0  0
 30 69  1  0  0  0  0
 31 32  1  0  0  0  0
 31 70  1  0  0  0  0
 31 71  1  0  0  0  0
 32 72  1  0  0  0  0
 32 73  1  0  0  0  0
 33 32  1  0  0  0  0
 33 74  1  1  0  0  0
M  END
$$$$
CHEMBL5091754	5XR8	best_smi
 OpenBabel12022417383D

 69 71  0  0  1  0  0  0  0  0999 V2000
    3.3560   -1.1881   -0.2240 C   0  0  0  0  0  0  0  0  0  0  0  0
    2.3883   -0.0167    0.1211 C   0  0  0  0  0  0  0  0  0  0  0  0
    0.9993   -0.3431   -0.4740 C   0  0  0  0  0  0  0  0  0  0  0  0
    2.2646    0.0953    1.6654 C   0  0  0  0  0  0  0  0  0  0  0  0
    3.5782    0.4036    2.3748 C   0  0  0  0  0  0  0  0  0  0  0  0
    3.3742    0.4954    3.8756 C   0  0  0  0  0  0  0  0  0  0  0  0
    4.7197    0.7967    4.5042 C   0  0  0  0  0  0  0  0  0  0  0  0
    4.5883    0.9022    6.0029 C   0  0  0  0  0  0  0  0  0  0  0  0
    5.9488    1.2032    6.5861 C   0  0  0  0  0  0  0  0  0  0  0  0
    5.8042    1.3052    8.0957 C   0  0  0  0  0  0  0  0  0  0  0  0
    5.6841    1.3898    9.3481 N   0  0  0  0  0  0  0  0  0  0  0  0
    2.8760    1.3079   -0.4881 C   0  0  0  0  0  0  0  0  0  0  0  0
    4.0411    1.3785   -1.2449 C   0  0  0  0  0  0  0  0  0  0  0  0
    4.4717    2.5676   -1.8209 C   0  0  0  0  0  0  0  0  0  0  0  0
    5.5805    2.5250   -2.6136 O   0  0  0  0  0  0  0  0  0  0  0  0
    3.7774    3.7676   -1.6173 C   0  0  0  0  0  0  0  0  0  0  0  0
    2.5760    3.6989   -0.9002 C   0  0  0  0  0  0  0  0  0  0  0  0
    2.1436    2.4994   -0.3210 C   0  0  0  0  0  0  0  0  0  0  0  0
    1.7288    4.7620   -0.6854 O   0  0  0  0  0  0  0  0  0  0  0  0
    2.0257    5.9777   -1.4049 C   0  0  0  0  0  0  0  0  0  0  0  0
    1.2550    7.0988   -0.6885 C   0  0  0  0  0  0  0  0  0  0  0  0
    1.4350    5.8580   -2.8265 C   0  0  0  0  0  0  0  0  0  0  0  0
    3.5550    6.2183   -1.3447 C   0  0  2  0  0  0  0  0  0  0  0  0
    4.0146    7.6240   -1.7542 C   0  0  0  0  0  0  0  0  0  0  0  0
    5.5371    7.7589   -1.7426 C   0  0  0  0  0  0  0  0  0  0  0  0
    6.1898    6.6749   -2.5970 C   0  0  1  0  0  0  0  0  0  0  0  0
    7.7163    6.7663   -2.6103 C   0  0  0  0  0  0  0  0  0  0  0  0
    8.1385    8.0163   -3.1309 O   0  0  0  0  0  0  0  0  0  0  0  0
    5.7795    5.2952   -2.0962 C   0  0  0  0  0  0  0  0  0  0  0  0
    4.2590    5.1000   -2.1476 C   0  0  1  0  0  0  0  0  0  0  0  0
    3.0385   -2.1295    0.2265 H   0  0  0  0  0  0  0  0  0  0  0  0
    4.3642   -0.9681    0.1492 H   0  0  0  0  0  0  0  0  0  0  0  0
    3.4299   -1.3485   -1.2987 H   0  0  0  0  0  0  0  0  0  0  0  0
    0.6245   -1.3140   -0.1304 H   0  0  0  0  0  0  0  0  0  0  0  0
    1.0292   -0.3706   -1.5702 H   0  0  0  0  0  0  0  0  0  0  0  0
    0.2529    0.4103   -0.1913 H   0  0  0  0  0  0  0  0  0  0  0  0
    1.8843   -0.8462    2.0834 H   0  0  0  0  0  0  0  0  0  0  0  0
    1.5321    0.8696    1.9333 H   0  0  0  0  0  0  0  0  0  0  0  0
    4.0020    1.3506    2.0213 H   0  0  0  0  0  0  0  0  0  0  0  0
    4.3137   -0.3829    2.1763 H   0  0  0  0  0  0  0  0  0  0  0  0
    2.9716   -0.4452    4.2717 H   0  0  0  0  0  0  0  0  0  0  0  0
    2.6560    1.2882    4.1156 H   0  0  0  0  0  0  0  0  0  0  0  0
    5.1180    1.7358    4.0996 H   0  0  0  0  0  0  0  0  0  0  0  0
    5.4367    0.0062    4.2482 H   0  0  0  0  0  0  0  0  0  0  0  0
    4.1935   -0.0341    6.4179 H   0  0  0  0  0  0  0  0  0  0  0  0
    3.8759    1.6939    6.2682 H   0  0  0  0  0  0  0  0  0  0  0  0
    6.3470    2.1496    6.2037 H   0  0  0  0  0  0  0  0  0  0  0  0
    6.6680    0.4104    6.3520 H   0  0  0  0  0  0  0  0  0  0  0  0
    4.6540    0.4919   -1.4107 H   0  0  0  0  0  0  0  0  0  0  0  0
    6.0089    1.6573   -2.5293 H   0  0  0  0  0  0  0  0  0  0  0  0
    1.2301    2.5210    0.2590 H   0  0  0  0  0  0  0  0  0  0  0  0
    0.1843    6.8680   -0.6353 H   0  0  0  0  0  0  0  0  0  0  0  0
    1.3581    8.0582   -1.2068 H   0  0  0  0  0  0  0  0  0  0  0  0
    1.5989    7.2174    0.3443 H   0  0  0  0  0  0  0  0  0  0  0  0
    0.3421    5.7747   -2.7827 H   0  0  0  0  0  0  0  0  0  0  0  0
    1.7652    4.9528   -3.3457 H   0  0  0  0  0  0  0  0  0  0  0  0
    1.6851    6.7252   -3.4448 H   0  0  0  0  0  0  0  0  0  0  0  0
    3.8557    6.0979   -0.2896 H   0  0  0  0  0  0  0  0  0  0  0  0
    3.6130    8.3648   -1.0533 H   0  0  0  0  0  0  0  0  0  0  0  0
    3.6310    7.8769   -2.7481 H   0  0  0  0  0  0  0  0  0  0  0  0
    5.9024    7.6885   -0.7100 H   0  0  0  0  0  0  0  0  0  0  0  0
    5.8095    8.7548   -2.1092 H   0  0  0  0  0  0  0  0  0  0  0  0
    5.8314    6.8005   -3.6283 H   0  0  0  0  0  0  0  0  0  0  0  0
    8.1428    5.9754   -3.2387 H   0  0  0  0  0  0  0  0  0  0  0  0
    8.1286    6.6495   -1.6030 H   0  0  0  0  0  0  0  0  0  0  0  0
    7.7474    8.1050   -4.0169 H   0  0  0  0  0  0  0  0  0  0  0  0
    6.1488    5.1230   -1.0761 H   0  0  0  0  0  0  0  0  0  0  0  0
    6.2874    4.5778   -2.7437 H   0  0  0  0  0  0  0  0  0  0  0  0
    3.9632    5.1585   -3.2033 H   0  0  0  0  0  0  0  0  0  0  0  0
  1  2  1  0  0  0  0
  1 31  1  0  0  0  0
  1 32  1  0  0  0  0
  1 33  1  0  0  0  0
  2  3  1  0  0  0  0
  2  4  1  0  0  0  0
  2 12  1  0  0  0  0
  3 34  1  0  0  0  0
  3 35  1  0  0  0  0
  3 36  1  0  0  0  0
  4  5  1  0  0  0  0
  4 37  1  0  0  0  0
  4 38  1  0  0  0  0
  5  6  1  0  0  0  0
  5 39  1  0  0  0  0
  5 40  1  0  0  0  0
  6  7  1  0  0  0  0
  6 41  1  0  0  0  0
  6 42  1  0  0  0  0
  7  8  1  0  0  0  0
  7 43  1  0  0  0  0
  7 44  1  0  0  0  0
  8  9  1  0  0  0  0
  8 45  1  0  0  0  0
  8 46  1  0  0  0  0
  9 10  1  0  0  0  0
  9 47  1  0  0  0  0
  9 48  1  0  0  0  0
 10 11  3  0  0  0  0
 12 18  2  0  0  0  0
 12 13  1  0  0  0  0
 13 14  2  0  0  0  0
 13 49  1  0  0  0  0
 14 15  1  0  0  0  0
 14 16  1  0  0  0  0
 15 50  1  0  0  0  0
 16 30  1  0  0  0  0
 16 17  2  0  0  0  0
 17 18  1  0  0  0  0
 17 19  1  0  0  0  0
 18 51  1  0  0  0  0
 19 20  1  0  0  0  0
 20 21  1  0  0  0  0
 20 22  1  0  0  0  0
 20 23  1  0  0  0  0
 21 52  1  0  0  0  0
 21 53  1  0  0  0  0
 21 54  1  0  0  0  0
 22 55  1  0  0  0  0
 22 56  1  0  0  0  0
 22 57  1  0  0  0  0
 23 24  1  0  0  0  0
 23 30  1  0  0  0  0
 23 58  1  1  0  0  0
 24 25  1  0  0  0  0
 24 59  1  0  0  0  0
 24 60  1  0  0  0  0
 25 26  1  0  0  0  0
 25 61  1  0  0  0  0
 25 62  1  0  0  0  0
 26 27  1  0  0  0  0
 26 29  1  0  0  0  0
 26 63  1  6  0  0  0
 27 28  1  0  0  0  0
 27 64  1  0  0  0  0
 27 65  1  0  0  0  0
 28 66  1  0  0  0  0
 29 67  1  0  0  0  0
 29 68  1  0  0  0  0
 30 29  1  0  0  0  0
 30 69  1  6  0  0  0
M  END
$$$$
CHEMBL5081770	5XR8	best_smi
 OpenBabel12022417393D

 70 72  0  0  1  0  0  0  0  0999 V2000
    1.5255   -0.9019    0.7568 C   0  0  0  0  0  0  0  0  0  0  0  0
    2.4400    0.1296    0.0408 C   0  0  0  0  0  0  0  0  0  0  0  0
    1.5864    1.4063   -0.1584 C   0  0  0  0  0  0  0  0  0  0  0  0
    3.6788    0.4649    0.9246 C   0  0  0  0  0  0  0  0  0  0  0  0
    4.5688   -0.7470    1.2183 C   0  0  0  0  0  0  0  0  0  0  0  0
    5.7772   -0.4002    2.0819 C   0  0  0  0  0  0  0  0  0  0  0  0
    6.6016   -1.6660    2.3180 C   0  0  0  0  0  0  0  0  0  0  0  0
    7.8286   -1.3938    3.1774 C   0  0  0  0  0  0  0  0  0  0  0  0
    8.6301   -2.6728    3.3921 C   0  0  0  0  0  0  0  0  0  0  0  0
    9.7975   -2.3592    4.2222 N   0  0  0  0  0  0  0  0  0  0  0  0
   10.5351   -3.3160    4.4722 N   0  3  0  0  0  0  0  0  0  0  0  0
   11.2177   -4.2151    4.7010 N   0  5  0  0  0  0  0  0  0  0  0  0
    2.8909   -0.4534   -1.3115 C   0  0  0  0  0  0  0  0  0  0  0  0
    2.4222   -1.7156   -1.6919 C   0  0  0  0  0  0  0  0  0  0  0  0
    2.7379   -2.2737   -2.9199 C   0  0  0  0  0  0  0  0  0  0  0  0
    2.1305   -3.4519   -3.2441 O   0  0  0  0  0  0  0  0  0  0  0  0
    3.6051   -1.6352   -3.8054 C   0  0  0  0  0  0  0  0  0  0  0  0
    4.0718   -0.3566   -3.4515 C   0  0  0  0  0  0  0  0  0  0  0  0
    3.7364    0.2146   -2.2104 C   0  0  0  0  0  0  0  0  0  0  0  0
    4.8644    0.4289   -4.2595 O   0  0  0  0  0  0  0  0  0  0  0  0
    5.0591   -0.0224   -5.6214 C   0  0  0  0  0  0  0  0  0  0  0  0
    6.2840    0.7363   -6.1669 C   0  0  0  0  0  0  0  0  0  0  0  0
    3.8447    0.4240   -6.4624 C   0  0  0  0  0  0  0  0  0  0  0  0
    5.3193   -1.5502   -5.5992 C   0  0  2  0  0  0  0  0  0  0  0  0
    5.8701   -2.1460   -6.9041 C   0  0  0  0  0  0  0  0  0  0  0  0
    6.0189   -3.6659   -6.8302 C   0  0  0  0  0  0  0  0  0  0  0  0
    4.7067   -4.3257   -6.4131 C   0  0  1  0  0  0  0  0  0  0  0  0
    4.8063   -5.8484   -6.3103 C   0  0  0  0  0  0  0  0  0  0  0  0
    5.1734   -6.4133   -7.5585 O   0  0  0  0  0  0  0  0  0  0  0  0
    4.2475   -3.7710   -5.0709 C   0  0  0  0  0  0  0  0  0  0  0  0
    4.0297   -2.2538   -5.1219 C   0  0  1  0  0  0  0  0  0  0  0  0
    1.0676   -0.5067    1.6660 H   0  0  0  0  0  0  0  0  0  0  0  0
    2.0750   -1.8080    1.0327 H   0  0  0  0  0  0  0  0  0  0  0  0
    0.6957   -1.2111    0.1089 H   0  0  0  0  0  0  0  0  0  0  0  0
    1.1720    1.7695    0.7913 H   0  0  0  0  0  0  0  0  0  0  0  0
    0.7286    1.2216   -0.8198 H   0  0  0  0  0  0  0  0  0  0  0  0
    2.1737    2.2250   -0.5904 H   0  0  0  0  0  0  0  0  0  0  0  0
    3.3439    0.9056    1.8737 H   0  0  0  0  0  0  0  0  0  0  0  0
    4.2968    1.2302    0.4380 H   0  0  0  0  0  0  0  0  0  0  0  0
    4.9309   -1.1800    0.2789 H   0  0  0  0  0  0  0  0  0  0  0  0
    3.9939   -1.5227    1.7343 H   0  0  0  0  0  0  0  0  0  0  0  0
    5.4459    0.0172    3.0398 H   0  0  0  0  0  0  0  0  0  0  0  0
    6.3900    0.3602    1.5838 H   0  0  0  0  0  0  0  0  0  0  0  0
    6.9155   -2.0828    1.3524 H   0  0  0  0  0  0  0  0  0  0  0  0
    5.9746   -2.4243    2.8037 H   0  0  0  0  0  0  0  0  0  0  0  0
    7.5200   -0.9833    4.1471 H   0  0  0  0  0  0  0  0  0  0  0  0
    8.4598   -0.6366    2.6974 H   0  0  0  0  0  0  0  0  0  0  0  0
    8.9540   -3.0794    2.4257 H   0  0  0  0  0  0  0  0  0  0  0  0
    8.0079   -3.4268    3.8896 H   0  0  0  0  0  0  0  0  0  0  0  0
    1.7769   -2.2888   -1.0447 H   0  0  0  0  0  0  0  0  0  0  0  0
    1.6784   -3.8135   -2.4634 H   0  0  0  0  0  0  0  0  0  0  0  0
    4.1419    1.1962   -1.9796 H   0  0  0  0  0  0  0  0  0  0  0  0
    6.1467    1.8204   -6.0808 H   0  0  0  0  0  0  0  0  0  0  0  0
    6.4609    0.5133   -7.2254 H   0  0  0  0  0  0  0  0  0  0  0  0
    7.1881    0.4894   -5.6017 H   0  0  0  0  0  0  0  0  0  0  0  0
    3.7878    1.5185   -6.5054 H   0  0  0  0  0  0  0  0  0  0  0  0
    2.8918    0.1087   -6.0259 H   0  0  0  0  0  0  0  0  0  0  0  0
    3.8994    0.0473   -7.4882 H   0  0  0  0  0  0  0  0  0  0  0  0
    6.0927   -1.7324   -4.8336 H   0  0  0  0  0  0  0  0  0  0  0  0
    6.8617   -1.7287   -7.1155 H   0  0  0  0  0  0  0  0  0  0  0  0
    5.2232   -1.8831   -7.7482 H   0  0  0  0  0  0  0  0  0  0  0  0
    6.8085   -3.9220   -6.1118 H   0  0  0  0  0  0  0  0  0  0  0  0
    6.3427   -4.0408   -7.8074 H   0  0  0  0  0  0  0  0  0  0  0  0
    3.9539   -4.0839   -7.1764 H   0  0  0  0  0  0  0  0  0  0  0  0
    3.8408   -6.2768   -6.0153 H   0  0  0  0  0  0  0  0  0  0  0  0
    5.5448   -6.1476   -5.5596 H   0  0  0  0  0  0  0  0  0  0  0  0
    4.5097   -6.1267   -8.2088 H   0  0  0  0  0  0  0  0  0  0  0  0
    4.9629   -4.0234   -4.2767 H   0  0  0  0  0  0  0  0  0  0  0  0
    3.3170   -4.2918   -4.8397 H   0  0  0  0  0  0  0  0  0  0  0  0
    3.2217   -2.0711   -5.8423 H   0  0  0  0  0  0  0  0  0  0  0  0
  1  2  1  0  0  0  0
  1 32  1  0  0  0  0
  1 33  1  0  0  0  0
  1 34  1  0  0  0  0
  2  3  1  0  0  0  0
  2  4  1  0  0  0  0
  2 13  1  0  0  0  0
  3 35  1  0  0  0  0
  3 36  1  0  0  0  0
  3 37  1  0  0  0  0
  4  5  1  0  0  0  0
  4 38  1  0  0  0  0
  4 39  1  0  0  0  0
  5  6  1  0  0  0  0
  5 40  1  0  0  0  0
  5 41  1  0  0  0  0
  6  7  1  0  0  0  0
  6 42  1  0  0  0  0
  6 43  1  0  0  0  0
  7  8  1  0  0  0  0
  7 44  1  0  0  0  0
  7 45  1  0  0  0  0
  8  9  1  0  0  0  0
  8 46  1  0  0  0  0
  8 47  1  0  0  0  0
  9 10  1  0  0  0  0
  9 48  1  0  0  0  0
  9 49  1  0  0  0  0
 10 11  2  0  0  0  0
 11 12  2  0  0  0  0
 13 19  2  0  0  0  0
 13 14  1  0  0  0  0
 14 15  2  0  0  0  0
 14 50  1  0  0  0  0
 15 16  1  0  0  0  0
 15 17  1  0  0  0  0
 16 51  1  0  0  0  0
 17 31  1  0  0  0  0
 17 18  2  0  0  0  0
 18 19  1  0  0  0  0
 18 20  1  0  0  0  0
 19 52  1  0  0  0  0
 20 21  1  0  0  0  0
 21 22  1  0  0  0  0
 21 23  1  0  0  0  0
 21 24  1  0  0  0  0
 22 53  1  0  0  0  0
 22 54  1  0  0  0  0
 22 55  1  0  0  0  0
 23 56  1  0  0  0  0
 23 57  1  0  0  0  0
 23 58  1  0  0  0  0
 24 25  1  0  0  0  0
 24 31  1  0  0  0  0
 24 59  1  1  0  0  0
 25 26  1  0  0  0  0
 25 60  1  0  0  0  0
 25 61  1  0  0  0  0
 26 27  1  0  0  0  0
 26 62  1  0  0  0  0
 26 63  1  0  0  0  0
 27 28  1  0  0  0  0
 27 30  1  0  0  0  0
 27 64  1  6  0  0  0
 28 29  1  0  0  0  0
 28 65  1  0  0  0  0
 28 66  1  0  0  0  0
 29 67  1  0  0  0  0
 30 68  1  0  0  0  0
 30 69  1  0  0  0  0
 31 30  1  0  0  0  0
 31 70  1  6  0  0  0
M  CHG  2  11   1  12  -1
M  END
$$$$
CHEMBL5074603	5XR8	best_smi
 OpenBabel12022417393D

 77 80  0  0  1  0  0  0  0  0999 V2000
    1.0346   -0.0132   -0.0434 C   0  0  0  0  0  0  0  0  0  0  0  0
    2.5702    0.0026    0.1075 C   0  0  0  0  0  0  0  0  0  0  0  0
    3.1575   -0.5602   -1.1991 C   0  0  0  0  0  0  0  0  0  0  0  0
    3.0130    1.3807    0.1878 O   0  0  0  0  0  0  0  0  0  0  0  0
    2.9413    1.9908    1.4233 C   0  0  0  0  0  0  0  0  0  0  0  0
    3.2207    3.3745    1.4343 C   0  0  0  0  0  0  0  0  0  0  0  0
    3.1574    4.1165    2.6249 C   0  0  0  0  0  0  0  0  0  0  0  0
    3.4631    5.6149    2.7344 C   0  0  0  0  0  0  0  0  0  0  0  0
    2.1405    6.4300    2.6992 C   0  0  0  0  0  0  0  0  0  0  0  0
    1.3282    6.3399    1.4071 C   0  0  0  0  0  0  0  0  0  0  0  0
    0.0820    7.2152    1.5333 C   0  0  0  0  0  0  0  0  0  0  0  0
   -0.7563    7.1343    0.2691 C   0  0  0  0  0  0  0  0  0  0  0  0
   -2.0062    7.9981    0.3806 C   0  0  0  0  0  0  0  0  0  0  0  0
   -2.8136    7.8835   -0.9085 C   0  0  0  0  0  0  0  0  0  0  0  0
   -4.0798    8.7318   -0.8519 C   0  0  0  0  0  0  0  0  0  0  0  0
   -4.7688    8.5528   -2.1266 N   0  0  0  0  0  0  0  0  0  0  0  0
   -5.7773    9.1514   -2.2186 C   0  0  0  0  0  0  0  0  0  0  0  0
   -7.1408    9.9697   -2.3306 S   0  0  0  0  0  0  0  0  0  0  0  0
    4.1914    5.9168    4.0793 C   0  0  0  0  0  0  0  0  0  0  0  0
    4.8451    7.2772    3.9114 C   0  0  0  0  0  0  0  0  0  0  0  0
    5.1097    7.4145    2.4181 C   0  0  0  0  0  0  0  0  0  0  0  0
    4.5186    6.1651    1.7503 C   0  0  0  0  0  0  0  0  0  0  0  0
    2.7260    3.4391    3.7737 C   0  0  0  0  0  0  0  0  0  0  0  0
    2.4576    2.0757    3.7648 C   0  0  0  0  0  0  0  0  0  0  0  0
    1.9992    1.5150    4.9193 O   0  0  0  0  0  0  0  0  0  0  0  0
    2.6228    1.3053    2.6097 C   0  0  0  0  0  0  0  0  0  0  0  0
    2.4413   -0.2024    2.6062 C   0  0  2  0  0  0  0  0  0  0  0  0
    2.9843   -0.9232    3.8535 C   0  0  0  0  0  0  0  0  0  0  0  0
    2.7968   -2.4362    3.7734 C   0  0  2  0  0  0  0  0  0  0  0  0
    3.2685   -3.0752    5.0833 C   0  0  0  0  0  0  0  0  0  0  0  0
    3.0822   -4.4819    5.0602 O   0  0  0  0  0  0  0  0  0  0  0  0
    3.5157   -2.9846    2.5426 C   0  0  0  0  0  0  0  0  0  0  0  0
    3.0084   -2.3067    1.2652 C   0  0  0  0  0  0  0  0  0  0  0  0
    3.1140   -0.7724    1.3375 C   0  0  1  0  0  0  0  0  0  0  0  0
    0.6355   -1.0323   -0.0447 H   0  0  0  0  0  0  0  0  0  0  0  0
    0.7346    0.4688   -0.9817 H   0  0  0  0  0  0  0  0  0  0  0  0
    0.5291    0.5563    0.7428 H   0  0  0  0  0  0  0  0  0  0  0  0
    2.8019   -1.5769   -1.4013 H   0  0  0  0  0  0  0  0  0  0  0  0
    4.2520   -0.5721   -1.1685 H   0  0  0  0  0  0  0  0  0  0  0  0
    2.8763    0.0630   -2.0563 H   0  0  0  0  0  0  0  0  0  0  0  0
    3.4770    3.8600    0.4947 H   0  0  0  0  0  0  0  0  0  0  0  0
    2.3489    7.4907    2.8834 H   0  0  0  0  0  0  0  0  0  0  0  0
    1.4968    6.1058    3.5283 H   0  0  0  0  0  0  0  0  0  0  0  0
    1.0227    5.3061    1.2108 H   0  0  0  0  0  0  0  0  0  0  0  0
    1.9204    6.6755    0.5488 H   0  0  0  0  0  0  0  0  0  0  0  0
    0.3756    8.2565    1.7170 H   0  0  0  0  0  0  0  0  0  0  0  0
   -0.5146    6.8903    2.3948 H   0  0  0  0  0  0  0  0  0  0  0  0
   -1.0452    6.0927    0.0855 H   0  0  0  0  0  0  0  0  0  0  0  0
   -0.1588    7.4621   -0.5905 H   0  0  0  0  0  0  0  0  0  0  0  0
   -1.7265    9.0439    0.5563 H   0  0  0  0  0  0  0  0  0  0  0  0
   -2.6121    7.6755    1.2360 H   0  0  0  0  0  0  0  0  0  0  0  0
   -3.0845    6.8336   -1.0788 H   0  0  0  0  0  0  0  0  0  0  0  0
   -2.1993    8.1943   -1.7581 H   0  0  0  0  0  0  0  0  0  0  0  0
   -3.8058    9.7843   -0.6892 H   0  0  0  0  0  0  0  0  0  0  0  0
   -4.7035    8.4043   -0.0087 H   0  0  0  0  0  0  0  0  0  0  0  0
    4.9709    5.1672    4.2722 H   0  0  0  0  0  0  0  0  0  0  0  0
    3.5193    5.9234    4.9448 H   0  0  0  0  0  0  0  0  0  0  0  0
    5.7593    7.3538    4.5082 H   0  0  0  0  0  0  0  0  0  0  0  0
    4.1697    8.0699    4.2548 H   0  0  0  0  0  0  0  0  0  0  0  0
    6.1819    7.5008    2.2145 H   0  0  0  0  0  0  0  0  0  0  0  0
    4.6314    8.3252    2.0400 H   0  0  0  0  0  0  0  0  0  0  0  0
    4.1209    6.4017    0.7593 H   0  0  0  0  0  0  0  0  0  0  0  0
    5.3260    5.4362    1.6028 H   0  0  0  0  0  0  0  0  0  0  0  0
    2.5885    3.9844    4.7019 H   0  0  0  0  0  0  0  0  0  0  0  0
    2.1607    2.1265    5.6562 H   0  0  0  0  0  0  0  0  0  0  0  0
    1.3617   -0.3995    2.5689 H   0  0  0  0  0  0  0  0  0  0  0  0
    2.4555   -0.6051    4.7535 H   0  0  0  0  0  0  0  0  0  0  0  0
    4.0430   -0.6708    4.0015 H   0  0  0  0  0  0  0  0  0  0  0  0
    1.7262   -2.6588    3.6592 H   0  0  0  0  0  0  0  0  0  0  0  0
    2.7004   -2.6736    5.9314 H   0  0  0  0  0  0  0  0  0  0  0  0
    4.3280   -2.8691    5.2681 H   0  0  0  0  0  0  0  0  0  0  0  0
    2.1350   -4.6455    4.9139 H   0  0  0  0  0  0  0  0  0  0  0  0
    3.3634   -4.0665    2.4598 H   0  0  0  0  0  0  0  0  0  0  0  0
    4.5970   -2.8220    2.6402 H   0  0  0  0  0  0  0  0  0  0  0  0
    1.9724   -2.6111    1.0819 H   0  0  0  0  0  0  0  0  0  0  0  0
    3.6089   -2.6859    0.4305 H   0  0  0  0  0  0  0  0  0  0  0  0
    4.1907   -0.5449    1.4075 H   0  0  0  0  0  0  0  0  0  0  0  0
  1  2  1  0  0  0  0
  1 35  1  0  0  0  0
  1 36  1  0  0  0  0
  1 37  1  0  0  0  0
  2 34  1  0  0  0  0
  2  3  1  0  0  0  0
  2  4  1  0  0  0  0
  3 38  1  0  0  0  0
  3 39  1  0  0  0  0
  3 40  1  0  0  0  0
  4  5  1  0  0  0  0
  5 26  2  0  0  0  0
  5  6  1  0  0  0  0
  6  7  2  0  0  0  0
  6 41  1  0  0  0  0
  7  8  1  0  0  0  0
  7 23  1  0  0  0  0
  8 22  1  0  0  0  0
  8  9  1  0  0  0  0
  8 19  1  0  0  0  0
  9 10  1  0  0  0  0
  9 42  1  0  0  0  0
  9 43  1  0  0  0  0
 10 11  1  0  0  0  0
 10 44  1  0  0  0  0
 10 45  1  0  0  0  0
 11 12  1  0  0  0  0
 11 46  1  0  0  0  0
 11 47  1  0  0  0  0
 12 13  1  0  0  0  0
 12 48  1  0  0  0  0
 12 49  1  0  0  0  0
 13 14  1  0  0  0  0
 13 50  1  0  0  0  0
 13 51  1  0  0  0  0
 14 15  1  0  0  0  0
 14 52  1  0  0  0  0
 14 53  1  0  0  0  0
 15 16  1  0  0  0  0
 15 54  1  0  0  0  0
 15 55  1  0  0  0  0
 16 17  2  0  0  0  0
 17 18  2  0  0  0  0
 19 20  1  0  0  0  0
 19 56  1  0  0  0  0
 19 57  1  0  0  0  0
 20 21  1  0  0  0  0
 20 58  1  0  0  0  0
 20 59  1  0  0  0  0
 21 22  1  0  0  0  0
 21 60  1  0  0  0  0
 21 61  1  0  0  0  0
 22 62  1  0  0  0  0
 22 63  1  0  0  0  0
 23 24  2  0  0  0  0
 23 64  1  0  0  0  0
 24 25  1  0  0  0  0
 24 26  1  0  0  0  0
 25 65  1  0  0  0  0
 26 27  1  0  0  0  0
 27 28  1  0  0  0  0
 27 34  1  0  0  0  0
 27 66  1  6  0  0  0
 28 29  1  0  0  0  0
 28 67  1  0  0  0  0
 28 68  1  0  0  0  0
 29 30  1  0  0  0  0
 29 32  1  0  0  0  0
 29 69  1  6  0  0  0
 30 31  1  0  0  0  0
 30 70  1  0  0  0  0
 30 71  1  0  0  0  0
 31 72  1  0  0  0  0
 32 33  1  0  0  0  0
 32 73  1  0  0  0  0
 32 74  1  0  0  0  0
 33 75  1  0  0  0  0
 33 76  1  0  0  0  0
 34 33  1  0  0  0  0
 34 77  1  1  0  0  0
M  END
$$$$
