CHEMBL2218896	5XRA	best_smi
 OpenBabel12022417393D

 63 65  0  0  1  0  0  0  0  0999 V2000
    6.7454   -9.6371    7.0661 C   0  0  0  0  0  0  0  0  0  0  0  0
    6.3317   -8.1857    6.8716 C   0  0  0  0  0  0  0  0  0  0  0  0
    6.8767   -7.6399    5.5550 C   0  0  0  0  0  0  0  0  0  0  0  0
    6.4840   -6.1796    5.3136 C   0  0  0  0  0  0  0  0  0  0  0  0
    7.0708   -5.7125    3.9782 C   0  0  0  0  0  0  0  0  0  0  0  0
    6.7065   -4.2625    3.6421 C   0  0  0  0  0  0  0  0  0  0  0  0
    7.3304   -3.7442    2.3001 C   0  0  0  0  0  0  0  0  0  0  0  0
    6.7422   -4.5491    1.1201 C   0  0  0  0  0  0  0  0  0  0  0  0
    6.8474   -2.2810    2.0990 C   0  0  0  0  0  0  0  0  0  0  0  0
    8.8743   -3.7604    2.3630 C   0  0  0  0  0  0  0  0  0  0  0  0
    9.7189   -4.4352    1.4627 C   0  0  0  0  0  0  0  0  0  0  0  0
   11.1327   -4.3318    1.5458 C   0  0  0  0  0  0  0  0  0  0  0  0
   11.8972   -4.9606    0.6074 O   0  0  0  0  0  0  0  0  0  0  0  0
   11.7628   -3.5643    2.5393 C   0  0  0  0  0  0  0  0  0  0  0  0
   10.9036   -2.9717    3.4832 C   0  0  0  0  0  0  0  0  0  0  0  0
    9.5102   -3.0487    3.3844 C   0  0  0  0  0  0  0  0  0  0  0  0
   11.3161   -2.2132    4.5513 O   0  0  0  0  0  0  0  0  0  0  0  0
   12.7336   -2.2322    4.8064 C   0  0  0  0  0  0  0  0  0  0  0  0
   13.0173   -3.5417    5.5652 C   0  0  0  0  0  0  0  0  0  0  0  0
   12.9881   -1.0834    5.7897 C   0  0  0  0  0  0  0  0  0  0  0  0
   13.4098   -1.9715    3.4319 C   0  0  3  0  0  0  0  0  0  0  0  0
   14.8044   -1.3681    3.3798 C   0  0  0  0  0  0  0  0  0  0  0  0
   15.9652   -2.3225    3.4789 C   0  0  0  0  0  0  0  0  0  0  0  0
   15.7134   -3.7496    3.0408 C   0  0  0  0  0  0  0  0  0  0  0  0
   16.6739   -4.5260    2.9955 O   0  0  0  0  0  0  0  0  0  0  0  0
   14.3050   -4.2702    2.7894 C   0  0  0  0  0  0  0  0  0  0  0  0
   13.2614   -3.1945    2.5072 C   0  0  3  0  0  0  0  0  0  0  0  0
    6.3410  -10.0270    8.0045 H   0  0  0  0  0  0  0  0  0  0  0  0
    7.8362   -9.7330    7.1007 H   0  0  0  0  0  0  0  0  0  0  0  0
    6.3746  -10.2652    6.2489 H   0  0  0  0  0  0  0  0  0  0  0  0
    6.7057   -7.5874    7.7094 H   0  0  0  0  0  0  0  0  0  0  0  0
    5.2384   -8.1180    6.8808 H   0  0  0  0  0  0  0  0  0  0  0  0
    6.5045   -8.2550    4.7263 H   0  0  0  0  0  0  0  0  0  0  0  0
    7.9704   -7.7257    5.5506 H   0  0  0  0  0  0  0  0  0  0  0  0
    6.8578   -5.5502    6.1298 H   0  0  0  0  0  0  0  0  0  0  0  0
    5.3920   -6.0832    5.2981 H   0  0  0  0  0  0  0  0  0  0  0  0
    6.7035   -6.3771    3.1910 H   0  0  0  0  0  0  0  0  0  0  0  0
    8.1596   -5.8229    4.0180 H   0  0  0  0  0  0  0  0  0  0  0  0
    7.0083   -3.6205    4.4787 H   0  0  0  0  0  0  0  0  0  0  0  0
    5.6125   -4.1768    3.5889 H   0  0  0  0  0  0  0  0  0  0  0  0
    5.6462   -4.4793    1.1103 H   0  0  0  0  0  0  0  0  0  0  0  0
    6.9990   -5.6107    1.1685 H   0  0  0  0  0  0  0  0  0  0  0  0
    7.0974   -4.1672    0.1570 H   0  0  0  0  0  0  0  0  0  0  0  0
    5.7562   -2.2380    1.9842 H   0  0  0  0  0  0  0  0  0  0  0  0
    7.2919   -1.8326    1.2030 H   0  0  0  0  0  0  0  0  0  0  0  0
    7.0984   -1.6372    2.9499 H   0  0  0  0  0  0  0  0  0  0  0  0
    9.2835   -5.0290    0.6562 H   0  0  0  0  0  0  0  0  0  0  0  0
   11.3293   -5.4944    0.0303 H   0  0  0  0  0  0  0  0  0  0  0  0
    8.9286   -2.5018    4.1239 H   0  0  0  0  0  0  0  0  0  0  0  0
   12.4684   -3.5491    6.5164 H   0  0  0  0  0  0  0  0  0  0  0  0
   14.0806   -3.6750    5.7824 H   0  0  0  0  0  0  0  0  0  0  0  0
   12.6361   -4.4278    5.0499 H   0  0  0  0  0  0  0  0  0  0  0  0
   12.2514   -1.0945    6.6013 H   0  0  0  0  0  0  0  0  0  0  0  0
   12.8867   -0.1099    5.2987 H   0  0  0  0  0  0  0  0  0  0  0  0
   13.9869   -1.1524    6.2330 H   0  0  0  0  0  0  0  0  0  0  0  0
   12.7940   -1.1769    2.9700 H   0  0  0  0  0  0  0  0  0  0  0  0
   14.8908   -0.8447    2.4158 H   0  0  0  0  0  0  0  0  0  0  0  0
   14.9206   -0.5697    4.1220 H   0  0  0  0  0  0  0  0  0  0  0  0
   16.3364   -2.3375    4.5094 H   0  0  0  0  0  0  0  0  0  0  0  0
   16.7767   -1.9285    2.8537 H   0  0  0  0  0  0  0  0  0  0  0  0
   14.0499   -4.9034    3.6430 H   0  0  0  0  0  0  0  0  0  0  0  0
   14.3772   -4.9454    1.9284 H   0  0  0  0  0  0  0  0  0  0  0  0
   13.4521   -2.8314    1.4857 H   0  0  0  0  0  0  0  0  0  0  0  0
  1  2  1  0  0  0  0
  1 28  1  0  0  0  0
  1 29  1  0  0  0  0
  1 30  1  0  0  0  0
  2  3  1  0  0  0  0
  2 31  1  0  0  0  0
  2 32  1  0  0  0  0
  3  4  1  0  0  0  0
  3 33  1  0  0  0  0
  3 34  1  0  0  0  0
  4  5  1  0  0  0  0
  4 35  1  0  0  0  0
  4 36  1  0  0  0  0
  5  6  1  0  0  0  0
  5 37  1  0  0  0  0
  5 38  1  0  0  0  0
  6  7  1  0  0  0  0
  6 39  1  0  0  0  0
  6 40  1  0  0  0  0
  7  8  1  0  0  0  0
  7  9  1  0  0  0  0
  7 10  1  0  0  0  0
  8 41  1  0  0  0  0
  8 42  1  0  0  0  0
  8 43  1  0  0  0  0
  9 44  1  0  0  0  0
  9 45  1  0  0  0  0
  9 46  1  0  0  0  0
 10 16  2  0  0  0  0
 10 11  1  0  0  0  0
 11 12  2  0  0  0  0
 11 47  1  0  0  0  0
 12 13  1  0  0  0  0
 12 14  1  0  0  0  0
 13 48  1  0  0  0  0
 14 27  1  0  0  0  0
 14 15  2  0  0  0  0
 15 16  1  0  0  0  0
 15 17  1  0  0  0  0
 16 49  1  0  0  0  0
 17 18  1  0  0  0  0
 18 19  1  0  0  0  0
 18 20  1  0  0  0  0
 18 21  1  0  0  0  0
 19 50  1  0  0  0  0
 19 51  1  0  0  0  0
 19 52  1  0  0  0  0
 20 53  1  0  0  0  0
 20 54  1  0  0  0  0
 20 55  1  0  0  0  0
 21 27  1  0  0  0  0
 21 22  1  0  0  0  0
 21 56  1  0  0  0  0
 22 23  1  0  0  0  0
 22 57  1  0  0  0  0
 22 58  1  0  0  0  0
 23 24  1  0  0  0  0
 23 59  1  0  0  0  0
 23 60  1  0  0  0  0
 24 25  2  0  0  0  0
 24 26  1  0  0  0  0
 26 27  1  0  0  0  0
 26 61  1  0  0  0  0
 26 62  1  0  0  0  0
 27 63  1  0  0  0  0
M  END
$$$$
CHEMBL140353	5XRA	best_smi
 OpenBabel12022417393D

 73 76  0  0  1  0  0  0  0  0999 V2000
    6.4739    3.9691    0.4912 C   0  0  0  0  0  0  0  0  0  0  0  0
    6.0903    2.5071    0.5570 C   0  0  0  0  0  0  0  0  0  0  0  0
    6.1474    1.8893   -0.6692 C   0  0  0  0  0  0  0  0  0  0  0  0
    4.8437    1.3158   -1.2940 C   0  0  0  0  0  0  0  0  0  0  0  0
    3.7627    1.7313   -0.2971 C   0  0  2  0  0  0  0  0  0  0  0  0
    4.2038    0.9578    0.9682 C   0  0  1  0  0  0  0  0  0  0  0  0
    5.0227    2.0628    1.6679 C   0  0  0  0  0  0  0  0  0  0  0  0
    3.1233   -0.0579    1.2372 C   0  0  0  0  0  0  0  0  0  0  0  0
    3.3404   -1.4450    1.0601 C   0  0  0  0  0  0  0  0  0  0  0  0
    4.5854   -1.9062    0.7529 O   0  0  0  0  0  0  0  0  0  0  0  0
    2.2894   -2.3568    0.8722 C   0  0  0  0  0  0  0  0  0  0  0  0
    0.9650   -1.9156    0.7608 C   0  0  0  0  0  0  0  0  0  0  0  0
   -0.0948   -2.7612    0.0227 C   0  0  0  0  0  0  0  0  0  0  0  0
   -1.2954   -1.9191   -0.4863 C   0  0  0  0  0  0  0  0  0  0  0  0
   -0.6349   -3.8578    0.9550 C   0  0  0  0  0  0  0  0  0  0  0  0
    0.5248   -3.4545   -1.2383 C   0  0  0  0  0  0  0  0  0  0  0  0
    1.1656   -2.4816   -2.2381 C   0  0  0  0  0  0  0  0  0  0  0  0
    1.8298   -3.2343   -3.3761 C   0  0  0  0  0  0  0  0  0  0  0  0
    2.5460   -2.2855   -4.3408 C   0  0  0  0  0  0  0  0  0  0  0  0
    3.2927   -3.0991   -5.3654 C   0  0  0  0  0  0  0  0  0  0  0  0
    3.4916   -4.3068   -5.2087 O   0  0  0  0  0  0  0  0  0  0  0  0
    3.7069   -2.3787   -6.4792 N   0  0  0  0  0  0  0  0  0  0  0  0
    4.1764   -3.1715   -7.5551 C   0  0  0  0  0  0  0  0  0  0  0  0
    5.3136   -3.9566   -7.3609 C   0  0  0  0  0  0  0  0  0  0  0  0
    5.5570   -5.0365   -8.2117 C   0  0  0  0  0  0  0  0  0  0  0  0
    4.6682   -5.3039   -9.2478 C   0  0  0  0  0  0  0  0  0  0  0  0
    4.8595   -6.7415  -10.1715 Cl  0  0  0  0  0  0  0  0  0  0  0  0
    3.5907   -4.4560   -9.5101 C   0  0  0  0  0  0  0  0  0  0  0  0
    3.3591   -3.3632   -8.6774 C   0  0  0  0  0  0  0  0  0  0  0  0
    1.9699   -2.3732   -8.9476 Cl  0  0  0  0  0  0  0  0  0  0  0  0
    0.7172   -0.5694    1.0651 C   0  0  0  0  0  0  0  0  0  0  0  0
    1.7963    0.3208    1.1495 C   0  0  0  0  0  0  0  0  0  0  0  0
    1.5008    1.5886    0.7266 O   0  0  0  0  0  0  0  0  0  0  0  0
    2.2437    1.9373   -0.4665 C   0  0  0  0  0  0  0  0  0  0  0  0
    1.9174    3.4521   -0.5300 C   0  0  0  0  0  0  0  0  0  0  0  0
    1.7225    1.2887   -1.7417 C   0  0  0  0  0  0  0  0  0  0  0  0
    6.6125    4.4264    1.4713 H   0  0  0  0  0  0  0  0  0  0  0  0
    5.6530    4.5022   -0.0119 H   0  0  0  0  0  0  0  0  0  0  0  0
    7.3686    4.1292   -0.1218 H   0  0  0  0  0  0  0  0  0  0  0  0
    6.8913    2.1850   -1.4073 H   0  0  0  0  0  0  0  0  0  0  0  0
    4.9232    0.2259   -1.4166 H   0  0  0  0  0  0  0  0  0  0  0  0
    4.6866    1.7655   -2.2725 H   0  0  0  0  0  0  0  0  0  0  0  0
    4.0014    2.7954   -0.1870 H   0  0  0  0  0  0  0  0  0  0  0  0
    5.0400    0.2701    0.7838 H   0  0  0  0  0  0  0  0  0  0  0  0
    5.5321    1.7113    2.5711 H   0  0  0  0  0  0  0  0  0  0  0  0
    4.3882    2.9175    1.9560 H   0  0  0  0  0  0  0  0  0  0  0  0
    4.5282   -2.2069   -0.1945 H   0  0  0  0  0  0  0  0  0  0  0  0
    2.5454   -3.3891    0.6461 H   0  0  0  0  0  0  0  0  0  0  0  0
   -1.9538   -1.6184    0.3363 H   0  0  0  0  0  0  0  0  0  0  0  0
   -1.9056   -2.4799   -1.2054 H   0  0  0  0  0  0  0  0  0  0  0  0
   -0.9705   -1.0055   -0.9981 H   0  0  0  0  0  0  0  0  0  0  0  0
   -1.3408   -4.5093    0.4236 H   0  0  0  0  0  0  0  0  0  0  0  0
   -1.1637   -3.4272    1.8134 H   0  0  0  0  0  0  0  0  0  0  0  0
    0.1686   -4.4924    1.3443 H   0  0  0  0  0  0  0  0  0  0  0  0
    1.2664   -4.2044   -0.9347 H   0  0  0  0  0  0  0  0  0  0  0  0
   -0.2567   -4.0254   -1.7628 H   0  0  0  0  0  0  0  0  0  0  0  0
    0.4202   -1.7905   -2.6436 H   0  0  0  0  0  0  0  0  0  0  0  0
    1.9359   -1.8829   -1.7478 H   0  0  0  0  0  0  0  0  0  0  0  0
    1.0801   -3.8213   -3.9228 H   0  0  0  0  0  0  0  0  0  0  0  0
    2.5475   -3.9503   -2.9564 H   0  0  0  0  0  0  0  0  0  0  0  0
    3.2767   -1.6698   -3.8040 H   0  0  0  0  0  0  0  0  0  0  0  0
    1.8213   -1.6260   -4.8314 H   0  0  0  0  0  0  0  0  0  0  0  0
    3.0413   -1.6571   -6.7497 H   0  0  0  0  0  0  0  0  0  0  0  0
    5.9472   -3.8060   -6.4884 H   0  0  0  0  0  0  0  0  0  0  0  0
    6.3935   -5.6972   -8.0042 H   0  0  0  0  0  0  0  0  0  0  0  0
    2.8990   -4.6799  -10.3169 H   0  0  0  0  0  0  0  0  0  0  0  0
   -0.2755   -0.1429    0.9891 H   0  0  0  0  0  0  0  0  0  0  0  0
    2.2656    3.9491    0.3965 H   0  0  0  0  0  0  0  0  0  0  0  0
    2.3879    3.9495   -1.3780 H   0  0  0  0  0  0  0  0  0  0  0  0
    0.8370    3.6216   -0.5554 H   0  0  0  0  0  0  0  0  0  0  0  0
    2.0563    1.8586   -2.6296 H   0  0  0  0  0  0  0  0  0  0  0  0
    2.1076    0.2770   -1.8546 H   0  0  0  0  0  0  0  0  0  0  0  0
    0.6307    1.2321   -1.7575 H   0  0  0  0  0  0  0  0  0  0  0  0
  1  2  1  0  0  0  0
  1 37  1  0  0  0  0
  1 38  1  0  0  0  0
  1 39  1  0  0  0  0
  2  7  1  0  0  0  0
  2  3  2  0  0  0  0
  3  4  1  0  0  0  0
  3 40  1  0  0  0  0
  4 41  1  0  0  0  0
  4 42  1  0  0  0  0
  5  4  1  0  0  0  0
  5  6  1  0  0  0  0
  5 34  1  0  0  0  0
  5 43  1  1  0  0  0
  6  7  1  0  0  0  0
  6  8  1  0  0  0  0
  6 44  1  6  0  0  0
  7 45  1  0  0  0  0
  7 46  1  0  0  0  0
  8 32  2  0  0  0  0
  8  9  1  0  0  0  0
  9 10  1  0  0  0  0
  9 11  2  0  0  0  0
 10 47  1  0  0  0  0
 11 12  1  0  0  0  0
 11 48  1  0  0  0  0
 12 13  1  0  0  0  0
 12 31  2  0  0  0  0
 13 14  1  0  0  0  0
 13 15  1  0  0  0  0
 13 16  1  0  0  0  0
 14 49  1  0  0  0  0
 14 50  1  0  0  0  0
 14 51  1  0  0  0  0
 15 52  1  0  0  0  0
 15 53  1  0  0  0  0
 15 54  1  0  0  0  0
 16 17  1  0  0  0  0
 16 55  1  0  0  0  0
 16 56  1  0  0  0  0
 17 18  1  0  0  0  0
 17 57  1  0  0  0  0
 17 58  1  0  0  0  0
 18 19  1  0  0  0  0
 18 59  1  0  0  0  0
 18 60  1  0  0  0  0
 19 20  1  0  0  0  0
 19 61  1  0  0  0  0
 19 62  1  0  0  0  0
 20 21  2  0  0  0  0
 20 22  1  0  0  0  0
 22 23  1  0  0  0  0
 22 63  1  0  0  0  0
 23 29  2  0  0  0  0
 23 24  1  0  0  0  0
 24 25  2  0  0  0  0
 24 64  1  0  0  0  0
 25 26  1  0  0  0  0
 25 65  1  0  0  0  0
 26 27  1  0  0  0  0
 26 28  2  0  0  0  0
 28 29  1  0  0  0  0
 28 66  1  0  0  0  0
 29 30  1  0  0  0  0
 31 32  1  0  0  0  0
 31 67  1  0  0  0  0
 32 33  1  0  0  0  0
 33 34  1  0  0  0  0
 34 35  1  0  0  0  0
 34 36  1  0  0  0  0
 35 68  1  0  0  0  0
 35 69  1  0  0  0  0
 35 70  1  0  0  0  0
 36 71  1  0  0  0  0
 36 72  1  0  0  0  0
 36 73  1  0  0  0  0
M  END
$$$$
CHEMBL487464	5XRA	best_smi
 OpenBabel12022417393D

 57 60  0  0  1  0  0  0  0  0999 V2000
    5.1346   -0.0435    0.8745 C   0  0  0  0  0  0  0  0  0  0  0  0
    4.5869   -1.4144    0.6619 C   0  0  0  0  0  0  0  0  0  0  0  0
    5.1007   -2.2789   -0.2345 C   0  0  0  0  0  0  0  0  0  0  0  0
    4.4684   -3.6356   -0.4510 C   0  0  0  0  0  0  0  0  0  0  0  0
    2.9537   -3.4472   -0.4907 C   0  0  2  0  0  0  0  0  0  0  0  0
    2.4490   -2.8019    0.7946 C   0  0  1  0  0  0  0  0  0  0  0  0
    3.4231   -1.8470    1.5126 C   0  0  0  0  0  0  0  0  0  0  0  0
    1.1250   -2.2782    0.3214 C   0  0  0  0  0  0  0  0  0  0  0  0
    0.7629   -0.9563    0.1621 C   0  0  0  0  0  0  0  0  0  0  0  0
    1.6726    0.0455    0.2731 O   0  0  0  0  0  0  0  0  0  0  0  0
   -0.5572   -0.6249   -0.0740 C   0  0  0  0  0  0  0  0  0  0  0  0
   -1.5408   -1.6157    0.0274 C   0  0  0  0  0  0  0  0  0  0  0  0
   -2.9123   -1.2478    0.6363 C   0  0  0  0  0  0  0  0  0  0  0  0
   -3.0704   -2.1610    1.8889 C   0  0  0  0  0  0  0  0  0  0  0  0
   -2.9054    0.2082    1.2053 C   0  0  0  0  0  0  0  0  0  0  0  0
   -4.1131   -1.2831   -0.3167 C   0  0  0  0  0  0  0  0  0  0  0  0
   -3.9902   -0.8651   -1.6546 C   0  0  0  0  0  0  0  0  0  0  0  0
   -5.1249   -0.6266   -2.4386 C   0  0  0  0  0  0  0  0  0  0  0  0
   -6.3996   -0.8027   -1.9047 C   0  0  0  0  0  0  0  0  0  0  0  0
   -6.5378   -1.2588   -0.5993 C   0  0  0  0  0  0  0  0  0  0  0  0
   -8.2578   -1.4634    0.1567 Br  0  0  0  0  0  0  0  0  0  0  0  0
   -5.4142   -1.5071    0.1831 C   0  0  0  0  0  0  0  0  0  0  0  0
   -1.1394   -2.9553   -0.1487 C   0  0  0  0  0  0  0  0  0  0  0  0
    0.2137   -3.2567   -0.0744 C   0  0  0  0  0  0  0  0  0  0  0  0
    0.6487   -4.5420   -0.3245 O   0  0  0  0  0  0  0  0  0  0  0  0
    2.0207   -4.6540   -0.8513 C   0  0  0  0  0  0  0  0  0  0  0  0
    2.5484   -5.9957   -0.3233 C   0  0  0  0  0  0  0  0  0  0  0  0
    1.8853   -4.7324   -2.3823 C   0  0  0  0  0  0  0  0  0  0  0  0
    4.6379    0.4780    1.6985 H   0  0  0  0  0  0  0  0  0  0  0  0
    6.2050   -0.0856    1.1112 H   0  0  0  0  0  0  0  0  0  0  0  0
    5.0039    0.5678   -0.0313 H   0  0  0  0  0  0  0  0  0  0  0  0
    5.9336   -1.9924   -0.8671 H   0  0  0  0  0  0  0  0  0  0  0  0
    4.8225   -4.0561   -1.3965 H   0  0  0  0  0  0  0  0  0  0  0  0
    4.7788   -4.3038    0.3603 H   0  0  0  0  0  0  0  0  0  0  0  0
    2.8025   -2.7112   -1.3022 H   0  0  0  0  0  0  0  0  0  0  0  0
    2.2306   -3.5805    1.5446 H   0  0  0  0  0  0  0  0  0  0  0  0
    2.9011   -1.0014    1.9712 H   0  0  0  0  0  0  0  0  0  0  0  0
    3.8578   -2.3818    2.3704 H   0  0  0  0  0  0  0  0  0  0  0  0
    1.3475    0.6305    0.9776 H   0  0  0  0  0  0  0  0  0  0  0  0
   -0.8104    0.4240   -0.1887 H   0  0  0  0  0  0  0  0  0  0  0  0
   -3.8677   -1.8189    2.5569 H   0  0  0  0  0  0  0  0  0  0  0  0
   -3.2903   -3.1997    1.6172 H   0  0  0  0  0  0  0  0  0  0  0  0
   -2.1511   -2.1627    2.4915 H   0  0  0  0  0  0  0  0  0  0  0  0
   -2.0789    0.3607    1.9094 H   0  0  0  0  0  0  0  0  0  0  0  0
   -3.8392    0.4316    1.7338 H   0  0  0  0  0  0  0  0  0  0  0  0
   -2.8061    0.9572    0.4063 H   0  0  0  0  0  0  0  0  0  0  0  0
   -3.0121   -0.6644   -2.0876 H   0  0  0  0  0  0  0  0  0  0  0  0
   -5.0116   -0.2641   -3.4576 H   0  0  0  0  0  0  0  0  0  0  0  0
   -7.2749   -0.5675   -2.5035 H   0  0  0  0  0  0  0  0  0  0  0  0
   -5.5609   -1.8206    1.2145 H   0  0  0  0  0  0  0  0  0  0  0  0
   -1.8662   -3.7591   -0.2367 H   0  0  0  0  0  0  0  0  0  0  0  0
    2.0154   -6.8319   -0.7919 H   0  0  0  0  0  0  0  0  0  0  0  0
    3.6131   -6.1394   -0.5274 H   0  0  0  0  0  0  0  0  0  0  0  0
    2.3765   -6.0904    0.7539 H   0  0  0  0  0  0  0  0  0  0  0  0
    1.2881   -5.5988   -2.6861 H   0  0  0  0  0  0  0  0  0  0  0  0
    1.3569   -3.8512   -2.7676 H   0  0  0  0  0  0  0  0  0  0  0  0
    2.8623   -4.7883   -2.8706 H   0  0  0  0  0  0  0  0  0  0  0  0
  1  2  1  0  0  0  0
  1 29  1  0  0  0  0
  1 30  1  0  0  0  0
  1 31  1  0  0  0  0
  2  7  1  0  0  0  0
  2  3  2  0  0  0  0
  3  4  1  0  0  0  0
  3 32  1  0  0  0  0
  4 33  1  0  0  0  0
  4 34  1  0  0  0  0
  5  4  1  0  0  0  0
  5  6  1  0  0  0  0
  5 26  1  0  0  0  0
  5 35  1  6  0  0  0
  6  7  1  0  0  0  0
  6  8  1  0  0  0  0
  6 36  1  1  0  0  0
  7 37  1  0  0  0  0
  7 38  1  0  0  0  0
  8 24  2  0  0  0  0
  8  9  1  0  0  0  0
  9 10  1  0  0  0  0
  9 11  2  0  0  0  0
 10 39  1  0  0  0  0
 11 12  1  0  0  0  0
 11 40  1  0  0  0  0
 12 13  1  0  0  0  0
 12 23  2  0  0  0  0
 13 14  1  0  0  0  0
 13 15  1  0  0  0  0
 13 16  1  0  0  0  0
 14 41  1  0  0  0  0
 14 42  1  0  0  0  0
 14 43  1  0  0  0  0
 15 44  1  0  0  0  0
 15 45  1  0  0  0  0
 15 46  1  0  0  0  0
 16 22  2  0  0  0  0
 16 17  1  0  0  0  0
 17 18  2  0  0  0  0
 17 47  1  0  0  0  0
 18 19  1  0  0  0  0
 18 48  1  0  0  0  0
 19 20  2  0  0  0  0
 19 49  1  0  0  0  0
 20 21  1  0  0  0  0
 20 22  1  0  0  0  0
 22 50  1  0  0  0  0
 23 24  1  0  0  0  0
 23 51  1  0  0  0  0
 24 25  1  0  0  0  0
 25 26  1  0  0  0  0
 26 27  1  0  0  0  0
 26 28  1  0  0  0  0
 27 52  1  0  0  0  0
 27 53  1  0  0  0  0
 27 54  1  0  0  0  0
 28 55  1  0  0  0  0
 28 56  1  0  0  0  0
 28 57  1  0  0  0  0
M  END
$$$$
CHEMBL487463	5XRA	best_smi
 OpenBabel12022417393D

 57 60  0  0  1  0  0  0  0  0999 V2000
    5.2372   -3.1389    1.3376 C   0  0  0  0  0  0  0  0  0  0  0  0
    4.2673   -2.0362    1.0423 C   0  0  0  0  0  0  0  0  0  0  0  0
    4.7417   -0.7802    0.9801 C   0  0  0  0  0  0  0  0  0  0  0  0
    3.7920    0.3522    1.0113 C   0  0  0  0  0  0  0  0  0  0  0  0
    2.5818    0.1442    0.1165 C   0  0  2  0  0  0  0  0  0  0  0  0
    2.1358   -1.3306   -0.1386 C   0  0  1  0  0  0  0  0  0  0  0  0
    2.7629   -2.2941    0.9068 C   0  0  0  0  0  0  0  0  0  0  0  0
    0.6485   -1.1150   -0.4228 C   0  0  0  0  0  0  0  0  0  0  0  0
   -0.4642   -1.6695    0.2063 C   0  0  0  0  0  0  0  0  0  0  0  0
   -0.4135   -2.7713    1.0085 O   0  0  0  0  0  0  0  0  0  0  0  0
   -1.7321   -1.0516    0.1111 C   0  0  0  0  0  0  0  0  0  0  0  0
   -1.9202    0.1443   -0.6082 C   0  0  0  0  0  0  0  0  0  0  0  0
   -3.1572    1.0667   -0.4829 C   0  0  0  0  0  0  0  0  0  0  0  0
   -2.6716    2.3414    0.2752 C   0  0  0  0  0  0  0  0  0  0  0  0
   -4.2919    0.4784    0.3930 C   0  0  0  0  0  0  0  0  0  0  0  0
   -3.7496    1.3933   -1.8775 C   0  0  0  0  0  0  0  0  0  0  0  0
   -3.8224    2.6912   -2.4043 C   0  0  0  0  0  0  0  0  0  0  0  0
   -4.3407    2.9286   -3.6836 C   0  0  0  0  0  0  0  0  0  0  0  0
   -4.7871    1.8663   -4.4538 C   0  0  0  0  0  0  0  0  0  0  0  0
   -5.4658    2.1800   -6.1893 Br  0  0  0  0  0  0  0  0  0  0  0  0
   -4.7332    0.5675   -3.9591 C   0  0  0  0  0  0  0  0  0  0  0  0
   -4.2175    0.3327   -2.6820 C   0  0  0  0  0  0  0  0  0  0  0  0
   -0.8539    0.5760   -1.4015 C   0  0  0  0  0  0  0  0  0  0  0  0
    0.3945   -0.0341   -1.3026 C   0  0  0  0  0  0  0  0  0  0  0  0
    1.3900    0.6018   -2.0039 O   0  0  0  0  0  0  0  0  0  0  0  0
    2.6008    0.8631   -1.2540 C   0  0  0  0  0  0  0  0  0  0  0  0
    3.7500    0.4200   -2.1752 C   0  0  0  0  0  0  0  0  0  0  0  0
    2.6698    2.3877   -1.0632 C   0  0  0  0  0  0  0  0  0  0  0  0
    4.8797   -4.1115    0.9889 H   0  0  0  0  0  0  0  0  0  0  0  0
    5.4087   -3.1903    2.4195 H   0  0  0  0  0  0  0  0  0  0  0  0
    6.2057   -2.9518    0.8594 H   0  0  0  0  0  0  0  0  0  0  0  0
    5.8004   -0.5551    1.0726 H   0  0  0  0  0  0  0  0  0  0  0  0
    3.4367    0.4168    2.0514 H   0  0  0  0  0  0  0  0  0  0  0  0
    4.2976    1.2993    0.8261 H   0  0  0  0  0  0  0  0  0  0  0  0
    1.7788    0.6287    0.7062 H   0  0  0  0  0  0  0  0  0  0  0  0
    2.5382   -1.6998   -1.0931 H   0  0  0  0  0  0  0  0  0  0  0  0
    2.6061   -3.3273    0.5723 H   0  0  0  0  0  0  0  0  0  0  0  0
    2.2897   -2.1904    1.8888 H   0  0  0  0  0  0  0  0  0  0  0  0
    0.4517   -3.1936    0.9150 H   0  0  0  0  0  0  0  0  0  0  0  0
   -2.5530   -1.4969    0.6674 H   0  0  0  0  0  0  0  0  0  0  0  0
   -2.2597    2.0805    1.2593 H   0  0  0  0  0  0  0  0  0  0  0  0
   -1.8829    2.8802   -0.2632 H   0  0  0  0  0  0  0  0  0  0  0  0
   -3.4922    3.0482    0.4474 H   0  0  0  0  0  0  0  0  0  0  0  0
   -5.1845    1.1160    0.3751 H   0  0  0  0  0  0  0  0  0  0  0  0
   -4.5999   -0.5192    0.0649 H   0  0  0  0  0  0  0  0  0  0  0  0
   -3.9829    0.3989    1.4420 H   0  0  0  0  0  0  0  0  0  0  0  0
   -3.4823    3.5556   -1.8346 H   0  0  0  0  0  0  0  0  0  0  0  0
   -4.3716    3.9483   -4.0662 H   0  0  0  0  0  0  0  0  0  0  0  0
   -5.0776   -0.2713   -4.5558 H   0  0  0  0  0  0  0  0  0  0  0  0
   -4.1702   -0.6930   -2.3204 H   0  0  0  0  0  0  0  0  0  0  0  0
   -0.9409    1.4744   -2.0110 H   0  0  0  0  0  0  0  0  0  0  0  0
    4.7210    0.4523   -1.6737 H   0  0  0  0  0  0  0  0  0  0  0  0
    3.8015    1.0684   -3.0580 H   0  0  0  0  0  0  0  0  0  0  0  0
    3.5886   -0.5896   -2.5694 H   0  0  0  0  0  0  0  0  0  0  0  0
    2.4959    2.9051   -2.0096 H   0  0  0  0  0  0  0  0  0  0  0  0
    1.8728    2.7173   -0.3945 H   0  0  0  0  0  0  0  0  0  0  0  0
    3.6289    2.7259   -0.6625 H   0  0  0  0  0  0  0  0  0  0  0  0
  1  2  1  0  0  0  0
  1 29  1  0  0  0  0
  1 30  1  0  0  0  0
  1 31  1  0  0  0  0
  2  7  1  0  0  0  0
  2  3  2  0  0  0  0
  3  4  1  0  0  0  0
  3 32  1  0  0  0  0
  4 33  1  0  0  0  0
  4 34  1  0  0  0  0
  5  4  1  0  0  0  0
  5  6  1  0  0  0  0
  5 26  1  0  0  0  0
  5 35  1  1  0  0  0
  6  7  1  0  0  0  0
  6  8  1  0  0  0  0
  6 36  1  6  0  0  0
  7 37  1  0  0  0  0
  7 38  1  0  0  0  0
  8 24  2  0  0  0  0
  8  9  1  0  0  0  0
  9 10  1  0  0  0  0
  9 11  2  0  0  0  0
 10 39  1  0  0  0  0
 11 12  1  0  0  0  0
 11 40  1  0  0  0  0
 12 13  1  0  0  0  0
 12 23  2  0  0  0  0
 13 14  1  0  0  0  0
 13 15  1  0  0  0  0
 13 16  1  0  0  0  0
 14 41  1  0  0  0  0
 14 42  1  0  0  0  0
 14 43  1  0  0  0  0
 15 44  1  0  0  0  0
 15 45  1  0  0  0  0
 15 46  1  0  0  0  0
 16 22  2  0  0  0  0
 16 17  1  0  0  0  0
 17 18  2  0  0  0  0
 17 47  1  0  0  0  0
 18 19  1  0  0  0  0
 18 48  1  0  0  0  0
 19 20  1  0  0  0  0
 19 21  2  0  0  0  0
 21 22  1  0  0  0  0
 21 49  1  0  0  0  0
 22 50  1  0  0  0  0
 23 24  1  0  0  0  0
 23 51  1  0  0  0  0
 24 25  1  0  0  0  0
 25 26  1  0  0  0  0
 26 27  1  0  0  0  0
 26 28  1  0  0  0  0
 27 52  1  0  0  0  0
 27 53  1  0  0  0  0
 27 54  1  0  0  0  0
 28 55  1  0  0  0  0
 28 56  1  0  0  0  0
 28 57  1  0  0  0  0
M  END
$$$$
CHEMBL138917	5XRA	best_smi
 OpenBabel12022417393D

 63 65  0  0  1  0  0  0  0  0999 V2000
    4.8539    4.6789   -2.3087 C   0  0  0  0  0  0  0  0  0  0  0  0
    5.3066    3.4635   -1.5307 C   0  0  0  0  0  0  0  0  0  0  0  0
    5.9662    3.7564   -0.3928 C   0  0  0  0  0  0  0  0  0  0  0  0
    5.3553    3.3845    0.9270 C   0  0  0  0  0  0  0  0  0  0  0  0
    4.0858    2.5174    0.8770 C   0  0  2  0  0  0  0  0  0  0  0  0
    3.3918    2.4246   -0.5091 C   0  0  1  0  0  0  0  0  0  0  0  0
    4.4244    2.2289   -1.6043 C   0  0  0  0  0  0  0  0  0  0  0  0
    2.1268    1.5900   -0.4125 C   0  0  0  0  0  0  0  0  0  0  0  0
    1.2444    1.5066   -1.4826 C   0  0  0  0  0  0  0  0  0  0  0  0
    1.6846    1.5735   -2.7678 O   0  0  0  0  0  0  0  0  0  0  0  0
   -0.1228    1.5870   -1.2314 C   0  0  0  0  0  0  0  0  0  0  0  0
   -0.6219    1.5190    0.0863 C   0  0  0  0  0  0  0  0  0  0  0  0
   -2.0024    2.0786    0.4593 C   0  0  0  0  0  0  0  0  0  0  0  0
   -2.3628    1.9064    1.9583 C   0  0  0  0  0  0  0  0  0  0  0  0
   -1.9993    3.6051    0.1885 C   0  0  0  0  0  0  0  0  0  0  0  0
   -3.0078    1.3411   -0.4225 C   0  0  0  0  0  0  0  0  0  0  0  0
   -4.4633    1.7217   -0.2427 C   0  0  0  0  0  0  0  0  0  0  0  0
   -5.2564    0.8830   -1.2289 C   0  0  0  0  0  0  0  0  0  0  0  0
   -6.7377    1.1740   -1.1414 C   0  0  0  0  0  0  0  0  0  0  0  0
   -7.4747    0.3021   -2.1563 C   0  0  0  0  0  0  0  0  0  0  0  0
   -8.8971    0.5588   -2.1016 C   0  0  0  0  0  0  0  0  0  0  0  0
  -10.0530    0.7637   -2.0654 N   0  0  0  0  0  0  0  0  0  0  0  0
    0.2467    1.1184    1.0840 C   0  0  0  0  0  0  0  0  0  0  0  0
    1.5890    1.3504    0.8686 C   0  0  0  0  0  0  0  0  0  0  0  0
    2.2182    1.6883    2.0445 O   0  0  0  0  0  0  0  0  0  0  0  0
    2.9857    2.9009    1.9003 C   0  0  0  0  0  0  0  0  0  0  0  0
    2.0746    4.1124    1.5130 C   0  0  0  0  0  0  0  0  0  0  0  0
    3.5037    3.2127    3.3051 C   0  0  0  0  0  0  0  0  0  0  0  0
    4.0895    5.1980   -1.7057 H   0  0  0  0  0  0  0  0  0  0  0  0
    5.6640    5.3920   -2.4775 H   0  0  0  0  0  0  0  0  0  0  0  0
    4.3834    4.4193   -3.2577 H   0  0  0  0  0  0  0  0  0  0  0  0
    6.5906    4.6456   -0.3430 H   0  0  0  0  0  0  0  0  0  0  0  0
    6.1035    2.9037    1.5670 H   0  0  0  0  0  0  0  0  0  0  0  0
    5.1140    4.3430    1.3994 H   0  0  0  0  0  0  0  0  0  0  0  0
    4.4227    1.4963    1.1176 H   0  0  0  0  0  0  0  0  0  0  0  0
    2.9807    3.4187   -0.7318 H   0  0  0  0  0  0  0  0  0  0  0  0
    5.0131    1.3163   -1.4462 H   0  0  0  0  0  0  0  0  0  0  0  0
    3.9947    2.1465   -2.6058 H   0  0  0  0  0  0  0  0  0  0  0  0
    1.0257    1.1201   -3.3230 H   0  0  0  0  0  0  0  0  0  0  0  0
   -0.7772    1.8485   -2.0584 H   0  0  0  0  0  0  0  0  0  0  0  0
   -1.6144    2.3617    2.6141 H   0  0  0  0  0  0  0  0  0  0  0  0
   -3.3110    2.3951    2.2093 H   0  0  0  0  0  0  0  0  0  0  0  0
   -2.4549    0.8462    2.2266 H   0  0  0  0  0  0  0  0  0  0  0  0
   -1.9984    3.8343   -0.8826 H   0  0  0  0  0  0  0  0  0  0  0  0
   -2.8766    4.0954    0.6263 H   0  0  0  0  0  0  0  0  0  0  0  0
   -1.1153    4.0867    0.6270 H   0  0  0  0  0  0  0  0  0  0  0  0
   -2.8982    0.2582   -0.2538 H   0  0  0  0  0  0  0  0  0  0  0  0
   -2.7678    1.5023   -1.4821 H   0  0  0  0  0  0  0  0  0  0  0  0
   -4.6141    2.7888   -0.4419 H   0  0  0  0  0  0  0  0  0  0  0  0
   -4.8013    1.5168    0.7785 H   0  0  0  0  0  0  0  0  0  0  0  0
   -4.9007    1.0808   -2.2489 H   0  0  0  0  0  0  0  0  0  0  0  0
   -5.0758   -0.1812   -1.0293 H   0  0  0  0  0  0  0  0  0  0  0  0
   -6.9218    2.2371   -1.3414 H   0  0  0  0  0  0  0  0  0  0  0  0
   -7.0995    0.9707   -0.1258 H   0  0  0  0  0  0  0  0  0  0  0  0
   -7.2700   -0.7528   -1.9478 H   0  0  0  0  0  0  0  0  0  0  0  0
   -7.0903    0.5093   -3.1609 H   0  0  0  0  0  0  0  0  0  0  0  0
   -0.0727    0.9579    2.1079 H   0  0  0  0  0  0  0  0  0  0  0  0
    1.2557    4.2240    2.2334 H   0  0  0  0  0  0  0  0  0  0  0  0
    2.6442    5.0451    1.4730 H   0  0  0  0  0  0  0  0  0  0  0  0
    1.5562    4.0146    0.5532 H   0  0  0  0  0  0  0  0  0  0  0  0
    4.0415    2.3616    3.7312 H   0  0  0  0  0  0  0  0  0  0  0  0
    2.6579    3.4144    3.9756 H   0  0  0  0  0  0  0  0  0  0  0  0
    4.1440    4.0983    3.3235 H   0  0  0  0  0  0  0  0  0  0  0  0
  1  2  1  0  0  0  0
  1 29  1  0  0  0  0
  1 30  1  0  0  0  0
  1 31  1  0  0  0  0
  2  7  1  0  0  0  0
  2  3  2  0  0  0  0
  3  4  1  0  0  0  0
  3 32  1  0  0  0  0
  4 33  1  0  0  0  0
  4 34  1  0  0  0  0
  5  4  1  0  0  0  0
  5  6  1  0  0  0  0
  5 26  1  0  0  0  0
  5 35  1  1  0  0  0
  6  7  1  0  0  0  0
  6  8  1  0  0  0  0
  6 36  1  6  0  0  0
  7 37  1  0  0  0  0
  7 38  1  0  0  0  0
  8 24  2  0  0  0  0
  8  9  1  0  0  0  0
  9 10  1  0  0  0  0
  9 11  2  0  0  0  0
 10 39  1  0  0  0  0
 11 12  1  0  0  0  0
 11 40  1  0  0  0  0
 12 13  1  0  0  0  0
 12 23  2  0  0  0  0
 13 14  1  0  0  0  0
 13 15  1  0  0  0  0
 13 16  1  0  0  0  0
 14 41  1  0  0  0  0
 14 42  1  0  0  0  0
 14 43  1  0  0  0  0
 15 44  1  0  0  0  0
 15 45  1  0  0  0  0
 15 46  1  0  0  0  0
 16 17  1  0  0  0  0
 16 47  1  0  0  0  0
 16 48  1  0  0  0  0
 17 18  1  0  0  0  0
 17 49  1  0  0  0  0
 17 50  1  0  0  0  0
 18 19  1  0  0  0  0
 18 51  1  0  0  0  0
 18 52  1  0  0  0  0
 19 20  1  0  0  0  0
 19 53  1  0  0  0  0
 19 54  1  0  0  0  0
 20 21  1  0  0  0  0
 20 55  1  0  0  0  0
 20 56  1  0  0  0  0
 21 22  3  0  0  0  0
 23 24  1  0  0  0  0
 23 57  1  0  0  0  0
 24 25  1  0  0  0  0
 25 26  1  0  0  0  0
 26 27  1  0  0  0  0
 26 28  1  0  0  0  0
 27 58  1  0  0  0  0
 27 59  1  0  0  0  0
 27 60  1  0  0  0  0
 28 61  1  0  0  0  0
 28 62  1  0  0  0  0
 28 63  1  0  0  0  0
M  END
$$$$
CHEMBL162746	5XRA	best_smi
 OpenBabel12022417393D

 54 56  0  0  1  0  0  0  0  0999 V2000
    1.3601    0.5240    1.1543 C   0  0  0  0  0  0  0  0  0  0  0  0
    2.8097    0.3291    1.5044 C   0  0  0  0  0  0  0  0  0  0  0  0
    3.6252   -0.2139    0.5870 C   0  0  0  0  0  0  0  0  0  0  0  0
    5.0223   -0.5922    0.9164 C   0  0  0  0  0  0  0  0  0  0  0  0
    5.1417   -1.0358    2.3732 C   0  0  3  0  0  0  0  0  0  0  0  0
    4.6928    0.0959    3.3178 C   0  0  3  0  0  0  0  0  0  0  0  0
    3.2831    0.6627    2.9234 C   0  0  0  0  0  0  0  0  0  0  0  0
    4.8807   -0.3932    4.7541 C   0  0  0  0  0  0  0  0  0  0  0  0
    4.9690    0.4620    5.8621 C   0  0  0  0  0  0  0  0  0  0  0  0
    4.8569    1.8219    5.7678 O   0  0  0  0  0  0  0  0  0  0  0  0
    5.2155   -0.0299    7.1559 C   0  0  0  0  0  0  0  0  0  0  0  0
    5.3969   -1.4000    7.3868 C   0  0  0  0  0  0  0  0  0  0  0  0
    5.6496   -1.9552    8.7691 C   0  0  0  0  0  0  0  0  0  0  0  0
    7.1111   -2.0473    9.1315 C   0  0  0  0  0  0  0  0  0  0  0  0
    7.7447   -3.1631    9.5155 C   0  0  0  0  0  0  0  0  0  0  0  0
    9.1835   -3.1829    9.9566 C   0  0  0  0  0  0  0  0  0  0  0  0
   10.0469   -4.0909    9.0812 C   0  0  0  0  0  0  0  0  0  0  0  0
   11.5023   -4.0236    9.5164 C   0  0  0  0  0  0  0  0  0  0  0  0
   12.5879   -5.1788    8.3862 Br  0  0  0  0  0  0  0  0  0  0  0  0
    5.3425   -2.2597    6.2917 C   0  0  0  0  0  0  0  0  0  0  0  0
    5.0773   -1.7700    5.0082 C   0  0  0  0  0  0  0  0  0  0  0  0
    5.0664   -2.7539    4.0464 O   0  0  0  0  0  0  0  0  0  0  0  0
    4.4588   -2.3733    2.7954 C   0  0  0  0  0  0  0  0  0  0  0  0
    2.9331   -2.4429    3.0303 C   0  0  0  0  0  0  0  0  0  0  0  0
    4.7904   -3.4887    1.7942 C   0  0  0  0  0  0  0  0  0  0  0  0
    1.2491    0.9169    0.1382 H   0  0  0  0  0  0  0  0  0  0  0  0
    0.8652    1.2178    1.8388 H   0  0  0  0  0  0  0  0  0  0  0  0
    0.8356   -0.4368    1.2031 H   0  0  0  0  0  0  0  0  0  0  0  0
    3.2642   -0.4641   -0.4066 H   0  0  0  0  0  0  0  0  0  0  0  0
    5.6642    0.2785    0.7313 H   0  0  0  0  0  0  0  0  0  0  0  0
    5.3766   -1.3766    0.2394 H   0  0  0  0  0  0  0  0  0  0  0  0
    6.2231   -1.1735    2.5389 H   0  0  0  0  0  0  0  0  0  0  0  0
    5.4117    0.9155    3.1683 H   0  0  0  0  0  0  0  0  0  0  0  0
    2.5232    0.3445    3.6445 H   0  0  0  0  0  0  0  0  0  0  0  0
    3.3176    1.7577    3.0051 H   0  0  0  0  0  0  0  0  0  0  0  0
    4.9636    2.0925    4.8439 H   0  0  0  0  0  0  0  0  0  0  0  0
    5.2812    0.6725    7.9844 H   0  0  0  0  0  0  0  0  0  0  0  0
    5.1682   -2.9388    8.8537 H   0  0  0  0  0  0  0  0  0  0  0  0
    5.1453   -1.3192    9.5070 H   0  0  0  0  0  0  0  0  0  0  0  0
    7.6535   -1.1022    9.1066 H   0  0  0  0  0  0  0  0  0  0  0  0
    7.2055   -4.1045    9.5605 H   0  0  0  0  0  0  0  0  0  0  0  0
    9.2204   -3.5312   10.9960 H   0  0  0  0  0  0  0  0  0  0  0  0
    9.5972   -2.1668    9.9501 H   0  0  0  0  0  0  0  0  0  0  0  0
    9.9571   -3.7902    8.0295 H   0  0  0  0  0  0  0  0  0  0  0  0
    9.6838   -5.1249    9.1459 H   0  0  0  0  0  0  0  0  0  0  0  0
   11.6414   -4.3729   10.5433 H   0  0  0  0  0  0  0  0  0  0  0  0
   11.9140   -3.0157    9.4158 H   0  0  0  0  0  0  0  0  0  0  0  0
    5.5005   -3.3278    6.4260 H   0  0  0  0  0  0  0  0  0  0  0  0
    2.5814   -1.7578    3.8066 H   0  0  0  0  0  0  0  0  0  0  0  0
    2.6613   -3.4327    3.4209 H   0  0  0  0  0  0  0  0  0  0  0  0
    2.3539   -2.2851    2.1192 H   0  0  0  0  0  0  0  0  0  0  0  0
    5.8709   -3.5833    1.6498 H   0  0  0  0  0  0  0  0  0  0  0  0
    4.3152   -3.3103    0.8235 H   0  0  0  0  0  0  0  0  0  0  0  0
    4.4372   -4.4592    2.1612 H   0  0  0  0  0  0  0  0  0  0  0  0
  1  2  1  0  0  0  0
  1 26  1  0  0  0  0
  1 27  1  0  0  0  0
  1 28  1  0  0  0  0
  2  7  1  0  0  0  0
  2  3  2  0  0  0  0
  3  4  1  0  0  0  0
  3 29  1  0  0  0  0
  4  5  1  0  0  0  0
  4 30  1  0  0  0  0
  4 31  1  0  0  0  0
  5 23  1  0  0  0  0
  5  6  1  0  0  0  0
  5 32  1  0  0  0  0
  6  7  1  0  0  0  0
  6  8  1  0  0  0  0
  6 33  1  0  0  0  0
  7 34  1  0  0  0  0
  7 35  1  0  0  0  0
  8 21  2  0  0  0  0
  8  9  1  0  0  0  0
  9 10  1  0  0  0  0
  9 11  2  0  0  0  0
 10 36  1  0  0  0  0
 11 12  1  0  0  0  0
 11 37  1  0  0  0  0
 12 13  1  0  0  0  0
 12 20  2  0  0  0  0
 13 14  1  0  0  0  0
 13 38  1  0  0  0  0
 13 39  1  0  0  0  0
 14 15  2  0  0  0  0
 14 40  1  0  0  0  0
 15 16  1  0  0  0  0
 15 41  1  0  0  0  0
 16 17  1  0  0  0  0
 16 42  1  0  0  0  0
 16 43  1  0  0  0  0
 17 18  1  0  0  0  0
 17 44  1  0  0  0  0
 17 45  1  0  0  0  0
 18 19  1  0  0  0  0
 18 46  1  0  0  0  0
 18 47  1  0  0  0  0
 20 21  1  0  0  0  0
 20 48  1  0  0  0  0
 21 22  1  0  0  0  0
 22 23  1  0  0  0  0
 23 24  1  0  0  0  0
 23 25  1  0  0  0  0
 24 49  1  0  0  0  0
 24 50  1  0  0  0  0
 24 51  1  0  0  0  0
 25 52  1  0  0  0  0
 25 53  1  0  0  0  0
 25 54  1  0  0  0  0
M  END
$$$$
CHEMBL57802	5XRA	best_smi
 OpenBabel12022417393D

 65 67  0  0  1  0  0  0  0  0999 V2000
    0.9740   -0.2484    0.2213 C   0  0  0  0  0  0  0  0  0  0  0  0
    2.3152   -0.2367    0.2427 C   0  0  0  0  0  0  0  0  0  0  0  0
    3.1472   -1.4714    0.4170 C   0  0  0  0  0  0  0  0  0  0  0  0
    4.0317   -1.6717   -0.8149 C   0  0  0  0  0  0  0  0  0  0  0  0
    4.8412   -0.4081   -1.1693 C   0  0  2  0  0  0  0  0  0  0  0  0
    3.9515    0.8654   -1.2725 C   0  0  1  0  0  0  0  0  0  0  0  0
    3.1256    1.0138    0.0218 C   0  0  0  0  0  0  0  0  0  0  0  0
    4.8357    2.0492   -1.6193 C   0  0  0  0  0  0  0  0  0  0  0  0
    4.4447    3.3863   -1.4544 C   0  0  0  0  0  0  0  0  0  0  0  0
    3.1771    3.7617   -1.1247 O   0  0  0  0  0  0  0  0  0  0  0  0
    5.3276    4.4441   -1.6715 C   0  0  0  0  0  0  0  0  0  0  0  0
    6.6279    4.2270   -2.1444 C   0  0  0  0  0  0  0  0  0  0  0  0
    7.5575    5.4276   -2.4102 C   0  0  0  0  0  0  0  0  0  0  0  0
    8.9340    4.9845   -2.9583 C   0  0  0  0  0  0  0  0  0  0  0  0
    6.8930    6.3274   -3.4794 C   0  0  0  0  0  0  0  0  0  0  0  0
    7.7628    6.2232   -1.0796 C   0  0  0  0  0  0  0  0  0  0  0  0
    8.6459    7.4703   -1.2050 C   0  0  0  0  0  0  0  0  0  0  0  0
    8.8011    8.2043    0.1254 C   0  0  0  0  0  0  0  0  0  0  0  0
    9.6931    9.4308   -0.0650 C   0  0  0  0  0  0  0  0  0  0  0  0
    9.8866   10.1975    1.2382 C   0  0  0  0  0  0  0  0  0  0  0  0
   10.7780   11.4098    1.0226 C   0  0  0  0  0  0  0  0  0  0  0  0
    6.9922    2.8941   -2.3954 C   0  0  0  0  0  0  0  0  0  0  0  0
    6.1101    1.8304   -2.1551 C   0  0  0  0  0  0  0  0  0  0  0  0
    6.6171    0.5952   -2.4915 O   0  0  0  0  0  0  0  0  0  0  0  0
    5.7078   -0.5230   -2.4472 C   0  0  0  0  0  0  0  0  0  0  0  0
    6.5979   -1.7783   -2.4022 C   0  0  0  0  0  0  0  0  0  0  0  0
    4.9195   -0.5689   -3.7709 C   0  0  0  0  0  0  0  0  0  0  0  0
    0.4011    0.6593    0.0561 H   0  0  0  0  0  0  0  0  0  0  0  0
    0.4110   -1.1675    0.3522 H   0  0  0  0  0  0  0  0  0  0  0  0
    2.5267   -2.3610    0.5737 H   0  0  0  0  0  0  0  0  0  0  0  0
    3.7709   -1.3584    1.3130 H   0  0  0  0  0  0  0  0  0  0  0  0
    3.4107   -1.9773   -1.6641 H   0  0  0  0  0  0  0  0  0  0  0  0
    4.7135   -2.5024   -0.5991 H   0  0  0  0  0  0  0  0  0  0  0  0
    5.5350   -0.2436   -0.3276 H   0  0  0  0  0  0  0  0  0  0  0  0
    3.2437    0.7441   -2.1039 H   0  0  0  0  0  0  0  0  0  0  0  0
    3.7821    1.1921    0.8832 H   0  0  0  0  0  0  0  0  0  0  0  0
    2.4424    1.8650   -0.0196 H   0  0  0  0  0  0  0  0  0  0  0  0
    2.5718    3.1754   -1.6057 H   0  0  0  0  0  0  0  0  0  0  0  0
    4.9624    5.4524   -1.4905 H   0  0  0  0  0  0  0  0  0  0  0  0
    8.8302    4.4059   -3.8838 H   0  0  0  0  0  0  0  0  0  0  0  0
    9.4702    4.3682   -2.2278 H   0  0  0  0  0  0  0  0  0  0  0  0
    9.5750    5.8357   -3.2061 H   0  0  0  0  0  0  0  0  0  0  0  0
    6.6767    5.7625   -4.3936 H   0  0  0  0  0  0  0  0  0  0  0  0
    7.5382    7.1654   -3.7656 H   0  0  0  0  0  0  0  0  0  0  0  0
    5.9485    6.7559   -3.1268 H   0  0  0  0  0  0  0  0  0  0  0  0
    8.1953    5.5546   -0.3226 H   0  0  0  0  0  0  0  0  0  0  0  0
    6.7933    6.5443   -0.6770 H   0  0  0  0  0  0  0  0  0  0  0  0
    8.2140    8.1642   -1.9340 H   0  0  0  0  0  0  0  0  0  0  0  0
    9.6427    7.1955   -1.5630 H   0  0  0  0  0  0  0  0  0  0  0  0
    9.2425    7.5330    0.8715 H   0  0  0  0  0  0  0  0  0  0  0  0
    7.8177    8.5119    0.5000 H   0  0  0  0  0  0  0  0  0  0  0  0
    9.2485   10.0933   -0.8181 H   0  0  0  0  0  0  0  0  0  0  0  0
   10.6700    9.1158   -0.4533 H   0  0  0  0  0  0  0  0  0  0  0  0
   10.3381    9.5434    1.9926 H   0  0  0  0  0  0  0  0  0  0  0  0
    8.9155   10.5244    1.6268 H   0  0  0  0  0  0  0  0  0  0  0  0
   11.7653   11.1082    0.6574 H   0  0  0  0  0  0  0  0  0  0  0  0
   10.9127   11.9549    1.9610 H   0  0  0  0  0  0  0  0  0  0  0  0
   10.3371   12.0934    0.2899 H   0  0  0  0  0  0  0  0  0  0  0  0
    7.9716    2.6424   -2.7943 H   0  0  0  0  0  0  0  0  0  0  0  0
    7.2000   -1.8023   -1.4877 H   0  0  0  0  0  0  0  0  0  0  0  0
    7.3068   -1.7848   -3.2391 H   0  0  0  0  0  0  0  0  0  0  0  0
    6.0104   -2.7009   -2.4609 H   0  0  0  0  0  0  0  0  0  0  0  0
    4.4142    0.3765   -3.9909 H   0  0  0  0  0  0  0  0  0  0  0  0
    4.1756   -1.3709   -3.7768 H   0  0  0  0  0  0  0  0  0  0  0  0
    5.5994   -0.7336   -4.6160 H   0  0  0  0  0  0  0  0  0  0  0  0
  1  2  2  0  0  0  0
  1 28  1  0  0  0  0
  1 29  1  0  0  0  0
  2  7  1  0  0  0  0
  2  3  1  0  0  0  0
  3  4  1  0  0  0  0
  3 30  1  0  0  0  0
  3 31  1  0  0  0  0
  4 32  1  0  0  0  0
  4 33  1  0  0  0  0
  5  4  1  0  0  0  0
  5  6  1  0  0  0  0
  5 25  1  0  0  0  0
  5 34  1  1  0  0  0
  6  7  1  0  0  0  0
  6  8  1  0  0  0  0
  6 35  1  6  0  0  0
  7 36  1  0  0  0  0
  7 37  1  0  0  0  0
  8 23  2  0  0  0  0
  8  9  1  0  0  0  0
  9 10  1  0  0  0  0
  9 11  2  0  0  0  0
 10 38  1  0  0  0  0
 11 12  1  0  0  0  0
 11 39  1  0  0  0  0
 12 13  1  0  0  0  0
 12 22  2  0  0  0  0
 13 14  1  0  0  0  0
 13 15  1  0  0  0  0
 13 16  1  0  0  0  0
 14 40  1  0  0  0  0
 14 41  1  0  0  0  0
 14 42  1  0  0  0  0
 15 43  1  0  0  0  0
 15 44  1  0  0  0  0
 15 45  1  0  0  0  0
 16 17  1  0  0  0  0
 16 46  1  0  0  0  0
 16 47  1  0  0  0  0
 17 18  1  0  0  0  0
 17 48  1  0  0  0  0
 17 49  1  0  0  0  0
 18 19  1  0  0  0  0
 18 50  1  0  0  0  0
 18 51  1  0  0  0  0
 19 20  1  0  0  0  0
 19 52  1  0  0  0  0
 19 53  1  0  0  0  0
 20 21  1  0  0  0  0
 20 54  1  0  0  0  0
 20 55  1  0  0  0  0
 21 56  1  0  0  0  0
 21 57  1  0  0  0  0
 21 58  1  0  0  0  0
 22 23  1  0  0  0  0
 22 59  1  0  0  0  0
 23 24  1  0  0  0  0
 24 25  1  0  0  0  0
 25 26  1  0  0  0  0
 25 27  1  0  0  0  0
 26 60  1  0  0  0  0
 26 61  1  0  0  0  0
 26 62  1  0  0  0  0
 27 63  1  0  0  0  0
 27 64  1  0  0  0  0
 27 65  1  0  0  0  0
M  END
$$$$
CHEMBL334533	5XRA	best_smi
 OpenBabel12022417393D

 66 68  0  0  1  0  0  0  0  0999 V2000
    5.9490    1.1979    4.9679 C   0  0  0  0  0  0  0  0  0  0  0  0
    4.8194    1.7295    4.0990 C   0  0  0  0  0  0  0  0  0  0  0  0
    4.4716    0.7330    2.9921 C   0  0  0  0  0  0  0  0  0  0  0  0
    3.3373    1.2455    2.1131 C   0  0  0  0  0  0  0  0  0  0  0  0
    3.0223    0.2594    0.9792 C   0  0  0  0  0  0  0  0  0  0  0  0
    1.9103    0.8313    0.0991 C   0  0  0  0  0  0  0  0  0  0  0  0
    1.4076   -0.0356   -1.1102 C   0  0  0  0  0  0  0  0  0  0  0  0
    0.9170   -1.4051   -0.5458 C   0  0  0  0  0  0  0  0  0  0  0  0
    2.5062   -0.3268   -2.1347 C   0  0  0  0  0  0  0  0  0  0  0  0
    0.2881    0.8025   -1.7495 C   0  0  0  0  0  0  0  0  0  0  0  0
    0.4850    2.0444   -2.4784 C   0  0  0  0  0  0  0  0  0  0  0  0
   -0.5260    3.0634   -2.5628 C   0  0  0  0  0  0  0  0  0  0  0  0
   -0.1468    4.3010   -3.0066 O   0  0  0  0  0  0  0  0  0  0  0  0
   -1.7301    2.9174   -1.9126 C   0  0  0  0  0  0  0  0  0  0  0  0
   -1.6075    1.8466   -1.0037 C   0  0  0  0  0  0  0  0  0  0  0  0
   -0.9624    0.6799   -1.1929 C   0  0  0  0  0  0  0  0  0  0  0  0
   -1.4392    2.2937    0.3473 O   0  0  0  0  0  0  0  0  0  0  0  0
   -2.4997    3.1724    0.8807 C   0  0  0  0  0  0  0  0  0  0  0  0
   -1.8708    4.6002    1.1255 C   0  0  0  0  0  0  0  0  0  0  0  0
   -2.5211    2.5566    2.2809 C   0  0  0  0  0  0  0  0  0  0  0  0
   -3.5944    3.0659   -0.2598 C   0  0  1  0  0  0  0  0  0  0  0  0
   -5.1618    3.0718   -0.4621 C   0  0  0  0  0  0  0  0  0  0  0  0
   -5.7766    4.3426   -0.9875 C   0  0  0  0  0  0  0  0  0  0  0  0
   -4.9172    5.3492   -0.7532 C   0  0  0  0  0  0  0  0  0  0  0  0
   -4.8294    5.6635    0.7550 C   0  0  0  0  0  0  0  0  0  0  0  0
   -6.1409    5.9258    1.2813 O   0  0  0  0  0  0  0  0  0  0  0  0
   -3.6877    5.1894   -1.7363 C   0  0  0  0  0  0  0  0  0  0  0  0
   -2.8326    3.8915   -1.4182 C   0  0  2  0  0  0  0  0  0  0  0  0
    5.6268    0.3106    5.5201 H   0  0  0  0  0  0  0  0  0  0  0  0
    6.8131    0.9252    4.3554 H   0  0  0  0  0  0  0  0  0  0  0  0
    6.2681    1.9550    5.6889 H   0  0  0  0  0  0  0  0  0  0  0  0
    3.9391    1.9281    4.7223 H   0  0  0  0  0  0  0  0  0  0  0  0
    5.1260    2.6831    3.6535 H   0  0  0  0  0  0  0  0  0  0  0  0
    4.1877   -0.2282    3.4363 H   0  0  0  0  0  0  0  0  0  0  0  0
    5.3575    0.5555    2.3720 H   0  0  0  0  0  0  0  0  0  0  0  0
    3.6090    2.2205    1.6891 H   0  0  0  0  0  0  0  0  0  0  0  0
    2.4403    1.4029    2.7257 H   0  0  0  0  0  0  0  0  0  0  0  0
    2.7164   -0.6969    1.4188 H   0  0  0  0  0  0  0  0  0  0  0  0
    3.9209    0.0811    0.3783 H   0  0  0  0  0  0  0  0  0  0  0  0
    1.0588    1.0411    0.7620 H   0  0  0  0  0  0  0  0  0  0  0  0
    2.2425    1.8110   -0.2700 H   0  0  0  0  0  0  0  0  0  0  0  0
    0.3545   -1.9745   -1.2958 H   0  0  0  0  0  0  0  0  0  0  0  0
    1.7484   -2.0337   -0.2082 H   0  0  0  0  0  0  0  0  0  0  0  0
    0.2710   -1.2883    0.3363 H   0  0  0  0  0  0  0  0  0  0  0  0
    3.0864    0.5657   -2.3751 H   0  0  0  0  0  0  0  0  0  0  0  0
    2.0690   -0.7070   -3.0653 H   0  0  0  0  0  0  0  0  0  0  0  0
    3.2014   -1.0871   -1.7655 H   0  0  0  0  0  0  0  0  0  0  0  0
    1.5011    2.2589   -2.8429 H   0  0  0  0  0  0  0  0  0  0  0  0
    0.7849    4.4148   -2.7409 H   0  0  0  0  0  0  0  0  0  0  0  0
   -1.1815   -0.1194   -0.4703 H   0  0  0  0  0  0  0  0  0  0  0  0
   -0.8076    4.6298    0.8465 H   0  0  0  0  0  0  0  0  0  0  0  0
   -1.9590    4.9338    2.1652 H   0  0  0  0  0  0  0  0  0  0  0  0
   -2.3520    5.4203    0.5850 H   0  0  0  0  0  0  0  0  0  0  0  0
   -1.5637    2.8381    2.7662 H   0  0  0  0  0  0  0  0  0  0  0  0
   -2.4602    1.4638    2.2754 H   0  0  0  0  0  0  0  0  0  0  0  0
   -3.3108    2.9239    2.9327 H   0  0  0  0  0  0  0  0  0  0  0  0
   -3.5909    1.9753   -0.4379 H   0  0  0  0  0  0  0  0  0  0  0  0
   -5.7082    2.6713    0.3943 H   0  0  0  0  0  0  0  0  0  0  0  0
   -5.3510    2.3642   -1.2926 H   0  0  0  0  0  0  0  0  0  0  0  0
   -6.1339    4.2256   -2.0159 H   0  0  0  0  0  0  0  0  0  0  0  0
   -4.1882    6.5116    0.9919 H   0  0  0  0  0  0  0  0  0  0  0  0
   -4.4893    4.8078    1.3403 H   0  0  0  0  0  0  0  0  0  0  0  0
   -6.6383    5.0958    1.2496 H   0  0  0  0  0  0  0  0  0  0  0  0
   -3.0816    6.1032   -1.6633 H   0  0  0  0  0  0  0  0  0  0  0  0
   -4.0484    5.1494   -2.7713 H   0  0  0  0  0  0  0  0  0  0  0  0
   -2.0257    4.5177   -1.0161 H   0  0  0  0  0  0  0  0  0  0  0  0
  1  2  1  0  0  0  0
  1 29  1  0  0  0  0
  1 30  1  0  0  0  0
  1 31  1  0  0  0  0
  2  3  1  0  0  0  0
  2 32  1  0  0  0  0
  2 33  1  0  0  0  0
  3  4  1  0  0  0  0
  3 34  1  0  0  0  0
  3 35  1  0  0  0  0
  4  5  1  0  0  0  0
  4 36  1  0  0  0  0
  4 37  1  0  0  0  0
  5  6  1  0  0  0  0
  5 38  1  0  0  0  0
  5 39  1  0  0  0  0
  6  7  1  0  0  0  0
  6 40  1  0  0  0  0
  6 41  1  0  0  0  0
  7  8  1  0  0  0  0
  7  9  1  0  0  0  0
  7 10  1  0  0  0  0
  8 42  1  0  0  0  0
  8 43  1  0  0  0  0
  8 44  1  0  0  0  0
  9 45  1  0  0  0  0
  9 46  1  0  0  0  0
  9 47  1  0  0  0  0
 10 16  2  0  0  0  0
 10 11  1  0  0  0  0
 11 12  2  0  0  0  0
 11 48  1  0  0  0  0
 12 14  1  0  0  0  0
 12 13  1  0  0  0  0
 13 49  1  0  0  0  0
 14 28  1  0  0  0  0
 14 15  2  0  0  0  0
 15 16  1  0  0  0  0
 15 17  1  0  0  0  0
 16 50  1  0  0  0  0
 17 18  1  0  0  0  0
 18 21  1  0  0  0  0
 18 19  1  0  0  0  0
 18 20  1  0  0  0  0
 19 51  1  0  0  0  0
 19 52  1  0  0  0  0
 19 53  1  0  0  0  0
 20 54  1  0  0  0  0
 20 55  1  0  0  0  0
 20 56  1  0  0  0  0
 21 22  1  0  0  0  0
 21 28  1  0  0  0  0
 21 57  1  6  0  0  0
 22 23  1  0  0  0  0
 22 58  1  0  0  0  0
 22 59  1  0  0  0  0
 23 24  2  3  0  0  0
 23 60  1  0  0  0  0
 24 27  1  0  0  0  0
 24 25  1  0  0  0  0
 25 26  1  0  0  0  0
 25 61  1  0  0  0  0
 25 62  1  0  0  0  0
 26 63  1  0  0  0  0
 27 64  1  0  0  0  0
 27 65  1  0  0  0  0
 28 27  1  0  0  0  0
 28 66  1  1  0  0  0
M  END
$$$$
CHEMBL239840	5XRA	best_smi
 OpenBabel12022417393D

 60 62  0  0  1  0  0  0  0  0999 V2000
    2.9672   -0.7023    1.5682 C   0  0  0  0  0  0  0  0  0  0  0  0
    1.7785   -0.3366    2.0631 C   0  0  0  0  0  0  0  0  0  0  0  0
    1.5572    0.0187    3.5146 C   0  0  0  0  0  0  0  0  0  0  0  0
    0.6722   -0.9881    4.2638 C   0  0  0  0  0  0  0  0  0  0  0  0
    0.4790   -0.5539    5.7155 C   0  0  0  0  0  0  0  0  0  0  0  0
   -0.4260   -1.5145    6.4847 C   0  0  0  0  0  0  0  0  0  0  0  0
   -0.6019   -1.0421    7.9270 C   0  0  0  0  0  0  0  0  0  0  0  0
   -1.4959   -1.9796    8.7196 C   0  0  0  0  0  0  0  0  0  0  0  0
    0.5926   -0.3473    1.1952 C   0  0  0  0  0  0  0  0  0  0  0  0
    0.0104    0.8174    0.6773 C   0  0  0  0  0  0  0  0  0  0  0  0
   -1.2006    0.7416   -0.0281 C   0  0  0  0  0  0  0  0  0  0  0  0
   -1.7572    1.9170   -0.5239 O   0  0  0  0  0  0  0  0  0  0  0  0
   -1.8197   -0.4864   -0.3058 C   0  0  0  0  0  0  0  0  0  0  0  0
   -1.0701   -1.6226    0.0171 C   0  0  0  0  0  0  0  0  0  0  0  0
    0.0503   -1.5680    0.8410 C   0  0  0  0  0  0  0  0  0  0  0  0
   -1.2212   -2.8311   -0.5925 O   0  0  0  0  0  0  0  0  0  0  0  0
   -2.5507   -3.2833   -0.7983 C   0  0  0  0  0  0  0  0  0  0  0  0
   -2.9213   -4.0381    0.5182 C   0  0  0  0  0  0  0  0  0  0  0  0
   -2.5058   -4.3182   -1.9198 C   0  0  0  0  0  0  0  0  0  0  0  0
   -3.5570   -2.1557   -1.0249 C   0  0  2  0  0  0  0  0  0  0  0  0
   -4.6794   -2.3106   -2.0671 C   0  0  0  0  0  0  0  0  0  0  0  0
   -5.8964   -1.8405   -1.3215 C   0  0  0  0  0  0  0  0  0  0  0  0
   -5.7208   -0.7976   -0.4743 C   0  0  0  0  0  0  0  0  0  0  0  0
   -6.4952   -0.8188    0.8253 C   0  0  0  0  0  0  0  0  0  0  0  0
   -4.4493    0.1081   -0.5993 C   0  0  0  0  0  0  0  0  0  0  0  0
   -3.1243   -0.6707   -1.0637 C   0  0  1  0  0  0  0  0  0  0  0  0
    3.8533   -0.7448    2.1950 H   0  0  0  0  0  0  0  0  0  0  0  0
    3.0918   -0.9825    0.5252 H   0  0  0  0  0  0  0  0  0  0  0  0
    2.5248    0.0827    4.0300 H   0  0  0  0  0  0  0  0  0  0  0  0
    1.1141    1.0205    3.5738 H   0  0  0  0  0  0  0  0  0  0  0  0
    1.1277   -1.9873    4.2317 H   0  0  0  0  0  0  0  0  0  0  0  0
   -0.3103   -1.0697    3.7834 H   0  0  0  0  0  0  0  0  0  0  0  0
    1.4555   -0.4932    6.2109 H   0  0  0  0  0  0  0  0  0  0  0  0
    0.0416    0.4517    5.7359 H   0  0  0  0  0  0  0  0  0  0  0  0
    0.0078   -2.5219    6.4740 H   0  0  0  0  0  0  0  0  0  0  0  0
   -1.4048   -1.5781    5.9934 H   0  0  0  0  0  0  0  0  0  0  0  0
    0.3770   -0.9775    8.4168 H   0  0  0  0  0  0  0  0  0  0  0  0
   -1.0361   -0.0351    7.9387 H   0  0  0  0  0  0  0  0  0  0  0  0
   -1.5638   -1.6461    9.7595 H   0  0  0  0  0  0  0  0  0  0  0  0
   -2.5068   -2.0007    8.3019 H   0  0  0  0  0  0  0  0  0  0  0  0
   -1.0982   -2.9993    8.7138 H   0  0  0  0  0  0  0  0  0  0  0  0
    0.5210    1.7615    0.8226 H   0  0  0  0  0  0  0  0  0  0  0  0
   -1.1511    2.6387   -0.3330 H   0  0  0  0  0  0  0  0  0  0  0  0
    0.5037   -2.4994    1.1728 H   0  0  0  0  0  0  0  0  0  0  0  0
   -2.8576   -3.3620    1.3848 H   0  0  0  0  0  0  0  0  0  0  0  0
   -3.9454   -4.4317    0.4808 H   0  0  0  0  0  0  0  0  0  0  0  0
   -2.2319   -4.8452    0.7243 H   0  0  0  0  0  0  0  0  0  0  0  0
   -2.3864   -3.8331   -2.8929 H   0  0  0  0  0  0  0  0  0  0  0  0
   -1.6519   -4.9919   -1.7917 H   0  0  0  0  0  0  0  0  0  0  0  0
   -3.4145   -4.9293   -1.9357 H   0  0  0  0  0  0  0  0  0  0  0  0
   -4.0257   -2.2020   -0.0316 H   0  0  0  0  0  0  0  0  0  0  0  0
   -4.8306   -3.3337   -2.4038 H   0  0  0  0  0  0  0  0  0  0  0  0
   -4.5294   -1.6873   -2.9618 H   0  0  0  0  0  0  0  0  0  0  0  0
   -6.6803   -2.5687   -1.1786 H   0  0  0  0  0  0  0  0  0  0  0  0
   -7.1022    0.0601    0.9620 H   0  0  0  0  0  0  0  0  0  0  0  0
   -5.7865   -0.9234    1.6609 H   0  0  0  0  0  0  0  0  0  0  0  0
   -7.1439   -1.7051    0.8845 H   0  0  0  0  0  0  0  0  0  0  0  0
   -4.6894    0.8572   -1.3672 H   0  0  0  0  0  0  0  0  0  0  0  0
   -4.2807    0.6552    0.3332 H   0  0  0  0  0  0  0  0  0  0  0  0
   -2.9037   -0.3705   -2.0983 H   0  0  0  0  0  0  0  0  0  0  0  0
  1  2  2  0  0  0  0
  1 27  1  0  0  0  0
  1 28  1  0  0  0  0
  2  3  1  0  0  0  0
  2  9  1  0  0  0  0
  3  4  1  0  0  0  0
  3 29  1  0  0  0  0
  3 30  1  0  0  0  0
  4  5  1  0  0  0  0
  4 31  1  0  0  0  0
  4 32  1  0  0  0  0
  5  6  1  0  0  0  0
  5 33  1  0  0  0  0
  5 34  1  0  0  0  0
  6  7  1  0  0  0  0
  6 35  1  0  0  0  0
  6 36  1  0  0  0  0
  7  8  1  0  0  0  0
  7 37  1  0  0  0  0
  7 38  1  0  0  0  0
  8 39  1  0  0  0  0
  8 40  1  0  0  0  0
  8 41  1  0  0  0  0
  9 15  2  0  0  0  0
  9 10  1  0  0  0  0
 10 11  2  0  0  0  0
 10 42  1  0  0  0  0
 11 12  1  0  0  0  0
 11 13  1  0  0  0  0
 12 43  1  0  0  0  0
 13 26  1  0  0  0  0
 13 14  2  0  0  0  0
 14 15  1  0  0  0  0
 14 16  1  0  0  0  0
 15 44  1  0  0  0  0
 16 17  1  0  0  0  0
 17 18  1  0  0  0  0
 17 19  1  0  0  0  0
 17 20  1  0  0  0  0
 18 45  1  0  0  0  0
 18 46  1  0  0  0  0
 18 47  1  0  0  0  0
 19 48  1  0  0  0  0
 19 49  1  0  0  0  0
 19 50  1  0  0  0  0
 20 21  1  0  0  0  0
 20 26  1  0  0  0  0
 20 51  1  1  0  0  0
 21 22  1  0  0  0  0
 21 52  1  0  0  0  0
 21 53  1  0  0  0  0
 22 23  2  0  0  0  0
 22 54  1  0  0  0  0
 23 24  1  0  0  0  0
 23 25  1  0  0  0  0
 24 55  1  0  0  0  0
 24 56  1  0  0  0  0
 24 57  1  0  0  0  0
 25 58  1  0  0  0  0
 25 59  1  0  0  0  0
 26 25  1  0  0  0  0
 26 60  1  6  0  0  0
M  END
$$$$
CHEMBL411626	5XRA	best_smi
 OpenBabel12022417393D

 65 67  0  0  1  0  0  0  0  0999 V2000
    7.8910   -1.3756    2.8198 C   0  0  0  0  0  0  0  0  0  0  0  0
    7.2815   -1.1143    1.4528 C   0  0  0  0  0  0  0  0  0  0  0  0
    5.8383   -0.6361    1.5794 C   0  0  0  0  0  0  0  0  0  0  0  0
    5.2192   -0.3662    0.2096 C   0  0  0  0  0  0  0  0  0  0  0  0
    3.7663    0.0795    0.3604 C   0  0  0  0  0  0  0  0  0  0  0  0
    3.1291    0.3615   -1.0047 C   0  0  0  0  0  0  0  0  0  0  0  0
    1.6632    0.8612   -0.9321 C   0  0  0  0  0  0  0  0  0  0  0  0
    1.5915    2.1745   -0.0731 C   0  0  0  0  0  0  0  0  0  0  0  0
    1.2039    1.2824   -2.3532 C   0  0  0  0  0  0  0  0  0  0  0  0
    0.7125   -0.2419   -0.4349 C   0  0  0  0  0  0  0  0  0  0  0  0
    0.3298   -1.3371   -1.2533 C   0  0  0  0  0  0  0  0  0  0  0  0
   -0.8001   -2.1340   -0.9533 C   0  0  0  0  0  0  0  0  0  0  0  0
   -1.1784   -3.1081   -1.8211 O   0  0  0  0  0  0  0  0  0  0  0  0
   -1.5773   -1.8464    0.1623 C   0  0  0  0  0  0  0  0  0  0  0  0
   -1.1077   -0.8182    1.0094 C   0  0  0  0  0  0  0  0  0  0  0  0
    0.0474   -0.0893    0.7756 C   0  0  0  0  0  0  0  0  0  0  0  0
   -1.9437   -0.2609    1.9590 O   0  0  0  0  0  0  0  0  0  0  0  0
   -3.1883    0.0627    1.3154 C   0  0  0  0  0  0  0  0  0  0  0  0
   -2.9883    0.9244    0.0132 C   0  0  0  0  0  0  0  0  0  0  0  0
   -4.0083    0.9481    2.2562 C   0  0  0  0  0  0  0  0  0  0  0  0
   -3.8920   -1.2487    0.9508 C   0  0  2  0  0  0  0  0  0  0  0  0
   -4.8678   -1.9043    1.9539 C   0  0  0  0  0  0  0  0  0  0  0  0
   -5.7460   -2.8001    1.1096 C   0  0  0  0  0  0  0  0  0  0  0  0
   -5.2732   -3.2326   -0.0830 C   0  0  0  0  0  0  0  0  0  0  0  0
   -6.1702   -3.0386   -1.2772 C   0  0  0  0  0  0  0  0  0  0  0  0
   -3.7623   -3.3421   -0.3732 C   0  0  0  0  0  0  0  0  0  0  0  0
   -2.9264   -2.4082    0.5390 C   0  0  1  0  0  0  0  0  0  0  0  0
    8.8601   -1.8719    2.7141 H   0  0  0  0  0  0  0  0  0  0  0  0
    8.0457   -0.4365    3.3609 H   0  0  0  0  0  0  0  0  0  0  0  0
    7.2431   -2.0172    3.4258 H   0  0  0  0  0  0  0  0  0  0  0  0
    7.8825   -0.3658    0.9233 H   0  0  0  0  0  0  0  0  0  0  0  0
    7.3118   -2.0352    0.8598 H   0  0  0  0  0  0  0  0  0  0  0  0
    5.2458   -1.3964    2.1030 H   0  0  0  0  0  0  0  0  0  0  0  0
    5.8016    0.2752    2.1889 H   0  0  0  0  0  0  0  0  0  0  0  0
    5.2666   -1.2698   -0.4080 H   0  0  0  0  0  0  0  0  0  0  0  0
    5.7931    0.4139   -0.3062 H   0  0  0  0  0  0  0  0  0  0  0  0
    3.7500    0.9796    0.9835 H   0  0  0  0  0  0  0  0  0  0  0  0
    3.1976   -0.6937    0.8894 H   0  0  0  0  0  0  0  0  0  0  0  0
    3.7365    1.1191   -1.5180 H   0  0  0  0  0  0  0  0  0  0  0  0
    3.1876   -0.5451   -1.6204 H   0  0  0  0  0  0  0  0  0  0  0  0
    0.5898    2.6013   -0.1096 H   0  0  0  0  0  0  0  0  0  0  0  0
    1.8628    2.0132    0.9686 H   0  0  0  0  0  0  0  0  0  0  0  0
    2.2879    2.9196   -0.4766 H   0  0  0  0  0  0  0  0  0  0  0  0
    1.3680    0.4928   -3.0944 H   0  0  0  0  0  0  0  0  0  0  0  0
    0.1333    1.5279   -2.3595 H   0  0  0  0  0  0  0  0  0  0  0  0
    1.7472    2.1677   -2.7026 H   0  0  0  0  0  0  0  0  0  0  0  0
    0.8762   -1.5220   -2.1707 H   0  0  0  0  0  0  0  0  0  0  0  0
   -0.6813   -2.9992   -2.6474 H   0  0  0  0  0  0  0  0  0  0  0  0
    0.2763    0.7039    1.4793 H   0  0  0  0  0  0  0  0  0  0  0  0
   -2.2543    1.7212    0.1727 H   0  0  0  0  0  0  0  0  0  0  0  0
   -3.9313    1.3737   -0.3181 H   0  0  0  0  0  0  0  0  0  0  0  0
   -2.6323    0.3341   -0.8397 H   0  0  0  0  0  0  0  0  0  0  0  0
   -4.0871    0.5148    3.2535 H   0  0  0  0  0  0  0  0  0  0  0  0
   -5.0154    1.1173    1.8515 H   0  0  0  0  0  0  0  0  0  0  0  0
   -3.5290    1.9261    2.3706 H   0  0  0  0  0  0  0  0  0  0  0  0
   -4.4896   -0.9526    0.0718 H   0  0  0  0  0  0  0  0  0  0  0  0
   -5.5109   -1.1565    2.4239 H   0  0  0  0  0  0  0  0  0  0  0  0
   -4.3695   -2.4634    2.7550 H   0  0  0  0  0  0  0  0  0  0  0  0
   -6.8140   -2.6631    1.2682 H   0  0  0  0  0  0  0  0  0  0  0  0
   -7.2318   -3.0368   -1.0108 H   0  0  0  0  0  0  0  0  0  0  0  0
   -5.9923   -3.7738   -2.0612 H   0  0  0  0  0  0  0  0  0  0  0  0
   -5.9515   -2.0418   -1.6918 H   0  0  0  0  0  0  0  0  0  0  0  0
   -3.5898   -3.1227   -1.4297 H   0  0  0  0  0  0  0  0  0  0  0  0
   -3.4569   -4.3862   -0.2097 H   0  0  0  0  0  0  0  0  0  0  0  0
   -2.6935   -3.0084    1.4328 H   0  0  0  0  0  0  0  0  0  0  0  0
  1  2  1  0  0  0  0
  1 28  1  0  0  0  0
  1 29  1  0  0  0  0
  1 30  1  0  0  0  0
  2  3  1  0  0  0  0
  2 31  1  0  0  0  0
  2 32  1  0  0  0  0
  3  4  1  0  0  0  0
  3 33  1  0  0  0  0
  3 34  1  0  0  0  0
  4  5  1  0  0  0  0
  4 35  1  0  0  0  0
  4 36  1  0  0  0  0
  5  6  1  0  0  0  0
  5 37  1  0  0  0  0
  5 38  1  0  0  0  0
  6  7  1  0  0  0  0
  6 39  1  0  0  0  0
  6 40  1  0  0  0  0
  7  8  1  0  0  0  0
  7  9  1  0  0  0  0
  7 10  1  0  0  0  0
  8 41  1  0  0  0  0
  8 42  1  0  0  0  0
  8 43  1  0  0  0  0
  9 44  1  0  0  0  0
  9 45  1  0  0  0  0
  9 46  1  0  0  0  0
 10 16  2  0  0  0  0
 10 11  1  0  0  0  0
 11 12  2  0  0  0  0
 11 47  1  0  0  0  0
 12 13  1  0  0  0  0
 12 14  1  0  0  0  0
 13 48  1  0  0  0  0
 14 27  1  0  0  0  0
 14 15  2  0  0  0  0
 15 16  1  0  0  0  0
 15 17  1  0  0  0  0
 16 49  1  0  0  0  0
 17 18  1  0  0  0  0
 18 19  1  0  0  0  0
 18 20  1  0  0  0  0
 18 21  1  0  0  0  0
 19 50  1  0  0  0  0
 19 51  1  0  0  0  0
 19 52  1  0  0  0  0
 20 53  1  0  0  0  0
 20 54  1  0  0  0  0
 20 55  1  0  0  0  0
 21 22  1  0  0  0  0
 21 27  1  0  0  0  0
 21 56  1  6  0  0  0
 22 23  1  0  0  0  0
 22 57  1  0  0  0  0
 22 58  1  0  0  0  0
 23 24  2  0  0  0  0
 23 59  1  0  0  0  0
 24 25  1  0  0  0  0
 24 26  1  0  0  0  0
 25 60  1  0  0  0  0
 25 61  1  0  0  0  0
 25 62  1  0  0  0  0
 26 63  1  0  0  0  0
 26 64  1  0  0  0  0
 27 26  1  0  0  0  0
 27 65  1  1  0  0  0
M  END
$$$$
CHEMBL418555	5XRA	best_smi
 OpenBabel12022417403D

 58 60  0  0  1  0  0  0  0  0999 V2000
    7.6949    0.3128   -2.6126 C   0  0  0  0  0  0  0  0  0  0  0  0
    6.7916   -0.5462   -1.7456 C   0  0  0  0  0  0  0  0  0  0  0  0
    5.3971   -0.6920   -2.3608 C   0  0  0  0  0  0  0  0  0  0  0  0
    4.5171   -1.5489   -1.4766 C   0  0  0  0  0  0  0  0  0  0  0  0
    3.1407   -1.7607   -2.1021 C   0  0  0  0  0  0  0  0  0  0  0  0
    2.2563   -2.5845   -1.1777 C   0  0  0  0  0  0  0  0  0  0  0  0
    1.9975   -1.8129    0.0953 C   0  0  0  0  0  0  0  0  0  0  0  0
    2.5951   -2.0755    1.1378 O   0  0  0  0  0  0  0  0  0  0  0  0
    0.9815   -0.7276    0.0905 C   0  0  0  0  0  0  0  0  0  0  0  0
    0.8336    0.0720    1.2292 C   0  0  0  0  0  0  0  0  0  0  0  0
   -0.3218    0.8177    1.3671 C   0  0  0  0  0  0  0  0  0  0  0  0
   -0.4310    1.7076    2.3807 O   0  0  0  0  0  0  0  0  0  0  0  0
   -1.3863    0.6099    0.4871 C   0  0  0  0  0  0  0  0  0  0  0  0
   -1.0660    0.1344   -0.7754 C   0  0  0  0  0  0  0  0  0  0  0  0
    0.1180   -0.5417   -0.9868 C   0  0  0  0  0  0  0  0  0  0  0  0
   -1.9484    0.2502   -1.8067 O   0  0  0  0  0  0  0  0  0  0  0  0
   -3.2299   -0.3496   -1.5449 C   0  0  0  0  0  0  0  0  0  0  0  0
   -3.1122   -1.7878   -2.1146 C   0  0  0  0  0  0  0  0  0  0  0  0
   -4.2794    0.4076   -2.3540 C   0  0  0  0  0  0  0  0  0  0  0  0
   -3.5588   -0.4317   -0.0432 C   0  0  2  0  0  0  0  0  0  0  0  0
   -5.0417   -0.5455    0.3741 C   0  0  0  0  0  0  0  0  0  0  0  0
   -5.0582   -1.2965    1.6839 C   0  0  0  0  0  0  0  0  0  0  0  0
   -3.9308   -1.2490    2.4264 C   0  0  0  0  0  0  0  0  0  0  0  0
   -3.2662   -2.5845    2.6882 C   0  0  0  0  0  0  0  0  0  0  0  0
   -3.0420   -0.0007    2.3604 C   0  0  0  0  0  0  0  0  0  0  0  0
   -2.8338    0.5696    0.9037 C   0  0  1  0  0  0  0  0  0  0  0  0
    7.4235    1.3691   -2.5213 H   0  0  0  0  0  0  0  0  0  0  0  0
    8.7371    0.1993   -2.2998 H   0  0  0  0  0  0  0  0  0  0  0  0
    7.6204    0.0282   -3.6665 H   0  0  0  0  0  0  0  0  0  0  0  0
    6.7180   -0.1021   -0.7455 H   0  0  0  0  0  0  0  0  0  0  0  0
    7.2417   -1.5386   -1.6242 H   0  0  0  0  0  0  0  0  0  0  0  0
    4.9500    0.2982   -2.5017 H   0  0  0  0  0  0  0  0  0  0  0  0
    5.4874   -1.1517   -3.3560 H   0  0  0  0  0  0  0  0  0  0  0  0
    4.9872   -2.5229   -1.2987 H   0  0  0  0  0  0  0  0  0  0  0  0
    4.4237   -1.0537   -0.5034 H   0  0  0  0  0  0  0  0  0  0  0  0
    3.2383   -2.2790   -3.0625 H   0  0  0  0  0  0  0  0  0  0  0  0
    2.6819   -0.7866   -2.3109 H   0  0  0  0  0  0  0  0  0  0  0  0
    1.3104   -2.8559   -1.6586 H   0  0  0  0  0  0  0  0  0  0  0  0
    2.7309   -3.5372   -0.9195 H   0  0  0  0  0  0  0  0  0  0  0  0
    1.5778    0.0585    2.0214 H   0  0  0  0  0  0  0  0  0  0  0  0
   -0.0052    2.5188    2.0360 H   0  0  0  0  0  0  0  0  0  0  0  0
    0.2572   -1.0208   -1.9493 H   0  0  0  0  0  0  0  0  0  0  0  0
   -4.0335   -2.3619   -1.9823 H   0  0  0  0  0  0  0  0  0  0  0  0
   -2.3002   -2.3392   -1.6183 H   0  0  0  0  0  0  0  0  0  0  0  0
   -2.8450   -1.7699   -3.1763 H   0  0  0  0  0  0  0  0  0  0  0  0
   -3.9571    0.5194   -3.3953 H   0  0  0  0  0  0  0  0  0  0  0  0
   -5.2424   -0.1142   -2.3605 H   0  0  0  0  0  0  0  0  0  0  0  0
   -4.4298    1.4153   -1.9559 H   0  0  0  0  0  0  0  0  0  0  0  0
   -3.0963   -1.4024    0.2033 H   0  0  0  0  0  0  0  0  0  0  0  0
   -5.5352    0.4275    0.4638 H   0  0  0  0  0  0  0  0  0  0  0  0
   -5.5936   -1.1477   -0.3549 H   0  0  0  0  0  0  0  0  0  0  0  0
   -5.6719   -2.1960    1.6841 H   0  0  0  0  0  0  0  0  0  0  0  0
   -3.7436   -3.1449    3.4917 H   0  0  0  0  0  0  0  0  0  0  0  0
   -2.1963   -2.4782    2.8913 H   0  0  0  0  0  0  0  0  0  0  0  0
   -3.3214   -3.1955    1.7712 H   0  0  0  0  0  0  0  0  0  0  0  0
   -2.0983   -0.2214    2.8695 H   0  0  0  0  0  0  0  0  0  0  0  0
   -3.5182    0.7770    2.9738 H   0  0  0  0  0  0  0  0  0  0  0  0
   -3.2619    1.5770    0.8252 H   0  0  0  0  0  0  0  0  0  0  0  0
  1  2  1  0  0  0  0
  1 27  1  0  0  0  0
  1 28  1  0  0  0  0
  1 29  1  0  0  0  0
  2  3  1  0  0  0  0
  2 30  1  0  0  0  0
  2 31  1  0  0  0  0
  3  4  1  0  0  0  0
  3 32  1  0  0  0  0
  3 33  1  0  0  0  0
  4  5  1  0  0  0  0
  4 34  1  0  0  0  0
  4 35  1  0  0  0  0
  5  6  1  0  0  0  0
  5 36  1  0  0  0  0
  5 37  1  0  0  0  0
  6  7  1  0  0  0  0
  6 38  1  0  0  0  0
  6 39  1  0  0  0  0
  7  8  2  0  0  0  0
  7  9  1  0  0  0  0
  9 15  2  0  0  0  0
  9 10  1  0  0  0  0
 10 11  2  0  0  0  0
 10 40  1  0  0  0  0
 11 12  1  0  0  0  0
 11 13  1  0  0  0  0
 12 41  1  0  0  0  0
 13 26  1  0  0  0  0
 13 14  2  0  0  0  0
 14 15  1  0  0  0  0
 14 16  1  0  0  0  0
 15 42  1  0  0  0  0
 16 17  1  0  0  0  0
 17 18  1  0  0  0  0
 17 19  1  0  0  0  0
 17 20  1  0  0  0  0
 18 43  1  0  0  0  0
 18 44  1  0  0  0  0
 18 45  1  0  0  0  0
 19 46  1  0  0  0  0
 19 47  1  0  0  0  0
 19 48  1  0  0  0  0
 20 21  1  0  0  0  0
 20 26  1  0  0  0  0
 20 49  1  1  0  0  0
 21 22  1  0  0  0  0
 21 50  1  0  0  0  0
 21 51  1  0  0  0  0
 22 23  2  0  0  0  0
 22 52  1  0  0  0  0
 23 24  1  0  0  0  0
 23 25  1  0  0  0  0
 24 53  1  0  0  0  0
 24 54  1  0  0  0  0
 24 55  1  0  0  0  0
 25 56  1  0  0  0  0
 25 57  1  0  0  0  0
 26 25  1  0  0  0  0
 26 58  1  6  0  0  0
M  END
$$$$
CHEMBL307696	5XRA	best_smi
 OpenBabel12022417403D

 66 68  0  0  1  0  0  0  0  0999 V2000
    5.4667   -0.1455   -7.8366 C   0  0  0  0  0  0  0  0  0  0  0  0
    4.1579   -0.2292   -7.0754 C   0  0  0  0  0  0  0  0  0  0  0  0
    4.3531    0.2708   -5.6505 C   0  0  0  0  0  0  0  0  0  0  0  0
    3.0555    0.2356   -4.8673 C   0  0  0  0  0  0  0  0  0  0  0  0
    3.3051    0.7136   -3.4383 C   0  0  0  0  0  0  0  0  0  0  0  0
    1.9897    0.6559   -2.6870 C   0  0  0  0  0  0  0  0  0  0  0  0
    2.0240    1.0328   -1.1810 C   0  0  0  0  0  0  0  0  0  0  0  0
    2.5117    2.4815   -0.9849 C   0  0  0  0  0  0  0  0  0  0  0  0
    2.9817    0.1198   -0.3846 C   0  0  0  0  0  0  0  0  0  0  0  0
    0.5617    0.8146   -0.7600 C   0  0  0  0  0  0  0  0  0  0  0  0
   -0.3507    1.8662   -0.6218 C   0  0  0  0  0  0  0  0  0  0  0  0
   -1.7021    1.5919   -0.4654 C   0  0  0  0  0  0  0  0  0  0  0  0
   -2.5884    2.6357   -0.4907 O   0  0  0  0  0  0  0  0  0  0  0  0
   -2.1903    0.2867   -0.3790 C   0  0  0  0  0  0  0  0  0  0  0  0
   -1.2995   -0.7466   -0.6632 C   0  0  0  0  0  0  0  0  0  0  0  0
    0.0589   -0.4986   -0.7805 C   0  0  0  0  0  0  0  0  0  0  0  0
   -1.6614   -2.0396   -0.9231 O   0  0  0  0  0  0  0  0  0  0  0  0
   -3.0690   -2.3536   -0.8509 C   0  0  0  0  0  0  0  0  0  0  0  0
   -3.0663   -3.8718   -0.6056 C   0  0  0  0  0  0  0  0  0  0  0  0
   -3.7286   -2.0648   -2.2187 C   0  0  0  0  0  0  0  0  0  0  0  0
   -3.6826   -1.5585    0.3295 C   0  0  2  0  0  0  0  0  0  0  0  0
   -5.1113   -1.9371    0.7216 C   0  0  0  0  0  0  0  0  0  0  0  0
   -5.6353   -1.0665    1.8253 C   0  0  0  0  0  0  0  0  0  0  0  0
   -5.1727    0.1717    2.0710 C   0  0  0  0  0  0  0  0  0  0  0  0
   -5.7914    1.0655    3.1122 C   0  0  0  0  0  0  0  0  0  0  0  0
   -4.8067    1.5330    4.0172 O   0  0  0  0  0  0  0  0  0  0  0  0
   -4.0454    0.7756    1.2683 C   0  0  0  0  0  0  0  0  0  0  0  0
   -3.6041   -0.0434    0.0303 C   0  0  1  0  0  0  0  0  0  0  0  0
    5.3670   -0.6101   -8.8210 H   0  0  0  0  0  0  0  0  0  0  0  0
    5.7622    0.8992   -7.9763 H   0  0  0  0  0  0  0  0  0  0  0  0
    6.2677   -0.6564   -7.2928 H   0  0  0  0  0  0  0  0  0  0  0  0
    3.3931    0.3676   -7.5865 H   0  0  0  0  0  0  0  0  0  0  0  0
    3.8040   -1.2668   -7.0594 H   0  0  0  0  0  0  0  0  0  0  0  0
    5.0992   -0.3529   -5.1420 H   0  0  0  0  0  0  0  0  0  0  0  0
    4.7432    1.2971   -5.6642 H   0  0  0  0  0  0  0  0  0  0  0  0
    2.3063    0.8750   -5.3510 H   0  0  0  0  0  0  0  0  0  0  0  0
    2.6495   -0.7837   -4.8592 H   0  0  0  0  0  0  0  0  0  0  0  0
    4.0458    0.0663   -2.9574 H   0  0  0  0  0  0  0  0  0  0  0  0
    3.6991    1.7340   -3.4474 H   0  0  0  0  0  0  0  0  0  0  0  0
    1.2683    1.3085   -3.2004 H   0  0  0  0  0  0  0  0  0  0  0  0
    1.6086   -0.3585   -2.8136 H   0  0  0  0  0  0  0  0  0  0  0  0
    2.4219    2.7907    0.0663 H   0  0  0  0  0  0  0  0  0  0  0  0
    3.5618    2.5929   -1.2661 H   0  0  0  0  0  0  0  0  0  0  0  0
    1.9423    3.1936   -1.5961 H   0  0  0  0  0  0  0  0  0  0  0  0
    2.8224    0.2271    0.6982 H   0  0  0  0  0  0  0  0  0  0  0  0
    4.0321    0.3684   -0.5838 H   0  0  0  0  0  0  0  0  0  0  0  0
    2.8577   -0.9407   -0.6296 H   0  0  0  0  0  0  0  0  0  0  0  0
   -0.0341    2.9018   -0.6671 H   0  0  0  0  0  0  0  0  0  0  0  0
   -2.4153    3.1064   -1.3244 H   0  0  0  0  0  0  0  0  0  0  0  0
    0.7095   -1.3471   -0.9642 H   0  0  0  0  0  0  0  0  0  0  0  0
   -2.2720   -4.1541    0.0959 H   0  0  0  0  0  0  0  0  0  0  0  0
   -4.0169   -4.2530   -0.2317 H   0  0  0  0  0  0  0  0  0  0  0  0
   -2.8468   -4.4170   -1.5311 H   0  0  0  0  0  0  0  0  0  0  0  0
   -3.4069   -1.1079   -2.6359 H   0  0  0  0  0  0  0  0  0  0  0  0
   -3.4458   -2.8158   -2.9647 H   0  0  0  0  0  0  0  0  0  0  0  0
   -4.8209   -2.0658   -2.1549 H   0  0  0  0  0  0  0  0  0  0  0  0
   -3.0443   -1.7581    1.2069 H   0  0  0  0  0  0  0  0  0  0  0  0
   -5.1489   -2.9759    1.0590 H   0  0  0  0  0  0  0  0  0  0  0  0
   -5.7945   -1.8438   -0.1310 H   0  0  0  0  0  0  0  0  0  0  0  0
   -6.4463   -1.4772    2.4222 H   0  0  0  0  0  0  0  0  0  0  0  0
   -6.5644    0.5520    3.6890 H   0  0  0  0  0  0  0  0  0  0  0  0
   -6.2521    1.9319    2.6261 H   0  0  0  0  0  0  0  0  0  0  0  0
   -4.3010    0.7626    4.3132 H   0  0  0  0  0  0  0  0  0  0  0  0
   -3.1904    0.9192    1.9424 H   0  0  0  0  0  0  0  0  0  0  0  0
   -4.3619    1.7731    0.9398 H   0  0  0  0  0  0  0  0  0  0  0  0
   -4.2715    0.2077   -0.8076 H   0  0  0  0  0  0  0  0  0  0  0  0
  1  2  1  0  0  0  0
  1 29  1  0  0  0  0
  1 30  1  0  0  0  0
  1 31  1  0  0  0  0
  2  3  1  0  0  0  0
  2 32  1  0  0  0  0
  2 33  1  0  0  0  0
  3  4  1  0  0  0  0
  3 34  1  0  0  0  0
  3 35  1  0  0  0  0
  4  5  1  0  0  0  0
  4 36  1  0  0  0  0
  4 37  1  0  0  0  0
  5  6  1  0  0  0  0
  5 38  1  0  0  0  0
  5 39  1  0  0  0  0
  6  7  1  0  0  0  0
  6 40  1  0  0  0  0
  6 41  1  0  0  0  0
  7  8  1  0  0  0  0
  7  9  1  0  0  0  0
  7 10  1  0  0  0  0
  8 42  1  0  0  0  0
  8 43  1  0  0  0  0
  8 44  1  0  0  0  0
  9 45  1  0  0  0  0
  9 46  1  0  0  0  0
  9 47  1  0  0  0  0
 10 16  2  0  0  0  0
 10 11  1  0  0  0  0
 11 12  2  0  0  0  0
 11 48  1  0  0  0  0
 12 13  1  0  0  0  0
 12 14  1  0  0  0  0
 13 49  1  0  0  0  0
 14 28  1  0  0  0  0
 14 15  2  0  0  0  0
 15 16  1  0  0  0  0
 15 17  1  0  0  0  0
 16 50  1  0  0  0  0
 17 18  1  0  0  0  0
 18 19  1  0  0  0  0
 18 20  1  0  0  0  0
 18 21  1  0  0  0  0
 19 51  1  0  0  0  0
 19 52  1  0  0  0  0
 19 53  1  0  0  0  0
 20 54  1  0  0  0  0
 20 55  1  0  0  0  0
 20 56  1  0  0  0  0
 21 22  1  0  0  0  0
 21 28  1  0  0  0  0
 21 57  1  1  0  0  0
 22 23  1  0  0  0  0
 22 58  1  0  0  0  0
 22 59  1  0  0  0  0
 23 24  2  0  0  0  0
 23 60  1  0  0  0  0
 24 25  1  0  0  0  0
 24 27  1  0  0  0  0
 25 26  1  0  0  0  0
 25 61  1  0  0  0  0
 25 62  1  0  0  0  0
 26 63  1  0  0  0  0
 27 64  1  0  0  0  0
 27 65  1  0  0  0  0
 28 27  1  0  0  0  0
 28 66  1  6  0  0  0
M  END
$$$$
CHEMBL471123	5XRA	best_smi
 OpenBabel12022417403D

 57 60  0  0  1  0  0  0  0  0999 V2000
    0.8443   -0.2493    1.7426 C   0  0  0  0  0  0  0  0  0  0  0  0
    1.1091   -1.2956    0.7001 C   0  0  0  0  0  0  0  0  0  0  0  0
    2.3052   -1.3688    0.0872 C   0  0  0  0  0  0  0  0  0  0  0  0
    2.5089   -2.3292   -1.0378 C   0  0  0  0  0  0  0  0  0  0  0  0
    1.9247   -3.7099   -0.7531 C   0  0  2  0  0  0  0  0  0  0  0  0
    0.7296   -3.6921    0.2229 C   0  0  1  0  0  0  0  0  0  0  0  0
    0.0307   -2.3271    0.3506 C   0  0  0  0  0  0  0  0  0  0  0  0
    0.0763   -5.0099   -0.0900 C   0  0  0  0  0  0  0  0  0  0  0  0
   -1.1659   -5.3054   -0.6176 C   0  0  0  0  0  0  0  0  0  0  0  0
   -1.9655   -4.3411   -1.1529 O   0  0  0  0  0  0  0  0  0  0  0  0
   -1.6222   -6.6345   -0.6639 C   0  0  0  0  0  0  0  0  0  0  0  0
   -0.8042   -7.6978   -0.2252 C   0  0  0  0  0  0  0  0  0  0  0  0
   -1.3064   -9.1087    0.1427 C   0  0  0  0  0  0  0  0  0  0  0  0
   -0.7585   -9.4382    1.5774 C   0  0  0  0  0  0  0  0  0  0  0  0
   -2.8466   -9.1090    0.3456 C   0  0  0  0  0  0  0  0  0  0  0  0
   -0.8491  -10.1772   -0.8760 C   0  0  0  0  0  0  0  0  0  0  0  0
   -1.6860  -10.5808   -1.9416 C   0  0  0  0  0  0  0  0  0  0  0  0
   -1.2801  -11.5666   -2.8531 C   0  0  0  0  0  0  0  0  0  0  0  0
   -0.0317  -12.1477   -2.7378 C   0  0  0  0  0  0  0  0  0  0  0  0
    0.3471  -13.0934   -3.6040 F   0  0  0  0  0  0  0  0  0  0  0  0
    0.8265  -11.7673   -1.7177 C   0  0  0  0  0  0  0  0  0  0  0  0
    0.4232  -10.7944   -0.7987 C   0  0  0  0  0  0  0  0  0  0  0  0
    0.5359   -7.4021    0.0141 C   0  0  0  0  0  0  0  0  0  0  0  0
    0.9410   -6.0881    0.1026 C   0  0  0  0  0  0  0  0  0  0  0  0
    2.2550   -5.9006    0.4509 O   0  0  0  0  0  0  0  0  0  0  0  0
    2.9130   -4.8215   -0.2615 C   0  0  0  0  0  0  0  0  0  0  0  0
    3.9651   -4.3085    0.7287 C   0  0  0  0  0  0  0  0  0  0  0  0
    3.6082   -5.4929   -1.4568 C   0  0  0  0  0  0  0  0  0  0  0  0
    0.3566   -0.6748    2.6259 H   0  0  0  0  0  0  0  0  0  0  0  0
    0.2042    0.5387    1.3290 H   0  0  0  0  0  0  0  0  0  0  0  0
    1.7714    0.2237    2.0829 H   0  0  0  0  0  0  0  0  0  0  0  0
    3.1186   -0.6929    0.3353 H   0  0  0  0  0  0  0  0  0  0  0  0
    1.9693   -1.9022   -1.8967 H   0  0  0  0  0  0  0  0  0  0  0  0
    3.5543   -2.3822   -1.3502 H   0  0  0  0  0  0  0  0  0  0  0  0
    1.5429   -4.0412   -1.7349 H   0  0  0  0  0  0  0  0  0  0  0  0
    1.1103   -3.8326    1.2510 H   0  0  0  0  0  0  0  0  0  0  0  0
   -0.7156   -2.3756    1.1541 H   0  0  0  0  0  0  0  0  0  0  0  0
   -0.4910   -2.0285   -0.5636 H   0  0  0  0  0  0  0  0  0  0  0  0
   -1.4027   -3.8455   -1.7774 H   0  0  0  0  0  0  0  0  0  0  0  0
   -2.6306   -6.8151   -1.0263 H   0  0  0  0  0  0  0  0  0  0  0  0
   -1.0445  -10.4450    1.8967 H   0  0  0  0  0  0  0  0  0  0  0  0
   -1.1443   -8.7217    2.3156 H   0  0  0  0  0  0  0  0  0  0  0  0
    0.3331   -9.3867    1.6649 H   0  0  0  0  0  0  0  0  0  0  0  0
   -3.1995  -10.0968    0.6662 H   0  0  0  0  0  0  0  0  0  0  0  0
   -3.1393   -8.3892    1.1205 H   0  0  0  0  0  0  0  0  0  0  0  0
   -3.4016   -8.8409   -0.5562 H   0  0  0  0  0  0  0  0  0  0  0  0
   -2.6717  -10.1511   -2.0760 H   0  0  0  0  0  0  0  0  0  0  0  0
   -1.9496  -11.8749   -3.6612 H   0  0  0  0  0  0  0  0  0  0  0  0
    1.8004  -12.2389   -1.6293 H   0  0  0  0  0  0  0  0  0  0  0  0
    1.1245  -10.5238   -0.0166 H   0  0  0  0  0  0  0  0  0  0  0  0
    1.2727   -8.1731    0.2106 H   0  0  0  0  0  0  0  0  0  0  0  0
    3.4905   -3.8925    1.6247 H   0  0  0  0  0  0  0  0  0  0  0  0
    4.6215   -3.5510    0.2923 H   0  0  0  0  0  0  0  0  0  0  0  0
    4.5961   -5.1339    1.0795 H   0  0  0  0  0  0  0  0  0  0  0  0
    4.2159   -6.3427   -1.1191 H   0  0  0  0  0  0  0  0  0  0  0  0
    4.2369   -4.7977   -2.0093 H   0  0  0  0  0  0  0  0  0  0  0  0
    2.8648   -5.9189   -2.1436 H   0  0  0  0  0  0  0  0  0  0  0  0
  1  2  1  0  0  0  0
  1 29  1  0  0  0  0
  1 30  1  0  0  0  0
  1 31  1  0  0  0  0
  2  7  1  0  0  0  0
  2  3  2  0  0  0  0
  3  4  1  0  0  0  0
  3 32  1  0  0  0  0
  4 33  1  0  0  0  0
  4 34  1  0  0  0  0
  5  4  1  0  0  0  0
  5  6  1  0  0  0  0
  5 26  1  0  0  0  0
  5 35  1  6  0  0  0
  6  7  1  0  0  0  0
  6  8  1  0  0  0  0
  6 36  1  1  0  0  0
  7 37  1  0  0  0  0
  7 38  1  0  0  0  0
  8 24  2  0  0  0  0
  8  9  1  0  0  0  0
  9 10  1  0  0  0  0
  9 11  2  0  0  0  0
 10 39  1  0  0  0  0
 11 12  1  0  0  0  0
 11 40  1  0  0  0  0
 12 13  1  0  0  0  0
 12 23  2  0  0  0  0
 13 14  1  0  0  0  0
 13 15  1  0  0  0  0
 13 16  1  0  0  0  0
 14 41  1  0  0  0  0
 14 42  1  0  0  0  0
 14 43  1  0  0  0  0
 15 44  1  0  0  0  0
 15 45  1  0  0  0  0
 15 46  1  0  0  0  0
 16 22  2  0  0  0  0
 16 17  1  0  0  0  0
 17 18  2  0  0  0  0
 17 47  1  0  0  0  0
 18 19  1  0  0  0  0
 18 48  1  0  0  0  0
 19 20  1  0  0  0  0
 19 21  2  0  0  0  0
 21 22  1  0  0  0  0
 21 49  1  0  0  0  0
 22 50  1  0  0  0  0
 23 24  1  0  0  0  0
 23 51  1  0  0  0  0
 24 25  1  0  0  0  0
 25 26  1  0  0  0  0
 26 27  1  0  0  0  0
 26 28  1  0  0  0  0
 27 52  1  0  0  0  0
 27 53  1  0  0  0  0
 27 54  1  0  0  0  0
 28 55  1  0  0  0  0
 28 56  1  0  0  0  0
 28 57  1  0  0  0  0
M  END
$$$$
CHEMBL471295	5XRA	best_smi
 OpenBabel12022417403D

 60 63  0  0  1  0  0  0  0  0999 V2000
    2.9481    4.0708   -3.3342 C   0  0  0  0  0  0  0  0  0  0  0  0
    2.7813    3.3209   -2.0476 C   0  0  0  0  0  0  0  0  0  0  0  0
    1.9972    2.2308   -1.9762 C   0  0  0  0  0  0  0  0  0  0  0  0
    1.8275    1.5185   -0.6676 C   0  0  0  0  0  0  0  0  0  0  0  0
    1.6139    2.5960    0.3877 C   0  0  2  0  0  0  0  0  0  0  0  0
    2.8155    3.5828    0.5503 C   0  0  1  0  0  0  0  0  0  0  0  0
    3.5517    3.7656   -0.8170 C   0  0  0  0  0  0  0  0  0  0  0  0
    2.1200    4.7805    1.2024 C   0  0  0  0  0  0  0  0  0  0  0  0
    2.0888    6.0680    0.6882 C   0  0  0  0  0  0  0  0  0  0  0  0
    3.1367    6.6420    0.0396 O   0  0  0  0  0  0  0  0  0  0  0  0
    0.9062    6.7989    0.7496 C   0  0  0  0  0  0  0  0  0  0  0  0
   -0.1998    6.2943    1.4523 C   0  0  0  0  0  0  0  0  0  0  0  0
   -1.6540    6.6155    1.0639 C   0  0  0  0  0  0  0  0  0  0  0  0
   -2.3738    5.2584    0.7721 C   0  0  0  0  0  0  0  0  0  0  0  0
   -1.7532    7.3774   -0.2969 C   0  0  0  0  0  0  0  0  0  0  0  0
   -2.3876    7.4782    2.0969 C   0  0  0  0  0  0  0  0  0  0  0  0
   -3.5884    7.0800    2.7209 C   0  0  0  0  0  0  0  0  0  0  0  0
   -4.3925    8.0176    3.3468 C   0  0  0  0  0  0  0  0  0  0  0  0
   -4.0528    9.3677    3.3311 C   0  0  0  0  0  0  0  0  0  0  0  0
   -2.8544    9.7765    2.7549 C   0  0  0  0  0  0  0  0  0  0  0  0
   -2.5676   11.2257    2.4725 C   0  0  0  0  0  0  0  0  0  0  0  0
   -1.9815    8.8132    2.2365 C   0  0  0  0  0  0  0  0  0  0  0  0
    0.0347    5.2681    2.3678 C   0  0  0  0  0  0  0  0  0  0  0  0
    1.1393    4.4588    2.1598 C   0  0  0  0  0  0  0  0  0  0  0  0
    1.0713    3.2145    2.7317 O   0  0  0  0  0  0  0  0  0  0  0  0
    1.0726    2.1347    1.7636 C   0  0  0  0  0  0  0  0  0  0  0  0
   -0.3851    1.6502    1.6145 C   0  0  0  0  0  0  0  0  0  0  0  0
    1.9072    1.0285    2.4162 C   0  0  0  0  0  0  0  0  0  0  0  0
    3.3194    3.4010   -4.1175 H   0  0  0  0  0  0  0  0  0  0  0  0
    3.6611    4.8946   -3.2383 H   0  0  0  0  0  0  0  0  0  0  0  0
    1.9918    4.4934   -3.6620 H   0  0  0  0  0  0  0  0  0  0  0  0
    1.4218    1.8919   -2.8335 H   0  0  0  0  0  0  0  0  0  0  0  0
    2.7080    0.9021   -0.4634 H   0  0  0  0  0  0  0  0  0  0  0  0
    0.9553    0.8596   -0.7279 H   0  0  0  0  0  0  0  0  0  0  0  0
    0.7954    3.2078   -0.0412 H   0  0  0  0  0  0  0  0  0  0  0  0
    3.5474    3.1961    1.2713 H   0  0  0  0  0  0  0  0  0  0  0  0
    4.4486    3.1285   -0.7909 H   0  0  0  0  0  0  0  0  0  0  0  0
    3.9475    4.7700   -0.9562 H   0  0  0  0  0  0  0  0  0  0  0  0
    3.9406    6.3392    0.4986 H   0  0  0  0  0  0  0  0  0  0  0  0
    0.8394    7.7030    0.1524 H   0  0  0  0  0  0  0  0  0  0  0  0
   -3.3988    5.4135    0.4168 H   0  0  0  0  0  0  0  0  0  0  0  0
   -1.8428    4.6919   -0.0046 H   0  0  0  0  0  0  0  0  0  0  0  0
   -2.4382    4.6062    1.6507 H   0  0  0  0  0  0  0  0  0  0  0  0
   -1.2127    8.3300   -0.2980 H   0  0  0  0  0  0  0  0  0  0  0  0
   -2.7987    7.6151   -0.5311 H   0  0  0  0  0  0  0  0  0  0  0  0
   -1.3509    6.7803   -1.1227 H   0  0  0  0  0  0  0  0  0  0  0  0
   -3.9395    6.0599    2.6590 H   0  0  0  0  0  0  0  0  0  0  0  0
   -5.3445    7.7085    3.7799 H   0  0  0  0  0  0  0  0  0  0  0  0
   -4.7500   10.1056    3.7183 H   0  0  0  0  0  0  0  0  0  0  0  0
   -1.4894   11.4096    2.4062 H   0  0  0  0  0  0  0  0  0  0  0  0
   -3.0120   11.4623    1.4934 H   0  0  0  0  0  0  0  0  0  0  0  0
   -2.9954   11.8760    3.2315 H   0  0  0  0  0  0  0  0  0  0  0  0
   -1.0331    9.1333    1.8053 H   0  0  0  0  0  0  0  0  0  0  0  0
   -0.7470    4.9210    3.0382 H   0  0  0  0  0  0  0  0  0  0  0  0
   -0.8979    2.1547    0.7832 H   0  0  0  0  0  0  0  0  0  0  0  0
   -0.4360    0.5749    1.4019 H   0  0  0  0  0  0  0  0  0  0  0  0
   -0.9800    1.8621    2.5072 H   0  0  0  0  0  0  0  0  0  0  0  0
    1.3439    0.5606    3.2338 H   0  0  0  0  0  0  0  0  0  0  0  0
    2.8180    1.4334    2.8698 H   0  0  0  0  0  0  0  0  0  0  0  0
    2.1811    0.2381    1.7136 H   0  0  0  0  0  0  0  0  0  0  0  0
  1  2  1  0  0  0  0
  1 29  1  0  0  0  0
  1 30  1  0  0  0  0
  1 31  1  0  0  0  0
  2  7  1  0  0  0  0
  2  3  2  0  0  0  0
  3  4  1  0  0  0  0
  3 32  1  0  0  0  0
  4 33  1  0  0  0  0
  4 34  1  0  0  0  0
  5  4  1  0  0  0  0
  5  6  1  0  0  0  0
  5 26  1  0  0  0  0
  5 35  1  6  0  0  0
  6  7  1  0  0  0  0
  6  8  1  0  0  0  0
  6 36  1  1  0  0  0
  7 37  1  0  0  0  0
  7 38  1  0  0  0  0
  8 24  2  0  0  0  0
  8  9  1  0  0  0  0
  9 10  1  0  0  0  0
  9 11  2  0  0  0  0
 10 39  1  0  0  0  0
 11 12  1  0  0  0  0
 11 40  1  0  0  0  0
 12 13  1  0  0  0  0
 12 23  2  0  0  0  0
 13 14  1  0  0  0  0
 13 15  1  0  0  0  0
 13 16  1  0  0  0  0
 14 41  1  0  0  0  0
 14 42  1  0  0  0  0
 14 43  1  0  0  0  0
 15 44  1  0  0  0  0
 15 45  1  0  0  0  0
 15 46  1  0  0  0  0
 16 22  2  0  0  0  0
 16 17  1  0  0  0  0
 17 18  2  0  0  0  0
 17 47  1  0  0  0  0
 18 19  1  0  0  0  0
 18 48  1  0  0  0  0
 19 20  2  0  0  0  0
 19 49  1  0  0  0  0
 20 21  1  0  0  0  0
 20 22  1  0  0  0  0
 21 50  1  0  0  0  0
 21 51  1  0  0  0  0
 21 52  1  0  0  0  0
 22 53  1  0  0  0  0
 23 24  1  0  0  0  0
 23 54  1  0  0  0  0
 24 25  1  0  0  0  0
 25 26  1  0  0  0  0
 26 27  1  0  0  0  0
 26 28  1  0  0  0  0
 27 55  1  0  0  0  0
 27 56  1  0  0  0  0
 27 57  1  0  0  0  0
 28 58  1  0  0  0  0
 28 59  1  0  0  0  0
 28 60  1  0  0  0  0
M  END
$$$$
CHEMBL471297	5XRA	best_smi
 OpenBabel12022417403D

 63 66  0  0  1  0  0  0  0  0999 V2000
    4.3581   -3.5931   -4.1187 C   0  0  0  0  0  0  0  0  0  0  0  0
    3.3071   -3.4737   -3.0353 C   0  0  0  0  0  0  0  0  0  0  0  0
    2.9890   -4.8422   -2.5008 C   0  0  0  0  0  0  0  0  0  0  0  0
    1.9864   -5.6202   -3.0845 C   0  0  0  0  0  0  0  0  0  0  0  0
    1.5791   -6.8114   -2.4826 C   0  0  0  0  0  0  0  0  0  0  0  0
    2.1468   -7.2131   -1.2597 C   0  0  0  0  0  0  0  0  0  0  0  0
    1.2246   -7.8329   -0.1444 C   0  0  0  0  0  0  0  0  0  0  0  0
    2.0090   -8.7301    0.8375 C   0  0  0  0  0  0  0  0  0  0  0  0
    0.1207   -8.7646   -0.7327 C   0  0  0  0  0  0  0  0  0  0  0  0
    0.6155   -6.5603    0.5431 C   0  0  0  0  0  0  0  0  0  0  0  0
    1.4216   -5.7097    1.3323 C   0  0  0  0  0  0  0  0  0  0  0  0
    1.2076   -4.3235    1.2976 C   0  0  0  0  0  0  0  0  0  0  0  0
    2.2280   -3.5445    1.7651 O   0  0  0  0  0  0  0  0  0  0  0  0
    0.1331   -3.7481    0.6127 C   0  0  0  0  0  0  0  0  0  0  0  0
   -0.6749   -4.6154   -0.1229 C   0  0  0  0  0  0  0  0  0  0  0  0
   -0.5158   -5.9899   -0.0641 C   0  0  0  0  0  0  0  0  0  0  0  0
   -1.5774   -4.2403   -1.0725 O   0  0  0  0  0  0  0  0  0  0  0  0
   -1.8057   -2.8391   -1.2767 C   0  0  0  0  0  0  0  0  0  0  0  0
   -0.8420   -2.3255   -2.3760 C   0  0  0  0  0  0  0  0  0  0  0  0
   -3.2606   -2.8350   -1.7835 C   0  0  0  0  0  0  0  0  0  0  0  0
   -1.6377   -2.0971    0.0705 C   0  0  2  0  0  0  0  0  0  0  0  0
   -2.0983   -0.6345    0.0183 C   0  0  0  0  0  0  0  0  0  0  0  0
   -1.5809    0.2037    1.1394 C   0  0  0  0  0  0  0  0  0  0  0  0
   -0.6729   -0.2129    2.0340 C   0  0  0  0  0  0  0  0  0  0  0  0
   -0.2793    0.6678    3.1812 C   0  0  0  0  0  0  0  0  0  0  0  0
   -0.0305   -1.5760    1.9581 C   0  0  0  0  0  0  0  0  0  0  0  0
   -0.1818   -2.2638    0.5824 C   0  0  1  0  0  0  0  0  0  0  0  0
    3.3357   -6.5744   -0.8521 C   0  0  0  0  0  0  0  0  0  0  0  0
    3.7156   -5.3659   -1.4323 C   0  0  0  0  0  0  0  0  0  0  0  0
    5.2833   -4.0131   -3.7077 H   0  0  0  0  0  0  0  0  0  0  0  0
    4.0170   -4.2611   -4.9161 H   0  0  0  0  0  0  0  0  0  0  0  0
    4.5829   -2.6158   -4.5510 H   0  0  0  0  0  0  0  0  0  0  0  0
    3.6579   -2.8235   -2.2242 H   0  0  0  0  0  0  0  0  0  0  0  0
    2.3981   -3.0015   -3.4280 H   0  0  0  0  0  0  0  0  0  0  0  0
    1.4519   -5.2608   -3.9608 H   0  0  0  0  0  0  0  0  0  0  0  0
    0.7084   -7.3069   -2.9001 H   0  0  0  0  0  0  0  0  0  0  0  0
    2.8323   -8.2238    1.3454 H   0  0  0  0  0  0  0  0  0  0  0  0
    1.3478   -9.1180    1.6211 H   0  0  0  0  0  0  0  0  0  0  0  0
    2.4430   -9.5896    0.3093 H   0  0  0  0  0  0  0  0  0  0  0  0
   -0.5657   -9.0963    0.0565 H   0  0  0  0  0  0  0  0  0  0  0  0
    0.5546   -9.6532   -1.2047 H   0  0  0  0  0  0  0  0  0  0  0  0
   -0.5033   -8.2989   -1.5016 H   0  0  0  0  0  0  0  0  0  0  0  0
    2.3336   -6.0826    1.7958 H   0  0  0  0  0  0  0  0  0  0  0  0
    2.7023   -3.2661    0.9655 H   0  0  0  0  0  0  0  0  0  0  0  0
   -1.1761   -6.5775   -0.6931 H   0  0  0  0  0  0  0  0  0  0  0  0
    0.0768   -2.9193   -2.4239 H   0  0  0  0  0  0  0  0  0  0  0  0
   -1.2879   -2.3768   -3.3752 H   0  0  0  0  0  0  0  0  0  0  0  0
   -0.5520   -1.2808   -2.2269 H   0  0  0  0  0  0  0  0  0  0  0  0
   -3.8368   -1.9663   -1.4595 H   0  0  0  0  0  0  0  0  0  0  0  0
   -3.3087   -2.8661   -2.8774 H   0  0  0  0  0  0  0  0  0  0  0  0
   -3.7934   -3.7317   -1.4426 H   0  0  0  0  0  0  0  0  0  0  0  0
   -2.2892   -2.6044    0.8028 H   0  0  0  0  0  0  0  0  0  0  0  0
   -1.8358   -0.1536   -0.9288 H   0  0  0  0  0  0  0  0  0  0  0  0
   -3.1895   -0.6156    0.0847 H   0  0  0  0  0  0  0  0  0  0  0  0
   -2.0093    1.1995    1.2249 H   0  0  0  0  0  0  0  0  0  0  0  0
   -1.1700    1.0626    3.6816 H   0  0  0  0  0  0  0  0  0  0  0  0
    0.2969    0.1144    3.9287 H   0  0  0  0  0  0  0  0  0  0  0  0
    0.3316    1.5052    2.8291 H   0  0  0  0  0  0  0  0  0  0  0  0
   -0.4640   -2.2035    2.7477 H   0  0  0  0  0  0  0  0  0  0  0  0
    1.0356   -1.4625    2.1878 H   0  0  0  0  0  0  0  0  0  0  0  0
    0.5200   -1.7866   -0.1157 H   0  0  0  0  0  0  0  0  0  0  0  0
    3.8524   -6.8709    0.0559 H   0  0  0  0  0  0  0  0  0  0  0  0
    4.5259   -4.7963   -0.9840 H   0  0  0  0  0  0  0  0  0  0  0  0
  1  2  1  0  0  0  0
  1 30  1  0  0  0  0
  1 31  1  0  0  0  0
  1 32  1  0  0  0  0
  2  3  1  0  0  0  0
  2 33  1  0  0  0  0
  2 34  1  0  0  0  0
  3 29  2  0  0  0  0
  3  4  1  0  0  0  0
  4  5  2  0  0  0  0
  4 35  1  0  0  0  0
  5  6  1  0  0  0  0
  5 36  1  0  0  0  0
  6  7  1  0  0  0  0
  6 28  2  0  0  0  0
  7  8  1  0  0  0  0
  7  9  1  0  0  0  0
  7 10  1  0  0  0  0
  8 37  1  0  0  0  0
  8 38  1  0  0  0  0
  8 39  1  0  0  0  0
  9 40  1  0  0  0  0
  9 41  1  0  0  0  0
  9 42  1  0  0  0  0
 10 16  2  0  0  0  0
 10 11  1  0  0  0  0
 11 12  2  0  0  0  0
 11 43  1  0  0  0  0
 12 13  1  0  0  0  0
 12 14  1  0  0  0  0
 13 44  1  0  0  0  0
 14 27  1  0  0  0  0
 14 15  2  0  0  0  0
 15 16  1  0  0  0  0
 15 17  1  0  0  0  0
 16 45  1  0  0  0  0
 17 18  1  0  0  0  0
 18 19  1  0  0  0  0
 18 20  1  0  0  0  0
 18 21  1  0  0  0  0
 19 46  1  0  0  0  0
 19 47  1  0  0  0  0
 19 48  1  0  0  0  0
 20 49  1  0  0  0  0
 20 50  1  0  0  0  0
 20 51  1  0  0  0  0
 21 22  1  0  0  0  0
 21 27  1  0  0  0  0
 21 52  1  1  0  0  0
 22 23  1  0  0  0  0
 22 53  1  0  0  0  0
 22 54  1  0  0  0  0
 23 24  2  0  0  0  0
 23 55  1  0  0  0  0
 24 25  1  0  0  0  0
 24 26  1  0  0  0  0
 25 56  1  0  0  0  0
 25 57  1  0  0  0  0
 25 58  1  0  0  0  0
 26 59  1  0  0  0  0
 26 60  1  0  0  0  0
 27 26  1  0  0  0  0
 27 61  1  6  0  0  0
 28 29  1  0  0  0  0
 28 62  1  0  0  0  0
 29 63  1  0  0  0  0
M  END
$$$$
CHEMBL471366	5XRA	best_smi
 OpenBabel12022417403D

 58 61  0  0  1  0  0  0  0  0999 V2000
    6.2637   -3.1484   -0.7275 C   0  0  0  0  0  0  0  0  0  0  0  0
    4.8697   -3.7228   -0.7585 C   0  0  0  0  0  0  0  0  0  0  0  0
    4.1701   -3.3348   -1.8604 C   0  0  0  0  0  0  0  0  0  0  0  0
    2.8196   -2.6623   -1.6925 C   0  0  0  0  0  0  0  0  0  0  0  0
    2.6601   -2.4257   -0.1877 C   0  0  2  0  0  0  0  0  0  0  0  0
    2.6255   -3.8696    0.3958 C   0  0  1  0  0  0  0  0  0  0  0  0
    4.1524   -4.1185    0.6006 C   0  0  0  0  0  0  0  0  0  0  0  0
    1.3772   -4.0474    1.2571 C   0  0  0  0  0  0  0  0  0  0  0  0
    0.4608   -5.0830    1.0180 C   0  0  0  0  0  0  0  0  0  0  0  0
    0.9236   -6.2764    0.5030 O   0  0  0  0  0  0  0  0  0  0  0  0
   -0.9361   -4.8648    1.1041 C   0  0  0  0  0  0  0  0  0  0  0  0
   -1.4572   -3.6530    1.6058 C   0  0  0  0  0  0  0  0  0  0  0  0
   -2.9086   -3.1238    1.3229 C   0  0  0  0  0  0  0  0  0  0  0  0
   -2.9222   -1.5541    1.4062 C   0  0  0  0  0  0  0  0  0  0  0  0
   -3.3667   -3.4576   -0.1353 C   0  0  0  0  0  0  0  0  0  0  0  0
   -3.9919   -3.6359    2.2956 C   0  0  0  0  0  0  0  0  0  0  0  0
   -5.2606   -2.9944    2.3335 C   0  0  0  0  0  0  0  0  0  0  0  0
   -6.2586   -3.3981    3.2176 C   0  0  0  0  0  0  0  0  0  0  0  0
   -6.0352   -4.4899    4.0491 C   0  0  0  0  0  0  0  0  0  0  0  0
   -4.8107   -5.1645    4.0029 C   0  0  0  0  0  0  0  0  0  0  0  0
   -4.6231   -6.3598    4.7581 C   0  0  0  0  0  0  0  0  0  0  0  0
   -4.4864   -7.3636    5.3245 N   0  0  0  0  0  0  0  0  0  0  0  0
   -3.7969   -4.7337    3.1424 C   0  0  0  0  0  0  0  0  0  0  0  0
   -0.5314   -2.8242    2.2365 C   0  0  0  0  0  0  0  0  0  0  0  0
    0.8173   -2.9333    1.8768 C   0  0  0  0  0  0  0  0  0  0  0  0
    1.4179   -1.7064    1.7470 O   0  0  0  0  0  0  0  0  0  0  0  0
    1.6367   -1.4317    0.3403 C   0  0  0  0  0  0  0  0  0  0  0  0
    0.3843   -1.3938   -0.5398 C   0  0  0  0  0  0  0  0  0  0  0  0
    2.2243   -0.0094    0.3799 C   0  0  0  0  0  0  0  0  0  0  0  0
    6.8806   -3.5337    0.0816 H   0  0  0  0  0  0  0  0  0  0  0  0
    6.1646   -2.0595   -0.5771 H   0  0  0  0  0  0  0  0  0  0  0  0
    6.7827   -3.2801   -1.6839 H   0  0  0  0  0  0  0  0  0  0  0  0
    4.6760   -3.0796   -2.7887 H   0  0  0  0  0  0  0  0  0  0  0  0
    2.0178   -3.2856   -2.1079 H   0  0  0  0  0  0  0  0  0  0  0  0
    2.8271   -1.7126   -2.2326 H   0  0  0  0  0  0  0  0  0  0  0  0
    3.5881   -1.9447    0.1646 H   0  0  0  0  0  0  0  0  0  0  0  0
    2.4049   -4.5842   -0.4126 H   0  0  0  0  0  0  0  0  0  0  0  0
    4.3701   -5.1635    0.8448 H   0  0  0  0  0  0  0  0  0  0  0  0
    4.5457   -3.4988    1.4182 H   0  0  0  0  0  0  0  0  0  0  0  0
    0.3091   -6.9676    0.8012 H   0  0  0  0  0  0  0  0  0  0  0  0
   -1.6020   -5.6020    0.6594 H   0  0  0  0  0  0  0  0  0  0  0  0
   -2.8222   -1.1958    2.4381 H   0  0  0  0  0  0  0  0  0  0  0  0
   -3.8396   -1.1094    1.0063 H   0  0  0  0  0  0  0  0  0  0  0  0
   -2.1213   -1.1100    0.8165 H   0  0  0  0  0  0  0  0  0  0  0  0
   -4.4217   -3.7548   -0.1833 H   0  0  0  0  0  0  0  0  0  0  0  0
   -3.2667   -2.5868   -0.7972 H   0  0  0  0  0  0  0  0  0  0  0  0
   -2.7993   -4.2592   -0.6129 H   0  0  0  0  0  0  0  0  0  0  0  0
   -5.5017   -2.1774    1.6541 H   0  0  0  0  0  0  0  0  0  0  0  0
   -7.2116   -2.8705    3.2363 H   0  0  0  0  0  0  0  0  0  0  0  0
   -6.8220   -4.8082    4.7274 H   0  0  0  0  0  0  0  0  0  0  0  0
   -2.8431   -5.2528    3.1476 H   0  0  0  0  0  0  0  0  0  0  0  0
   -0.8303   -1.9027    2.7256 H   0  0  0  0  0  0  0  0  0  0  0  0
   -0.0312   -2.3911   -0.7176 H   0  0  0  0  0  0  0  0  0  0  0  0
    0.6057   -0.9607   -1.5201 H   0  0  0  0  0  0  0  0  0  0  0  0
   -0.3848   -0.7804   -0.0765 H   0  0  0  0  0  0  0  0  0  0  0  0
    1.4559    0.7092    0.6873 H   0  0  0  0  0  0  0  0  0  0  0  0
    3.0183    0.0630    1.1351 H   0  0  0  0  0  0  0  0  0  0  0  0
    2.6292    0.2951   -0.5873 H   0  0  0  0  0  0  0  0  0  0  0  0
  1  2  1  0  0  0  0
  1 30  1  0  0  0  0
  1 31  1  0  0  0  0
  1 32  1  0  0  0  0
  2  7  1  0  0  0  0
  2  3  2  0  0  0  0
  3  4  1  0  0  0  0
  3 33  1  0  0  0  0
  4 34  1  0  0  0  0
  4 35  1  0  0  0  0
  5  4  1  0  0  0  0
  5  6  1  0  0  0  0
  5 27  1  0  0  0  0
  5 36  1  1  0  0  0
  6  7  1  0  0  0  0
  6  8  1  0  0  0  0
  6 37  1  6  0  0  0
  7 38  1  0  0  0  0
  7 39  1  0  0  0  0
  8 25  2  0  0  0  0
  8  9  1  0  0  0  0
  9 10  1  0  0  0  0
  9 11  2  0  0  0  0
 10 40  1  0  0  0  0
 11 12  1  0  0  0  0
 11 41  1  0  0  0  0
 12 13  1  0  0  0  0
 12 24  2  0  0  0  0
 13 14  1  0  0  0  0
 13 15  1  0  0  0  0
 13 16  1  0  0  0  0
 14 42  1  0  0  0  0
 14 43  1  0  0  0  0
 14 44  1  0  0  0  0
 15 45  1  0  0  0  0
 15 46  1  0  0  0  0
 15 47  1  0  0  0  0
 16 23  2  0  0  0  0
 16 17  1  0  0  0  0
 17 18  2  0  0  0  0
 17 48  1  0  0  0  0
 18 19  1  0  0  0  0
 18 49  1  0  0  0  0
 19 20  2  0  0  0  0
 19 50  1  0  0  0  0
 20 21  1  0  0  0  0
 20 23  1  0  0  0  0
 21 22  3  0  0  0  0
 23 51  1  0  0  0  0
 24 25  1  0  0  0  0
 24 52  1  0  0  0  0
 25 26  1  0  0  0  0
 26 27  1  0  0  0  0
 27 28  1  0  0  0  0
 27 29  1  0  0  0  0
 28 53  1  0  0  0  0
 28 54  1  0  0  0  0
 28 55  1  0  0  0  0
 29 56  1  0  0  0  0
 29 57  1  0  0  0  0
 29 58  1  0  0  0  0
M  END
$$$$
CHEMBL119592	5XRA	best_smi
 OpenBabel12022417403D

 57 60  0  0  1  0  0  0  0  0999 V2000
    5.2207   -2.6749    1.9118 C   0  0  0  0  0  0  0  0  0  0  0  0
    4.5634   -1.7130    0.9673 C   0  0  0  0  0  0  0  0  0  0  0  0
    4.7224   -2.0461   -0.3213 C   0  0  0  0  0  0  0  0  0  0  0  0
    3.5797   -1.9518   -1.2512 C   0  0  0  0  0  0  0  0  0  0  0  0
    2.2112   -1.9118   -0.5627 C   0  0  2  0  0  0  0  0  0  0  0  0
    2.0991   -1.2540    0.8440 C   0  0  1  0  0  0  0  0  0  0  0  0
    3.4424   -0.7554    1.3851 C   0  0  0  0  0  0  0  0  0  0  0  0
    0.7790   -0.5330    0.6704 C   0  0  0  0  0  0  0  0  0  0  0  0
    0.5122    0.8026    0.8922 C   0  0  0  0  0  0  0  0  0  0  0  0
    1.4019    1.5749    1.5804 O   0  0  0  0  0  0  0  0  0  0  0  0
   -0.6805    1.3957    0.4283 C   0  0  0  0  0  0  0  0  0  0  0  0
   -1.6499    0.6445   -0.2887 C   0  0  0  0  0  0  0  0  0  0  0  0
   -3.0285    1.1794   -0.7440 C   0  0  0  0  0  0  0  0  0  0  0  0
   -4.0997    0.2505   -0.1052 C   0  0  0  0  0  0  0  0  0  0  0  0
   -3.3361    2.5793   -0.1532 C   0  0  0  0  0  0  0  0  0  0  0  0
   -3.2128    1.2864   -2.2868 C   0  0  0  0  0  0  0  0  0  0  0  0
   -2.6630    2.3596   -3.0219 C   0  0  0  0  0  0  0  0  0  0  0  0
   -3.1084    2.6695   -4.3155 C   0  0  0  0  0  0  0  0  0  0  0  0
   -4.0791    1.8867   -4.9307 C   0  0  0  0  0  0  0  0  0  0  0  0
   -4.5438    0.7473   -4.2874 C   0  0  0  0  0  0  0  0  0  0  0  0
   -4.1042    0.4408   -2.9936 C   0  0  0  0  0  0  0  0  0  0  0  0
   -1.3779   -0.7156   -0.4816 C   0  0  0  0  0  0  0  0  0  0  0  0
   -0.2262   -1.3022    0.0274 C   0  0  0  0  0  0  0  0  0  0  0  0
   -0.0912   -2.6445   -0.2788 O   0  0  0  0  0  0  0  0  0  0  0  0
    1.2726   -3.1526   -0.4642 C   0  0  0  0  0  0  0  0  0  0  0  0
    1.2380   -3.9714   -1.7437 C   0  0  0  0  0  0  0  0  0  0  0  0
    1.5285   -4.1104    0.7252 C   0  0  0  0  0  0  0  0  0  0  0  0
    4.8321   -3.6753    1.6968 H   0  0  0  0  0  0  0  0  0  0  0  0
    4.9991   -2.4697    2.9630 H   0  0  0  0  0  0  0  0  0  0  0  0
    6.3063   -2.7174    1.7606 H   0  0  0  0  0  0  0  0  0  0  0  0
    5.5544   -2.6599   -0.6534 H   0  0  0  0  0  0  0  0  0  0  0  0
    3.7075   -1.0536   -1.8704 H   0  0  0  0  0  0  0  0  0  0  0  0
    3.6269   -2.7997   -1.9392 H   0  0  0  0  0  0  0  0  0  0  0  0
    1.7112   -1.2554   -1.2990 H   0  0  0  0  0  0  0  0  0  0  0  0
    1.8473   -1.9825    1.6258 H   0  0  0  0  0  0  0  0  0  0  0  0
    3.4088   -0.6916    2.4804 H   0  0  0  0  0  0  0  0  0  0  0  0
    3.6700    0.2540    1.0309 H   0  0  0  0  0  0  0  0  0  0  0  0
    1.0664    1.6231    2.4958 H   0  0  0  0  0  0  0  0  0  0  0  0
   -0.8310    2.4502    0.6125 H   0  0  0  0  0  0  0  0  0  0  0  0
   -5.1140    0.5737   -0.3557 H   0  0  0  0  0  0  0  0  0  0  0  0
   -4.0044    0.2368    0.9843 H   0  0  0  0  0  0  0  0  0  0  0  0
   -4.0164   -0.7959   -0.4345 H   0  0  0  0  0  0  0  0  0  0  0  0
   -4.3303    2.9191   -0.4611 H   0  0  0  0  0  0  0  0  0  0  0  0
   -3.3187    2.5650    0.9413 H   0  0  0  0  0  0  0  0  0  0  0  0
   -2.6225    3.3465   -0.4754 H   0  0  0  0  0  0  0  0  0  0  0  0
   -1.9227    3.0129   -2.5681 H   0  0  0  0  0  0  0  0  0  0  0  0
   -2.7262    3.5503   -4.8245 H   0  0  0  0  0  0  0  0  0  0  0  0
   -4.4718    2.1615   -5.9063 H   0  0  0  0  0  0  0  0  0  0  0  0
   -5.2885    0.1171   -4.7686 H   0  0  0  0  0  0  0  0  0  0  0  0
   -4.5263   -0.4463   -2.5304 H   0  0  0  0  0  0  0  0  0  0  0  0
   -2.0499   -1.3462   -1.0546 H   0  0  0  0  0  0  0  0  0  0  0  0
    0.9772   -3.3433   -2.6005 H   0  0  0  0  0  0  0  0  0  0  0  0
    2.1943   -4.4670   -1.9314 H   0  0  0  0  0  0  0  0  0  0  0  0
    0.4643   -4.7462   -1.6799 H   0  0  0  0  0  0  0  0  0  0  0  0
    2.5766   -4.1102    1.0427 H   0  0  0  0  0  0  0  0  0  0  0  0
    1.2724   -5.1472    0.4822 H   0  0  0  0  0  0  0  0  0  0  0  0
    0.9119   -3.8624    1.5976 H   0  0  0  0  0  0  0  0  0  0  0  0
  1  2  1  0  0  0  0
  1 28  1  0  0  0  0
  1 29  1  0  0  0  0
  1 30  1  0  0  0  0
  2  7  1  0  0  0  0
  2  3  2  0  0  0  0
  3  4  1  0  0  0  0
  3 31  1  0  0  0  0
  4 32  1  0  0  0  0
  4 33  1  0  0  0  0
  5  4  1  0  0  0  0
  5  6  1  0  0  0  0
  5 25  1  0  0  0  0
  5 34  1  6  0  0  0
  6  7  1  0  0  0  0
  6  8  1  0  0  0  0
  6 35  1  1  0  0  0
  7 36  1  0  0  0  0
  7 37  1  0  0  0  0
  8 23  2  0  0  0  0
  8  9  1  0  0  0  0
  9 10  1  0  0  0  0
  9 11  2  0  0  0  0
 10 38  1  0  0  0  0
 11 12  1  0  0  0  0
 11 39  1  0  0  0  0
 12 13  1  0  0  0  0
 12 22  2  0  0  0  0
 13 14  1  0  0  0  0
 13 15  1  0  0  0  0
 13 16  1  0  0  0  0
 14 40  1  0  0  0  0
 14 41  1  0  0  0  0
 14 42  1  0  0  0  0
 15 43  1  0  0  0  0
 15 44  1  0  0  0  0
 15 45  1  0  0  0  0
 16 21  2  0  0  0  0
 16 17  1  0  0  0  0
 17 18  2  0  0  0  0
 17 46  1  0  0  0  0
 18 19  1  0  0  0  0
 18 47  1  0  0  0  0
 19 20  2  0  0  0  0
 19 48  1  0  0  0  0
 20 21  1  0  0  0  0
 20 49  1  0  0  0  0
 21 50  1  0  0  0  0
 22 23  1  0  0  0  0
 22 51  1  0  0  0  0
 23 24  1  0  0  0  0
 24 25  1  0  0  0  0
 25 26  1  0  0  0  0
 25 27  1  0  0  0  0
 26 52  1  0  0  0  0
 26 53  1  0  0  0  0
 26 54  1  0  0  0  0
 27 55  1  0  0  0  0
 27 56  1  0  0  0  0
 27 57  1  0  0  0  0
M  END
$$$$
CHEMBL267227	5XRA	best_smi
 OpenBabel12022417403D

 53 55  0  0  1  0  0  0  0  0999 V2000
    7.0487    1.5725   -0.7613 C   0  0  0  0  0  0  0  0  0  0  0  0
    5.6252    1.2406   -1.1910 C   0  0  0  0  0  0  0  0  0  0  0  0
    5.1684   -0.0960   -0.6112 C   0  0  0  0  0  0  0  0  0  0  0  0
    3.7473   -0.4774   -1.0435 C   0  0  0  0  0  0  0  0  0  0  0  0
    3.3446   -1.7933   -0.3680 C   0  0  0  0  0  0  0  0  0  0  0  0
    1.9763   -2.3241   -0.7174 C   0  0  0  0  0  0  0  0  0  0  0  0
    1.6540   -2.7656   -2.0033 C   0  0  0  0  0  0  0  0  0  0  0  0
    0.3836   -3.2955   -2.2678 C   0  0  0  0  0  0  0  0  0  0  0  0
    0.2197   -4.0166   -3.4260 O   0  0  0  0  0  0  0  0  0  0  0  0
   -0.6033   -3.3309   -1.2824 C   0  0  0  0  0  0  0  0  0  0  0  0
   -0.1287   -3.2344    0.0032 C   0  0  0  0  0  0  0  0  0  0  0  0
    1.0682   -2.6019    0.3045 C   0  0  0  0  0  0  0  0  0  0  0  0
   -0.7134   -3.9281    1.0482 O   0  0  0  0  0  0  0  0  0  0  0  0
   -1.6693   -4.9589    0.6497 C   0  0  0  0  0  0  0  0  0  0  0  0
   -2.3271   -5.3715    1.9731 C   0  0  0  0  0  0  0  0  0  0  0  0
   -1.0080   -6.1774   -0.0130 C   0  0  0  0  0  0  0  0  0  0  0  0
   -2.6835   -4.2637   -0.2363 C   0  0  2  0  0  0  0  0  0  0  0  0
   -4.0054   -4.9251   -0.6517 C   0  0  0  0  0  0  0  0  0  0  0  0
   -4.9514   -3.7602   -0.8652 C   0  0  0  0  0  0  0  0  0  0  0  0
   -4.4092   -2.5511   -1.1518 C   0  0  0  0  0  0  0  0  0  0  0  0
   -4.8184   -1.4033   -0.2509 C   0  0  0  0  0  0  0  0  0  0  0  0
   -3.0240   -2.4484   -1.8481 C   0  0  0  0  0  0  0  0  0  0  0  0
   -2.0711   -3.6617   -1.5132 C   0  0  1  0  0  0  0  0  0  0  0  0
    7.2694    2.6268   -0.9556 H   0  0  0  0  0  0  0  0  0  0  0  0
    7.7727    0.9682   -1.3179 H   0  0  0  0  0  0  0  0  0  0  0  0
    7.2001    1.3863    0.3072 H   0  0  0  0  0  0  0  0  0  0  0  0
    4.9530    2.0359   -0.8498 H   0  0  0  0  0  0  0  0  0  0  0  0
    5.5756    1.2177   -2.2856 H   0  0  0  0  0  0  0  0  0  0  0  0
    5.2110   -0.0417    0.4847 H   0  0  0  0  0  0  0  0  0  0  0  0
    5.8666   -0.8858   -0.9180 H   0  0  0  0  0  0  0  0  0  0  0  0
    3.7047   -0.5711   -2.1345 H   0  0  0  0  0  0  0  0  0  0  0  0
    3.0435    0.3172   -0.7626 H   0  0  0  0  0  0  0  0  0  0  0  0
    3.4006   -1.6434    0.7192 H   0  0  0  0  0  0  0  0  0  0  0  0
    4.0785   -2.5741   -0.6023 H   0  0  0  0  0  0  0  0  0  0  0  0
    2.4057   -2.7539   -2.7876 H   0  0  0  0  0  0  0  0  0  0  0  0
    0.9722   -4.6453   -3.4370 H   0  0  0  0  0  0  0  0  0  0  0  0
    1.3303   -2.4309    1.3437 H   0  0  0  0  0  0  0  0  0  0  0  0
   -1.5706   -5.7268    2.6812 H   0  0  0  0  0  0  0  0  0  0  0  0
   -2.8038   -4.5059    2.4531 H   0  0  0  0  0  0  0  0  0  0  0  0
   -3.0787   -6.1533    1.8420 H   0  0  0  0  0  0  0  0  0  0  0  0
   -0.1149   -5.9192   -0.5865 H   0  0  0  0  0  0  0  0  0  0  0  0
   -0.6877   -6.9059    0.7374 H   0  0  0  0  0  0  0  0  0  0  0  0
   -1.7069   -6.6886   -0.6843 H   0  0  0  0  0  0  0  0  0  0  0  0
   -2.9366   -3.4146    0.4267 H   0  0  0  0  0  0  0  0  0  0  0  0
   -3.9296   -5.5381   -1.5570 H   0  0  0  0  0  0  0  0  0  0  0  0
   -4.4039   -5.5546    0.1474 H   0  0  0  0  0  0  0  0  0  0  0  0
   -5.8876   -3.8309   -0.3125 H   0  0  0  0  0  0  0  0  0  0  0  0
   -5.4847   -1.7442    0.5555 H   0  0  0  0  0  0  0  0  0  0  0  0
   -5.3020   -0.5855   -0.7811 H   0  0  0  0  0  0  0  0  0  0  0  0
   -3.9296   -1.0215    0.2712 H   0  0  0  0  0  0  0  0  0  0  0  0
   -2.5463   -1.5007   -1.5732 H   0  0  0  0  0  0  0  0  0  0  0  0
   -3.1982   -2.3992   -2.9317 H   0  0  0  0  0  0  0  0  0  0  0  0
   -2.1367   -4.3866   -2.3396 H   0  0  0  0  0  0  0  0  0  0  0  0
  1  2  1  0  0  0  0
  1 24  1  0  0  0  0
  1 25  1  0  0  0  0
  1 26  1  0  0  0  0
  2  3  1  0  0  0  0
  2 27  1  0  0  0  0
  2 28  1  0  0  0  0
  3  4  1  0  0  0  0
  3 29  1  0  0  0  0
  3 30  1  0  0  0  0
  4  5  1  0  0  0  0
  4 31  1  0  0  0  0
  4 32  1  0  0  0  0
  5  6  1  0  0  0  0
  5 33  1  0  0  0  0
  5 34  1  0  0  0  0
  6 12  2  0  0  0  0
  6  7  1  0  0  0  0
  7  8  2  0  0  0  0
  7 35  1  0  0  0  0
  8  9  1  0  0  0  0
  8 10  1  0  0  0  0
  9 36  1  0  0  0  0
 10 23  1  0  0  0  0
 10 11  2  0  0  0  0
 11 12  1  0  0  0  0
 11 13  1  0  0  0  0
 12 37  1  0  0  0  0
 13 14  1  0  0  0  0
 14 15  1  0  0  0  0
 14 16  1  0  0  0  0
 14 17  1  0  0  0  0
 15 38  1  0  0  0  0
 15 39  1  0  0  0  0
 15 40  1  0  0  0  0
 16 41  1  0  0  0  0
 16 42  1  0  0  0  0
 16 43  1  0  0  0  0
 17 18  1  0  0  0  0
 17 23  1  0  0  0  0
 17 44  1  1  0  0  0
 18 19  1  0  0  0  0
 18 45  1  0  0  0  0
 18 46  1  0  0  0  0
 19 20  2  0  0  0  0
 19 47  1  0  0  0  0
 20 21  1  0  0  0  0
 20 22  1  0  0  0  0
 21 48  1  0  0  0  0
 21 49  1  0  0  0  0
 21 50  1  0  0  0  0
 22 51  1  0  0  0  0
 22 52  1  0  0  0  0
 23 22  1  0  0  0  0
 23 53  1  6  0  0  0
M  END
$$$$
CHEMBL337094	5XRA	best_smi
 OpenBabel12022417403D

 61 63  0  0  1  0  0  0  0  0999 V2000
    6.2332    2.0993    1.3402 C   0  0  0  0  0  0  0  0  0  0  0  0
    5.4870    1.9311    0.0411 C   0  0  0  0  0  0  0  0  0  0  0  0
    5.3497    0.6416   -0.3060 C   0  0  0  0  0  0  0  0  0  0  0  0
    3.9865    0.0671   -0.4718 C   0  0  0  0  0  0  0  0  0  0  0  0
    2.8166    1.0002   -0.1231 C   0  0  2  0  0  0  0  0  0  0  0  0
    3.0713    2.5122   -0.1191 C   0  0  1  0  0  0  0  0  0  0  0  0
    4.4800    2.9702   -0.4502 C   0  0  0  0  0  0  0  0  0  0  0  0
    1.7075    2.9457   -0.6374 C   0  0  0  0  0  0  0  0  0  0  0  0
    1.2502    2.9549   -1.9501 C   0  0  0  0  0  0  0  0  0  0  0  0
    2.1503    2.7317   -2.9584 O   0  0  0  0  0  0  0  0  0  0  0  0
   -0.1374    2.8379   -2.2480 C   0  0  0  0  0  0  0  0  0  0  0  0
   -1.1039    2.7375   -1.2177 C   0  0  0  0  0  0  0  0  0  0  0  0
   -2.5630    2.2648   -1.4194 C   0  0  0  0  0  0  0  0  0  0  0  0
   -2.8472    1.7419   -2.8432 C   0  0  0  0  0  0  0  0  0  0  0  0
   -2.8309    1.0354   -0.4850 C   0  0  0  0  0  0  0  0  0  0  0  0
   -3.5970    3.3541   -1.0160 C   0  0  0  0  0  0  0  0  0  0  0  0
   -3.5861    4.6319   -1.8591 C   0  0  0  0  0  0  0  0  0  0  0  0
   -4.6840    5.6001   -1.3904 C   0  0  0  0  0  0  0  0  0  0  0  0
   -4.7552    6.9146   -2.1607 C   0  0  3  0  0  0  0  0  0  0  0  0
   -3.4977    7.5973   -2.0614 O   0  0  0  0  0  0  0  0  0  0  0  0
   -5.1420    6.7080   -3.5686 C   0  0  0  0  0  0  0  0  0  0  0  0
   -5.4819    6.5259   -4.6635 N   0  0  0  0  0  0  0  0  0  0  0  0
   -0.6437    2.8418    0.0936 C   0  0  0  0  0  0  0  0  0  0  0  0
    0.7142    2.7137    0.3275 C   0  0  0  0  0  0  0  0  0  0  0  0
    1.0204    1.9299    1.4351 O   0  0  0  0  0  0  0  0  0  0  0  0
    1.9140    0.7760    1.1405 C   0  0  0  0  0  0  0  0  0  0  0  0
    2.7147    0.6253    2.4375 C   0  0  0  0  0  0  0  0  0  0  0  0
    1.0348   -0.4593    0.9166 C   0  0  0  0  0  0  0  0  0  0  0  0
    5.5950    1.7085    2.1474 H   0  0  0  0  0  0  0  0  0  0  0  0
    6.4747    3.1333    1.5858 H   0  0  0  0  0  0  0  0  0  0  0  0
    7.1530    1.4997    1.3631 H   0  0  0  0  0  0  0  0  0  0  0  0
    6.1148   -0.0882   -0.0440 H   0  0  0  0  0  0  0  0  0  0  0  0
    3.8900   -0.2770   -1.5105 H   0  0  0  0  0  0  0  0  0  0  0  0
    3.9296   -0.8274    0.1537 H   0  0  0  0  0  0  0  0  0  0  0  0
    2.1589    0.7561   -0.9729 H   0  0  0  0  0  0  0  0  0  0  0  0
    3.0545    2.8824    0.9199 H   0  0  0  0  0  0  0  0  0  0  0  0
    4.6838    3.9249    0.0626 H   0  0  0  0  0  0  0  0  0  0  0  0
    4.6230    3.1773   -1.5158 H   0  0  0  0  0  0  0  0  0  0  0  0
    1.8217    1.9591   -3.4559 H   0  0  0  0  0  0  0  0  0  0  0  0
   -0.4312    2.7158   -3.2853 H   0  0  0  0  0  0  0  0  0  0  0  0
   -3.8580    1.3217   -2.9100 H   0  0  0  0  0  0  0  0  0  0  0  0
   -2.1496    0.9389   -3.1137 H   0  0  0  0  0  0  0  0  0  0  0  0
   -2.7617    2.5222   -3.6035 H   0  0  0  0  0  0  0  0  0  0  0  0
   -2.6695    1.2534    0.5763 H   0  0  0  0  0  0  0  0  0  0  0  0
   -3.8708    0.6984   -0.5613 H   0  0  0  0  0  0  0  0  0  0  0  0
   -2.1815    0.1905   -0.7432 H   0  0  0  0  0  0  0  0  0  0  0  0
   -4.6046    2.9179   -1.0774 H   0  0  0  0  0  0  0  0  0  0  0  0
   -3.4566    3.6268    0.0392 H   0  0  0  0  0  0  0  0  0  0  0  0
   -2.6083    5.1232   -1.7775 H   0  0  0  0  0  0  0  0  0  0  0  0
   -3.7504    4.3896   -2.9103 H   0  0  0  0  0  0  0  0  0  0  0  0
   -5.6696    5.0939   -1.4580 H   0  0  0  0  0  0  0  0  0  0  0  0
   -4.5141    5.8216   -0.3259 H   0  0  0  0  0  0  0  0  0  0  0  0
   -5.4992    7.5621   -1.6840 H   0  0  0  0  0  0  0  0  0  0  0  0
   -3.2719    7.6608   -1.1166 H   0  0  0  0  0  0  0  0  0  0  0  0
   -1.3104    2.7460    0.9437 H   0  0  0  0  0  0  0  0  0  0  0  0
    3.2589    1.5460    2.6743 H   0  0  0  0  0  0  0  0  0  0  0  0
    3.4236   -0.2038    2.4019 H   0  0  0  0  0  0  0  0  0  0  0  0
    2.0331    0.4673    3.2817 H   0  0  0  0  0  0  0  0  0  0  0  0
    1.6315   -1.3770    0.9268 H   0  0  0  0  0  0  0  0  0  0  0  0
    0.5218   -0.4045   -0.0508 H   0  0  0  0  0  0  0  0  0  0  0  0
    0.2504   -0.5308    1.6760 H   0  0  0  0  0  0  0  0  0  0  0  0
  1  2  1  0  0  0  0
  1 29  1  0  0  0  0
  1 30  1  0  0  0  0
  1 31  1  0  0  0  0
  2  7  1  0  0  0  0
  2  3  2  0  0  0  0
  3  4  1  0  0  0  0
  3 32  1  0  0  0  0
  4 33  1  0  0  0  0
  4 34  1  0  0  0  0
  5  4  1  0  0  0  0
  5  6  1  0  0  0  0
  5 26  1  0  0  0  0
  5 35  1  6  0  0  0
  6  7  1  0  0  0  0
  6  8  1  0  0  0  0
  6 36  1  1  0  0  0
  7 37  1  0  0  0  0
  7 38  1  0  0  0  0
  8 24  2  0  0  0  0
  8  9  1  0  0  0  0
  9 10  1  0  0  0  0
  9 11  2  0  0  0  0
 10 39  1  0  0  0  0
 11 12  1  0  0  0  0
 11 40  1  0  0  0  0
 12 13  1  0  0  0  0
 12 23  2  0  0  0  0
 13 14  1  0  0  0  0
 13 15  1  0  0  0  0
 13 16  1  0  0  0  0
 14 41  1  0  0  0  0
 14 42  1  0  0  0  0
 14 43  1  0  0  0  0
 15 44  1  0  0  0  0
 15 45  1  0  0  0  0
 15 46  1  0  0  0  0
 16 17  1  0  0  0  0
 16 47  1  0  0  0  0
 16 48  1  0  0  0  0
 17 18  1  0  0  0  0
 17 49  1  0  0  0  0
 17 50  1  0  0  0  0
 18 19  1  0  0  0  0
 18 51  1  0  0  0  0
 18 52  1  0  0  0  0
 19 20  1  0  0  0  0
 19 21  1  0  0  0  0
 19 53  1  0  0  0  0
 20 54  1  0  0  0  0
 21 22  3  0  0  0  0
 23 24  1  0  0  0  0
 23 55  1  0  0  0  0
 24 25  1  0  0  0  0
 25 26  1  0  0  0  0
 26 27  1  0  0  0  0
 26 28  1  0  0  0  0
 27 56  1  0  0  0  0
 27 57  1  0  0  0  0
 27 58  1  0  0  0  0
 28 59  1  0  0  0  0
 28 60  1  0  0  0  0
 28 61  1  0  0  0  0
M  END
$$$$
CHEMBL471988	5XRA	best_smi
 OpenBabel12022417413D

 57 60  0  0  1  0  0  0  0  0999 V2000
    3.5707   -2.4919   -3.7219 C   0  0  0  0  0  0  0  0  0  0  0  0
    3.6423   -1.6365   -2.4914 C   0  0  0  0  0  0  0  0  0  0  0  0
    4.4863   -1.9295   -1.4878 C   0  0  0  0  0  0  0  0  0  0  0  0
    4.5125   -1.0928   -0.2496 C   0  0  0  0  0  0  0  0  0  0  0  0
    3.0640   -0.7819    0.1091 C   0  0  2  0  0  0  0  0  0  0  0  0
    2.4156    0.1205   -0.9776 C   0  0  1  0  0  0  0  0  0  0  0  0
    2.7029   -0.4497   -2.4089 C   0  0  0  0  0  0  0  0  0  0  0  0
    0.9502    0.2517   -0.6079 C   0  0  0  0  0  0  0  0  0  0  0  0
   -0.0902    0.5552   -1.4911 C   0  0  0  0  0  0  0  0  0  0  0  0
    0.1380    1.0186   -2.7568 O   0  0  0  0  0  0  0  0  0  0  0  0
   -1.4358    0.4867   -1.1068 C   0  0  0  0  0  0  0  0  0  0  0  0
   -1.7977    0.1585    0.2069 C   0  0  0  0  0  0  0  0  0  0  0  0
   -3.2476    0.2981    0.7336 C   0  0  0  0  0  0  0  0  0  0  0  0
   -3.5469   -0.6779    1.9058 C   0  0  0  0  0  0  0  0  0  0  0  0
   -4.2569   -0.1137   -0.3730 C   0  0  0  0  0  0  0  0  0  0  0  0
   -3.4118    1.7648    1.2215 C   0  0  0  0  0  0  0  0  0  0  0  0
   -2.5601    2.2854    2.2195 C   0  0  0  0  0  0  0  0  0  0  0  0
   -2.5054    3.6438    2.5188 C   0  0  0  0  0  0  0  0  0  0  0  0
   -3.3544    4.5170    1.8532 C   0  0  0  0  0  0  0  0  0  0  0  0
   -3.2554    6.2063    2.1593 Cl  0  0  0  0  0  0  0  0  0  0  0  0
   -4.2695    4.0317    0.9253 C   0  0  0  0  0  0  0  0  0  0  0  0
   -4.3006    2.6678    0.6070 C   0  0  0  0  0  0  0  0  0  0  0  0
   -0.7483   -0.0807    1.1034 C   0  0  0  0  0  0  0  0  0  0  0  0
    0.5859    0.0369    0.7221 C   0  0  0  0  0  0  0  0  0  0  0  0
    1.4432   -0.0299    1.7796 O   0  0  0  0  0  0  0  0  0  0  0  0
    2.8443   -0.2174    1.5268 C   0  0  0  0  0  0  0  0  0  0  0  0
    3.2590   -1.2529    2.6002 C   0  0  0  0  0  0  0  0  0  0  0  0
    3.5604    1.1114    1.7993 C   0  0  0  0  0  0  0  0  0  0  0  0
    4.3613   -2.2086   -4.4218 H   0  0  0  0  0  0  0  0  0  0  0  0
    2.6069   -2.3854   -4.2306 H   0  0  0  0  0  0  0  0  0  0  0  0
    3.6835   -3.5531   -3.4712 H   0  0  0  0  0  0  0  0  0  0  0  0
    5.1240   -2.8092   -1.5277 H   0  0  0  0  0  0  0  0  0  0  0  0
    5.0960   -0.1846   -0.4386 H   0  0  0  0  0  0  0  0  0  0  0  0
    5.0128   -1.6463    0.5486 H   0  0  0  0  0  0  0  0  0  0  0  0
    2.5102   -1.7345    0.0885 H   0  0  0  0  0  0  0  0  0  0  0  0
    2.8506    1.1278   -0.9329 H   0  0  0  0  0  0  0  0  0  0  0  0
    3.1393    0.3572   -3.0169 H   0  0  0  0  0  0  0  0  0  0  0  0
    1.7703   -0.7357   -2.9041 H   0  0  0  0  0  0  0  0  0  0  0  0
    0.7847    1.7401   -2.6689 H   0  0  0  0  0  0  0  0  0  0  0  0
   -2.1839    0.7518   -1.8476 H   0  0  0  0  0  0  0  0  0  0  0  0
   -4.5935   -0.5995    2.2228 H   0  0  0  0  0  0  0  0  0  0  0  0
   -2.9456   -0.4915    2.8003 H   0  0  0  0  0  0  0  0  0  0  0  0
   -3.3681   -1.7182    1.6035 H   0  0  0  0  0  0  0  0  0  0  0  0
   -4.0546   -1.1296   -0.7346 H   0  0  0  0  0  0  0  0  0  0  0  0
   -5.2881   -0.0971    0.0059 H   0  0  0  0  0  0  0  0  0  0  0  0
   -4.2343    0.5466   -1.2454 H   0  0  0  0  0  0  0  0  0  0  0  0
   -1.8571    1.6399    2.7516 H   0  0  0  0  0  0  0  0  0  0  0  0
   -1.7800    4.0116    3.2374 H   0  0  0  0  0  0  0  0  0  0  0  0
   -4.9450    4.7092    0.4142 H   0  0  0  0  0  0  0  0  0  0  0  0
   -5.0027    2.3413   -0.1515 H   0  0  0  0  0  0  0  0  0  0  0  0
   -0.9366   -0.2977    2.1481 H   0  0  0  0  0  0  0  0  0  0  0  0
    4.1442   -0.9370    3.1594 H   0  0  0  0  0  0  0  0  0  0  0  0
    3.4833   -2.2296    2.1605 H   0  0  0  0  0  0  0  0  0  0  0  0
    2.4520   -1.4234    3.3232 H   0  0  0  0  0  0  0  0  0  0  0  0
    3.5090    1.3728    2.8622 H   0  0  0  0  0  0  0  0  0  0  0  0
    4.6214    1.0705    1.5244 H   0  0  0  0  0  0  0  0  0  0  0  0
    3.0938    1.9469    1.2649 H   0  0  0  0  0  0  0  0  0  0  0  0
  1  2  1  0  0  0  0
  1 29  1  0  0  0  0
  1 30  1  0  0  0  0
  1 31  1  0  0  0  0
  2  7  1  0  0  0  0
  2  3  2  0  0  0  0
  3  4  1  0  0  0  0
  3 32  1  0  0  0  0
  4 33  1  0  0  0  0
  4 34  1  0  0  0  0
  5  4  1  0  0  0  0
  5  6  1  0  0  0  0
  5 26  1  0  0  0  0
  5 35  1  6  0  0  0
  6  7  1  0  0  0  0
  6  8  1  0  0  0  0
  6 36  1  1  0  0  0
  7 37  1  0  0  0  0
  7 38  1  0  0  0  0
  8 24  2  0  0  0  0
  8  9  1  0  0  0  0
  9 10  1  0  0  0  0
  9 11  2  0  0  0  0
 10 39  1  0  0  0  0
 11 12  1  0  0  0  0
 11 40  1  0  0  0  0
 12 13  1  0  0  0  0
 12 23  2  0  0  0  0
 13 14  1  0  0  0  0
 13 15  1  0  0  0  0
 13 16  1  0  0  0  0
 14 41  1  0  0  0  0
 14 42  1  0  0  0  0
 14 43  1  0  0  0  0
 15 44  1  0  0  0  0
 15 45  1  0  0  0  0
 15 46  1  0  0  0  0
 16 22  2  0  0  0  0
 16 17  1  0  0  0  0
 17 18  2  0  0  0  0
 17 47  1  0  0  0  0
 18 19  1  0  0  0  0
 18 48  1  0  0  0  0
 19 20  1  0  0  0  0
 19 21  2  0  0  0  0
 21 22  1  0  0  0  0
 21 49  1  0  0  0  0
 22 50  1  0  0  0  0
 23 24  1  0  0  0  0
 23 51  1  0  0  0  0
 24 25  1  0  0  0  0
 25 26  1  0  0  0  0
 26 27  1  0  0  0  0
 26 28  1  0  0  0  0
 27 52  1  0  0  0  0
 27 53  1  0  0  0  0
 27 54  1  0  0  0  0
 28 55  1  0  0  0  0
 28 56  1  0  0  0  0
 28 57  1  0  0  0  0
M  END
$$$$
CHEMBL471122	5XRA	best_smi
 OpenBabel12022417413D

 66 69  0  0  1  0  0  0  0  0999 V2000
    4.6062    2.8470   -6.1810 C   0  0  0  0  0  0  0  0  0  0  0  0
    4.2325    1.8603   -5.1029 C   0  0  0  0  0  0  0  0  0  0  0  0
    5.1939    0.6692   -5.0043 C   0  0  0  0  0  0  0  0  0  0  0  0
    4.6903   -0.1864   -3.8722 C   0  0  0  0  0  0  0  0  0  0  0  0
    5.2978   -0.1480   -2.6128 C   0  0  0  0  0  0  0  0  0  0  0  0
    4.6736   -0.7411   -1.5142 C   0  0  0  0  0  0  0  0  0  0  0  0
    3.4449   -1.3971   -1.6658 C   0  0  0  0  0  0  0  0  0  0  0  0
    2.7346   -2.1493   -0.5296 C   0  0  0  0  0  0  0  0  0  0  0  0
    3.5259   -2.2204    0.7932 C   0  0  0  0  0  0  0  0  0  0  0  0
    2.5777   -3.6091   -1.0760 C   0  0  0  0  0  0  0  0  0  0  0  0
    1.3357   -1.5765   -0.2437 C   0  0  0  0  0  0  0  0  0  0  0  0
    0.9486   -0.2735   -0.5869 C   0  0  0  0  0  0  0  0  0  0  0  0
   -0.4019    0.0806   -0.5849 C   0  0  0  0  0  0  0  0  0  0  0  0
   -0.7538    1.3167   -1.0585 O   0  0  0  0  0  0  0  0  0  0  0  0
   -1.4019   -0.8111   -0.1779 C   0  0  0  0  0  0  0  0  0  0  0  0
   -0.9931   -2.0945    0.1762 C   0  0  0  0  0  0  0  0  0  0  0  0
    0.3476   -2.4375    0.2256 C   0  0  0  0  0  0  0  0  0  0  0  0
   -1.7997   -3.1553    0.4446 O   0  0  0  0  0  0  0  0  0  0  0  0
   -3.2123   -2.9467    0.5420 C   0  0  0  0  0  0  0  0  0  0  0  0
   -3.5832   -3.9065    1.6886 C   0  0  0  0  0  0  0  0  0  0  0  0
   -3.8421   -3.4313   -0.7750 C   0  0  0  0  0  0  0  0  0  0  0  0
   -3.5364   -1.4782    0.9058 C   0  0  2  0  0  0  0  0  0  0  0  0
   -5.0333   -1.1737    1.0541 C   0  0  0  0  0  0  0  0  0  0  0  0
   -5.2390    0.2359    1.5192 C   0  0  0  0  0  0  0  0  0  0  0  0
   -4.3854    1.2158    1.1790 C   0  0  0  0  0  0  0  0  0  0  0  0
   -4.5572    2.6040    1.7301 C   0  0  0  0  0  0  0  0  0  0  0  0
   -3.1826    0.9801    0.3112 C   0  0  0  0  0  0  0  0  0  0  0  0
   -2.8851   -0.4885   -0.0976 C   0  0  1  0  0  0  0  0  0  0  0  0
    2.8495   -1.4204   -2.9440 C   0  0  0  0  0  0  0  0  0  0  0  0
    3.4777   -0.8598   -4.0382 C   0  0  0  0  0  0  0  0  0  0  0  0
    5.4884    3.4220   -5.8884 H   0  0  0  0  0  0  0  0  0  0  0  0
    3.7745    3.5412   -6.3322 H   0  0  0  0  0  0  0  0  0  0  0  0
    4.8058    2.3414   -7.1288 H   0  0  0  0  0  0  0  0  0  0  0  0
    4.1832    2.3772   -4.1351 H   0  0  0  0  0  0  0  0  0  0  0  0
    3.2160    1.4991   -5.3060 H   0  0  0  0  0  0  0  0  0  0  0  0
    5.2024    0.0847   -5.9337 H   0  0  0  0  0  0  0  0  0  0  0  0
    6.2213    0.9988   -4.8184 H   0  0  0  0  0  0  0  0  0  0  0  0
    6.2398    0.3760   -2.4703 H   0  0  0  0  0  0  0  0  0  0  0  0
    5.1621   -0.6630   -0.5470 H   0  0  0  0  0  0  0  0  0  0  0  0
    4.5830   -2.4554    0.6279 H   0  0  0  0  0  0  0  0  0  0  0  0
    3.1344   -3.0080    1.4490 H   0  0  0  0  0  0  0  0  0  0  0  0
    3.4695   -1.2813    1.3565 H   0  0  0  0  0  0  0  0  0  0  0  0
    1.7189   -3.6900   -1.7598 H   0  0  0  0  0  0  0  0  0  0  0  0
    2.4070   -4.3382   -0.2777 H   0  0  0  0  0  0  0  0  0  0  0  0
    3.4603   -3.9386   -1.6337 H   0  0  0  0  0  0  0  0  0  0  0  0
    1.6899    0.4473   -0.9157 H   0  0  0  0  0  0  0  0  0  0  0  0
    0.0347    1.7419   -1.4363 H   0  0  0  0  0  0  0  0  0  0  0  0
    0.5954   -3.4413    0.5588 H   0  0  0  0  0  0  0  0  0  0  0  0
   -4.5800   -3.7453    2.0958 H   0  0  0  0  0  0  0  0  0  0  0  0
   -3.5179   -4.9518    1.3597 H   0  0  0  0  0  0  0  0  0  0  0  0
   -2.8537   -3.8188    2.5057 H   0  0  0  0  0  0  0  0  0  0  0  0
   -4.8893   -3.1382   -0.8768 H   0  0  0  0  0  0  0  0  0  0  0  0
   -3.8069   -4.5254   -0.8491 H   0  0  0  0  0  0  0  0  0  0  0  0
   -3.2877   -3.0622   -1.6453 H   0  0  0  0  0  0  0  0  0  0  0  0
   -3.0638   -1.2925    1.8852 H   0  0  0  0  0  0  0  0  0  0  0  0
   -5.5736   -1.3081    0.1087 H   0  0  0  0  0  0  0  0  0  0  0  0
   -5.4885   -1.8481    1.7850 H   0  0  0  0  0  0  0  0  0  0  0  0
   -6.0814    0.4241    2.1740 H   0  0  0  0  0  0  0  0  0  0  0  0
   -5.4900    3.0460    1.3697 H   0  0  0  0  0  0  0  0  0  0  0  0
   -4.5607    2.5921    2.8259 H   0  0  0  0  0  0  0  0  0  0  0  0
   -3.7343    3.2576    1.4192 H   0  0  0  0  0  0  0  0  0  0  0  0
   -3.3128    1.5723   -0.6054 H   0  0  0  0  0  0  0  0  0  0  0  0
   -2.3218    1.4007    0.8468 H   0  0  0  0  0  0  0  0  0  0  0  0
   -3.3112   -0.6570   -1.0979 H   0  0  0  0  0  0  0  0  0  0  0  0
    1.8685   -1.8685   -3.0917 H   0  0  0  0  0  0  0  0  0  0  0  0
    2.9835   -0.8862   -5.0055 H   0  0  0  0  0  0  0  0  0  0  0  0
  1  2  1  0  0  0  0
  1 31  1  0  0  0  0
  1 32  1  0  0  0  0
  1 33  1  0  0  0  0
  2  3  1  0  0  0  0
  2 34  1  0  0  0  0
  2 35  1  0  0  0  0
  3  4  1  0  0  0  0
  3 36  1  0  0  0  0
  3 37  1  0  0  0  0
  4 30  2  0  0  0  0
  4  5  1  0  0  0  0
  5  6  2  0  0  0  0
  5 38  1  0  0  0  0
  6  7  1  0  0  0  0
  6 39  1  0  0  0  0
  7  8  1  0  0  0  0
  7 29  2  0  0  0  0
  8  9  1  0  0  0  0
  8 10  1  0  0  0  0
  8 11  1  0  0  0  0
  9 40  1  0  0  0  0
  9 41  1  0  0  0  0
  9 42  1  0  0  0  0
 10 43  1  0  0  0  0
 10 44  1  0  0  0  0
 10 45  1  0  0  0  0
 11 17  2  0  0  0  0
 11 12  1  0  0  0  0
 12 13  2  0  0  0  0
 12 46  1  0  0  0  0
 13 14  1  0  0  0  0
 13 15  1  0  0  0  0
 14 47  1  0  0  0  0
 15 28  1  0  0  0  0
 15 16  2  0  0  0  0
 16 17  1  0  0  0  0
 16 18  1  0  0  0  0
 17 48  1  0  0  0  0
 18 19  1  0  0  0  0
 19 20  1  0  0  0  0
 19 21  1  0  0  0  0
 19 22  1  0  0  0  0
 20 49  1  0  0  0  0
 20 50  1  0  0  0  0
 20 51  1  0  0  0  0
 21 52  1  0  0  0  0
 21 53  1  0  0  0  0
 21 54  1  0  0  0  0
 22 23  1  0  0  0  0
 22 28  1  0  0  0  0
 22 55  1  1  0  0  0
 23 24  1  0  0  0  0
 23 56  1  0  0  0  0
 23 57  1  0  0  0  0
 24 25  2  0  0  0  0
 24 58  1  0  0  0  0
 25 26  1  0  0  0  0
 25 27  1  0  0  0  0
 26 59  1  0  0  0  0
 26 60  1  0  0  0  0
 26 61  1  0  0  0  0
 27 62  1  0  0  0  0
 27 63  1  0  0  0  0
 28 27  1  0  0  0  0
 28 64  1  6  0  0  0
 29 30  1  0  0  0  0
 29 65  1  0  0  0  0
 30 66  1  0  0  0  0
M  END
$$$$
CHEMBL456341	5XRA	best_smi
 OpenBabel12022417413D

 65 67  0  0  1  0  0  0  0  0999 V2000
    1.0064   -8.8140   -4.1269 C   0  0  0  0  0  0  0  0  0  0  0  0
    0.2881   -7.6554   -3.4556 C   0  0  0  0  0  0  0  0  0  0  0  0
    1.2219   -6.4568   -3.2663 C   0  0  0  0  0  0  0  0  0  0  0  0
    0.5342   -5.2615   -2.6187 C   0  0  0  0  0  0  0  0  0  0  0  0
    1.5261   -4.1032   -2.4159 C   0  0  0  0  0  0  0  0  0  0  0  0
    0.8634   -2.8812   -1.7575 C   0  0  0  0  0  0  0  0  0  0  0  0
    1.8043   -1.6385   -1.4617 C   0  0  0  0  0  0  0  0  0  0  0  0
    2.3475   -1.1141   -2.8034 C   0  0  0  0  0  0  0  0  0  0  0  0
    3.0015   -2.0844   -0.5941 C   0  0  0  0  0  0  0  0  0  0  0  0
    0.9660   -0.5756   -0.6973 C   0  0  0  0  0  0  0  0  0  0  0  0
    0.5934    0.6958   -1.1834 C   0  0  0  0  0  0  0  0  0  0  0  0
   -0.5000    1.4207   -0.6234 C   0  0  0  0  0  0  0  0  0  0  0  0
   -0.9086    2.5826   -1.2204 O   0  0  0  0  0  0  0  0  0  0  0  0
   -1.3103    0.8690    0.3730 C   0  0  0  0  0  0  0  0  0  0  0  0
   -0.8549   -0.3905    0.8415 C   0  0  0  0  0  0  0  0  0  0  0  0
    0.3404   -0.9974    0.4646 C   0  0  0  0  0  0  0  0  0  0  0  0
   -1.6862   -1.3520    1.3881 O   0  0  0  0  0  0  0  0  0  0  0  0
   -3.0270   -1.2374    0.8744 C   0  0  0  0  0  0  0  0  0  0  0  0
   -3.7875   -2.4273    1.4627 C   0  0  0  0  0  0  0  0  0  0  0  0
   -3.0874   -1.4340   -0.6725 C   0  0  0  0  0  0  0  0  0  0  0  0
   -3.4553    0.1292    1.4312 C   0  0  2  0  0  0  0  0  0  0  0  0
   -4.9520    0.3008    1.6941 C   0  0  0  0  0  0  0  0  0  0  0  0
   -5.6032    1.2200    0.7626 C   0  0  0  0  0  0  0  0  0  0  0  0
   -5.0109    2.4170    0.5783 C   0  0  0  0  0  0  0  0  0  0  0  0
   -5.9891    3.4696    0.2284 C   0  0  0  0  0  0  0  0  0  0  0  0
   -7.1232    3.2854   -0.1767 O   0  0  0  0  0  0  0  0  0  0  0  0
   -5.5967    4.6765    0.6363 O   0  0  0  0  0  0  0  0  0  0  0  0
   -3.5091    2.6066    0.8638 C   0  0  0  0  0  0  0  0  0  0  0  0
   -2.8130    1.2384    0.5455 C   0  0  1  0  0  0  0  0  0  0  0  0
    0.8342   -8.7954   -5.2071 H   0  0  0  0  0  0  0  0  0  0  0  0
    2.0890   -8.7937   -3.9561 H   0  0  0  0  0  0  0  0  0  0  0  0
    0.6229   -9.7649   -3.7422 H   0  0  0  0  0  0  0  0  0  0  0  0
   -0.5796   -7.3564   -4.0524 H   0  0  0  0  0  0  0  0  0  0  0  0
   -0.0762   -7.9690   -2.4724 H   0  0  0  0  0  0  0  0  0  0  0  0
    2.0713   -6.7641   -2.6398 H   0  0  0  0  0  0  0  0  0  0  0  0
    1.6485   -6.1630   -4.2330 H   0  0  0  0  0  0  0  0  0  0  0  0
    0.1186   -5.5527   -1.6476 H   0  0  0  0  0  0  0  0  0  0  0  0
   -0.2991   -4.9301   -3.2451 H   0  0  0  0  0  0  0  0  0  0  0  0
    1.9461   -3.8242   -3.3865 H   0  0  0  0  0  0  0  0  0  0  0  0
    2.3468   -4.4597   -1.7835 H   0  0  0  0  0  0  0  0  0  0  0  0
    0.4046   -3.2428   -0.8276 H   0  0  0  0  0  0  0  0  0  0  0  0
    0.0231   -2.5494   -2.3847 H   0  0  0  0  0  0  0  0  0  0  0  0
    2.9697   -1.8629   -3.3059 H   0  0  0  0  0  0  0  0  0  0  0  0
    2.9703   -0.2249   -2.6643 H   0  0  0  0  0  0  0  0  0  0  0  0
    1.5310   -0.8585   -3.4891 H   0  0  0  0  0  0  0  0  0  0  0  0
    3.5915   -1.2213   -0.2593 H   0  0  0  0  0  0  0  0  0  0  0  0
    3.6783   -2.7448   -1.1501 H   0  0  0  0  0  0  0  0  0  0  0  0
    2.6830   -2.6341    0.2971 H   0  0  0  0  0  0  0  0  0  0  0  0
    1.0879    1.0937   -2.0645 H   0  0  0  0  0  0  0  0  0  0  0  0
   -0.4106    2.6937   -2.0471 H   0  0  0  0  0  0  0  0  0  0  0  0
    0.5710   -1.9678    0.9040 H   0  0  0  0  0  0  0  0  0  0  0  0
   -3.3096   -3.3664    1.1613 H   0  0  0  0  0  0  0  0  0  0  0  0
   -3.7883   -2.4018    2.5550 H   0  0  0  0  0  0  0  0  0  0  0  0
   -4.8200   -2.4628    1.0989 H   0  0  0  0  0  0  0  0  0  0  0  0
   -2.4386   -2.2626   -0.9778 H   0  0  0  0  0  0  0  0  0  0  0  0
   -2.7324   -0.5951   -1.2746 H   0  0  0  0  0  0  0  0  0  0  0  0
   -4.1099   -1.6308   -1.0092 H   0  0  0  0  0  0  0  0  0  0  0  0
   -2.9926    0.2281    2.4313 H   0  0  0  0  0  0  0  0  0  0  0  0
   -5.4965   -0.6289    1.8015 H   0  0  0  0  0  0  0  0  0  0  0  0
   -5.0406    0.7801    2.6820 H   0  0  0  0  0  0  0  0  0  0  0  0
   -6.6301    1.0035    0.4816 H   0  0  0  0  0  0  0  0  0  0  0  0
   -6.4302    5.1906    0.5635 H   0  0  0  0  0  0  0  0  0  0  0  0
   -3.0958    3.4004    0.2331 H   0  0  0  0  0  0  0  0  0  0  0  0
   -3.3629    2.9039    1.9151 H   0  0  0  0  0  0  0  0  0  0  0  0
   -3.1609    1.0970   -0.4817 H   0  0  0  0  0  0  0  0  0  0  0  0
  1  2  1  0  0  0  0
  1 30  1  0  0  0  0
  1 31  1  0  0  0  0
  1 32  1  0  0  0  0
  2  3  1  0  0  0  0
  2 33  1  0  0  0  0
  2 34  1  0  0  0  0
  3  4  1  0  0  0  0
  3 35  1  0  0  0  0
  3 36  1  0  0  0  0
  4  5  1  0  0  0  0
  4 37  1  0  0  0  0
  4 38  1  0  0  0  0
  5  6  1  0  0  0  0
  5 39  1  0  0  0  0
  5 40  1  0  0  0  0
  6  7  1  0  0  0  0
  6 41  1  0  0  0  0
  6 42  1  0  0  0  0
  7  8  1  0  0  0  0
  7  9  1  0  0  0  0
  7 10  1  0  0  0  0
  8 43  1  0  0  0  0
  8 44  1  0  0  0  0
  8 45  1  0  0  0  0
  9 46  1  0  0  0  0
  9 47  1  0  0  0  0
  9 48  1  0  0  0  0
 10 16  2  0  0  0  0
 10 11  1  0  0  0  0
 11 12  2  0  0  0  0
 11 49  1  0  0  0  0
 12 13  1  0  0  0  0
 12 14  1  0  0  0  0
 13 50  1  0  0  0  0
 14 29  1  0  0  0  0
 14 15  2  0  0  0  0
 15 16  1  0  0  0  0
 15 17  1  0  0  0  0
 16 51  1  0  0  0  0
 17 18  1  0  0  0  0
 18 19  1  0  0  0  0
 18 20  1  0  0  0  0
 18 21  1  0  0  0  0
 19 52  1  0  0  0  0
 19 53  1  0  0  0  0
 19 54  1  0  0  0  0
 20 55  1  0  0  0  0
 20 56  1  0  0  0  0
 20 57  1  0  0  0  0
 21 22  1  0  0  0  0
 21 29  1  0  0  0  0
 21 58  1  1  0  0  0
 22 23  1  0  0  0  0
 22 59  1  0  0  0  0
 22 60  1  0  0  0  0
 23 24  2  0  0  0  0
 23 61  1  0  0  0  0
 24 25  1  0  0  0  0
 24 28  1  0  0  0  0
 25 26  2  0  0  0  0
 25 27  1  0  0  0  0
 27 62  1  0  0  0  0
 28 63  1  0  0  0  0
 28 64  1  0  0  0  0
 29 28  1  0  0  0  0
 29 65  1  6  0  0  0
M  END
$$$$
CHEMBL471296	5XRA	best_smi
 OpenBabel12022417413D

 63 66  0  0  1  0  0  0  0  0999 V2000
    2.8441    8.8467   -0.6217 C   0  0  0  0  0  0  0  0  0  0  0  0
    3.2068    7.5349   -1.2777 C   0  0  0  0  0  0  0  0  0  0  0  0
    4.3665    6.9324   -0.9429 C   0  0  0  0  0  0  0  0  0  0  0  0
    4.4638    5.4371   -0.8443 C   0  0  0  0  0  0  0  0  0  0  0  0
    3.1004    4.6912   -0.6975 C   0  0  2  0  0  0  0  0  0  0  0  0
    1.8833    5.6449   -0.6931 C   0  0  1  0  0  0  0  0  0  0  0  0
    2.0818    6.6779   -1.7982 C   0  0  0  0  0  0  0  0  0  0  0  0
    0.5862    4.8870   -0.5386 C   0  0  0  0  0  0  0  0  0  0  0  0
   -0.6519    5.4847   -0.7183 C   0  0  0  0  0  0  0  0  0  0  0  0
   -0.7776    6.7075   -1.3049 O   0  0  0  0  0  0  0  0  0  0  0  0
   -1.8102    4.8729   -0.2784 C   0  0  0  0  0  0  0  0  0  0  0  0
   -1.8072    3.5553    0.1987 C   0  0  0  0  0  0  0  0  0  0  0  0
   -3.1548    2.8672    0.5114 C   0  0  0  0  0  0  0  0  0  0  0  0
   -3.0529    1.3384    0.3671 C   0  0  0  0  0  0  0  0  0  0  0  0
   -4.1509    3.3546   -0.5964 C   0  0  0  0  0  0  0  0  0  0  0  0
   -3.7231    3.2489    1.9023 C   0  0  0  0  0  0  0  0  0  0  0  0
   -2.9086    3.8279    2.8891 C   0  0  0  0  0  0  0  0  0  0  0  0
   -3.4789    4.5912    3.9186 C   0  0  0  0  0  0  0  0  0  0  0  0
   -2.6941    5.7483    4.4749 C   0  0  0  0  0  0  0  0  0  0  0  0
   -4.8588    4.6009    4.1104 C   0  0  0  0  0  0  0  0  0  0  0  0
   -5.6801    4.0286    3.1458 C   0  0  0  0  0  0  0  0  0  0  0  0
   -7.0791    4.5596    3.0135 C   0  0  0  0  0  0  0  0  0  0  0  0
   -5.1170    3.2914    2.0981 C   0  0  0  0  0  0  0  0  0  0  0  0
   -0.5620    2.9283    0.3587 C   0  0  0  0  0  0  0  0  0  0  0  0
    0.6211    3.6004    0.0335 C   0  0  0  0  0  0  0  0  0  0  0  0
    1.7794    2.9370    0.3620 O   0  0  0  0  0  0  0  0  0  0  0  0
    2.9565    3.7627    0.5366 C   0  0  0  0  0  0  0  0  0  0  0  0
    2.8311    4.4984    1.8899 C   0  0  0  0  0  0  0  0  0  0  0  0
    4.1377    2.7862    0.6416 C   0  0  0  0  0  0  0  0  0  0  0  0
    3.1438    8.8052    0.4344 H   0  0  0  0  0  0  0  0  0  0  0  0
    1.7568    8.9865   -0.6120 H   0  0  0  0  0  0  0  0  0  0  0  0
    3.3185    9.6953   -1.1076 H   0  0  0  0  0  0  0  0  0  0  0  0
    5.1671    7.5070   -0.4792 H   0  0  0  0  0  0  0  0  0  0  0  0
    5.0090    5.0495   -1.7191 H   0  0  0  0  0  0  0  0  0  0  0  0
    5.1006    5.2259    0.0192 H   0  0  0  0  0  0  0  0  0  0  0  0
    3.0070    4.0519   -1.5909 H   0  0  0  0  0  0  0  0  0  0  0  0
    1.8990    6.2059    0.2635 H   0  0  0  0  0  0  0  0  0  0  0  0
    2.3456    6.2058   -2.7333 H   0  0  0  0  0  0  0  0  0  0  0  0
    1.2203    7.3096   -2.0187 H   0  0  0  0  0  0  0  0  0  0  0  0
   -1.6152    6.7066   -1.7993 H   0  0  0  0  0  0  0  0  0  0  0  0
   -2.7282    5.4520   -0.3054 H   0  0  0  0  0  0  0  0  0  0  0  0
   -4.0434    0.8699    0.3328 H   0  0  0  0  0  0  0  0  0  0  0  0
   -2.5107    0.8881    1.2051 H   0  0  0  0  0  0  0  0  0  0  0  0
   -2.5330    1.0627   -0.5596 H   0  0  0  0  0  0  0  0  0  0  0  0
   -5.0174    2.6958   -0.6981 H   0  0  0  0  0  0  0  0  0  0  0  0
   -3.6716    3.4038   -1.5805 H   0  0  0  0  0  0  0  0  0  0  0  0
   -4.5436    4.3581   -0.3732 H   0  0  0  0  0  0  0  0  0  0  0  0
   -1.8271    3.8570    2.7707 H   0  0  0  0  0  0  0  0  0  0  0  0
   -2.7653    6.5547    3.7300 H   0  0  0  0  0  0  0  0  0  0  0  0
   -1.6429    5.5026    4.6234 H   0  0  0  0  0  0  0  0  0  0  0  0
   -3.1198    6.1214    5.4106 H   0  0  0  0  0  0  0  0  0  0  0  0
   -5.2938    5.2277    4.8858 H   0  0  0  0  0  0  0  0  0  0  0  0
   -6.9971    5.5945    2.6541 H   0  0  0  0  0  0  0  0  0  0  0  0
   -7.6622    4.0016    2.2763 H   0  0  0  0  0  0  0  0  0  0  0  0
   -7.6080    4.5622    3.9694 H   0  0  0  0  0  0  0  0  0  0  0  0
   -5.7860    2.8934    1.3397 H   0  0  0  0  0  0  0  0  0  0  0  0
   -0.4848    1.9312    0.7855 H   0  0  0  0  0  0  0  0  0  0  0  0
    3.6367    5.2253    2.0343 H   0  0  0  0  0  0  0  0  0  0  0  0
    1.8773    5.0204    2.0047 H   0  0  0  0  0  0  0  0  0  0  0  0
    2.8521    3.7823    2.7189 H   0  0  0  0  0  0  0  0  0  0  0  0
    3.9245    2.0032    1.3771 H   0  0  0  0  0  0  0  0  0  0  0  0
    4.3178    2.2811   -0.3123 H   0  0  0  0  0  0  0  0  0  0  0  0
    5.0604    3.2877    0.9516 H   0  0  0  0  0  0  0  0  0  0  0  0
  1  2  1  0  0  0  0
  1 30  1  0  0  0  0
  1 31  1  0  0  0  0
  1 32  1  0  0  0  0
  2  7  1  0  0  0  0
  2  3  2  0  0  0  0
  3  4  1  0  0  0  0
  3 33  1  0  0  0  0
  4 34  1  0  0  0  0
  4 35  1  0  0  0  0
  5  4  1  0  0  0  0
  5  6  1  0  0  0  0
  5 27  1  0  0  0  0
  5 36  1  6  0  0  0
  6  7  1  0  0  0  0
  6  8  1  0  0  0  0
  6 37  1  1  0  0  0
  7 38  1  0  0  0  0
  7 39  1  0  0  0  0
  8 25  2  0  0  0  0
  8  9  1  0  0  0  0
  9 10  1  0  0  0  0
  9 11  2  0  0  0  0
 10 40  1  0  0  0  0
 11 12  1  0  0  0  0
 11 41  1  0  0  0  0
 12 13  1  0  0  0  0
 12 24  2  0  0  0  0
 13 14  1  0  0  0  0
 13 15  1  0  0  0  0
 13 16  1  0  0  0  0
 14 42  1  0  0  0  0
 14 43  1  0  0  0  0
 14 44  1  0  0  0  0
 15 45  1  0  0  0  0
 15 46  1  0  0  0  0
 15 47  1  0  0  0  0
 16 23  2  0  0  0  0
 16 17  1  0  0  0  0
 17 18  2  0  0  0  0
 17 48  1  0  0  0  0
 18 19  1  0  0  0  0
 18 20  1  0  0  0  0
 19 49  1  0  0  0  0
 19 50  1  0  0  0  0
 19 51  1  0  0  0  0
 20 21  2  0  0  0  0
 20 52  1  0  0  0  0
 21 22  1  0  0  0  0
 21 23  1  0  0  0  0
 22 53  1  0  0  0  0
 22 54  1  0  0  0  0
 22 55  1  0  0  0  0
 23 56  1  0  0  0  0
 24 25  1  0  0  0  0
 24 57  1  0  0  0  0
 25 26  1  0  0  0  0
 26 27  1  0  0  0  0
 27 28  1  0  0  0  0
 27 29  1  0  0  0  0
 28 58  1  0  0  0  0
 28 59  1  0  0  0  0
 28 60  1  0  0  0  0
 29 61  1  0  0  0  0
 29 62  1  0  0  0  0
 29 63  1  0  0  0  0
M  END
$$$$
CHEMBL41721	5XRA	best_smi
 OpenBabel12022417413D

 66 68  0  0  1  0  0  0  0  0999 V2000
    7.6913  -10.5160   -5.5778 C   0  0  0  0  0  0  0  0  0  0  0  0
    7.1348   -9.7214   -4.4043 C   0  0  0  0  0  0  0  0  0  0  0  0
    7.5256   -8.2475   -4.5052 C   0  0  0  0  0  0  0  0  0  0  0  0
    6.9836   -7.4162   -3.3373 C   0  0  0  0  0  0  0  0  0  0  0  0
    7.3939   -5.9475   -3.5001 C   0  0  0  0  0  0  0  0  0  0  0  0
    6.8770   -5.0547   -2.3630 C   0  0  0  0  0  0  0  0  0  0  0  0
    7.3113   -3.5433   -2.4666 C   0  0  0  0  0  0  0  0  0  0  0  0
    6.7096   -2.9416   -3.7583 C   0  0  0  0  0  0  0  0  0  0  0  0
    6.6176   -2.7906   -1.2947 C   0  0  0  0  0  0  0  0  0  0  0  0
    8.8491   -3.3886   -2.3445 C   0  0  0  0  0  0  0  0  0  0  0  0
    9.7110   -2.8228   -3.3176 C   0  0  0  0  0  0  0  0  0  0  0  0
   11.1464   -2.7879   -3.1919 C   0  0  0  0  0  0  0  0  0  0  0  0
   11.8901   -2.3112   -4.2371 O   0  0  0  0  0  0  0  0  0  0  0  0
   11.7976   -3.2930   -2.0659 C   0  0  0  0  0  0  0  0  0  0  0  0
   10.8698   -3.8151   -1.0588 C   0  0  0  0  0  0  0  0  0  0  0  0
    9.4778   -3.8644   -1.1979 C   0  0  0  0  0  0  0  0  0  0  0  0
   11.2830   -4.3946    0.1673 O   0  0  0  0  0  0  0  0  0  0  0  0
   12.6847   -4.1028    0.3129 C   0  0  0  0  0  0  0  0  0  0  0  0
   13.3558   -4.6602    1.5680 C   0  0  0  0  0  0  0  0  0  0  0  0
   12.5837   -2.5439    0.6435 C   0  0  0  0  0  0  0  0  0  0  0  0
   13.1930   -4.8174   -1.0186 C   0  0  3  0  0  0  0  0  0  0  0  0
   14.2678   -5.8871   -1.0930 C   0  0  0  0  0  0  0  0  0  0  0  0
   15.6146   -5.3519   -0.8953 C   0  0  0  0  0  0  0  0  0  0  0  0
   15.8914   -4.0594   -0.9857 C   0  0  0  0  0  0  0  0  0  0  0  0
   17.2390   -3.6752   -0.3913 C   0  0  0  0  0  0  0  0  0  0  0  0
   18.1410   -3.1164   -1.3263 O   0  0  0  0  0  0  0  0  0  0  0  0
   14.8065   -3.0260   -1.5511 C   0  0  0  0  0  0  0  0  0  0  0  0
   13.3629   -3.6997   -2.0171 C   0  0  2  0  0  0  0  0  0  0  0  0
    7.4180  -11.5724   -5.4913 H   0  0  0  0  0  0  0  0  0  0  0  0
    8.7837  -10.4507   -5.6135 H   0  0  0  0  0  0  0  0  0  0  0  0
    7.2956  -10.1402   -6.5270 H   0  0  0  0  0  0  0  0  0  0  0  0
    7.5135  -10.1473   -3.4681 H   0  0  0  0  0  0  0  0  0  0  0  0
    6.0432   -9.8190   -4.3888 H   0  0  0  0  0  0  0  0  0  0  0  0
    7.1484   -7.8367   -5.4501 H   0  0  0  0  0  0  0  0  0  0  0  0
    8.6190   -8.1623   -4.5340 H   0  0  0  0  0  0  0  0  0  0  0  0
    7.3733   -7.8090   -2.3910 H   0  0  0  0  0  0  0  0  0  0  0  0
    5.8906   -7.4968   -3.3005 H   0  0  0  0  0  0  0  0  0  0  0  0
    7.0042   -5.5904   -4.4584 H   0  0  0  0  0  0  0  0  0  0  0  0
    8.4861   -5.8879   -3.5479 H   0  0  0  0  0  0  0  0  0  0  0  0
    7.2061   -5.4798   -1.4057 H   0  0  0  0  0  0  0  0  0  0  0  0
    5.7790   -5.1165   -2.3453 H   0  0  0  0  0  0  0  0  0  0  0  0
    5.6139   -3.0128   -3.7481 H   0  0  0  0  0  0  0  0  0  0  0  0
    7.0568   -3.4511   -4.6614 H   0  0  0  0  0  0  0  0  0  0  0  0
    6.9613   -1.8806   -3.8615 H   0  0  0  0  0  0  0  0  0  0  0  0
    5.5245   -2.8201   -1.3963 H   0  0  0  0  0  0  0  0  0  0  0  0
    6.9161   -1.7370   -1.2677 H   0  0  0  0  0  0  0  0  0  0  0  0
    6.8502   -3.2297   -0.3188 H   0  0  0  0  0  0  0  0  0  0  0  0
    9.2647   -2.4423   -4.2335 H   0  0  0  0  0  0  0  0  0  0  0  0
   11.2923   -2.0450   -4.9490 H   0  0  0  0  0  0  0  0  0  0  0  0
    8.9059   -4.3210   -0.3962 H   0  0  0  0  0  0  0  0  0  0  0  0
   13.6220   -5.7110    1.4962 H   0  0  0  0  0  0  0  0  0  0  0  0
   12.7171   -4.5445    2.4470 H   0  0  0  0  0  0  0  0  0  0  0  0
   14.2852   -4.0969    1.7491 H   0  0  0  0  0  0  0  0  0  0  0  0
   11.8594   -1.9690    0.0496 H   0  0  0  0  0  0  0  0  0  0  0  0
   13.5139   -2.0001    0.6487 H   0  0  0  0  0  0  0  0  0  0  0  0
   12.1671   -2.4382    1.6605 H   0  0  0  0  0  0  0  0  0  0  0  0
   12.3903   -5.4733   -1.3866 H   0  0  0  0  0  0  0  0  0  0  0  0
   14.0602   -6.6823   -0.3733 H   0  0  0  0  0  0  0  0  0  0  0  0
   14.2513   -6.3633   -2.0806 H   0  0  0  0  0  0  0  0  0  0  0  0
   16.3573   -6.0908   -0.5605 H   0  0  0  0  0  0  0  0  0  0  0  0
   17.1242   -2.9997    0.4571 H   0  0  0  0  0  0  0  0  0  0  0  0
   17.7497   -4.5687    0.0200 H   0  0  0  0  0  0  0  0  0  0  0  0
   18.9713   -2.9681   -0.8340 H   0  0  0  0  0  0  0  0  0  0  0  0
   15.2476   -2.5091   -2.4152 H   0  0  0  0  0  0  0  0  0  0  0  0
   14.6856   -2.2570   -0.7978 H   0  0  0  0  0  0  0  0  0  0  0  0
   13.5705   -4.1102   -3.0167 H   0  0  0  0  0  0  0  0  0  0  0  0
  1  2  1  0  0  0  0
  1 29  1  0  0  0  0
  1 30  1  0  0  0  0
  1 31  1  0  0  0  0
  2  3  1  0  0  0  0
  2 32  1  0  0  0  0
  2 33  1  0  0  0  0
  3  4  1  0  0  0  0
  3 34  1  0  0  0  0
  3 35  1  0  0  0  0
  4  5  1  0  0  0  0
  4 36  1  0  0  0  0
  4 37  1  0  0  0  0
  5  6  1  0  0  0  0
  5 38  1  0  0  0  0
  5 39  1  0  0  0  0
  6  7  1  0  0  0  0
  6 40  1  0  0  0  0
  6 41  1  0  0  0  0
  7  8  1  0  0  0  0
  7  9  1  0  0  0  0
  7 10  1  0  0  0  0
  8 42  1  0  0  0  0
  8 43  1  0  0  0  0
  8 44  1  0  0  0  0
  9 45  1  0  0  0  0
  9 46  1  0  0  0  0
  9 47  1  0  0  0  0
 10 16  2  0  0  0  0
 10 11  1  0  0  0  0
 11 12  2  0  0  0  0
 11 48  1  0  0  0  0
 12 14  1  0  0  0  0
 12 13  1  0  0  0  0
 13 49  1  0  0  0  0
 14 28  1  0  0  0  0
 14 15  2  0  0  0  0
 15 16  1  0  0  0  0
 15 17  1  0  0  0  0
 16 50  1  0  0  0  0
 17 18  1  0  0  0  0
 18 21  1  0  0  0  0
 18 19  1  0  0  0  0
 18 20  1  0  0  0  0
 19 51  1  0  0  0  0
 19 52  1  0  0  0  0
 19 53  1  0  0  0  0
 20 54  1  0  0  0  0
 20 55  1  0  0  0  0
 20 56  1  0  0  0  0
 21 28  1  0  0  0  0
 21 22  1  0  0  0  0
 21 57  1  0  0  0  0
 22 23  1  0  0  0  0
 22 58  1  0  0  0  0
 22 59  1  0  0  0  0
 23 24  2  0  0  0  0
 23 60  1  0  0  0  0
 24 27  1  0  0  0  0
 24 25  1  0  0  0  0
 25 26  1  0  0  0  0
 25 61  1  0  0  0  0
 25 62  1  0  0  0  0
 26 63  1  0  0  0  0
 27 64  1  0  0  0  0
 27 65  1  0  0  0  0
 28 27  1  0  0  0  0
 28 66  1  6  0  0  0
M  END
$$$$
CHEMBL67464	5XRA	best_smi
 OpenBabel12022417413D

 59 61  0  0  1  0  0  0  0  0999 V2000
    7.6718   -3.4586   -5.7191 C   0  0  0  0  0  0  0  0  0  0  0  0
    6.5746   -2.4392   -5.4697 C   0  0  0  0  0  0  0  0  0  0  0  0
    5.8892   -2.6600   -4.1226 C   0  0  0  0  0  0  0  0  0  0  0  0
    4.8294   -1.5855   -3.8881 C   0  0  0  0  0  0  0  0  0  0  0  0
    4.1151   -1.7768   -2.5536 C   0  0  0  0  0  0  0  0  0  0  0  0
    3.0951   -0.6592   -2.3413 C   0  0  0  0  0  0  0  0  0  0  0  0
    2.4165   -0.7863   -0.9759 C   0  0  0  0  0  0  0  0  0  0  0  0
    1.2121    0.0980   -0.7868 C   0  0  0  0  0  0  0  0  0  0  0  0
    0.9204    0.7104    0.4442 C   0  0  0  0  0  0  0  0  0  0  0  0
   -0.3525    1.2526    0.7321 C   0  0  0  0  0  0  0  0  0  0  0  0
   -0.6058    1.7661    1.9695 O   0  0  0  0  0  0  0  0  0  0  0  0
   -1.3800    1.1433   -0.2017 C   0  0  0  0  0  0  0  0  0  0  0  0
   -1.0519    0.5283   -1.4234 C   0  0  0  0  0  0  0  0  0  0  0  0
    0.2172    0.0819   -1.7577 C   0  0  0  0  0  0  0  0  0  0  0  0
   -2.0339    0.0123   -2.2465 O   0  0  0  0  0  0  0  0  0  0  0  0
   -2.9589   -0.7105   -1.4204 C   0  0  0  0  0  0  0  0  0  0  0  0
   -2.2665   -1.7342   -0.4433 C   0  0  0  0  0  0  0  0  0  0  0  0
   -3.8494   -1.5594   -2.3209 C   0  0  0  0  0  0  0  0  0  0  0  0
   -3.7322    0.3295   -0.6069 C   0  0  2  0  0  0  0  0  0  0  0  0
   -4.9274    1.0462   -1.2636 C   0  0  0  0  0  0  0  0  0  0  0  0
   -5.7164    1.6192   -0.1040 C   0  0  0  0  0  0  0  0  0  0  0  0
   -5.0929    1.7915    1.0894 C   0  0  0  0  0  0  0  0  0  0  0  0
   -5.7735    1.1864    2.2873 C   0  0  0  0  0  0  0  0  0  0  0  0
   -3.5609    2.0066    1.2001 C   0  0  0  0  0  0  0  0  0  0  0  0
   -2.8424    1.5013   -0.0697 C   0  0  1  0  0  0  0  0  0  0  0  0
    8.5587   -3.2241   -5.1220 H   0  0  0  0  0  0  0  0  0  0  0  0
    7.3433   -4.4712   -5.4656 H   0  0  0  0  0  0  0  0  0  0  0  0
    7.9620   -3.4474   -6.7743 H   0  0  0  0  0  0  0  0  0  0  0  0
    5.8294   -2.5071   -6.2708 H   0  0  0  0  0  0  0  0  0  0  0  0
    7.0034   -1.4308   -5.5132 H   0  0  0  0  0  0  0  0  0  0  0  0
    5.4197   -3.6516   -4.1051 H   0  0  0  0  0  0  0  0  0  0  0  0
    6.6298   -2.6367   -3.3146 H   0  0  0  0  0  0  0  0  0  0  0  0
    5.3053   -0.5977   -3.9051 H   0  0  0  0  0  0  0  0  0  0  0  0
    4.0984   -1.6065   -4.7039 H   0  0  0  0  0  0  0  0  0  0  0  0
    3.6063   -2.7492   -2.5449 H   0  0  0  0  0  0  0  0  0  0  0  0
    4.8399   -1.7810   -1.7318 H   0  0  0  0  0  0  0  0  0  0  0  0
    3.5768    0.3226   -2.4108 H   0  0  0  0  0  0  0  0  0  0  0  0
    2.3744   -0.7091   -3.1663 H   0  0  0  0  0  0  0  0  0  0  0  0
    2.0565   -1.8256   -0.8545 H   0  0  0  0  0  0  0  0  0  0  0  0
    3.1449   -0.6146   -0.1849 H   0  0  0  0  0  0  0  0  0  0  0  0
    1.6957    0.7157    1.2187 H   0  0  0  0  0  0  0  0  0  0  0  0
    0.1455    1.5679    2.5431 H   0  0  0  0  0  0  0  0  0  0  0  0
    0.3424   -0.4507   -2.6907 H   0  0  0  0  0  0  0  0  0  0  0  0
   -1.4155   -2.2301   -0.9210 H   0  0  0  0  0  0  0  0  0  0  0  0
   -2.9708   -2.4987   -0.0985 H   0  0  0  0  0  0  0  0  0  0  0  0
   -1.8874   -1.2663    0.4731 H   0  0  0  0  0  0  0  0  0  0  0  0
   -4.6821   -1.9912   -1.7554 H   0  0  0  0  0  0  0  0  0  0  0  0
   -3.2754   -2.3859   -2.7537 H   0  0  0  0  0  0  0  0  0  0  0  0
   -4.2392   -0.9768   -3.1581 H   0  0  0  0  0  0  0  0  0  0  0  0
   -4.1170   -0.2608    0.2413 H   0  0  0  0  0  0  0  0  0  0  0  0
   -5.5710    0.3400   -1.7915 H   0  0  0  0  0  0  0  0  0  0  0  0
   -4.6360    1.8276   -1.9760 H   0  0  0  0  0  0  0  0  0  0  0  0
   -6.7857    1.4163   -0.1515 H   0  0  0  0  0  0  0  0  0  0  0  0
   -5.6910    1.8037    3.1771 H   0  0  0  0  0  0  0  0  0  0  0  0
   -5.2914    0.2168    2.4838 H   0  0  0  0  0  0  0  0  0  0  0  0
   -6.8286    0.9605    2.0954 H   0  0  0  0  0  0  0  0  0  0  0  0
   -3.1817    1.5075    2.0954 H   0  0  0  0  0  0  0  0  0  0  0  0
   -3.3759    3.0844    1.3327 H   0  0  0  0  0  0  0  0  0  0  0  0
   -2.9143    2.3503   -0.7722 H   0  0  0  0  0  0  0  0  0  0  0  0
  1  2  1  0  0  0  0
  1 26  1  0  0  0  0
  1 27  1  0  0  0  0
  1 28  1  0  0  0  0
  2  3  1  0  0  0  0
  2 29  1  0  0  0  0
  2 30  1  0  0  0  0
  3  4  1  0  0  0  0
  3 31  1  0  0  0  0
  3 32  1  0  0  0  0
  4  5  1  0  0  0  0
  4 33  1  0  0  0  0
  4 34  1  0  0  0  0
  5  6  1  0  0  0  0
  5 35  1  0  0  0  0
  5 36  1  0  0  0  0
  6  7  1  0  0  0  0
  6 37  1  0  0  0  0
  6 38  1  0  0  0  0
  7  8  1  0  0  0  0
  7 39  1  0  0  0  0
  7 40  1  0  0  0  0
  8 14  2  0  0  0  0
  8  9  1  0  0  0  0
  9 10  2  0  0  0  0
  9 41  1  0  0  0  0
 10 11  1  0  0  0  0
 10 12  1  0  0  0  0
 11 42  1  0  0  0  0
 12 25  1  0  0  0  0
 12 13  2  0  0  0  0
 13 14  1  0  0  0  0
 13 15  1  0  0  0  0
 14 43  1  0  0  0  0
 15 16  1  0  0  0  0
 16 17  1  0  0  0  0
 16 18  1  0  0  0  0
 16 19  1  0  0  0  0
 17 44  1  0  0  0  0
 17 45  1  0  0  0  0
 17 46  1  0  0  0  0
 18 47  1  0  0  0  0
 18 48  1  0  0  0  0
 18 49  1  0  0  0  0
 19 20  1  0  0  0  0
 19 25  1  0  0  0  0
 19 50  1  1  0  0  0
 20 21  1  0  0  0  0
 20 51  1  0  0  0  0
 20 52  1  0  0  0  0
 21 22  2  0  0  0  0
 21 53  1  0  0  0  0
 22 23  1  0  0  0  0
 22 24  1  0  0  0  0
 23 54  1  0  0  0  0
 23 55  1  0  0  0  0
 23 56  1  0  0  0  0
 24 57  1  0  0  0  0
 24 58  1  0  0  0  0
 25 24  1  0  0  0  0
 25 59  1  6  0  0  0
M  END
$$$$
CHEMBL325389	5XRA	best_smi
 OpenBabel12022417413D

 63 66  0  0  1  0  0  0  0  0999 V2000
    5.6586    0.0583   -2.1945 C   0  0  0  0  0  0  0  0  0  0  0  0
    4.9634    1.3743   -2.0116 C   0  0  0  0  0  0  0  0  0  0  0  0
    5.5594    2.3117   -1.2486 C   0  0  0  0  0  0  0  0  0  0  0  0
    4.7253    2.9498   -0.1693 C   0  0  0  0  0  0  0  0  0  0  0  0
    3.6545    1.9042    0.2501 C   0  0  2  0  0  0  0  0  0  0  0  0
    2.6691    1.7241   -0.9327 C   0  0  1  0  0  0  0  0  0  0  0  0
    3.4617    1.4054   -2.2255 C   0  0  0  0  0  0  0  0  0  0  0  0
    1.5035    0.8564   -0.5223 C   0  0  0  0  0  0  0  0  0  0  0  0
    0.6586    0.1270   -1.3621 C   0  0  0  0  0  0  0  0  0  0  0  0
    1.0624   -0.3663   -2.5710 O   0  0  0  0  0  0  0  0  0  0  0  0
   -0.6967   -0.0235   -1.0547 C   0  0  0  0  0  0  0  0  0  0  0  0
   -1.1913    0.4219    0.1794 C   0  0  0  0  0  0  0  0  0  0  0  0
   -2.6337    0.9487    0.3663 C   0  0  0  0  0  0  0  0  0  0  0  0
   -2.6764    1.9620    1.5704 C   0  0  0  0  0  0  0  0  0  0  0  0
   -2.9616    1.8330   -0.8690 C   0  0  0  0  0  0  0  0  0  0  0  0
   -3.6972   -0.1844    0.6218 C   0  0  0  0  0  0  0  0  0  0  0  0
   -5.0708    0.4224    1.0064 C   0  0  0  0  0  0  0  0  0  0  0  0
   -6.2226   -0.5642    1.0526 C   0  0  0  0  0  0  0  0  0  0  0  0
   -6.3019   -1.3660   -0.2325 C   0  0  0  0  0  0  0  0  0  0  0  0
   -5.0075   -2.1357   -0.4367 C   0  0  0  0  0  0  0  0  0  0  0  0
   -3.8147   -1.1903   -0.5459 C   0  0  0  0  0  0  0  0  0  0  0  0
   -0.2566    0.7059    1.1585 C   0  0  0  0  0  0  0  0  0  0  0  0
    1.0219    1.0783    0.7673 C   0  0  0  0  0  0  0  0  0  0  0  0
    1.5960    1.9224    1.6655 O   0  0  0  0  0  0  0  0  0  0  0  0
    3.0071    2.0953    1.6367 C   0  0  0  0  0  0  0  0  0  0  0  0
    3.5563    1.0179    2.5979 C   0  0  0  0  0  0  0  0  0  0  0  0
    3.2337    3.4759    2.2696 C   0  0  0  0  0  0  0  0  0  0  0  0
    5.3357   -0.4619   -3.0977 H   0  0  0  0  0  0  0  0  0  0  0  0
    6.7469    0.1581   -2.2005 H   0  0  0  0  0  0  0  0  0  0  0  0
    5.3929   -0.5732   -1.3339 H   0  0  0  0  0  0  0  0  0  0  0  0
    6.6299    2.2858   -1.0639 H   0  0  0  0  0  0  0  0  0  0  0  0
    5.3853    3.1646    0.6773 H   0  0  0  0  0  0  0  0  0  0  0  0
    4.2879    3.8942   -0.5140 H   0  0  0  0  0  0  0  0  0  0  0  0
    4.1770    0.9383    0.3310 H   0  0  0  0  0  0  0  0  0  0  0  0
    2.2008    2.7056   -1.1153 H   0  0  0  0  0  0  0  0  0  0  0  0
    3.2488    2.1942   -2.9636 H   0  0  0  0  0  0  0  0  0  0  0  0
    3.1664    0.4833   -2.7184 H   0  0  0  0  0  0  0  0  0  0  0  0
    1.8276   -0.9381   -2.3796 H   0  0  0  0  0  0  0  0  0  0  0  0
   -1.3612   -0.3777   -1.8375 H   0  0  0  0  0  0  0  0  0  0  0  0
   -2.5711    1.4458    2.5292 H   0  0  0  0  0  0  0  0  0  0  0  0
   -1.8697    2.7097    1.4942 H   0  0  0  0  0  0  0  0  0  0  0  0
   -3.5985    2.5298    1.6021 H   0  0  0  0  0  0  0  0  0  0  0  0
   -3.8393    2.4597   -0.7069 H   0  0  0  0  0  0  0  0  0  0  0  0
   -2.1258    2.5194   -1.0880 H   0  0  0  0  0  0  0  0  0  0  0  0
   -3.1306    1.2548   -1.7809 H   0  0  0  0  0  0  0  0  0  0  0  0
   -3.3587   -0.7652    1.4928 H   0  0  0  0  0  0  0  0  0  0  0  0
   -5.3387    1.2196    0.3053 H   0  0  0  0  0  0  0  0  0  0  0  0
   -5.0039    0.8882    2.0001 H   0  0  0  0  0  0  0  0  0  0  0  0
   -7.1597   -0.0176    1.2100 H   0  0  0  0  0  0  0  0  0  0  0  0
   -6.0983   -1.2394    1.9072 H   0  0  0  0  0  0  0  0  0  0  0  0
   -7.1493   -2.0568   -0.1879 H   0  0  0  0  0  0  0  0  0  0  0  0
   -6.4758   -0.6917   -1.0811 H   0  0  0  0  0  0  0  0  0  0  0  0
   -5.0788   -2.7360   -1.3511 H   0  0  0  0  0  0  0  0  0  0  0  0
   -4.8531   -2.8331    0.3944 H   0  0  0  0  0  0  0  0  0  0  0  0
   -2.9061   -1.8006   -0.5994 H   0  0  0  0  0  0  0  0  0  0  0  0
   -3.9007   -0.6654   -1.5010 H   0  0  0  0  0  0  0  0  0  0  0  0
   -0.5318    0.9387    2.1837 H   0  0  0  0  0  0  0  0  0  0  0  0
    3.0972    1.1007    3.5877 H   0  0  0  0  0  0  0  0  0  0  0  0
    3.3060    0.0115    2.2322 H   0  0  0  0  0  0  0  0  0  0  0  0
    4.6429    1.0824    2.6976 H   0  0  0  0  0  0  0  0  0  0  0  0
    4.1977    3.5354    2.7836 H   0  0  0  0  0  0  0  0  0  0  0  0
    2.4470    3.7067    2.9991 H   0  0  0  0  0  0  0  0  0  0  0  0
    3.1876    4.2766    1.5246 H   0  0  0  0  0  0  0  0  0  0  0  0
  1  2  1  0  0  0  0
  1 28  1  0  0  0  0
  1 29  1  0  0  0  0
  1 30  1  0  0  0  0
  2  7  1  0  0  0  0
  2  3  2  0  0  0  0
  3  4  1  0  0  0  0
  3 31  1  0  0  0  0
  4 32  1  0  0  0  0
  4 33  1  0  0  0  0
  5  4  1  0  0  0  0
  5  6  1  0  0  0  0
  5 25  1  0  0  0  0
  5 34  1  1  0  0  0
  6  7  1  0  0  0  0
  6  8  1  0  0  0  0
  6 35  1  6  0  0  0
  7 36  1  0  0  0  0
  7 37  1  0  0  0  0
  8 23  2  0  0  0  0
  8  9  1  0  0  0  0
  9 10  1  0  0  0  0
  9 11  2  0  0  0  0
 10 38  1  0  0  0  0
 11 12  1  0  0  0  0
 11 39  1  0  0  0  0
 12 13  1  0  0  0  0
 12 22  2  0  0  0  0
 13 14  1  0  0  0  0
 13 15  1  0  0  0  0
 13 16  1  0  0  0  0
 14 40  1  0  0  0  0
 14 41  1  0  0  0  0
 14 42  1  0  0  0  0
 15 43  1  0  0  0  0
 15 44  1  0  0  0  0
 15 45  1  0  0  0  0
 16 21  1  0  0  0  0
 16 17  1  0  0  0  0
 16 46  1  0  0  0  0
 17 18  1  0  0  0  0
 17 47  1  0  0  0  0
 17 48  1  0  0  0  0
 18 19  1  0  0  0  0
 18 49  1  0  0  0  0
 18 50  1  0  0  0  0
 19 20  1  0  0  0  0
 19 51  1  0  0  0  0
 19 52  1  0  0  0  0
 20 21  1  0  0  0  0
 20 53  1  0  0  0  0
 20 54  1  0  0  0  0
 21 55  1  0  0  0  0
 21 56  1  0  0  0  0
 22 23  1  0  0  0  0
 22 57  1  0  0  0  0
 23 24  1  0  0  0  0
 24 25  1  0  0  0  0
 25 26  1  0  0  0  0
 25 27  1  0  0  0  0
 26 58  1  0  0  0  0
 26 59  1  0  0  0  0
 26 60  1  0  0  0  0
 27 61  1  0  0  0  0
 27 62  1  0  0  0  0
 27 63  1  0  0  0  0
M  END
$$$$
CHEMBL138772	5XRA	best_smi
 OpenBabel12022417413D

 78 81  0  0  1  0  0  0  0  0999 V2000
    7.9962   -4.3151    1.4887 C   0  0  0  0  0  0  0  0  0  0  0  0
    7.3840   -2.9422    1.4291 C   0  0  0  0  0  0  0  0  0  0  0  0
    7.6840   -2.2857    0.2959 C   0  0  0  0  0  0  0  0  0  0  0  0
    6.6012   -1.6879   -0.5263 C   0  0  0  0  0  0  0  0  0  0  0  0
    5.1936   -2.1642   -0.1504 C   0  0  2  0  0  0  0  0  0  0  0  0
    4.9368   -2.7027    1.2802 C   0  0  1  0  0  0  0  0  0  0  0  0
    6.1218   -2.5909    2.2177 C   0  0  0  0  0  0  0  0  0  0  0  0
    3.5035   -2.1987    1.4221 C   0  0  0  0  0  0  0  0  0  0  0  0
    3.1112   -0.9117    1.7869 C   0  0  0  0  0  0  0  0  0  0  0  0
    3.8552   -0.1902    2.6695 O   0  0  0  0  0  0  0  0  0  0  0  0
    2.0752   -0.2742    1.0648 C   0  0  0  0  0  0  0  0  0  0  0  0
    1.2986   -0.9827    0.1128 C   0  0  0  0  0  0  0  0  0  0  0  0
    0.2990   -0.3314   -0.8664 C   0  0  0  0  0  0  0  0  0  0  0  0
    0.0160   -1.2221   -2.1168 C   0  0  0  0  0  0  0  0  0  0  0  0
    0.7974    1.0142   -1.4366 C   0  0  0  0  0  0  0  0  0  0  0  0
   -0.9730   -0.1617   -0.0301 C   0  0  0  0  0  0  0  0  0  0  0  0
   -2.2045    0.3787   -0.7519 C   0  0  0  0  0  0  0  0  0  0  0  0
   -3.3143    0.4532    0.2585 C   0  0  0  0  0  0  0  0  0  0  0  0
   -4.5961    0.9995   -0.3490 C   0  0  0  0  0  0  0  0  0  0  0  0
   -5.6220    1.0408    0.7406 C   0  0  0  0  0  0  0  0  0  0  0  0
   -5.7725    2.0376    1.4425 O   0  0  0  0  0  0  0  0  0  0  0  0
   -6.2630   -0.1790    0.9099 N   0  0  0  0  0  0  0  0  0  0  0  0
   -7.1238   -0.3314    1.9941 N   0  0  0  0  0  0  0  0  0  0  0  0
   -8.5316   -0.3128    1.6048 C   0  0  0  0  0  0  0  0  0  0  0  0
   -9.0549   -1.6692    1.1362 C   0  0  0  0  0  0  0  0  0  0  0  0
   -8.7527   -2.7547    2.1617 C   0  0  0  0  0  0  0  0  0  0  0  0
   -7.2570   -2.7958    2.4528 C   0  0  0  0  0  0  0  0  0  0  0  0
   -6.7494   -1.4233    2.8943 C   0  0  0  0  0  0  0  0  0  0  0  0
    1.4799   -2.3543    0.0342 C   0  0  0  0  0  0  0  0  0  0  0  0
    2.6711   -2.8577    0.4952 C   0  0  0  0  0  0  0  0  0  0  0  0
    3.2394   -3.7474   -0.4081 O   0  0  0  0  0  0  0  0  0  0  0  0
    4.3977   -3.1382   -1.0927 C   0  0  0  0  0  0  0  0  0  0  0  0
    3.9112   -2.3617   -2.3273 C   0  0  0  0  0  0  0  0  0  0  0  0
    5.1887   -4.3708   -1.5285 C   0  0  0  0  0  0  0  0  0  0  0  0
    7.6471   -4.9096    2.3324 H   0  0  0  0  0  0  0  0  0  0  0  0
    7.6904   -4.8569    0.5774 H   0  0  0  0  0  0  0  0  0  0  0  0
    9.0892   -4.2747    1.4818 H   0  0  0  0  0  0  0  0  0  0  0  0
    8.6076   -2.4889   -0.2395 H   0  0  0  0  0  0  0  0  0  0  0  0
    6.6650   -0.5946   -0.4550 H   0  0  0  0  0  0  0  0  0  0  0  0
    6.7940   -1.9359   -1.5747 H   0  0  0  0  0  0  0  0  0  0  0  0
    4.6729   -1.1964   -0.2415 H   0  0  0  0  0  0  0  0  0  0  0  0
    4.8285   -3.8010    1.2553 H   0  0  0  0  0  0  0  0  0  0  0  0
    6.2104   -1.5994    2.6699 H   0  0  0  0  0  0  0  0  0  0  0  0
    6.0013   -3.2954    3.0545 H   0  0  0  0  0  0  0  0  0  0  0  0
    3.3023    0.5431    2.9898 H   0  0  0  0  0  0  0  0  0  0  0  0
    1.9234    0.7976    1.1793 H   0  0  0  0  0  0  0  0  0  0  0  0
   -0.5695   -0.6944   -2.8778 H   0  0  0  0  0  0  0  0  0  0  0  0
    0.9484   -1.5378   -2.6021 H   0  0  0  0  0  0  0  0  0  0  0  0
   -0.5547   -2.1231   -1.8620 H   0  0  0  0  0  0  0  0  0  0  0  0
    0.9081    1.7837   -0.6680 H   0  0  0  0  0  0  0  0  0  0  0  0
    1.7633    0.8952   -1.9442 H   0  0  0  0  0  0  0  0  0  0  0  0
    0.0972    1.4086   -2.1852 H   0  0  0  0  0  0  0  0  0  0  0  0
   -0.7530    0.4974    0.8225 H   0  0  0  0  0  0  0  0  0  0  0  0
   -1.2405   -1.1344    0.4088 H   0  0  0  0  0  0  0  0  0  0  0  0
   -1.9975    1.3695   -1.1716 H   0  0  0  0  0  0  0  0  0  0  0  0
   -2.4779   -0.2743   -1.5863 H   0  0  0  0  0  0  0  0  0  0  0  0
   -3.0068    1.0946    1.0940 H   0  0  0  0  0  0  0  0  0  0  0  0
   -3.5003   -0.5421    0.6855 H   0  0  0  0  0  0  0  0  0  0  0  0
   -4.4560    2.0047   -0.7427 H   0  0  0  0  0  0  0  0  0  0  0  0
   -4.9305    0.3791   -1.1827 H   0  0  0  0  0  0  0  0  0  0  0  0
   -6.1881   -0.9088    0.2080 H   0  0  0  0  0  0  0  0  0  0  0  0
   -8.6984    0.4349    0.8177 H   0  0  0  0  0  0  0  0  0  0  0  0
   -9.1196    0.0251    2.4657 H   0  0  0  0  0  0  0  0  0  0  0  0
   -8.6001   -1.9355    0.1740 H   0  0  0  0  0  0  0  0  0  0  0  0
  -10.1362   -1.6043    0.9733 H   0  0  0  0  0  0  0  0  0  0  0  0
   -9.3030   -2.5496    3.0883 H   0  0  0  0  0  0  0  0  0  0  0  0
   -9.0930   -3.7275    1.7924 H   0  0  0  0  0  0  0  0  0  0  0  0
   -6.7163   -3.1269    1.5579 H   0  0  0  0  0  0  0  0  0  0  0  0
   -7.0569   -3.5330    3.2394 H   0  0  0  0  0  0  0  0  0  0  0  0
   -7.1581   -1.1989    3.8872 H   0  0  0  0  0  0  0  0  0  0  0  0
   -5.6593   -1.4598    3.0263 H   0  0  0  0  0  0  0  0  0  0  0  0
    0.9004   -2.9869   -0.6267 H   0  0  0  0  0  0  0  0  0  0  0  0
    3.4900   -1.3881   -2.0450 H   0  0  0  0  0  0  0  0  0  0  0  0
    4.7308   -2.1653   -3.0240 H   0  0  0  0  0  0  0  0  0  0  0  0
    3.1117   -2.8988   -2.8454 H   0  0  0  0  0  0  0  0  0  0  0  0
    4.5736   -4.9999   -2.1802 H   0  0  0  0  0  0  0  0  0  0  0  0
    6.1033   -4.1207   -2.0673 H   0  0  0  0  0  0  0  0  0  0  0  0
    5.4453   -4.9958   -0.6639 H   0  0  0  0  0  0  0  0  0  0  0  0
  1  2  1  0  0  0  0
  1 35  1  0  0  0  0
  1 36  1  0  0  0  0
  1 37  1  0  0  0  0
  2  7  1  0  0  0  0
  2  3  2  0  0  0  0
  3  4  1  0  0  0  0
  3 38  1  0  0  0  0
  4 39  1  0  0  0  0
  4 40  1  0  0  0  0
  5  4  1  0  0  0  0
  5  6  1  0  0  0  0
  5 32  1  0  0  0  0
  5 41  1  6  0  0  0
  6  7  1  0  0  0  0
  6  8  1  0  0  0  0
  6 42  1  6  0  0  0
  7 43  1  0  0  0  0
  7 44  1  0  0  0  0
  8 30  2  0  0  0  0
  8  9  1  0  0  0  0
  9 10  1  0  0  0  0
  9 11  2  0  0  0  0
 10 45  1  0  0  0  0
 11 12  1  0  0  0  0
 11 46  1  0  0  0  0
 12 13  1  0  0  0  0
 12 29  2  0  0  0  0
 13 14  1  0  0  0  0
 13 15  1  0  0  0  0
 13 16  1  0  0  0  0
 14 47  1  0  0  0  0
 14 48  1  0  0  0  0
 14 49  1  0  0  0  0
 15 50  1  0  0  0  0
 15 51  1  0  0  0  0
 15 52  1  0  0  0  0
 16 17  1  0  0  0  0
 16 53  1  0  0  0  0
 16 54  1  0  0  0  0
 17 18  1  0  0  0  0
 17 55  1  0  0  0  0
 17 56  1  0  0  0  0
 18 19  1  0  0  0  0
 18 57  1  0  0  0  0
 18 58  1  0  0  0  0
 19 20  1  0  0  0  0
 19 59  1  0  0  0  0
 19 60  1  0  0  0  0
 20 21  2  0  0  0  0
 20 22  1  0  0  0  0
 22 23  1  0  0  0  0
 22 61  1  0  0  0  0
 23 28  1  0  0  0  0
 23 24  1  0  0  0  0
 24 25  1  0  0  0  0
 24 62  1  0  0  0  0
 24 63  1  0  0  0  0
 25 26  1  0  0  0  0
 25 64  1  0  0  0  0
 25 65  1  0  0  0  0
 26 27  1  0  0  0  0
 26 66  1  0  0  0  0
 26 67  1  0  0  0  0
 27 28  1  0  0  0  0
 27 68  1  0  0  0  0
 27 69  1  0  0  0  0
 28 70  1  0  0  0  0
 28 71  1  0  0  0  0
 29 30  1  0  0  0  0
 29 72  1  0  0  0  0
 30 31  1  0  0  0  0
 31 32  1  0  0  0  0
 32 33  1  0  0  0  0
 32 34  1  0  0  0  0
 33 73  1  0  0  0  0
 33 74  1  0  0  0  0
 33 75  1  0  0  0  0
 34 76  1  0  0  0  0
 34 77  1  0  0  0  0
 34 78  1  0  0  0  0
M  END
$$$$
CHEMBL512511	5XRA	best_smi
 OpenBabel12022417423D

 60 63  0  0  1  0  0  0  0  0999 V2000
    6.0504   -0.6529    0.0053 C   0  0  0  0  0  0  0  0  0  0  0  0
    5.1689    0.1619    0.8847 C   0  0  0  0  0  0  0  0  0  0  0  0
    5.4198    1.4654    1.0995 C   0  0  0  0  0  0  0  0  0  0  0  0
    4.3243    2.4476    1.4116 C   0  0  0  0  0  0  0  0  0  0  0  0
    2.8931    1.9282    1.1368 C   0  0  2  0  0  0  0  0  0  0  0  0
    2.8348    0.5215    0.4765 C   0  0  1  0  0  0  0  0  0  0  0  0
    3.8045   -0.4021    1.2069 C   0  0  0  0  0  0  0  0  0  0  0  0
    1.4043    0.0886    0.3045 C   0  0  0  0  0  0  0  0  0  0  0  0
    1.0617   -1.1609   -0.2022 C   0  0  0  0  0  0  0  0  0  0  0  0
    2.0077   -2.0689   -0.5719 O   0  0  0  0  0  0  0  0  0  0  0  0
   -0.2484   -1.4690   -0.5478 C   0  0  0  0  0  0  0  0  0  0  0  0
   -1.2436   -0.4867   -0.5291 C   0  0  0  0  0  0  0  0  0  0  0  0
   -2.5325   -0.6536   -1.3603 C   0  0  0  0  0  0  0  0  0  0  0  0
   -3.1048    0.7345   -1.7814 C   0  0  0  0  0  0  0  0  0  0  0  0
   -2.1368   -1.3497   -2.6998 C   0  0  0  0  0  0  0  0  0  0  0  0
   -3.6687   -1.3776   -0.6217 C   0  0  0  0  0  0  0  0  0  0  0  0
   -4.6558   -2.0767   -1.3366 C   0  0  0  0  0  0  0  0  0  0  0  0
   -5.8332   -2.4957   -0.7194 C   0  0  0  0  0  0  0  0  0  0  0  0
   -6.0615   -2.2126    0.6274 C   0  0  0  0  0  0  0  0  0  0  0  0
   -7.4044   -2.4910    1.2277 C   0  0  0  0  0  0  0  0  0  0  0  0
   -5.0370   -1.6380    1.3813 C   0  0  0  0  0  0  0  0  0  0  0  0
   -3.8548   -1.2217    0.7632 C   0  0  0  0  0  0  0  0  0  0  0  0
   -0.9389    0.7378    0.0898 C   0  0  0  0  0  0  0  0  0  0  0  0
    0.3820    1.0423    0.4174 C   0  0  0  0  0  0  0  0  0  0  0  0
    0.5921    2.3746    0.7036 O   0  0  0  0  0  0  0  0  0  0  0  0
    1.9201    2.8513    0.3554 C   0  0  0  0  0  0  0  0  0  0  0  0
    2.0268    2.8779   -1.1992 C   0  0  0  0  0  0  0  0  0  0  0  0
    1.9822    4.3126    0.8202 C   0  0  0  0  0  0  0  0  0  0  0  0
    6.9152   -0.0817   -0.3618 H   0  0  0  0  0  0  0  0  0  0  0  0
    5.4826   -0.9429   -0.8946 H   0  0  0  0  0  0  0  0  0  0  0  0
    6.4103   -1.5657    0.4881 H   0  0  0  0  0  0  0  0  0  0  0  0
    6.3927    1.8879    0.8610 H   0  0  0  0  0  0  0  0  0  0  0  0
    4.4072    2.7431    2.4676 H   0  0  0  0  0  0  0  0  0  0  0  0
    4.5214    3.3483    0.8243 H   0  0  0  0  0  0  0  0  0  0  0  0
    2.4532    1.8124    2.1431 H   0  0  0  0  0  0  0  0  0  0  0  0
    3.2238    0.5959   -0.5423 H   0  0  0  0  0  0  0  0  0  0  0  0
    3.6250   -0.4142    2.2896 H   0  0  0  0  0  0  0  0  0  0  0  0
    3.7429   -1.4409    0.8767 H   0  0  0  0  0  0  0  0  0  0  0  0
    2.4741   -1.6541   -1.3186 H   0  0  0  0  0  0  0  0  0  0  0  0
   -0.4447   -2.4492   -0.9772 H   0  0  0  0  0  0  0  0  0  0  0  0
   -3.8663    0.6372   -2.5643 H   0  0  0  0  0  0  0  0  0  0  0  0
   -2.3193    1.3900   -2.1777 H   0  0  0  0  0  0  0  0  0  0  0  0
   -3.5855    1.2548   -0.9431 H   0  0  0  0  0  0  0  0  0  0  0  0
   -2.9190   -1.2623   -3.4609 H   0  0  0  0  0  0  0  0  0  0  0  0
   -1.9438   -2.4198   -2.5647 H   0  0  0  0  0  0  0  0  0  0  0  0
   -1.2357   -0.8947   -3.1301 H   0  0  0  0  0  0  0  0  0  0  0  0
   -4.5599   -2.2530   -2.4035 H   0  0  0  0  0  0  0  0  0  0  0  0
   -6.5963   -2.9899   -1.3166 H   0  0  0  0  0  0  0  0  0  0  0  0
   -7.5309   -1.9575    2.1760 H   0  0  0  0  0  0  0  0  0  0  0  0
   -8.1884   -2.1282    0.5526 H   0  0  0  0  0  0  0  0  0  0  0  0
   -7.5420   -3.5616    1.3978 H   0  0  0  0  0  0  0  0  0  0  0  0
   -5.1700   -1.4562    2.4455 H   0  0  0  0  0  0  0  0  0  0  0  0
   -3.1095   -0.7211    1.3772 H   0  0  0  0  0  0  0  0  0  0  0  0
   -1.6711    1.5307    0.1746 H   0  0  0  0  0  0  0  0  0  0  0  0
    2.6492    3.7040   -1.5604 H   0  0  0  0  0  0  0  0  0  0  0  0
    1.0316    2.9841   -1.6489 H   0  0  0  0  0  0  0  0  0  0  0  0
    2.4336    1.9726   -1.6511 H   0  0  0  0  0  0  0  0  0  0  0  0
    1.0939    4.8619    0.4824 H   0  0  0  0  0  0  0  0  0  0  0  0
    2.0111    4.3885    1.9086 H   0  0  0  0  0  0  0  0  0  0  0  0
    2.8615    4.8275    0.4143 H   0  0  0  0  0  0  0  0  0  0  0  0
  1  2  1  0  0  0  0
  1 29  1  0  0  0  0
  1 30  1  0  0  0  0
  1 31  1  0  0  0  0
  2  7  1  0  0  0  0
  2  3  2  0  0  0  0
  3  4  1  0  0  0  0
  3 32  1  0  0  0  0
  4 33  1  0  0  0  0
  4 34  1  0  0  0  0
  5  4  1  0  0  0  0
  5  6  1  0  0  0  0
  5 26  1  0  0  0  0
  5 35  1  1  0  0  0
  6  7  1  0  0  0  0
  6  8  1  0  0  0  0
  6 36  1  6  0  0  0
  7 37  1  0  0  0  0
  7 38  1  0  0  0  0
  8 24  2  0  0  0  0
  8  9  1  0  0  0  0
  9 10  1  0  0  0  0
  9 11  2  0  0  0  0
 10 39  1  0  0  0  0
 11 12  1  0  0  0  0
 11 40  1  0  0  0  0
 12 13  1  0  0  0  0
 12 23  2  0  0  0  0
 13 14  1  0  0  0  0
 13 15  1  0  0  0  0
 13 16  1  0  0  0  0
 14 41  1  0  0  0  0
 14 42  1  0  0  0  0
 14 43  1  0  0  0  0
 15 44  1  0  0  0  0
 15 45  1  0  0  0  0
 15 46  1  0  0  0  0
 16 22  2  0  0  0  0
 16 17  1  0  0  0  0
 17 18  2  0  0  0  0
 17 47  1  0  0  0  0
 18 19  1  0  0  0  0
 18 48  1  0  0  0  0
 19 20  1  0  0  0  0
 19 21  2  0  0  0  0
 20 49  1  0  0  0  0
 20 50  1  0  0  0  0
 20 51  1  0  0  0  0
 21 22  1  0  0  0  0
 21 52  1  0  0  0  0
 22 53  1  0  0  0  0
 23 24  1  0  0  0  0
 23 54  1  0  0  0  0
 24 25  1  0  0  0  0
 25 26  1  0  0  0  0
 26 27  1  0  0  0  0
 26 28  1  0  0  0  0
 27 55  1  0  0  0  0
 27 56  1  0  0  0  0
 27 57  1  0  0  0  0
 28 58  1  0  0  0  0
 28 59  1  0  0  0  0
 28 60  1  0  0  0  0
M  END
$$$$
CHEMBL521366	5XRA	best_smi
 OpenBabel12022417423D

 57 60  0  0  1  0  0  0  0  0999 V2000
    4.4812   -4.9358   -1.0339 C   0  0  0  0  0  0  0  0  0  0  0  0
    4.3489   -3.5013   -1.4570 C   0  0  0  0  0  0  0  0  0  0  0  0
    5.1911   -2.6124   -0.8991 C   0  0  0  0  0  0  0  0  0  0  0  0
    4.5984   -1.3696   -0.2944 C   0  0  0  0  0  0  0  0  0  0  0  0
    3.1197   -1.6616    0.0472 C   0  0  2  0  0  0  0  0  0  0  0  0
    2.3412   -1.8799   -1.2825 C   0  0  1  0  0  0  0  0  0  0  0  0
    3.0087   -3.0689   -2.0327 C   0  0  0  0  0  0  0  0  0  0  0  0
    0.8575   -1.9533   -0.9988 C   0  0  0  0  0  0  0  0  0  0  0  0
   -0.1208   -2.6773   -1.6884 C   0  0  0  0  0  0  0  0  0  0  0  0
    0.2015   -3.4596   -2.7605 O   0  0  0  0  0  0  0  0  0  0  0  0
   -1.4919   -2.5895   -1.3600 C   0  0  0  0  0  0  0  0  0  0  0  0
   -1.9411   -1.7390   -0.3329 C   0  0  0  0  0  0  0  0  0  0  0  0
   -3.4322   -1.5348    0.0281 C   0  0  0  0  0  0  0  0  0  0  0  0
   -4.2649   -1.4826   -1.2807 C   0  0  0  0  0  0  0  0  0  0  0  0
   -3.6793   -0.1396    0.6884 C   0  0  0  0  0  0  0  0  0  0  0  0
   -3.9336   -2.5923    1.0415 C   0  0  0  0  0  0  0  0  0  0  0  0
   -5.1013   -3.3479    0.8310 C   0  0  0  0  0  0  0  0  0  0  0  0
   -5.5868   -4.2188    1.8303 C   0  0  0  0  0  0  0  0  0  0  0  0
   -4.9241   -4.3511    3.0330 C   0  0  0  0  0  0  0  0  0  0  0  0
   -3.7563   -3.6216    3.2550 C   0  0  0  0  0  0  0  0  0  0  0  0
   -2.9335   -3.7695    4.7608 Cl  0  0  0  0  0  0  0  0  0  0  0  0
   -3.2615   -2.7615    2.2746 C   0  0  0  0  0  0  0  0  0  0  0  0
   -0.9573   -1.0163    0.3448 C   0  0  0  0  0  0  0  0  0  0  0  0
    0.3871   -1.1066    0.0021 C   0  0  0  0  0  0  0  0  0  0  0  0
    1.1876   -0.2108    0.6443 O   0  0  0  0  0  0  0  0  0  0  0  0
    2.4537   -0.7148    1.0720 C   0  0  0  0  0  0  0  0  0  0  0  0
    3.2654    0.5440    1.3945 C   0  0  0  0  0  0  0  0  0  0  0  0
    2.2206   -1.4821    2.3969 C   0  0  0  0  0  0  0  0  0  0  0  0
    3.8410   -5.0745   -0.1465 H   0  0  0  0  0  0  0  0  0  0  0  0
    5.5029   -5.1962   -0.7338 H   0  0  0  0  0  0  0  0  0  0  0  0
    4.1430   -5.6319   -1.8021 H   0  0  0  0  0  0  0  0  0  0  0  0
    6.1382   -2.9328   -0.4710 H   0  0  0  0  0  0  0  0  0  0  0  0
    5.1580   -1.1860    0.6308 H   0  0  0  0  0  0  0  0  0  0  0  0
    4.7247   -0.5019   -0.9488 H   0  0  0  0  0  0  0  0  0  0  0  0
    3.1041   -2.6444    0.5483 H   0  0  0  0  0  0  0  0  0  0  0  0
    2.4738   -0.9866   -1.9075 H   0  0  0  0  0  0  0  0  0  0  0  0
    3.1669   -2.7757   -3.0824 H   0  0  0  0  0  0  0  0  0  0  0  0
    2.3666   -3.9495   -2.0650 H   0  0  0  0  0  0  0  0  0  0  0  0
    0.2817   -4.3651   -2.4115 H   0  0  0  0  0  0  0  0  0  0  0  0
   -2.1984   -3.1688   -1.9505 H   0  0  0  0  0  0  0  0  0  0  0  0
   -4.3073   -2.4493   -1.7930 H   0  0  0  0  0  0  0  0  0  0  0  0
   -3.8467   -0.7528   -1.9853 H   0  0  0  0  0  0  0  0  0  0  0  0
   -5.3002   -1.1772   -1.0829 H   0  0  0  0  0  0  0  0  0  0  0  0
   -4.7471    0.0334    0.8663 H   0  0  0  0  0  0  0  0  0  0  0  0
   -3.3106    0.6725    0.0493 H   0  0  0  0  0  0  0  0  0  0  0  0
   -3.1951   -0.0317    1.6662 H   0  0  0  0  0  0  0  0  0  0  0  0
   -5.6789   -3.2701   -0.0908 H   0  0  0  0  0  0  0  0  0  0  0  0
   -6.5034   -4.7736    1.6402 H   0  0  0  0  0  0  0  0  0  0  0  0
   -5.3201   -5.0028    3.8034 H   0  0  0  0  0  0  0  0  0  0  0  0
   -2.3576   -2.1972    2.4930 H   0  0  0  0  0  0  0  0  0  0  0  0
   -1.1992   -0.3424    1.1595 H   0  0  0  0  0  0  0  0  0  0  0  0
    3.4453    1.1307    0.4876 H   0  0  0  0  0  0  0  0  0  0  0  0
    4.2220    0.3225    1.8760 H   0  0  0  0  0  0  0  0  0  0  0  0
    2.7018    1.1958    2.0723 H   0  0  0  0  0  0  0  0  0  0  0  0
    1.6833   -0.8637    3.1222 H   0  0  0  0  0  0  0  0  0  0  0  0
    1.5983   -2.3727    2.2369 H   0  0  0  0  0  0  0  0  0  0  0  0
    3.1662   -1.8103    2.8423 H   0  0  0  0  0  0  0  0  0  0  0  0
  1  2  1  0  0  0  0
  1 29  1  0  0  0  0
  1 30  1  0  0  0  0
  1 31  1  0  0  0  0
  2  7  1  0  0  0  0
  2  3  2  0  0  0  0
  3  4  1  0  0  0  0
  3 32  1  0  0  0  0
  4 33  1  0  0  0  0
  4 34  1  0  0  0  0
  5  4  1  0  0  0  0
  5  6  1  0  0  0  0
  5 26  1  0  0  0  0
  5 35  1  1  0  0  0
  6  7  1  0  0  0  0
  6  8  1  0  0  0  0
  6 36  1  6  0  0  0
  7 37  1  0  0  0  0
  7 38  1  0  0  0  0
  8 24  2  0  0  0  0
  8  9  1  0  0  0  0
  9 10  1  0  0  0  0
  9 11  2  0  0  0  0
 10 39  1  0  0  0  0
 11 12  1  0  0  0  0
 11 40  1  0  0  0  0
 12 13  1  0  0  0  0
 12 23  2  0  0  0  0
 13 14  1  0  0  0  0
 13 15  1  0  0  0  0
 13 16  1  0  0  0  0
 14 41  1  0  0  0  0
 14 42  1  0  0  0  0
 14 43  1  0  0  0  0
 15 44  1  0  0  0  0
 15 45  1  0  0  0  0
 15 46  1  0  0  0  0
 16 22  2  0  0  0  0
 16 17  1  0  0  0  0
 17 18  2  0  0  0  0
 17 47  1  0  0  0  0
 18 19  1  0  0  0  0
 18 48  1  0  0  0  0
 19 20  2  0  0  0  0
 19 49  1  0  0  0  0
 20 21  1  0  0  0  0
 20 22  1  0  0  0  0
 22 50  1  0  0  0  0
 23 24  1  0  0  0  0
 23 51  1  0  0  0  0
 24 25  1  0  0  0  0
 25 26  1  0  0  0  0
 26 27  1  0  0  0  0
 26 28  1  0  0  0  0
 27 52  1  0  0  0  0
 27 53  1  0  0  0  0
 27 54  1  0  0  0  0
 28 55  1  0  0  0  0
 28 56  1  0  0  0  0
 28 57  1  0  0  0  0
M  END
$$$$
CHEMBL136120	5XRA	best_smi
 OpenBabel12022417423D

 71 74  0  0  1  0  0  0  0  0999 V2000
    5.7850    3.8183    0.4715 C   0  0  0  0  0  0  0  0  0  0  0  0
    4.4258    3.3327    0.9525 C   0  0  0  0  0  0  0  0  0  0  0  0
    4.5776    2.3092    1.8568 C   0  0  0  0  0  0  0  0  0  0  0  0
    4.3223    0.8468    1.3614 C   0  0  0  0  0  0  0  0  0  0  0  0
    3.8905    1.0203   -0.1020 C   0  0  2  0  0  0  0  0  0  0  0  0
    2.6279    1.8787    0.0657 C   0  0  1  0  0  0  0  0  0  0  0  0
    3.2304    3.2841   -0.1365 C   0  0  0  0  0  0  0  0  0  0  0  0
    1.4600    0.9761   -0.2487 C   0  0  0  0  0  0  0  0  0  0  0  0
    0.5593    0.5541    0.7502 C   0  0  0  0  0  0  0  0  0  0  0  0
    0.7298    0.9702    2.0530 O   0  0  0  0  0  0  0  0  0  0  0  0
   -0.2795   -0.5606    0.6291 C   0  0  0  0  0  0  0  0  0  0  0  0
   -0.1854   -1.3839   -0.4896 C   0  0  0  0  0  0  0  0  0  0  0  0
   -0.6525   -2.8540   -0.4313 C   0  0  0  0  0  0  0  0  0  0  0  0
   -1.7354   -3.1355    0.6322 C   0  0  0  0  0  0  0  0  0  0  0  0
   -1.2580   -3.2333   -1.7991 C   0  0  0  0  0  0  0  0  0  0  0  0
    0.6503   -3.6246   -0.0038 C   0  0  0  0  0  0  0  0  0  0  0  0
    0.5882   -5.1340    0.2275 C   0  0  0  0  0  0  0  0  0  0  0  0
    0.2701   -5.9625   -1.0084 C   0  0  0  0  0  0  0  0  0  0  0  0
    1.1730   -5.6535   -2.1928 C   0  0  0  0  0  0  0  0  0  0  0  0
    2.5046   -6.0020   -1.8303 O   0  0  0  0  0  0  0  0  0  0  0  0
    3.4318   -5.8880   -2.8185 C   0  0  0  0  0  0  0  0  0  0  0  0
    4.7465   -5.7428   -2.3953 C   0  0  0  0  0  0  0  0  0  0  0  0
    5.7820   -5.7082   -3.3226 C   0  0  0  0  0  0  0  0  0  0  0  0
    5.4754   -5.8259   -4.6940 C   0  0  0  0  0  0  0  0  0  0  0  0
    6.5502   -5.8405   -5.6391 C   0  0  0  0  0  0  0  0  0  0  0  0
    7.4234   -5.8470   -6.4069 N   0  0  0  0  0  0  0  0  0  0  0  0
    4.1741   -5.9572   -5.1156 C   0  0  0  0  0  0  0  0  0  0  0  0
    3.1408   -5.9874   -4.1864 C   0  0  0  0  0  0  0  0  0  0  0  0
    0.6656   -0.9699   -1.5222 C   0  0  0  0  0  0  0  0  0  0  0  0
    1.5319    0.1130   -1.3291 C   0  0  0  0  0  0  0  0  0  0  0  0
    2.6598    0.0563   -2.0865 O   0  0  0  0  0  0  0  0  0  0  0  0
    3.8793    0.0520   -1.3081 C   0  0  0  0  0  0  0  0  0  0  0  0
    4.8512    0.5741   -2.4111 C   0  0  0  0  0  0  0  0  0  0  0  0
    4.3171   -1.3440   -0.8795 C   0  0  0  0  0  0  0  0  0  0  0  0
    6.4592    2.9443    0.3948 H   0  0  0  0  0  0  0  0  0  0  0  0
    6.2510    4.5157    1.1674 H   0  0  0  0  0  0  0  0  0  0  0  0
    5.7529    4.2344   -0.5373 H   0  0  0  0  0  0  0  0  0  0  0  0
    5.3427    2.3709    2.6273 H   0  0  0  0  0  0  0  0  0  0  0  0
    5.2533    0.2848    1.4499 H   0  0  0  0  0  0  0  0  0  0  0  0
    3.5589    0.3649    1.9834 H   0  0  0  0  0  0  0  0  0  0  0  0
    4.7395    1.6143   -0.4536 H   0  0  0  0  0  0  0  0  0  0  0  0
    2.3577    2.0560    1.1126 H   0  0  0  0  0  0  0  0  0  0  0  0
    2.5114    4.0863    0.0564 H   0  0  0  0  0  0  0  0  0  0  0  0
    3.6187    3.4185   -1.1550 H   0  0  0  0  0  0  0  0  0  0  0  0
    1.2208    0.2336    2.4699 H   0  0  0  0  0  0  0  0  0  0  0  0
   -0.8547   -0.8615    1.5002 H   0  0  0  0  0  0  0  0  0  0  0  0
   -2.5835   -2.4512    0.5353 H   0  0  0  0  0  0  0  0  0  0  0  0
   -1.3371   -3.0456    1.6498 H   0  0  0  0  0  0  0  0  0  0  0  0
   -2.1204   -4.1582    0.5400 H   0  0  0  0  0  0  0  0  0  0  0  0
   -1.9583   -2.4620   -2.1422 H   0  0  0  0  0  0  0  0  0  0  0  0
   -1.8334   -4.1617   -1.7598 H   0  0  0  0  0  0  0  0  0  0  0  0
   -0.5075   -3.3430   -2.5850 H   0  0  0  0  0  0  0  0  0  0  0  0
    1.4756   -3.4072   -0.6945 H   0  0  0  0  0  0  0  0  0  0  0  0
    0.9962   -3.1959    0.9514 H   0  0  0  0  0  0  0  0  0  0  0  0
   -0.1268   -5.3711    1.0222 H   0  0  0  0  0  0  0  0  0  0  0  0
    1.5676   -5.4505    0.6138 H   0  0  0  0  0  0  0  0  0  0  0  0
   -0.7745   -5.8360   -1.2933 H   0  0  0  0  0  0  0  0  0  0  0  0
    0.3870   -7.0201   -0.7455 H   0  0  0  0  0  0  0  0  0  0  0  0
    0.8074   -6.2453   -3.0355 H   0  0  0  0  0  0  0  0  0  0  0  0
    1.1573   -4.5974   -2.4726 H   0  0  0  0  0  0  0  0  0  0  0  0
    4.9643   -5.6646   -1.3309 H   0  0  0  0  0  0  0  0  0  0  0  0
    6.8094   -5.6059   -2.9811 H   0  0  0  0  0  0  0  0  0  0  0  0
    3.9408   -6.0592   -6.1792 H   0  0  0  0  0  0  0  0  0  0  0  0
    2.1391   -6.1169   -4.5678 H   0  0  0  0  0  0  0  0  0  0  0  0
    0.8539   -1.6130   -2.3793 H   0  0  0  0  0  0  0  0  0  0  0  0
    4.5999    0.1567   -3.3944 H   0  0  0  0  0  0  0  0  0  0  0  0
    5.8987    0.3569   -2.1910 H   0  0  0  0  0  0  0  0  0  0  0  0
    4.7469    1.6620   -2.5367 H   0  0  0  0  0  0  0  0  0  0  0  0
    4.2013   -2.0713   -1.6870 H   0  0  0  0  0  0  0  0  0  0  0  0
    3.7244   -1.6976   -0.0295 H   0  0  0  0  0  0  0  0  0  0  0  0
    5.3685   -1.3337   -0.5648 H   0  0  0  0  0  0  0  0  0  0  0  0
  1  2  1  0  0  0  0
  1 35  1  0  0  0  0
  1 36  1  0  0  0  0
  1 37  1  0  0  0  0
  2  7  1  0  0  0  0
  2  3  2  0  0  0  0
  3  4  1  0  0  0  0
  3 38  1  0  0  0  0
  4 39  1  0  0  0  0
  4 40  1  0  0  0  0
  5  4  1  0  0  0  0
  5  6  1  0  0  0  0
  5 32  1  0  0  0  0
  5 41  1  6  0  0  0
  6  7  1  0  0  0  0
  6  8  1  0  0  0  0
  6 42  1  1  0  0  0
  7 43  1  0  0  0  0
  7 44  1  0  0  0  0
  8 30  2  0  0  0  0
  8  9  1  0  0  0  0
  9 10  1  0  0  0  0
  9 11  2  0  0  0  0
 10 45  1  0  0  0  0
 11 12  1  0  0  0  0
 11 46  1  0  0  0  0
 12 13  1  0  0  0  0
 12 29  2  0  0  0  0
 13 14  1  0  0  0  0
 13 15  1  0  0  0  0
 13 16  1  0  0  0  0
 14 47  1  0  0  0  0
 14 48  1  0  0  0  0
 14 49  1  0  0  0  0
 15 50  1  0  0  0  0
 15 51  1  0  0  0  0
 15 52  1  0  0  0  0
 16 17  1  0  0  0  0
 16 53  1  0  0  0  0
 16 54  1  0  0  0  0
 17 18  1  0  0  0  0
 17 55  1  0  0  0  0
 17 56  1  0  0  0  0
 18 19  1  0  0  0  0
 18 57  1  0  0  0  0
 18 58  1  0  0  0  0
 19 20  1  0  0  0  0
 19 59  1  0  0  0  0
 19 60  1  0  0  0  0
 20 21  1  0  0  0  0
 21 28  2  0  0  0  0
 21 22  1  0  0  0  0
 22 23  2  0  0  0  0
 22 61  1  0  0  0  0
 23 24  1  0  0  0  0
 23 62  1  0  0  0  0
 24 25  1  0  0  0  0
 24 27  2  0  0  0  0
 25 26  3  0  0  0  0
 27 28  1  0  0  0  0
 27 63  1  0  0  0  0
 28 64  1  0  0  0  0
 29 30  1  0  0  0  0
 29 65  1  0  0  0  0
 30 31  1  0  0  0  0
 31 32  1  0  0  0  0
 32 33  1  0  0  0  0
 32 34  1  0  0  0  0
 33 66  1  0  0  0  0
 33 67  1  0  0  0  0
 33 68  1  0  0  0  0
 34 69  1  0  0  0  0
 34 70  1  0  0  0  0
 34 71  1  0  0  0  0
M  END
$$$$
CHEMBL512531	5XRA	best_smi
 OpenBabel12022417423D

 57 60  0  0  1  0  0  0  0  0999 V2000
    5.8608   -0.6573    0.4852 C   0  0  0  0  0  0  0  0  0  0  0  0
    4.6662   -1.4304    0.9981 C   0  0  0  0  0  0  0  0  0  0  0  0
    4.1448   -0.8076    2.0602 C   0  0  0  0  0  0  0  0  0  0  0  0
    2.7682   -0.3116    1.8861 C   0  0  0  0  0  0  0  0  0  0  0  0
    2.2493   -0.3071    0.4372 C   0  0  2  0  0  0  0  0  0  0  0  0
    2.5259   -1.5562   -0.4151 C   0  0  1  0  0  0  0  0  0  0  0  0
    3.7754   -2.3279    0.1141 C   0  0  0  0  0  0  0  0  0  0  0  0
    1.1182   -1.8348   -0.8546 C   0  0  0  0  0  0  0  0  0  0  0  0
    0.2733   -2.8711   -0.5025 C   0  0  0  0  0  0  0  0  0  0  0  0
    0.7765   -4.0961   -0.1813 O   0  0  0  0  0  0  0  0  0  0  0  0
   -1.1256   -2.6590   -0.4713 C   0  0  0  0  0  0  0  0  0  0  0  0
   -1.7121   -1.4386   -0.8995 C   0  0  0  0  0  0  0  0  0  0  0  0
   -3.2387   -1.2073   -0.9284 C   0  0  0  0  0  0  0  0  0  0  0  0
   -3.7321   -2.1958   -2.0181 C   0  0  0  0  0  0  0  0  0  0  0  0
   -3.6450    0.2125   -1.4336 C   0  0  0  0  0  0  0  0  0  0  0  0
   -3.9313   -1.3789    0.4374 C   0  0  0  0  0  0  0  0  0  0  0  0
   -5.0096   -2.2679    0.6206 C   0  0  0  0  0  0  0  0  0  0  0  0
   -5.7404   -2.3176    1.8168 C   0  0  0  0  0  0  0  0  0  0  0  0
   -5.4170   -1.4688    2.8655 C   0  0  0  0  0  0  0  0  0  0  0  0
   -4.3585   -0.5862    2.7133 C   0  0  0  0  0  0  0  0  0  0  0  0
   -4.0641    0.2536    3.7155 F   0  0  0  0  0  0  0  0  0  0  0  0
   -3.6201   -0.5342    1.5346 C   0  0  0  0  0  0  0  0  0  0  0  0
   -0.8573   -0.4734   -1.4270 C   0  0  0  0  0  0  0  0  0  0  0  0
    0.5123   -0.6584   -1.3868 C   0  0  0  0  0  0  0  0  0  0  0  0
    1.2374    0.4940   -1.6406 O   0  0  0  0  0  0  0  0  0  0  0  0
    2.2427    0.8373   -0.6154 C   0  0  0  0  0  0  0  0  0  0  0  0
    1.7985    2.1571    0.0020 C   0  0  0  0  0  0  0  0  0  0  0  0
    3.5122    1.1078   -1.4572 C   0  0  0  0  0  0  0  0  0  0  0  0
    6.5720   -0.4046    1.2885 H   0  0  0  0  0  0  0  0  0  0  0  0
    6.3968   -1.1285   -0.3404 H   0  0  0  0  0  0  0  0  0  0  0  0
    5.5013    0.3193    0.1254 H   0  0  0  0  0  0  0  0  0  0  0  0
    4.7428   -0.2427    2.7642 H   0  0  0  0  0  0  0  0  0  0  0  0
    2.1113   -0.9470    2.5029 H   0  0  0  0  0  0  0  0  0  0  0  0
    2.6973    0.7000    2.3005 H   0  0  0  0  0  0  0  0  0  0  0  0
    1.1924   -0.3154    0.7596 H   0  0  0  0  0  0  0  0  0  0  0  0
    2.9504   -1.3327   -1.4131 H   0  0  0  0  0  0  0  0  0  0  0  0
    4.3829   -2.6858   -0.7185 H   0  0  0  0  0  0  0  0  0  0  0  0
    3.4826   -3.2253    0.6751 H   0  0  0  0  0  0  0  0  0  0  0  0
    0.1778   -4.7456   -0.5990 H   0  0  0  0  0  0  0  0  0  0  0  0
   -1.7706   -3.4469   -0.0860 H   0  0  0  0  0  0  0  0  0  0  0  0
   -4.7916   -2.0531   -2.2514 H   0  0  0  0  0  0  0  0  0  0  0  0
   -3.5891   -3.2390   -1.7145 H   0  0  0  0  0  0  0  0  0  0  0  0
   -3.1708   -2.0558   -2.9516 H   0  0  0  0  0  0  0  0  0  0  0  0
   -3.2920    0.4003   -2.4557 H   0  0  0  0  0  0  0  0  0  0  0  0
   -4.7342    0.3377   -1.4487 H   0  0  0  0  0  0  0  0  0  0  0  0
   -3.2407    1.0118   -0.7981 H   0  0  0  0  0  0  0  0  0  0  0  0
   -5.3314   -2.9313   -0.1804 H   0  0  0  0  0  0  0  0  0  0  0  0
   -6.5747   -3.0080    1.9115 H   0  0  0  0  0  0  0  0  0  0  0  0
   -5.9889   -1.4834    3.7884 H   0  0  0  0  0  0  0  0  0  0  0  0
   -2.8208    0.2051    1.4581 H   0  0  0  0  0  0  0  0  0  0  0  0
   -1.2070    0.4866   -1.7878 H   0  0  0  0  0  0  0  0  0  0  0  0
    1.5684    2.8868   -0.7816 H   0  0  0  0  0  0  0  0  0  0  0  0
    2.5768    2.5682    0.6507 H   0  0  0  0  0  0  0  0  0  0  0  0
    0.8832    2.0260    0.5858 H   0  0  0  0  0  0  0  0  0  0  0  0
    4.2450    1.7162   -0.9250 H   0  0  0  0  0  0  0  0  0  0  0  0
    3.2413    1.6433   -2.3787 H   0  0  0  0  0  0  0  0  0  0  0  0
    4.0217    0.2090   -1.8158 H   0  0  0  0  0  0  0  0  0  0  0  0
  1  2  1  0  0  0  0
  1 29  1  0  0  0  0
  1 30  1  0  0  0  0
  1 31  1  0  0  0  0
  2  7  1  0  0  0  0
  2  3  2  0  0  0  0
  3  4  1  0  0  0  0
  3 32  1  0  0  0  0
  4 33  1  0  0  0  0
  4 34  1  0  0  0  0
  5  4  1  0  0  0  0
  5  6  1  0  0  0  0
  5 26  1  0  0  0  0
  5 35  1  1  0  0  0
  6  7  1  0  0  0  0
  6  8  1  0  0  0  0
  6 36  1  6  0  0  0
  7 37  1  0  0  0  0
  7 38  1  0  0  0  0
  8 24  2  0  0  0  0
  8  9  1  0  0  0  0
  9 10  1  0  0  0  0
  9 11  2  0  0  0  0
 10 39  1  0  0  0  0
 11 12  1  0  0  0  0
 11 40  1  0  0  0  0
 12 13  1  0  0  0  0
 12 23  2  0  0  0  0
 13 14  1  0  0  0  0
 13 15  1  0  0  0  0
 13 16  1  0  0  0  0
 14 41  1  0  0  0  0
 14 42  1  0  0  0  0
 14 43  1  0  0  0  0
 15 44  1  0  0  0  0
 15 45  1  0  0  0  0
 15 46  1  0  0  0  0
 16 22  2  0  0  0  0
 16 17  1  0  0  0  0
 17 18  2  0  0  0  0
 17 47  1  0  0  0  0
 18 19  1  0  0  0  0
 18 48  1  0  0  0  0
 19 20  2  0  0  0  0
 19 49  1  0  0  0  0
 20 21  1  0  0  0  0
 20 22  1  0  0  0  0
 22 50  1  0  0  0  0
 23 24  1  0  0  0  0
 23 51  1  0  0  0  0
 24 25  1  0  0  0  0
 25 26  1  0  0  0  0
 26 27  1  0  0  0  0
 26 28  1  0  0  0  0
 27 52  1  0  0  0  0
 27 53  1  0  0  0  0
 27 54  1  0  0  0  0
 28 55  1  0  0  0  0
 28 56  1  0  0  0  0
 28 57  1  0  0  0  0
M  END
$$$$
CHEMBL947	5XRA	best_smi
 OpenBabel12022417423D

 63 65  0  0  1  0  0  0  0  0999 V2000
    7.1084    2.1481    4.4165 C   0  0  0  0  0  0  0  0  0  0  0  0
    6.5884    3.0089    3.2751 C   0  0  0  0  0  0  0  0  0  0  0  0
    7.0784    2.4779    1.9324 C   0  0  0  0  0  0  0  0  0  0  0  0
    6.5760    3.3220    0.7604 C   0  0  0  0  0  0  0  0  0  0  0  0
    7.0947    2.7326   -0.5504 C   0  0  0  0  0  0  0  0  0  0  0  0
    6.6323    3.5292   -1.7772 C   0  0  0  0  0  0  0  0  0  0  0  0
    7.1366    2.9509   -3.1348 C   0  0  0  0  0  0  0  0  0  0  0  0
    6.4955    1.5541   -3.3541 C   0  0  0  0  0  0  0  0  0  0  0  0
    6.6116    3.8466   -4.2791 C   0  0  0  0  0  0  0  0  0  0  0  0
    8.6747    2.9170   -3.1833 C   0  0  0  0  0  0  0  0  0  0  0  0
    9.3692    1.7189   -3.3828 C   0  0  0  0  0  0  0  0  0  0  0  0
   10.7628    1.6623   -3.3702 C   0  0  0  0  0  0  0  0  0  0  0  0
   11.3558    0.4578   -3.6196 O   0  0  0  0  0  0  0  0  0  0  0  0
   11.5410    2.7936   -3.1231 C   0  0  0  0  0  0  0  0  0  0  0  0
   10.8667    4.0216   -2.9987 C   0  0  0  0  0  0  0  0  0  0  0  0
    9.4560    4.0768   -3.0086 C   0  0  0  0  0  0  0  0  0  0  0  0
   11.4887    5.2338   -2.8459 O   0  0  0  0  0  0  0  0  0  0  0  0
   12.9214    5.2578   -3.0381 C   0  0  0  0  0  0  0  0  0  0  0  0
   13.4086    6.5760   -2.4090 C   0  0  0  0  0  0  0  0  0  0  0  0
   13.2122    5.3411   -4.5506 C   0  0  0  0  0  0  0  0  0  0  0  0
   13.5415    4.0316   -2.3138 C   0  0  2  0  0  0  0  0  0  0  0  0
   15.0720    4.0750   -2.1550 C   0  0  0  0  0  0  0  0  0  0  0  0
   15.6159    2.8306   -1.4659 C   0  0  0  0  0  0  0  0  0  0  0  0
   15.1227    1.6145   -2.1919 C   0  0  0  0  0  0  0  0  0  0  0  0
   15.8896    0.7453   -2.6007 O   0  0  0  0  0  0  0  0  0  0  0  0
   13.6274    1.4965   -2.3222 C   0  0  0  0  0  0  0  0  0  0  0  0
   13.0590    2.7407   -3.0255 C   0  0  1  0  0  0  0  0  0  0  0  0
    6.7537    2.5351    5.3764 H   0  0  0  0  0  0  0  0  0  0  0  0
    8.2026    2.1417    4.4338 H   0  0  0  0  0  0  0  0  0  0  0  0
    6.7621    1.1144    4.3162 H   0  0  0  0  0  0  0  0  0  0  0  0
    6.9276    4.0414    3.4155 H   0  0  0  0  0  0  0  0  0  0  0  0
    5.4928    3.0176    3.2970 H   0  0  0  0  0  0  0  0  0  0  0  0
    6.7417    1.4411    1.8062 H   0  0  0  0  0  0  0  0  0  0  0  0
    8.1756    2.4604    1.9248 H   0  0  0  0  0  0  0  0  0  0  0  0
    6.9205    4.3575    0.8686 H   0  0  0  0  0  0  0  0  0  0  0  0
    5.4795    3.3388    0.7545 H   0  0  0  0  0  0  0  0  0  0  0  0
    6.7472    1.6968   -0.6212 H   0  0  0  0  0  0  0  0  0  0  0  0
    8.1895    2.7032   -0.5135 H   0  0  0  0  0  0  0  0  0  0  0  0
    6.9566    4.5720   -1.6648 H   0  0  0  0  0  0  0  0  0  0  0  0
    5.5343    3.5556   -1.7852 H   0  0  0  0  0  0  0  0  0  0  0  0
    5.4024    1.6069   -3.3312 H   0  0  0  0  0  0  0  0  0  0  0  0
    6.8017    0.8308   -2.5905 H   0  0  0  0  0  0  0  0  0  0  0  0
    6.7768    1.1339   -4.3280 H   0  0  0  0  0  0  0  0  0  0  0  0
    5.5152    3.8437   -4.3046 H   0  0  0  0  0  0  0  0  0  0  0  0
    6.9651    3.4921   -5.2549 H   0  0  0  0  0  0  0  0  0  0  0  0
    6.9297    4.8892   -4.1701 H   0  0  0  0  0  0  0  0  0  0  0  0
    8.8311    0.7926   -3.5509 H   0  0  0  0  0  0  0  0  0  0  0  0
   10.6758   -0.2318   -3.7045 H   0  0  0  0  0  0  0  0  0  0  0  0
    8.9786    5.0509   -2.8738 H   0  0  0  0  0  0  0  0  0  0  0  0
   12.8732    7.4340   -2.8336 H   0  0  0  0  0  0  0  0  0  0  0  0
   14.4778    6.7395   -2.5798 H   0  0  0  0  0  0  0  0  0  0  0  0
   13.2176    6.5930   -1.3309 H   0  0  0  0  0  0  0  0  0  0  0  0
   12.8209    6.2781   -4.9658 H   0  0  0  0  0  0  0  0  0  0  0  0
   12.7145    4.5492   -5.1187 H   0  0  0  0  0  0  0  0  0  0  0  0
   14.2847    5.2995   -4.7628 H   0  0  0  0  0  0  0  0  0  0  0  0
   13.1250    4.0152   -1.2928 H   0  0  0  0  0  0  0  0  0  0  0  0
   15.3658    4.9390   -1.5479 H   0  0  0  0  0  0  0  0  0  0  0  0
   15.5506    4.1870   -3.1351 H   0  0  0  0  0  0  0  0  0  0  0  0
   15.2801    2.7671   -0.4261 H   0  0  0  0  0  0  0  0  0  0  0  0
   16.7107    2.8384   -1.4710 H   0  0  0  0  0  0  0  0  0  0  0  0
   13.1936    1.3571   -1.3258 H   0  0  0  0  0  0  0  0  0  0  0  0
   13.4531    0.5838   -2.8967 H   0  0  0  0  0  0  0  0  0  0  0  0
   13.4505    2.7312   -4.0521 H   0  0  0  0  0  0  0  0  0  0  0  0
  1  2  1  0  0  0  0
  1 28  1  0  0  0  0
  1 29  1  0  0  0  0
  1 30  1  0  0  0  0
  2  3  1  0  0  0  0
  2 31  1  0  0  0  0
  2 32  1  0  0  0  0
  3  4  1  0  0  0  0
  3 33  1  0  0  0  0
  3 34  1  0  0  0  0
  4  5  1  0  0  0  0
  4 35  1  0  0  0  0
  4 36  1  0  0  0  0
  5  6  1  0  0  0  0
  5 37  1  0  0  0  0
  5 38  1  0  0  0  0
  6  7  1  0  0  0  0
  6 39  1  0  0  0  0
  6 40  1  0  0  0  0
  7  8  1  0  0  0  0
  7  9  1  0  0  0  0
  7 10  1  0  0  0  0
  8 41  1  0  0  0  0
  8 42  1  0  0  0  0
  8 43  1  0  0  0  0
  9 44  1  0  0  0  0
  9 45  1  0  0  0  0
  9 46  1  0  0  0  0
 10 16  2  0  0  0  0
 10 11  1  0  0  0  0
 11 12  2  0  0  0  0
 11 47  1  0  0  0  0
 12 13  1  0  0  0  0
 12 14  1  0  0  0  0
 13 48  1  0  0  0  0
 14 27  1  0  0  0  0
 14 15  2  0  0  0  0
 15 16  1  0  0  0  0
 15 17  1  0  0  0  0
 16 49  1  0  0  0  0
 17 18  1  0  0  0  0
 18 19  1  0  0  0  0
 18 20  1  0  0  0  0
 18 21  1  0  0  0  0
 19 50  1  0  0  0  0
 19 51  1  0  0  0  0
 19 52  1  0  0  0  0
 20 53  1  0  0  0  0
 20 54  1  0  0  0  0
 20 55  1  0  0  0  0
 21 22  1  0  0  0  0
 21 27  1  0  0  0  0
 21 56  1  1  0  0  0
 22 23  1  0  0  0  0
 22 57  1  0  0  0  0
 22 58  1  0  0  0  0
 23 24  1  0  0  0  0
 23 59  1  0  0  0  0
 23 60  1  0  0  0  0
 24 25  2  0  0  0  0
 24 26  1  0  0  0  0
 26 61  1  0  0  0  0
 26 62  1  0  0  0  0
 27 26  1  0  0  0  0
 27 63  1  6  0  0  0
M  END
$$$$
CHEMBL75330	5XRA	best_smi
 OpenBabel12022417423D

 53 55  0  0  1  0  0  0  0  0999 V2000
    1.1606    0.9922    0.0122 C   0  0  0  0  0  0  0  0  0  0  0  0
    2.6006    1.2792    0.3257 C   0  0  0  0  0  0  0  0  0  0  0  0
    3.4938    0.2769    0.3244 C   0  0  0  0  0  0  0  0  0  0  0  0
    4.9043    0.4797    0.7483 C   0  0  0  0  0  0  0  0  0  0  0  0
    5.0344    1.5814    1.8027 C   0  0  3  0  0  0  0  0  0  0  0  0
    4.4168    2.8915    1.2801 C   0  0  3  0  0  0  0  0  0  0  0  0
    2.9798    2.7041    0.7021 C   0  0  0  0  0  0  0  0  0  0  0  0
    4.5371    3.9596    2.3560 C   0  0  0  0  0  0  0  0  0  0  0  0
    4.3975    5.3302    2.1034 C   0  0  0  0  0  0  0  0  0  0  0  0
    4.1219    5.8369    0.8642 O   0  0  0  0  0  0  0  0  0  0  0  0
    4.5529    6.2860    3.1175 C   0  0  0  0  0  0  0  0  0  0  0  0
    4.8630    5.8997    4.4267 C   0  0  0  0  0  0  0  0  0  0  0  0
    5.0362    6.9069    5.5359 C   0  0  0  0  0  0  0  0  0  0  0  0
    3.8107    7.7914    5.7879 C   0  0  0  0  0  0  0  0  0  0  0  0
    2.5705    7.0043    6.2239 C   0  0  0  0  0  0  0  0  0  0  0  0
    1.3892    7.9430    6.4622 C   0  0  0  0  0  0  0  0  0  0  0  0
    0.1351    7.1882    6.8624 C   0  0  0  0  0  0  0  0  0  0  0  0
   -0.8673    8.0879    7.0545 F   0  0  0  0  0  0  0  0  0  0  0  0
    5.0256    4.5415    4.6889 C   0  0  0  0  0  0  0  0  0  0  0  0
    4.8540    3.5945    3.6776 C   0  0  0  0  0  0  0  0  0  0  0  0
    5.0566    2.3000    4.1017 O   0  0  0  0  0  0  0  0  0  0  0  0
    4.5224    1.2716    3.2389 C   0  0  0  0  0  0  0  0  0  0  0  0
    3.0083    1.2195    3.5172 C   0  0  0  0  0  0  0  0  0  0  0  0
    5.1083   -0.0522    3.7502 C   0  0  0  0  0  0  0  0  0  0  0  0
    1.0659    0.1983   -0.7374 H   0  0  0  0  0  0  0  0  0  0  0  0
    0.6506    1.8771   -0.3762 H   0  0  0  0  0  0  0  0  0  0  0  0
    0.6428    0.6645    0.9213 H   0  0  0  0  0  0  0  0  0  0  0  0
    3.1974   -0.7376    0.0644 H   0  0  0  0  0  0  0  0  0  0  0  0
    5.4886    0.7503   -0.1417 H   0  0  0  0  0  0  0  0  0  0  0  0
    5.3335   -0.4591    1.1098 H   0  0  0  0  0  0  0  0  0  0  0  0
    6.1180    1.7649    1.9007 H   0  0  0  0  0  0  0  0  0  0  0  0
    5.0588    3.2119    0.4450 H   0  0  0  0  0  0  0  0  0  0  0  0
    2.2296    3.1026    1.3941 H   0  0  0  0  0  0  0  0  0  0  0  0
    2.8911    3.3181   -0.2050 H   0  0  0  0  0  0  0  0  0  0  0  0
    4.2964    5.1617    0.1926 H   0  0  0  0  0  0  0  0  0  0  0  0
    4.4432    7.3389    2.8669 H   0  0  0  0  0  0  0  0  0  0  0  0
    5.8955    7.5422    5.2877 H   0  0  0  0  0  0  0  0  0  0  0  0
    5.3003    6.3954    6.4709 H   0  0  0  0  0  0  0  0  0  0  0  0
    3.5775    8.3764    4.8909 H   0  0  0  0  0  0  0  0  0  0  0  0
    4.0665    8.5142    6.5728 H   0  0  0  0  0  0  0  0  0  0  0  0
    2.7909    6.4450    7.1412 H   0  0  0  0  0  0  0  0  0  0  0  0
    2.2967    6.2723    5.4556 H   0  0  0  0  0  0  0  0  0  0  0  0
    1.1795    8.5248    5.5565 H   0  0  0  0  0  0  0  0  0  0  0  0
    1.6343    8.6722    7.2435 H   0  0  0  0  0  0  0  0  0  0  0  0
    0.2764    6.6378    7.7969 H   0  0  0  0  0  0  0  0  0  0  0  0
   -0.1833    6.4918    6.0813 H   0  0  0  0  0  0  0  0  0  0  0  0
    5.2808    4.2013    5.6920 H   0  0  0  0  0  0  0  0  0  0  0  0
    2.4966    2.1574    3.2934 H   0  0  0  0  0  0  0  0  0  0  0  0
    2.8277    1.0737    4.5903 H   0  0  0  0  0  0  0  0  0  0  0  0
    2.5103    0.4050    2.9876 H   0  0  0  0  0  0  0  0  0  0  0  0
    6.1973   -0.0606    3.6630 H   0  0  0  0  0  0  0  0  0  0  0  0
    4.7000   -0.9100    3.2051 H   0  0  0  0  0  0  0  0  0  0  0  0
    4.8817   -0.1964    4.8135 H   0  0  0  0  0  0  0  0  0  0  0  0
  1  2  1  0  0  0  0
  1 25  1  0  0  0  0
  1 26  1  0  0  0  0
  1 27  1  0  0  0  0
  2  7  1  0  0  0  0
  2  3  2  0  0  0  0
  3  4  1  0  0  0  0
  3 28  1  0  0  0  0
  4  5  1  0  0  0  0
  4 29  1  0  0  0  0
  4 30  1  0  0  0  0
  5 22  1  0  0  0  0
  5  6  1  0  0  0  0
  5 31  1  0  0  0  0
  6  7  1  0  0  0  0
  6  8  1  0  0  0  0
  6 32  1  0  0  0  0
  7 33  1  0  0  0  0
  7 34  1  0  0  0  0
  8 20  2  0  0  0  0
  8  9  1  0  0  0  0
  9 10  1  0  0  0  0
  9 11  2  0  0  0  0
 10 35  1  0  0  0  0
 11 12  1  0  0  0  0
 11 36  1  0  0  0  0
 12 13  1  0  0  0  0
 12 19  2  0  0  0  0
 13 14  1  0  0  0  0
 13 37  1  0  0  0  0
 13 38  1  0  0  0  0
 14 15  1  0  0  0  0
 14 39  1  0  0  0  0
 14 40  1  0  0  0  0
 15 16  1  0  0  0  0
 15 41  1  0  0  0  0
 15 42  1  0  0  0  0
 16 17  1  0  0  0  0
 16 43  1  0  0  0  0
 16 44  1  0  0  0  0
 17 18  1  0  0  0  0
 17 45  1  0  0  0  0
 17 46  1  0  0  0  0
 19 20  1  0  0  0  0
 19 47  1  0  0  0  0
 20 21  1  0  0  0  0
 21 22  1  0  0  0  0
 22 23  1  0  0  0  0
 22 24  1  0  0  0  0
 23 48  1  0  0  0  0
 23 49  1  0  0  0  0
 23 50  1  0  0  0  0
 24 51  1  0  0  0  0
 24 52  1  0  0  0  0
 24 53  1  0  0  0  0
M  END
$$$$
CHEMBL336670	5XRA	best_smi
 OpenBabel12022417423D

 60 62  0  0  1  0  0  0  0  0999 V2000
    5.3828   -1.0961    2.6223 C   0  0  0  0  0  0  0  0  0  0  0  0
    4.8284   -1.6827    1.3572 C   0  0  0  0  0  0  0  0  0  0  0  0
    5.4716   -1.5184    0.1864 C   0  0  0  0  0  0  0  0  0  0  0  0
    4.7622   -1.7407   -1.1165 C   0  0  0  0  0  0  0  0  0  0  0  0
    3.3058   -1.3085   -0.8947 C   0  0  2  0  0  0  0  0  0  0  0  0
    2.6533   -2.3478    0.0812 C   0  0  1  0  0  0  0  0  0  0  0  0
    3.4326   -2.2925    1.4317 C   0  0  0  0  0  0  0  0  0  0  0  0
    1.1631   -2.0743    0.0969 C   0  0  0  0  0  0  0  0  0  0  0  0
    0.3405   -1.8851    1.1964 C   0  0  0  0  0  0  0  0  0  0  0  0
    0.6528   -2.3410    2.4396 O   0  0  0  0  0  0  0  0  0  0  0  0
   -0.8387   -1.1497    1.0726 C   0  0  0  0  0  0  0  0  0  0  0  0
   -1.2850   -0.7136   -0.1865 C   0  0  0  0  0  0  0  0  0  0  0  0
   -2.3415    0.3897   -0.3369 C   0  0  0  0  0  0  0  0  0  0  0  0
   -2.2503    1.0994   -1.7173 C   0  0  0  0  0  0  0  0  0  0  0  0
   -2.1050    1.4944    0.7236 C   0  0  0  0  0  0  0  0  0  0  0  0
   -3.7135   -0.2886   -0.1645 C   0  0  0  0  0  0  0  0  0  0  0  0
   -4.9039    0.6520   -0.3030 C   0  0  0  0  0  0  0  0  0  0  0  0
   -6.2080   -0.1267   -0.1453 C   0  0  0  0  0  0  0  0  0  0  0  0
   -7.3956    0.8129   -0.2780 C   0  0  0  0  0  0  0  0  0  0  0  0
   -8.6447    0.0735   -0.1319 C   0  0  0  0  0  0  0  0  0  0  0  0
   -9.6427   -0.5194   -0.0139 N   0  0  0  0  0  0  0  0  0  0  0  0
   -0.6624   -1.2517   -1.3088 C   0  0  0  0  0  0  0  0  0  0  0  0
    0.5891   -1.8249   -1.1539 C   0  0  0  0  0  0  0  0  0  0  0  0
    1.3600   -1.8830   -2.2895 O   0  0  0  0  0  0  0  0  0  0  0  0
    2.4609   -0.9576   -2.1520 C   0  0  0  0  0  0  0  0  0  0  0  0
    1.9405    0.5081   -2.0174 C   0  0  0  0  0  0  0  0  0  0  0  0
    3.2104   -1.0099   -3.4845 C   0  0  0  0  0  0  0  0  0  0  0  0
    5.0174   -0.0661    2.7272 H   0  0  0  0  0  0  0  0  0  0  0  0
    6.4764   -1.0666    2.6137 H   0  0  0  0  0  0  0  0  0  0  0  0
    5.0604   -1.6597    3.5013 H   0  0  0  0  0  0  0  0  0  0  0  0
    6.4394   -1.0243    0.1453 H   0  0  0  0  0  0  0  0  0  0  0  0
    4.8442   -2.7894   -1.4251 H   0  0  0  0  0  0  0  0  0  0  0  0
    5.2521   -1.1260   -1.8752 H   0  0  0  0  0  0  0  0  0  0  0  0
    3.3514   -0.3583   -0.3347 H   0  0  0  0  0  0  0  0  0  0  0  0
    2.7770   -3.3593   -0.3355 H   0  0  0  0  0  0  0  0  0  0  0  0
    3.5269   -3.3142    1.8252 H   0  0  0  0  0  0  0  0  0  0  0  0
    2.8807   -1.7159    2.1771 H   0  0  0  0  0  0  0  0  0  0  0  0
    0.5482   -3.3091    2.3881 H   0  0  0  0  0  0  0  0  0  0  0  0
   -1.3666   -0.8662    1.9804 H   0  0  0  0  0  0  0  0  0  0  0  0
   -2.8576    2.0103   -1.7511 H   0  0  0  0  0  0  0  0  0  0  0  0
   -1.2210    1.4020   -1.9476 H   0  0  0  0  0  0  0  0  0  0  0  0
   -2.6035    0.4539   -2.5297 H   0  0  0  0  0  0  0  0  0  0  0  0
   -2.4080    1.1730    1.7255 H   0  0  0  0  0  0  0  0  0  0  0  0
   -1.0460    1.7804    0.7698 H   0  0  0  0  0  0  0  0  0  0  0  0
   -2.6707    2.4051    0.4960 H   0  0  0  0  0  0  0  0  0  0  0  0
   -3.8118   -1.0951   -0.9045 H   0  0  0  0  0  0  0  0  0  0  0  0
   -3.7628   -0.7757    0.8187 H   0  0  0  0  0  0  0  0  0  0  0  0
   -4.8562    1.4389    0.4561 H   0  0  0  0  0  0  0  0  0  0  0  0
   -4.8995    1.1377   -1.2843 H   0  0  0  0  0  0  0  0  0  0  0  0
   -6.2585   -0.9168   -0.9072 H   0  0  0  0  0  0  0  0  0  0  0  0
   -6.2223   -0.6276    0.8300 H   0  0  0  0  0  0  0  0  0  0  0  0
   -7.3746    1.3052   -1.2566 H   0  0  0  0  0  0  0  0  0  0  0  0
   -7.3401    1.5951    0.4823 H   0  0  0  0  0  0  0  0  0  0  0  0
   -1.0039   -1.0460   -2.3175 H   0  0  0  0  0  0  0  0  0  0  0  0
    1.2268    0.7525   -2.8133 H   0  0  0  0  0  0  0  0  0  0  0  0
    2.7665    1.2253   -2.0496 H   0  0  0  0  0  0  0  0  0  0  0  0
    1.4169    0.6794   -1.0675 H   0  0  0  0  0  0  0  0  0  0  0  0
    2.5366   -0.7284   -4.3098 H   0  0  0  0  0  0  0  0  0  0  0  0
    3.5627   -2.0172   -3.7056 H   0  0  0  0  0  0  0  0  0  0  0  0
    4.0542   -0.3108   -3.5085 H   0  0  0  0  0  0  0  0  0  0  0  0
  1  2  1  0  0  0  0
  1 28  1  0  0  0  0
  1 29  1  0  0  0  0
  1 30  1  0  0  0  0
  2  7  1  0  0  0  0
  2  3  2  0  0  0  0
  3  4  1  0  0  0  0
  3 31  1  0  0  0  0
  4 32  1  0  0  0  0
  4 33  1  0  0  0  0
  5  4  1  0  0  0  0
  5  6  1  0  0  0  0
  5 25  1  0  0  0  0
  5 34  1  1  0  0  0
  6  7  1  0  0  0  0
  6  8  1  0  0  0  0
  6 35  1  6  0  0  0
  7 36  1  0  0  0  0
  7 37  1  0  0  0  0
  8 23  2  0  0  0  0
  8  9  1  0  0  0  0
  9 10  1  0  0  0  0
  9 11  2  0  0  0  0
 10 38  1  0  0  0  0
 11 12  1  0  0  0  0
 11 39  1  0  0  0  0
 12 13  1  0  0  0  0
 12 22  2  0  0  0  0
 13 14  1  0  0  0  0
 13 15  1  0  0  0  0
 13 16  1  0  0  0  0
 14 40  1  0  0  0  0
 14 41  1  0  0  0  0
 14 42  1  0  0  0  0
 15 43  1  0  0  0  0
 15 44  1  0  0  0  0
 15 45  1  0  0  0  0
 16 17  1  0  0  0  0
 16 46  1  0  0  0  0
 16 47  1  0  0  0  0
 17 18  1  0  0  0  0
 17 48  1  0  0  0  0
 17 49  1  0  0  0  0
 18 19  1  0  0  0  0
 18 50  1  0  0  0  0
 18 51  1  0  0  0  0
 19 20  1  0  0  0  0
 19 52  1  0  0  0  0
 19 53  1  0  0  0  0
 20 21  3  0  0  0  0
 22 23  1  0  0  0  0
 22 54  1  0  0  0  0
 23 24  1  0  0  0  0
 24 25  1  0  0  0  0
 25 26  1  0  0  0  0
 25 27  1  0  0  0  0
 26 55  1  0  0  0  0
 26 56  1  0  0  0  0
 26 57  1  0  0  0  0
 27 58  1  0  0  0  0
 27 59  1  0  0  0  0
 27 60  1  0  0  0  0
M  END
$$$$
CHEMBL398905	5XRA	best_smi
 OpenBabel12022417423D

 59 61  0  0  1  0  0  0  0  0999 V2000
    2.6210  -10.1328   -3.4611 C   0  0  0  0  0  0  0  0  0  0  0  0
    3.1540   -8.8054   -2.9458 C   0  0  0  0  0  0  0  0  0  0  0  0
    2.7207   -8.5306   -1.5032 C   0  0  0  0  0  0  0  0  0  0  0  0
    3.3246   -7.2151   -1.0123 C   0  0  0  0  0  0  0  0  0  0  0  0
    2.8837   -6.7539    0.4073 C   0  0  0  0  0  0  0  0  0  0  0  0
    3.3436   -7.7427    1.4902 C   0  0  0  0  0  0  0  0  0  0  0  0
    3.6901   -5.4348    0.6958 C   0  0  0  0  0  0  0  0  0  0  0  0
    1.3735   -6.4479    0.4569 C   0  0  0  0  0  0  0  0  0  0  0  0
    0.3708   -7.1015    1.1882 C   0  0  0  0  0  0  0  0  0  0  0  0
   -0.9473   -6.5412    1.3067 C   0  0  0  0  0  0  0  0  0  0  0  0
   -1.8988   -7.2108    2.0254 O   0  0  0  0  0  0  0  0  0  0  0  0
   -1.2392   -5.2643    0.8115 C   0  0  0  0  0  0  0  0  0  0  0  0
   -0.1743   -4.6485    0.1760 C   0  0  0  0  0  0  0  0  0  0  0  0
    0.9925   -5.2892   -0.1976 C   0  0  0  0  0  0  0  0  0  0  0  0
    0.0276   -3.3002    0.1919 O   0  0  0  0  0  0  0  0  0  0  0  0
   -1.0776   -2.5148   -0.1673 C   0  0  0  0  0  0  0  0  0  0  0  0
   -1.1365   -2.5702   -1.7200 C   0  0  0  0  0  0  0  0  0  0  0  0
   -0.7041   -1.0960    0.2446 C   0  0  0  0  0  0  0  0  0  0  0  0
   -2.3888   -3.0312    0.4221 C   0  0  2  0  0  0  0  0  0  0  0  0
   -3.3134   -2.1013    1.2431 C   0  0  0  0  0  0  0  0  0  0  0  0
   -4.6987   -2.4804    0.7802 C   0  0  0  0  0  0  0  0  0  0  0  0
   -4.8988   -3.7595    0.3795 C   0  0  0  0  0  0  0  0  0  0  0  0
   -5.6262   -3.9401   -0.9301 C   0  0  0  0  0  0  0  0  0  0  0  0
   -3.9373   -4.9023    0.8576 C   0  0  0  0  0  0  0  0  0  0  0  0
   -2.4597   -4.4151    1.1410 C   0  0  1  0  0  0  0  0  0  0  0  0
    1.7334  -10.4623   -2.9130 H   0  0  0  0  0  0  0  0  0  0  0  0
    2.3553  -10.0478   -4.5198 H   0  0  0  0  0  0  0  0  0  0  0  0
    3.3861  -10.9109   -3.3732 H   0  0  0  0  0  0  0  0  0  0  0  0
    2.7883   -7.9966   -3.5904 H   0  0  0  0  0  0  0  0  0  0  0  0
    4.2483   -8.8001   -3.0223 H   0  0  0  0  0  0  0  0  0  0  0  0
    1.6275   -8.4819   -1.4633 H   0  0  0  0  0  0  0  0  0  0  0  0
    3.0406   -9.3567   -0.8578 H   0  0  0  0  0  0  0  0  0  0  0  0
    3.0827   -6.4308   -1.7444 H   0  0  0  0  0  0  0  0  0  0  0  0
    4.4196   -7.3073   -1.0359 H   0  0  0  0  0  0  0  0  0  0  0  0
    3.1114   -7.3584    2.4924 H   0  0  0  0  0  0  0  0  0  0  0  0
    4.4302   -7.8869    1.4462 H   0  0  0  0  0  0  0  0  0  0  0  0
    2.8723   -8.7229    1.3913 H   0  0  0  0  0  0  0  0  0  0  0  0
    4.7691   -5.6199    0.7165 H   0  0  0  0  0  0  0  0  0  0  0  0
    3.5496   -4.6638   -0.0733 H   0  0  0  0  0  0  0  0  0  0  0  0
    3.3999   -4.9912    1.6542 H   0  0  0  0  0  0  0  0  0  0  0  0
    0.6137   -8.0121    1.7351 H   0  0  0  0  0  0  0  0  0  0  0  0
   -1.5411   -8.0729    2.2921 H   0  0  0  0  0  0  0  0  0  0  0  0
    1.6763   -4.7299   -0.8193 H   0  0  0  0  0  0  0  0  0  0  0  0
   -1.9164   -1.9061   -2.1177 H   0  0  0  0  0  0  0  0  0  0  0  0
   -1.3562   -3.5861   -2.0744 H   0  0  0  0  0  0  0  0  0  0  0  0
   -0.1762   -2.2979   -2.1651 H   0  0  0  0  0  0  0  0  0  0  0  0
    0.2915   -0.8408   -0.1372 H   0  0  0  0  0  0  0  0  0  0  0  0
   -1.4122   -0.3583   -0.1392 H   0  0  0  0  0  0  0  0  0  0  0  0
   -0.6431   -1.0143    1.3349 H   0  0  0  0  0  0  0  0  0  0  0  0
   -2.9084   -3.2072   -0.5293 H   0  0  0  0  0  0  0  0  0  0  0  0
   -3.2171   -2.2369    2.3280 H   0  0  0  0  0  0  0  0  0  0  0  0
   -3.1433   -1.0469    1.0299 H   0  0  0  0  0  0  0  0  0  0  0  0
   -5.2730   -1.6566    0.3532 H   0  0  0  0  0  0  0  0  0  0  0  0
   -4.8775   -3.9881   -1.7365 H   0  0  0  0  0  0  0  0  0  0  0  0
   -6.2696   -3.0831   -1.1722 H   0  0  0  0  0  0  0  0  0  0  0  0
   -6.2225   -4.8487   -0.9615 H   0  0  0  0  0  0  0  0  0  0  0  0
   -4.3680   -5.2960    1.7889 H   0  0  0  0  0  0  0  0  0  0  0  0
   -3.9527   -5.7229    0.1332 H   0  0  0  0  0  0  0  0  0  0  0  0
   -2.3782   -4.2554    2.2232 H   0  0  0  0  0  0  0  0  0  0  0  0
  1  2  1  0  0  0  0
  1 26  1  0  0  0  0
  1 27  1  0  0  0  0
  1 28  1  0  0  0  0
  2  3  1  0  0  0  0
  2 29  1  0  0  0  0
  2 30  1  0  0  0  0
  3  4  1  0  0  0  0
  3 31  1  0  0  0  0
  3 32  1  0  0  0  0
  4  5  1  0  0  0  0
  4 33  1  0  0  0  0
  4 34  1  0  0  0  0
  5  6  1  0  0  0  0
  5  7  1  0  0  0  0
  5  8  1  0  0  0  0
  6 35  1  0  0  0  0
  6 36  1  0  0  0  0
  6 37  1  0  0  0  0
  7 38  1  0  0  0  0
  7 39  1  0  0  0  0
  7 40  1  0  0  0  0
  8 14  2  0  0  0  0
  8  9  1  0  0  0  0
  9 10  2  0  0  0  0
  9 41  1  0  0  0  0
 10 11  1  0  0  0  0
 10 12  1  0  0  0  0
 11 42  1  0  0  0  0
 12 25  1  0  0  0  0
 12 13  2  0  0  0  0
 13 14  1  0  0  0  0
 13 15  1  0  0  0  0
 14 43  1  0  0  0  0
 15 16  1  0  0  0  0
 16 17  1  0  0  0  0
 16 18  1  0  0  0  0
 16 19  1  0  0  0  0
 17 44  1  0  0  0  0
 17 45  1  0  0  0  0
 17 46  1  0  0  0  0
 18 47  1  0  0  0  0
 18 48  1  0  0  0  0
 18 49  1  0  0  0  0
 19 20  1  0  0  0  0
 19 25  1  0  0  0  0
 19 50  1  6  0  0  0
 20 21  1  0  0  0  0
 20 51  1  0  0  0  0
 20 52  1  0  0  0  0
 21 22  2  0  0  0  0
 21 53  1  0  0  0  0
 22 23  1  0  0  0  0
 22 24  1  0  0  0  0
 23 54  1  0  0  0  0
 23 55  1  0  0  0  0
 23 56  1  0  0  0  0
 24 57  1  0  0  0  0
 24 58  1  0  0  0  0
 25 24  1  0  0  0  0
 25 59  1  1  0  0  0
M  END
$$$$
CHEMBL252536	5XRA	best_smi
 OpenBabel12022417423D

 56 58  0  0  1  0  0  0  0  0999 V2000
    3.2616   -0.9990    0.4819 C   0  0  0  0  0  0  0  0  0  0  0  0
    3.0279    0.4848    0.7424 C   0  0  0  0  0  0  0  0  0  0  0  0
    3.8226    1.3893   -0.2137 C   0  0  0  0  0  0  0  0  0  0  0  0
    3.7158    2.9396    0.0061 C   0  0  0  0  0  0  0  0  0  0  0  0
    4.6849    3.6026   -1.0097 C   0  0  0  0  0  0  0  0  0  0  0  0
    4.2659    3.3188    1.4054 C   0  0  0  0  0  0  0  0  0  0  0  0
    2.2796    3.4458   -0.1870 C   0  0  0  0  0  0  0  0  0  0  0  0
    1.7856    3.9990   -1.3737 C   0  0  0  0  0  0  0  0  0  0  0  0
    0.4305    4.4169   -1.4964 C   0  0  0  0  0  0  0  0  0  0  0  0
   -0.0043    4.8468   -2.7237 O   0  0  0  0  0  0  0  0  0  0  0  0
   -0.5048    4.2006   -0.4852 C   0  0  0  0  0  0  0  0  0  0  0  0
   -0.0480    3.3396    0.4971 C   0  0  0  0  0  0  0  0  0  0  0  0
    1.3055    3.1629    0.7930 C   0  0  0  0  0  0  0  0  0  0  0  0
   -0.8258    2.2731    0.9075 O   0  0  0  0  0  0  0  0  0  0  0  0
   -1.8198    1.8666   -0.0937 C   0  0  0  0  0  0  0  0  0  0  0  0
   -2.6435    0.8223    0.6815 C   0  0  0  0  0  0  0  0  0  0  0  0
   -1.2568    1.2319   -1.3626 C   0  0  0  0  0  0  0  0  0  0  0  0
   -2.6903    3.0765   -0.3504 C   0  0  2  0  0  0  0  0  0  0  0  0
   -3.9338    3.0936   -1.2347 C   0  0  0  0  0  0  0  0  0  0  0  0
   -4.8940    3.9380   -0.4221 C   0  0  0  0  0  0  0  0  0  0  0  0
   -4.3923    4.8502    0.4578 C   0  0  0  0  0  0  0  0  0  0  0  0
   -5.0802    4.9349    1.8043 C   0  0  0  0  0  0  0  0  0  0  0  0
   -2.8859    5.3559    0.3602 C   0  0  0  0  0  0  0  0  0  0  0  0
   -2.0103    4.4283   -0.5921 C   0  0  1  0  0  0  0  0  0  0  0  0
    2.3627   -1.4541    0.0515 H   0  0  0  0  0  0  0  0  0  0  0  0
    3.4678   -1.5196    1.4230 H   0  0  0  0  0  0  0  0  0  0  0  0
    4.0961   -1.1808   -0.2008 H   0  0  0  0  0  0  0  0  0  0  0  0
    3.2955    0.7041    1.7812 H   0  0  0  0  0  0  0  0  0  0  0  0
    1.9544    0.6613    0.6348 H   0  0  0  0  0  0  0  0  0  0  0  0
    4.8815    1.1042   -0.1324 H   0  0  0  0  0  0  0  0  0  0  0  0
    3.5186    1.1513   -1.2417 H   0  0  0  0  0  0  0  0  0  0  0  0
    4.4908    3.2696   -2.0354 H   0  0  0  0  0  0  0  0  0  0  0  0
    4.6044    4.6958   -0.9854 H   0  0  0  0  0  0  0  0  0  0  0  0
    5.7282    3.3454   -0.7894 H   0  0  0  0  0  0  0  0  0  0  0  0
    5.3020    2.9773    1.5252 H   0  0  0  0  0  0  0  0  0  0  0  0
    4.2599    4.4057    1.5499 H   0  0  0  0  0  0  0  0  0  0  0  0
    3.6954    2.8812    2.2294 H   0  0  0  0  0  0  0  0  0  0  0  0
    2.4333    4.0773   -2.2418 H   0  0  0  0  0  0  0  0  0  0  0  0
    0.6278    4.5354   -3.3963 H   0  0  0  0  0  0  0  0  0  0  0  0
    1.5606    2.6131    1.6961 H   0  0  0  0  0  0  0  0  0  0  0  0
   -2.9004    1.2001    1.6809 H   0  0  0  0  0  0  0  0  0  0  0  0
   -3.5729    0.5668    0.1663 H   0  0  0  0  0  0  0  0  0  0  0  0
   -2.0589   -0.0889    0.8442 H   0  0  0  0  0  0  0  0  0  0  0  0
   -0.3295    0.6876   -1.1604 H   0  0  0  0  0  0  0  0  0  0  0  0
   -1.0451    1.9720   -2.1404 H   0  0  0  0  0  0  0  0  0  0  0  0
   -1.9856    0.5375   -1.7977 H   0  0  0  0  0  0  0  0  0  0  0  0
   -3.0399    3.1286    0.6941 H   0  0  0  0  0  0  0  0  0  0  0  0
   -4.3283    2.0927   -1.4065 H   0  0  0  0  0  0  0  0  0  0  0  0
   -3.7766    3.5601   -2.2182 H   0  0  0  0  0  0  0  0  0  0  0  0
   -5.8787    3.4989   -0.2814 H   0  0  0  0  0  0  0  0  0  0  0  0
   -4.3852    4.6089    2.5896 H   0  0  0  0  0  0  0  0  0  0  0  0
   -5.9271    4.2368    1.8728 H   0  0  0  0  0  0  0  0  0  0  0  0
   -5.4415    5.9364    2.0342 H   0  0  0  0  0  0  0  0  0  0  0  0
   -2.8962    6.3906   -0.0003 H   0  0  0  0  0  0  0  0  0  0  0  0
   -2.4501    5.3666    1.3672 H   0  0  0  0  0  0  0  0  0  0  0  0
   -2.1887    4.8149   -1.6022 H   0  0  0  0  0  0  0  0  0  0  0  0
  1  2  1  0  0  0  0
  1 25  1  0  0  0  0
  1 26  1  0  0  0  0
  1 27  1  0  0  0  0
  2  3  1  0  0  0  0
  2 28  1  0  0  0  0
  2 29  1  0  0  0  0
  3  4  1  0  0  0  0
  3 30  1  0  0  0  0
  3 31  1  0  0  0  0
  4  5  1  0  0  0  0
  4  6  1  0  0  0  0
  4  7  1  0  0  0  0
  5 32  1  0  0  0  0
  5 33  1  0  0  0  0
  5 34  1  0  0  0  0
  6 35  1  0  0  0  0
  6 36  1  0  0  0  0
  6 37  1  0  0  0  0
  7 13  2  0  0  0  0
  7  8  1  0  0  0  0
  8  9  2  0  0  0  0
  8 38  1  0  0  0  0
  9 10  1  0  0  0  0
  9 11  1  0  0  0  0
 10 39  1  0  0  0  0
 11 24  1  0  0  0  0
 11 12  2  0  0  0  0
 12 13  1  0  0  0  0
 12 14  1  0  0  0  0
 13 40  1  0  0  0  0
 14 15  1  0  0  0  0
 15 16  1  0  0  0  0
 15 17  1  0  0  0  0
 15 18  1  0  0  0  0
 16 41  1  0  0  0  0
 16 42  1  0  0  0  0
 16 43  1  0  0  0  0
 17 44  1  0  0  0  0
 17 45  1  0  0  0  0
 17 46  1  0  0  0  0
 18 19  1  0  0  0  0
 18 24  1  0  0  0  0
 18 47  1  1  0  0  0
 19 20  1  0  0  0  0
 19 48  1  0  0  0  0
 19 49  1  0  0  0  0
 20 21  2  0  0  0  0
 20 50  1  0  0  0  0
 21 22  1  0  0  0  0
 21 23  1  0  0  0  0
 22 51  1  0  0  0  0
 22 52  1  0  0  0  0
 22 53  1  0  0  0  0
 23 54  1  0  0  0  0
 23 55  1  0  0  0  0
 24 23  1  0  0  0  0
 24 56  1  6  0  0  0
M  END
$$$$
CHEMBL472115	5XRA	best_smi
 OpenBabel12022417423D

 58 61  0  0  1  0  0  0  0  0999 V2000
    3.1601    0.4537    2.4149 C   0  0  0  0  0  0  0  0  0  0  0  0
    3.7552    1.4363    1.4428 C   0  0  0  0  0  0  0  0  0  0  0  0
    4.3111    0.9085    0.3364 C   0  0  0  0  0  0  0  0  0  0  0  0
    3.9812    1.4450   -1.0293 C   0  0  0  0  0  0  0  0  0  0  0  0
    2.9740    2.6230   -1.0711 C   0  0  2  0  0  0  0  0  0  0  0  0
    2.1652    2.7810    0.2469 C   0  0  1  0  0  0  0  0  0  0  0  0
    3.1628    2.8294    1.4009 C   0  0  0  0  0  0  0  0  0  0  0  0
    1.1097    3.8508    0.1163 C   0  0  0  0  0  0  0  0  0  0  0  0
    0.2735    4.2273    1.1670 C   0  0  0  0  0  0  0  0  0  0  0  0
    0.3473    3.6117    2.3854 O   0  0  0  0  0  0  0  0  0  0  0  0
   -0.8122    5.0890    0.9879 C   0  0  0  0  0  0  0  0  0  0  0  0
   -1.1429    5.5740   -0.2852 C   0  0  0  0  0  0  0  0  0  0  0  0
   -2.4894    6.2668   -0.5930 C   0  0  0  0  0  0  0  0  0  0  0  0
   -3.2162    5.4205   -1.6791 C   0  0  0  0  0  0  0  0  0  0  0  0
   -3.4667    6.2425    0.6181 C   0  0  0  0  0  0  0  0  0  0  0  0
   -2.2982    7.7348   -1.0258 C   0  0  0  0  0  0  0  0  0  0  0  0
   -1.8921    8.7025   -0.0790 C   0  0  0  0  0  0  0  0  0  0  0  0
   -1.7988   10.0506   -0.4200 C   0  0  0  0  0  0  0  0  0  0  0  0
   -2.0762   10.4660   -1.7259 C   0  0  0  0  0  0  0  0  0  0  0  0
   -1.9752   11.8527   -2.0837 C   0  0  0  0  0  0  0  0  0  0  0  0
   -1.8878   12.9687   -2.3643 N   0  0  0  0  0  0  0  0  0  0  0  0
   -2.4461    9.5265   -2.6796 C   0  0  0  0  0  0  0  0  0  0  0  0
   -2.5565    8.1708   -2.3399 C   0  0  0  0  0  0  0  0  0  0  0  0
   -0.2703    5.2502   -1.3354 C   0  0  0  0  0  0  0  0  0  0  0  0
    0.7741    4.3389   -1.1502 C   0  0  0  0  0  0  0  0  0  0  0  0
    1.3172    3.8669   -2.3176 O   0  0  0  0  0  0  0  0  0  0  0  0
    1.9614    2.5738   -2.2396 C   0  0  0  0  0  0  0  0  0  0  0  0
    0.8884    1.4603   -2.1086 C   0  0  0  0  0  0  0  0  0  0  0  0
    2.6428    2.3995   -3.6073 C   0  0  0  0  0  0  0  0  0  0  0  0
    3.9053   -0.2048    2.8622 H   0  0  0  0  0  0  0  0  0  0  0  0
    2.5826    0.9496    3.1989 H   0  0  0  0  0  0  0  0  0  0  0  0
    2.4404   -0.1688    1.8587 H   0  0  0  0  0  0  0  0  0  0  0  0
    4.6948   -0.1104    0.3527 H   0  0  0  0  0  0  0  0  0  0  0  0
    4.9009    1.7111   -1.5621 H   0  0  0  0  0  0  0  0  0  0  0  0
    3.5492    0.5911   -1.5656 H   0  0  0  0  0  0  0  0  0  0  0  0
    3.5751    3.5391   -1.1942 H   0  0  0  0  0  0  0  0  0  0  0  0
    1.5792    1.8673    0.4129 H   0  0  0  0  0  0  0  0  0  0  0  0
    3.9508    3.5758    1.2258 H   0  0  0  0  0  0  0  0  0  0  0  0
    2.7187    3.0871    2.3654 H   0  0  0  0  0  0  0  0  0  0  0  0
    0.0927    2.6860    2.2166 H   0  0  0  0  0  0  0  0  0  0  0  0
   -1.4381    5.2840    1.8528 H   0  0  0  0  0  0  0  0  0  0  0  0
   -2.6447    5.3323   -2.6122 H   0  0  0  0  0  0  0  0  0  0  0  0
   -4.1877    5.8558   -1.9435 H   0  0  0  0  0  0  0  0  0  0  0  0
   -3.3969    4.3973   -1.3317 H   0  0  0  0  0  0  0  0  0  0  0  0
   -3.7178    5.2123    0.9014 H   0  0  0  0  0  0  0  0  0  0  0  0
   -4.4060    6.7545    0.3795 H   0  0  0  0  0  0  0  0  0  0  0  0
   -3.0583    6.7281    1.5109 H   0  0  0  0  0  0  0  0  0  0  0  0
   -1.6665    8.4143    0.9418 H   0  0  0  0  0  0  0  0  0  0  0  0
   -1.5210   10.7777    0.3418 H   0  0  0  0  0  0  0  0  0  0  0  0
   -2.6699    9.8231   -3.7013 H   0  0  0  0  0  0  0  0  0  0  0  0
   -2.8645    7.4810   -3.1245 H   0  0  0  0  0  0  0  0  0  0  0  0
   -0.4630    5.6048   -2.3460 H   0  0  0  0  0  0  0  0  0  0  0  0
    0.4129    1.4126   -1.1253 H   0  0  0  0  0  0  0  0  0  0  0  0
    0.0590    1.6419   -2.8007 H   0  0  0  0  0  0  0  0  0  0  0  0
    1.3078    0.4695   -2.3086 H   0  0  0  0  0  0  0  0  0  0  0  0
    2.9654    3.3611   -4.0187 H   0  0  0  0  0  0  0  0  0  0  0  0
    1.9385    1.9747   -4.3339 H   0  0  0  0  0  0  0  0  0  0  0  0
    3.5027    1.7265   -3.5759 H   0  0  0  0  0  0  0  0  0  0  0  0
  1  2  1  0  0  0  0
  1 30  1  0  0  0  0
  1 31  1  0  0  0  0
  1 32  1  0  0  0  0
  2  7  1  0  0  0  0
  2  3  2  0  0  0  0
  3  4  1  0  0  0  0
  3 33  1  0  0  0  0
  4 34  1  0  0  0  0
  4 35  1  0  0  0  0
  5  4  1  0  0  0  0
  5  6  1  0  0  0  0
  5 27  1  0  0  0  0
  5 36  1  6  0  0  0
  6  7  1  0  0  0  0
  6  8  1  0  0  0  0
  6 37  1  1  0  0  0
  7 38  1  0  0  0  0
  7 39  1  0  0  0  0
  8 25  2  0  0  0  0
  8  9  1  0  0  0  0
  9 10  1  0  0  0  0
  9 11  2  0  0  0  0
 10 40  1  0  0  0  0
 11 12  1  0  0  0  0
 11 41  1  0  0  0  0
 12 13  1  0  0  0  0
 12 24  2  0  0  0  0
 13 14  1  0  0  0  0
 13 15  1  0  0  0  0
 13 16  1  0  0  0  0
 14 42  1  0  0  0  0
 14 43  1  0  0  0  0
 14 44  1  0  0  0  0
 15 45  1  0  0  0  0
 15 46  1  0  0  0  0
 15 47  1  0  0  0  0
 16 23  2  0  0  0  0
 16 17  1  0  0  0  0
 17 18  2  0  0  0  0
 17 48  1  0  0  0  0
 18 19  1  0  0  0  0
 18 49  1  0  0  0  0
 19 20  1  0  0  0  0
 19 22  2  0  0  0  0
 20 21  3  0  0  0  0
 22 23  1  0  0  0  0
 22 50  1  0  0  0  0
 23 51  1  0  0  0  0
 24 25  1  0  0  0  0
 24 52  1  0  0  0  0
 25 26  1  0  0  0  0
 26 27  1  0  0  0  0
 27 28  1  0  0  0  0
 27 29  1  0  0  0  0
 28 53  1  0  0  0  0
 28 54  1  0  0  0  0
 28 55  1  0  0  0  0
 29 56  1  0  0  0  0
 29 57  1  0  0  0  0
 29 58  1  0  0  0  0
M  END
$$$$
CHEMBL512343	5XRA	best_smi
 OpenBabel12022417423D

 60 63  0  0  1  0  0  0  0  0999 V2000
    4.1764   -1.9551   -1.4976 C   0  0  0  0  0  0  0  0  0  0  0  0
    3.7777   -1.0783   -0.3475 C   0  0  0  0  0  0  0  0  0  0  0  0
    3.9334   -1.4758    0.9251 C   0  0  0  0  0  0  0  0  0  0  0  0
    3.3187   -0.6844    2.0356 C   0  0  0  0  0  0  0  0  0  0  0  0
    1.9464   -0.1974    1.5438 C   0  0  2  0  0  0  0  0  0  0  0  0
    2.1150    0.8331    0.4000 C   0  0  1  0  0  0  0  0  0  0  0  0
    3.1096    0.2472   -0.6726 C   0  0  0  0  0  0  0  0  0  0  0  0
    0.7152    1.1012   -0.1217 C   0  0  0  0  0  0  0  0  0  0  0  0
    0.4101    1.3778   -1.4468 C   0  0  0  0  0  0  0  0  0  0  0  0
    1.3728    1.8633   -2.2873 O   0  0  0  0  0  0  0  0  0  0  0  0
   -0.8386    1.0538   -1.9747 C   0  0  0  0  0  0  0  0  0  0  0  0
   -1.8021    0.4424   -1.1515 C   0  0  0  0  0  0  0  0  0  0  0  0
   -2.8380   -0.5640   -1.7359 C   0  0  0  0  0  0  0  0  0  0  0  0
   -2.4331   -1.9389   -1.0689 C   0  0  0  0  0  0  0  0  0  0  0  0
   -2.6412   -0.7754   -3.2574 C   0  0  0  0  0  0  0  0  0  0  0  0
   -4.3246   -0.2866   -1.4349 C   0  0  0  0  0  0  0  0  0  0  0  0
   -5.2607   -1.3301   -1.6042 C   0  0  0  0  0  0  0  0  0  0  0  0
   -6.5248   -1.2904   -1.0276 C   0  0  0  0  0  0  0  0  0  0  0  0
   -6.8667   -0.2167   -0.2178 C   0  0  0  0  0  0  0  0  0  0  0  0
   -6.0314    0.8924   -0.1802 C   0  0  0  0  0  0  0  0  0  0  0  0
   -4.8387    0.9166   -0.9207 C   0  0  0  0  0  0  0  0  0  0  0  0
   -4.4409    2.2592   -1.4821 C   0  0  0  0  0  0  0  0  0  0  0  0
   -1.6303    0.5623    0.2296 C   0  0  0  0  0  0  0  0  0  0  0  0
   -0.3656    0.8812    0.7456 C   0  0  0  0  0  0  0  0  0  0  0  0
   -0.2452    0.8534    2.1039 O   0  0  0  0  0  0  0  0  0  0  0  0
    0.9608    0.2896    2.6450 C   0  0  0  0  0  0  0  0  0  0  0  0
    0.4648   -0.9342    3.4394 C   0  0  0  0  0  0  0  0  0  0  0  0
    1.5810    1.3162    3.5985 C   0  0  0  0  0  0  0  0  0  0  0  0
    4.3980   -1.3660   -2.3925 H   0  0  0  0  0  0  0  0  0  0  0  0
    3.3542   -2.6392   -1.7397 H   0  0  0  0  0  0  0  0  0  0  0  0
    5.0626   -2.5521   -1.2616 H   0  0  0  0  0  0  0  0  0  0  0  0
    4.3875   -2.4330    1.1649 H   0  0  0  0  0  0  0  0  0  0  0  0
    3.9825    0.1451    2.3026 H   0  0  0  0  0  0  0  0  0  0  0  0
    3.2186   -1.3281    2.9105 H   0  0  0  0  0  0  0  0  0  0  0  0
    1.4485   -1.0743    1.0905 H   0  0  0  0  0  0  0  0  0  0  0  0
    2.5160    1.7755    0.7815 H   0  0  0  0  0  0  0  0  0  0  0  0
    2.6263    0.1011   -1.6395 H   0  0  0  0  0  0  0  0  0  0  0  0
    3.9070    0.9843   -0.8371 H   0  0  0  0  0  0  0  0  0  0  0  0
    1.1510    1.5941   -3.1915 H   0  0  0  0  0  0  0  0  0  0  0  0
   -1.0080    1.1678   -3.0298 H   0  0  0  0  0  0  0  0  0  0  0  0
   -3.1672   -2.7343   -1.2218 H   0  0  0  0  0  0  0  0  0  0  0  0
   -1.4839   -2.3096   -1.4750 H   0  0  0  0  0  0  0  0  0  0  0  0
   -2.3057   -1.8694    0.0186 H   0  0  0  0  0  0  0  0  0  0  0  0
   -2.9366    0.1107   -3.8294 H   0  0  0  0  0  0  0  0  0  0  0  0
   -1.5936   -1.0001   -3.4988 H   0  0  0  0  0  0  0  0  0  0  0  0
   -3.2232   -1.6243   -3.6328 H   0  0  0  0  0  0  0  0  0  0  0  0
   -5.0010   -2.2139   -2.1895 H   0  0  0  0  0  0  0  0  0  0  0  0
   -7.2205   -2.1072   -1.1779 H   0  0  0  0  0  0  0  0  0  0  0  0
   -7.8094   -0.2094    0.3144 H   0  0  0  0  0  0  0  0  0  0  0  0
   -6.3595    1.7833    0.3571 H   0  0  0  0  0  0  0  0  0  0  0  0
   -5.0793    2.4220   -2.3697 H   0  0  0  0  0  0  0  0  0  0  0  0
   -4.6435    3.0700   -0.7813 H   0  0  0  0  0  0  0  0  0  0  0  0
   -3.4132    2.3272   -1.8208 H   0  0  0  0  0  0  0  0  0  0  0  0
   -2.3945    0.2396    0.9245 H   0  0  0  0  0  0  0  0  0  0  0  0
    1.2715   -1.5139    3.8949 H   0  0  0  0  0  0  0  0  0  0  0  0
   -0.2236   -0.6222    4.2335 H   0  0  0  0  0  0  0  0  0  0  0  0
   -0.1164   -1.5998    2.7894 H   0  0  0  0  0  0  0  0  0  0  0  0
    1.0205    1.3533    4.5356 H   0  0  0  0  0  0  0  0  0  0  0  0
    2.6178    1.0873    3.8612 H   0  0  0  0  0  0  0  0  0  0  0  0
    1.5428    2.3223    3.1734 H   0  0  0  0  0  0  0  0  0  0  0  0
  1  2  1  0  0  0  0
  1 29  1  0  0  0  0
  1 30  1  0  0  0  0
  1 31  1  0  0  0  0
  2  7  1  0  0  0  0
  2  3  2  0  0  0  0
  3  4  1  0  0  0  0
  3 32  1  0  0  0  0
  4 33  1  0  0  0  0
  4 34  1  0  0  0  0
  5  4  1  0  0  0  0
  5  6  1  0  0  0  0
  5 26  1  0  0  0  0
  5 35  1  6  0  0  0
  6  7  1  0  0  0  0
  6  8  1  0  0  0  0
  6 36  1  1  0  0  0
  7 37  1  0  0  0  0
  7 38  1  0  0  0  0
  8 24  2  0  0  0  0
  8  9  1  0  0  0  0
  9 10  1  0  0  0  0
  9 11  2  0  0  0  0
 10 39  1  0  0  0  0
 11 12  1  0  0  0  0
 11 40  1  0  0  0  0
 12 13  1  0  0  0  0
 12 23  2  0  0  0  0
 13 14  1  0  0  0  0
 13 15  1  0  0  0  0
 13 16  1  0  0  0  0
 14 41  1  0  0  0  0
 14 42  1  0  0  0  0
 14 43  1  0  0  0  0
 15 44  1  0  0  0  0
 15 45  1  0  0  0  0
 15 46  1  0  0  0  0
 16 21  2  0  0  0  0
 16 17  1  0  0  0  0
 17 18  2  0  0  0  0
 17 47  1  0  0  0  0
 18 19  1  0  0  0  0
 18 48  1  0  0  0  0
 19 20  2  0  0  0  0
 19 49  1  0  0  0  0
 20 21  1  0  0  0  0
 20 50  1  0  0  0  0
 21 22  1  0  0  0  0
 22 51  1  0  0  0  0
 22 52  1  0  0  0  0
 22 53  1  0  0  0  0
 23 24  1  0  0  0  0
 23 54  1  0  0  0  0
 24 25  1  0  0  0  0
 25 26  1  0  0  0  0
 26 27  1  0  0  0  0
 26 28  1  0  0  0  0
 27 55  1  0  0  0  0
 27 56  1  0  0  0  0
 27 57  1  0  0  0  0
 28 58  1  0  0  0  0
 28 59  1  0  0  0  0
 28 60  1  0  0  0  0
M  END
$$$$
CHEMBL519575	5XRA	best_smi
 OpenBabel12022417423D

 54 57  0  0  1  0  0  0  0  0999 V2000
    4.5167   -1.4132   -2.5143 C   0  0  0  0  0  0  0  0  0  0  0  0
    3.6267   -1.6197   -1.3234 C   0  0  0  0  0  0  0  0  0  0  0  0
    3.0566   -2.8135   -1.0877 C   0  0  0  0  0  0  0  0  0  0  0  0
    2.2594   -3.0494    0.1568 C   0  0  0  0  0  0  0  0  0  0  0  0
    1.3784   -1.8319    0.4155 C   0  0  2  0  0  0  0  0  0  0  0  0
    2.1919   -0.5360    0.5502 C   0  0  1  0  0  0  0  0  0  0  0  0
    3.4749   -0.4878   -0.3322 C   0  0  0  0  0  0  0  0  0  0  0  0
    1.1166    0.5238    0.4283 C   0  0  0  0  0  0  0  0  0  0  0  0
    0.9899    1.5295   -0.5239 C   0  0  0  0  0  0  0  0  0  0  0  0
    1.7699    1.5824   -1.6438 O   0  0  0  0  0  0  0  0  0  0  0  0
   -0.0491    2.4758   -0.4664 C   0  0  0  0  0  0  0  0  0  0  0  0
   -1.0430    2.4137    0.5241 C   0  0  0  0  0  0  0  0  0  0  0  0
   -2.2724    3.3472    0.5119 C   0  0  0  0  0  0  0  0  0  0  0  0
   -1.9907    4.6961   -0.2100 C   0  0  0  0  0  0  0  0  0  0  0  0
   -2.6803    3.7798    1.9527 C   0  0  0  0  0  0  0  0  0  0  0  0
   -3.4574    2.5992   -0.1427 C   0  0  0  0  0  0  0  0  0  0  0  0
   -4.3990    1.7812    0.4665 C   0  0  0  0  0  0  0  0  0  0  0  0
   -5.3799    1.2869   -0.4375 C   0  0  0  0  0  0  0  0  0  0  0  0
   -5.1365    1.6943   -1.7284 C   0  0  0  0  0  0  0  0  0  0  0  0
   -3.7207    2.6329   -1.8467 S   0  0  0  0  0  0  0  0  0  0  0  0
   -0.9641    1.3480    1.4298 C   0  0  0  0  0  0  0  0  0  0  0  0
    0.0545    0.4048    1.3400 C   0  0  0  0  0  0  0  0  0  0  0  0
   -0.0617   -0.6897    2.1590 O   0  0  0  0  0  0  0  0  0  0  0  0
    0.3501   -1.9614    1.5839 C   0  0  0  0  0  0  0  0  0  0  0  0
   -0.9237   -2.6413    1.0334 C   0  0  0  0  0  0  0  0  0  0  0  0
    0.8645   -2.7609    2.7899 C   0  0  0  0  0  0  0  0  0  0  0  0
    4.5648   -0.3597   -2.8037 H   0  0  0  0  0  0  0  0  0  0  0  0
    4.1538   -1.9743   -3.3829 H   0  0  0  0  0  0  0  0  0  0  0  0
    5.5312   -1.7544   -2.2830 H   0  0  0  0  0  0  0  0  0  0  0  0
    3.1890   -3.6472   -1.7719 H   0  0  0  0  0  0  0  0  0  0  0  0
    2.9546   -3.2326    0.9841 H   0  0  0  0  0  0  0  0  0  0  0  0
    1.6438   -3.9469    0.0268 H   0  0  0  0  0  0  0  0  0  0  0  0
    0.7787   -1.7188   -0.5059 H   0  0  0  0  0  0  0  0  0  0  0  0
    2.5689   -0.4564    1.5826 H   0  0  0  0  0  0  0  0  0  0  0  0
    3.6075    0.4820   -0.8145 H   0  0  0  0  0  0  0  0  0  0  0  0
    4.3420   -0.5631    0.3407 H   0  0  0  0  0  0  0  0  0  0  0  0
    1.7979    0.6748   -1.9952 H   0  0  0  0  0  0  0  0  0  0  0  0
   -0.0878    3.2161   -1.2626 H   0  0  0  0  0  0  0  0  0  0  0  0
   -1.7382    4.5816   -1.2690 H   0  0  0  0  0  0  0  0  0  0  0  0
   -1.1533    5.2262    0.2607 H   0  0  0  0  0  0  0  0  0  0  0  0
   -2.8661    5.3551   -0.1680 H   0  0  0  0  0  0  0  0  0  0  0  0
   -1.9071    4.4037    2.4162 H   0  0  0  0  0  0  0  0  0  0  0  0
   -2.8619    2.9405    2.6306 H   0  0  0  0  0  0  0  0  0  0  0  0
   -3.6101    4.3639    1.9326 H   0  0  0  0  0  0  0  0  0  0  0  0
   -4.4012    1.5582    1.5263 H   0  0  0  0  0  0  0  0  0  0  0  0
   -6.2199    0.6638   -0.1551 H   0  0  0  0  0  0  0  0  0  0  0  0
   -5.7199    1.4736   -2.6128 H   0  0  0  0  0  0  0  0  0  0  0  0
   -1.7351    1.1815    2.1771 H   0  0  0  0  0  0  0  0  0  0  0  0
   -0.6987   -3.6163    0.5916 H   0  0  0  0  0  0  0  0  0  0  0  0
   -1.6721   -2.7792    1.8213 H   0  0  0  0  0  0  0  0  0  0  0  0
   -1.4016   -2.0166    0.2689 H   0  0  0  0  0  0  0  0  0  0  0  0
    1.5332   -2.1500    3.4068 H   0  0  0  0  0  0  0  0  0  0  0  0
    0.0302   -3.0459    3.4439 H   0  0  0  0  0  0  0  0  0  0  0  0
    1.3784   -3.6839    2.5138 H   0  0  0  0  0  0  0  0  0  0  0  0
  1  2  1  0  0  0  0
  1 27  1  0  0  0  0
  1 28  1  0  0  0  0
  1 29  1  0  0  0  0
  2  7  1  0  0  0  0
  2  3  2  0  0  0  0
  3  4  1  0  0  0  0
  3 30  1  0  0  0  0
  4 31  1  0  0  0  0
  4 32  1  0  0  0  0
  5  4  1  0  0  0  0
  5  6  1  0  0  0  0
  5 24  1  0  0  0  0
  5 33  1  6  0  0  0
  6  7  1  0  0  0  0
  6  8  1  0  0  0  0
  6 34  1  1  0  0  0
  7 35  1  0  0  0  0
  7 36  1  0  0  0  0
  8 22  2  0  0  0  0
  8  9  1  0  0  0  0
  9 10  1  0  0  0  0
  9 11  2  0  0  0  0
 10 37  1  0  0  0  0
 11 12  1  0  0  0  0
 11 38  1  0  0  0  0
 12 13  1  0  0  0  0
 12 21  2  0  0  0  0
 13 14  1  0  0  0  0
 13 15  1  0  0  0  0
 13 16  1  0  0  0  0
 14 39  1  0  0  0  0
 14 40  1  0  0  0  0
 14 41  1  0  0  0  0
 15 42  1  0  0  0  0
 15 43  1  0  0  0  0
 15 44  1  0  0  0  0
 16 20  1  0  0  0  0
 16 17  2  0  0  0  0
 17 18  1  0  0  0  0
 17 45  1  0  0  0  0
 18 19  2  0  0  0  0
 18 46  1  0  0  0  0
 19 20  1  0  0  0  0
 19 47  1  0  0  0  0
 21 22  1  0  0  0  0
 21 48  1  0  0  0  0
 22 23  1  0  0  0  0
 23 24  1  0  0  0  0
 24 25  1  0  0  0  0
 24 26  1  0  0  0  0
 25 49  1  0  0  0  0
 25 50  1  0  0  0  0
 25 51  1  0  0  0  0
 26 52  1  0  0  0  0
 26 53  1  0  0  0  0
 26 54  1  0  0  0  0
M  END
$$$$
CHEMBL252947	5XRA	best_smi
 OpenBabel12022417433D

 60 63  0  0  1  0  0  0  0  0999 V2000
    5.7333   -4.0956    1.1523 C   0  0  0  0  0  0  0  0  0  0  0  0
    4.8284   -2.9807    0.7355 C   0  0  0  0  0  0  0  0  0  0  0  0
    5.3455   -1.7511    0.5794 C   0  0  0  0  0  0  0  0  0  0  0  0
    4.4508   -0.5692    0.6778 C   0  0  0  0  0  0  0  0  0  0  0  0
    3.0646   -0.7473    0.0596 C   0  0  2  0  0  0  0  0  0  0  0  0
    2.6716   -2.2011   -0.3050 C   0  0  1  0  0  0  0  0  0  0  0  0
    3.3301   -3.2096    0.6662 C   0  0  0  0  0  0  0  0  0  0  0  0
    1.1614   -2.1042   -0.3940 C   0  0  0  0  0  0  0  0  0  0  0  0
    0.2315   -2.9958    0.1249 C   0  0  0  0  0  0  0  0  0  0  0  0
    0.5775   -4.2668    0.4827 O   0  0  0  0  0  0  0  0  0  0  0  0
   -1.1188   -2.6521    0.2602 C   0  0  0  0  0  0  0  0  0  0  0  0
   -1.6029   -1.4010   -0.1855 C   0  0  0  0  0  0  0  0  0  0  0  0
   -3.0974   -0.9942   -0.1748 C   0  0  0  0  0  0  0  0  0  0  0  0
   -3.4372   -0.4830   -1.6073 C   0  0  0  0  0  0  0  0  0  0  0  0
   -4.0203   -2.1995    0.0778 C   0  0  0  0  0  0  0  0  0  0  0  0
   -3.3392    0.1502    0.8863 C   0  0  0  0  0  0  0  0  0  0  0  0
   -4.7674    0.7483    0.8718 C   0  0  0  0  0  0  0  0  0  0  0  0
   -5.3901    0.3976    2.2125 C   0  0  0  0  0  0  0  0  0  0  0  0
   -4.2108    0.4397    3.1606 C   0  0  0  0  0  0  0  0  0  0  0  0
   -3.1010   -0.2429    2.3668 C   0  0  0  0  0  0  0  0  0  0  0  0
   -0.6698   -0.5439   -0.7752 C   0  0  0  0  0  0  0  0  0  0  0  0
    0.6575   -0.9090   -0.9292 C   0  0  0  0  0  0  0  0  0  0  0  0
    1.4270   -0.0119   -1.6240 O   0  0  0  0  0  0  0  0  0  0  0  0
    2.7733    0.1834   -1.1467 C   0  0  0  0  0  0  0  0  0  0  0  0
    3.7020   -0.0774   -2.3454 C   0  0  0  0  0  0  0  0  0  0  0  0
    2.8386    1.6739   -0.7553 C   0  0  0  0  0  0  0  0  0  0  0  0
    5.2179   -5.0566    1.1727 H   0  0  0  0  0  0  0  0  0  0  0  0
    6.0933   -3.8899    2.1682 H   0  0  0  0  0  0  0  0  0  0  0  0
    6.6015   -4.1742    0.4919 H   0  0  0  0  0  0  0  0  0  0  0  0
    6.4158   -1.5712    0.6232 H   0  0  0  0  0  0  0  0  0  0  0  0
    4.9592    0.3400    0.3451 H   0  0  0  0  0  0  0  0  0  0  0  0
    4.3020   -0.4253    1.7572 H   0  0  0  0  0  0  0  0  0  0  0  0
    2.3888   -0.4124    0.8676 H   0  0  0  0  0  0  0  0  0  0  0  0
    3.0267   -2.4687   -1.3056 H   0  0  0  0  0  0  0  0  0  0  0  0
    3.1470   -4.2259    0.2955 H   0  0  0  0  0  0  0  0  0  0  0  0
    2.9016   -3.1408    1.6711 H   0  0  0  0  0  0  0  0  0  0  0  0
    0.9484   -4.6729   -0.3181 H   0  0  0  0  0  0  0  0  0  0  0  0
   -1.7879   -3.3854    0.7024 H   0  0  0  0  0  0  0  0  0  0  0  0
   -4.4592   -0.1082   -1.6908 H   0  0  0  0  0  0  0  0  0  0  0  0
   -3.3327   -1.2952   -2.3374 H   0  0  0  0  0  0  0  0  0  0  0  0
   -2.7959    0.3346   -1.9495 H   0  0  0  0  0  0  0  0  0  0  0  0
   -5.0768   -1.9157    0.0083 H   0  0  0  0  0  0  0  0  0  0  0  0
   -3.8715   -2.6585    1.0590 H   0  0  0  0  0  0  0  0  0  0  0  0
   -3.8488   -2.9835   -0.6702 H   0  0  0  0  0  0  0  0  0  0  0  0
   -2.6509    0.9784    0.6598 H   0  0  0  0  0  0  0  0  0  0  0  0
   -4.6953    1.8395    0.7773 H   0  0  0  0  0  0  0  0  0  0  0  0
   -5.4064    0.4022    0.0585 H   0  0  0  0  0  0  0  0  0  0  0  0
   -5.8174   -0.6114    2.1772 H   0  0  0  0  0  0  0  0  0  0  0  0
   -6.1854    1.0941    2.4929 H   0  0  0  0  0  0  0  0  0  0  0  0
   -3.9409    1.4783    3.3852 H   0  0  0  0  0  0  0  0  0  0  0  0
   -4.4247   -0.0696    4.1052 H   0  0  0  0  0  0  0  0  0  0  0  0
   -3.1626   -1.3226    2.5267 H   0  0  0  0  0  0  0  0  0  0  0  0
   -2.1148    0.0766    2.7199 H   0  0  0  0  0  0  0  0  0  0  0  0
   -0.9467    0.4507   -1.1164 H   0  0  0  0  0  0  0  0  0  0  0  0
    4.7577    0.0049   -2.0742 H   0  0  0  0  0  0  0  0  0  0  0  0
    3.5003    0.6403   -3.1486 H   0  0  0  0  0  0  0  0  0  0  0  0
    3.5320   -1.0595   -2.7944 H   0  0  0  0  0  0  0  0  0  0  0  0
    1.8597    2.1585   -0.8514 H   0  0  0  0  0  0  0  0  0  0  0  0
    3.5359    2.2301   -1.3915 H   0  0  0  0  0  0  0  0  0  0  0  0
    3.1668    1.8216    0.2791 H   0  0  0  0  0  0  0  0  0  0  0  0
  1  2  1  0  0  0  0
  1 27  1  0  0  0  0
  1 28  1  0  0  0  0
  1 29  1  0  0  0  0
  2  7  1  0  0  0  0
  2  3  2  0  0  0  0
  3  4  1  0  0  0  0
  3 30  1  0  0  0  0
  4 31  1  0  0  0  0
  4 32  1  0  0  0  0
  5  4  1  0  0  0  0
  5  6  1  0  0  0  0
  5 24  1  0  0  0  0
  5 33  1  1  0  0  0
  6  7  1  0  0  0  0
  6  8  1  0  0  0  0
  6 34  1  6  0  0  0
  7 35  1  0  0  0  0
  7 36  1  0  0  0  0
  8 22  2  0  0  0  0
  8  9  1  0  0  0  0
  9 10  1  0  0  0  0
  9 11  2  0  0  0  0
 10 37  1  0  0  0  0
 11 12  1  0  0  0  0
 11 38  1  0  0  0  0
 12 13  1  0  0  0  0
 12 21  2  0  0  0  0
 13 14  1  0  0  0  0
 13 15  1  0  0  0  0
 13 16  1  0  0  0  0
 14 39  1  0  0  0  0
 14 40  1  0  0  0  0
 14 41  1  0  0  0  0
 15 42  1  0  0  0  0
 15 43  1  0  0  0  0
 15 44  1  0  0  0  0
 16 20  1  0  0  0  0
 16 17  1  0  0  0  0
 16 45  1  0  0  0  0
 17 18  1  0  0  0  0
 17 46  1  0  0  0  0
 17 47  1  0  0  0  0
 18 19  1  0  0  0  0
 18 48  1  0  0  0  0
 18 49  1  0  0  0  0
 19 20  1  0  0  0  0
 19 50  1  0  0  0  0
 19 51  1  0  0  0  0
 20 52  1  0  0  0  0
 20 53  1  0  0  0  0
 21 22  1  0  0  0  0
 21 54  1  0  0  0  0
 22 23  1  0  0  0  0
 23 24  1  0  0  0  0
 24 25  1  0  0  0  0
 24 26  1  0  0  0  0
 25 55  1  0  0  0  0
 25 56  1  0  0  0  0
 25 57  1  0  0  0  0
 26 58  1  0  0  0  0
 26 59  1  0  0  0  0
 26 60  1  0  0  0  0
M  END
$$$$
CHEMBL252742	5XRA	best_smi
 OpenBabel12022417433D

 62 64  0  0  1  0  0  0  0  0999 V2000
    0.5262    5.5263   -1.7760 C   0  0  0  0  0  0  0  0  0  0  0  0
    0.4725    4.3004   -0.8719 C   0  0  0  0  0  0  0  0  0  0  0  0
    1.4901    3.2335   -1.2800 C   0  0  0  0  0  0  0  0  0  0  0  0
    1.4274    2.0103   -0.3531 C   0  0  0  0  0  0  0  0  0  0  0  0
    2.4295    0.9320   -0.7938 C   0  0  0  0  0  0  0  0  0  0  0  0
    2.5163   -0.3680    0.0725 C   0  0  0  0  0  0  0  0  0  0  0  0
    3.6446   -1.2324   -0.5509 C   0  0  0  0  0  0  0  0  0  0  0  0
    2.9813   -0.0400    1.5093 C   0  0  0  0  0  0  0  0  0  0  0  0
    1.1692   -1.1115    0.0739 C   0  0  0  0  0  0  0  0  0  0  0  0
    0.8527   -2.0953   -0.8688 C   0  0  0  0  0  0  0  0  0  0  0  0
   -0.4386   -2.6222   -0.9496 C   0  0  0  0  0  0  0  0  0  0  0  0
   -0.6747   -3.6602   -1.8135 O   0  0  0  0  0  0  0  0  0  0  0  0
   -1.4725   -2.1535   -0.1450 C   0  0  0  0  0  0  0  0  0  0  0  0
   -1.0990   -1.3760    0.9409 C   0  0  0  0  0  0  0  0  0  0  0  0
    0.1825   -0.8276    1.0314 C   0  0  0  0  0  0  0  0  0  0  0  0
   -1.9349   -1.1538    2.0070 O   0  0  0  0  0  0  0  0  0  0  0  0
   -3.2745   -0.7717    1.6695 C   0  0  0  0  0  0  0  0  0  0  0  0
   -3.1922    0.7622    1.3704 C   0  0  0  0  0  0  0  0  0  0  0  0
   -4.1539   -0.9435    2.9057 C   0  0  0  0  0  0  0  0  0  0  0  0
   -3.8129   -1.4985    0.4222 C   0  0  2  0  0  0  0  0  0  0  0  0
   -5.2551   -2.0589    0.3131 C   0  0  0  0  0  0  0  0  0  0  0  0
   -5.6966   -1.6667   -1.0866 C   0  0  0  0  0  0  0  0  0  0  0  0
   -4.7242   -1.5470   -2.0253 C   0  0  0  0  0  0  0  0  0  0  0  0
   -4.6183   -0.1854   -2.6908 C   0  0  0  0  0  0  0  0  0  0  0  0
   -3.4103   -2.3479   -1.8627 C   0  0  0  0  0  0  0  0  0  0  0  0
   -2.9222   -2.4722   -0.3671 C   0  0  1  0  0  0  0  0  0  0  0  0
    1.1852    5.3851   -2.6385 H   0  0  0  0  0  0  0  0  0  0  0  0
   -0.4743    5.7672   -2.1506 H   0  0  0  0  0  0  0  0  0  0  0  0
    0.8827    6.3979   -1.2170 H   0  0  0  0  0  0  0  0  0  0  0  0
    0.6521    4.6089    0.1649 H   0  0  0  0  0  0  0  0  0  0  0  0
   -0.5367    3.8729   -0.9051 H   0  0  0  0  0  0  0  0  0  0  0  0
    2.4997    3.6618   -1.2595 H   0  0  0  0  0  0  0  0  0  0  0  0
    1.2915    2.9205   -2.3127 H   0  0  0  0  0  0  0  0  0  0  0  0
    0.4087    1.6107   -0.3730 H   0  0  0  0  0  0  0  0  0  0  0  0
    1.6384    2.3328    0.6716 H   0  0  0  0  0  0  0  0  0  0  0  0
    3.4261    1.3946   -0.8261 H   0  0  0  0  0  0  0  0  0  0  0  0
    2.1912    0.6538   -1.8302 H   0  0  0  0  0  0  0  0  0  0  0  0
    3.4850   -1.4088   -1.6213 H   0  0  0  0  0  0  0  0  0  0  0  0
    3.7254   -2.2055   -0.0541 H   0  0  0  0  0  0  0  0  0  0  0  0
    4.6174   -0.7321   -0.4660 H   0  0  0  0  0  0  0  0  0  0  0  0
    3.0069   -0.9482    2.1238 H   0  0  0  0  0  0  0  0  0  0  0  0
    2.3318    0.6788    2.0169 H   0  0  0  0  0  0  0  0  0  0  0  0
    3.9869    0.3937    1.5110 H   0  0  0  0  0  0  0  0  0  0  0  0
    1.5962   -2.4524   -1.5759 H   0  0  0  0  0  0  0  0  0  0  0  0
    0.1474   -4.1770   -1.8716 H   0  0  0  0  0  0  0  0  0  0  0  0
    0.3547   -0.1161    1.8289 H   0  0  0  0  0  0  0  0  0  0  0  0
   -2.6962    1.2998    2.1838 H   0  0  0  0  0  0  0  0  0  0  0  0
   -2.5892    0.9627    0.4720 H   0  0  0  0  0  0  0  0  0  0  0  0
   -4.1846    1.1940    1.2029 H   0  0  0  0  0  0  0  0  0  0  0  0
   -4.2222   -1.9807    3.2083 H   0  0  0  0  0  0  0  0  0  0  0  0
   -5.1648   -0.5435    2.7343 H   0  0  0  0  0  0  0  0  0  0  0  0
   -3.7339   -0.3782    3.7489 H   0  0  0  0  0  0  0  0  0  0  0  0
   -3.8223   -0.6065   -0.2156 H   0  0  0  0  0  0  0  0  0  0  0  0
   -5.9398   -1.6166    1.0383 H   0  0  0  0  0  0  0  0  0  0  0  0
   -5.2996   -3.1490    0.4334 H   0  0  0  0  0  0  0  0  0  0  0  0
   -6.5678   -1.0138   -1.1173 H   0  0  0  0  0  0  0  0  0  0  0  0
   -4.7135    0.6018   -1.9243 H   0  0  0  0  0  0  0  0  0  0  0  0
   -3.6338   -0.0225   -3.1409 H   0  0  0  0  0  0  0  0  0  0  0  0
   -5.3986   -0.0158   -3.4311 H   0  0  0  0  0  0  0  0  0  0  0  0
   -3.5793   -3.3526   -2.2724 H   0  0  0  0  0  0  0  0  0  0  0  0
   -2.6352   -1.8928   -2.4898 H   0  0  0  0  0  0  0  0  0  0  0  0
   -3.0759   -3.5043   -0.0204 H   0  0  0  0  0  0  0  0  0  0  0  0
  1  2  1  0  0  0  0
  1 27  1  0  0  0  0
  1 28  1  0  0  0  0
  1 29  1  0  0  0  0
  2  3  1  0  0  0  0
  2 30  1  0  0  0  0
  2 31  1  0  0  0  0
  3  4  1  0  0  0  0
  3 32  1  0  0  0  0
  3 33  1  0  0  0  0
  4  5  1  0  0  0  0
  4 34  1  0  0  0  0
  4 35  1  0  0  0  0
  5  6  1  0  0  0  0
  5 36  1  0  0  0  0
  5 37  1  0  0  0  0
  6  7  1  0  0  0  0
  6  8  1  0  0  0  0
  6  9  1  0  0  0  0
  7 38  1  0  0  0  0
  7 39  1  0  0  0  0
  7 40  1  0  0  0  0
  8 41  1  0  0  0  0
  8 42  1  0  0  0  0
  8 43  1  0  0  0  0
  9 15  2  0  0  0  0
  9 10  1  0  0  0  0
 10 11  2  0  0  0  0
 10 44  1  0  0  0  0
 11 12  1  0  0  0  0
 11 13  1  0  0  0  0
 12 45  1  0  0  0  0
 13 26  1  0  0  0  0
 13 14  2  0  0  0  0
 14 15  1  0  0  0  0
 14 16  1  0  0  0  0
 15 46  1  0  0  0  0
 16 17  1  0  0  0  0
 17 18  1  0  0  0  0
 17 19  1  0  0  0  0
 17 20  1  0  0  0  0
 18 47  1  0  0  0  0
 18 48  1  0  0  0  0
 18 49  1  0  0  0  0
 19 50  1  0  0  0  0
 19 51  1  0  0  0  0
 19 52  1  0  0  0  0
 20 21  1  0  0  0  0
 20 26  1  0  0  0  0
 20 53  1  6  0  0  0
 21 22  1  0  0  0  0
 21 54  1  0  0  0  0
 21 55  1  0  0  0  0
 22 23  2  0  0  0  0
 22 56  1  0  0  0  0
 23 24  1  0  0  0  0
 23 25  1  0  0  0  0
 24 57  1  0  0  0  0
 24 58  1  0  0  0  0
 24 59  1  0  0  0  0
 25 60  1  0  0  0  0
 25 61  1  0  0  0  0
 26 25  1  0  0  0  0
 26 62  1  1  0  0  0
M  END
$$$$
CHEMBL294472	5XRA	best_smi
 OpenBabel12022417433D

 64 66  0  0  1  0  0  0  0  0999 V2000
    8.0065    5.2965   -2.7816 C   0  0  0  0  0  0  0  0  0  0  0  0
    6.5009    5.0883   -2.8261 C   0  0  0  0  0  0  0  0  0  0  0  0
    6.1125    3.7157   -2.2768 C   0  0  0  0  0  0  0  0  0  0  0  0
    4.5991    3.5061   -2.3161 C   0  0  0  0  0  0  0  0  0  0  0  0
    4.2137    2.1150   -1.8005 C   0  0  0  0  0  0  0  0  0  0  0  0
    2.6967    1.9123   -1.8789 C   0  0  0  0  0  0  0  0  0  0  0  0
    2.1617    0.5354   -1.3887 C   0  0  0  0  0  0  0  0  0  0  0  0
    2.7381   -0.6286   -2.2279 C   0  0  0  0  0  0  0  0  0  0  0  0
    2.6163    0.2730    0.0770 C   0  0  0  0  0  0  0  0  0  0  0  0
    0.6195    0.6034   -1.4753 C   0  0  0  0  0  0  0  0  0  0  0  0
   -0.1664    0.0415   -2.5004 C   0  0  0  0  0  0  0  0  0  0  0  0
   -1.5835    0.0859   -2.4482 C   0  0  0  0  0  0  0  0  0  0  0  0
   -2.3091   -0.6430   -3.3524 O   0  0  0  0  0  0  0  0  0  0  0  0
   -2.2628    0.6993   -1.3882 C   0  0  0  0  0  0  0  0  0  0  0  0
   -1.4494    1.1267   -0.3446 C   0  0  0  0  0  0  0  0  0  0  0  0
   -0.0680    1.2026   -0.4193 C   0  0  0  0  0  0  0  0  0  0  0  0
   -1.9424    1.2625    0.9075 O   0  0  0  0  0  0  0  0  0  0  0  0
   -2.9990    0.2977    1.2795 C   0  0  0  0  0  0  0  0  0  0  0  0
   -3.7429    1.2781    2.2368 C   0  0  0  0  0  0  0  0  0  0  0  0
   -2.2896   -0.7414    2.1635 C   0  0  0  0  0  0  0  0  0  0  0  0
   -3.5730   -0.4465   -0.0798 C   0  0  1  0  0  0  0  0  0  0  0  0
   -4.7060   -1.5026   -0.4627 C   0  0  0  0  0  0  0  0  0  0  0  0
   -6.1293   -0.9772   -0.4291 C   0  0  0  0  0  0  0  0  0  0  0  0
   -6.1548    0.1616    0.2638 C   0  0  0  0  0  0  0  0  0  0  0  0
   -6.1130   -0.2895    1.7250 C   0  0  0  0  0  0  0  0  0  0  0  0
   -5.7608   -1.3917    2.1315 O   0  0  0  0  0  0  0  0  0  0  0  0
   -5.2111    1.2241   -0.4147 C   0  0  0  0  0  0  0  0  0  0  0  0
   -3.8097    0.6397   -1.1504 C   0  0  2  0  0  0  0  0  0  0  0  0
    8.3526    5.4061   -1.7488 H   0  0  0  0  0  0  0  0  0  0  0  0
    8.2811    6.2032   -3.3294 H   0  0  0  0  0  0  0  0  0  0  0  0
    8.5372    4.4524   -3.2334 H   0  0  0  0  0  0  0  0  0  0  0  0
    6.1555    5.1811   -3.8623 H   0  0  0  0  0  0  0  0  0  0  0  0
    6.0096    5.8803   -2.2487 H   0  0  0  0  0  0  0  0  0  0  0  0
    6.6027    2.9348   -2.8709 H   0  0  0  0  0  0  0  0  0  0  0  0
    6.4735    3.6134   -1.2464 H   0  0  0  0  0  0  0  0  0  0  0  0
    4.1065    4.2743   -1.7071 H   0  0  0  0  0  0  0  0  0  0  0  0
    4.2375    3.6289   -3.3443 H   0  0  0  0  0  0  0  0  0  0  0  0
    4.7276    1.3518   -2.3945 H   0  0  0  0  0  0  0  0  0  0  0  0
    4.5572    2.0149   -0.7648 H   0  0  0  0  0  0  0  0  0  0  0  0
    2.2225    2.7138   -1.2946 H   0  0  0  0  0  0  0  0  0  0  0  0
    2.3733    2.0706   -2.9171 H   0  0  0  0  0  0  0  0  0  0  0  0
    3.7953   -0.8165   -1.9660 H   0  0  0  0  0  0  0  0  0  0  0  0
    2.1997   -1.5563   -2.0512 H   0  0  0  0  0  0  0  0  0  0  0  0
    2.7157   -0.4030   -3.2963 H   0  0  0  0  0  0  0  0  0  0  0  0
    3.6849    0.0391    0.1422 H   0  0  0  0  0  0  0  0  0  0  0  0
    2.4587    1.1437    0.7235 H   0  0  0  0  0  0  0  0  0  0  0  0
    2.0719   -0.5736    0.5134 H   0  0  0  0  0  0  0  0  0  0  0  0
    0.3154   -0.4746   -3.3298 H   0  0  0  0  0  0  0  0  0  0  0  0
   -1.7625   -1.4081   -3.6080 H   0  0  0  0  0  0  0  0  0  0  0  0
    0.4485    1.6367    0.4297 H   0  0  0  0  0  0  0  0  0  0  0  0
   -3.2696    2.2744    2.2447 H   0  0  0  0  0  0  0  0  0  0  0  0
   -3.7126    0.9388    3.2766 H   0  0  0  0  0  0  0  0  0  0  0  0
   -4.7706    1.5257    2.0356 H   0  0  0  0  0  0  0  0  0  0  0  0
   -1.8026   -0.2598    3.0221 H   0  0  0  0  0  0  0  0  0  0  0  0
   -2.9956   -1.4931    2.5279 H   0  0  0  0  0  0  0  0  0  0  0  0
   -1.4855   -1.2473    1.6202 H   0  0  0  0  0  0  0  0  0  0  0  0
   -2.7337   -1.1297   -0.3217 H   0  0  0  0  0  0  0  0  0  0  0  0
   -4.6175   -2.4558    0.0558 H   0  0  0  0  0  0  0  0  0  0  0  0
   -4.5505   -1.7414   -1.5302 H   0  0  0  0  0  0  0  0  0  0  0  0
   -6.5614   -0.9298   -1.4376 H   0  0  0  0  0  0  0  0  0  0  0  0
   -6.4055    0.4790    2.4750 H   0  0  0  0  0  0  0  0  0  0  0  0
   -4.9864    2.0750    0.2323 H   0  0  0  0  0  0  0  0  0  0  0  0
   -5.8154    1.6542   -1.2319 H   0  0  0  0  0  0  0  0  0  0  0  0
   -3.6337    1.7273   -1.2524 H   0  0  0  0  0  0  0  0  0  0  0  0
  1  2  1  0  0  0  0
  1 29  1  0  0  0  0
  1 30  1  0  0  0  0
  1 31  1  0  0  0  0
  2  3  1  0  0  0  0
  2 32  1  0  0  0  0
  2 33  1  0  0  0  0
  3  4  1  0  0  0  0
  3 34  1  0  0  0  0
  3 35  1  0  0  0  0
  4  5  1  0  0  0  0
  4 36  1  0  0  0  0
  4 37  1  0  0  0  0
  5  6  1  0  0  0  0
  5 38  1  0  0  0  0
  5 39  1  0  0  0  0
  6  7  1  0  0  0  0
  6 40  1  0  0  0  0
  6 41  1  0  0  0  0
  7  8  1  0  0  0  0
  7  9  1  0  0  0  0
  7 10  1  0  0  0  0
  8 42  1  0  0  0  0
  8 43  1  0  0  0  0
  8 44  1  0  0  0  0
  9 45  1  0  0  0  0
  9 46  1  0  0  0  0
  9 47  1  0  0  0  0
 10 16  2  0  0  0  0
 10 11  1  0  0  0  0
 11 12  2  0  0  0  0
 11 48  1  0  0  0  0
 12 14  1  0  0  0  0
 12 13  1  0  0  0  0
 13 49  1  0  0  0  0
 14 28  1  0  0  0  0
 14 15  2  0  0  0  0
 15 16  1  0  0  0  0
 15 17  1  0  0  0  0
 16 50  1  0  0  0  0
 17 18  1  0  0  0  0
 18 21  1  0  0  0  0
 18 19  1  0  0  0  0
 18 20  1  0  0  0  0
 19 51  1  0  0  0  0
 19 52  1  0  0  0  0
 19 53  1  0  0  0  0
 20 54  1  0  0  0  0
 20 55  1  0  0  0  0
 20 56  1  0  0  0  0
 21 22  1  0  0  0  0
 21 28  1  0  0  0  0
 21 57  1  6  0  0  0
 22 23  1  0  0  0  0
 22 58  1  0  0  0  0
 22 59  1  0  0  0  0
 23 24  2  3  0  0  0
 23 60  1  0  0  0  0
 24 27  1  0  0  0  0
 24 25  1  0  0  0  0
 25 26  2  0  0  0  0
 25 61  1  0  0  0  0
 27 62  1  0  0  0  0
 27 63  1  0  0  0  0
 28 27  1  0  0  0  0
 28 64  1  1  0  0  0
M  END
$$$$
CHEMBL59540	5XRA	best_smi
 OpenBabel12022417433D

 64 66  0  0  1  0  0  0  0  0999 V2000
   -0.3550   -5.6012   -1.9082 C   0  0  0  0  0  0  0  0  0  0  0  0
    0.5710   -4.4061   -2.0595 C   0  0  0  0  0  0  0  0  0  0  0  0
    0.0333   -3.1905   -1.3083 C   0  0  0  0  0  0  0  0  0  0  0  0
    0.9475   -1.9839   -1.4959 C   0  0  0  0  0  0  0  0  0  0  0  0
    0.4386   -0.7811   -0.7050 C   0  0  0  0  0  0  0  0  0  0  0  0
    1.3804    0.4098   -0.9021 C   0  0  0  0  0  0  0  0  0  0  0  0
    1.0477    1.6435   -0.0387 C   0  0  0  0  0  0  0  0  0  0  0  0
    1.1571    1.3003    1.4773 C   0  0  0  0  0  0  0  0  0  0  0  0
    2.1665    2.7023   -0.2791 C   0  0  0  0  0  0  0  0  0  0  0  0
   -0.2959    2.2761   -0.4397 C   0  0  0  0  0  0  0  0  0  0  0  0
   -0.3975    3.1046   -1.5718 C   0  0  0  0  0  0  0  0  0  0  0  0
   -1.4180    4.0567   -1.6865 C   0  0  0  0  0  0  0  0  0  0  0  0
   -1.3194    4.9631   -2.7008 O   0  0  0  0  0  0  0  0  0  0  0  0
   -2.3982    4.1726   -0.7044 C   0  0  0  0  0  0  0  0  0  0  0  0
   -2.3657    3.2192    0.3133 C   0  0  0  0  0  0  0  0  0  0  0  0
   -1.4065    2.2143    0.4007 C   0  0  0  0  0  0  0  0  0  0  0  0
   -3.0737    3.4331    1.4818 O   0  0  0  0  0  0  0  0  0  0  0  0
   -2.7876    4.7662    1.9532 C   0  0  0  0  0  0  0  0  0  0  0  0
   -3.3797    4.8931    3.3612 C   0  0  0  0  0  0  0  0  0  0  0  0
   -1.2489    5.0209    2.1315 C   0  0  0  0  0  0  0  0  0  0  0  0
   -3.3520    5.7895    0.9472 C   0  0  2  0  0  0  0  0  0  0  0  0
   -4.7424    6.4105    1.2149 C   0  0  0  0  0  0  0  0  0  0  0  0
   -4.7938    7.6644    0.3701 C   0  0  0  0  0  0  0  0  0  0  0  0
   -4.0287    7.7162   -0.7437 C   0  0  0  0  0  0  0  0  0  0  0  0
   -3.2090    8.9620   -0.8239 C   0  0  0  0  0  0  0  0  0  0  0  0
   -2.1643    9.0277   -1.4617 O   0  0  0  0  0  0  0  0  0  0  0  0
   -3.5114    6.4800   -1.4657 C   0  0  0  0  0  0  0  0  0  0  0  0
   -3.4204    5.2639   -0.5214 C   0  0  1  0  0  0  0  0  0  0  0  0
   -0.7978   -5.6454   -0.9080 H   0  0  0  0  0  0  0  0  0  0  0  0
   -1.1680   -5.5501   -2.6396 H   0  0  0  0  0  0  0  0  0  0  0  0
    0.1952   -6.5317   -2.0785 H   0  0  0  0  0  0  0  0  0  0  0  0
    1.5630   -4.6637   -1.6703 H   0  0  0  0  0  0  0  0  0  0  0  0
    0.6943   -4.1732   -3.1239 H   0  0  0  0  0  0  0  0  0  0  0  0
   -0.0421   -3.4276   -0.2395 H   0  0  0  0  0  0  0  0  0  0  0  0
   -0.9777   -2.9489   -1.6575 H   0  0  0  0  0  0  0  0  0  0  0  0
    1.9615   -2.2390   -1.1651 H   0  0  0  0  0  0  0  0  0  0  0  0
    1.0109   -1.7269   -2.5608 H   0  0  0  0  0  0  0  0  0  0  0  0
   -0.5722   -0.5189   -1.0384 H   0  0  0  0  0  0  0  0  0  0  0  0
    0.3734   -1.0483    0.3549 H   0  0  0  0  0  0  0  0  0  0  0  0
    2.4020    0.0808   -0.6595 H   0  0  0  0  0  0  0  0  0  0  0  0
    1.3964    0.6841   -1.9646 H   0  0  0  0  0  0  0  0  0  0  0  0
    0.2462    0.8992    1.9253 H   0  0  0  0  0  0  0  0  0  0  0  0
    1.4299    2.1853    2.0670 H   0  0  0  0  0  0  0  0  0  0  0  0
    1.9314    0.5460    1.6525 H   0  0  0  0  0  0  0  0  0  0  0  0
    2.2582    2.9915   -1.3292 H   0  0  0  0  0  0  0  0  0  0  0  0
    1.9689    3.6171    0.2939 H   0  0  0  0  0  0  0  0  0  0  0  0
    3.1443    2.3176    0.0285 H   0  0  0  0  0  0  0  0  0  0  0  0
    0.3779    3.0815   -2.3344 H   0  0  0  0  0  0  0  0  0  0  0  0
   -0.3973    5.2185   -2.7708 H   0  0  0  0  0  0  0  0  0  0  0  0
   -1.4715    1.5504    1.2484 H   0  0  0  0  0  0  0  0  0  0  0  0
   -4.4348    4.6138    3.3795 H   0  0  0  0  0  0  0  0  0  0  0  0
   -2.8644    4.2163    4.0533 H   0  0  0  0  0  0  0  0  0  0  0  0
   -3.2657    5.9130    3.7505 H   0  0  0  0  0  0  0  0  0  0  0  0
   -1.0611    5.9788    2.6309 H   0  0  0  0  0  0  0  0  0  0  0  0
   -0.7794    4.2218    2.7159 H   0  0  0  0  0  0  0  0  0  0  0  0
   -0.7105    5.0700    1.1796 H   0  0  0  0  0  0  0  0  0  0  0  0
   -2.6232    6.6162    0.9859 H   0  0  0  0  0  0  0  0  0  0  0  0
   -4.8391    6.7198    2.2605 H   0  0  0  0  0  0  0  0  0  0  0  0
   -5.5708    5.7311    0.9887 H   0  0  0  0  0  0  0  0  0  0  0  0
   -5.0991    8.5595    0.9030 H   0  0  0  0  0  0  0  0  0  0  0  0
   -3.5085    9.7801   -0.1487 H   0  0  0  0  0  0  0  0  0  0  0  0
   -4.2011    6.2462   -2.2887 H   0  0  0  0  0  0  0  0  0  0  0  0
   -2.5526    6.7085   -1.9274 H   0  0  0  0  0  0  0  0  0  0  0  0
   -4.3795    4.7307   -0.6422 H   0  0  0  0  0  0  0  0  0  0  0  0
  1  2  1  0  0  0  0
  1 29  1  0  0  0  0
  1 30  1  0  0  0  0
  1 31  1  0  0  0  0
  2  3  1  0  0  0  0
  2 32  1  0  0  0  0
  2 33  1  0  0  0  0
  3  4  1  0  0  0  0
  3 34  1  0  0  0  0
  3 35  1  0  0  0  0
  4  5  1  0  0  0  0
  4 36  1  0  0  0  0
  4 37  1  0  0  0  0
  5  6  1  0  0  0  0
  5 38  1  0  0  0  0
  5 39  1  0  0  0  0
  6  7  1  0  0  0  0
  6 40  1  0  0  0  0
  6 41  1  0  0  0  0
  7  8  1  0  0  0  0
  7  9  1  0  0  0  0
  7 10  1  0  0  0  0
  8 42  1  0  0  0  0
  8 43  1  0  0  0  0
  8 44  1  0  0  0  0
  9 45  1  0  0  0  0
  9 46  1  0  0  0  0
  9 47  1  0  0  0  0
 10 16  2  0  0  0  0
 10 11  1  0  0  0  0
 11 12  2  0  0  0  0
 11 48  1  0  0  0  0
 12 13  1  0  0  0  0
 12 14  1  0  0  0  0
 13 49  1  0  0  0  0
 14 28  1  0  0  0  0
 14 15  2  0  0  0  0
 15 16  1  0  0  0  0
 15 17  1  0  0  0  0
 16 50  1  0  0  0  0
 17 18  1  0  0  0  0
 18 19  1  0  0  0  0
 18 20  1  0  0  0  0
 18 21  1  0  0  0  0
 19 51  1  0  0  0  0
 19 52  1  0  0  0  0
 19 53  1  0  0  0  0
 20 54  1  0  0  0  0
 20 55  1  0  0  0  0
 20 56  1  0  0  0  0
 21 22  1  0  0  0  0
 21 28  1  0  0  0  0
 21 57  1  6  0  0  0
 22 23  1  0  0  0  0
 22 58  1  0  0  0  0
 22 59  1  0  0  0  0
 23 24  2  0  0  0  0
 23 60  1  0  0  0  0
 24 25  1  0  0  0  0
 24 27  1  0  0  0  0
 25 26  2  0  0  0  0
 25 61  1  0  0  0  0
 27 62  1  0  0  0  0
 27 63  1  0  0  0  0
 28 27  1  0  0  0  0
 28 64  1  6  0  0  0
M  END
$$$$
CHEMBL199561	5XRA	best_smi
 OpenBabel12022417433D

 59 61  0  0  1  0  0  0  0  0999 V2000
    4.4149   -3.0476   -3.2010 C   0  0  0  0  0  0  0  0  0  0  0  0
    3.9494   -2.1843   -2.0758 C   0  0  0  0  0  0  0  0  0  0  0  0
    4.8111   -1.8864   -1.0881 C   0  0  0  0  0  0  0  0  0  0  0  0
    4.3473   -2.0895    0.3218 C   0  0  0  0  0  0  0  0  0  0  0  0
    3.2708   -3.2293    0.2815 C   0  0  2  0  0  0  0  0  0  0  0  0
    2.0438   -2.7219   -0.4977 C   0  0  1  0  0  0  0  0  0  0  0  0
    2.4572   -2.0907   -1.8428 C   0  0  0  0  0  0  0  0  0  0  0  0
    0.9350   -3.7450   -0.4270 C   0  0  0  0  0  0  0  0  0  0  0  0
   -0.0279   -4.0002   -1.4010 C   0  0  0  0  0  0  0  0  0  0  0  0
    0.1986   -3.9062   -2.7399 O   0  0  0  0  0  0  0  0  0  0  0  0
   -1.3408   -4.2758   -1.0305 C   0  0  0  0  0  0  0  0  0  0  0  0
   -1.6831   -4.3023    0.3255 C   0  0  0  0  0  0  0  0  0  0  0  0
   -3.0603   -3.8079    0.8017 C   0  0  0  0  0  0  0  0  0  0  0  0
   -3.4442   -2.5541   -0.0397 C   0  0  0  0  0  0  0  0  0  0  0  0
   -3.0018   -3.2860    2.2629 C   0  0  0  0  0  0  0  0  0  0  0  0
   -4.1775   -4.8615    0.6290 C   0  0  0  0  0  0  0  0  0  0  0  0
   -3.9931   -6.1510    1.4447 C   0  0  0  0  0  0  0  0  0  0  0  0
   -5.1863   -7.0899    1.2308 C   0  0  0  0  0  0  0  0  0  0  0  0
   -5.0173   -8.3580    2.0347 C   0  0  0  0  0  0  0  0  0  0  0  0
   -6.5504   -9.5274    1.7384 Br  0  0  0  0  0  0  0  0  0  0  0  0
   -0.6466   -4.4975    1.2390 C   0  0  0  0  0  0  0  0  0  0  0  0
    0.6500   -4.1644    0.8723 C   0  0  0  0  0  0  0  0  0  0  0  0
    1.5199   -4.0253    1.9122 O   0  0  0  0  0  0  0  0  0  0  0  0
    2.9242   -3.9245    1.6237 C   0  0  0  0  0  0  0  0  0  0  0  0
    3.4811   -5.3675    1.5692 C   0  0  0  0  0  0  0  0  0  0  0  0
    3.5135   -3.2366    2.8638 C   0  0  0  0  0  0  0  0  0  0  0  0
    3.9540   -2.7841   -4.1557 H   0  0  0  0  0  0  0  0  0  0  0  0
    4.1202   -4.0834   -2.9591 H   0  0  0  0  0  0  0  0  0  0  0  0
    5.5000   -3.0443   -3.3094 H   0  0  0  0  0  0  0  0  0  0  0  0
    5.8805   -1.9372   -1.2444 H   0  0  0  0  0  0  0  0  0  0  0  0
    5.1922   -2.4165    0.9193 H   0  0  0  0  0  0  0  0  0  0  0  0
    3.9397   -1.1650    0.7487 H   0  0  0  0  0  0  0  0  0  0  0  0
    3.6987   -4.0283   -0.3465 H   0  0  0  0  0  0  0  0  0  0  0  0
    1.6327   -1.8727    0.0781 H   0  0  0  0  0  0  0  0  0  0  0  0
    2.1921   -1.0210   -1.8118 H   0  0  0  0  0  0  0  0  0  0  0  0
    1.9191   -2.4542   -2.7155 H   0  0  0  0  0  0  0  0  0  0  0  0
    1.0911   -4.2554   -2.8983 H   0  0  0  0  0  0  0  0  0  0  0  0
   -2.1027   -4.3069   -1.8053 H   0  0  0  0  0  0  0  0  0  0  0  0
   -3.5134   -2.7630   -1.1132 H   0  0  0  0  0  0  0  0  0  0  0  0
   -4.4158   -2.1559    0.2645 H   0  0  0  0  0  0  0  0  0  0  0  0
   -2.7028   -1.7511    0.0864 H   0  0  0  0  0  0  0  0  0  0  0  0
   -2.8860   -4.0920    2.9926 H   0  0  0  0  0  0  0  0  0  0  0  0
   -3.9073   -2.7320    2.5266 H   0  0  0  0  0  0  0  0  0  0  0  0
   -2.1552   -2.5991    2.4067 H   0  0  0  0  0  0  0  0  0  0  0  0
   -5.1387   -4.4080    0.9126 H   0  0  0  0  0  0  0  0  0  0  0  0
   -4.2710   -5.1270   -0.4307 H   0  0  0  0  0  0  0  0  0  0  0  0
   -3.9036   -5.9170    2.5079 H   0  0  0  0  0  0  0  0  0  0  0  0
   -3.0723   -6.6564    1.1414 H   0  0  0  0  0  0  0  0  0  0  0  0
   -6.1077   -6.5699    1.5278 H   0  0  0  0  0  0  0  0  0  0  0  0
   -5.2849   -7.3216    0.1670 H   0  0  0  0  0  0  0  0  0  0  0  0
   -4.9831   -8.1669    3.1115 H   0  0  0  0  0  0  0  0  0  0  0  0
   -4.1334   -8.9233    1.7363 H   0  0  0  0  0  0  0  0  0  0  0  0
   -0.8388   -4.6880    2.2908 H   0  0  0  0  0  0  0  0  0  0  0  0
    4.5437   -5.3750    1.2972 H   0  0  0  0  0  0  0  0  0  0  0  0
    3.3672   -5.8753    2.5310 H   0  0  0  0  0  0  0  0  0  0  0  0
    2.9389   -5.9737    0.8322 H   0  0  0  0  0  0  0  0  0  0  0  0
    3.4622   -2.1468    2.7869 H   0  0  0  0  0  0  0  0  0  0  0  0
    4.5557   -3.5237    3.0356 H   0  0  0  0  0  0  0  0  0  0  0  0
    2.9387   -3.4947    3.7624 H   0  0  0  0  0  0  0  0  0  0  0  0
  1  2  1  0  0  0  0
  1 27  1  0  0  0  0
  1 28  1  0  0  0  0
  1 29  1  0  0  0  0
  2  7  1  0  0  0  0
  2  3  2  0  0  0  0
  3  4  1  0  0  0  0
  3 30  1  0  0  0  0
  4 31  1  0  0  0  0
  4 32  1  0  0  0  0
  5  4  1  0  0  0  0
  5  6  1  0  0  0  0
  5 24  1  0  0  0  0
  5 33  1  6  0  0  0
  6  7  1  0  0  0  0
  6  8  1  0  0  0  0
  6 34  1  1  0  0  0
  7 35  1  0  0  0  0
  7 36  1  0  0  0  0
  8 22  2  0  0  0  0
  8  9  1  0  0  0  0
  9 10  1  0  0  0  0
  9 11  2  0  0  0  0
 10 37  1  0  0  0  0
 11 12  1  0  0  0  0
 11 38  1  0  0  0  0
 12 13  1  0  0  0  0
 12 21  2  0  0  0  0
 13 14  1  0  0  0  0
 13 15  1  0  0  0  0
 13 16  1  0  0  0  0
 14 39  1  0  0  0  0
 14 40  1  0  0  0  0
 14 41  1  0  0  0  0
 15 42  1  0  0  0  0
 15 43  1  0  0  0  0
 15 44  1  0  0  0  0
 16 17  1  0  0  0  0
 16 45  1  0  0  0  0
 16 46  1  0  0  0  0
 17 18  1  0  0  0  0
 17 47  1  0  0  0  0
 17 48  1  0  0  0  0
 18 19  1  0  0  0  0
 18 49  1  0  0  0  0
 18 50  1  0  0  0  0
 19 20  1  0  0  0  0
 19 51  1  0  0  0  0
 19 52  1  0  0  0  0
 21 22  1  0  0  0  0
 21 53  1  0  0  0  0
 22 23  1  0  0  0  0
 23 24  1  0  0  0  0
 24 25  1  0  0  0  0
 24 26  1  0  0  0  0
 25 54  1  0  0  0  0
 25 55  1  0  0  0  0
 25 56  1  0  0  0  0
 26 57  1  0  0  0  0
 26 58  1  0  0  0  0
 26 59  1  0  0  0  0
M  END
$$$$
CHEMBL252949	5XRA	best_smi
 OpenBabel12022417433D

 66 69  0  0  1  0  0  0  0  0999 V2000
    6.9970    1.3861   -0.5752 C   0  0  0  0  0  0  0  0  0  0  0  0
    5.7357    0.9316   -1.2705 C   0  0  0  0  0  0  0  0  0  0  0  0
    5.3674   -0.2997   -0.8846 C   0  0  0  0  0  0  0  0  0  0  0  0
    4.0359   -0.5078   -0.2616 C   0  0  0  0  0  0  0  0  0  0  0  0
    3.2061    0.7595   -0.0104 C   0  0  2  0  0  0  0  0  0  0  0  0
    3.5299    2.0172   -0.8258 C   0  0  1  0  0  0  0  0  0  0  0  0
    4.6957    1.9207   -1.7975 C   0  0  0  0  0  0  0  0  0  0  0  0
    2.1049    2.5453   -0.9561 C   0  0  0  0  0  0  0  0  0  0  0  0
    1.0950    2.1213   -1.8141 C   0  0  0  0  0  0  0  0  0  0  0  0
    1.4376    1.3060   -2.8693 O   0  0  0  0  0  0  0  0  0  0  0  0
   -0.2815    2.2298   -1.4570 C   0  0  0  0  0  0  0  0  0  0  0  0
   -0.6760    2.8092   -0.2266 C   0  0  0  0  0  0  0  0  0  0  0  0
   -2.0868    2.7320    0.4254 C   0  0  0  0  0  0  0  0  0  0  0  0
   -1.9548    2.2319    1.9227 C   0  0  0  0  0  0  0  0  0  0  0  0
   -2.6398    4.1817    0.5083 C   0  0  0  0  0  0  0  0  0  0  0  0
   -3.1480    1.7625   -0.2638 C   0  0  0  0  0  0  0  0  0  0  0  0
   -3.8156    2.3771   -1.5218 C   0  0  0  0  0  0  0  0  0  0  0  0
   -4.0845    1.5500   -2.7699 C   0  0  0  0  0  0  0  0  0  0  0  0
   -4.9730    0.3396   -2.5638 C   0  0  0  0  0  0  0  0  0  0  0  0
   -4.3453   -0.8371   -1.8294 C   0  0  0  0  0  0  0  0  0  0  0  0
   -2.8833   -0.6637   -1.4167 C   0  0  0  0  0  0  0  0  0  0  0  0
   -2.6848    0.2761   -0.2389 C   0  0  0  0  0  0  0  0  0  0  0  0
    0.3341    3.3633    0.5508 C   0  0  0  0  0  0  0  0  0  0  0  0
    1.6465    3.0088    0.2861 C   0  0  0  0  0  0  0  0  0  0  0  0
    2.3908    2.7007    1.4328 O   0  0  0  0  0  0  0  0  0  0  0  0
    2.9367    1.3185    1.4334 C   0  0  0  0  0  0  0  0  0  0  0  0
    1.9294    0.4028    2.1442 C   0  0  0  0  0  0  0  0  0  0  0  0
    4.2107    1.4481    2.2731 C   0  0  0  0  0  0  0  0  0  0  0  0
    7.8323    0.7000   -0.7542 H   0  0  0  0  0  0  0  0  0  0  0  0
    7.2987    2.4042   -0.8200 H   0  0  0  0  0  0  0  0  0  0  0  0
    6.8073    1.3648    0.5113 H   0  0  0  0  0  0  0  0  0  0  0  0
    6.1153   -1.0383   -0.6058 H   0  0  0  0  0  0  0  0  0  0  0  0
    4.1957   -1.0261    0.6909 H   0  0  0  0  0  0  0  0  0  0  0  0
    3.4698   -1.2054   -0.8956 H   0  0  0  0  0  0  0  0  0  0  0  0
    2.2264    0.3727   -0.3346 H   0  0  0  0  0  0  0  0  0  0  0  0
    3.9960    2.7656   -0.1603 H   0  0  0  0  0  0  0  0  0  0  0  0
    5.1746    2.9115   -1.8871 H   0  0  0  0  0  0  0  0  0  0  0  0
    4.3841    1.6581   -2.8117 H   0  0  0  0  0  0  0  0  0  0  0  0
    0.7741    0.5937   -2.9056 H   0  0  0  0  0  0  0  0  0  0  0  0
   -1.0249    1.7811   -2.1067 H   0  0  0  0  0  0  0  0  0  0  0  0
   -2.7224    2.6894    2.5565 H   0  0  0  0  0  0  0  0  0  0  0  0
   -0.9964    2.4487    2.4000 H   0  0  0  0  0  0  0  0  0  0  0  0
   -2.0650    1.1496    2.0248 H   0  0  0  0  0  0  0  0  0  0  0  0
   -3.7064    4.1844    0.7571 H   0  0  0  0  0  0  0  0  0  0  0  0
   -2.5060    4.7326   -0.4299 H   0  0  0  0  0  0  0  0  0  0  0  0
   -2.1309    4.7635    1.2876 H   0  0  0  0  0  0  0  0  0  0  0  0
   -3.9908    1.7538    0.4473 H   0  0  0  0  0  0  0  0  0  0  0  0
   -4.7870    2.7833   -1.1953 H   0  0  0  0  0  0  0  0  0  0  0  0
   -3.2497    3.2550   -1.8534 H   0  0  0  0  0  0  0  0  0  0  0  0
   -3.1469    1.2884   -3.2636 H   0  0  0  0  0  0  0  0  0  0  0  0
   -4.5992    2.2144   -3.4824 H   0  0  0  0  0  0  0  0  0  0  0  0
   -5.8960    0.6343   -2.0533 H   0  0  0  0  0  0  0  0  0  0  0  0
   -5.2900   -0.0144   -3.5549 H   0  0  0  0  0  0  0  0  0  0  0  0
   -4.4056   -1.7187   -2.4805 H   0  0  0  0  0  0  0  0  0  0  0  0
   -4.9479   -1.0831   -0.9484 H   0  0  0  0  0  0  0  0  0  0  0  0
   -2.2652   -0.3619   -2.2666 H   0  0  0  0  0  0  0  0  0  0  0  0
   -2.5112   -1.6443   -1.1223 H   0  0  0  0  0  0  0  0  0  0  0  0
   -3.1985   -0.1979    0.6170 H   0  0  0  0  0  0  0  0  0  0  0  0
   -1.6163    0.2076   -0.0226 H   0  0  0  0  0  0  0  0  0  0  0  0
    0.1350    3.8375    1.5076 H   0  0  0  0  0  0  0  0  0  0  0  0
    1.0376    0.2475    1.5251 H   0  0  0  0  0  0  0  0  0  0  0  0
    1.5788    0.8480    3.0801 H   0  0  0  0  0  0  0  0  0  0  0  0
    2.3655   -0.5794    2.3524 H   0  0  0  0  0  0  0  0  0  0  0  0
    4.9029    2.1697    1.8313 H   0  0  0  0  0  0  0  0  0  0  0  0
    4.7263    0.4928    2.4008 H   0  0  0  0  0  0  0  0  0  0  0  0
    3.9640    1.8486    3.2667 H   0  0  0  0  0  0  0  0  0  0  0  0
  1  2  1  0  0  0  0
  1 29  1  0  0  0  0
  1 30  1  0  0  0  0
  1 31  1  0  0  0  0
  2  7  1  0  0  0  0
  2  3  2  0  0  0  0
  3  4  1  0  0  0  0
  3 32  1  0  0  0  0
  4 33  1  0  0  0  0
  4 34  1  0  0  0  0
  5  4  1  0  0  0  0
  5  6  1  0  0  0  0
  5 26  1  0  0  0  0
  5 35  1  6  0  0  0
  6  7  1  0  0  0  0
  6  8  1  0  0  0  0
  6 36  1  1  0  0  0
  7 37  1  0  0  0  0
  7 38  1  0  0  0  0
  8 24  2  0  0  0  0
  8  9  1  0  0  0  0
  9 10  1  0  0  0  0
  9 11  2  0  0  0  0
 10 39  1  0  0  0  0
 11 12  1  0  0  0  0
 11 40  1  0  0  0  0
 12 13  1  0  0  0  0
 12 23  2  0  0  0  0
 13 14  1  0  0  0  0
 13 15  1  0  0  0  0
 13 16  1  0  0  0  0
 14 41  1  0  0  0  0
 14 42  1  0  0  0  0
 14 43  1  0  0  0  0
 15 44  1  0  0  0  0
 15 45  1  0  0  0  0
 15 46  1  0  0  0  0
 16 22  1  0  0  0  0
 16 17  1  0  0  0  0
 16 47  1  0  0  0  0
 17 18  1  0  0  0  0
 17 48  1  0  0  0  0
 17 49  1  0  0  0  0
 18 19  1  0  0  0  0
 18 50  1  0  0  0  0
 18 51  1  0  0  0  0
 19 20  1  0  0  0  0
 19 52  1  0  0  0  0
 19 53  1  0  0  0  0
 20 21  1  0  0  0  0
 20 54  1  0  0  0  0
 20 55  1  0  0  0  0
 21 22  1  0  0  0  0
 21 56  1  0  0  0  0
 21 57  1  0  0  0  0
 22 58  1  0  0  0  0
 22 59  1  0  0  0  0
 23 24  1  0  0  0  0
 23 60  1  0  0  0  0
 24 25  1  0  0  0  0
 25 26  1  0  0  0  0
 26 27  1  0  0  0  0
 26 28  1  0  0  0  0
 27 61  1  0  0  0  0
 27 62  1  0  0  0  0
 27 63  1  0  0  0  0
 28 64  1  0  0  0  0
 28 65  1  0  0  0  0
 28 66  1  0  0  0  0
M  END
$$$$
CHEMBL74662	5XRA	best_smi
 OpenBabel12022417433D

 53 55  0  0  1  0  0  0  0  0999 V2000
    1.0956    0.8974    0.4470 C   0  0  0  0  0  0  0  0  0  0  0  0
    2.5337    1.1028    0.8294 C   0  0  0  0  0  0  0  0  0  0  0  0
    3.4254    0.1399    0.5489 C   0  0  0  0  0  0  0  0  0  0  0  0
    4.8404    0.2397    0.9887 C   0  0  0  0  0  0  0  0  0  0  0  0
    4.9723    0.9911    2.3138 C   0  0  3  0  0  0  0  0  0  0  0  0
    4.3544    2.3991    2.1958 C   0  0  3  0  0  0  0  0  0  0  0  0
    2.9139    2.3784    1.5804 C   0  0  0  0  0  0  0  0  0  0  0  0
    4.4989    3.1049    3.5404 C   0  0  0  0  0  0  0  0  0  0  0  0
    4.3765    4.4896    3.6985 C   0  0  0  0  0  0  0  0  0  0  0  0
    4.1031    5.3435    2.6673 O   0  0  0  0  0  0  0  0  0  0  0  0
    4.5670    5.1096    4.9492 C   0  0  0  0  0  0  0  0  0  0  0  0
    4.8892    4.3554    6.0790 C   0  0  0  0  0  0  0  0  0  0  0  0
    5.0959    4.9908    7.4344 C   0  0  0  0  0  0  0  0  0  0  0  0
    3.8819    5.7658    7.9604 C   0  0  0  0  0  0  0  0  0  0  0  0
    2.6427    4.8857    8.1592 C   0  0  0  0  0  0  0  0  0  0  0  0
    1.4683    5.6992    8.7034 C   0  0  0  0  0  0  0  0  0  0  0  0
    0.2087    4.8726    8.8946 C   0  0  0  0  0  0  0  0  0  0  0  0
    0.3818    3.5715    8.5840 F   0  0  0  0  0  0  0  0  0  0  0  0
   -0.2080    4.9325   10.1802 F   0  0  0  0  0  0  0  0  0  0  0  0
   -0.7967    5.3476    8.1246 F   0  0  0  0  0  0  0  0  0  0  0  0
    5.0383    2.9764    5.9351 C   0  0  0  0  0  0  0  0  0  0  0  0
    4.8346    2.3632    4.6920 C   0  0  0  0  0  0  0  0  0  0  0  0
    5.0229    1.0012    4.7172 O   0  0  0  0  0  0  0  0  0  0  0  0
    4.4568    0.2834    3.6006 C   0  0  0  0  0  0  0  0  0  0  0  0
    2.9434    0.1916    3.8756 C   0  0  0  0  0  0  0  0  0  0  0  0
    5.0058   -1.1476    3.6876 C   0  0  0  0  0  0  0  0  0  0  0  0
    1.0154    0.3744   -0.5134 H   0  0  0  0  0  0  0  0  0  0  0  0
    0.5628    1.8469    0.3505 H   0  0  0  0  0  0  0  0  0  0  0  0
    0.5903    0.2899    1.2060 H   0  0  0  0  0  0  0  0  0  0  0  0
    3.1277   -0.7709    0.0367 H   0  0  0  0  0  0  0  0  0  0  0  0
    5.4007    0.7697    0.2030 H   0  0  0  0  0  0  0  0  0  0  0  0
    5.2943   -0.7542    1.0533 H   0  0  0  0  0  0  0  0  0  0  0  0
    6.0549    1.1363    2.4574 H   0  0  0  0  0  0  0  0  0  0  0  0
    4.9929    2.9451    1.4848 H   0  0  0  0  0  0  0  0  0  0  0  0
    2.1631    2.5785    2.3512 H   0  0  0  0  0  0  0  0  0  0  0  0
    2.8332    3.2111    0.8701 H   0  0  0  0  0  0  0  0  0  0  0  0
    4.2675    4.8939    1.8264 H   0  0  0  0  0  0  0  0  0  0  0  0
    4.4726    6.1894    5.0206 H   0  0  0  0  0  0  0  0  0  0  0  0
    5.9579    5.6663    7.3681 H   0  0  0  0  0  0  0  0  0  0  0  0
    5.3707    4.2260    8.1726 H   0  0  0  0  0  0  0  0  0  0  0  0
    3.6405    6.5935    7.2829 H   0  0  0  0  0  0  0  0  0  0  0  0
    4.1560    6.2187    8.9215 H   0  0  0  0  0  0  0  0  0  0  0  0
    2.8801    4.0712    8.8545 H   0  0  0  0  0  0  0  0  0  0  0  0
    2.3485    4.4280    7.2077 H   0  0  0  0  0  0  0  0  0  0  0  0
    1.2527    6.5299    8.0208 H   0  0  0  0  0  0  0  0  0  0  0  0
    1.7516    6.1503    9.6613 H   0  0  0  0  0  0  0  0  0  0  0  0
    5.3025    2.3537    6.7865 H   0  0  0  0  0  0  0  0  0  0  0  0
    2.4496    1.1666    3.9295 H   0  0  0  0  0  0  0  0  0  0  0  0
    2.7679   -0.2442    4.8692 H   0  0  0  0  0  0  0  0  0  0  0  0
    2.4160   -0.4350    3.1506 H   0  0  0  0  0  0  0  0  0  0  0  0
    6.0972   -1.1582    3.5984 H   0  0  0  0  0  0  0  0  0  0  0  0
    4.5804   -1.7912    2.9102 H   0  0  0  0  0  0  0  0  0  0  0  0
    4.7674   -1.6001    4.6568 H   0  0  0  0  0  0  0  0  0  0  0  0
  1  2  1  0  0  0  0
  1 27  1  0  0  0  0
  1 28  1  0  0  0  0
  1 29  1  0  0  0  0
  2  7  1  0  0  0  0
  2  3  2  0  0  0  0
  3  4  1  0  0  0  0
  3 30  1  0  0  0  0
  4  5  1  0  0  0  0
  4 31  1  0  0  0  0
  4 32  1  0  0  0  0
  5 24  1  0  0  0  0
  5  6  1  0  0  0  0
  5 33  1  0  0  0  0
  6  7  1  0  0  0  0
  6  8  1  0  0  0  0
  6 34  1  0  0  0  0
  7 35  1  0  0  0  0
  7 36  1  0  0  0  0
  8 22  2  0  0  0  0
  8  9  1  0  0  0  0
  9 10  1  0  0  0  0
  9 11  2  0  0  0  0
 10 37  1  0  0  0  0
 11 12  1  0  0  0  0
 11 38  1  0  0  0  0
 12 13  1  0  0  0  0
 12 21  2  0  0  0  0
 13 14  1  0  0  0  0
 13 39  1  0  0  0  0
 13 40  1  0  0  0  0
 14 15  1  0  0  0  0
 14 41  1  0  0  0  0
 14 42  1  0  0  0  0
 15 16  1  0  0  0  0
 15 43  1  0  0  0  0
 15 44  1  0  0  0  0
 16 17  1  0  0  0  0
 16 45  1  0  0  0  0
 16 46  1  0  0  0  0
 17 18  1  0  0  0  0
 17 19  1  0  0  0  0
 17 20  1  0  0  0  0
 21 22  1  0  0  0  0
 21 47  1  0  0  0  0
 22 23  1  0  0  0  0
 23 24  1  0  0  0  0
 24 25  1  0  0  0  0
 24 26  1  0  0  0  0
 25 48  1  0  0  0  0
 25 49  1  0  0  0  0
 25 50  1  0  0  0  0
 26 51  1  0  0  0  0
 26 52  1  0  0  0  0
 26 53  1  0  0  0  0
M  END
$$$$
CHEMBL337536	5XRA	best_smi
 OpenBabel12022417433D

 73 76  0  0  1  0  0  0  0  0999 V2000
    4.5652    2.0366   -4.3252 C   0  0  0  0  0  0  0  0  0  0  0  0
    4.9540    1.7262   -2.9154 C   0  0  0  0  0  0  0  0  0  0  0  0
    5.4623    0.5375   -2.5455 C   0  0  0  0  0  0  0  0  0  0  0  0
    5.4341    0.1243   -1.1013 C   0  0  0  0  0  0  0  0  0  0  0  0
    4.1206    0.6477   -0.5039 C   0  0  2  0  0  0  0  0  0  0  0  0
    4.0673    2.1853   -0.5650 C   0  0  1  0  0  0  0  0  0  0  0  0
    4.6595    2.7678   -1.8662 C   0  0  0  0  0  0  0  0  0  0  0  0
    2.6545    2.5408   -0.1858 C   0  0  0  0  0  0  0  0  0  0  0  0
    1.8576    3.5273   -0.7431 C   0  0  0  0  0  0  0  0  0  0  0  0
    1.9873    3.9702   -2.0220 O   0  0  0  0  0  0  0  0  0  0  0  0
    0.7935    4.0596   -0.0346 C   0  0  0  0  0  0  0  0  0  0  0  0
    0.3477    3.4456    1.1437 C   0  0  0  0  0  0  0  0  0  0  0  0
   -0.6777    4.1069    2.0525 C   0  0  0  0  0  0  0  0  0  0  0  0
   -1.2221    3.1679    3.1585 C   0  0  0  0  0  0  0  0  0  0  0  0
    0.0506    5.2824    2.7409 C   0  0  0  0  0  0  0  0  0  0  0  0
   -1.8403    4.5825    1.1649 C   0  0  0  0  0  0  0  0  0  0  0  0
   -2.9603    5.2590    1.9223 C   0  0  0  0  0  0  0  0  0  0  0  0
   -4.0218    5.6840    0.9278 C   0  0  0  0  0  0  0  0  0  0  0  0
   -5.1781    6.3177    1.6804 C   0  0  0  0  0  0  0  0  0  0  0  0
   -6.2943    6.7624    0.7347 C   0  0  3  0  0  0  0  0  0  0  0  0
   -6.8328    5.6362   -0.0526 C   0  0  0  0  0  0  0  0  0  0  0  0
   -7.2364    4.7387   -0.6740 N   0  0  0  0  0  0  0  0  0  0  0  0
   -7.3921    7.4367    1.5267 C   0  0  0  0  0  0  0  0  0  0  0  0
   -8.1700    6.7150    2.4490 C   0  0  0  0  0  0  0  0  0  0  0  0
   -9.2445    7.3239    3.0902 C   0  0  0  0  0  0  0  0  0  0  0  0
   -9.5387    8.6594    2.8319 C   0  0  0  0  0  0  0  0  0  0  0  0
   -8.7362    9.3970    1.9628 C   0  0  0  0  0  0  0  0  0  0  0  0
   -7.6614    8.7932    1.3176 C   0  0  0  0  0  0  0  0  0  0  0  0
    0.9543    2.2582    1.5182 C   0  0  0  0  0  0  0  0  0  0  0  0
    2.1423    1.8749    0.9283 C   0  0  0  0  0  0  0  0  0  0  0  0
    2.7619    0.8710    1.5933 O   0  0  0  0  0  0  0  0  0  0  0  0
    3.7521    0.1032    0.9009 C   0  0  0  0  0  0  0  0  0  0  0  0
    4.9219    0.0429    1.8874 C   0  0  0  0  0  0  0  0  0  0  0  0
    3.0905   -1.2777    0.7576 C   0  0  0  0  0  0  0  0  0  0  0  0
    5.0135    2.9699   -4.6723 H   0  0  0  0  0  0  0  0  0  0  0  0
    3.4733    2.1337   -4.3763 H   0  0  0  0  0  0  0  0  0  0  0  0
    4.8505    1.2324   -5.0100 H   0  0  0  0  0  0  0  0  0  0  0  0
    5.7262   -0.2156   -3.2803 H   0  0  0  0  0  0  0  0  0  0  0  0
    6.3169    0.5028   -0.5743 H   0  0  0  0  0  0  0  0  0  0  0  0
    5.4495   -0.9685   -1.0508 H   0  0  0  0  0  0  0  0  0  0  0  0
    3.3147    0.2974   -1.1741 H   0  0  0  0  0  0  0  0  0  0  0  0
    4.6883    2.5971    0.2464 H   0  0  0  0  0  0  0  0  0  0  0  0
    5.6186    3.2457   -1.6149 H   0  0  0  0  0  0  0  0  0  0  0  0
    4.0916    3.5905   -2.2950 H   0  0  0  0  0  0  0  0  0  0  0  0
    1.6188    3.2417   -2.5592 H   0  0  0  0  0  0  0  0  0  0  0  0
    0.3428    4.9706   -0.4189 H   0  0  0  0  0  0  0  0  0  0  0  0
   -1.8275    2.3618    2.7259 H   0  0  0  0  0  0  0  0  0  0  0  0
   -1.8441    3.7068    3.8797 H   0  0  0  0  0  0  0  0  0  0  0  0
   -0.4245    2.7131    3.7553 H   0  0  0  0  0  0  0  0  0  0  0  0
   -0.5109    5.6639    3.5993 H   0  0  0  0  0  0  0  0  0  0  0  0
    0.2128    6.1177    2.0499 H   0  0  0  0  0  0  0  0  0  0  0  0
    1.0378    4.9747    3.1112 H   0  0  0  0  0  0  0  0  0  0  0  0
   -1.4934    5.2962    0.4082 H   0  0  0  0  0  0  0  0  0  0  0  0
   -2.2426    3.7245    0.6059 H   0  0  0  0  0  0  0  0  0  0  0  0
   -2.5829    6.1312    2.4664 H   0  0  0  0  0  0  0  0  0  0  0  0
   -3.4050    4.5727    2.6492 H   0  0  0  0  0  0  0  0  0  0  0  0
   -4.3571    4.8020    0.3688 H   0  0  0  0  0  0  0  0  0  0  0  0
   -3.6037    6.3904    0.2003 H   0  0  0  0  0  0  0  0  0  0  0  0
   -5.5477    5.6017    2.4270 H   0  0  0  0  0  0  0  0  0  0  0  0
   -4.8016    7.1844    2.2412 H   0  0  0  0  0  0  0  0  0  0  0  0
   -5.8651    7.4816    0.0240 H   0  0  0  0  0  0  0  0  0  0  0  0
   -7.9629    5.6651    2.6555 H   0  0  0  0  0  0  0  0  0  0  0  0
   -9.8613    6.7497    3.7759 H   0  0  0  0  0  0  0  0  0  0  0  0
  -10.3984    9.1272    3.3032 H   0  0  0  0  0  0  0  0  0  0  0  0
   -8.9599   10.4423    1.7724 H   0  0  0  0  0  0  0  0  0  0  0  0
   -7.0498    9.3828    0.6379 H   0  0  0  0  0  0  0  0  0  0  0  0
    0.5917    1.6488    2.3376 H   0  0  0  0  0  0  0  0  0  0  0  0
    4.6307   -0.5073    2.7917 H   0  0  0  0  0  0  0  0  0  0  0  0
    5.1929    1.0489    2.2307 H   0  0  0  0  0  0  0  0  0  0  0  0
    5.8066   -0.4451    1.4766 H   0  0  0  0  0  0  0  0  0  0  0  0
    3.7050   -1.9819    0.1947 H   0  0  0  0  0  0  0  0  0  0  0  0
    2.1200   -1.1781    0.2513 H   0  0  0  0  0  0  0  0  0  0  0  0
    2.8616   -1.7083    1.7394 H   0  0  0  0  0  0  0  0  0  0  0  0
  1  2  1  0  0  0  0
  1 35  1  0  0  0  0
  1 36  1  0  0  0  0
  1 37  1  0  0  0  0
  2  7  1  0  0  0  0
  2  3  2  0  0  0  0
  3  4  1  0  0  0  0
  3 38  1  0  0  0  0
  4 39  1  0  0  0  0
  4 40  1  0  0  0  0
  5  4  1  0  0  0  0
  5  6  1  0  0  0  0
  5 32  1  0  0  0  0
  5 41  1  6  0  0  0
  6  7  1  0  0  0  0
  6  8  1  0  0  0  0
  6 42  1  1  0  0  0
  7 43  1  0  0  0  0
  7 44  1  0  0  0  0
  8 30  2  0  0  0  0
  8  9  1  0  0  0  0
  9 10  1  0  0  0  0
  9 11  2  0  0  0  0
 10 45  1  0  0  0  0
 11 12  1  0  0  0  0
 11 46  1  0  0  0  0
 12 13  1  0  0  0  0
 12 29  2  0  0  0  0
 13 14  1  0  0  0  0
 13 15  1  0  0  0  0
 13 16  1  0  0  0  0
 14 47  1  0  0  0  0
 14 48  1  0  0  0  0
 14 49  1  0  0  0  0
 15 50  1  0  0  0  0
 15 51  1  0  0  0  0
 15 52  1  0  0  0  0
 16 17  1  0  0  0  0
 16 53  1  0  0  0  0
 16 54  1  0  0  0  0
 17 18  1  0  0  0  0
 17 55  1  0  0  0  0
 17 56  1  0  0  0  0
 18 19  1  0  0  0  0
 18 57  1  0  0  0  0
 18 58  1  0  0  0  0
 19 20  1  0  0  0  0
 19 59  1  0  0  0  0
 19 60  1  0  0  0  0
 20 21  1  0  0  0  0
 20 23  1  0  0  0  0
 20 61  1  0  0  0  0
 21 22  3  0  0  0  0
 23 28  2  0  0  0  0
 23 24  1  0  0  0  0
 24 25  2  0  0  0  0
 24 62  1  0  0  0  0
 25 26  1  0  0  0  0
 25 63  1  0  0  0  0
 26 27  2  0  0  0  0
 26 64  1  0  0  0  0
 27 28  1  0  0  0  0
 27 65  1  0  0  0  0
 28 66  1  0  0  0  0
 29 30  1  0  0  0  0
 29 67  1  0  0  0  0
 30 31  1  0  0  0  0
 31 32  1  0  0  0  0
 32 33  1  0  0  0  0
 32 34  1  0  0  0  0
 33 68  1  0  0  0  0
 33 69  1  0  0  0  0
 33 70  1  0  0  0  0
 34 71  1  0  0  0  0
 34 72  1  0  0  0  0
 34 73  1  0  0  0  0
M  END
$$$$
CHEMBL58501	5XRA	best_smi
 OpenBabel12022417443D

 65 67  0  0  1  0  0  0  0  0999 V2000
    2.7156    7.7601   -8.0554 C   0  0  0  0  0  0  0  0  0  0  0  0
    2.9600    6.4113   -7.4056 C   0  0  0  0  0  0  0  0  0  0  0  0
    2.6168    6.4599   -5.9253 C   0  0  0  0  0  0  0  0  0  0  0  0
    2.8902    5.1169   -5.2596 C   0  0  0  0  0  0  0  0  0  0  0  0
    2.4935    5.2010   -3.7954 C   0  0  0  0  0  0  0  0  0  0  0  0
    2.7112    3.8837   -3.0707 C   0  0  0  0  0  0  0  0  0  0  0  0
    2.3461    3.8419   -1.5645 C   0  0  0  0  0  0  0  0  0  0  0  0
    2.8290    2.4287   -1.0914 C   0  0  0  0  0  0  0  0  0  0  0  0
    3.1206    4.8574   -0.7011 C   0  0  0  0  0  0  0  0  0  0  0  0
    0.8544    4.0818   -1.2857 C   0  0  0  0  0  0  0  0  0  0  0  0
    0.1334    5.2322   -1.6273 C   0  0  0  0  0  0  0  0  0  0  0  0
   -1.2083    5.4202   -1.2208 C   0  0  0  0  0  0  0  0  0  0  0  0
   -1.9058    6.4565   -1.7678 O   0  0  0  0  0  0  0  0  0  0  0  0
   -1.7775    4.5984   -0.2617 C   0  0  0  0  0  0  0  0  0  0  0  0
   -0.9678    3.5461    0.1599 C   0  0  0  0  0  0  0  0  0  0  0  0
    0.2155    3.1959   -0.4503 C   0  0  0  0  0  0  0  0  0  0  0  0
   -1.1335    2.8656    1.3124 O   0  0  0  0  0  0  0  0  0  0  0  0
   -2.4573    2.6153    1.7485 C   0  0  0  0  0  0  0  0  0  0  0  0
   -2.4385    2.9754    3.2400 C   0  0  0  0  0  0  0  0  0  0  0  0
   -2.5476    1.0948    1.5759 C   0  0  0  0  0  0  0  0  0  0  0  0
   -3.5476    3.3380    0.9127 C   0  0  1  0  0  0  0  0  0  0  0  0
   -4.8886    3.4219    1.6460 C   0  0  0  0  0  0  0  0  0  0  0  0
   -5.9363    4.0433    0.7840 C   0  0  0  0  0  0  0  0  0  0  0  0
   -5.6410    4.9133   -0.1943 C   0  0  0  0  0  0  0  0  0  0  0  0
   -6.7038    5.4753   -1.0956 C   0  0  0  0  0  0  0  0  0  0  0  0
   -4.2241    5.3600   -0.4897 C   0  0  0  0  0  0  0  0  0  0  0  0
   -3.1144    4.7464    0.4162 C   0  0  2  0  0  0  0  0  0  0  0  0
    3.3013    8.5422   -7.5617 H   0  0  0  0  0  0  0  0  0  0  0  0
    3.0037    7.7283   -9.1095 H   0  0  0  0  0  0  0  0  0  0  0  0
    1.6575    8.0350   -7.9952 H   0  0  0  0  0  0  0  0  0  0  0  0
    2.3507    5.6476   -7.9031 H   0  0  0  0  0  0  0  0  0  0  0  0
    4.0101    6.1269   -7.5320 H   0  0  0  0  0  0  0  0  0  0  0  0
    3.2060    7.2399   -5.4275 H   0  0  0  0  0  0  0  0  0  0  0  0
    1.5599    6.7304   -5.7994 H   0  0  0  0  0  0  0  0  0  0  0  0
    2.3024    4.3303   -5.7505 H   0  0  0  0  0  0  0  0  0  0  0  0
    3.9472    4.8484   -5.3527 H   0  0  0  0  0  0  0  0  0  0  0  0
    1.4359    5.4565   -3.8015 H   0  0  0  0  0  0  0  0  0  0  0  0
    3.0450    6.0075   -3.3013 H   0  0  0  0  0  0  0  0  0  0  0  0
    2.1379    3.1025   -3.5910 H   0  0  0  0  0  0  0  0  0  0  0  0
    3.7703    3.6108   -3.1821 H   0  0  0  0  0  0  0  0  0  0  0  0
    2.2840    1.6258   -1.6095 H   0  0  0  0  0  0  0  0  0  0  0  0
    3.8948    2.2776   -1.2917 H   0  0  0  0  0  0  0  0  0  0  0  0
    2.7031    2.2855   -0.0108 H   0  0  0  0  0  0  0  0  0  0  0  0
    2.9908    5.8873   -1.0518 H   0  0  0  0  0  0  0  0  0  0  0  0
    2.7751    4.8289    0.3390 H   0  0  0  0  0  0  0  0  0  0  0  0
    4.1966    4.6370   -0.6887 H   0  0  0  0  0  0  0  0  0  0  0  0
    0.5836    6.0460   -2.1788 H   0  0  0  0  0  0  0  0  0  0  0  0
   -1.7349    6.4225   -2.7270 H   0  0  0  0  0  0  0  0  0  0  0  0
    0.6580    2.2686   -0.1091 H   0  0  0  0  0  0  0  0  0  0  0  0
   -1.4742    2.7072    3.6925 H   0  0  0  0  0  0  0  0  0  0  0  0
   -3.2258    2.4567    3.7940 H   0  0  0  0  0  0  0  0  0  0  0  0
   -2.5465    4.0508    3.3898 H   0  0  0  0  0  0  0  0  0  0  0  0
   -3.4864    0.6816    1.9578 H   0  0  0  0  0  0  0  0  0  0  0  0
   -1.7073    0.6009    2.0804 H   0  0  0  0  0  0  0  0  0  0  0  0
   -2.4454    0.8254    0.5158 H   0  0  0  0  0  0  0  0  0  0  0  0
   -3.7045    2.7265    0.0080 H   0  0  0  0  0  0  0  0  0  0  0  0
   -4.8096    4.0221    2.5647 H   0  0  0  0  0  0  0  0  0  0  0  0
   -5.2094    2.4181    1.9410 H   0  0  0  0  0  0  0  0  0  0  0  0
   -6.9634    3.7377    0.9639 H   0  0  0  0  0  0  0  0  0  0  0  0
   -7.6734    4.9930   -0.9335 H   0  0  0  0  0  0  0  0  0  0  0  0
   -6.4335    5.3184   -2.1456 H   0  0  0  0  0  0  0  0  0  0  0  0
   -6.8229    6.5493   -0.9216 H   0  0  0  0  0  0  0  0  0  0  0  0
   -4.1786    6.4518   -0.4018 H   0  0  0  0  0  0  0  0  0  0  0  0
   -4.0275    5.1081   -1.5397 H   0  0  0  0  0  0  0  0  0  0  0  0
   -2.9743    5.4106    1.2807 H   0  0  0  0  0  0  0  0  0  0  0  0
  1  2  1  0  0  0  0
  1 28  1  0  0  0  0
  1 29  1  0  0  0  0
  1 30  1  0  0  0  0
  2  3  1  0  0  0  0
  2 31  1  0  0  0  0
  2 32  1  0  0  0  0
  3  4  1  0  0  0  0
  3 33  1  0  0  0  0
  3 34  1  0  0  0  0
  4  5  1  0  0  0  0
  4 35  1  0  0  0  0
  4 36  1  0  0  0  0
  5  6  1  0  0  0  0
  5 37  1  0  0  0  0
  5 38  1  0  0  0  0
  6  7  1  0  0  0  0
  6 39  1  0  0  0  0
  6 40  1  0  0  0  0
  7  8  1  0  0  0  0
  7  9  1  0  0  0  0
  7 10  1  0  0  0  0
  8 41  1  0  0  0  0
  8 42  1  0  0  0  0
  8 43  1  0  0  0  0
  9 44  1  0  0  0  0
  9 45  1  0  0  0  0
  9 46  1  0  0  0  0
 10 16  2  0  0  0  0
 10 11  1  0  0  0  0
 11 12  2  0  0  0  0
 11 47  1  0  0  0  0
 12 13  1  0  0  0  0
 12 14  1  0  0  0  0
 13 48  1  0  0  0  0
 14 27  1  0  0  0  0
 14 15  2  0  0  0  0
 15 16  1  0  0  0  0
 15 17  1  0  0  0  0
 16 49  1  0  0  0  0
 17 18  1  0  0  0  0
 18 19  1  0  0  0  0
 18 20  1  0  0  0  0
 18 21  1  0  0  0  0
 19 50  1  0  0  0  0
 19 51  1  0  0  0  0
 19 52  1  0  0  0  0
 20 53  1  0  0  0  0
 20 54  1  0  0  0  0
 20 55  1  0  0  0  0
 21 22  1  0  0  0  0
 21 27  1  0  0  0  0
 21 56  1  6  0  0  0
 22 23  1  0  0  0  0
 22 57  1  0  0  0  0
 22 58  1  0  0  0  0
 23 24  2  0  0  0  0
 23 59  1  0  0  0  0
 24 25  1  0  0  0  0
 24 26  1  0  0  0  0
 25 60  1  0  0  0  0
 25 61  1  0  0  0  0
 25 62  1  0  0  0  0
 26 63  1  0  0  0  0
 26 64  1  0  0  0  0
 27 26  1  0  0  0  0
 27 65  1  1  0  0  0
M  END
$$$$
CHEMBL139475	5XRA	best_smi
 OpenBabel12022417443D

 78 81  0  0  1  0  0  0  0  0999 V2000
    8.4142   -2.6517   -0.8091 C   0  0  0  0  0  0  0  0  0  0  0  0
    7.2393   -3.0908    0.0047 C   0  0  0  0  0  0  0  0  0  0  0  0
    6.9601   -2.4951    1.1769 C   0  0  0  0  0  0  0  0  0  0  0  0
    5.5960   -2.5820    1.7754 C   0  0  0  0  0  0  0  0  0  0  0  0
    4.4863   -2.7010    0.7208 C   0  0  2  0  0  0  0  0  0  0  0  0
    4.9029   -3.3217   -0.6401 C   0  0  1  0  0  0  0  0  0  0  0  0
    6.2331   -4.0526   -0.5982 C   0  0  0  0  0  0  0  0  0  0  0  0
    3.5953   -3.9456   -1.0272 C   0  0  0  0  0  0  0  0  0  0  0  0
    3.2815   -5.2921   -1.0243 C   0  0  0  0  0  0  0  0  0  0  0  0
    4.2229   -6.2675   -0.9294 O   0  0  0  0  0  0  0  0  0  0  0  0
    1.9539   -5.6982   -1.0580 C   0  0  0  0  0  0  0  0  0  0  0  0
    0.9077   -4.7719   -1.2393 C   0  0  0  0  0  0  0  0  0  0  0  0
   -0.5287   -5.2497   -1.4622 C   0  0  0  0  0  0  0  0  0  0  0  0
   -1.3066   -4.2565   -2.3593 C   0  0  0  0  0  0  0  0  0  0  0  0
   -0.5261   -6.6255   -2.1737 C   0  0  0  0  0  0  0  0  0  0  0  0
   -1.2133   -5.3635   -0.0809 C   0  0  0  0  0  0  0  0  0  0  0  0
   -2.6536   -5.8603   -0.1741 C   0  0  0  0  0  0  0  0  0  0  0  0
   -3.2416   -6.0092    1.2090 C   0  0  0  0  0  0  0  0  0  0  0  0
   -4.6795   -6.5068    1.1334 C   0  0  0  0  0  0  0  0  0  0  0  0
   -5.2407   -6.5213    2.5236 C   0  0  0  0  0  0  0  0  0  0  0  0
   -4.5937   -6.1090    3.4858 O   0  0  0  0  0  0  0  0  0  0  0  0
   -6.5259   -7.0622    2.6081 N   0  0  0  0  0  0  0  0  0  0  0  0
   -7.0244   -7.1627    3.9185 C   0  0  0  0  0  0  0  0  0  0  0  0
   -7.0902   -8.4226    4.5057 C   0  0  0  0  0  0  0  0  0  0  0  0
   -7.0182   -8.5047    5.8976 C   0  0  0  0  0  0  0  0  0  0  0  0
   -6.9244   -7.3349    6.6599 C   0  0  0  0  0  0  0  0  0  0  0  0
   -6.5131   -7.4298    8.3825 S   0  0  0  0  0  0  0  0  0  0  0  0
   -4.8324   -7.3821    8.3154 N   0  0  0  0  0  0  0  0  0  0  0  0
   -6.8612   -8.7546    8.8625 O   0  0  0  0  0  0  0  0  0  0  0  0
   -6.9658   -6.2318    9.0279 O   0  0  0  0  0  0  0  0  0  0  0  0
   -7.0409   -6.0723    6.0680 C   0  0  0  0  0  0  0  0  0  0  0  0
   -7.1100   -5.9919    4.6884 C   0  0  0  0  0  0  0  0  0  0  0  0
    1.2200   -3.4078   -1.2131 C   0  0  0  0  0  0  0  0  0  0  0  0
    2.5376   -3.0146   -1.0615 C   0  0  0  0  0  0  0  0  0  0  0  0
    2.7780   -1.6793   -0.8177 O   0  0  0  0  0  0  0  0  0  0  0  0
    3.6401   -1.4395    0.3470 C   0  0  0  0  0  0  0  0  0  0  0  0
    4.5153   -0.2298   -0.0194 C   0  0  0  0  0  0  0  0  0  0  0  0
    2.6920   -1.0528    1.4873 C   0  0  0  0  0  0  0  0  0  0  0  0
    9.0779   -1.9954   -0.2347 H   0  0  0  0  0  0  0  0  0  0  0  0
    8.9969   -3.4945   -1.1826 H   0  0  0  0  0  0  0  0  0  0  0  0
    8.0479   -2.0657   -1.6613 H   0  0  0  0  0  0  0  0  0  0  0  0
    7.6702   -1.8307    1.6591 H   0  0  0  0  0  0  0  0  0  0  0  0
    5.4167   -1.7174    2.4201 H   0  0  0  0  0  0  0  0  0  0  0  0
    5.5657   -3.4633    2.4323 H   0  0  0  0  0  0  0  0  0  0  0  0
    3.7809   -3.3909    1.2186 H   0  0  0  0  0  0  0  0  0  0  0  0
    5.0756   -2.5378   -1.3953 H   0  0  0  0  0  0  0  0  0  0  0  0
    6.5331   -4.3511   -1.6109 H   0  0  0  0  0  0  0  0  0  0  0  0
    6.1898   -4.9673    0.0026 H   0  0  0  0  0  0  0  0  0  0  0  0
    4.7432   -6.2065   -1.7494 H   0  0  0  0  0  0  0  0  0  0  0  0
    1.7466   -6.7592   -0.9454 H   0  0  0  0  0  0  0  0  0  0  0  0
   -1.6198   -3.3676   -1.7970 H   0  0  0  0  0  0  0  0  0  0  0  0
   -0.6996   -3.9202   -3.2071 H   0  0  0  0  0  0  0  0  0  0  0  0
   -2.2170   -4.7049   -2.7699 H   0  0  0  0  0  0  0  0  0  0  0  0
   -0.3435   -7.4404   -1.4612 H   0  0  0  0  0  0  0  0  0  0  0  0
    0.2490   -6.6792   -2.9466 H   0  0  0  0  0  0  0  0  0  0  0  0
   -1.4815   -6.8390   -2.6619 H   0  0  0  0  0  0  0  0  0  0  0  0
   -1.2028   -4.3889    0.4295 H   0  0  0  0  0  0  0  0  0  0  0  0
   -0.6403   -6.0408    0.5689 H   0  0  0  0  0  0  0  0  0  0  0  0
   -2.6988   -6.8280   -0.6829 H   0  0  0  0  0  0  0  0  0  0  0  0
   -3.2644   -5.1538   -0.7459 H   0  0  0  0  0  0  0  0  0  0  0  0
   -3.1994   -5.0421    1.7280 H   0  0  0  0  0  0  0  0  0  0  0  0
   -2.6378   -6.7103    1.8012 H   0  0  0  0  0  0  0  0  0  0  0  0
   -4.7161   -7.5148    0.7054 H   0  0  0  0  0  0  0  0  0  0  0  0
   -5.2896   -5.8353    0.5194 H   0  0  0  0  0  0  0  0  0  0  0  0
   -6.6758   -7.8530    1.9906 H   0  0  0  0  0  0  0  0  0  0  0  0
   -7.0272   -9.3274    3.9123 H   0  0  0  0  0  0  0  0  0  0  0  0
   -6.9383   -9.4785    6.3732 H   0  0  0  0  0  0  0  0  0  0  0  0
   -4.4451   -8.3151    8.4669 H   0  0  0  0  0  0  0  0  0  0  0  0
   -4.4581   -6.9296    7.4772 H   0  0  0  0  0  0  0  0  0  0  0  0
   -6.9786   -5.1585    6.6548 H   0  0  0  0  0  0  0  0  0  0  0  0
   -7.0666   -5.0191    4.2009 H   0  0  0  0  0  0  0  0  0  0  0  0
    0.4523   -2.6406   -1.2436 H   0  0  0  0  0  0  0  0  0  0  0  0
    5.1059    0.1217    0.8313 H   0  0  0  0  0  0  0  0  0  0  0  0
    3.8959    0.6017   -0.3757 H   0  0  0  0  0  0  0  0  0  0  0  0
    5.2026   -0.4568   -0.8414 H   0  0  0  0  0  0  0  0  0  0  0  0
    1.9754   -1.8590    1.6829 H   0  0  0  0  0  0  0  0  0  0  0  0
    3.2294   -0.8317    2.4124 H   0  0  0  0  0  0  0  0  0  0  0  0
    2.0941   -0.1765    1.2109 H   0  0  0  0  0  0  0  0  0  0  0  0
  1  2  1  0  0  0  0
  1 39  1  0  0  0  0
  1 40  1  0  0  0  0
  1 41  1  0  0  0  0
  2  7  1  0  0  0  0
  2  3  2  0  0  0  0
  3  4  1  0  0  0  0
  3 42  1  0  0  0  0
  4 43  1  0  0  0  0
  4 44  1  0  0  0  0
  5  4  1  0  0  0  0
  5  6  1  0  0  0  0
  5 36  1  0  0  0  0
  5 45  1  1  0  0  0
  6  7  1  0  0  0  0
  6  8  1  0  0  0  0
  6 46  1  6  0  0  0
  7 47  1  0  0  0  0
  7 48  1  0  0  0  0
  8 34  2  0  0  0  0
  8  9  1  0  0  0  0
  9 10  1  0  0  0  0
  9 11  2  0  0  0  0
 10 49  1  0  0  0  0
 11 12  1  0  0  0  0
 11 50  1  0  0  0  0
 12 13  1  0  0  0  0
 12 33  2  0  0  0  0
 13 14  1  0  0  0  0
 13 15  1  0  0  0  0
 13 16  1  0  0  0  0
 14 51  1  0  0  0  0
 14 52  1  0  0  0  0
 14 53  1  0  0  0  0
 15 54  1  0  0  0  0
 15 55  1  0  0  0  0
 15 56  1  0  0  0  0
 16 17  1  0  0  0  0
 16 57  1  0  0  0  0
 16 58  1  0  0  0  0
 17 18  1  0  0  0  0
 17 59  1  0  0  0  0
 17 60  1  0  0  0  0
 18 19  1  0  0  0  0
 18 61  1  0  0  0  0
 18 62  1  0  0  0  0
 19 20  1  0  0  0  0
 19 63  1  0  0  0  0
 19 64  1  0  0  0  0
 20 21  2  0  0  0  0
 20 22  1  0  0  0  0
 22 23  1  0  0  0  0
 22 65  1  0  0  0  0
 23 32  2  0  0  0  0
 23 24  1  0  0  0  0
 24 25  2  0  0  0  0
 24 66  1  0  0  0  0
 25 26  1  0  0  0  0
 25 67  1  0  0  0  0
 26 27  1  0  0  0  0
 26 31  2  0  0  0  0
 27 28  1  0  0  0  0
 27 29  2  0  0  0  0
 27 30  2  0  0  0  0
 28 68  1  0  0  0  0
 28 69  1  0  0  0  0
 31 32  1  0  0  0  0
 31 70  1  0  0  0  0
 32 71  1  0  0  0  0
 33 34  1  0  0  0  0
 33 72  1  0  0  0  0
 34 35  1  0  0  0  0
 35 36  1  0  0  0  0
 36 37  1  0  0  0  0
 36 38  1  0  0  0  0
 37 73  1  0  0  0  0
 37 74  1  0  0  0  0
 37 75  1  0  0  0  0
 38 76  1  0  0  0  0
 38 77  1  0  0  0  0
 38 78  1  0  0  0  0
M  END
$$$$
CHEMBL276083	5XRA	best_smi
 OpenBabel12022417443D

 50 52  0  0  1  0  0  0  0  0999 V2000
    4.1955    2.9224   -2.5863 C   0  0  0  0  0  0  0  0  0  0  0  0
    3.8713    2.1857   -1.3236 C   0  0  0  0  0  0  0  0  0  0  0  0
    4.4610    2.4943   -0.1528 C   0  0  0  0  0  0  0  0  0  0  0  0
    3.8079    2.2179    1.1751 C   0  0  0  0  0  0  0  0  0  0  0  0
    2.2751    2.0113    1.1017 C   0  0  2  0  0  0  0  0  0  0  0  0
    1.7104    2.1876   -0.3298 C   0  0  1  0  0  0  0  0  0  0  0  0
    2.5866    1.3892   -1.2968 C   0  0  0  0  0  0  0  0  0  0  0  0
    0.2211    2.0058   -0.3390 C   0  0  0  0  0  0  0  0  0  0  0  0
   -0.5115    2.0870   -1.5206 C   0  0  0  0  0  0  0  0  0  0  0  0
    0.1225    2.2583   -2.7154 O   0  0  0  0  0  0  0  0  0  0  0  0
   -1.8981    2.0462   -1.5131 C   0  0  0  0  0  0  0  0  0  0  0  0
   -2.6084    1.8348   -0.3186 C   0  0  0  0  0  0  0  0  0  0  0  0
   -4.1190    1.5942   -0.3872 C   0  0  0  0  0  0  0  0  0  0  0  0
   -4.3448    0.4113   -1.3588 C   0  0  0  0  0  0  0  0  0  0  0  0
   -4.7530    1.2153    0.9658 C   0  0  0  0  0  0  0  0  0  0  0  0
   -4.8351    2.8553   -0.9135 C   0  0  0  0  0  0  0  0  0  0  0  0
   -1.8793    1.8135    0.8774 C   0  0  0  0  0  0  0  0  0  0  0  0
   -0.4926    1.9616    0.8642 C   0  0  0  0  0  0  0  0  0  0  0  0
    0.0975    2.1361    2.0996 O   0  0  0  0  0  0  0  0  0  0  0  0
    1.3719    2.8377    2.0553 C   0  0  0  0  0  0  0  0  0  0  0  0
    1.8980    2.8564    3.4957 C   0  0  0  0  0  0  0  0  0  0  0  0
    1.1037    4.3187    1.6722 C   0  0  0  0  0  0  0  0  0  0  0  0
    4.5946    2.2662   -3.3556 H   0  0  0  0  0  0  0  0  0  0  0  0
    4.8956    3.7458   -2.4038 H   0  0  0  0  0  0  0  0  0  0  0  0
    3.2746    3.3924   -2.9692 H   0  0  0  0  0  0  0  0  0  0  0  0
    5.3409    3.1306   -0.1383 H   0  0  0  0  0  0  0  0  0  0  0  0
    4.2778    1.3260    1.6146 H   0  0  0  0  0  0  0  0  0  0  0  0
    4.0511    3.0490    1.8420 H   0  0  0  0  0  0  0  0  0  0  0  0
    2.1178    0.9519    1.3753 H   0  0  0  0  0  0  0  0  0  0  0  0
    1.8354    3.2357   -0.6278 H   0  0  0  0  0  0  0  0  0  0  0  0
    2.1809    1.2940   -2.3058 H   0  0  0  0  0  0  0  0  0  0  0  0
    2.7658    0.3691   -0.9415 H   0  0  0  0  0  0  0  0  0  0  0  0
   -0.2478    1.5953   -3.3199 H   0  0  0  0  0  0  0  0  0  0  0  0
   -2.4283    2.1793   -2.4510 H   0  0  0  0  0  0  0  0  0  0  0  0
   -5.3575    0.0119   -1.2859 H   0  0  0  0  0  0  0  0  0  0  0  0
   -4.1895    0.7039   -2.4041 H   0  0  0  0  0  0  0  0  0  0  0  0
   -3.6440   -0.4089   -1.1469 H   0  0  0  0  0  0  0  0  0  0  0  0
   -5.8217    0.9995    0.8504 H   0  0  0  0  0  0  0  0  0  0  0  0
   -4.6651    2.0276    1.6963 H   0  0  0  0  0  0  0  0  0  0  0  0
   -4.2859    0.3191    1.3930 H   0  0  0  0  0  0  0  0  0  0  0  0
   -4.6200    3.0396   -1.9725 H   0  0  0  0  0  0  0  0  0  0  0  0
   -5.9237    2.7638   -0.8195 H   0  0  0  0  0  0  0  0  0  0  0  0
   -4.5273    3.7502   -0.3595 H   0  0  0  0  0  0  0  0  0  0  0  0
   -2.3691    1.7188    1.8436 H   0  0  0  0  0  0  0  0  0  0  0  0
    2.8244    3.4339    3.5839 H   0  0  0  0  0  0  0  0  0  0  0  0
    1.1609    3.3231    4.1635 H   0  0  0  0  0  0  0  0  0  0  0  0
    2.0768    1.8460    3.8753 H   0  0  0  0  0  0  0  0  0  0  0  0
    1.0075    4.5032    0.5993 H   0  0  0  0  0  0  0  0  0  0  0  0
    1.8920    4.9853    2.0285 H   0  0  0  0  0  0  0  0  0  0  0  0
    0.1453    4.6481    2.0913 H   0  0  0  0  0  0  0  0  0  0  0  0
  1  2  1  0  0  0  0
  1 23  1  0  0  0  0
  1 24  1  0  0  0  0
  1 25  1  0  0  0  0
  2  7  1  0  0  0  0
  2  3  2  0  0  0  0
  3  4  1  0  0  0  0
  3 26  1  0  0  0  0
  4 27  1  0  0  0  0
  4 28  1  0  0  0  0
  5  4  1  0  0  0  0
  5  6  1  0  0  0  0
  5 20  1  0  0  0  0
  5 29  1  1  0  0  0
  6  7  1  0  0  0  0
  6  8  1  0  0  0  0
  6 30  1  6  0  0  0
  7 31  1  0  0  0  0
  7 32  1  0  0  0  0
  8 18  2  0  0  0  0
  8  9  1  0  0  0  0
  9 10  1  0  0  0  0
  9 11  2  0  0  0  0
 10 33  1  0  0  0  0
 11 12  1  0  0  0  0
 11 34  1  0  0  0  0
 12 13  1  0  0  0  0
 12 17  2  0  0  0  0
 13 14  1  0  0  0  0
 13 15  1  0  0  0  0
 13 16  1  0  0  0  0
 14 35  1  0  0  0  0
 14 36  1  0  0  0  0
 14 37  1  0  0  0  0
 15 38  1  0  0  0  0
 15 39  1  0  0  0  0
 15 40  1  0  0  0  0
 16 41  1  0  0  0  0
 16 42  1  0  0  0  0
 16 43  1  0  0  0  0
 17 18  1  0  0  0  0
 17 44  1  0  0  0  0
 18 19  1  0  0  0  0
 19 20  1  0  0  0  0
 20 21  1  0  0  0  0
 20 22  1  0  0  0  0
 21 45  1  0  0  0  0
 21 46  1  0  0  0  0
 21 47  1  0  0  0  0
 22 48  1  0  0  0  0
 22 49  1  0  0  0  0
 22 50  1  0  0  0  0
M  END
$$$$
CHEMBL159611	5XRA	best_smi
 OpenBabel12022417443D

 65 67  0  0  1  0  0  0  0  0999 V2000
    6.3879   -4.4717    2.6701 C   0  0  0  0  0  0  0  0  0  0  0  0
    6.0589   -3.1997    3.4378 C   0  0  0  0  0  0  0  0  0  0  0  0
    6.6623   -1.9797    2.7514 C   0  0  0  0  0  0  0  0  0  0  0  0
    6.3451   -0.6789    3.4915 C   0  0  0  0  0  0  0  0  0  0  0  0
    6.9754    0.4989    2.7476 C   0  0  0  0  0  0  0  0  0  0  0  0
    6.6794    1.8422    3.4196 C   0  0  0  0  0  0  0  0  0  0  0  0
    7.3645    3.0638    2.7223 C   0  0  0  0  0  0  0  0  0  0  0  0
    6.7720    3.2570    1.3097 C   0  0  0  0  0  0  0  0  0  0  0  0
    6.9608    4.3322    3.5264 C   0  0  0  0  0  0  0  0  0  0  0  0
    8.9000    2.8925    2.7364 C   0  0  0  0  0  0  0  0  0  0  0  0
    9.7373    2.8401    1.5935 C   0  0  0  0  0  0  0  0  0  0  0  0
   11.1541    2.7448    1.6924 C   0  0  0  0  0  0  0  0  0  0  0  0
   11.8836    2.8251    0.5466 O   0  0  0  0  0  0  0  0  0  0  0  0
   11.8233    2.6900    2.9307 C   0  0  0  0  0  0  0  0  0  0  0  0
   10.9366    2.7266    4.0600 C   0  0  0  0  0  0  0  0  0  0  0  0
    9.5418    2.7905    3.9663 C   0  0  0  0  0  0  0  0  0  0  0  0
   11.3487    2.8889    5.3762 O   0  0  0  0  0  0  0  0  0  0  0  0
   12.7823    2.8064    5.4876 C   0  0  0  0  0  0  0  0  0  0  0  0
   12.9890    1.2477    5.4187 C   0  0  0  0  0  0  0  0  0  0  0  0
   13.1916    3.2001    6.9023 C   0  0  0  0  0  0  0  0  0  0  0  0
   13.2619    3.8552    4.3806 C   0  0  3  0  0  0  0  0  0  0  0  0
   14.5009    4.7341    4.4798 C   0  0  0  0  0  0  0  0  0  0  0  0
   15.6512    3.8990    4.8316 C   0  0  0  0  0  0  0  0  0  0  0  0
   15.7033    2.6393    4.3724 C   0  0  0  0  0  0  0  0  0  0  0  0
   16.6562    1.7406    5.1207 C   0  0  0  0  0  0  0  0  0  0  0  0
   14.6806    2.1260    3.2750 C   0  0  0  0  0  0  0  0  0  0  0  0
   13.3419    3.0378    3.0937 C   0  0  3  0  0  0  0  0  0  0  0  0
    5.9530   -5.3414    3.1711 H   0  0  0  0  0  0  0  0  0  0  0  0
    7.4707   -4.6225    2.6051 H   0  0  0  0  0  0  0  0  0  0  0  0
    5.9871   -4.4296    1.6520 H   0  0  0  0  0  0  0  0  0  0  0  0
    6.4442   -3.2842    4.4600 H   0  0  0  0  0  0  0  0  0  0  0  0
    4.9703   -3.0912    3.5056 H   0  0  0  0  0  0  0  0  0  0  0  0
    6.2800   -1.9137    1.7252 H   0  0  0  0  0  0  0  0  0  0  0  0
    7.7505   -2.1013    2.6796 H   0  0  0  0  0  0  0  0  0  0  0  0
    6.7339   -0.7268    4.5164 H   0  0  0  0  0  0  0  0  0  0  0  0
    5.2597   -0.5413    3.5592 H   0  0  0  0  0  0  0  0  0  0  0  0
    6.5996    0.5094    1.7185 H   0  0  0  0  0  0  0  0  0  0  0  0
    8.0577    0.3362    2.6981 H   0  0  0  0  0  0  0  0  0  0  0  0
    6.9884    1.7864    4.4719 H   0  0  0  0  0  0  0  0  0  0  0  0
    5.5923    1.9986    3.4397 H   0  0  0  0  0  0  0  0  0  0  0  0
    5.6801    3.3539    1.3541 H   0  0  0  0  0  0  0  0  0  0  0  0
    6.9995    2.4192    0.6440 H   0  0  0  0  0  0  0  0  0  0  0  0
    7.1579    4.1682    0.8371 H   0  0  0  0  0  0  0  0  0  0  0  0
    5.8664    4.4678    3.5225 H   0  0  0  0  0  0  0  0  0  0  0  0
    7.3992    5.2422    3.0965 H   0  0  0  0  0  0  0  0  0  0  0  0
    7.2616    4.2876    4.5772 H   0  0  0  0  0  0  0  0  0  0  0  0
    9.2947    2.9344    0.6115 H   0  0  0  0  0  0  0  0  0  0  0  0
   11.2910    3.0208   -0.1931 H   0  0  0  0  0  0  0  0  0  0  0  0
    8.9756    2.8201    4.8975 H   0  0  0  0  0  0  0  0  0  0  0  0
   12.3158    0.7528    6.1293 H   0  0  0  0  0  0  0  0  0  0  0  0
   14.0004    0.9230    5.6679 H   0  0  0  0  0  0  0  0  0  0  0  0
   12.6928    0.7877    4.4638 H   0  0  0  0  0  0  0  0  0  0  0  0
   12.5625    2.6874    7.6417 H   0  0  0  0  0  0  0  0  0  0  0  0
   13.0860    4.2707    7.0740 H   0  0  0  0  0  0  0  0  0  0  0  0
   14.2314    2.9071    7.0995 H   0  0  0  0  0  0  0  0  0  0  0  0
   12.4712    4.6185    4.2680 H   0  0  0  0  0  0  0  0  0  0  0  0
   14.3394    5.5355    5.2076 H   0  0  0  0  0  0  0  0  0  0  0  0
   14.7042    5.2295    3.5185 H   0  0  0  0  0  0  0  0  0  0  0  0
   16.3255    4.2881    5.5966 H   0  0  0  0  0  0  0  0  0  0  0  0
   17.6614    1.7654    4.6926 H   0  0  0  0  0  0  0  0  0  0  0  0
   16.2975    0.7123    5.1946 H   0  0  0  0  0  0  0  0  0  0  0  0
   16.7529    2.0871    6.1652 H   0  0  0  0  0  0  0  0  0  0  0  0
   14.4551    1.0686    3.4370 H   0  0  0  0  0  0  0  0  0  0  0  0
   15.2354    2.1398    2.3269 H   0  0  0  0  0  0  0  0  0  0  0  0
   13.5774    3.7015    2.2501 H   0  0  0  0  0  0  0  0  0  0  0  0
  1  2  1  0  0  0  0
  1 28  1  0  0  0  0
  1 29  1  0  0  0  0
  1 30  1  0  0  0  0
  2  3  1  0  0  0  0
  2 31  1  0  0  0  0
  2 32  1  0  0  0  0
  3  4  1  0  0  0  0
  3 33  1  0  0  0  0
  3 34  1  0  0  0  0
  4  5  1  0  0  0  0
  4 35  1  0  0  0  0
  4 36  1  0  0  0  0
  5  6  1  0  0  0  0
  5 37  1  0  0  0  0
  5 38  1  0  0  0  0
  6  7  1  0  0  0  0
  6 39  1  0  0  0  0
  6 40  1  0  0  0  0
  7  8  1  0  0  0  0
  7  9  1  0  0  0  0
  7 10  1  0  0  0  0
  8 41  1  0  0  0  0
  8 42  1  0  0  0  0
  8 43  1  0  0  0  0
  9 44  1  0  0  0  0
  9 45  1  0  0  0  0
  9 46  1  0  0  0  0
 10 16  2  0  0  0  0
 10 11  1  0  0  0  0
 11 12  2  0  0  0  0
 11 47  1  0  0  0  0
 12 13  1  0  0  0  0
 12 14  1  0  0  0  0
 13 48  1  0  0  0  0
 14 27  1  0  0  0  0
 14 15  2  0  0  0  0
 15 16  1  0  0  0  0
 15 17  1  0  0  0  0
 16 49  1  0  0  0  0
 17 18  1  0  0  0  0
 18 19  1  0  0  0  0
 18 20  1  0  0  0  0
 18 21  1  0  0  0  0
 19 50  1  0  0  0  0
 19 51  1  0  0  0  0
 19 52  1  0  0  0  0
 20 53  1  0  0  0  0
 20 54  1  0  0  0  0
 20 55  1  0  0  0  0
 21 27  1  0  0  0  0
 21 22  1  0  0  0  0
 21 56  1  0  0  0  0
 22 23  1  0  0  0  0
 22 57  1  0  0  0  0
 22 58  1  0  0  0  0
 23 24  2  0  0  0  0
 23 59  1  0  0  0  0
 24 25  1  0  0  0  0
 24 26  1  0  0  0  0
 25 60  1  0  0  0  0
 25 61  1  0  0  0  0
 25 62  1  0  0  0  0
 26 27  1  0  0  0  0
 26 63  1  0  0  0  0
 26 64  1  0  0  0  0
 27 65  1  0  0  0  0
M  END
$$$$
CHEMBL140404	5XRA	best_smi
 OpenBabel12022417443D

 84 87  0  0  1  0  0  0  0  0999 V2000
    1.4024    6.6755    6.8320 C   0  0  0  0  0  0  0  0  0  0  0  0
    1.1234    6.1087    5.4440 C   0  0  0  0  0  0  0  0  0  0  0  0
   -0.2020    6.1289    5.2368 C   0  0  0  0  0  0  0  0  0  0  0  0
   -0.7926    5.1138    4.3673 C   0  0  0  0  0  0  0  0  0  0  0  0
   -0.0468    4.8875    3.0539 C   0  0  2  0  0  0  0  0  0  0  0  0
    1.5055    4.9033    3.0476 C   0  0  1  0  0  0  0  0  0  0  0  0
    1.9958    5.1771    4.5119 C   0  0  0  0  0  0  0  0  0  0  0  0
    1.7969    3.9352    1.8315 C   0  0  0  0  0  0  0  0  0  0  0  0
    2.3571    2.6398    1.6530 C   0  0  0  0  0  0  0  0  0  0  0  0
    3.1391    1.9885    2.5762 O   0  0  0  0  0  0  0  0  0  0  0  0
    2.0259    1.8192    0.5371 C   0  0  0  0  0  0  0  0  0  0  0  0
    1.1894    2.2948   -0.4724 C   0  0  0  0  0  0  0  0  0  0  0  0
    0.2453    1.3528   -1.2513 C   0  0  0  0  0  0  0  0  0  0  0  0
   -0.4432    2.0519   -2.4469 C   0  0  0  0  0  0  0  0  0  0  0  0
    0.9616    0.0967   -1.7952 C   0  0  0  0  0  0  0  0  0  0  0  0
   -0.8484    0.8514   -0.2380 C   0  0  0  0  0  0  0  0  0  0  0  0
   -1.5821    1.9355    0.5721 C   0  0  0  0  0  0  0  0  0  0  0  0
   -2.5744    1.3822    1.5956 C   0  0  0  0  0  0  0  0  0  0  0  0
   -1.9504    0.4867    2.6805 C   0  0  0  0  0  0  0  0  0  0  0  0
   -1.1793    1.2452    3.7604 C   0  0  0  0  0  0  0  0  0  0  0  0
   -1.7708    2.0097    4.5186 O   0  0  0  0  0  0  0  0  0  0  0  0
    0.1941    1.0122    3.8334 N   0  0  0  0  0  0  0  0  0  0  0  0
    1.0244    1.9140    4.6415 C   0  0  0  0  0  0  0  0  0  0  0  0
    1.9422    1.4559    5.7974 C   0  0  0  0  0  0  0  0  0  0  0  0
    3.0982    2.4550    6.0985 C   0  0  0  0  0  0  0  0  0  0  0  0
    4.3324    2.5174    5.3961 C   0  0  0  0  0  0  0  0  0  0  0  0
    5.1819    3.6843    5.4544 C   0  0  0  0  0  0  0  0  0  0  0  0
    4.7965    4.7916    6.2215 C   0  0  0  0  0  0  0  0  0  0  0  0
    5.6113    6.3927    6.3195 S   0  0  0  0  0  0  0  0  0  0  0  0
    5.1396    7.2634    4.9389 N   0  0  0  0  0  0  0  0  0  0  0  0
    7.0322    6.1528    6.1728 O   0  0  0  0  0  0  0  0  0  0  0  0
    5.0512    7.1279    7.4251 O   0  0  0  0  0  0  0  0  0  0  0  0
    3.6780    4.6390    7.0283 C   0  0  0  0  0  0  0  0  0  0  0  0
    2.8318    3.5175    6.9728 C   0  0  0  0  0  0  0  0  0  0  0  0
    0.9369    3.6629   -0.4872 C   0  0  0  0  0  0  0  0  0  0  0  0
    1.0946    4.4037    0.6860 C   0  0  0  0  0  0  0  0  0  0  0  0
    0.2890    5.5281    0.6855 O   0  0  0  0  0  0  0  0  0  0  0  0
   -0.4427    5.8282    1.9057 C   0  0  0  0  0  0  0  0  0  0  0  0
   -1.9405    5.6623    1.6289 C   0  0  0  0  0  0  0  0  0  0  0  0
   -0.1132    7.3063    2.1844 C   0  0  0  0  0  0  0  0  0  0  0  0
    0.7314    7.5143    7.0744 H   0  0  0  0  0  0  0  0  0  0  0  0
    2.3931    7.0819    7.0110 H   0  0  0  0  0  0  0  0  0  0  0  0
    1.1535    5.9136    7.5930 H   0  0  0  0  0  0  0  0  0  0  0  0
   -0.8815    6.6367    5.9190 H   0  0  0  0  0  0  0  0  0  0  0  0
   -1.8564    5.3121    4.2459 H   0  0  0  0  0  0  0  0  0  0  0  0
   -0.7856    4.2093    4.9789 H   0  0  0  0  0  0  0  0  0  0  0  0
   -0.3715    3.8720    2.7897 H   0  0  0  0  0  0  0  0  0  0  0  0
    1.9001    5.8289    2.6084 H   0  0  0  0  0  0  0  0  0  0  0  0
    3.0170    5.5504    4.4541 H   0  0  0  0  0  0  0  0  0  0  0  0
    1.9887    4.2141    4.9644 H   0  0  0  0  0  0  0  0  0  0  0  0
    3.0746    1.0217    2.4373 H   0  0  0  0  0  0  0  0  0  0  0  0
    2.3317    0.7710    0.5151 H   0  0  0  0  0  0  0  0  0  0  0  0
    0.2996    2.4828   -3.1286 H   0  0  0  0  0  0  0  0  0  0  0  0
   -1.0626    1.3550   -3.0188 H   0  0  0  0  0  0  0  0  0  0  0  0
   -1.1110    2.8614   -2.1305 H   0  0  0  0  0  0  0  0  0  0  0  0
    1.1990   -0.6180   -0.9975 H   0  0  0  0  0  0  0  0  0  0  0  0
    0.3178   -0.4401   -2.5036 H   0  0  0  0  0  0  0  0  0  0  0  0
    1.8941    0.3479   -2.3078 H   0  0  0  0  0  0  0  0  0  0  0  0
   -0.3585    0.1776    0.4735 H   0  0  0  0  0  0  0  0  0  0  0  0
   -1.5918    0.2475   -0.7724 H   0  0  0  0  0  0  0  0  0  0  0  0
   -0.8721    2.5381    1.1336 H   0  0  0  0  0  0  0  0  0  0  0  0
   -2.1111    2.6147   -0.1071 H   0  0  0  0  0  0  0  0  0  0  0  0
   -3.3446    0.8189    1.0544 H   0  0  0  0  0  0  0  0  0  0  0  0
   -3.0870    2.2318    2.0669 H   0  0  0  0  0  0  0  0  0  0  0  0
   -2.7759   -0.0091    3.2073 H   0  0  0  0  0  0  0  0  0  0  0  0
   -1.3478   -0.3163    2.2520 H   0  0  0  0  0  0  0  0  0  0  0  0
    0.5875    0.7481    2.9384 H   0  0  0  0  0  0  0  0  0  0  0  0
    1.6607    2.4072    3.9272 H   0  0  0  0  0  0  0  0  0  0  0  0
    0.4017    2.7149    5.0067 H   0  0  0  0  0  0  0  0  0  0  0  0
    1.2912    1.4223    6.6831 H   0  0  0  0  0  0  0  0  0  0  0  0
    2.3334    0.4515    5.6495 H   0  0  0  0  0  0  0  0  0  0  0  0
    4.6205    1.7075    4.7121 H   0  0  0  0  0  0  0  0  0  0  0  0
    6.1142    3.7071    4.8810 H   0  0  0  0  0  0  0  0  0  0  0  0
    4.8109    6.7455    4.1243 H   0  0  0  0  0  0  0  0  0  0  0  0
    4.5711    8.0765    5.1886 H   0  0  0  0  0  0  0  0  0  0  0  0
    3.3659    5.4894    7.6133 H   0  0  0  0  0  0  0  0  0  0  0  0
    1.8601    3.6029    7.4592 H   0  0  0  0  0  0  0  0  0  0  0  0
    0.3599    4.1284   -1.2789 H   0  0  0  0  0  0  0  0  0  0  0  0
   -2.5581    5.9500    2.4840 H   0  0  0  0  0  0  0  0  0  0  0  0
   -2.1742    4.6217    1.3851 H   0  0  0  0  0  0  0  0  0  0  0  0
   -2.2534    6.2681    0.7765 H   0  0  0  0  0  0  0  0  0  0  0  0
    0.9359    7.5301    1.9558 H   0  0  0  0  0  0  0  0  0  0  0  0
   -0.2990    7.6077    3.2152 H   0  0  0  0  0  0  0  0  0  0  0  0
   -0.6987    7.9607    1.5357 H   0  0  0  0  0  0  0  0  0  0  0  0
  1  2  1  0  0  0  0
  1 41  1  0  0  0  0
  1 42  1  0  0  0  0
  1 43  1  0  0  0  0
  2  7  1  0  0  0  0
  2  3  2  0  0  0  0
  3  4  1  0  0  0  0
  3 44  1  0  0  0  0
  4 45  1  0  0  0  0
  4 46  1  0  0  0  0
  5  4  1  0  0  0  0
  5  6  1  0  0  0  0
  5 38  1  0  0  0  0
  5 47  1  6  0  0  0
  6  7  1  0  0  0  0
  6  8  1  0  0  0  0
  6 48  1  6  0  0  0
  7 49  1  0  0  0  0
  7 50  1  0  0  0  0
  8 36  2  0  0  0  0
  8  9  1  0  0  0  0
  9 10  1  0  0  0  0
  9 11  2  0  0  0  0
 10 51  1  0  0  0  0
 11 12  1  0  0  0  0
 11 52  1  0  0  0  0
 12 13  1  0  0  0  0
 12 35  2  0  0  0  0
 13 14  1  0  0  0  0
 13 15  1  0  0  0  0
 13 16  1  0  0  0  0
 14 53  1  0  0  0  0
 14 54  1  0  0  0  0
 14 55  1  0  0  0  0
 15 56  1  0  0  0  0
 15 57  1  0  0  0  0
 15 58  1  0  0  0  0
 16 17  1  0  0  0  0
 16 59  1  0  0  0  0
 16 60  1  0  0  0  0
 17 18  1  0  0  0  0
 17 61  1  0  0  0  0
 17 62  1  0  0  0  0
 18 19  1  0  0  0  0
 18 63  1  0  0  0  0
 18 64  1  0  0  0  0
 19 20  1  0  0  0  0
 19 65  1  0  0  0  0
 19 66  1  0  0  0  0
 20 21  2  0  0  0  0
 20 22  1  0  0  0  0
 22 23  1  0  0  0  0
 22 67  1  0  0  0  0
 23 24  1  0  0  0  0
 23 68  1  0  0  0  0
 23 69  1  0  0  0  0
 24 25  1  0  0  0  0
 24 70  1  0  0  0  0
 24 71  1  0  0  0  0
 25 34  2  0  0  0  0
 25 26  1  0  0  0  0
 26 27  2  0  0  0  0
 26 72  1  0  0  0  0
 27 28  1  0  0  0  0
 27 73  1  0  0  0  0
 28 29  1  0  0  0  0
 28 33  2  0  0  0  0
 29 30  1  0  0  0  0
 29 31  2  0  0  0  0
 29 32  2  0  0  0  0
 30 74  1  0  0  0  0
 30 75  1  0  0  0  0
 33 34  1  0  0  0  0
 33 76  1  0  0  0  0
 34 77  1  0  0  0  0
 35 36  1  0  0  0  0
 35 78  1  0  0  0  0
 36 37  1  0  0  0  0
 37 38  1  0  0  0  0
 38 39  1  0  0  0  0
 38 40  1  0  0  0  0
 39 79  1  0  0  0  0
 39 80  1  0  0  0  0
 39 81  1  0  0  0  0
 40 82  1  0  0  0  0
 40 83  1  0  0  0  0
 40 84  1  0  0  0  0
M  END
$$$$
CHEMBL344455	5XRA	best_smi
 OpenBabel12022417443D

 69 71  0  0  1  0  0  0  0  0999 V2000
    7.0933    1.6966   -0.2050 C   0  0  0  0  0  0  0  0  0  0  0  0
    5.6255    1.4448   -0.0245 C   0  0  0  0  0  0  0  0  0  0  0  0
    4.8668    2.4158    0.4882 C   0  0  0  0  0  0  0  0  0  0  0  0
    3.5492    2.0762    1.0869 C   0  0  0  0  0  0  0  0  0  0  0  0
    2.7539    1.0371    0.3139 C   0  0  2  0  0  0  0  0  0  0  0  0
    3.5521    0.1384   -0.6754 C   0  0  1  0  0  0  0  0  0  0  0  0
    5.0479    0.0522   -0.2800 C   0  0  0  0  0  0  0  0  0  0  0  0
    2.6477   -1.0793   -0.7639 C   0  0  0  0  0  0  0  0  0  0  0  0
    3.0289   -2.4117   -0.6767 C   0  0  0  0  0  0  0  0  0  0  0  0
    4.3253   -2.7929   -0.8502 O   0  0  0  0  0  0  0  0  0  0  0  0
    2.0866   -3.4249   -0.4246 C   0  0  0  0  0  0  0  0  0  0  0  0
    0.7119   -3.1371   -0.3194 C   0  0  0  0  0  0  0  0  0  0  0  0
   -0.3716   -4.1902   -0.0401 C   0  0  0  0  0  0  0  0  0  0  0  0
   -0.9061   -4.6153   -1.4283 C   0  0  0  0  0  0  0  0  0  0  0  0
   -1.5560   -3.6029    0.7818 C   0  0  0  0  0  0  0  0  0  0  0  0
    0.1241   -5.4663    0.6981 C   0  0  0  0  0  0  0  0  0  0  0  0
    0.5196   -5.2711    2.1699 C   0  0  0  0  0  0  0  0  0  0  0  0
    0.8902   -6.6213    2.7820 C   0  0  0  0  0  0  0  0  0  0  0  0
    1.2936   -6.5015    4.2496 C   0  0  0  0  0  0  0  0  0  0  0  0
    1.4903   -7.8755    4.8708 C   0  0  0  0  0  0  0  0  0  0  0  0
    1.2530   -8.9039    4.2392 O   0  0  0  0  0  0  0  0  0  0  0  0
    1.8922   -7.9050    6.2045 N   0  0  0  0  0  0  0  0  0  0  0  0
    1.9826   -9.2089    6.8377 C   0  0  0  0  0  0  0  0  0  0  0  0
    2.6928   -6.8465    6.7930 C   0  0  0  0  0  0  0  0  0  0  0  0
    0.3234   -1.8225   -0.5897 C   0  0  0  0  0  0  0  0  0  0  0  0
    1.2636   -0.8190   -0.7903 C   0  0  0  0  0  0  0  0  0  0  0  0
    0.7126    0.4307   -0.9206 O   0  0  0  0  0  0  0  0  0  0  0  0
    1.4927    1.5412   -0.4298 C   0  0  0  0  0  0  0  0  0  0  0  0
    1.7827    2.4342   -1.6475 C   0  0  0  0  0  0  0  0  0  0  0  0
    0.5634    2.3013    0.5295 C   0  0  0  0  0  0  0  0  0  0  0  0
    7.6533    1.0906    0.5118 H   0  0  0  0  0  0  0  0  0  0  0  0
    7.4279    1.4666   -1.2191 H   0  0  0  0  0  0  0  0  0  0  0  0
    7.3487    2.7459   -0.0016 H   0  0  0  0  0  0  0  0  0  0  0  0
    5.2410    3.4198    0.6738 H   0  0  0  0  0  0  0  0  0  0  0  0
    2.9748    2.9709    1.3293 H   0  0  0  0  0  0  0  0  0  0  0  0
    3.7979    1.6316    2.0639 H   0  0  0  0  0  0  0  0  0  0  0  0
    2.3833    0.3809    1.1239 H   0  0  0  0  0  0  0  0  0  0  0  0
    3.5604    0.5702   -1.6845 H   0  0  0  0  0  0  0  0  0  0  0  0
    5.1845   -0.5673    0.6147 H   0  0  0  0  0  0  0  0  0  0  0  0
    5.6023   -0.4146   -1.1090 H   0  0  0  0  0  0  0  0  0  0  0  0
    4.5013   -2.6593   -1.8021 H   0  0  0  0  0  0  0  0  0  0  0  0
    2.4542   -4.4409   -0.3145 H   0  0  0  0  0  0  0  0  0  0  0  0
   -0.0880   -4.7827   -2.1386 H   0  0  0  0  0  0  0  0  0  0  0  0
   -1.4922   -5.5381   -1.3728 H   0  0  0  0  0  0  0  0  0  0  0  0
   -1.5528   -3.8418   -1.8599 H   0  0  0  0  0  0  0  0  0  0  0  0
   -2.2451   -4.3920    1.1014 H   0  0  0  0  0  0  0  0  0  0  0  0
   -2.1559   -2.8875    0.2078 H   0  0  0  0  0  0  0  0  0  0  0  0
   -1.2061   -3.0747    1.6779 H   0  0  0  0  0  0  0  0  0  0  0  0
    0.9536   -5.9329    0.1537 H   0  0  0  0  0  0  0  0  0  0  0  0
   -0.6853   -6.2104    0.6765 H   0  0  0  0  0  0  0  0  0  0  0  0
    1.3539   -4.5697    2.2613 H   0  0  0  0  0  0  0  0  0  0  0  0
   -0.3190   -4.8581    2.7425 H   0  0  0  0  0  0  0  0  0  0  0  0
    1.7129   -7.0724    2.2147 H   0  0  0  0  0  0  0  0  0  0  0  0
    0.0329   -7.3010    2.6894 H   0  0  0  0  0  0  0  0  0  0  0  0
    0.5022   -5.9942    4.8136 H   0  0  0  0  0  0  0  0  0  0  0  0
    2.2146   -5.9138    4.3169 H   0  0  0  0  0  0  0  0  0  0  0  0
    2.9918   -9.6037    6.6965 H   0  0  0  0  0  0  0  0  0  0  0  0
    1.2599   -9.9085    6.4058 H   0  0  0  0  0  0  0  0  0  0  0  0
    1.7636   -9.1043    7.9036 H   0  0  0  0  0  0  0  0  0  0  0  0
    2.3300   -5.8586    6.5035 H   0  0  0  0  0  0  0  0  0  0  0  0
    3.7238   -6.9637    6.4433 H   0  0  0  0  0  0  0  0  0  0  0  0
    2.6629   -6.9223    7.8832 H   0  0  0  0  0  0  0  0  0  0  0  0
   -0.7232   -1.5324   -0.5973 H   0  0  0  0  0  0  0  0  0  0  0  0
    2.5778    3.1580   -1.4470 H   0  0  0  0  0  0  0  0  0  0  0  0
    2.0629    1.8403   -2.5283 H   0  0  0  0  0  0  0  0  0  0  0  0
    0.8887    2.9848   -1.9485 H   0  0  0  0  0  0  0  0  0  0  0  0
    0.4873    1.7793    1.4904 H   0  0  0  0  0  0  0  0  0  0  0  0
    0.9188    3.3178    0.7192 H   0  0  0  0  0  0  0  0  0  0  0  0
   -0.4542    2.3663    0.1272 H   0  0  0  0  0  0  0  0  0  0  0  0
  1  2  1  0  0  0  0
  1 31  1  0  0  0  0
  1 32  1  0  0  0  0
  1 33  1  0  0  0  0
  2  7  1  0  0  0  0
  2  3  2  0  0  0  0
  3  4  1  0  0  0  0
  3 34  1  0  0  0  0
  4 35  1  0  0  0  0
  4 36  1  0  0  0  0
  5  4  1  0  0  0  0
  5  6  1  0  0  0  0
  5 28  1  0  0  0  0
  5 37  1  1  0  0  0
  6  7  1  0  0  0  0
  6  8  1  0  0  0  0
  6 38  1  6  0  0  0
  7 39  1  0  0  0  0
  7 40  1  0  0  0  0
  8 26  2  0  0  0  0
  8  9  1  0  0  0  0
  9 10  1  0  0  0  0
  9 11  2  0  0  0  0
 10 41  1  0  0  0  0
 11 12  1  0  0  0  0
 11 42  1  0  0  0  0
 12 13  1  0  0  0  0
 12 25  2  0  0  0  0
 13 14  1  0  0  0  0
 13 15  1  0  0  0  0
 13 16  1  0  0  0  0
 14 43  1  0  0  0  0
 14 44  1  0  0  0  0
 14 45  1  0  0  0  0
 15 46  1  0  0  0  0
 15 47  1  0  0  0  0
 15 48  1  0  0  0  0
 16 17  1  0  0  0  0
 16 49  1  0  0  0  0
 16 50  1  0  0  0  0
 17 18  1  0  0  0  0
 17 51  1  0  0  0  0
 17 52  1  0  0  0  0
 18 19  1  0  0  0  0
 18 53  1  0  0  0  0
 18 54  1  0  0  0  0
 19 20  1  0  0  0  0
 19 55  1  0  0  0  0
 19 56  1  0  0  0  0
 20 21  2  0  0  0  0
 20 22  1  0  0  0  0
 22 23  1  0  0  0  0
 22 24  1  0  0  0  0
 23 57  1  0  0  0  0
 23 58  1  0  0  0  0
 23 59  1  0  0  0  0
 24 60  1  0  0  0  0
 24 61  1  0  0  0  0
 24 62  1  0  0  0  0
 25 26  1  0  0  0  0
 25 63  1  0  0  0  0
 26 27  1  0  0  0  0
 27 28  1  0  0  0  0
 28 29  1  0  0  0  0
 28 30  1  0  0  0  0
 29 64  1  0  0  0  0
 29 65  1  0  0  0  0
 29 66  1  0  0  0  0
 30 67  1  0  0  0  0
 30 68  1  0  0  0  0
 30 69  1  0  0  0  0
M  END
$$$$
CHEMBL163430	5XRA	best_smi
 OpenBabel12022417443D

 52 54  0  0  1  0  0  0  0  0999 V2000
    1.5822   -0.5010    1.2766 C   0  0  0  0  0  0  0  0  0  0  0  0
    3.0372   -0.9218    1.2892 C   0  0  0  0  0  0  0  0  0  0  0  0
    3.6879   -0.7610    0.1448 C   0  0  0  0  0  0  0  0  0  0  0  0
    5.0426   -1.3133   -0.0320 C   0  0  0  0  0  0  0  0  0  0  0  0
    5.1323   -2.6757    0.6574 C   0  0  3  0  0  0  0  0  0  0  0  0
    5.0225   -2.5058    2.1820 C   0  0  3  0  0  0  0  0  0  0  0  0
    3.6889   -1.6646    2.5061 C   0  0  0  0  0  0  0  0  0  0  0  0
    5.3251   -3.9190    2.7694 C   0  0  0  0  0  0  0  0  0  0  0  0
    5.8802   -4.1786    4.0334 C   0  0  0  0  0  0  0  0  0  0  0  0
    6.1766   -3.1842    4.9274 O   0  0  0  0  0  0  0  0  0  0  0  0
    6.2365   -5.4932    4.4656 C   0  0  0  0  0  0  0  0  0  0  0  0
    6.0720   -6.6203    3.6460 C   0  0  0  0  0  0  0  0  0  0  0  0
    6.4475   -8.0325    4.0831 C   0  0  0  0  0  0  0  0  0  0  0  0
    7.8602   -8.4081    3.7731 C   0  0  0  0  0  0  0  0  0  0  0  0
    9.1005   -8.6860    3.4827 C   0  0  0  0  0  0  0  0  0  0  0  0
   10.5465   -9.0099    3.1441 C   0  0  0  0  0  0  0  0  0  0  0  0
   11.0007  -10.2558    3.8981 C   0  0  0  0  0  0  0  0  0  0  0  0
   12.4444  -10.5875    3.5689 C   0  0  0  0  0  0  0  0  0  0  0  0
   12.9959  -12.1794    4.5439 Br  0  0  0  0  0  0  0  0  0  0  0  0
    5.5797   -6.3664    2.3644 C   0  0  0  0  0  0  0  0  0  0  0  0
    5.2291   -5.0626    1.9388 C   0  0  0  0  0  0  0  0  0  0  0  0
    4.8324   -5.0406    0.6121 O   0  0  0  0  0  0  0  0  0  0  0  0
    4.1542   -3.8249    0.2301 C   0  0  0  0  0  0  0  0  0  0  0  0
    2.7370   -3.9848    0.8499 C   0  0  0  0  0  0  0  0  0  0  0  0
    3.9664   -3.8553   -1.2909 C   0  0  0  0  0  0  0  0  0  0  0  0
    1.4945    0.5658    1.0287 H   0  0  0  0  0  0  0  0  0  0  0  0
    1.0588   -0.6935    2.2096 H   0  0  0  0  0  0  0  0  0  0  0  0
    1.0528   -1.0471    0.4803 H   0  0  0  0  0  0  0  0  0  0  0  0
    3.2100   -0.3226   -0.7411 H   0  0  0  0  0  0  0  0  0  0  0  0
    5.7609   -0.6100    0.4106 H   0  0  0  0  0  0  0  0  0  0  0  0
    5.3070   -1.3932   -1.0900 H   0  0  0  0  0  0  0  0  0  0  0  0
    6.1583   -3.0188    0.4363 H   0  0  0  0  0  0  0  0  0  0  0  0
    5.8608   -1.8621    2.4864 H   0  0  0  0  0  0  0  0  0  0  0  0
    2.9459   -2.2954    2.9980 H   0  0  0  0  0  0  0  0  0  0  0  0
    3.9490   -0.8887    3.2403 H   0  0  0  0  0  0  0  0  0  0  0  0
    6.1511   -2.3279    4.4752 H   0  0  0  0  0  0  0  0  0  0  0  0
    6.6819   -5.6148    5.4540 H   0  0  0  0  0  0  0  0  0  0  0  0
    5.7689   -8.7602    3.6011 H   0  0  0  0  0  0  0  0  0  0  0  0
    6.2573   -8.1580    5.1622 H   0  0  0  0  0  0  0  0  0  0  0  0
   11.1719   -8.1503    3.4102 H   0  0  0  0  0  0  0  0  0  0  0  0
   10.6294   -9.1638    2.0623 H   0  0  0  0  0  0  0  0  0  0  0  0
   10.3502  -11.1022    3.6412 H   0  0  0  0  0  0  0  0  0  0  0  0
   10.8861  -10.0975    4.9786 H   0  0  0  0  0  0  0  0  0  0  0  0
   13.1268   -9.7868    3.8670 H   0  0  0  0  0  0  0  0  0  0  0  0
   12.5819  -10.8087    2.5070 H   0  0  0  0  0  0  0  0  0  0  0  0
    5.4642   -7.1707    1.6385 H   0  0  0  0  0  0  0  0  0  0  0  0
    2.7502   -4.1458    1.9320 H   0  0  0  0  0  0  0  0  0  0  0  0
    2.2637   -4.8983    0.4664 H   0  0  0  0  0  0  0  0  0  0  0  0
    2.0581   -3.1673    0.6205 H   0  0  0  0  0  0  0  0  0  0  0  0
    4.9235   -3.9910   -1.8057 H   0  0  0  0  0  0  0  0  0  0  0  0
    3.4891   -2.9409   -1.6573 H   0  0  0  0  0  0  0  0  0  0  0  0
    3.3248   -4.6922   -1.5889 H   0  0  0  0  0  0  0  0  0  0  0  0
  1  2  1  0  0  0  0
  1 26  1  0  0  0  0
  1 27  1  0  0  0  0
  1 28  1  0  0  0  0
  2  7  1  0  0  0  0
  2  3  2  0  0  0  0
  3  4  1  0  0  0  0
  3 29  1  0  0  0  0
  4  5  1  0  0  0  0
  4 30  1  0  0  0  0
  4 31  1  0  0  0  0
  5 23  1  0  0  0  0
  5  6  1  0  0  0  0
  5 32  1  0  0  0  0
  6  7  1  0  0  0  0
  6  8  1  0  0  0  0
  6 33  1  0  0  0  0
  7 34  1  0  0  0  0
  7 35  1  0  0  0  0
  8 21  2  0  0  0  0
  8  9  1  0  0  0  0
  9 10  1  0  0  0  0
  9 11  2  0  0  0  0
 10 36  1  0  0  0  0
 11 12  1  0  0  0  0
 11 37  1  0  0  0  0
 12 13  1  0  0  0  0
 12 20  2  0  0  0  0
 13 14  1  0  0  0  0
 13 38  1  0  0  0  0
 13 39  1  0  0  0  0
 14 15  3  0  0  0  0
 15 16  1  0  0  0  0
 16 17  1  0  0  0  0
 16 40  1  0  0  0  0
 16 41  1  0  0  0  0
 17 18  1  0  0  0  0
 17 42  1  0  0  0  0
 17 43  1  0  0  0  0
 18 19  1  0  0  0  0
 18 44  1  0  0  0  0
 18 45  1  0  0  0  0
 20 21  1  0  0  0  0
 20 46  1  0  0  0  0
 21 22  1  0  0  0  0
 22 23  1  0  0  0  0
 23 24  1  0  0  0  0
 23 25  1  0  0  0  0
 24 47  1  0  0  0  0
 24 48  1  0  0  0  0
 24 49  1  0  0  0  0
 25 50  1  0  0  0  0
 25 51  1  0  0  0  0
 25 52  1  0  0  0  0
M  END
$$$$
CHEMBL336658	5XRA	best_smi
 OpenBabel12022417443D

 81 84  0  0  1  0  0  0  0  0999 V2000
    6.6114    6.2943   -7.3469 C   0  0  0  0  0  0  0  0  0  0  0  0
    6.0598    6.1467   -5.9658 C   0  0  0  0  0  0  0  0  0  0  0  0
    6.7905    5.5585   -5.0056 C   0  0  0  0  0  0  0  0  0  0  0  0
    6.1442    5.1881   -3.7213 C   0  0  0  0  0  0  0  0  0  0  0  0
    5.1763    6.2397   -3.1862 C   0  0  2  0  0  0  0  0  0  0  0  0
    4.6541    7.2769   -4.2382 C   0  0  1  0  0  0  0  0  0  0  0  0
    4.6537    6.6326   -5.6461 C   0  0  0  0  0  0  0  0  0  0  0  0
    3.3669    7.7772   -3.6078 C   0  0  0  0  0  0  0  0  0  0  0  0
    2.1609    7.8725   -4.2864 C   0  0  0  0  0  0  0  0  0  0  0  0
    2.0746    8.1761   -5.6080 O   0  0  0  0  0  0  0  0  0  0  0  0
    0.9992    7.4788   -3.6479 C   0  0  0  0  0  0  0  0  0  0  0  0
    1.0873    6.9917   -2.3374 C   0  0  0  0  0  0  0  0  0  0  0  0
    0.4400    5.6261   -2.0111 C   0  0  0  0  0  0  0  0  0  0  0  0
   -0.7762    5.3019   -2.9010 C   0  0  0  0  0  0  0  0  0  0  0  0
    1.5324    4.5503   -2.3006 C   0  0  0  0  0  0  0  0  0  0  0  0
    0.0715    5.4456   -0.5323 C   0  0  0  0  0  0  0  0  0  0  0  0
   -1.0048    6.3921   -0.0355 C   0  0  0  0  0  0  0  0  0  0  0  0
   -1.3565    6.0499    1.3983 C   0  0  0  0  0  0  0  0  0  0  0  0
   -0.2061    6.3300    2.3694 C   0  0  0  0  0  0  0  0  0  0  0  0
   -0.6733    6.1749    3.7915 C   0  0  0  0  0  0  0  0  0  0  0  0
   -0.2760    5.2638    4.5133 O   0  0  0  0  0  0  0  0  0  0  0  0
   -1.5714    7.0814    4.2660 N   0  0  0  0  0  0  0  0  0  0  0  0
   -2.1636    8.1984    3.5573 C   0  0  0  0  0  0  0  0  0  0  0  0
   -2.3135    9.3528    4.4906 C   0  0  0  0  0  0  0  0  0  0  0  0
   -3.4588    9.4507    5.2929 C   0  0  0  0  0  0  0  0  0  0  0  0
   -3.5087   10.4001    6.3082 C   0  0  0  0  0  0  0  0  0  0  0  0
   -2.4073   11.2245    6.5170 C   0  0  0  0  0  0  0  0  0  0  0  0
   -2.3116   12.2051    7.9961 S   0  0  0  0  0  0  0  0  0  0  0  0
   -1.4030   11.1449    8.9423 N   0  0  0  0  0  0  0  0  0  0  0  0
   -3.6269   12.2770    8.5706 O   0  0  0  0  0  0  0  0  0  0  0  0
   -1.4942   13.3521    7.7111 O   0  0  0  0  0  0  0  0  0  0  0  0
   -1.3047   11.2046    5.6555 C   0  0  0  0  0  0  0  0  0  0  0  0
   -1.2517   10.2580    4.6448 C   0  0  0  0  0  0  0  0  0  0  0  0
    2.1527    7.4382   -1.5472 C   0  0  0  0  0  0  0  0  0  0  0  0
    3.3274    7.7783   -2.1994 C   0  0  0  0  0  0  0  0  0  0  0  0
    4.4528    7.7871   -1.4074 O   0  0  0  0  0  0  0  0  0  0  0  0
    5.5914    7.0442   -1.9255 C   0  0  0  0  0  0  0  0  0  0  0  0
    6.0333    6.1278   -0.7714 C   0  0  0  0  0  0  0  0  0  0  0  0
    6.6964    8.0782   -2.2123 C   0  0  0  0  0  0  0  0  0  0  0  0
    6.4139    5.3831   -7.9168 H   0  0  0  0  0  0  0  0  0  0  0  0
    6.1730    7.1435   -7.8722 H   0  0  0  0  0  0  0  0  0  0  0  0
    7.6987    6.4478   -7.3176 H   0  0  0  0  0  0  0  0  0  0  0  0
    7.8048    5.2131   -5.1831 H   0  0  0  0  0  0  0  0  0  0  0  0
    5.5580    4.2806   -3.9427 H   0  0  0  0  0  0  0  0  0  0  0  0
    6.8890    4.8583   -2.9966 H   0  0  0  0  0  0  0  0  0  0  0  0
    4.3160    5.6157   -2.8695 H   0  0  0  0  0  0  0  0  0  0  0  0
    5.3159    8.1471   -4.3126 H   0  0  0  0  0  0  0  0  0  0  0  0
    4.3478    7.3717   -6.3927 H   0  0  0  0  0  0  0  0  0  0  0  0
    3.9473    5.7938   -5.7086 H   0  0  0  0  0  0  0  0  0  0  0  0
    2.7627    8.8409   -5.7841 H   0  0  0  0  0  0  0  0  0  0  0  0
    0.1045    7.3468   -4.2488 H   0  0  0  0  0  0  0  0  0  0  0  0
   -0.4699    5.0928   -3.9329 H   0  0  0  0  0  0  0  0  0  0  0  0
   -1.4929    6.1296   -2.9270 H   0  0  0  0  0  0  0  0  0  0  0  0
   -1.3033    4.4119   -2.5404 H   0  0  0  0  0  0  0  0  0  0  0  0
    2.3249    4.5684   -1.5398 H   0  0  0  0  0  0  0  0  0  0  0  0
    2.0179    4.7080   -3.2705 H   0  0  0  0  0  0  0  0  0  0  0  0
    1.1085    3.5408   -2.2990 H   0  0  0  0  0  0  0  0  0  0  0  0
    0.9680    5.5463    0.0892 H   0  0  0  0  0  0  0  0  0  0  0  0
   -0.2702    4.4131   -0.3739 H   0  0  0  0  0  0  0  0  0  0  0  0
   -0.6808    7.4365   -0.1090 H   0  0  0  0  0  0  0  0  0  0  0  0
   -1.9111    6.2929   -0.6424 H   0  0  0  0  0  0  0  0  0  0  0  0
   -2.2547    6.6154    1.6495 H   0  0  0  0  0  0  0  0  0  0  0  0
   -1.6505    4.9963    1.4844 H   0  0  0  0  0  0  0  0  0  0  0  0
    0.6192    5.6264    2.2174 H   0  0  0  0  0  0  0  0  0  0  0  0
    0.2148    7.3318    2.2326 H   0  0  0  0  0  0  0  0  0  0  0  0
   -1.8886    6.8805    5.2064 H   0  0  0  0  0  0  0  0  0  0  0  0
   -1.5595    8.4985    2.6955 H   0  0  0  0  0  0  0  0  0  0  0  0
   -3.1421    7.8791    3.1849 H   0  0  0  0  0  0  0  0  0  0  0  0
   -4.2865    8.7555    5.1593 H   0  0  0  0  0  0  0  0  0  0  0  0
   -4.3808   10.4372    6.9631 H   0  0  0  0  0  0  0  0  0  0  0  0
   -0.4319   11.1132    8.6455 H   0  0  0  0  0  0  0  0  0  0  0  0
   -1.8585   10.2444    9.0591 H   0  0  0  0  0  0  0  0  0  0  0  0
   -0.4681   11.8873    5.8022 H   0  0  0  0  0  0  0  0  0  0  0  0
   -0.3674   10.1897    4.0159 H   0  0  0  0  0  0  0  0  0  0  0  0
    2.2149    7.2154   -0.4854 H   0  0  0  0  0  0  0  0  0  0  0  0
    5.1808    5.5733   -0.3640 H   0  0  0  0  0  0  0  0  0  0  0  0
    6.4385    6.7164    0.0604 H   0  0  0  0  0  0  0  0  0  0  0  0
    6.8089    5.4146   -1.0564 H   0  0  0  0  0  0  0  0  0  0  0  0
    7.2341    8.3530   -1.2993 H   0  0  0  0  0  0  0  0  0  0  0  0
    7.4266    7.7091   -2.9348 H   0  0  0  0  0  0  0  0  0  0  0  0
    6.2719    9.0181   -2.5866 H   0  0  0  0  0  0  0  0  0  0  0  0
  1  2  1  0  0  0  0
  1 40  1  0  0  0  0
  1 41  1  0  0  0  0
  1 42  1  0  0  0  0
  2  7  1  0  0  0  0
  2  3  2  0  0  0  0
  3  4  1  0  0  0  0
  3 43  1  0  0  0  0
  4 44  1  0  0  0  0
  4 45  1  0  0  0  0
  5  4  1  0  0  0  0
  5  6  1  0  0  0  0
  5 37  1  0  0  0  0
  5 46  1  1  0  0  0
  6  7  1  0  0  0  0
  6  8  1  0  0  0  0
  6 47  1  6  0  0  0
  7 48  1  0  0  0  0
  7 49  1  0  0  0  0
  8 35  2  0  0  0  0
  8  9  1  0  0  0  0
  9 10  1  0  0  0  0
  9 11  2  0  0  0  0
 10 50  1  0  0  0  0
 11 12  1  0  0  0  0
 11 51  1  0  0  0  0
 12 13  1  0  0  0  0
 12 34  2  0  0  0  0
 13 14  1  0  0  0  0
 13 15  1  0  0  0  0
 13 16  1  0  0  0  0
 14 52  1  0  0  0  0
 14 53  1  0  0  0  0
 14 54  1  0  0  0  0
 15 55  1  0  0  0  0
 15 56  1  0  0  0  0
 15 57  1  0  0  0  0
 16 17  1  0  0  0  0
 16 58  1  0  0  0  0
 16 59  1  0  0  0  0
 17 18  1  0  0  0  0
 17 60  1  0  0  0  0
 17 61  1  0  0  0  0
 18 19  1  0  0  0  0
 18 62  1  0  0  0  0
 18 63  1  0  0  0  0
 19 20  1  0  0  0  0
 19 64  1  0  0  0  0
 19 65  1  0  0  0  0
 20 21  2  0  0  0  0
 20 22  1  0  0  0  0
 22 23  1  0  0  0  0
 22 66  1  0  0  0  0
 23 24  1  0  0  0  0
 23 67  1  0  0  0  0
 23 68  1  0  0  0  0
 24 33  2  0  0  0  0
 24 25  1  0  0  0  0
 25 26  2  0  0  0  0
 25 69  1  0  0  0  0
 26 27  1  0  0  0  0
 26 70  1  0  0  0  0
 27 28  1  0  0  0  0
 27 32  2  0  0  0  0
 28 29  1  0  0  0  0
 28 30  2  0  0  0  0
 28 31  2  0  0  0  0
 29 71  1  0  0  0  0
 29 72  1  0  0  0  0
 32 33  1  0  0  0  0
 32 73  1  0  0  0  0
 33 74  1  0  0  0  0
 34 35  1  0  0  0  0
 34 75  1  0  0  0  0
 35 36  1  0  0  0  0
 36 37  1  0  0  0  0
 37 38  1  0  0  0  0
 37 39  1  0  0  0  0
 38 76  1  0  0  0  0
 38 77  1  0  0  0  0
 38 78  1  0  0  0  0
 39 79  1  0  0  0  0
 39 80  1  0  0  0  0
 39 81  1  0  0  0  0
M  END
$$$$
CHEMBL344623	5XRA	best_smi
 OpenBabel12022417443D

 75 77  0  0  1  0  0  0  0  0999 V2000
    4.6544   -2.7397    5.0467 C   0  0  0  0  0  0  0  0  0  0  0  0
    3.6271   -1.6258    5.1751 C   0  0  0  0  0  0  0  0  0  0  0  0
    3.0040   -1.3418    3.8895 N   0  0  0  0  0  0  0  0  0  0  0  0
    1.7162   -1.9915    3.5985 C   0  0  0  0  0  0  0  0  0  0  0  0
    1.8531   -3.2985    2.8348 C   0  0  0  0  0  0  0  0  0  0  0  0
    3.7643   -0.6120    2.9715 C   0  0  0  0  0  0  0  0  0  0  0  0
    4.8464   -0.1043    3.2548 O   0  0  0  0  0  0  0  0  0  0  0  0
    3.2221   -0.5393    1.5735 C   0  0  0  0  0  0  0  0  0  0  0  0
    3.7092    0.6595    0.7666 C   0  0  0  0  0  0  0  0  0  0  0  0
    3.0160    0.7143   -0.5929 C   0  0  0  0  0  0  0  0  0  0  0  0
    1.4921    0.8131   -0.4533 C   0  0  0  0  0  0  0  0  0  0  0  0
    0.6918    0.8160   -1.7678 C   0  0  0  0  0  0  0  0  0  0  0  0
    1.0478   -0.4562   -2.6007 C   0  0  0  0  0  0  0  0  0  0  0  0
    1.0329    2.0367   -2.6279 C   0  0  0  0  0  0  0  0  0  0  0  0
   -0.7864    0.8067   -1.3483 C   0  0  0  0  0  0  0  0  0  0  0  0
   -1.5648    1.9429   -1.0720 C   0  0  0  0  0  0  0  0  0  0  0  0
   -2.9343    1.8175   -0.7417 C   0  0  0  0  0  0  0  0  0  0  0  0
   -3.6678    2.9473   -0.5240 O   0  0  0  0  0  0  0  0  0  0  0  0
   -3.5675    0.5664   -0.7118 C   0  0  0  0  0  0  0  0  0  0  0  0
   -2.7844   -0.5067   -1.1082 C   0  0  0  0  0  0  0  0  0  0  0  0
   -1.4223   -0.4213   -1.2677 C   0  0  0  0  0  0  0  0  0  0  0  0
   -3.2787   -1.6738   -1.5907 O   0  0  0  0  0  0  0  0  0  0  0  0
   -4.3559   -2.2576   -0.8821 C   0  0  0  0  0  0  0  0  0  0  0  0
   -5.1593   -3.0140   -1.9407 C   0  0  0  0  0  0  0  0  0  0  0  0
   -3.6652   -3.2710    0.0602 C   0  0  0  0  0  0  0  0  0  0  0  0
   -5.1622   -1.2464   -0.0522 C   0  0  2  0  0  0  0  0  0  0  0  0
   -6.6590   -1.5586    0.1409 C   0  0  0  0  0  0  0  0  0  0  0  0
   -7.0361   -0.9265    1.4513 C   0  0  0  0  0  0  0  0  0  0  0  0
   -6.3347    0.1601    1.8388 C   0  0  0  0  0  0  0  0  0  0  0  0
   -5.7948    0.1800    3.2423 C   0  0  0  0  0  0  0  0  0  0  0  0
   -5.6488    1.0564    0.7988 C   0  0  0  0  0  0  0  0  0  0  0  0
   -5.0154    0.2663   -0.3953 C   0  0  1  0  0  0  0  0  0  0  0  0
    4.2435   -3.6077    4.5314 H   0  0  0  0  0  0  0  0  0  0  0  0
    5.5262   -2.3977    4.4730 H   0  0  0  0  0  0  0  0  0  0  0  0
    5.0072   -3.0474    6.0334 H   0  0  0  0  0  0  0  0  0  0  0  0
    4.1166   -0.7135    5.5389 H   0  0  0  0  0  0  0  0  0  0  0  0
    2.8538   -1.8852    5.9042 H   0  0  0  0  0  0  0  0  0  0  0  0
    1.0804   -1.3006    3.0369 H   0  0  0  0  0  0  0  0  0  0  0  0
    1.1815   -2.1649    4.5383 H   0  0  0  0  0  0  0  0  0  0  0  0
    0.8989   -3.5727    2.3735 H   0  0  0  0  0  0  0  0  0  0  0  0
    2.6057   -3.2472    2.0422 H   0  0  0  0  0  0  0  0  0  0  0  0
    2.1433   -4.1098    3.5084 H   0  0  0  0  0  0  0  0  0  0  0  0
    2.1463   -0.4754    1.6522 H   0  0  0  0  0  0  0  0  0  0  0  0
    3.4809   -1.4632    1.0420 H   0  0  0  0  0  0  0  0  0  0  0  0
    4.7898    0.6063    0.6242 H   0  0  0  0  0  0  0  0  0  0  0  0
    3.5021    1.5853    1.3226 H   0  0  0  0  0  0  0  0  0  0  0  0
    3.2870   -0.1839   -1.1600 H   0  0  0  0  0  0  0  0  0  0  0  0
    3.3916    1.5773   -1.1533 H   0  0  0  0  0  0  0  0  0  0  0  0
    1.2440    1.6915    0.1554 H   0  0  0  0  0  0  0  0  0  0  0  0
    1.1226   -0.0516    0.1150 H   0  0  0  0  0  0  0  0  0  0  0  0
    0.3006   -0.6206   -3.3949 H   0  0  0  0  0  0  0  0  0  0  0  0
    1.0700   -1.3561   -1.9777 H   0  0  0  0  0  0  0  0  0  0  0  0
    2.0209   -0.3820   -3.0770 H   0  0  0  0  0  0  0  0  0  0  0  0
    2.0241    1.9313   -3.0832 H   0  0  0  0  0  0  0  0  0  0  0  0
    1.0411    2.9599   -2.0406 H   0  0  0  0  0  0  0  0  0  0  0  0
    0.3095    2.1541   -3.4419 H   0  0  0  0  0  0  0  0  0  0  0  0
   -1.1063    2.9281   -1.1112 H   0  0  0  0  0  0  0  0  0  0  0  0
   -3.1407    3.7264   -0.7665 H   0  0  0  0  0  0  0  0  0  0  0  0
   -0.9020   -1.3598   -1.4097 H   0  0  0  0  0  0  0  0  0  0  0  0
   -5.8308   -3.7461   -1.4959 H   0  0  0  0  0  0  0  0  0  0  0  0
   -4.4775   -3.5416   -2.6201 H   0  0  0  0  0  0  0  0  0  0  0  0
   -5.7324   -2.3163   -2.5590 H   0  0  0  0  0  0  0  0  0  0  0  0
   -4.3898   -3.8417    0.6437 H   0  0  0  0  0  0  0  0  0  0  0  0
   -3.0259   -3.9602   -0.5029 H   0  0  0  0  0  0  0  0  0  0  0  0
   -2.9878   -2.7555    0.7577 H   0  0  0  0  0  0  0  0  0  0  0  0
   -4.6780   -1.3405    0.9367 H   0  0  0  0  0  0  0  0  0  0  0  0
   -6.8173   -2.6378    0.2285 H   0  0  0  0  0  0  0  0  0  0  0  0
   -7.2801   -1.1857   -0.6817 H   0  0  0  0  0  0  0  0  0  0  0  0
   -7.4788   -1.6007    2.1809 H   0  0  0  0  0  0  0  0  0  0  0  0
   -5.9152    1.1469    3.7276 H   0  0  0  0  0  0  0  0  0  0  0  0
   -4.7227   -0.0612    3.1951 H   0  0  0  0  0  0  0  0  0  0  0  0
   -6.2486   -0.5980    3.8698 H   0  0  0  0  0  0  0  0  0  0  0  0
   -4.9235    1.7027    1.3029 H   0  0  0  0  0  0  0  0  0  0  0  0
   -6.4202    1.7302    0.3972 H   0  0  0  0  0  0  0  0  0  0  0  0
   -5.5839    0.4907   -1.3097 H   0  0  0  0  0  0  0  0  0  0  0  0
  1  2  1  0  0  0  0
  1 33  1  0  0  0  0
  1 34  1  0  0  0  0
  1 35  1  0  0  0  0
  2  3  1  0  0  0  0
  2 36  1  0  0  0  0
  2 37  1  0  0  0  0
  3  4  1  0  0  0  0
  3  6  1  0  0  0  0
  4  5  1  0  0  0  0
  4 38  1  0  0  0  0
  4 39  1  0  0  0  0
  5 40  1  0  0  0  0
  5 41  1  0  0  0  0
  5 42  1  0  0  0  0
  6  7  2  0  0  0  0
  6  8  1  0  0  0  0
  8  9  1  0  0  0  0
  8 43  1  0  0  0  0
  8 44  1  0  0  0  0
  9 10  1  0  0  0  0
  9 45  1  0  0  0  0
  9 46  1  0  0  0  0
 10 11  1  0  0  0  0
 10 47  1  0  0  0  0
 10 48  1  0  0  0  0
 11 12  1  0  0  0  0
 11 49  1  0  0  0  0
 11 50  1  0  0  0  0
 12 13  1  0  0  0  0
 12 14  1  0  0  0  0
 12 15  1  0  0  0  0
 13 51  1  0  0  0  0
 13 52  1  0  0  0  0
 13 53  1  0  0  0  0
 14 54  1  0  0  0  0
 14 55  1  0  0  0  0
 14 56  1  0  0  0  0
 15 21  2  0  0  0  0
 15 16  1  0  0  0  0
 16 17  2  0  0  0  0
 16 57  1  0  0  0  0
 17 18  1  0  0  0  0
 17 19  1  0  0  0  0
 18 58  1  0  0  0  0
 19 32  1  0  0  0  0
 19 20  2  0  0  0  0
 20 21  1  0  0  0  0
 20 22  1  0  0  0  0
 21 59  1  0  0  0  0
 22 23  1  0  0  0  0
 23 24  1  0  0  0  0
 23 25  1  0  0  0  0
 23 26  1  0  0  0  0
 24 60  1  0  0  0  0
 24 61  1  0  0  0  0
 24 62  1  0  0  0  0
 25 63  1  0  0  0  0
 25 64  1  0  0  0  0
 25 65  1  0  0  0  0
 26 27  1  0  0  0  0
 26 32  1  0  0  0  0
 26 66  1  1  0  0  0
 27 28  1  0  0  0  0
 27 67  1  0  0  0  0
 27 68  1  0  0  0  0
 28 29  2  0  0  0  0
 28 69  1  0  0  0  0
 29 30  1  0  0  0  0
 29 31  1  0  0  0  0
 30 70  1  0  0  0  0
 30 71  1  0  0  0  0
 30 72  1  0  0  0  0
 31 73  1  0  0  0  0
 31 74  1  0  0  0  0
 32 31  1  0  0  0  0
 32 75  1  6  0  0  0
M  END
$$$$
CHEMBL471367	5XRA	best_smi
 OpenBabel12022417453D

 61 64  0  0  1  0  0  0  0  0999 V2000
    3.7824   -0.9316   -2.0271 C   0  0  0  0  0  0  0  0  0  0  0  0
    3.9543   -0.5280   -0.5865 C   0  0  0  0  0  0  0  0  0  0  0  0
    5.0641    0.1701   -0.2740 C   0  0  0  0  0  0  0  0  0  0  0  0
    4.9797    1.4359    0.5484 C   0  0  0  0  0  0  0  0  0  0  0  0
    3.5402    1.9176    0.8899 C   0  0  2  0  0  0  0  0  0  0  0  0
    2.4577    1.1962    0.0453 C   0  0  1  0  0  0  0  0  0  0  0  0
    2.6935   -0.2991    0.2077 C   0  0  0  0  0  0  0  0  0  0  0  0
    1.0844    1.7433    0.2934 C   0  0  0  0  0  0  0  0  0  0  0  0
   -0.0737    1.1864   -0.2533 C   0  0  0  0  0  0  0  0  0  0  0  0
   -0.0374    0.1495   -1.1444 O   0  0  0  0  0  0  0  0  0  0  0  0
   -1.3365    1.7118    0.0145 C   0  0  0  0  0  0  0  0  0  0  0  0
   -1.4868    2.8603    0.8073 C   0  0  0  0  0  0  0  0  0  0  0  0
   -2.8772    3.4035    1.1949 C   0  0  0  0  0  0  0  0  0  0  0  0
   -2.8082    4.2150    2.5169 C   0  0  0  0  0  0  0  0  0  0  0  0
   -3.8164    2.2101    1.5526 C   0  0  0  0  0  0  0  0  0  0  0  0
   -3.4507    4.2553    0.0361 C   0  0  0  0  0  0  0  0  0  0  0  0
   -3.1150    5.6159   -0.0896 C   0  0  0  0  0  0  0  0  0  0  0  0
   -3.4596    6.3541   -1.2330 C   0  0  0  0  0  0  0  0  0  0  0  0
   -4.1103    5.7182   -2.2913 C   0  0  0  0  0  0  0  0  0  0  0  0
   -4.1661    6.3221   -3.6424 C   0  0  0  0  0  0  0  0  0  0  0  0
   -3.1116    7.1232   -3.9671 N   0  0  0  0  0  0  0  0  0  0  0  0
   -5.0173    5.9982   -4.4689 O   0  0  0  0  0  0  0  0  0  0  0  0
   -4.5534    4.4021   -2.1419 C   0  0  0  0  0  0  0  0  0  0  0  0
   -4.2206    3.6787   -0.9906 C   0  0  0  0  0  0  0  0  0  0  0  0
   -0.3088    3.5102    1.2078 C   0  0  0  0  0  0  0  0  0  0  0  0
    0.9504    2.9640    0.9555 C   0  0  0  0  0  0  0  0  0  0  0  0
    2.0071    3.7332    1.3727 O   0  0  0  0  0  0  0  0  0  0  0  0
    3.2874    3.4365    0.7692 C   0  0  0  0  0  0  0  0  0  0  0  0
    4.3135    4.2461    1.5733 C   0  0  0  0  0  0  0  0  0  0  0  0
    3.2946    3.9864   -0.6752 C   0  0  0  0  0  0  0  0  0  0  0  0
    3.8204   -0.0103   -2.6336 H   0  0  0  0  0  0  0  0  0  0  0  0
    4.5491   -1.6111   -2.3806 H   0  0  0  0  0  0  0  0  0  0  0  0
    2.7878   -1.3588   -2.2108 H   0  0  0  0  0  0  0  0  0  0  0  0
    5.9605    0.0659   -0.8811 H   0  0  0  0  0  0  0  0  0  0  0  0
    5.5756    1.3340    1.4627 H   0  0  0  0  0  0  0  0  0  0  0  0
    5.4755    2.2021   -0.0588 H   0  0  0  0  0  0  0  0  0  0  0  0
    3.3675    1.6427    1.9453 H   0  0  0  0  0  0  0  0  0  0  0  0
    2.6323    1.4353   -1.0127 H   0  0  0  0  0  0  0  0  0  0  0  0
    1.8840   -0.9369   -0.1542 H   0  0  0  0  0  0  0  0  0  0  0  0
    2.8390   -0.5836    1.2633 H   0  0  0  0  0  0  0  0  0  0  0  0
    0.7281    0.2964   -1.7250 H   0  0  0  0  0  0  0  0  0  0  0  0
   -2.1937    1.2176   -0.4341 H   0  0  0  0  0  0  0  0  0  0  0  0
   -2.3886    3.6015    3.3245 H   0  0  0  0  0  0  0  0  0  0  0  0
   -3.8027    4.5529    2.8299 H   0  0  0  0  0  0  0  0  0  0  0  0
   -2.1827    5.1101    2.4563 H   0  0  0  0  0  0  0  0  0  0  0  0
   -4.7982    2.5675    1.8863 H   0  0  0  0  0  0  0  0  0  0  0  0
   -3.3822    1.6097    2.3618 H   0  0  0  0  0  0  0  0  0  0  0  0
   -3.9980    1.5175    0.7258 H   0  0  0  0  0  0  0  0  0  0  0  0
   -2.5253    6.1263    0.6626 H   0  0  0  0  0  0  0  0  0  0  0  0
   -3.1564    7.3944   -1.3023 H   0  0  0  0  0  0  0  0  0  0  0  0
   -2.9394    7.2120   -4.9597 H   0  0  0  0  0  0  0  0  0  0  0  0
   -2.3050    7.2009   -3.3651 H   0  0  0  0  0  0  0  0  0  0  0  0
   -5.0739    3.9143   -2.9479 H   0  0  0  0  0  0  0  0  0  0  0  0
   -4.5126    2.6339   -0.9699 H   0  0  0  0  0  0  0  0  0  0  0  0
   -0.3346    4.4689    1.7154 H   0  0  0  0  0  0  0  0  0  0  0  0
    4.0550    5.3116    1.5559 H   0  0  0  0  0  0  0  0  0  0  0  0
    4.3182    3.9444    2.6261 H   0  0  0  0  0  0  0  0  0  0  0  0
    5.3268    4.1422    1.1735 H   0  0  0  0  0  0  0  0  0  0  0  0
    4.2855    3.9340   -1.1287 H   0  0  0  0  0  0  0  0  0  0  0  0
    2.5977    3.4637   -1.3403 H   0  0  0  0  0  0  0  0  0  0  0  0
    2.9513    5.0278   -0.6862 H   0  0  0  0  0  0  0  0  0  0  0  0
  1  2  1  0  0  0  0
  1 31  1  0  0  0  0
  1 32  1  0  0  0  0
  1 33  1  0  0  0  0
  2  7  1  0  0  0  0
  2  3  2  0  0  0  0
  3  4  1  0  0  0  0
  3 34  1  0  0  0  0
  4 35  1  0  0  0  0
  4 36  1  0  0  0  0
  5  4  1  0  0  0  0
  5  6  1  0  0  0  0
  5 28  1  0  0  0  0
  5 37  1  1  0  0  0
  6  7  1  0  0  0  0
  6  8  1  0  0  0  0
  6 38  1  6  0  0  0
  7 39  1  0  0  0  0
  7 40  1  0  0  0  0
  8 26  2  0  0  0  0
  8  9  1  0  0  0  0
  9 10  1  0  0  0  0
  9 11  2  0  0  0  0
 10 41  1  0  0  0  0
 11 12  1  0  0  0  0
 11 42  1  0  0  0  0
 12 13  1  0  0  0  0
 12 25  2  0  0  0  0
 13 14  1  0  0  0  0
 13 15  1  0  0  0  0
 13 16  1  0  0  0  0
 14 43  1  0  0  0  0
 14 44  1  0  0  0  0
 14 45  1  0  0  0  0
 15 46  1  0  0  0  0
 15 47  1  0  0  0  0
 15 48  1  0  0  0  0
 16 24  2  0  0  0  0
 16 17  1  0  0  0  0
 17 18  2  0  0  0  0
 17 49  1  0  0  0  0
 18 19  1  0  0  0  0
 18 50  1  0  0  0  0
 19 20  1  0  0  0  0
 19 23  2  0  0  0  0
 20 21  1  0  0  0  0
 20 22  2  0  0  0  0
 21 51  1  0  0  0  0
 21 52  1  0  0  0  0
 23 24  1  0  0  0  0
 23 53  1  0  0  0  0
 24 54  1  0  0  0  0
 25 26  1  0  0  0  0
 25 55  1  0  0  0  0
 26 27  1  0  0  0  0
 27 28  1  0  0  0  0
 28 29  1  0  0  0  0
 28 30  1  0  0  0  0
 29 56  1  0  0  0  0
 29 57  1  0  0  0  0
 29 58  1  0  0  0  0
 30 59  1  0  0  0  0
 30 60  1  0  0  0  0
 30 61  1  0  0  0  0
M  END
$$$$
CHEMBL120669
 OpenBabel12022417453D

 63 66  0  0  1  0  0  0  0  0999 V2000
    1.8591    1.7849   -0.3257 C   0  0  0  0  0  0  0  0  0  0  0  0
    1.2186    0.8094    0.6597 C   0  0  2  0  0  0  0  0  0  0  0  0
    2.7181    0.7778    0.3720 C   0  0  0  0  0  0  0  0  0  0  0  0
    0.5683   -0.5292    0.2799 C   0  0  0  0  0  0  0  0  0  0  0  0
   -0.2417   -0.7631   -0.8561 C   0  0  0  0  0  0  0  0  0  0  0  0
   -0.9802   -1.9193   -0.9614 C   0  0  0  0  0  0  0  0  0  0  0  0
   -0.9971   -2.7610    0.1465 C   0  0  0  0  0  0  0  0  0  0  0  0
   -2.3893   -2.7124    0.7915 C   0  0  1  0  0  0  0  0  0  0  0  0
   -3.2871   -3.2548   -0.3182 C   0  0  2  0  0  0  0  0  0  0  0  0
   -3.2848   -2.2292   -1.5017 C   0  0  0  0  0  0  0  0  0  0  0  0
   -4.2306   -2.7813   -2.5848 C   0  0  0  0  0  0  0  0  0  0  0  0
   -3.6876   -0.7491   -1.3238 C   0  0  0  0  0  0  0  0  0  0  0  0
   -1.8998   -2.1174   -1.9903 O   0  0  0  0  0  0  0  0  0  0  0  0
   -4.5454   -3.9053    0.2646 C   0  0  0  0  0  0  0  0  0  0  0  0
   -4.0734   -4.9669    1.2688 C   0  0  0  0  0  0  0  0  0  0  0  0
   -3.1103   -4.6817    2.1628 C   0  0  0  0  0  0  0  0  0  0  0  0
   -2.5909   -3.2790    2.1976 C   0  0  0  0  0  0  0  0  0  0  0  0
   -2.5075   -5.6443    3.1295 C   0  0  0  0  0  0  0  0  0  0  0  0
    0.1116   -2.7937    0.9700 C   0  0  0  0  0  0  0  0  0  0  0  0
    0.8252   -1.6337    1.1177 C   0  0  0  0  0  0  0  0  0  0  0  0
    0.4644   -3.9063    1.6630 O   0  0  0  0  0  0  0  0  0  0  0  0
    0.8270    1.3088    2.0736 C   0  0  0  0  0  0  0  0  0  0  0  0
   -0.4314    2.1823    2.1526 C   0  0  0  0  0  0  0  0  0  0  0  0
   -0.6813    2.5747    3.6189 C   0  0  0  0  0  0  0  0  0  0  0  0
   -1.7907    3.6115    3.8024 C   0  0  0  0  0  0  0  0  0  0  0  0
   -1.9781    3.9252    5.2912 C   0  0  0  0  0  0  0  0  0  0  0  0
   -3.0566    4.9676    5.5394 C   0  0  0  0  0  0  0  0  0  0  0  0
    2.1389    3.4727    0.1267 Cl  0  0  0  0  0  0  0  0  0  0  0  0
    1.6906    1.6123   -2.0688 Cl  0  0  0  0  0  0  0  0  0  0  0  0
    3.3954    1.0965    1.1534 H   0  0  0  0  0  0  0  0  0  0  0  0
    3.1042   -0.0578   -0.2049 H   0  0  0  0  0  0  0  0  0  0  0  0
   -0.4091    0.0060   -1.5995 H   0  0  0  0  0  0  0  0  0  0  0  0
   -2.6045   -1.6340    0.9387 H   0  0  0  0  0  0  0  0  0  0  0  0
   -2.7550   -4.1287   -0.7460 H   0  0  0  0  0  0  0  0  0  0  0  0
   -5.2743   -2.6664   -2.2574 H   0  0  0  0  0  0  0  0  0  0  0  0
   -4.0590   -3.8451   -2.7747 H   0  0  0  0  0  0  0  0  0  0  0  0
   -4.1211   -2.2613   -3.5408 H   0  0  0  0  0  0  0  0  0  0  0  0
   -3.7369   -0.2791   -2.3216 H   0  0  0  0  0  0  0  0  0  0  0  0
   -4.6518   -0.6115   -0.8385 H   0  0  0  0  0  0  0  0  0  0  0  0
   -2.9335   -0.1473   -0.8050 H   0  0  0  0  0  0  0  0  0  0  0  0
   -5.2062   -3.1882    0.7324 H   0  0  0  0  0  0  0  0  0  0  0  0
   -5.1075   -4.4179   -0.5344 H   0  0  0  0  0  0  0  0  0  0  0  0
   -4.4779   -5.9681    1.1874 H   0  0  0  0  0  0  0  0  0  0  0  0
   -1.7016   -3.1699    2.8239 H   0  0  0  0  0  0  0  0  0  0  0  0
   -3.3560   -2.6772    2.7133 H   0  0  0  0  0  0  0  0  0  0  0  0
   -3.1463   -5.7553    4.0116 H   0  0  0  0  0  0  0  0  0  0  0  0
   -1.5272   -5.2884    3.4874 H   0  0  0  0  0  0  0  0  0  0  0  0
   -2.3352   -6.6189    2.6743 H   0  0  0  0  0  0  0  0  0  0  0  0
    1.5475   -1.5709    1.9265 H   0  0  0  0  0  0  0  0  0  0  0  0
    0.4319   -4.6352    1.0099 H   0  0  0  0  0  0  0  0  0  0  0  0
    0.6849    0.4543    2.7476 H   0  0  0  0  0  0  0  0  0  0  0  0
    1.6670    1.8649    2.5102 H   0  0  0  0  0  0  0  0  0  0  0  0
   -1.2998    1.6424    1.7580 H   0  0  0  0  0  0  0  0  0  0  0  0
   -0.3137    3.0853    1.5462 H   0  0  0  0  0  0  0  0  0  0  0  0
   -0.9340    1.6724    4.1903 H   0  0  0  0  0  0  0  0  0  0  0  0
    0.2431    2.9756    4.0536 H   0  0  0  0  0  0  0  0  0  0  0  0
   -1.5420    4.5297    3.2576 H   0  0  0  0  0  0  0  0  0  0  0  0
   -2.7293    3.2258    3.3870 H   0  0  0  0  0  0  0  0  0  0  0  0
   -1.0340    4.2783    5.7257 H   0  0  0  0  0  0  0  0  0  0  0  0
   -2.2432    3.0026    5.8211 H   0  0  0  0  0  0  0  0  0  0  0  0
   -3.5901    4.7433    6.4700 H   0  0  0  0  0  0  0  0  0  0  0  0
   -3.7919    5.0003    4.7281 H   0  0  0  0  0  0  0  0  0  0  0  0
   -2.6162    5.9626    5.6440 H   0  0  0  0  0  0  0  0  0  0  0  0
  1  3  1  0  0  0  0
  1  2  1  0  0  0  0
  1 28  1  0  0  0  0
  1 29  1  0  0  0  0
  2  3  1  0  0  0  0
  2  4  1  0  0  0  0
  2 22  1  1  0  0  0
  3 30  1  0  0  0  0
  3 31  1  0  0  0  0
  4 20  2  0  0  0  0
  4  5  1  0  0  0  0
  5  6  2  0  0  0  0
  5 32  1  0  0  0  0
  6 13  1  0  0  0  0
  6  7  1  0  0  0  0
  7  8  1  0  0  0  0
  7 19  2  0  0  0  0
  8  9  1  0  0  0  0
  8 17  1  0  0  0  0
  8 33  1  1  0  0  0
  9 10  1  0  0  0  0
  9 14  1  0  0  0  0
  9 34  1  6  0  0  0
 10 13  1  0  0  0  0
 10 11  1  0  0  0  0
 10 12  1  0  0  0  0
 11 35  1  0  0  0  0
 11 36  1  0  0  0  0
 11 37  1  0  0  0  0
 12 38  1  0  0  0  0
 12 39  1  0  0  0  0
 12 40  1  0  0  0  0
 14 15  1  0  0  0  0
 14 41  1  0  0  0  0
 14 42  1  0  0  0  0
 15 16  2  0  0  0  0
 15 43  1  0  0  0  0
 16 17  1  0  0  0  0
 16 18  1  0  0  0  0
 17 44  1  0  0  0  0
 17 45  1  0  0  0  0
 18 46  1  0  0  0  0
 18 47  1  0  0  0  0
 18 48  1  0  0  0  0
 19 20  1  0  0  0  0
 19 21  1  0  0  0  0
 20 49  1  0  0  0  0
 21 50  1  0  0  0  0
 22 23  1  0  0  0  0
 22 51  1  0  0  0  0
 22 52  1  0  0  0  0
 23 24  1  0  0  0  0
 23 53  1  0  0  0  0
 23 54  1  0  0  0  0
 24 25  1  0  0  0  0
 24 55  1  0  0  0  0
 24 56  1  0  0  0  0
 25 26  1  0  0  0  0
 25 57  1  0  0  0  0
 25 58  1  0  0  0  0
 26 27  1  0  0  0  0
 26 59  1  0  0  0  0
 26 60  1  0  0  0  0
 27 61  1  0  0  0  0
 27 62  1  0  0  0  0
 27 63  1  0  0  0  0
M  END
$$$$
CHEMBL56288
 OpenBabel12022417453D

 57 58  0  0  0  0  0  0  0  0999 V2000
    6.9776    2.3486    3.8651 C   0  0  0  0  0  0  0  0  0  0  0  0
    6.4804    3.0616    2.6162 C   0  0  0  0  0  0  0  0  0  0  0  0
    6.9892    2.3684    1.3554 C   0  0  0  0  0  0  0  0  0  0  0  0
    6.5054    3.0570    0.0771 C   0  0  0  0  0  0  0  0  0  0  0  0
    7.0380    2.3072   -1.1463 C   0  0  0  0  0  0  0  0  0  0  0  0
    6.5829    2.9399   -2.4687 C   0  0  0  0  0  0  0  0  0  0  0  0
    7.1149    2.2113   -3.7454 C   0  0  0  0  0  0  0  0  0  0  0  0
    6.4953    0.7933   -3.8178 C   0  0  0  0  0  0  0  0  0  0  0  0
    6.6016    2.9696   -4.9937 C   0  0  0  0  0  0  0  0  0  0  0  0
    8.6536    2.2036   -3.7589 C   0  0  0  0  0  0  0  0  0  0  0  0
    9.3790    3.4042   -3.7823 C   0  0  0  0  0  0  0  0  0  0  0  0
   10.7844    3.4111   -3.7714 C   0  0  0  0  0  0  0  0  0  0  0  0
   11.5472    2.2251   -3.7017 C   0  0  0  0  0  0  0  0  0  0  0  0
   13.0404    2.2312   -3.6804 C   0  0  0  0  0  0  0  0  0  0  0  0
   13.7964    1.2528   -4.3561 C   0  0  0  0  0  0  0  0  0  0  0  0
   15.1957    1.2020   -4.2731 C   0  0  0  0  0  0  0  0  0  0  0  0
   15.9598    0.0698   -4.8948 C   0  0  0  0  0  0  0  0  0  0  0  0
   15.8769    2.2203   -3.6014 C   0  0  0  0  0  0  0  0  0  0  0  0
   15.1679    3.2462   -2.9755 C   0  0  0  0  0  0  0  0  0  0  0  0
   15.8701    4.4042   -2.3314 C   0  0  0  0  0  0  0  0  0  0  0  0
   13.7660    3.2128   -2.9828 C   0  0  0  0  0  0  0  0  0  0  0  0
   10.7962    1.0337   -3.6488 C   0  0  0  0  0  0  0  0  0  0  0  0
    9.3966    1.0196   -3.7036 C   0  0  0  0  0  0  0  0  0  0  0  0
   11.3548   -0.2124   -3.4935 O   0  0  0  0  0  0  0  0  0  0  0  0
   11.4097    4.6332   -3.8394 O   0  0  0  0  0  0  0  0  0  0  0  0
    6.6084    2.8512    4.7641 H   0  0  0  0  0  0  0  0  0  0  0  0
    8.0719    2.3425    3.9033 H   0  0  0  0  0  0  0  0  0  0  0  0
    6.6297    1.3106    3.8881 H   0  0  0  0  0  0  0  0  0  0  0  0
    6.8206    4.1031    2.6337 H   0  0  0  0  0  0  0  0  0  0  0  0
    5.3846    3.0749    2.6199 H   0  0  0  0  0  0  0  0  0  0  0  0
    6.6539    1.3235    1.3550 H   0  0  0  0  0  0  0  0  0  0  0  0
    8.0865    2.3520    1.3667 H   0  0  0  0  0  0  0  0  0  0  0  0
    6.8536    4.0973    0.0568 H   0  0  0  0  0  0  0  0  0  0  0  0
    5.4093    3.0773    0.0549 H   0  0  0  0  0  0  0  0  0  0  0  0
    6.6968    1.2653   -1.0895 H   0  0  0  0  0  0  0  0  0  0  0  0
    8.1326    2.2919   -1.0945 H   0  0  0  0  0  0  0  0  0  0  0  0
    6.8936    3.9925   -2.4788 H   0  0  0  0  0  0  0  0  0  0  0  0
    5.4844    2.9515   -2.4940 H   0  0  0  0  0  0  0  0  0  0  0  0
    5.4007    0.8411   -3.8281 H   0  0  0  0  0  0  0  0  0  0  0  0
    6.7821    0.1659   -2.9676 H   0  0  0  0  0  0  0  0  0  0  0  0
    6.8086    0.2691   -4.7288 H   0  0  0  0  0  0  0  0  0  0  0  0
    5.5066    2.9458   -5.0482 H   0  0  0  0  0  0  0  0  0  0  0  0
    6.9915    2.5202   -5.9153 H   0  0  0  0  0  0  0  0  0  0  0  0
    6.8974    4.0245   -4.9918 H   0  0  0  0  0  0  0  0  0  0  0  0
    8.8437    4.3498   -3.8069 H   0  0  0  0  0  0  0  0  0  0  0  0
   13.2879    0.5000   -4.9570 H   0  0  0  0  0  0  0  0  0  0  0  0
   15.2870   -0.6864   -5.3133 H   0  0  0  0  0  0  0  0  0  0  0  0
   16.5746   -0.4252   -4.1361 H   0  0  0  0  0  0  0  0  0  0  0  0
   16.6004    0.4406   -5.6984 H   0  0  0  0  0  0  0  0  0  0  0  0
   16.9637    2.2148   -3.5738 H   0  0  0  0  0  0  0  0  0  0  0  0
   16.9573    4.2841   -2.3603 H   0  0  0  0  0  0  0  0  0  0  0  0
   15.5649    4.5036   -1.2853 H   0  0  0  0  0  0  0  0  0  0  0  0
   15.6220    5.3287   -2.8657 H   0  0  0  0  0  0  0  0  0  0  0  0
   13.2346    3.9913   -2.4418 H   0  0  0  0  0  0  0  0  0  0  0  0
    8.9136    0.0469   -3.6688 H   0  0  0  0  0  0  0  0  0  0  0  0
   12.2225   -0.0964   -3.0707 H   0  0  0  0  0  0  0  0  0  0  0  0
   10.7443    5.3392   -3.8388 H   0  0  0  0  0  0  0  0  0  0  0  0
  1  2  1  0  0  0  0
  1 26  1  0  0  0  0
  1 27  1  0  0  0  0
  1 28  1  0  0  0  0
  2  3  1  0  0  0  0
  2 29  1  0  0  0  0
  2 30  1  0  0  0  0
  3  4  1  0  0  0  0
  3 31  1  0  0  0  0
  3 32  1  0  0  0  0
  4  5  1  0  0  0  0
  4 33  1  0  0  0  0
  4 34  1  0  0  0  0
  5  6  1  0  0  0  0
  5 35  1  0  0  0  0
  5 36  1  0  0  0  0
  6  7  1  0  0  0  0
  6 37  1  0  0  0  0
  6 38  1  0  0  0  0
  7  8  1  0  0  0  0
  7  9  1  0  0  0  0
  7 10  1  0  0  0  0
  8 39  1  0  0  0  0
  8 40  1  0  0  0  0
  8 41  1  0  0  0  0
  9 42  1  0  0  0  0
  9 43  1  0  0  0  0
  9 44  1  0  0  0  0
 10 23  2  0  0  0  0
 10 11  1  0  0  0  0
 11 12  2  0  0  0  0
 11 45  1  0  0  0  0
 12 13  1  0  0  0  0
 12 25  1  0  0  0  0
 13 14  1  0  0  0  0
 13 22  2  0  0  0  0
 14 21  2  0  0  0  0
 14 15  1  0  0  0  0
 15 16  2  0  0  0  0
 15 46  1  0  0  0  0
 16 17  1  0  0  0  0
 16 18  1  0  0  0  0
 17 47  1  0  0  0  0
 17 48  1  0  0  0  0
 17 49  1  0  0  0  0
 18 19  2  0  0  0  0
 18 50  1  0  0  0  0
 19 20  1  0  0  0  0
 19 21  1  0  0  0  0
 20 51  1  0  0  0  0
 20 52  1  0  0  0  0
 20 53  1  0  0  0  0
 21 54  1  0  0  0  0
 22 23  1  0  0  0  0
 22 24  1  0  0  0  0
 23 55  1  0  0  0  0
 24 56  1  0  0  0  0
 25 57  1  0  0  0  0
M  END
$$$$
CHEMBL600602
 OpenBabel12022417453D

 65 67  0  0  1  0  0  0  0  0999 V2000
    8.5968    0.0316    2.3231 C   0  0  0  0  0  0  0  0  0  0  0  0
    7.2979    0.5845    1.7437 C   0  0  0  0  0  0  0  0  0  0  0  0
    6.4892   -0.5127    1.0636 C   0  0  0  0  0  0  0  0  0  0  0  0
    5.2082    0.0309    0.4318 C   0  0  0  0  0  0  0  0  0  0  0  0
    4.4328   -1.1132   -0.2266 C   0  0  0  0  0  0  0  0  0  0  0  0
    3.0999   -0.6358   -0.8172 C   0  0  0  0  0  0  0  0  0  0  0  0
    2.1785   -1.7701   -1.3982 C   0  0  0  0  0  0  0  0  0  0  0  0
    1.8925   -2.8044   -0.2677 C   0  0  0  0  0  0  0  0  0  0  0  0
    2.9037   -2.4506   -2.5750 C   0  0  0  0  0  0  0  0  0  0  0  0
    0.7694   -1.2796   -1.8216 C   0  0  0  0  0  0  0  0  0  0  0  0
   -0.1151   -2.1277   -2.5295 C   0  0  0  0  0  0  0  0  0  0  0  0
   -1.5063   -2.0035   -2.3888 C   0  0  0  0  0  0  0  0  0  0  0  0
   -2.0616   -1.0469   -1.5490 C   0  0  0  0  0  0  0  0  0  0  0  0
   -1.1426   -0.1877   -0.8921 C   0  0  0  0  0  0  0  0  0  0  0  0
    0.2213   -0.1952   -1.1478 C   0  0  0  0  0  0  0  0  0  0  0  0
   -1.4270    0.5510    0.2510 O   0  0  0  0  0  0  0  0  0  0  0  0
   -2.6275    0.1156    0.9247 C   0  0  0  0  0  0  0  0  0  0  0  0
   -2.3633   -1.2893    1.5683 C   0  0  0  0  0  0  0  0  0  0  0  0
   -2.8683    1.0717    2.0871 C   0  0  0  0  0  0  0  0  0  0  0  0
   -3.6906    0.1968   -0.1948 C   0  0  2  0  0  0  0  0  0  0  0  0
   -5.1167    0.6751    0.1686 C   0  0  0  0  0  0  0  0  0  0  0  0
   -6.1876    0.2366   -0.8499 C   0  0  0  0  0  0  0  0  0  0  0  0
   -5.8697   -1.2001   -1.2008 C   0  0  0  0  0  0  0  0  0  0  0  0
   -4.7148   -1.2874   -1.9234 C   0  0  0  0  0  0  0  0  0  0  0  0
   -3.4981   -1.1042   -1.0333 C   0  0  1  0  0  0  0  0  0  0  0  0
   -6.2016   -2.1430   -0.0483 C   0  0  0  0  0  0  0  0  0  0  0  0
   -2.2933   -3.0005   -2.8950 O   0  0  0  0  0  0  0  0  0  0  0  0
    8.9862    0.6969    3.0968 H   0  0  0  0  0  0  0  0  0  0  0  0
    9.3547   -0.0627    1.5389 H   0  0  0  0  0  0  0  0  0  0  0  0
    8.4468   -0.9588    2.7685 H   0  0  0  0  0  0  0  0  0  0  0  0
    7.5353    1.3915    1.0350 H   0  0  0  0  0  0  0  0  0  0  0  0
    6.7100    1.0200    2.5589 H   0  0  0  0  0  0  0  0  0  0  0  0
    7.1021   -1.0056    0.3005 H   0  0  0  0  0  0  0  0  0  0  0  0
    6.2296   -1.2751    1.8094 H   0  0  0  0  0  0  0  0  0  0  0  0
    5.4562    0.7966   -0.3168 H   0  0  0  0  0  0  0  0  0  0  0  0
    4.5921    0.5109    1.2008 H   0  0  0  0  0  0  0  0  0  0  0  0
    5.0601   -1.5582   -1.0022 H   0  0  0  0  0  0  0  0  0  0  0  0
    4.2531   -1.8836    0.5302 H   0  0  0  0  0  0  0  0  0  0  0  0
    2.5898   -0.1222    0.0062 H   0  0  0  0  0  0  0  0  0  0  0  0
    3.2861    0.1210   -1.5900 H   0  0  0  0  0  0  0  0  0  0  0  0
    2.0879   -2.3871    0.7262 H   0  0  0  0  0  0  0  0  0  0  0  0
    2.5076   -3.7074   -0.3786 H   0  0  0  0  0  0  0  0  0  0  0  0
    0.8489   -3.1378   -0.2334 H   0  0  0  0  0  0  0  0  0  0  0  0
    2.3825   -3.3486   -2.9209 H   0  0  0  0  0  0  0  0  0  0  0  0
    3.0012   -1.7671   -3.4260 H   0  0  0  0  0  0  0  0  0  0  0  0
    3.9074   -2.7842   -2.2965 H   0  0  0  0  0  0  0  0  0  0  0  0
    0.2639   -2.9889   -3.0743 H   0  0  0  0  0  0  0  0  0  0  0  0
    0.8204    0.5108   -0.5868 H   0  0  0  0  0  0  0  0  0  0  0  0
   -2.0435   -1.2069    2.6094 H   0  0  0  0  0  0  0  0  0  0  0  0
   -3.2569   -1.9148    1.5858 H   0  0  0  0  0  0  0  0  0  0  0  0
   -1.5605   -1.8434    1.0751 H   0  0  0  0  0  0  0  0  0  0  0  0
   -1.9915    1.0915    2.7469 H   0  0  0  0  0  0  0  0  0  0  0  0
   -3.7289    0.7545    2.6904 H   0  0  0  0  0  0  0  0  0  0  0  0
   -3.0223    2.0958    1.7395 H   0  0  0  0  0  0  0  0  0  0  0  0
   -3.3832    1.0162   -0.8732 H   0  0  0  0  0  0  0  0  0  0  0  0
   -5.3931    0.3457    1.1749 H   0  0  0  0  0  0  0  0  0  0  0  0
   -5.1160    1.7732    0.2000 H   0  0  0  0  0  0  0  0  0  0  0  0
   -6.1578    0.8680   -1.7467 H   0  0  0  0  0  0  0  0  0  0  0  0
   -7.1941    0.3371   -0.4253 H   0  0  0  0  0  0  0  0  0  0  0  0
   -4.6161   -0.6618   -2.8077 H   0  0  0  0  0  0  0  0  0  0  0  0
   -3.4957   -2.0087   -0.4180 H   0  0  0  0  0  0  0  0  0  0  0  0
   -6.4364   -1.6059    0.8783 H   0  0  0  0  0  0  0  0  0  0  0  0
   -7.0990   -2.7287   -0.2955 H   0  0  0  0  0  0  0  0  0  0  0  0
   -5.3985   -2.8323    0.1891 H   0  0  0  0  0  0  0  0  0  0  0  0
   -2.0232   -3.8157   -2.4432 H   0  0  0  0  0  0  0  0  0  0  0  0
  1  2  1  0  0  0  0
  1 28  1  0  0  0  0
  1 29  1  0  0  0  0
  1 30  1  0  0  0  0
  2  3  1  0  0  0  0
  2 31  1  0  0  0  0
  2 32  1  0  0  0  0
  3  4  1  0  0  0  0
  3 33  1  0  0  0  0
  3 34  1  0  0  0  0
  4  5  1  0  0  0  0
  4 35  1  0  0  0  0
  4 36  1  0  0  0  0
  5  6  1  0  0  0  0
  5 37  1  0  0  0  0
  5 38  1  0  0  0  0
  6  7  1  0  0  0  0
  6 39  1  0  0  0  0
  6 40  1  0  0  0  0
  7  8  1  0  0  0  0
  7  9  1  0  0  0  0
  7 10  1  0  0  0  0
  8 41  1  0  0  0  0
  8 42  1  0  0  0  0
  8 43  1  0  0  0  0
  9 44  1  0  0  0  0
  9 45  1  0  0  0  0
  9 46  1  0  0  0  0
 10 15  2  0  0  0  0
 10 11  1  0  0  0  0
 11 12  2  0  0  0  0
 11 47  1  0  0  0  0
 12 13  1  0  0  0  0
 12 27  1  0  0  0  0
 13 25  1  0  0  0  0
 13 14  2  0  0  0  0
 14 15  1  0  0  0  0
 14 16  1  0  0  0  0
 15 48  1  0  0  0  0
 16 17  1  0  0  0  0
 17 18  1  0  0  0  0
 17 19  1  0  0  0  0
 17 20  1  0  0  0  0
 18 49  1  0  0  0  0
 18 50  1  0  0  0  0
 18 51  1  0  0  0  0
 19 52  1  0  0  0  0
 19 53  1  0  0  0  0
 19 54  1  0  0  0  0
 20 21  1  0  0  0  0
 20 25  1  0  0  0  0
 20 55  1  6  0  0  0
 21 22  1  0  0  0  0
 21 56  1  0  0  0  0
 21 57  1  0  0  0  0
 22 23  1  0  0  0  0
 22 58  1  0  0  0  0
 22 59  1  0  0  0  0
 23 24  2  3  0  0  0
 23 26  1  0  0  0  0
 24 60  1  0  0  0  0
 25 24  1  0  0  0  0
 25 61  1  1  0  0  0
 26 62  1  0  0  0  0
 26 63  1  0  0  0  0
 26 64  1  0  0  0  0
 27 65  1  0  0  0  0
M  END
$$$$
