CHEMBL3353428
 OpenBabel12022418073D

 56 58  0  0  1  0  0  0  0  0999 V2000
   12.9510    3.2257   -3.7695 C   0  0  0  0  0  0  0  0  0  0  0  0
   12.4004    4.4751   -3.5507 C   0  0  0  0  0  0  0  0  0  0  0  0
   11.2135    4.6681   -2.9343 N   0  0  0  0  0  0  0  0  0  0  0  0
   10.5284    3.5739   -2.5149 C   0  0  0  0  0  0  0  0  0  0  0  0
   10.9751    2.2749   -2.7567 C   0  0  0  0  0  0  0  0  0  0  0  0
   12.2149    2.1090   -3.3872 C   0  0  0  0  0  0  0  0  0  0  0  0
   10.1562    1.1314   -2.3604 C   0  0  0  0  0  0  0  0  0  0  0  0
    9.0574    1.2856   -1.5975 C   0  0  0  0  0  0  0  0  0  0  0  0
    8.6584    2.6794   -1.1859 C   0  0  0  0  0  0  0  0  0  0  0  0
    7.7211    2.8258   -0.4005 O   0  0  0  0  0  0  0  0  0  0  0  0
    9.3531    3.7582   -1.7469 N   0  0  0  0  0  0  0  0  0  0  0  0
    8.8533    5.1377   -1.5924 C   0  0  0  0  0  0  0  0  0  0  0  0
    9.0785    5.8004   -0.2253 C   0  0  0  0  0  0  0  0  0  0  0  0
   10.5226    6.1211    0.1726 C   0  0  0  0  0  0  0  0  0  0  0  0
   10.6078    6.9634    1.4621 C   0  0  0  0  0  0  0  0  0  0  0  0
    9.9586    6.3264    2.6891 C   0  0  0  0  0  0  0  0  0  0  0  0
   10.0997    7.1867    3.8164 O   0  0  0  0  0  0  0  0  0  0  0  0
    8.3058    0.0225   -1.2172 C   0  0  0  0  0  0  0  0  0  0  0  0
    8.5624   -1.0599   -1.7651 O   0  0  0  0  0  0  0  0  0  0  0  0
    7.3520    0.1249   -0.2294 N   0  0  0  0  0  0  0  0  0  0  0  0
    6.5207   -1.0026    0.2788 C   0  0  1  0  0  0  0  0  0  0  0  0
    6.1730   -0.7489    1.7572 C   0  0  0  0  0  0  0  0  0  0  0  0
    5.0021   -1.5571    2.3123 C   0  0  0  0  0  0  0  0  0  0  0  0
    3.7339   -1.4518    1.4730 C   0  0  2  0  0  0  0  0  0  0  0  0
    4.0477   -1.8637    0.0315 C   0  0  0  0  0  0  0  0  0  0  0  0
    5.2998   -1.2574   -0.6225 C   0  0  0  0  0  0  0  0  0  0  0  0
    3.0295   -0.1037    1.6611 C   0  0  0  0  0  0  0  0  0  0  0  0
   13.9296    3.1287   -4.2265 H   0  0  0  0  0  0  0  0  0  0  0  0
   12.9178    5.3816   -3.8528 H   0  0  0  0  0  0  0  0  0  0  0  0
   12.6242    1.1171   -3.5622 H   0  0  0  0  0  0  0  0  0  0  0  0
   10.4713    0.1474   -2.7077 H   0  0  0  0  0  0  0  0  0  0  0  0
    7.7667    5.0802   -1.7451 H   0  0  0  0  0  0  0  0  0  0  0  0
    9.2172    5.7873   -2.3946 H   0  0  0  0  0  0  0  0  0  0  0  0
    8.6220    5.1738    0.5477 H   0  0  0  0  0  0  0  0  0  0  0  0
    8.5216    6.7478   -0.2393 H   0  0  0  0  0  0  0  0  0  0  0  0
   11.0118    6.6928   -0.6288 H   0  0  0  0  0  0  0  0  0  0  0  0
   11.0983    5.1988    0.3021 H   0  0  0  0  0  0  0  0  0  0  0  0
   10.1518    7.9477    1.2945 H   0  0  0  0  0  0  0  0  0  0  0  0
   11.6614    7.1713    1.6891 H   0  0  0  0  0  0  0  0  0  0  0  0
   10.4160    5.3621    2.9296 H   0  0  0  0  0  0  0  0  0  0  0  0
    8.8861    6.1747    2.5417 H   0  0  0  0  0  0  0  0  0  0  0  0
   11.0454    7.3797    3.9298 H   0  0  0  0  0  0  0  0  0  0  0  0
    7.1224    1.0632    0.0781 H   0  0  0  0  0  0  0  0  0  0  0  0
    7.1482   -1.9010    0.2389 H   0  0  0  0  0  0  0  0  0  0  0  0
    5.9750    0.3176    1.9167 H   0  0  0  0  0  0  0  0  0  0  0  0
    7.0591   -0.9805    2.3597 H   0  0  0  0  0  0  0  0  0  0  0  0
    4.7948   -1.2330    3.3399 H   0  0  0  0  0  0  0  0  0  0  0  0
    5.2879   -2.6152    2.3773 H   0  0  0  0  0  0  0  0  0  0  0  0
    3.0179   -2.1929    1.8575 H   0  0  0  0  0  0  0  0  0  0  0  0
    3.1773   -1.6957   -0.6151 H   0  0  0  0  0  0  0  0  0  0  0  0
    4.1882   -2.9541    0.0478 H   0  0  0  0  0  0  0  0  0  0  0  0
    5.6156   -1.9617   -1.4117 H   0  0  0  0  0  0  0  0  0  0  0  0
    5.0164   -0.3464   -1.1577 H   0  0  0  0  0  0  0  0  0  0  0  0
    3.6652    0.7535    1.4259 H   0  0  0  0  0  0  0  0  0  0  0  0
    2.7178   -0.0017    2.7102 H   0  0  0  0  0  0  0  0  0  0  0  0
    2.1166   -0.0379    1.0594 H   0  0  0  0  0  0  0  0  0  0  0  0
  1  6  2  0  0  0  0
  1  2  1  0  0  0  0
  1 28  1  0  0  0  0
  2  3  2  0  0  0  0
  2 29  1  0  0  0  0
  3  4  1  0  0  0  0
  4 11  1  0  0  0  0
  4  5  2  0  0  0  0
  5  6  1  0  0  0  0
  5  7  1  0  0  0  0
  6 30  1  0  0  0  0
  7  8  2  0  0  0  0
  7 31  1  0  0  0  0
  8  9  1  0  0  0  0
  8 18  1  0  0  0  0
  9 10  2  0  0  0  0
  9 11  1  0  0  0  0
 11 12  1  0  0  0  0
 12 13  1  0  0  0  0
 12 32  1  0  0  0  0
 12 33  1  0  0  0  0
 13 14  1  0  0  0  0
 13 34  1  0  0  0  0
 13 35  1  0  0  0  0
 14 15  1  0  0  0  0
 14 36  1  0  0  0  0
 14 37  1  0  0  0  0
 15 16  1  0  0  0  0
 15 38  1  0  0  0  0
 15 39  1  0  0  0  0
 16 17  1  0  0  0  0
 16 40  1  0  0  0  0
 16 41  1  0  0  0  0
 17 42  1  0  0  0  0
 18 19  2  0  0  0  0
 18 20  1  0  0  0  0
 20 43  1  0  0  0  0
 21 22  1  0  0  0  0
 21 26  1  0  0  0  0
 21 20  1  0  0  0  0
 21 44  1  6  0  0  0
 22 23  1  0  0  0  0
 22 45  1  0  0  0  0
 22 46  1  0  0  0  0
 23 24  1  0  0  0  0
 23 47  1  0  0  0  0
 23 48  1  0  0  0  0
 24 25  1  0  0  0  0
 24 27  1  0  0  0  0
 24 49  1  1  0  0  0
 25 26  1  0  0  0  0
 25 50  1  0  0  0  0
 25 51  1  0  0  0  0
 26 52  1  0  0  0  0
 26 53  1  0  0  0  0
 27 54  1  0  0  0  0
 27 55  1  0  0  0  0
 27 56  1  0  0  0  0
M  END
$$$$
CHEMBL4079140
 OpenBabel12022418073D

 60 64  0  0  1  0  0  0  0  0999 V2000
    1.1221   -0.0844   -0.0436 C   0  0  0  0  0  0  0  0  0  0  0  0
    0.7664   -1.0906    1.0649 C   0  0  1  0  0  0  0  0  0  0  0  0
    1.3683   -0.5456    2.3718 C   0  0  0  0  0  0  0  0  0  0  0  0
    0.7193    0.8030    2.7257 C   0  0  1  0  0  0  0  0  0  0  0  0
    0.9817    1.8298    1.6135 C   0  0  0  0  0  0  0  0  0  0  0  0
    0.4953    1.2867    0.2673 C   0  0  2  0  0  0  0  0  0  0  0  0
   -1.0144    1.1086    0.3511 C   0  0  0  0  0  0  0  0  0  0  0  0
   -1.4059    0.1541    1.5038 C   0  0  1  0  0  0  0  0  0  0  0  0
   -0.7752   -1.2340    1.1933 C   0  0  0  0  0  0  0  0  0  0  0  0
   -0.7952    0.6002    2.8560 C   0  0  0  0  0  0  0  0  0  0  0  0
   -2.8695    0.1241    1.6512 N   0  0  0  0  0  0  0  0  0  0  0  0
   -3.7341   -0.0202    0.5953 C   0  0  0  0  0  0  0  0  0  0  0  0
   -3.3669   -0.2347   -0.5429 O   0  0  0  0  0  0  0  0  0  0  0  0
   -5.1381    0.0681    0.9425 C   0  0  0  0  0  0  0  0  0  0  0  0
   -5.7641    0.8749    1.8722 C   0  0  0  0  0  0  0  0  0  0  0  0
   -7.1592    0.6060    1.8262 C   0  0  0  0  0  0  0  0  0  0  0  0
   -7.3667   -0.3779    0.8571 C   0  0  0  0  0  0  0  0  0  0  0  0
   -8.6498   -0.8722    0.5720 C   0  0  0  0  0  0  0  0  0  0  0  0
   -9.7300   -0.3552    1.2962 C   0  0  0  0  0  0  0  0  0  0  0  0
   -9.5428    0.6276    2.2628 C   0  0  0  0  0  0  0  0  0  0  0  0
   -8.2636    1.1209    2.5310 C   0  0  0  0  0  0  0  0  0  0  0  0
   -6.1197   -0.6909    0.3340 N   0  0  0  0  0  0  0  0  0  0  0  0
   -5.8574   -1.7133   -0.6734 C   0  0  0  0  0  0  0  0  0  0  0  0
   -4.9390   -2.8462   -0.1964 C   0  0  0  0  0  0  0  0  0  0  0  0
   -5.4756   -3.5987    1.0189 C   0  0  0  0  0  0  0  0  0  0  0  0
   -4.4498   -4.6339    1.4719 C   0  0  0  0  0  0  0  0  0  0  0  0
   -4.9435   -5.4443    2.6581 C   0  0  0  0  0  0  0  0  0  0  0  0
   -3.9540   -6.3963    3.0246 O   0  0  0  0  0  0  0  0  0  0  0  0
    2.2112    0.0187   -0.1248 H   0  0  0  0  0  0  0  0  0  0  0  0
    0.7665   -0.4575   -1.0121 H   0  0  0  0  0  0  0  0  0  0  0  0
    1.2069   -2.0672    0.8340 H   0  0  0  0  0  0  0  0  0  0  0  0
    2.4525   -0.4147    2.2573 H   0  0  0  0  0  0  0  0  0  0  0  0
    1.2201   -1.2654    3.1845 H   0  0  0  0  0  0  0  0  0  0  0  0
    1.1280    1.1723    3.6724 H   0  0  0  0  0  0  0  0  0  0  0  0
    2.0487    2.0717    1.5576 H   0  0  0  0  0  0  0  0  0  0  0  0
    0.4530    2.7644    1.8437 H   0  0  0  0  0  0  0  0  0  0  0  0
    0.7349    1.9920   -0.5357 H   0  0  0  0  0  0  0  0  0  0  0  0
   -1.3331    0.7044   -0.6177 H   0  0  0  0  0  0  0  0  0  0  0  0
   -1.5218    2.0740    0.4605 H   0  0  0  0  0  0  0  0  0  0  0  0
   -1.0151   -1.9531    1.9884 H   0  0  0  0  0  0  0  0  0  0  0  0
   -1.1880   -1.6543    0.2680 H   0  0  0  0  0  0  0  0  0  0  0  0
   -1.2716    1.5207    3.2133 H   0  0  0  0  0  0  0  0  0  0  0  0
   -0.9929   -0.1603    3.6267 H   0  0  0  0  0  0  0  0  0  0  0  0
   -3.2634    0.2897    2.5652 H   0  0  0  0  0  0  0  0  0  0  0  0
   -5.2877    1.6158    2.4970 H   0  0  0  0  0  0  0  0  0  0  0  0
   -8.8194   -1.6309   -0.1842 H   0  0  0  0  0  0  0  0  0  0  0  0
  -10.7330   -0.7259    1.0983 H   0  0  0  0  0  0  0  0  0  0  0  0
  -10.3935    1.0169    2.8144 H   0  0  0  0  0  0  0  0  0  0  0  0
   -8.1222    1.8916    3.2809 H   0  0  0  0  0  0  0  0  0  0  0  0
   -5.4177   -1.2023   -1.5394 H   0  0  0  0  0  0  0  0  0  0  0  0
   -6.8071   -2.1325   -1.0137 H   0  0  0  0  0  0  0  0  0  0  0  0
   -3.9420   -2.4738    0.0531 H   0  0  0  0  0  0  0  0  0  0  0  0
   -4.7865   -3.5460   -1.0268 H   0  0  0  0  0  0  0  0  0  0  0  0
   -6.4237   -4.0824    0.7633 H   0  0  0  0  0  0  0  0  0  0  0  0
   -5.6718   -2.9071    1.8472 H   0  0  0  0  0  0  0  0  0  0  0  0
   -3.5070   -4.1393    1.7415 H   0  0  0  0  0  0  0  0  0  0  0  0
   -4.2050   -5.3076    0.6413 H   0  0  0  0  0  0  0  0  0  0  0  0
   -5.8680   -5.9774    2.4164 H   0  0  0  0  0  0  0  0  0  0  0  0
   -5.1307   -4.7986    3.5215 H   0  0  0  0  0  0  0  0  0  0  0  0
   -3.7649   -6.9380    2.2392 H   0  0  0  0  0  0  0  0  0  0  0  0
  1  6  1  0  0  0  0
  1 29  1  0  0  0  0
  1 30  1  0  0  0  0
  2  1  1  0  0  0  0
  2  3  1  0  0  0  0
  2  9  1  0  0  0  0
  2 31  1  6  0  0  0
  3 32  1  0  0  0  0
  3 33  1  0  0  0  0
  4  3  1  0  0  0  0
  4  5  1  0  0  0  0
  4 10  1  0  0  0  0
  4 34  1  1  0  0  0
  5 35  1  0  0  0  0
  5 36  1  0  0  0  0
  6  5  1  0  0  0  0
  6  7  1  0  0  0  0
  6 37  1  6  0  0  0
  7  8  1  0  0  0  0
  7 38  1  0  0  0  0
  7 39  1  0  0  0  0
  8  9  1  0  0  0  0
  8 10  1  0  0  0  0
  8 11  1  1  0  0  0
  9 40  1  0  0  0  0
  9 41  1  0  0  0  0
 10 42  1  0  0  0  0
 10 43  1  0  0  0  0
 11 12  1  0  0  0  0
 11 44  1  0  0  0  0
 12 13  2  0  0  0  0
 12 14  1  0  0  0  0
 14 22  1  0  0  0  0
 14 15  2  0  0  0  0
 15 16  1  0  0  0  0
 15 45  1  0  0  0  0
 16 21  2  0  0  0  0
 16 17  1  0  0  0  0
 17 18  2  0  0  0  0
 17 22  1  0  0  0  0
 18 19  1  0  0  0  0
 18 46  1  0  0  0  0
 19 20  2  0  0  0  0
 19 47  1  0  0  0  0
 20 21  1  0  0  0  0
 20 48  1  0  0  0  0
 21 49  1  0  0  0  0
 22 23  1  0  0  0  0
 23 24  1  0  0  0  0
 23 50  1  0  0  0  0
 23 51  1  0  0  0  0
 24 25  1  0  0  0  0
 24 52  1  0  0  0  0
 24 53  1  0  0  0  0
 25 26  1  0  0  0  0
 25 54  1  0  0  0  0
 25 55  1  0  0  0  0
 26 27  1  0  0  0  0
 26 56  1  0  0  0  0
 26 57  1  0  0  0  0
 27 28  1  0  0  0  0
 27 58  1  0  0  0  0
 27 59  1  0  0  0  0
 28 60  1  0  0  0  0
M  END
$$$$
CHEMBL2152808
 OpenBabel12022418073D

 61 64  0  0  1  0  0  0  0  0999 V2000
   -2.2192    1.6009    1.8150 C   0  0  0  0  0  0  0  0  0  0  0  0
   -1.2105    0.5014    1.4281 C   0  0  0  0  0  0  0  0  0  0  0  0
   -2.0075   -0.5991    0.7036 C   0  0  0  0  0  0  0  0  0  0  0  0
   -0.4648   -0.0199    2.7087 C   0  0  1  0  0  0  0  0  0  0  0  0
    0.2392   -1.3608    2.4507 C   0  0  0  0  0  0  0  0  0  0  0  0
    1.3154   -0.9763    1.4325 C   0  0  0  0  0  0  0  0  0  0  0  0
    1.2294    0.5743    1.3741 C   0  0  2  0  0  0  0  0  0  0  0  0
    2.5455    1.1540    0.8890 C   0  0  0  0  0  0  0  0  0  0  0  0
    0.7651    0.9036    2.7991 C   0  0  0  0  0  0  0  0  0  0  0  0
   -0.0158    0.9937    0.5300 C   0  0  2  0  0  0  0  0  0  0  0  0
   -0.0321    2.4277    0.2469 N   0  0  0  0  0  0  0  0  0  0  0  0
   -0.6353    2.9798   -0.8545 C   0  0  0  0  0  0  0  0  0  0  0  0
   -1.1481    2.2994   -1.7460 O   0  0  0  0  0  0  0  0  0  0  0  0
   -0.6545    4.4724   -0.9159 C   0  0  0  0  0  0  0  0  0  0  0  0
   -1.1336    5.0898   -2.0112 C   0  0  0  0  0  0  0  0  0  0  0  0
   -1.2718    6.4630   -2.2108 N   0  0  0  0  0  0  0  0  0  0  0  0
   -1.8624    7.0027   -3.4584 C   0  0  0  0  0  0  0  0  0  0  0  0
   -0.7779    7.3450   -4.4869 C   0  0  0  0  0  0  0  0  0  0  0  0
   -1.3614    7.9323   -5.7742 C   0  0  0  0  0  0  0  0  0  0  0  0
   -0.2596    8.2591   -6.7772 C   0  0  0  0  0  0  0  0  0  0  0  0
   -0.8247    8.8175   -7.9548 O   0  0  0  0  0  0  0  0  0  0  0  0
   -0.8930    7.3410   -1.1684 C   0  0  0  0  0  0  0  0  0  0  0  0
   -1.0160    8.7363   -1.2371 C   0  0  0  0  0  0  0  0  0  0  0  0
   -0.6152    9.5480   -0.1734 C   0  0  0  0  0  0  0  0  0  0  0  0
   -0.0910    9.0119    0.9921 C   0  0  0  0  0  0  0  0  0  0  0  0
    0.0330    7.6343    1.1009 C   0  0  0  0  0  0  0  0  0  0  0  0
   -0.3568    6.8105    0.0309 C   0  0  0  0  0  0  0  0  0  0  0  0
   -0.1932    5.3464    0.1854 C   0  0  0  0  0  0  0  0  0  0  0  0
    0.3116    4.8818    1.2065 O   0  0  0  0  0  0  0  0  0  0  0  0
   -0.7396   10.8772   -0.2849 F   0  0  0  0  0  0  0  0  0  0  0  0
   -2.7452    1.9817    0.9321 H   0  0  0  0  0  0  0  0  0  0  0  0
   -1.7464    2.4485    2.3196 H   0  0  0  0  0  0  0  0  0  0  0  0
   -2.9821    1.2018    2.4943 H   0  0  0  0  0  0  0  0  0  0  0  0
   -2.5629   -0.1842   -0.1450 H   0  0  0  0  0  0  0  0  0  0  0  0
   -2.7264   -1.0732    1.3810 H   0  0  0  0  0  0  0  0  0  0  0  0
   -1.3631   -1.3833    0.2939 H   0  0  0  0  0  0  0  0  0  0  0  0
   -1.0866   -0.0413    3.6080 H   0  0  0  0  0  0  0  0  0  0  0  0
   -0.4142   -2.1632    2.1014 H   0  0  0  0  0  0  0  0  0  0  0  0
    0.7148   -1.7201    3.3726 H   0  0  0  0  0  0  0  0  0  0  0  0
    1.1373   -1.4310    0.4527 H   0  0  0  0  0  0  0  0  0  0  0  0
    2.2952   -1.3171    1.7878 H   0  0  0  0  0  0  0  0  0  0  0  0
    3.3780    0.8396    1.5278 H   0  0  0  0  0  0  0  0  0  0  0  0
    2.5445    2.2470    0.8608 H   0  0  0  0  0  0  0  0  0  0  0  0
    2.7571    0.7924   -0.1251 H   0  0  0  0  0  0  0  0  0  0  0  0
    1.4770    0.5870    3.5713 H   0  0  0  0  0  0  0  0  0  0  0  0
    0.5062    1.9525    2.9692 H   0  0  0  0  0  0  0  0  0  0  0  0
   -0.0045    0.4719   -0.4336 H   0  0  0  0  0  0  0  0  0  0  0  0
    0.3146    3.0721    0.9639 H   0  0  0  0  0  0  0  0  0  0  0  0
   -1.4769    4.4980   -2.8588 H   0  0  0  0  0  0  0  0  0  0  0  0
   -2.5012    7.8710   -3.2607 H   0  0  0  0  0  0  0  0  0  0  0  0
   -2.5429    6.2576   -3.8927 H   0  0  0  0  0  0  0  0  0  0  0  0
   -0.2078    6.4394   -4.7298 H   0  0  0  0  0  0  0  0  0  0  0  0
   -0.0654    8.0591   -4.0582 H   0  0  0  0  0  0  0  0  0  0  0  0
   -1.9321    8.8441   -5.5569 H   0  0  0  0  0  0  0  0  0  0  0  0
   -2.0746    7.2341   -6.2298 H   0  0  0  0  0  0  0  0  0  0  0  0
    0.3098    7.3648   -7.0518 H   0  0  0  0  0  0  0  0  0  0  0  0
    0.4370    8.9929   -6.3599 H   0  0  0  0  0  0  0  0  0  0  0  0
   -1.3657    8.1301   -8.3797 H   0  0  0  0  0  0  0  0  0  0  0  0
   -1.4181    9.2443   -2.1057 H   0  0  0  0  0  0  0  0  0  0  0  0
    0.2168    9.6663    1.8026 H   0  0  0  0  0  0  0  0  0  0  0  0
    0.4323    7.1988    2.0147 H   0  0  0  0  0  0  0  0  0  0  0  0
  1  2  1  0  0  0  0
  1 31  1  0  0  0  0
  1 32  1  0  0  0  0
  1 33  1  0  0  0  0
  2 10  1  0  0  0  0
  2  3  1  0  0  0  0
  2  4  1  0  0  0  0
  3 34  1  0  0  0  0
  3 35  1  0  0  0  0
  3 36  1  0  0  0  0
  4  5  1  0  0  0  0
  4  9  1  0  0  0  0
  4 37  1  1  0  0  0
  5  6  1  0  0  0  0
  5 38  1  0  0  0  0
  5 39  1  0  0  0  0
  6  7  1  0  0  0  0
  6 40  1  0  0  0  0
  6 41  1  0  0  0  0
  7  8  1  6  0  0  0
  7  9  1  0  0  0  0
  7 10  1  0  0  0  0
  8 42  1  0  0  0  0
  8 43  1  0  0  0  0
  8 44  1  0  0  0  0
  9 45  1  0  0  0  0
  9 46  1  0  0  0  0
 10 11  1  0  0  0  0
 10 47  1  6  0  0  0
 11 12  1  0  0  0  0
 11 48  1  0  0  0  0
 12 13  2  0  0  0  0
 12 14  1  0  0  0  0
 14 28  1  0  0  0  0
 14 15  2  0  0  0  0
 15 16  1  0  0  0  0
 15 49  1  0  0  0  0
 16 17  1  0  0  0  0
 16 22  1  0  0  0  0
 17 18  1  0  0  0  0
 17 50  1  0  0  0  0
 17 51  1  0  0  0  0
 18 19  1  0  0  0  0
 18 52  1  0  0  0  0
 18 53  1  0  0  0  0
 19 20  1  0  0  0  0
 19 54  1  0  0  0  0
 19 55  1  0  0  0  0
 20 21  1  0  0  0  0
 20 56  1  0  0  0  0
 20 57  1  0  0  0  0
 21 58  1  0  0  0  0
 22 27  2  0  0  0  0
 22 23  1  0  0  0  0
 23 24  2  0  0  0  0
 23 59  1  0  0  0  0
 24 25  1  0  0  0  0
 24 30  1  0  0  0  0
 25 26  2  0  0  0  0
 25 60  1  0  0  0  0
 26 27  1  0  0  0  0
 26 61  1  0  0  0  0
 27 28  1  0  0  0  0
 28 29  2  0  0  0  0
M  END
$$$$
CHEMBL5266788	5ZTY	best_smi
 OpenBabel12022418073D

 66 70  0  0  1  0  0  0  0  0999 V2000
    1.0787    0.4848   -0.0213 C   0  0  0  0  0  0  0  0  0  0  0  0
    2.5503    0.2263   -0.0083 C   0  0  0  0  0  0  0  0  0  0  0  0
    3.5824    1.2281   -0.0169 C   0  0  0  0  0  0  0  0  0  0  0  0
    3.4466    2.7131    0.0134 C   0  0  0  0  0  0  0  0  0  0  0  0
    2.3594    3.2641    0.0593 O   0  0  0  0  0  0  0  0  0  0  0  0
    4.6491    3.4311    0.0312 N   0  0  0  0  0  0  0  0  0  0  0  0
    4.7915    4.9056    0.1647 C   0  0  3  0  0  0  0  0  0  0  0  0
    6.2972    5.3045    0.2373 C   0  0  0  0  0  0  0  0  0  0  0  0
    6.4708    6.8344    0.3848 C   0  0  3  0  0  0  0  0  0  0  0  0
    5.8242    7.5427   -0.8160 C   0  0  0  0  0  0  0  0  0  0  0  0
    4.3300    7.1889   -0.8842 C   0  0  3  0  0  0  0  0  0  0  0  0
    3.6403    7.6420    0.4130 C   0  0  0  0  0  0  0  0  0  0  0  0
    4.2875    6.9459    1.6213 C   0  0  3  0  0  0  0  0  0  0  0  0
    5.7787    7.3107    1.6711 C   0  0  0  0  0  0  0  0  0  0  0  0
    4.1328    5.4194    1.4771 C   0  0  0  0  0  0  0  0  0  0  0  0
    4.1726    5.6614   -1.0416 C   0  0  0  0  0  0  0  0  0  0  0  0
    4.7874    0.6529   -0.0437 N   0  0  0  0  0  0  0  0  0  0  0  0
    4.5586   -0.6835   -0.0516 N   0  0  0  0  0  0  0  0  0  0  0  0
    5.7341   -1.5721   -0.1167 C   0  0  0  0  0  0  0  0  0  0  0  0
    7.0488   -0.8016   -0.2239 C   0  0  0  0  0  0  0  0  0  0  0  0
    8.3688   -1.5681   -0.3439 C   0  0  0  0  0  0  0  0  0  0  0  0
    9.4806   -0.5014   -0.4321 C   0  0  0  0  0  0  0  0  0  0  0  0
   10.8971   -1.0343   -0.5504 C   0  0  0  0  0  0  0  0  0  0  0  0
   11.2341   -1.8214    0.5797 O   0  0  0  0  0  0  0  0  0  0  0  0
    3.2071   -1.0147    0.0157 C   0  0  0  0  0  0  0  0  0  0  0  0
    2.6535   -2.3903    0.1408 C   0  0  0  0  0  0  0  0  0  0  0  0
    1.5061   -2.6465    0.9187 C   0  0  0  0  0  0  0  0  0  0  0  0
    1.0221   -3.9466    1.1113 C   0  0  0  0  0  0  0  0  0  0  0  0
    1.6916   -5.0280    0.5512 C   0  0  0  0  0  0  0  0  0  0  0  0
    2.7997   -4.7974   -0.2523 C   0  0  0  0  0  0  0  0  0  0  0  0
    3.2469   -3.4938   -0.4809 C   0  0  0  0  0  0  0  0  0  0  0  0
    0.4867   -0.4325   -0.0743 H   0  0  0  0  0  0  0  0  0  0  0  0
    0.7940    1.0642   -0.9045 H   0  0  0  0  0  0  0  0  0  0  0  0
    0.7658    1.0238    0.8792 H   0  0  0  0  0  0  0  0  0  0  0  0
    5.4779    2.8498   -0.0457 H   0  0  0  0  0  0  0  0  0  0  0  0
    6.8245    4.9637   -0.6629 H   0  0  0  0  0  0  0  0  0  0  0  0
    6.7803    4.8027    1.0863 H   0  0  0  0  0  0  0  0  0  0  0  0
    7.5361    7.0883    0.4292 H   0  0  0  0  0  0  0  0  0  0  0  0
    6.3261    7.2451   -1.7444 H   0  0  0  0  0  0  0  0  0  0  0  0
    5.9494    8.6301   -0.7248 H   0  0  0  0  0  0  0  0  0  0  0  0
    3.8724    7.7001   -1.7389 H   0  0  0  0  0  0  0  0  0  0  0  0
    2.5698    7.4077    0.3728 H   0  0  0  0  0  0  0  0  0  0  0  0
    3.7212    8.7317    0.5223 H   0  0  0  0  0  0  0  0  0  0  0  0
    3.7975    7.2783    2.5434 H   0  0  0  0  0  0  0  0  0  0  0  0
    5.8921    8.3985    1.7800 H   0  0  0  0  0  0  0  0  0  0  0  0
    6.2515    6.8555    2.5487 H   0  0  0  0  0  0  0  0  0  0  0  0
    4.5843    4.9183    2.3406 H   0  0  0  0  0  0  0  0  0  0  0  0
    3.0658    5.1726    1.4977 H   0  0  0  0  0  0  0  0  0  0  0  0
    3.1086    5.4220   -1.1466 H   0  0  0  0  0  0  0  0  0  0  0  0
    4.6566    5.3404   -1.9730 H   0  0  0  0  0  0  0  0  0  0  0  0
    5.6270   -2.1696   -1.0285 H   0  0  0  0  0  0  0  0  0  0  0  0
    5.7030   -2.2231    0.7668 H   0  0  0  0  0  0  0  0  0  0  0  0
    7.1263   -0.1373    0.6446 H   0  0  0  0  0  0  0  0  0  0  0  0
    6.9757   -0.1636   -1.1157 H   0  0  0  0  0  0  0  0  0  0  0  0
    8.3794   -2.1972   -1.2434 H   0  0  0  0  0  0  0  0  0  0  0  0
    8.5253   -2.2230    0.5213 H   0  0  0  0  0  0  0  0  0  0  0  0
    9.4210    0.1254    0.4671 H   0  0  0  0  0  0  0  0  0  0  0  0
    9.2835    0.1517   -1.2916 H   0  0  0  0  0  0  0  0  0  0  0  0
   11.6025   -0.1960   -0.6079 H   0  0  0  0  0  0  0  0  0  0  0  0
   11.0202   -1.6378   -1.4534 H   0  0  0  0  0  0  0  0  0  0  0  0
   11.1676   -1.2480    1.3631 H   0  0  0  0  0  0  0  0  0  0  0  0
    0.9662   -1.8431    1.4109 H   0  0  0  0  0  0  0  0  0  0  0  0
    0.1312   -4.1118    1.7127 H   0  0  0  0  0  0  0  0  0  0  0  0
    1.3508   -6.0434    0.7408 H   0  0  0  0  0  0  0  0  0  0  0  0
    3.3239   -5.6362   -0.7076 H   0  0  0  0  0  0  0  0  0  0  0  0
    4.0745   -3.3798   -1.1661 H   0  0  0  0  0  0  0  0  0  0  0  0
  1  2  1  0  0  0  0
  1 32  1  0  0  0  0
  1 33  1  0  0  0  0
  1 34  1  0  0  0  0
  2 25  2  0  0  0  0
  2  3  1  0  0  0  0
  3  4  1  0  0  0  0
  3 17  2  0  0  0  0
  4  5  2  0  0  0  0
  4  6  1  0  0  0  0
  6  7  1  0  0  0  0
  6 35  1  0  0  0  0
  7 15  1  0  0  0  0
  7 16  1  0  0  0  0
  7  8  1  0  0  0  0
  8  9  1  0  0  0  0
  8 36  1  0  0  0  0
  8 37  1  0  0  0  0
  9 14  1  0  0  0  0
  9 10  1  0  0  0  0
  9 38  1  0  0  0  0
 10 11  1  0  0  0  0
 10 39  1  0  0  0  0
 10 40  1  0  0  0  0
 11 12  1  0  0  0  0
 11 16  1  0  0  0  0
 11 41  1  0  0  0  0
 12 13  1  0  0  0  0
 12 42  1  0  0  0  0
 12 43  1  0  0  0  0
 13 14  1  0  0  0  0
 13 15  1  0  0  0  0
 13 44  1  0  0  0  0
 14 45  1  0  0  0  0
 14 46  1  0  0  0  0
 15 47  1  0  0  0  0
 15 48  1  0  0  0  0
 16 49  1  0  0  0  0
 16 50  1  0  0  0  0
 17 18  1  0  0  0  0
 18 19  1  0  0  0  0
 18 25  1  0  0  0  0
 19 20  1  0  0  0  0
 19 51  1  0  0  0  0
 19 52  1  0  0  0  0
 20 21  1  0  0  0  0
 20 53  1  0  0  0  0
 20 54  1  0  0  0  0
 21 22  1  0  0  0  0
 21 55  1  0  0  0  0
 21 56  1  0  0  0  0
 22 23  1  0  0  0  0
 22 57  1  0  0  0  0
 22 58  1  0  0  0  0
 23 24  1  0  0  0  0
 23 59  1  0  0  0  0
 23 60  1  0  0  0  0
 24 61  1  0  0  0  0
 25 26  1  0  0  0  0
 26 31  2  0  0  0  0
 26 27  1  0  0  0  0
 27 28  2  0  0  0  0
 27 62  1  0  0  0  0
 28 29  1  0  0  0  0
 28 63  1  0  0  0  0
 29 30  2  0  0  0  0
 29 64  1  0  0  0  0
 30 31  1  0  0  0  0
 30 65  1  0  0  0  0
 31 66  1  0  0  0  0
M  END
$$$$
CHEMBL5273987	5ZTY	best_smi
 OpenBabel12022418073D

 65 69  0  0  1  0  0  0  0  0999 V2000
    1.5908   -0.4182   -4.0611 C   0  0  0  0  0  0  0  0  0  0  0  0
    3.0991   -0.2913   -3.9021 C   0  0  0  0  0  0  0  0  0  0  0  0
    3.4984    0.8427   -2.9559 C   0  0  0  0  0  0  0  0  0  0  0  0
    5.0273    0.9624   -2.8379 C   0  0  0  0  0  0  0  0  0  0  0  0
    5.4276    2.0499   -1.8329 C   0  0  0  0  0  0  0  0  0  0  0  0
    6.8521    2.2753   -1.6125 N   0  0  0  0  0  0  0  0  0  0  0  0
    7.7534    1.5814   -2.3557 N   0  0  0  0  0  0  0  0  0  0  0  0
    8.9595    1.9825   -1.9109 C   0  0  0  0  0  0  0  0  0  0  0  0
   10.2433    1.4729   -2.4756 C   0  0  0  0  0  0  0  0  0  0  0  0
   11.3323    1.9249   -2.1518 O   0  0  0  0  0  0  0  0  0  0  0  0
   10.1124    0.4360   -3.3880 N   0  0  0  0  0  0  0  0  0  0  0  0
   11.2287   -0.2481   -4.0696 C   0  0  3  0  0  0  0  0  0  0  0  0
   10.6532   -1.3137   -5.0410 C   0  0  0  0  0  0  0  0  0  0  0  0
   11.7780   -2.0640   -5.7795 C   0  0  3  0  0  0  0  0  0  0  0  0
   12.6194   -1.0619   -6.5855 C   0  0  0  0  0  0  0  0  0  0  0  0
   13.2227   -0.0103   -5.6416 C   0  0  3  0  0  0  0  0  0  0  0  0
   14.1171   -0.7147   -4.6065 C   0  0  0  0  0  0  0  0  0  0  0  0
   13.2884   -1.7257   -3.7966 C   0  0  3  0  0  0  0  0  0  0  0  0
   12.6845   -2.7654   -4.7543 C   0  0  0  0  0  0  0  0  0  0  0  0
   12.1536   -0.9840   -3.0625 C   0  0  0  0  0  0  0  0  0  0  0  0
   12.0871    0.7337   -4.9122 C   0  0  0  0  0  0  0  0  0  0  0  0
    8.8104    2.9369   -0.8554 C   0  0  0  0  0  0  0  0  0  0  0  0
    9.9160    3.5426   -0.0567 C   0  0  0  0  0  0  0  0  0  0  0  0
    7.4335    3.1590   -0.7082 C   0  0  0  0  0  0  0  0  0  0  0  0
    6.7623    4.0702    0.2680 C   0  0  0  0  0  0  0  0  0  0  0  0
    7.4235    5.2393    0.6947 C   0  0  0  0  0  0  0  0  0  0  0  0
    7.0092    5.9630    1.8196 C   0  0  0  0  0  0  0  0  0  0  0  0
    5.8547    5.5937    2.4925 C   0  0  0  0  0  0  0  0  0  0  0  0
    5.1034    4.5294    2.0112 C   0  0  0  0  0  0  0  0  0  0  0  0
    5.5599    3.7700    0.9219 C   0  0  0  0  0  0  0  0  0  0  0  0
    1.3552   -1.2277   -4.7606 H   0  0  0  0  0  0  0  0  0  0  0  0
    1.1545    0.5046   -4.4559 H   0  0  0  0  0  0  0  0  0  0  0  0
    1.1074   -0.6484   -3.1063 H   0  0  0  0  0  0  0  0  0  0  0  0
    3.5469   -0.1212   -4.8864 H   0  0  0  0  0  0  0  0  0  0  0  0
    3.4950   -1.2415   -3.5237 H   0  0  0  0  0  0  0  0  0  0  0  0
    3.0629    0.6592   -1.9663 H   0  0  0  0  0  0  0  0  0  0  0  0
    3.0794    1.7924   -3.3153 H   0  0  0  0  0  0  0  0  0  0  0  0
    5.4546    1.1802   -3.8229 H   0  0  0  0  0  0  0  0  0  0  0  0
    5.4349   -0.0013   -2.5097 H   0  0  0  0  0  0  0  0  0  0  0  0
    5.0205    1.7321   -0.8729 H   0  0  0  0  0  0  0  0  0  0  0  0
    4.9955    3.0162   -2.1177 H   0  0  0  0  0  0  0  0  0  0  0  0
    9.1540    0.1537   -3.5646 H   0  0  0  0  0  0  0  0  0  0  0  0
    9.9894   -0.8342   -5.7725 H   0  0  0  0  0  0  0  0  0  0  0  0
   10.0339   -2.0319   -4.4875 H   0  0  0  0  0  0  0  0  0  0  0  0
   11.3442   -2.8082   -6.4567 H   0  0  0  0  0  0  0  0  0  0  0  0
   11.9993   -0.5736   -7.3464 H   0  0  0  0  0  0  0  0  0  0  0  0
   13.4203   -1.5891   -7.1205 H   0  0  0  0  0  0  0  0  0  0  0  0
   13.8218    0.7013   -6.2193 H   0  0  0  0  0  0  0  0  0  0  0  0
   14.5701    0.0245   -3.9344 H   0  0  0  0  0  0  0  0  0  0  0  0
   14.9437   -1.2291   -5.1135 H   0  0  0  0  0  0  0  0  0  0  0  0
   13.9336   -2.2305   -3.0685 H   0  0  0  0  0  0  0  0  0  0  0  0
   13.4857   -3.3068   -5.2729 H   0  0  0  0  0  0  0  0  0  0  0  0
   12.1104   -3.5091   -4.1908 H   0  0  0  0  0  0  0  0  0  0  0  0
   11.5697   -1.6993   -2.4686 H   0  0  0  0  0  0  0  0  0  0  0  0
   12.5945   -0.2789   -2.3475 H   0  0  0  0  0  0  0  0  0  0  0  0
   12.5287    1.5126   -4.2808 H   0  0  0  0  0  0  0  0  0  0  0  0
   11.4547    1.2520   -5.6443 H   0  0  0  0  0  0  0  0  0  0  0  0
   10.8301    2.9480   -0.0771 H   0  0  0  0  0  0  0  0  0  0  0  0
    9.6333    3.6187    0.9987 H   0  0  0  0  0  0  0  0  0  0  0  0
   10.1562    4.5416   -0.4332 H   0  0  0  0  0  0  0  0  0  0  0  0
    8.3164    5.5883    0.1854 H   0  0  0  0  0  0  0  0  0  0  0  0
    7.6095    6.7951    2.1796 H   0  0  0  0  0  0  0  0  0  0  0  0
    5.5442    6.1284    3.3857 H   0  0  0  0  0  0  0  0  0  0  0  0
    4.1782    4.2532    2.5117 H   0  0  0  0  0  0  0  0  0  0  0  0
    4.9564    2.9129    0.6639 H   0  0  0  0  0  0  0  0  0  0  0  0
  1  2  1  0  0  0  0
  1 31  1  0  0  0  0
  1 32  1  0  0  0  0
  1 33  1  0  0  0  0
  2  3  1  0  0  0  0
  2 34  1  0  0  0  0
  2 35  1  0  0  0  0
  3  4  1  0  0  0  0
  3 36  1  0  0  0  0
  3 37  1  0  0  0  0
  4  5  1  0  0  0  0
  4 38  1  0  0  0  0
  4 39  1  0  0  0  0
  5  6  1  0  0  0  0
  5 40  1  0  0  0  0
  5 41  1  0  0  0  0
  6 24  1  0  0  0  0
  6  7  1  0  0  0  0
  7  8  2  0  0  0  0
  8  9  1  0  0  0  0
  8 22  1  0  0  0  0
  9 10  2  0  0  0  0
  9 11  1  0  0  0  0
 11 12  1  0  0  0  0
 11 42  1  0  0  0  0
 12 20  1  0  0  0  0
 12 21  1  0  0  0  0
 12 13  1  0  0  0  0
 13 14  1  0  0  0  0
 13 43  1  0  0  0  0
 13 44  1  0  0  0  0
 14 19  1  0  0  0  0
 14 15  1  0  0  0  0
 14 45  1  0  0  0  0
 15 16  1  0  0  0  0
 15 46  1  0  0  0  0
 15 47  1  0  0  0  0
 16 17  1  0  0  0  0
 16 21  1  0  0  0  0
 16 48  1  0  0  0  0
 17 18  1  0  0  0  0
 17 49  1  0  0  0  0
 17 50  1  0  0  0  0
 18 19  1  0  0  0  0
 18 20  1  0  0  0  0
 18 51  1  0  0  0  0
 19 52  1  0  0  0  0
 19 53  1  0  0  0  0
 20 54  1  0  0  0  0
 20 55  1  0  0  0  0
 21 56  1  0  0  0  0
 21 57  1  0  0  0  0
 22 23  1  0  0  0  0
 22 24  2  0  0  0  0
 23 58  1  0  0  0  0
 23 59  1  0  0  0  0
 23 60  1  0  0  0  0
 24 25  1  0  0  0  0
 25 30  2  0  0  0  0
 25 26  1  0  0  0  0
 26 27  2  0  0  0  0
 26 61  1  0  0  0  0
 27 28  1  0  0  0  0
 27 62  1  0  0  0  0
 28 29  2  0  0  0  0
 28 63  1  0  0  0  0
 29 30  1  0  0  0  0
 29 64  1  0  0  0  0
 30 65  1  0  0  0  0
M  END
$$$$
