CHEMBL109393
 OpenBabel12022418073D

 61 63  0  0  0  0  0  0  0  0999 V2000
    6.9394    4.0252   -2.5917 C   0  0  0  0  0  0  0  0  0  0  0  0
    6.4456    2.7857   -3.3184 C   0  0  0  0  0  0  0  0  0  0  0  0
    6.9304    1.5237   -2.6163 C   0  0  0  0  0  0  0  0  0  0  0  0
    6.4490    0.2587   -3.3243 C   0  0  0  0  0  0  0  0  0  0  0  0
    6.9650   -0.9630   -2.5705 C   0  0  0  0  0  0  0  0  0  0  0  0
    6.5221   -2.2791   -3.2168 C   0  0  0  0  0  0  0  0  0  0  0  0
    7.0407   -3.5490   -2.4743 C   0  0  0  0  0  0  0  0  0  0  0  0
    6.4325   -3.6054   -1.0492 C   0  0  0  0  0  0  0  0  0  0  0  0
    6.5141   -4.7968   -3.2206 C   0  0  0  0  0  0  0  0  0  0  0  0
    8.5776   -3.5621   -2.4337 C   0  0  0  0  0  0  0  0  0  0  0  0
    9.2748   -3.5546   -1.2215 C   0  0  0  0  0  0  0  0  0  0  0  0
   10.6719   -3.5226   -1.1609 C   0  0  0  0  0  0  0  0  0  0  0  0
   11.4646   -3.4955   -2.3224 C   0  0  0  0  0  0  0  0  0  0  0  0
   12.9410   -3.4706   -2.3561 C   0  0  0  0  0  0  0  0  0  0  0  0
   13.5849   -3.4733   -3.6047 C   0  0  0  0  0  0  0  0  0  0  0  0
   12.7746   -3.5181   -4.8883 C   0  0  0  0  0  0  0  0  0  0  0  0
   13.0401   -4.8484   -5.6155 C   0  0  0  0  0  0  0  0  0  0  0  0
   13.1397   -2.3268   -5.7925 C   0  0  0  0  0  0  0  0  0  0  0  0
   11.3431   -3.4376   -4.7693 O   0  0  0  0  0  0  0  0  0  0  0  0
   10.7597   -3.4943   -3.5378 C   0  0  0  0  0  0  0  0  0  0  0  0
    9.3526   -3.5244   -3.5953 C   0  0  0  0  0  0  0  0  0  0  0  0
   15.0012   -3.4807   -3.6628 C   0  0  0  0  0  0  0  0  0  0  0  0
   15.7810   -3.4787   -2.5121 C   0  0  0  0  0  0  0  0  0  0  0  0
   15.1630   -3.4743   -1.2722 C   0  0  0  0  0  0  0  0  0  0  0  0
   15.9488   -3.4910    0.0066 C   0  0  0  0  0  0  0  0  0  0  0  0
   13.7611   -3.4659   -1.2107 C   0  0  0  0  0  0  0  0  0  0  0  0
   11.2123   -3.5097    0.1000 O   0  0  0  0  0  0  0  0  0  0  0  0
    6.5889    4.9288   -3.0997 H   0  0  0  0  0  0  0  0  0  0  0  0
    8.0336    4.0510   -2.5634 H   0  0  0  0  0  0  0  0  0  0  0  0
    6.5708    4.0471   -1.5610 H   0  0  0  0  0  0  0  0  0  0  0  0
    6.8079    2.7995   -4.3525 H   0  0  0  0  0  0  0  0  0  0  0  0
    5.3503    2.7951   -3.3538 H   0  0  0  0  0  0  0  0  0  0  0  0
    6.5724    1.5205   -1.5790 H   0  0  0  0  0  0  0  0  0  0  0  0
    8.0270    1.5241   -2.5752 H   0  0  0  0  0  0  0  0  0  0  0  0
    6.8123    0.2442   -4.3586 H   0  0  0  0  0  0  0  0  0  0  0  0
    5.3531    0.2414   -3.3593 H   0  0  0  0  0  0  0  0  0  0  0  0
    6.6010   -0.9076   -1.5398 H   0  0  0  0  0  0  0  0  0  0  0  0
    8.0588   -0.9124   -2.5311 H   0  0  0  0  0  0  0  0  0  0  0  0
    6.8605   -2.2868   -4.2620 H   0  0  0  0  0  0  0  0  0  0  0  0
    5.4250   -2.3035   -3.2581 H   0  0  0  0  0  0  0  0  0  0  0  0
    5.3403   -3.6603   -1.0708 H   0  0  0  0  0  0  0  0  0  0  0  0
    6.7044   -2.7302   -0.4484 H   0  0  0  0  0  0  0  0  0  0  0  0
    6.7897   -4.4900   -0.5057 H   0  0  0  0  0  0  0  0  0  0  0  0
    5.4178   -4.8278   -3.2027 H   0  0  0  0  0  0  0  0  0  0  0  0
    6.8761   -5.7213   -2.7559 H   0  0  0  0  0  0  0  0  0  0  0  0
    6.8187   -4.8120   -4.2727 H   0  0  0  0  0  0  0  0  0  0  0  0
    8.7390   -3.5591   -0.2801 H   0  0  0  0  0  0  0  0  0  0  0  0
   14.1019   -5.0207   -5.8186 H   0  0  0  0  0  0  0  0  0  0  0  0
   12.5007   -4.8908   -6.5688 H   0  0  0  0  0  0  0  0  0  0  0  0
   12.6715   -5.6911   -5.0163 H   0  0  0  0  0  0  0  0  0  0  0  0
   14.2096   -2.2550   -6.0093 H   0  0  0  0  0  0  0  0  0  0  0  0
   12.8270   -1.3849   -5.3238 H   0  0  0  0  0  0  0  0  0  0  0  0
   12.6069   -2.3840   -6.7492 H   0  0  0  0  0  0  0  0  0  0  0  0
    8.8795   -3.4979   -4.5766 H   0  0  0  0  0  0  0  0  0  0  0  0
   15.5113   -3.4968   -4.6194 H   0  0  0  0  0  0  0  0  0  0  0  0
   16.8658   -3.4879   -2.5949 H   0  0  0  0  0  0  0  0  0  0  0  0
   17.0268   -3.4922   -0.1870 H   0  0  0  0  0  0  0  0  0  0  0  0
   15.7055   -4.3887    0.5812 H   0  0  0  0  0  0  0  0  0  0  0  0
   15.7116   -2.6051    0.6035 H   0  0  0  0  0  0  0  0  0  0  0  0
   13.3334   -3.4656   -0.2168 H   0  0  0  0  0  0  0  0  0  0  0  0
   10.5106   -3.4997    0.7670 H   0  0  0  0  0  0  0  0  0  0  0  0
  1  2  1  0  0  0  0
  1 28  1  0  0  0  0
  1 29  1  0  0  0  0
  1 30  1  0  0  0  0
  2  3  1  0  0  0  0
  2 31  1  0  0  0  0
  2 32  1  0  0  0  0
  3  4  1  0  0  0  0
  3 33  1  0  0  0  0
  3 34  1  0  0  0  0
  4  5  1  0  0  0  0
  4 35  1  0  0  0  0
  4 36  1  0  0  0  0
  5  6  1  0  0  0  0
  5 37  1  0  0  0  0
  5 38  1  0  0  0  0
  6  7  1  0  0  0  0
  6 39  1  0  0  0  0
  6 40  1  0  0  0  0
  7  8  1  0  0  0  0
  7  9  1  0  0  0  0
  7 10  1  0  0  0  0
  8 41  1  0  0  0  0
  8 42  1  0  0  0  0
  8 43  1  0  0  0  0
  9 44  1  0  0  0  0
  9 45  1  0  0  0  0
  9 46  1  0  0  0  0
 10 21  2  0  0  0  0
 10 11  1  0  0  0  0
 11 12  2  0  0  0  0
 11 47  1  0  0  0  0
 12 13  1  0  0  0  0
 12 27  1  0  0  0  0
 13 20  2  0  0  0  0
 13 14  1  0  0  0  0
 14 26  2  0  0  0  0
 14 15  1  0  0  0  0
 15 16  1  0  0  0  0
 15 22  2  0  0  0  0
 16 17  1  0  0  0  0
 16 18  1  0  0  0  0
 16 19  1  0  0  0  0
 17 48  1  0  0  0  0
 17 49  1  0  0  0  0
 17 50  1  0  0  0  0
 18 51  1  0  0  0  0
 18 52  1  0  0  0  0
 18 53  1  0  0  0  0
 19 20  1  0  0  0  0
 20 21  1  0  0  0  0
 21 54  1  0  0  0  0
 22 23  1  0  0  0  0
 22 55  1  0  0  0  0
 23 24  2  0  0  0  0
 23 56  1  0  0  0  0
 24 25  1  0  0  0  0
 24 26  1  0  0  0  0
 25 57  1  0  0  0  0
 25 58  1  0  0  0  0
 25 59  1  0  0  0  0
 26 60  1  0  0  0  0
 27 61  1  0  0  0  0
M  END
$$$$
CHEMBL420173
 OpenBabel12022418073D

 64 66  0  0  0  0  0  0  0  0999 V2000
    7.3746    1.5022  -11.7182 C   0  0  0  0  0  0  0  0  0  0  0  0
    6.8368    0.7415  -10.5167 C   0  0  0  0  0  0  0  0  0  0  0  0
    7.2476    1.4236   -9.2173 C   0  0  0  0  0  0  0  0  0  0  0  0
    6.7204    0.6826   -7.9872 C   0  0  0  0  0  0  0  0  0  0  0  0
    7.1600    1.4237   -6.7266 C   0  0  0  0  0  0  0  0  0  0  0  0
    6.6664    0.7524   -5.4380 C   0  0  0  0  0  0  0  0  0  0  0  0
    7.1277    1.4802   -4.1348 C   0  0  0  0  0  0  0  0  0  0  0  0
    6.4950    2.8973   -4.0887 C   0  0  0  0  0  0  0  0  0  0  0  0
    6.5593    0.7209   -2.9153 C   0  0  0  0  0  0  0  0  0  0  0  0
    8.6636    1.5100   -4.0582 C   0  0  0  0  0  0  0  0  0  0  0  0
    9.3691    2.7140   -4.0399 C   0  0  0  0  0  0  0  0  0  0  0  0
   10.7712    2.7464   -4.0427 C   0  0  0  0  0  0  0  0  0  0  0  0
   11.5552    1.5814   -4.0693 C   0  0  0  0  0  0  0  0  0  0  0  0
   13.0348    1.5376   -4.0948 C   0  0  0  0  0  0  0  0  0  0  0  0
   13.6784    0.2920   -4.0933 C   0  0  0  0  0  0  0  0  0  0  0  0
   12.8539   -0.9932   -4.0518 C   0  0  0  0  0  0  0  0  0  0  0  0
   13.1232   -1.7327   -2.7295 C   0  0  0  0  0  0  0  0  0  0  0  0
   13.2120   -1.8981   -5.2459 C   0  0  0  0  0  0  0  0  0  0  0  0
   11.4203   -0.8620   -4.1244 O   0  0  0  0  0  0  0  0  0  0  0  0
   10.8425    0.3722   -4.0765 C   0  0  0  0  0  0  0  0  0  0  0  0
    9.4331    0.3395   -4.0687 C   0  0  0  0  0  0  0  0  0  0  0  0
   15.0934    0.2261   -4.1006 C   0  0  0  0  0  0  0  0  0  0  0  0
   15.8763    1.3794   -4.1100 C   0  0  0  0  0  0  0  0  0  0  0  0
   15.2539    2.6211   -4.1147 C   0  0  0  0  0  0  0  0  0  0  0  0
   15.9981    3.9088   -4.1096 C   0  0  0  0  0  0  0  0  0  0  0  0
   15.4591    5.0049   -4.1213 O   0  0  0  0  0  0  0  0  0  0  0  0
   17.3369    3.6920   -4.0829 O   0  0  0  0  0  0  0  0  0  0  0  0
   18.0994    4.8994   -4.0661 C   0  0  0  0  0  0  0  0  0  0  0  0
   13.8547    2.6836   -4.1126 C   0  0  0  0  0  0  0  0  0  0  0  0
   11.3354    3.9960   -4.0291 O   0  0  0  0  0  0  0  0  0  0  0  0
    7.0748    1.0077  -12.6469 H   0  0  0  0  0  0  0  0  0  0  0  0
    8.4683    1.5490  -11.6939 H   0  0  0  0  0  0  0  0  0  0  0  0
    6.9893    2.5271  -11.7376 H   0  0  0  0  0  0  0  0  0  0  0  0
    7.2182   -0.2854  -10.5360 H   0  0  0  0  0  0  0  0  0  0  0  0
    5.7442    0.6873  -10.5806 H   0  0  0  0  0  0  0  0  0  0  0  0
    6.8709    2.4544   -9.2109 H   0  0  0  0  0  0  0  0  0  0  0  0
    8.3420    1.4842   -9.1651 H   0  0  0  0  0  0  0  0  0  0  0  0
    7.1046   -0.3441   -7.9738 H   0  0  0  0  0  0  0  0  0  0  0  0
    5.6262    0.6252   -8.0246 H   0  0  0  0  0  0  0  0  0  0  0  0
    6.7802    2.4482   -6.7844 H   0  0  0  0  0  0  0  0  0  0  0  0
    8.2541    1.4843   -6.7233 H   0  0  0  0  0  0  0  0  0  0  0  0
    7.0095   -0.2898   -5.4301 H   0  0  0  0  0  0  0  0  0  0  0  0
    5.5689    0.7067   -5.4595 H   0  0  0  0  0  0  0  0  0  0  0  0
    5.4006    2.8509   -4.0889 H   0  0  0  0  0  0  0  0  0  0  0  0
    6.7921    3.5162   -4.9421 H   0  0  0  0  0  0  0  0  0  0  0  0
    6.7946    3.4369   -3.1816 H   0  0  0  0  0  0  0  0  0  0  0  0
    5.4630    0.7708   -2.8984 H   0  0  0  0  0  0  0  0  0  0  0  0
    6.9229    1.1532   -1.9754 H   0  0  0  0  0  0  0  0  0  0  0  0
    6.8330   -0.3400   -2.9217 H   0  0  0  0  0  0  0  0  0  0  0  0
    8.8417    3.6599   -4.0402 H   0  0  0  0  0  0  0  0  0  0  0  0
   14.1846   -1.9488   -2.5708 H   0  0  0  0  0  0  0  0  0  0  0  0
   12.5750   -2.6813   -2.6906 H   0  0  0  0  0  0  0  0  0  0  0  0
   12.7691   -1.1372   -1.8787 H   0  0  0  0  0  0  0  0  0  0  0  0
   14.2797   -2.1285   -5.3103 H   0  0  0  0  0  0  0  0  0  0  0  0
   12.9115   -1.4239   -6.1887 H   0  0  0  0  0  0  0  0  0  0  0  0
   12.6684   -2.8493   -5.1938 H   0  0  0  0  0  0  0  0  0  0  0  0
    8.9490   -0.6352   -4.0904 H   0  0  0  0  0  0  0  0  0  0  0  0
   15.6032   -0.7355   -4.0857 H   0  0  0  0  0  0  0  0  0  0  0  0
   16.9585    1.2913   -4.1081 H   0  0  0  0  0  0  0  0  0  0  0  0
   19.1580    4.6323   -4.0491 H   0  0  0  0  0  0  0  0  0  0  0  0
   17.8725    5.4818   -3.1670 H   0  0  0  0  0  0  0  0  0  0  0  0
   17.9025    5.4883   -4.9677 H   0  0  0  0  0  0  0  0  0  0  0  0
   13.4245    3.6774   -4.1186 H   0  0  0  0  0  0  0  0  0  0  0  0
   10.6505    4.6806   -4.0484 H   0  0  0  0  0  0  0  0  0  0  0  0
  1  2  1  0  0  0  0
  1 31  1  0  0  0  0
  1 32  1  0  0  0  0
  1 33  1  0  0  0  0
  2  3  1  0  0  0  0
  2 34  1  0  0  0  0
  2 35  1  0  0  0  0
  3  4  1  0  0  0  0
  3 36  1  0  0  0  0
  3 37  1  0  0  0  0
  4  5  1  0  0  0  0
  4 38  1  0  0  0  0
  4 39  1  0  0  0  0
  5  6  1  0  0  0  0
  5 40  1  0  0  0  0
  5 41  1  0  0  0  0
  6  7  1  0  0  0  0
  6 42  1  0  0  0  0
  6 43  1  0  0  0  0
  7  8  1  0  0  0  0
  7  9  1  0  0  0  0
  7 10  1  0  0  0  0
  8 44  1  0  0  0  0
  8 45  1  0  0  0  0
  8 46  1  0  0  0  0
  9 47  1  0  0  0  0
  9 48  1  0  0  0  0
  9 49  1  0  0  0  0
 10 21  2  0  0  0  0
 10 11  1  0  0  0  0
 11 12  2  0  0  0  0
 11 50  1  0  0  0  0
 12 13  1  0  0  0  0
 12 30  1  0  0  0  0
 13 20  2  0  0  0  0
 13 14  1  0  0  0  0
 14 29  2  0  0  0  0
 14 15  1  0  0  0  0
 15 16  1  0  0  0  0
 15 22  2  0  0  0  0
 16 17  1  0  0  0  0
 16 18  1  0  0  0  0
 16 19  1  0  0  0  0
 17 51  1  0  0  0  0
 17 52  1  0  0  0  0
 17 53  1  0  0  0  0
 18 54  1  0  0  0  0
 18 55  1  0  0  0  0
 18 56  1  0  0  0  0
 19 20  1  0  0  0  0
 20 21  1  0  0  0  0
 21 57  1  0  0  0  0
 22 23  1  0  0  0  0
 22 58  1  0  0  0  0
 23 24  2  0  0  0  0
 23 59  1  0  0  0  0
 24 25  1  0  0  0  0
 24 29  1  0  0  0  0
 25 26  2  0  0  0  0
 25 27  1  0  0  0  0
 27 28  1  0  0  0  0
 28 60  1  0  0  0  0
 28 61  1  0  0  0  0
 28 62  1  0  0  0  0
 29 63  1  0  0  0  0
 30 64  1  0  0  0  0
M  END
$$$$
CHEMBL411626
 OpenBabel12022418073D

 65 67  0  0  1  0  0  0  0  0999 V2000
    6.4338   -8.7741    8.2140 C   0  0  0  0  0  0  0  0  0  0  0  0
    6.0379   -7.3308    7.9307 C   0  0  0  0  0  0  0  0  0  0  0  0
    6.6302   -6.8380    6.6117 C   0  0  0  0  0  0  0  0  0  0  0  0
    6.2536   -5.3792    6.3091 C   0  0  0  0  0  0  0  0  0  0  0  0
    6.8792   -4.9430    4.9808 C   0  0  0  0  0  0  0  0  0  0  0  0
    6.5547   -3.4949    4.5697 C   0  0  0  0  0  0  0  0  0  0  0  0
    7.1954   -3.0580    3.1960 C   0  0  0  0  0  0  0  0  0  0  0  0
    6.6316   -3.9561    2.0694 C   0  0  0  0  0  0  0  0  0  0  0  0
    6.7104   -1.6152    2.8696 C   0  0  0  0  0  0  0  0  0  0  0  0
    8.7418   -3.1024    3.2752 C   0  0  0  0  0  0  0  0  0  0  0  0
    9.5638   -3.8968    2.4480 C   0  0  0  0  0  0  0  0  0  0  0  0
   10.9879   -3.9569    2.5811 C   0  0  0  0  0  0  0  0  0  0  0  0
   11.6857   -3.2318    3.5578 C   0  0  0  0  0  0  0  0  0  0  0  0
   10.8172   -2.3615    4.3112 C   0  0  0  0  0  0  0  0  0  0  0  0
    9.4143   -2.3116    4.1968 C   0  0  0  0  0  0  0  0  0  0  0  0
   11.2727   -1.3351    5.1285 O   0  0  0  0  0  0  0  0  0  0  0  0
   12.6962   -1.4466    5.3084 C   0  0  0  0  0  0  0  0  0  0  0  0
   12.7472   -2.6823    6.3133 C   0  0  0  0  0  0  0  0  0  0  0  0
   13.1537   -0.2942    6.1827 C   0  0  0  0  0  0  0  0  0  0  0  0
   13.2002   -1.4876    3.7213 C   0  0  1  0  0  0  0  0  0  0  0  0
   14.4576   -0.9445    3.0341 C   0  0  0  0  0  0  0  0  0  0  0  0
   15.5048   -0.9022    4.0418 C   0  0  0  0  0  0  0  0  0  0  0  0
   15.6594   -1.9897    4.7764 C   0  0  0  0  0  0  0  0  0  0  0  0
   16.6157   -1.7857    5.9070 C   0  0  0  0  0  0  0  0  0  0  0  0
   14.7158   -3.2969    4.4012 C   0  0  0  0  0  0  0  0  0  0  0  0
   13.2696   -2.9815    3.4967 C   0  0  1  0  0  0  0  0  0  0  0  0
   11.6869   -4.6703    1.6414 O   0  0  0  0  0  0  0  0  0  0  0  0
    5.9950   -9.1047    9.1609 H   0  0  0  0  0  0  0  0  0  0  0  0
    7.5210   -8.8792    8.2912 H   0  0  0  0  0  0  0  0  0  0  0  0
    6.0798   -9.4430    7.4230 H   0  0  0  0  0  0  0  0  0  0  0  0
    6.3817   -6.6966    8.7555 H   0  0  0  0  0  0  0  0  0  0  0  0
    4.9449   -7.2587    7.8987 H   0  0  0  0  0  0  0  0  0  0  0  0
    6.2799   -7.4839    5.7967 H   0  0  0  0  0  0  0  0  0  0  0  0
    7.7227   -6.9312    6.6476 H   0  0  0  0  0  0  0  0  0  0  0  0
    6.6009   -4.7290    7.1195 H   0  0  0  0  0  0  0  0  0  0  0  0
    5.1612   -5.2862    6.2570 H   0  0  0  0  0  0  0  0  0  0  0  0
    6.5233   -5.6354    4.2127 H   0  0  0  0  0  0  0  0  0  0  0  0
    7.9657   -5.0646    5.0509 H   0  0  0  0  0  0  0  0  0  0  0  0
    6.8830   -2.8192    5.3719 H   0  0  0  0  0  0  0  0  0  0  0  0
    5.4626   -3.3787    4.5142 H   0  0  0  0  0  0  0  0  0  0  0  0
    5.5518   -3.8141    1.9426 H   0  0  0  0  0  0  0  0  0  0  0  0
    6.7996   -5.0179    2.2668 H   0  0  0  0  0  0  0  0  0  0  0  0
    7.0985   -3.7321    1.1043 H   0  0  0  0  0  0  0  0  0  0  0  0
    5.6321   -1.5944    2.6592 H   0  0  0  0  0  0  0  0  0  0  0  0
    7.2188   -1.2140    1.9847 H   0  0  0  0  0  0  0  0  0  0  0  0
    6.8795   -0.9157    3.6958 H   0  0  0  0  0  0  0  0  0  0  0  0
    9.1013   -4.4615    1.6435 H   0  0  0  0  0  0  0  0  0  0  0  0
    8.8816   -1.5901    4.8155 H   0  0  0  0  0  0  0  0  0  0  0  0
   11.9972   -2.5412    7.1009 H   0  0  0  0  0  0  0  0  0  0  0  0
   13.7044   -2.8172    6.8115 H   0  0  0  0  0  0  0  0  0  0  0  0
   12.4503   -3.6561    5.8764 H   0  0  0  0  0  0  0  0  0  0  0  0
   12.4640   -0.1358    7.0407 H   0  0  0  0  0  0  0  0  0  0  0  0
   13.1104    0.6471    5.6067 H   0  0  0  0  0  0  0  0  0  0  0  0
   14.1469   -0.4643    6.5840 H   0  0  0  0  0  0  0  0  0  0  0  0
   12.4196   -1.0162    3.1007 H   0  0  0  0  0  0  0  0  0  0  0  0
   14.2929    0.0014    2.5112 H   0  0  0  0  0  0  0  0  0  0  0  0
   14.8272   -1.6200    2.2409 H   0  0  0  0  0  0  0  0  0  0  0  0
   16.0204    0.0491    4.1923 H   0  0  0  0  0  0  0  0  0  0  0  0
   17.6529   -1.9346    5.5830 H   0  0  0  0  0  0  0  0  0  0  0  0
   16.3975   -2.3864    6.8010 H   0  0  0  0  0  0  0  0  0  0  0  0
   16.5755   -0.7305    6.2622 H   0  0  0  0  0  0  0  0  0  0  0  0
   14.5370   -3.9126    5.2866 H   0  0  0  0  0  0  0  0  0  0  0  0
   15.3569   -3.9234    3.7648 H   0  0  0  0  0  0  0  0  0  0  0  0
   13.5516   -3.2517    2.4674 H   0  0  0  0  0  0  0  0  0  0  0  0
   11.0660   -4.9474    0.9398 H   0  0  0  0  0  0  0  0  0  0  0  0
  1  2  1  0  0  0  0
  1 28  1  0  0  0  0
  1 29  1  0  0  0  0
  1 30  1  0  0  0  0
  2  3  1  0  0  0  0
  2 31  1  0  0  0  0
  2 32  1  0  0  0  0
  3  4  1  0  0  0  0
  3 33  1  0  0  0  0
  3 34  1  0  0  0  0
  4  5  1  0  0  0  0
  4 35  1  0  0  0  0
  4 36  1  0  0  0  0
  5  6  1  0  0  0  0
  5 37  1  0  0  0  0
  5 38  1  0  0  0  0
  6  7  1  0  0  0  0
  6 39  1  0  0  0  0
  6 40  1  0  0  0  0
  7  8  1  0  0  0  0
  7  9  1  0  0  0  0
  7 10  1  0  0  0  0
  8 41  1  0  0  0  0
  8 42  1  0  0  0  0
  8 43  1  0  0  0  0
  9 44  1  0  0  0  0
  9 45  1  0  0  0  0
  9 46  1  0  0  0  0
 10 15  2  0  0  0  0
 10 11  1  0  0  0  0
 11 12  2  0  0  0  0
 11 47  1  0  0  0  0
 12 13  1  0  0  0  0
 12 27  1  0  0  0  0
 13 26  1  0  0  0  0
 13 14  2  0  0  0  0
 14 15  1  0  0  0  0
 14 16  1  0  0  0  0
 15 48  1  0  0  0  0
 16 17  1  0  0  0  0
 17 18  1  0  0  0  0
 17 19  1  0  0  0  0
 17 20  1  0  0  0  0
 18 49  1  0  0  0  0
 18 50  1  0  0  0  0
 18 51  1  0  0  0  0
 19 52  1  0  0  0  0
 19 53  1  0  0  0  0
 19 54  1  0  0  0  0
 20 21  1  0  0  0  0
 20 26  1  0  0  0  0
 20 55  1  6  0  0  0
 21 22  1  0  0  0  0
 21 56  1  0  0  0  0
 21 57  1  0  0  0  0
 22 23  2  0  0  0  0
 22 58  1  0  0  0  0
 23 24  1  0  0  0  0
 23 25  1  0  0  0  0
 24 59  1  0  0  0  0
 24 60  1  0  0  0  0
 24 61  1  0  0  0  0
 25 62  1  0  0  0  0
 25 63  1  0  0  0  0
 26 25  1  0  0  0  0
 26 64  1  6  0  0  0
 27 65  1  0  0  0  0
M  END
$$$$
CHEMBL471295
 OpenBabel12022418073D

 60 63  0  0  1  0  0  0  0  0999 V2000
    1.8718    1.3044    1.1944 C   0  0  0  0  0  0  0  0  0  0  0  0
    2.4659    0.5341    0.2670 C   0  0  0  0  0  0  0  0  0  0  0  0
    3.0212   -0.7968    0.6715 C   0  0  0  0  0  0  0  0  0  0  0  0
    2.1093   -1.4020    1.7495 C   0  0  2  0  0  0  0  0  0  0  0  0
    2.0830   -0.5432    3.0219 C   0  0  2  0  0  0  0  0  0  0  0  0
    1.8568    0.9500    2.6674 C   0  0  0  0  0  0  0  0  0  0  0  0
    3.2631   -0.9171    3.9694 C   0  0  0  0  0  0  0  0  0  0  0  0
    4.6889   -0.6706    3.4467 C   0  0  0  0  0  0  0  0  0  0  0  0
    3.1430   -0.1420    5.2984 C   0  0  0  0  0  0  0  0  0  0  0  0
    3.1682   -2.3300    4.3175 O   0  0  0  0  0  0  0  0  0  0  0  0
    2.9233   -3.2139    3.2906 C   0  0  0  0  0  0  0  0  0  0  0  0
    2.4311   -2.8313    2.0430 C   0  0  0  0  0  0  0  0  0  0  0  0
    2.2251   -3.8171    1.0689 C   0  0  0  0  0  0  0  0  0  0  0  0
    2.5228   -5.1469    1.3192 C   0  0  0  0  0  0  0  0  0  0  0  0
    2.9453   -5.5746    2.5848 C   0  0  0  0  0  0  0  0  0  0  0  0
    3.1511   -4.5754    3.5660 C   0  0  0  0  0  0  0  0  0  0  0  0
    3.1770   -7.0869    2.8432 C   0  0  0  0  0  0  0  0  0  0  0  0
    4.6089   -7.5051    2.4406 C   0  0  0  0  0  0  0  0  0  0  0  0
    4.8753   -8.4570    1.4361 C   0  0  0  0  0  0  0  0  0  0  0  0
    6.1837   -8.8647    1.1254 C   0  0  0  0  0  0  0  0  0  0  0  0
    7.2568   -8.3008    1.8178 C   0  0  0  0  0  0  0  0  0  0  0  0
    7.0258   -7.3430    2.7995 C   0  0  0  0  0  0  0  0  0  0  0  0
    5.7198   -6.9494    3.1053 C   0  0  0  0  0  0  0  0  0  0  0  0
    6.4375   -9.8970    0.0654 C   0  0  0  0  0  0  0  0  0  0  0  0
    2.9452   -7.4594    4.3318 C   0  0  0  0  0  0  0  0  0  0  0  0
    2.0798   -7.9113    2.0876 C   0  0  0  0  0  0  0  0  0  0  0  0
    1.6957   -3.5613   -0.1678 O   0  0  0  0  0  0  0  0  0  0  0  0
    2.6212    0.9192   -1.1729 C   0  0  0  0  0  0  0  0  0  0  0  0
    1.4169    2.2505    0.9075 H   0  0  0  0  0  0  0  0  0  0  0  0
    4.0559   -0.6518    0.9893 H   0  0  0  0  0  0  0  0  0  0  0  0
    3.0836   -1.4600   -0.1963 H   0  0  0  0  0  0  0  0  0  0  0  0
    1.0774   -1.3898    1.3800 H   0  0  0  0  0  0  0  0  0  0  0  0
    1.1805   -0.8556    3.5740 H   0  0  0  0  0  0  0  0  0  0  0  0
    0.8725    1.2387    3.0601 H   0  0  0  0  0  0  0  0  0  0  0  0
    2.5840    1.5983    3.1647 H   0  0  0  0  0  0  0  0  0  0  0  0
    4.8197    0.3465    3.0664 H   0  0  0  0  0  0  0  0  0  0  0  0
    4.9781   -1.3910    2.6764 H   0  0  0  0  0  0  0  0  0  0  0  0
    5.4247   -0.8288    4.2459 H   0  0  0  0  0  0  0  0  0  0  0  0
    3.2502    0.9384    5.1572 H   0  0  0  0  0  0  0  0  0  0  0  0
    3.9206   -0.4574    6.0050 H   0  0  0  0  0  0  0  0  0  0  0  0
    2.1850   -0.3382    5.7896 H   0  0  0  0  0  0  0  0  0  0  0  0
    2.3864   -5.8432    0.4984 H   0  0  0  0  0  0  0  0  0  0  0  0
    3.5039   -4.8286    4.5601 H   0  0  0  0  0  0  0  0  0  0  0  0
    4.0641   -8.9129    0.8751 H   0  0  0  0  0  0  0  0  0  0  0  0
    8.2769   -8.6062    1.5953 H   0  0  0  0  0  0  0  0  0  0  0  0
    7.8626   -6.9021    3.3353 H   0  0  0  0  0  0  0  0  0  0  0  0
    5.5813   -6.1991    3.8792 H   0  0  0  0  0  0  0  0  0  0  0  0
    5.5027  -10.2728   -0.3634 H   0  0  0  0  0  0  0  0  0  0  0  0
    6.9745  -10.7507    0.4916 H   0  0  0  0  0  0  0  0  0  0  0  0
    7.0315   -9.4668   -0.7472 H   0  0  0  0  0  0  0  0  0  0  0  0
    3.6590   -6.9859    5.0129 H   0  0  0  0  0  0  0  0  0  0  0  0
    3.0437   -8.5418    4.4818 H   0  0  0  0  0  0  0  0  0  0  0  0
    1.9390   -7.1703    4.6583 H   0  0  0  0  0  0  0  0  0  0  0  0
    2.1522   -7.8335    0.9972 H   0  0  0  0  0  0  0  0  0  0  0  0
    1.0724   -7.5790    2.3651 H   0  0  0  0  0  0  0  0  0  0  0  0
    2.1509   -8.9798    2.3233 H   0  0  0  0  0  0  0  0  0  0  0  0
    1.2343   -2.7093   -0.1555 H   0  0  0  0  0  0  0  0  0  0  0  0
    1.7004    1.3467   -1.5787 H   0  0  0  0  0  0  0  0  0  0  0  0
    2.8735    0.0501   -1.7914 H   0  0  0  0  0  0  0  0  0  0  0  0
    3.4371    1.6406   -1.2771 H   0  0  0  0  0  0  0  0  0  0  0  0
  1  6  1  0  0  0  0
  1  2  2  0  0  0  0
  1 29  1  0  0  0  0
  2  3  1  0  0  0  0
  2 28  1  0  0  0  0
  3 30  1  0  0  0  0
  3 31  1  0  0  0  0
  4  3  1  0  0  0  0
  4  5  1  0  0  0  0
  4 12  1  0  0  0  0
  4 32  1  6  0  0  0
  5  6  1  0  0  0  0
  5  7  1  0  0  0  0
  5 33  1  1  0  0  0
  6 34  1  0  0  0  0
  6 35  1  0  0  0  0
  7  8  1  0  0  0  0
  7  9  1  0  0  0  0
  7 10  1  0  0  0  0
  8 36  1  0  0  0  0
  8 37  1  0  0  0  0
  8 38  1  0  0  0  0
  9 39  1  0  0  0  0
  9 40  1  0  0  0  0
  9 41  1  0  0  0  0
 10 11  1  0  0  0  0
 11 16  2  0  0  0  0
 11 12  1  0  0  0  0
 12 13  2  0  0  0  0
 13 14  1  0  0  0  0
 13 27  1  0  0  0  0
 14 15  2  0  0  0  0
 14 42  1  0  0  0  0
 15 16  1  0  0  0  0
 15 17  1  0  0  0  0
 16 43  1  0  0  0  0
 17 18  1  0  0  0  0
 17 25  1  0  0  0  0
 17 26  1  0  0  0  0
 18 23  2  0  0  0  0
 18 19  1  0  0  0  0
 19 20  2  0  0  0  0
 19 44  1  0  0  0  0
 20 21  1  0  0  0  0
 20 24  1  0  0  0  0
 21 22  2  0  0  0  0
 21 45  1  0  0  0  0
 22 23  1  0  0  0  0
 22 46  1  0  0  0  0
 23 47  1  0  0  0  0
 24 48  1  0  0  0  0
 24 49  1  0  0  0  0
 24 50  1  0  0  0  0
 25 51  1  0  0  0  0
 25 52  1  0  0  0  0
 25 53  1  0  0  0  0
 26 54  1  0  0  0  0
 26 55  1  0  0  0  0
 26 56  1  0  0  0  0
 27 57  1  0  0  0  0
 28 58  1  0  0  0  0
 28 59  1  0  0  0  0
 28 60  1  0  0  0  0
M  END
$$$$
CHEMBL512531
 OpenBabel12022418073D

 57 60  0  0  1  0  0  0  0  0999 V2000
    5.3571    3.5276   -1.7310 C   0  0  0  0  0  0  0  0  0  0  0  0
    4.1786    4.0918   -0.9997 C   0  0  0  0  0  0  0  0  0  0  0  0
    4.3062    4.6701    0.2113 C   0  0  0  0  0  0  0  0  0  0  0  0
    3.1114    5.2278    0.9235 C   0  0  0  0  0  0  0  0  0  0  0  0
    1.9618    4.2302    0.7634 C   0  0  2  0  0  0  0  0  0  0  0  0
    1.6147    3.9938   -0.7085 C   0  0  1  0  0  0  0  0  0  0  0  0
    2.8274    4.0806   -1.6775 C   0  0  0  0  0  0  0  0  0  0  0  0
    0.8003    2.7238   -0.6408 C   0  0  0  0  0  0  0  0  0  0  0  0
    1.0699    1.5058   -1.2486 C   0  0  0  0  0  0  0  0  0  0  0  0
    0.1797    0.4377   -1.1645 C   0  0  0  0  0  0  0  0  0  0  0  0
   -0.9566    0.4959   -0.3396 C   0  0  0  0  0  0  0  0  0  0  0  0
   -1.7796   -0.7762   -0.0323 C   0  0  0  0  0  0  0  0  0  0  0  0
   -3.2615   -0.3885    0.2248 C   0  0  0  0  0  0  0  0  0  0  0  0
   -1.7992   -1.7465   -1.2460 C   0  0  0  0  0  0  0  0  0  0  0  0
   -1.1582   -1.5878    1.1395 C   0  0  0  0  0  0  0  0  0  0  0  0
   -1.9171   -2.5179    1.8709 C   0  0  0  0  0  0  0  0  0  0  0  0
   -1.3157   -3.3901    2.7914 C   0  0  0  0  0  0  0  0  0  0  0  0
    0.0598   -3.3480    3.0017 C   0  0  0  0  0  0  0  0  0  0  0  0
    0.8156   -2.4064    2.3256 C   0  0  0  0  0  0  0  0  0  0  0  0
    0.2249   -1.5343    1.4187 C   0  0  0  0  0  0  0  0  0  0  0  0
    2.1386   -2.3564    2.5224 F   0  0  0  0  0  0  0  0  0  0  0  0
   -1.1866    1.6977    0.3508 C   0  0  0  0  0  0  0  0  0  0  0  0
   -0.3028    2.7711    0.2241 C   0  0  0  0  0  0  0  0  0  0  0  0
   -0.5245    3.8414    1.0514 O   0  0  0  0  0  0  0  0  0  0  0  0
    0.6626    4.4958    1.5921 C   0  0  0  0  0  0  0  0  0  0  0  0
    0.8621    3.9312    3.0111 C   0  0  0  0  0  0  0  0  0  0  0  0
    0.2740    5.9772    1.6904 C   0  0  0  0  0  0  0  0  0  0  0  0
    2.2881    1.2073   -1.7851 O   0  0  0  0  0  0  0  0  0  0  0  0
    5.8315    2.7357   -1.1393 H   0  0  0  0  0  0  0  0  0  0  0  0
    5.0673    3.0906   -2.6917 H   0  0  0  0  0  0  0  0  0  0  0  0
    6.0964    4.3097   -1.9303 H   0  0  0  0  0  0  0  0  0  0  0  0
    5.2749    4.7227    0.7057 H   0  0  0  0  0  0  0  0  0  0  0  0
    2.8665    6.2088    0.4914 H   0  0  0  0  0  0  0  0  0  0  0  0
    3.3525    5.3740    1.9801 H   0  0  0  0  0  0  0  0  0  0  0  0
    2.3681    3.2718    1.1494 H   0  0  0  0  0  0  0  0  0  0  0  0
    0.9265    4.7768   -1.0556 H   0  0  0  0  0  0  0  0  0  0  0  0
    2.7567    5.0370   -2.2179 H   0  0  0  0  0  0  0  0  0  0  0  0
    2.7784    3.3333   -2.4744 H   0  0  0  0  0  0  0  0  0  0  0  0
    0.4713   -0.4894   -1.6530 H   0  0  0  0  0  0  0  0  0  0  0  0
   -3.3984    0.1151    1.1881 H   0  0  0  0  0  0  0  0  0  0  0  0
   -3.6373    0.2786   -0.5625 H   0  0  0  0  0  0  0  0  0  0  0  0
   -3.9233   -1.2620    0.2321 H   0  0  0  0  0  0  0  0  0  0  0  0
   -0.8205   -2.2072   -1.4259 H   0  0  0  0  0  0  0  0  0  0  0  0
   -2.4951   -2.5782   -1.0797 H   0  0  0  0  0  0  0  0  0  0  0  0
   -2.1068   -1.2350   -2.1651 H   0  0  0  0  0  0  0  0  0  0  0  0
   -2.9892   -2.6145    1.7113 H   0  0  0  0  0  0  0  0  0  0  0  0
   -1.9182   -4.1179    3.3224 H   0  0  0  0  0  0  0  0  0  0  0  0
    0.5424   -4.0438    3.6787 H   0  0  0  0  0  0  0  0  0  0  0  0
    0.8946   -0.8417    0.9198 H   0  0  0  0  0  0  0  0  0  0  0  0
   -2.0071    1.8011    1.0555 H   0  0  0  0  0  0  0  0  0  0  0  0
    0.9778    2.8410    2.9820 H   0  0  0  0  0  0  0  0  0  0  0  0
   -0.0108    4.1230    3.6434 H   0  0  0  0  0  0  0  0  0  0  0  0
    1.7455    4.3573    3.4977 H   0  0  0  0  0  0  0  0  0  0  0  0
    1.1242    6.6338    1.8889 H   0  0  0  0  0  0  0  0  0  0  0  0
   -0.4439    6.1320    2.4986 H   0  0  0  0  0  0  0  0  0  0  0  0
   -0.2269    6.3148    0.7725 H   0  0  0  0  0  0  0  0  0  0  0  0
    2.9415    1.4676   -1.1076 H   0  0  0  0  0  0  0  0  0  0  0  0
  1  2  1  0  0  0  0
  1 29  1  0  0  0  0
  1 30  1  0  0  0  0
  1 31  1  0  0  0  0
  2  7  1  0  0  0  0
  2  3  2  0  0  0  0
  3  4  1  0  0  0  0
  3 32  1  0  0  0  0
  4 33  1  0  0  0  0
  4 34  1  0  0  0  0
  5  4  1  0  0  0  0
  5  6  1  0  0  0  0
  5 25  1  0  0  0  0
  5 35  1  1  0  0  0
  6  7  1  0  0  0  0
  6  8  1  0  0  0  0
  6 36  1  6  0  0  0
  7 37  1  0  0  0  0
  7 38  1  0  0  0  0
  8 23  2  0  0  0  0
  8  9  1  0  0  0  0
  9 10  2  0  0  0  0
  9 28  1  0  0  0  0
 10 11  1  0  0  0  0
 10 39  1  0  0  0  0
 11 12  1  0  0  0  0
 11 22  2  0  0  0  0
 12 13  1  0  0  0  0
 12 14  1  0  0  0  0
 12 15  1  0  0  0  0
 13 40  1  0  0  0  0
 13 41  1  0  0  0  0
 13 42  1  0  0  0  0
 14 43  1  0  0  0  0
 14 44  1  0  0  0  0
 14 45  1  0  0  0  0
 15 20  2  0  0  0  0
 15 16  1  0  0  0  0
 16 17  2  0  0  0  0
 16 46  1  0  0  0  0
 17 18  1  0  0  0  0
 17 47  1  0  0  0  0
 18 19  2  0  0  0  0
 18 48  1  0  0  0  0
 19 20  1  0  0  0  0
 19 21  1  0  0  0  0
 20 49  1  0  0  0  0
 22 23  1  0  0  0  0
 22 50  1  0  0  0  0
 23 24  1  0  0  0  0
 24 25  1  0  0  0  0
 25 26  1  0  0  0  0
 25 27  1  0  0  0  0
 26 51  1  0  0  0  0
 26 52  1  0  0  0  0
 26 53  1  0  0  0  0
 27 54  1  0  0  0  0
 27 55  1  0  0  0  0
 27 56  1  0  0  0  0
 28 57  1  0  0  0  0
M  END
$$$$
CHEMBL487464
 OpenBabel12022418073D

 57 60  0  0  1  0  0  0  0  0999 V2000
    2.1389    1.8900   -0.1760 C   0  0  0  0  0  0  0  0  0  0  0  0
    3.3437    1.3603   -0.8947 C   0  0  0  0  0  0  0  0  0  0  0  0
    3.4652    0.0380   -1.0921 C   0  0  0  0  0  0  0  0  0  0  0  0
    4.7317   -0.4996   -1.6361 C   0  0  0  0  0  0  0  0  0  0  0  0
    5.2827    0.3095   -2.8164 C   0  0  1  0  0  0  0  0  0  0  0  0
    4.9113    1.8310   -2.8290 C   0  0  1  0  0  0  0  0  0  0  0  0
    4.4430    2.2962   -1.4111 C   0  0  0  0  0  0  0  0  0  0  0  0
    5.8699    2.6100   -3.7461 C   0  0  0  0  0  0  0  0  0  0  0  0
    5.7308    3.9542   -4.1176 C   0  0  0  0  0  0  0  0  0  0  0  0
    6.3785    4.4937   -5.2568 C   0  0  0  0  0  0  0  0  0  0  0  0
    7.1756    3.7065   -6.1047 C   0  0  0  0  0  0  0  0  0  0  0  0
    7.7421    4.2032   -7.4617 C   0  0  0  0  0  0  0  0  0  0  0  0
    7.8611    3.0378   -8.4979 C   0  0  0  0  0  0  0  0  0  0  0  0
    6.7175    5.1696   -8.1251 C   0  0  0  0  0  0  0  0  0  0  0  0
    9.1473    4.8307   -7.2955 C   0  0  0  0  0  0  0  0  0  0  0  0
    9.4299    6.1638   -7.6451 C   0  0  0  0  0  0  0  0  0  0  0  0
   10.7152    6.7005   -7.5025 C   0  0  0  0  0  0  0  0  0  0  0  0
   11.7534    5.9166   -7.0086 C   0  0  0  0  0  0  0  0  0  0  0  0
   11.5027    4.5934   -6.6682 C   0  0  0  0  0  0  0  0  0  0  0  0
   10.2215    4.0537   -6.8102 C   0  0  0  0  0  0  0  0  0  0  0  0
   12.9085    3.5120   -6.0111 Br  0  0  0  0  0  0  0  0  0  0  0  0
    7.4124    2.4062   -5.6630 C   0  0  0  0  0  0  0  0  0  0  0  0
    6.7947    1.8832   -4.5185 C   0  0  0  0  0  0  0  0  0  0  0  0
    7.1497    0.5795   -4.2979 O   0  0  0  0  0  0  0  0  0  0  0  0
    6.7896    0.0547   -3.0243 C   0  0  0  0  0  0  0  0  0  0  0  0
    7.7373    0.6306   -1.9536 C   0  0  0  0  0  0  0  0  0  0  0  0
    7.0655   -1.4575   -3.1329 C   0  0  0  0  0  0  0  0  0  0  0  0
    4.9140    4.8322   -3.4621 O   0  0  0  0  0  0  0  0  0  0  0  0
    2.3585    2.0017    0.8917 H   0  0  0  0  0  0  0  0  0  0  0  0
    1.2911    1.1958   -0.2615 H   0  0  0  0  0  0  0  0  0  0  0  0
    1.8072    2.8506   -0.5773 H   0  0  0  0  0  0  0  0  0  0  0  0
    2.6945   -0.6609   -0.7881 H   0  0  0  0  0  0  0  0  0  0  0  0
    4.5769   -1.5397   -1.9457 H   0  0  0  0  0  0  0  0  0  0  0  0
    5.4433   -0.5300   -0.8029 H   0  0  0  0  0  0  0  0  0  0  0  0
    4.7793   -0.0888   -3.7146 H   0  0  0  0  0  0  0  0  0  0  0  0
    3.9775    1.8814   -3.4154 H   0  0  0  0  0  0  0  0  0  0  0  0
    5.2765    2.3100   -0.6981 H   0  0  0  0  0  0  0  0  0  0  0  0
    4.0312    3.3082   -1.4420 H   0  0  0  0  0  0  0  0  0  0  0  0
    6.2007    5.5428   -5.4853 H   0  0  0  0  0  0  0  0  0  0  0  0
    6.8931    2.5433   -8.6507 H   0  0  0  0  0  0  0  0  0  0  0  0
    8.5768    2.2616   -8.2073 H   0  0  0  0  0  0  0  0  0  0  0  0
    8.2011    3.4083   -9.4735 H   0  0  0  0  0  0  0  0  0  0  0  0
    5.7330    4.6951   -8.2262 H   0  0  0  0  0  0  0  0  0  0  0  0
    7.0395    5.4574   -9.1337 H   0  0  0  0  0  0  0  0  0  0  0  0
    6.5767    6.0976   -7.5611 H   0  0  0  0  0  0  0  0  0  0  0  0
    8.6623    6.8200   -8.0465 H   0  0  0  0  0  0  0  0  0  0  0  0
   10.9024    7.7349   -7.7807 H   0  0  0  0  0  0  0  0  0  0  0  0
   12.7459    6.3432   -6.8964 H   0  0  0  0  0  0  0  0  0  0  0  0
   10.0670    3.0114   -6.5439 H   0  0  0  0  0  0  0  0  0  0  0  0
    8.0592    1.7320   -6.2179 H   0  0  0  0  0  0  0  0  0  0  0  0
    7.7304    1.7250   -1.9209 H   0  0  0  0  0  0  0  0  0  0  0  0
    8.7741    0.3526   -2.1821 H   0  0  0  0  0  0  0  0  0  0  0  0
    7.5068    0.2610   -0.9514 H   0  0  0  0  0  0  0  0  0  0  0  0
    6.3485   -1.9332   -3.8115 H   0  0  0  0  0  0  0  0  0  0  0  0
    7.0028   -1.9557   -2.1598 H   0  0  0  0  0  0  0  0  0  0  0  0
    8.0602   -1.6462   -3.5507 H   0  0  0  0  0  0  0  0  0  0  0  0
    4.9253    4.6075   -2.5213 H   0  0  0  0  0  0  0  0  0  0  0  0
  1  2  1  0  0  0  0
  1 29  1  0  0  0  0
  1 30  1  0  0  0  0
  1 31  1  0  0  0  0
  2  7  1  0  0  0  0
  2  3  2  0  0  0  0
  3  4  1  0  0  0  0
  3 32  1  0  0  0  0
  4 33  1  0  0  0  0
  4 34  1  0  0  0  0
  5  4  1  0  0  0  0
  5  6  1  0  0  0  0
  5 25  1  0  0  0  0
  5 35  1  6  0  0  0
  6  7  1  0  0  0  0
  6  8  1  0  0  0  0
  6 36  1  6  0  0  0
  7 37  1  0  0  0  0
  7 38  1  0  0  0  0
  8 23  2  0  0  0  0
  8  9  1  0  0  0  0
  9 10  2  0  0  0  0
  9 28  1  0  0  0  0
 10 11  1  0  0  0  0
 10 39  1  0  0  0  0
 11 12  1  0  0  0  0
 11 22  2  0  0  0  0
 12 13  1  0  0  0  0
 12 14  1  0  0  0  0
 12 15  1  0  0  0  0
 13 40  1  0  0  0  0
 13 41  1  0  0  0  0
 13 42  1  0  0  0  0
 14 43  1  0  0  0  0
 14 44  1  0  0  0  0
 14 45  1  0  0  0  0
 15 20  2  0  0  0  0
 15 16  1  0  0  0  0
 16 17  2  0  0  0  0
 16 46  1  0  0  0  0
 17 18  1  0  0  0  0
 17 47  1  0  0  0  0
 18 19  2  0  0  0  0
 18 48  1  0  0  0  0
 19 20  1  0  0  0  0
 19 21  1  0  0  0  0
 20 49  1  0  0  0  0
 22 23  1  0  0  0  0
 22 50  1  0  0  0  0
 23 24  1  0  0  0  0
 24 25  1  0  0  0  0
 25 26  1  0  0  0  0
 25 27  1  0  0  0  0
 26 51  1  0  0  0  0
 26 52  1  0  0  0  0
 26 53  1  0  0  0  0
 27 54  1  0  0  0  0
 27 55  1  0  0  0  0
 27 56  1  0  0  0  0
 28 57  1  0  0  0  0
M  END
$$$$
CHEMBL432107
 OpenBabel12022418073D

 66 68  0  0  1  0  0  0  0  0999 V2000
    5.8564    8.8279   -4.9583 C   0  0  0  0  0  0  0  0  0  0  0  0
    5.6187    8.7301   -3.4593 C   0  0  0  0  0  0  0  0  0  0  0  0
    4.7374    7.5303   -3.1301 C   0  0  0  0  0  0  0  0  0  0  0  0
    4.4672    7.4186   -1.6306 C   0  0  0  0  0  0  0  0  0  0  0  0
    3.5612    6.2196   -1.3547 C   0  0  0  0  0  0  0  0  0  0  0  0
    3.2598    6.0642    0.1393 C   0  0  0  0  0  0  0  0  0  0  0  0
    2.4786    4.7756    0.4939 C   0  0  0  0  0  0  0  0  0  0  0  0
    3.3335    3.5339    0.0984 C   0  0  0  0  0  0  0  0  0  0  0  0
    2.3366    4.6760    2.0368 C   0  0  0  0  0  0  0  0  0  0  0  0
    1.0564    4.7533   -0.1005 C   0  0  0  0  0  0  0  0  0  0  0  0
    0.0236    5.5871    0.3888 C   0  0  0  0  0  0  0  0  0  0  0  0
   -1.3321    5.2930    0.1592 C   0  0  0  0  0  0  0  0  0  0  0  0
   -1.7047    4.1563   -0.5578 C   0  0  0  0  0  0  0  0  0  0  0  0
   -0.6443    3.4154   -1.1233 C   0  0  0  0  0  0  0  0  0  0  0  0
    0.6931    3.7450   -0.9837 C   0  0  0  0  0  0  0  0  0  0  0  0
   -0.8512    2.1217   -1.5727 O   0  0  0  0  0  0  0  0  0  0  0  0
   -1.6250    1.4223   -0.5840 C   0  0  0  0  0  0  0  0  0  0  0  0
   -1.6126   -0.0691   -0.9083 C   0  0  0  0  0  0  0  0  0  0  0  0
   -1.0156    1.5337    0.8676 C   0  0  0  0  0  0  0  0  0  0  0  0
   -3.0196    2.0170   -0.5917 C   0  0  2  0  0  0  0  0  0  0  0  0
   -4.0623    1.5040   -1.6040 C   0  0  0  0  0  0  0  0  0  0  0  0
   -5.4275    1.9838   -1.1000 C   0  0  0  0  0  0  0  0  0  0  0  0
   -5.4230    2.8479   -0.0529 C   0  0  0  0  0  0  0  0  0  0  0  0
   -5.8531    2.1680    1.2428 C   0  0  0  0  0  0  0  0  0  0  0  0
   -4.9837    2.4860    2.3199 O   0  0  0  0  0  0  0  0  0  0  0  0
   -4.3718    3.9903    0.0066 C   0  0  0  0  0  0  0  0  0  0  0  0
   -3.0775    3.5687   -0.7500 C   0  0  1  0  0  0  0  0  0  0  0  0
   -2.2983    6.0556    0.7644 O   0  0  0  0  0  0  0  0  0  0  0  0
    6.4026    7.9539   -5.3243 H   0  0  0  0  0  0  0  0  0  0  0  0
    6.4426    9.7203   -5.1932 H   0  0  0  0  0  0  0  0  0  0  0  0
    4.9069    8.8903   -5.5017 H   0  0  0  0  0  0  0  0  0  0  0  0
    5.1411    9.6508   -3.1068 H   0  0  0  0  0  0  0  0  0  0  0  0
    6.5822    8.6427   -2.9437 H   0  0  0  0  0  0  0  0  0  0  0  0
    5.2210    6.6120   -3.4862 H   0  0  0  0  0  0  0  0  0  0  0  0
    3.7841    7.6186   -3.6654 H   0  0  0  0  0  0  0  0  0  0  0  0
    3.9946    8.3362   -1.2619 H   0  0  0  0  0  0  0  0  0  0  0  0
    5.4159    7.2991   -1.0928 H   0  0  0  0  0  0  0  0  0  0  0  0
    2.6244    6.3300   -1.9111 H   0  0  0  0  0  0  0  0  0  0  0  0
    4.0643    5.3275   -1.7418 H   0  0  0  0  0  0  0  0  0  0  0  0
    2.7151    6.9490    0.4901 H   0  0  0  0  0  0  0  0  0  0  0  0
    4.2138    6.0562    0.6850 H   0  0  0  0  0  0  0  0  0  0  0  0
    3.4810    3.4441   -0.9862 H   0  0  0  0  0  0  0  0  0  0  0  0
    2.8613    2.6003    0.4316 H   0  0  0  0  0  0  0  0  0  0  0  0
    4.3255    3.5763    0.5527 H   0  0  0  0  0  0  0  0  0  0  0  0
    1.8191    3.7494    2.3209 H   0  0  0  0  0  0  0  0  0  0  0  0
    1.7670    5.5086    2.4618 H   0  0  0  0  0  0  0  0  0  0  0  0
    3.3159    4.6710    2.5269 H   0  0  0  0  0  0  0  0  0  0  0  0
    0.2805    6.4393    1.0139 H   0  0  0  0  0  0  0  0  0  0  0  0
    1.4150    3.0581   -1.4177 H   0  0  0  0  0  0  0  0  0  0  0  0
   -2.3068   -0.6127   -0.2545 H   0  0  0  0  0  0  0  0  0  0  0  0
   -1.8784   -0.2583   -1.9496 H   0  0  0  0  0  0  0  0  0  0  0  0
   -0.6131   -0.4888   -0.7539 H   0  0  0  0  0  0  0  0  0  0  0  0
   -1.1490    2.5153    1.3269 H   0  0  0  0  0  0  0  0  0  0  0  0
    0.0646    1.3386    0.8582 H   0  0  0  0  0  0  0  0  0  0  0  0
   -1.4973    0.8269    1.5499 H   0  0  0  0  0  0  0  0  0  0  0  0
   -3.3788    1.7347    0.4083 H   0  0  0  0  0  0  0  0  0  0  0  0
   -3.8798    1.8439   -2.6324 H   0  0  0  0  0  0  0  0  0  0  0  0
   -4.0959    0.4114   -1.6138 H   0  0  0  0  0  0  0  0  0  0  0  0
   -6.1692    1.2040   -1.1555 H   0  0  0  0  0  0  0  0  0  0  0  0
   -6.8927    2.3438    1.5172 H   0  0  0  0  0  0  0  0  0  0  0  0
   -5.7220    1.0769    1.1317 H   0  0  0  0  0  0  0  0  0  0  0  0
   -5.3902    3.2408    2.7834 H   0  0  0  0  0  0  0  0  0  0  0  0
   -4.1386    4.2680    1.0397 H   0  0  0  0  0  0  0  0  0  0  0  0
   -4.7964    4.8857   -0.4614 H   0  0  0  0  0  0  0  0  0  0  0  0
   -3.2782    3.8138   -1.8028 H   0  0  0  0  0  0  0  0  0  0  0  0
   -1.8939    6.5188    1.5081 H   0  0  0  0  0  0  0  0  0  0  0  0
  1  2  1  0  0  0  0
  1 29  1  0  0  0  0
  1 30  1  0  0  0  0
  1 31  1  0  0  0  0
  2  3  1  0  0  0  0
  2 32  1  0  0  0  0
  2 33  1  0  0  0  0
  3  4  1  0  0  0  0
  3 34  1  0  0  0  0
  3 35  1  0  0  0  0
  4  5  1  0  0  0  0
  4 36  1  0  0  0  0
  4 37  1  0  0  0  0
  5  6  1  0  0  0  0
  5 38  1  0  0  0  0
  5 39  1  0  0  0  0
  6  7  1  0  0  0  0
  6 40  1  0  0  0  0
  6 41  1  0  0  0  0
  7  8  1  0  0  0  0
  7  9  1  0  0  0  0
  7 10  1  0  0  0  0
  8 42  1  0  0  0  0
  8 43  1  0  0  0  0
  8 44  1  0  0  0  0
  9 45  1  0  0  0  0
  9 46  1  0  0  0  0
  9 47  1  0  0  0  0
 10 15  2  0  0  0  0
 10 11  1  0  0  0  0
 11 12  2  0  0  0  0
 11 48  1  0  0  0  0
 12 13  1  0  0  0  0
 12 28  1  0  0  0  0
 13 27  1  0  0  0  0
 13 14  2  0  0  0  0
 14 15  1  0  0  0  0
 14 16  1  0  0  0  0
 15 49  1  0  0  0  0
 16 17  1  0  0  0  0
 17 18  1  0  0  0  0
 17 19  1  0  0  0  0
 17 20  1  0  0  0  0
 18 50  1  0  0  0  0
 18 51  1  0  0  0  0
 18 52  1  0  0  0  0
 19 53  1  0  0  0  0
 19 54  1  0  0  0  0
 19 55  1  0  0  0  0
 20 21  1  0  0  0  0
 20 27  1  0  0  0  0
 20 56  1  1  0  0  0
 21 22  1  0  0  0  0
 21 57  1  0  0  0  0
 21 58  1  0  0  0  0
 22 23  2  0  0  0  0
 22 59  1  0  0  0  0
 23 24  1  0  0  0  0
 23 26  1  0  0  0  0
 24 25  1  0  0  0  0
 24 60  1  0  0  0  0
 24 61  1  0  0  0  0
 25 62  1  0  0  0  0
 26 63  1  0  0  0  0
 26 64  1  0  0  0  0
 27 26  1  0  0  0  0
 27 65  1  6  0  0  0
 28 66  1  0  0  0  0
M  END
$$$$
CHEMBL1259244
 OpenBabel12022418083D

 67 70  0  0  1  0  0  0  0  0999 V2000
    6.2956    7.7166   -8.6940 C   0  0  0  0  0  0  0  0  0  0  0  0
    6.1639    7.7792   -7.1821 C   0  0  0  0  0  0  0  0  0  0  0  0
    6.5157    6.4416   -6.5470 C   0  0  0  0  0  0  0  0  0  0  0  0
    6.3721    6.4764   -5.0186 C   0  0  0  0  0  0  0  0  0  0  0  0
    6.7732    5.1135   -4.4709 C   0  0  0  0  0  0  0  0  0  0  0  0
    6.7365    4.9696   -2.9440 C   0  0  0  0  0  0  0  0  0  0  0  0
    7.1381    3.5546   -2.3910 C   0  0  0  0  0  0  0  0  0  0  0  0
    8.6063    3.2165   -2.7250 C   0  0  0  0  0  0  0  0  0  0  0  0
    8.9885    3.0225   -4.0597 C   0  0  0  0  0  0  0  0  0  0  0  0
   10.3127    2.8179   -4.4341 C   0  0  0  0  0  0  0  0  0  0  0  0
   11.3083    2.6134   -3.4835 C   0  0  0  0  0  0  0  0  0  0  0  0
   10.9429    2.7826   -2.1374 C   0  0  0  0  0  0  0  0  0  0  0  0
    9.6230    3.0985   -1.7701 C   0  0  0  0  0  0  0  0  0  0  0  0
   11.8038    2.6401   -1.0763 O   0  0  0  0  0  0  0  0  0  0  0  0
   13.2053    2.5122   -1.3896 C   0  0  0  0  0  0  0  0  0  0  0  0
   13.8601    1.9128   -0.1326 C   0  0  0  0  0  0  0  0  0  0  0  0
   13.7780    3.9294   -1.5784 C   0  0  0  0  0  0  0  0  0  0  0  0
   13.3714    1.5633   -2.6096 C   0  0  2  0  0  0  0  0  0  0  0  0
   14.8145    1.1020   -2.8800 C   0  0  0  0  0  0  0  0  0  0  0  0
   14.9137    0.1996   -4.1017 C   0  0  0  0  0  0  0  0  0  0  0  0
   14.2797    0.8818   -5.2795 C   0  0  0  0  0  0  0  0  0  0  0  0
   14.8684    1.0155   -6.3444 O   0  0  0  0  0  0  0  0  0  0  0  0
   12.8511    1.3084   -5.0823 C   0  0  0  0  0  0  0  0  0  0  0  0
   12.7312    2.2266   -3.8544 C   0  0  1  0  0  0  0  0  0  0  0  0
   10.6141    2.8369   -5.7642 O   0  0  0  0  0  0  0  0  0  0  0  0
    6.7939    3.4899   -0.8782 C   0  0  0  0  0  0  0  0  0  0  0  0
    6.7203    2.0003   -0.5523 C   0  0  0  0  0  0  0  0  0  0  0  0
    6.2178    1.3402   -1.8322 C   0  0  0  0  0  0  0  0  0  0  0  0
    6.1950    2.4355   -2.9029 C   0  0  0  0  0  0  0  0  0  0  0  0
    6.0367    8.6809   -9.1383 H   0  0  0  0  0  0  0  0  0  0  0  0
    5.6271    6.9565   -9.1157 H   0  0  0  0  0  0  0  0  0  0  0  0
    7.3207    7.4676   -8.9913 H   0  0  0  0  0  0  0  0  0  0  0  0
    5.1375    8.0551   -6.9176 H   0  0  0  0  0  0  0  0  0  0  0  0
    6.8273    8.5593   -6.7928 H   0  0  0  0  0  0  0  0  0  0  0  0
    7.5461    6.1741   -6.8159 H   0  0  0  0  0  0  0  0  0  0  0  0
    5.8689    5.6558   -6.9578 H   0  0  0  0  0  0  0  0  0  0  0  0
    5.3440    6.7185   -4.7351 H   0  0  0  0  0  0  0  0  0  0  0  0
    7.0315    7.2484   -4.6041 H   0  0  0  0  0  0  0  0  0  0  0  0
    7.7969    4.9867   -4.8211 H   0  0  0  0  0  0  0  0  0  0  0  0
    6.1478    4.3398   -4.9309 H   0  0  0  0  0  0  0  0  0  0  0  0
    5.7171    5.2095   -2.6122 H   0  0  0  0  0  0  0  0  0  0  0  0
    7.3925    5.7290   -2.4989 H   0  0  0  0  0  0  0  0  0  0  0  0
    8.2429    3.0469   -4.8471 H   0  0  0  0  0  0  0  0  0  0  0  0
    9.4220    3.2199   -0.7095 H   0  0  0  0  0  0  0  0  0  0  0  0
   13.6267    2.5128    0.7551 H   0  0  0  0  0  0  0  0  0  0  0  0
   14.9509    1.8692   -0.2233 H   0  0  0  0  0  0  0  0  0  0  0  0
   13.4827    0.9047    0.0668 H   0  0  0  0  0  0  0  0  0  0  0  0
   13.7046    4.4999   -0.6434 H   0  0  0  0  0  0  0  0  0  0  0  0
   13.2129    4.5144   -2.3115 H   0  0  0  0  0  0  0  0  0  0  0  0
   14.8281    3.9098   -1.8818 H   0  0  0  0  0  0  0  0  0  0  0  0
   12.7881    0.6523   -2.3910 H   0  0  0  0  0  0  0  0  0  0  0  0
   15.1936    0.5347   -2.0227 H   0  0  0  0  0  0  0  0  0  0  0  0
   15.4669    1.9711   -3.0129 H   0  0  0  0  0  0  0  0  0  0  0  0
   14.3937   -0.7507   -3.9401 H   0  0  0  0  0  0  0  0  0  0  0  0
   15.9635   -0.0184   -4.3303 H   0  0  0  0  0  0  0  0  0  0  0  0
   12.2230    0.4134   -4.9838 H   0  0  0  0  0  0  0  0  0  0  0  0
   12.5678    1.8218   -6.0038 H   0  0  0  0  0  0  0  0  0  0  0  0
   13.2719    3.1524   -4.0913 H   0  0  0  0  0  0  0  0  0  0  0  0
    9.8221    3.0627   -6.2789 H   0  0  0  0  0  0  0  0  0  0  0  0
    5.8016    3.9257   -0.6953 H   0  0  0  0  0  0  0  0  0  0  0  0
    7.4911    4.0296   -0.2314 H   0  0  0  0  0  0  0  0  0  0  0  0
    6.0632    1.8005    0.3001 H   0  0  0  0  0  0  0  0  0  0  0  0
    7.7074    1.6023   -0.2919 H   0  0  0  0  0  0  0  0  0  0  0  0
    5.2176    0.9167   -1.6939 H   0  0  0  0  0  0  0  0  0  0  0  0
    6.8841    0.5204   -2.1230 H   0  0  0  0  0  0  0  0  0  0  0  0
    6.4610    2.0255   -3.8815 H   0  0  0  0  0  0  0  0  0  0  0  0
    5.1689    2.8164   -2.9882 H   0  0  0  0  0  0  0  0  0  0  0  0
  1  2  1  0  0  0  0
  1 30  1  0  0  0  0
  1 31  1  0  0  0  0
  1 32  1  0  0  0  0
  2  3  1  0  0  0  0
  2 33  1  0  0  0  0
  2 34  1  0  0  0  0
  3  4  1  0  0  0  0
  3 35  1  0  0  0  0
  3 36  1  0  0  0  0
  4  5  1  0  0  0  0
  4 37  1  0  0  0  0
  4 38  1  0  0  0  0
  5  6  1  0  0  0  0
  5 39  1  0  0  0  0
  5 40  1  0  0  0  0
  6  7  1  0  0  0  0
  6 41  1  0  0  0  0
  6 42  1  0  0  0  0
  7 29  1  0  0  0  0
  7  8  1  0  0  0  0
  7 26  1  0  0  0  0
  8 13  2  0  0  0  0
  8  9  1  0  0  0  0
  9 10  2  0  0  0  0
  9 43  1  0  0  0  0
 10 11  1  0  0  0  0
 10 25  1  0  0  0  0
 11 24  1  0  0  0  0
 11 12  2  0  0  0  0
 12 13  1  0  0  0  0
 12 14  1  0  0  0  0
 13 44  1  0  0  0  0
 14 15  1  0  0  0  0
 15 16  1  0  0  0  0
 15 17  1  0  0  0  0
 15 18  1  0  0  0  0
 16 45  1  0  0  0  0
 16 46  1  0  0  0  0
 16 47  1  0  0  0  0
 17 48  1  0  0  0  0
 17 49  1  0  0  0  0
 17 50  1  0  0  0  0
 18 19  1  0  0  0  0
 18 24  1  0  0  0  0
 18 51  1  1  0  0  0
 19 20  1  0  0  0  0
 19 52  1  0  0  0  0
 19 53  1  0  0  0  0
 20 21  1  0  0  0  0
 20 54  1  0  0  0  0
 20 55  1  0  0  0  0
 21 22  2  0  0  0  0
 21 23  1  0  0  0  0
 23 56  1  0  0  0  0
 23 57  1  0  0  0  0
 24 23  1  0  0  0  0
 24 58  1  6  0  0  0
 25 59  1  0  0  0  0
 26 27  1  0  0  0  0
 26 60  1  0  0  0  0
 26 61  1  0  0  0  0
 27 28  1  0  0  0  0
 27 62  1  0  0  0  0
 27 63  1  0  0  0  0
 28 29  1  0  0  0  0
 28 64  1  0  0  0  0
 28 65  1  0  0  0  0
 29 66  1  0  0  0  0
 29 67  1  0  0  0  0
M  END
$$$$
CHEMBL19847
 OpenBabel12022418083D

 63 66  0  0  1  0  0  0  0  0999 V2000
    0.1431   -2.9209   -8.1995 C   0  0  0  0  0  0  0  0  0  0  0  0
    0.8961   -1.8105   -7.4862 C   0  0  0  0  0  0  0  0  0  0  0  0
    0.7192   -1.9060   -5.9730 C   0  0  0  0  0  0  0  0  0  0  0  0
    1.4970   -0.8089   -5.2506 C   0  0  0  0  0  0  0  0  0  0  0  0
    1.2659   -0.8807   -3.7417 C   0  0  0  0  0  0  0  0  0  0  0  0
    2.0985    0.1740   -3.0120 C   0  0  0  0  0  0  0  0  0  0  0  0
    1.8887    0.1514   -1.5069 C   0  0  0  0  0  0  0  0  0  0  0  0
    0.7041    0.9505   -0.9987 C   0  0  0  0  0  0  0  0  0  0  0  0
    0.7863    2.3297   -0.7532 C   0  0  0  0  0  0  0  0  0  0  0  0
   -0.2678    3.0059   -0.1316 C   0  0  0  0  0  0  0  0  0  0  0  0
   -1.4633    2.3564    0.1864 C   0  0  0  0  0  0  0  0  0  0  0  0
   -1.6305    1.1231   -0.4337 C   0  0  0  0  0  0  0  0  0  0  0  0
   -0.5440    0.3541   -0.8504 C   0  0  0  0  0  0  0  0  0  0  0  0
   -2.8342    0.7601   -0.9790 O   0  0  0  0  0  0  0  0  0  0  0  0
   -3.6874    1.9271   -1.2775 C   0  0  0  0  0  0  0  0  0  0  0  0
   -4.9787    1.2788   -1.8002 C   0  0  0  0  0  0  0  0  0  0  0  0
   -3.0836    2.8213   -2.3789 C   0  0  0  0  0  0  0  0  0  0  0  0
   -3.9289    2.5888    0.0514 C   0  0  2  0  0  0  0  0  0  0  0  0
   -4.9509    3.6852    0.3521 C   0  0  0  0  0  0  0  0  0  0  0  0
   -5.3644    3.4165    1.7965 C   0  0  0  0  0  0  0  0  0  0  0  0
   -4.5622    2.6259    2.5652 C   0  0  0  0  0  0  0  0  0  0  0  0
   -5.2073    1.3046    2.9751 C   0  0  0  0  0  0  0  0  0  0  0  0
   -3.0208    2.5862    2.3092 C   0  0  0  0  0  0  0  0  0  0  0  0
   -2.6673    2.9895    0.8375 C   0  0  1  0  0  0  0  0  0  0  0  0
   -0.2129    4.3767   -0.0439 O   0  0  0  0  0  0  0  0  0  0  0  0
    3.1296    0.1095   -0.6319 C   0  0  0  0  0  0  0  0  0  0  0  0
    2.2584   -1.1024   -0.7268 C   0  0  0  0  0  0  0  0  0  0  0  0
    0.7233   -3.8493   -8.1867 H   0  0  0  0  0  0  0  0  0  0  0  0
   -0.8254   -3.1175   -7.7288 H   0  0  0  0  0  0  0  0  0  0  0  0
   -0.0357   -2.6482   -9.2444 H   0  0  0  0  0  0  0  0  0  0  0  0
    1.9605   -1.8653   -7.7500 H   0  0  0  0  0  0  0  0  0  0  0  0
    0.5280   -0.8392   -7.8344 H   0  0  0  0  0  0  0  0  0  0  0  0
   -0.3465   -1.8175   -5.7268 H   0  0  0  0  0  0  0  0  0  0  0  0
    1.0518   -2.8896   -5.6201 H   0  0  0  0  0  0  0  0  0  0  0  0
    2.5668   -0.9132   -5.4683 H   0  0  0  0  0  0  0  0  0  0  0  0
    1.1846    0.1752   -5.6218 H   0  0  0  0  0  0  0  0  0  0  0  0
    1.5304   -1.8810   -3.3799 H   0  0  0  0  0  0  0  0  0  0  0  0
    0.2004   -0.7397   -3.5281 H   0  0  0  0  0  0  0  0  0  0  0  0
    1.8527    1.1707   -3.4015 H   0  0  0  0  0  0  0  0  0  0  0  0
    3.1584    0.0117   -3.2435 H   0  0  0  0  0  0  0  0  0  0  0  0
    1.6791    2.8629   -1.0634 H   0  0  0  0  0  0  0  0  0  0  0  0
   -0.7126   -0.6669   -1.1822 H   0  0  0  0  0  0  0  0  0  0  0  0
   -5.3847    0.5795   -1.0592 H   0  0  0  0  0  0  0  0  0  0  0  0
   -5.7468    2.0248   -2.0269 H   0  0  0  0  0  0  0  0  0  0  0  0
   -4.7824    0.6854   -2.6989 H   0  0  0  0  0  0  0  0  0  0  0  0
   -2.3264    2.2872   -2.9618 H   0  0  0  0  0  0  0  0  0  0  0  0
   -3.8535    3.1838   -3.0654 H   0  0  0  0  0  0  0  0  0  0  0  0
   -2.6073    3.7137   -1.9588 H   0  0  0  0  0  0  0  0  0  0  0  0
   -4.3112    1.6791    0.5423 H   0  0  0  0  0  0  0  0  0  0  0  0
   -4.5510    4.7014    0.2529 H   0  0  0  0  0  0  0  0  0  0  0  0
   -5.8284    3.5986   -0.2975 H   0  0  0  0  0  0  0  0  0  0  0  0
   -6.4450    3.3741    1.9359 H   0  0  0  0  0  0  0  0  0  0  0  0
   -5.8425    1.3881    3.8590 H   0  0  0  0  0  0  0  0  0  0  0  0
   -4.4730    0.5125    3.1129 H   0  0  0  0  0  0  0  0  0  0  0  0
   -5.8473    0.9456    2.1457 H   0  0  0  0  0  0  0  0  0  0  0  0
   -2.6304    1.5842    2.5257 H   0  0  0  0  0  0  0  0  0  0  0  0
   -2.5303    3.2637    3.0183 H   0  0  0  0  0  0  0  0  0  0  0  0
   -2.5233    4.0755    0.8186 H   0  0  0  0  0  0  0  0  0  0  0  0
    0.3433    4.6988   -0.7705 H   0  0  0  0  0  0  0  0  0  0  0  0
    3.1261    0.6611    0.3019 H   0  0  0  0  0  0  0  0  0  0  0  0
    4.1025    0.0665   -1.1065 H   0  0  0  0  0  0  0  0  0  0  0  0
    1.6683   -1.3654    0.1463 H   0  0  0  0  0  0  0  0  0  0  0  0
    2.6302   -1.9638   -1.2675 H   0  0  0  0  0  0  0  0  0  0  0  0
  1  2  1  0  0  0  0
  1 28  1  0  0  0  0
  1 29  1  0  0  0  0
  1 30  1  0  0  0  0
  2  3  1  0  0  0  0
  2 31  1  0  0  0  0
  2 32  1  0  0  0  0
  3  4  1  0  0  0  0
  3 33  1  0  0  0  0
  3 34  1  0  0  0  0
  4  5  1  0  0  0  0
  4 35  1  0  0  0  0
  4 36  1  0  0  0  0
  5  6  1  0  0  0  0
  5 37  1  0  0  0  0
  5 38  1  0  0  0  0
  6  7  1  0  0  0  0
  6 39  1  0  0  0  0
  6 40  1  0  0  0  0
  7 27  1  0  0  0  0
  7  8  1  0  0  0  0
  7 26  1  0  0  0  0
  8 13  2  0  0  0  0
  8  9  1  0  0  0  0
  9 10  2  0  0  0  0
  9 41  1  0  0  0  0
 10 11  1  0  0  0  0
 10 25  1  0  0  0  0
 11 24  1  0  0  0  0
 11 12  2  0  0  0  0
 12 13  1  0  0  0  0
 12 14  1  0  0  0  0
 13 42  1  0  0  0  0
 14 15  1  0  0  0  0
 15 16  1  0  0  0  0
 15 17  1  0  0  0  0
 15 18  1  0  0  0  0
 16 43  1  0  0  0  0
 16 44  1  0  0  0  0
 16 45  1  0  0  0  0
 17 46  1  0  0  0  0
 17 47  1  0  0  0  0
 17 48  1  0  0  0  0
 18 19  1  0  0  0  0
 18 24  1  0  0  0  0
 18 49  1  1  0  0  0
 19 20  1  0  0  0  0
 19 50  1  0  0  0  0
 19 51  1  0  0  0  0
 20 21  2  0  0  0  0
 20 52  1  0  0  0  0
 21 22  1  0  0  0  0
 21 23  1  0  0  0  0
 22 53  1  0  0  0  0
 22 54  1  0  0  0  0
 22 55  1  0  0  0  0
 23 56  1  0  0  0  0
 23 57  1  0  0  0  0
 24 23  1  0  0  0  0
 24 58  1  6  0  0  0
 25 59  1  0  0  0  0
 26 27  1  0  0  0  0
 26 60  1  0  0  0  0
 26 61  1  0  0  0  0
 27 62  1  0  0  0  0
 27 63  1  0  0  0  0
M  END
$$$$
CHEMBL108868
 OpenBabel12022418083D

 69 72  0  0  1  0  0  0  0  0999 V2000
   -0.5678   -4.9962    7.3313 C   0  0  0  0  0  0  0  0  0  0  0  0
    0.5999   -4.2564    6.6967 C   0  0  0  0  0  0  0  0  0  0  0  0
    0.2028   -3.6320    5.3609 C   0  0  0  0  0  0  0  0  0  0  0  0
    1.3801   -2.8997    4.7134 C   0  0  0  0  0  0  0  0  0  0  0  0
    0.9811   -2.3192    3.3512 C   0  0  0  0  0  0  0  0  0  0  0  0
    2.1461   -1.5492    2.7123 C   0  0  0  0  0  0  0  0  0  0  0  0
    1.8573   -0.7927    1.3920 C   0  0  0  0  0  0  0  0  0  0  0  0
    0.6208    0.1299    1.4961 C   0  0  0  0  0  0  0  0  0  0  0  0
    0.6850    1.5236    1.3754 C   0  0  0  0  0  0  0  0  0  0  0  0
   -0.4516    2.2439    0.9685 C   0  0  0  0  0  0  0  0  0  0  0  0
   -1.7060    1.6531    0.8106 C   0  0  0  0  0  0  0  0  0  0  0  0
   -1.6297    0.2803    0.6993 C   0  0  0  0  0  0  0  0  0  0  0  0
   -0.6235   -0.4676    1.2836 C   0  0  0  0  0  0  0  0  0  0  0  0
   -2.1667   -0.3771   -0.3964 O   0  0  0  0  0  0  0  0  0  0  0  0
   -2.8074    0.4365   -1.4183 C   0  0  0  0  0  0  0  0  0  0  0  0
   -3.8004   -0.5942   -2.0046 C   0  0  0  0  0  0  0  0  0  0  0  0
   -1.8721    0.9516   -2.5107 C   0  0  0  0  0  0  0  0  0  0  0  0
   -3.5974    1.5172   -0.7128 C   0  0  2  0  0  0  0  0  0  0  0  0
   -4.5480    2.4674   -1.4414 C   0  0  0  0  0  0  0  0  0  0  0  0
   -5.7969    2.3450   -0.6056 C   0  0  0  0  0  0  0  0  0  0  0  0
   -5.6424    2.1375    0.7277 C   0  0  0  0  0  0  0  0  0  0  0  0
   -6.5653    1.1327    1.3608 C   0  0  0  0  0  0  0  0  0  0  0  0
   -4.2448    2.4130    1.4243 C   0  0  0  0  0  0  0  0  0  0  0  0
   -2.9923    2.3299    0.4159 C   0  0  1  0  0  0  0  0  0  0  0  0
   -0.1896    3.4161    0.2847 O   0  0  0  0  0  0  0  0  0  0  0  0
    1.6989   -1.6988    0.1318 C   0  0  0  0  0  0  0  0  0  0  0  0
    1.8962   -0.7155   -1.0299 C   0  0  0  0  0  0  0  0  0  0  0  0
    3.0019    0.2214   -0.5529 C   0  0  0  0  0  0  0  0  0  0  0  0
    3.1619   -0.0682    0.9472 C   0  0  0  0  0  0  0  0  0  0  0  0
   -0.2078   -5.6801    8.1061 H   0  0  0  0  0  0  0  0  0  0  0  0
   -1.1207   -5.5828    6.5905 H   0  0  0  0  0  0  0  0  0  0  0  0
   -1.2637   -4.2916    7.7977 H   0  0  0  0  0  0  0  0  0  0  0  0
    0.9572   -3.4832    7.3879 H   0  0  0  0  0  0  0  0  0  0  0  0
    1.4279   -4.9571    6.5397 H   0  0  0  0  0  0  0  0  0  0  0  0
   -0.6316   -2.9360    5.5124 H   0  0  0  0  0  0  0  0  0  0  0  0
   -0.1519   -4.4181    4.6831 H   0  0  0  0  0  0  0  0  0  0  0  0
    2.2266   -3.5841    4.5913 H   0  0  0  0  0  0  0  0  0  0  0  0
    1.7078   -2.0897    5.3761 H   0  0  0  0  0  0  0  0  0  0  0  0
    0.6496   -3.1185    2.6834 H   0  0  0  0  0  0  0  0  0  0  0  0
    0.1317   -1.6489    3.5284 H   0  0  0  0  0  0  0  0  0  0  0  0
    2.5199   -0.8224    3.4390 H   0  0  0  0  0  0  0  0  0  0  0  0
    2.9689   -2.2588    2.5484 H   0  0  0  0  0  0  0  0  0  0  0  0
    1.6338    2.0487    1.4208 H   0  0  0  0  0  0  0  0  0  0  0  0
   -0.7268   -1.5485    1.2479 H   0  0  0  0  0  0  0  0  0  0  0  0
   -4.5196   -0.1440   -2.6854 H   0  0  0  0  0  0  0  0  0  0  0  0
   -4.3483   -1.0885   -1.1871 H   0  0  0  0  0  0  0  0  0  0  0  0
   -3.2590   -1.4003   -2.5109 H   0  0  0  0  0  0  0  0  0  0  0  0
   -2.1111    1.9855   -2.7833 H   0  0  0  0  0  0  0  0  0  0  0  0
   -1.9902    0.3718   -3.4350 H   0  0  0  0  0  0  0  0  0  0  0  0
   -0.8178    0.9063   -2.2304 H   0  0  0  0  0  0  0  0  0  0  0  0
   -4.2123    0.7757   -0.1798 H   0  0  0  0  0  0  0  0  0  0  0  0
   -4.7131    2.1977   -2.4808 H   0  0  0  0  0  0  0  0  0  0  0  0
   -4.2231    3.5187   -1.4281 H   0  0  0  0  0  0  0  0  0  0  0  0
   -6.6792    1.9916   -1.1429 H   0  0  0  0  0  0  0  0  0  0  0  0
   -5.9954    0.2762    1.7631 H   0  0  0  0  0  0  0  0  0  0  0  0
   -7.2486    0.6679    0.6198 H   0  0  0  0  0  0  0  0  0  0  0  0
   -7.1807    1.5494    2.1538 H   0  0  0  0  0  0  0  0  0  0  0  0
   -4.1061    1.7118    2.2561 H   0  0  0  0  0  0  0  0  0  0  0  0
   -4.3028    3.4181    1.8598 H   0  0  0  0  0  0  0  0  0  0  0  0
   -2.7477    3.3595    0.1225 H   0  0  0  0  0  0  0  0  0  0  0  0
    0.4060    3.1715   -0.4342 H   0  0  0  0  0  0  0  0  0  0  0  0
    2.4813   -2.4658    0.0985 H   0  0  0  0  0  0  0  0  0  0  0  0
    0.7479   -2.2288    0.0320 H   0  0  0  0  0  0  0  0  0  0  0  0
    2.1397   -1.2157   -1.9694 H   0  0  0  0  0  0  0  0  0  0  0  0
    0.9810   -0.1373   -1.2086 H   0  0  0  0  0  0  0  0  0  0  0  0
    3.9371    0.0251   -1.0856 H   0  0  0  0  0  0  0  0  0  0  0  0
    2.7318    1.2670   -0.7362 H   0  0  0  0  0  0  0  0  0  0  0  0
    4.0163   -0.7514    1.0603 H   0  0  0  0  0  0  0  0  0  0  0  0
    3.4076    0.8239    1.5287 H   0  0  0  0  0  0  0  0  0  0  0  0
  1  2  1  0  0  0  0
  1 30  1  0  0  0  0
  1 31  1  0  0  0  0
  1 32  1  0  0  0  0
  2  3  1  0  0  0  0
  2 33  1  0  0  0  0
  2 34  1  0  0  0  0
  3  4  1  0  0  0  0
  3 35  1  0  0  0  0
  3 36  1  0  0  0  0
  4  5  1  0  0  0  0
  4 37  1  0  0  0  0
  4 38  1  0  0  0  0
  5  6  1  0  0  0  0
  5 39  1  0  0  0  0
  5 40  1  0  0  0  0
  6  7  1  0  0  0  0
  6 41  1  0  0  0  0
  6 42  1  0  0  0  0
  7 29  1  0  0  0  0
  7  8  1  0  0  0  0
  7 26  1  0  0  0  0
  8 13  2  0  0  0  0
  8  9  1  0  0  0  0
  9 10  2  0  0  0  0
  9 43  1  0  0  0  0
 10 11  1  0  0  0  0
 10 25  1  0  0  0  0
 11 24  1  0  0  0  0
 11 12  2  0  0  0  0
 12 13  1  0  0  0  0
 12 14  1  0  0  0  0
 13 44  1  0  0  0  0
 14 15  1  0  0  0  0
 15 16  1  0  0  0  0
 15 17  1  0  0  0  0
 15 18  1  0  0  0  0
 16 45  1  0  0  0  0
 16 46  1  0  0  0  0
 16 47  1  0  0  0  0
 17 48  1  0  0  0  0
 17 49  1  0  0  0  0
 17 50  1  0  0  0  0
 18 19  1  0  0  0  0
 18 24  1  0  0  0  0
 18 51  1  1  0  0  0
 19 20  1  0  0  0  0
 19 52  1  0  0  0  0
 19 53  1  0  0  0  0
 20 21  2  0  0  0  0
 20 54  1  0  0  0  0
 21 22  1  0  0  0  0
 21 23  1  0  0  0  0
 22 55  1  0  0  0  0
 22 56  1  0  0  0  0
 22 57  1  0  0  0  0
 23 58  1  0  0  0  0
 23 59  1  0  0  0  0
 24 23  1  0  0  0  0
 24 60  1  6  0  0  0
 25 61  1  0  0  0  0
 26 27  1  0  0  0  0
 26 62  1  0  0  0  0
 26 63  1  0  0  0  0
 27 28  1  0  0  0  0
 27 64  1  0  0  0  0
 27 65  1  0  0  0  0
 28 29  1  0  0  0  0
 28 66  1  0  0  0  0
 28 67  1  0  0  0  0
 29 68  1  0  0  0  0
 29 69  1  0  0  0  0
M  END
$$$$
CHEMBL252949
 OpenBabel12022418083D

 66 69  0  0  1  0  0  0  0  0999 V2000
    2.4272    0.0983    0.1284 C   0  0  0  0  0  0  0  0  0  0  0  0
    4.1741    0.0528   -0.1509 C   0  0  0  0  0  0  0  0  0  0  0  0
    3.3755   -0.7597   -0.9513 C   0  0  0  0  0  0  0  0  0  0  0  0
    4.4301   -1.1730   -1.6440 C   0  0  0  0  0  0  0  0  0  0  0  0
    5.0542   -2.0747   -2.4544 C   0  0  1  0  0  0  0  0  0  0  0  0
    6.2998   -1.1750   -2.4647 C   0  0  1  0  0  0  0  0  0  0  0  0
    6.0445   -0.2905   -0.7525 C   0  0  0  0  0  0  0  0  0  0  0  0
    7.0875   -2.2032   -3.3781 C   0  0  0  0  0  0  0  0  0  0  0  0
    8.0187   -1.8743   -4.3867 C   0  0  0  0  0  0  0  0  0  0  0  0
    8.4483   -2.7946   -5.3990 C   0  0  0  0  0  0  0  0  0  0  0  0
    7.9314   -4.0860   -5.5026 C   0  0  0  0  0  0  0  0  0  0  0  0
    8.3668   -5.1362   -6.5316 C   0  0  0  0  0  0  0  0  0  0  0  0
    9.8525   -4.9211   -6.9109 C   0  0  0  0  0  0  0  0  0  0  0  0
    8.2957   -6.5453   -5.8667 C   0  0  0  0  0  0  0  0  0  0  0  0
    7.5096   -5.1668   -7.8888 C   0  0  0  0  0  0  0  0  0  0  0  0
    6.1180   -5.8435   -7.7389 C   0  0  0  0  0  0  0  0  0  0  0  0
    4.8485   -4.9987   -7.7512 C   0  0  0  0  0  0  0  0  0  0  0  0
    4.3719   -4.6803   -9.1483 C   0  0  0  0  0  0  0  0  0  0  0  0
    5.2413   -3.7107   -9.9437 C   0  0  0  0  0  0  0  0  0  0  0  0
    6.7292   -4.0553  -10.0515 C   0  0  0  0  0  0  0  0  0  0  0  0
    7.4901   -3.8683   -8.7428 C   0  0  0  0  0  0  0  0  0  0  0  0
    6.9704   -4.3754   -4.5682 C   0  0  0  0  0  0  0  0  0  0  0  0
    6.5855   -3.5394   -3.5419 C   0  0  0  0  0  0  0  0  0  0  0  0
    5.5956   -4.1881   -2.7788 O   0  0  0  0  0  0  0  0  0  0  0  0
    5.3088   -3.3845   -1.6683 C   0  0  0  0  0  0  0  0  0  0  0  0
    6.5206   -3.5377   -0.6851 C   0  0  0  0  0  0  0  0  0  0  0  0
    4.0685   -3.8074   -0.8125 C   0  0  0  0  0  0  0  0  0  0  0  0
    8.5649   -0.6294   -4.5190 O   0  0  0  0  0  0  0  0  0  0  0  0
    2.0750    0.7161    0.9468 H   0  0  0  0  0  0  0  0  0  0  0  0
    1.8943   -0.9054    0.3483 H   0  0  0  0  0  0  0  0  0  0  0  0
    1.8146    0.4887   -0.7640 H   0  0  0  0  0  0  0  0  0  0  0  0
    2.8068   -1.4111   -1.6116 H   0  0  0  0  0  0  0  0  0  0  0  0
    4.8153   -1.6720   -0.6890 H   0  0  0  0  0  0  0  0  0  0  0  0
    4.5953   -0.1720   -2.1339 H   0  0  0  0  0  0  0  0  0  0  0  0
    4.4251   -2.0843   -3.3528 H   0  0  0  0  0  0  0  0  0  0  0  0
    6.2009   -0.2987   -3.1385 H   0  0  0  0  0  0  0  0  0  0  0  0
    6.5487   -1.0204   -0.0864 H   0  0  0  0  0  0  0  0  0  0  0  0
    6.7347    0.5649   -0.7782 H   0  0  0  0  0  0  0  0  0  0  0  0
    9.1882   -2.4692   -6.1285 H   0  0  0  0  0  0  0  0  0  0  0  0
   10.5085   -4.9841   -6.0363 H   0  0  0  0  0  0  0  0  0  0  0  0
   10.0206   -3.9451   -7.3738 H   0  0  0  0  0  0  0  0  0  0  0  0
   10.1922   -5.6916   -7.6160 H   0  0  0  0  0  0  0  0  0  0  0  0
    8.9593   -6.6292   -5.0016 H   0  0  0  0  0  0  0  0  0  0  0  0
    8.5786   -7.3303   -6.5793 H   0  0  0  0  0  0  0  0  0  0  0  0
    7.3014   -6.7877   -5.4804 H   0  0  0  0  0  0  0  0  0  0  0  0
    8.0779   -5.8704   -8.5223 H   0  0  0  0  0  0  0  0  0  0  0  0
    6.0627   -6.4350   -6.8287 H   0  0  0  0  0  0  0  0  0  0  0  0
    6.0408   -6.5918   -8.5396 H   0  0  0  0  0  0  0  0  0  0  0  0
    4.8741   -4.0770   -7.1852 H   0  0  0  0  0  0  0  0  0  0  0  0
    4.0736   -5.5758   -7.2314 H   0  0  0  0  0  0  0  0  0  0  0  0
    3.3700   -4.2443   -9.0560 H   0  0  0  0  0  0  0  0  0  0  0  0
    4.2640   -5.6179   -9.7009 H   0  0  0  0  0  0  0  0  0  0  0  0
    5.1248   -2.6968   -9.5382 H   0  0  0  0  0  0  0  0  0  0  0  0
    4.8331   -3.6828  -10.9599 H   0  0  0  0  0  0  0  0  0  0  0  0
    7.1746   -3.3731  -10.7846 H   0  0  0  0  0  0  0  0  0  0  0  0
    6.8630   -5.0712  -10.4349 H   0  0  0  0  0  0  0  0  0  0  0  0
    8.5168   -3.5560   -8.9596 H   0  0  0  0  0  0  0  0  0  0  0  0
    7.0590   -2.9915   -8.2637 H   0  0  0  0  0  0  0  0  0  0  0  0
    6.4311   -5.2891   -4.5769 H   0  0  0  0  0  0  0  0  0  0  0  0
    7.4882   -3.3172   -1.1460 H   0  0  0  0  0  0  0  0  0  0  0  0
    6.5892   -4.5810   -0.3593 H   0  0  0  0  0  0  0  0  0  0  0  0
    6.4454   -2.9555    0.2363 H   0  0  0  0  0  0  0  0  0  0  0  0
    3.1317   -3.6867   -1.3616 H   0  0  0  0  0  0  0  0  0  0  0  0
    3.9665   -3.2017    0.1119 H   0  0  0  0  0  0  0  0  0  0  0  0
    4.1513   -4.8284   -0.4492 H   0  0  0  0  0  0  0  0  0  0  0  0
    8.2187   -0.0693   -3.8128 H   0  0  0  0  0  0  0  0  0  0  0  0
  1  2  1  0  0  0  0
  1 29  1  0  0  0  0
  1 30  1  0  0  0  0
  1 31  1  0  0  0  0
  2  7  1  0  0  0  0
  2  3  2  3  0  0  0
  3  4  1  0  0  0  0
  3 32  1  0  0  0  0
  4 33  1  0  0  0  0
  4 34  1  0  0  0  0
  5  4  1  0  0  0  0
  5  6  1  0  0  0  0
  5 25  1  0  0  0  0
  5 35  1  6  0  0  0
  6  7  1  0  0  0  0
  6  8  1  0  0  0  0
  6 36  1  6  0  0  0
  7 37  1  0  0  0  0
  7 38  1  0  0  0  0
  8 23  2  0  0  0  0
  8  9  1  0  0  0  0
  9 10  2  0  0  0  0
  9 28  1  0  0  0  0
 10 11  1  0  0  0  0
 10 39  1  0  0  0  0
 11 12  1  0  0  0  0
 11 22  2  0  0  0  0
 12 13  1  0  0  0  0
 12 14  1  0  0  0  0
 12 15  1  0  0  0  0
 13 40  1  0  0  0  0
 13 41  1  0  0  0  0
 13 42  1  0  0  0  0
 14 43  1  0  0  0  0
 14 44  1  0  0  0  0
 14 45  1  0  0  0  0
 15 21  1  0  0  0  0
 15 16  1  0  0  0  0
 15 46  1  0  0  0  0
 16 17  1  0  0  0  0
 16 47  1  0  0  0  0
 16 48  1  0  0  0  0
 17 18  1  0  0  0  0
 17 49  1  0  0  0  0
 17 50  1  0  0  0  0
 18 19  1  0  0  0  0
 18 51  1  0  0  0  0
 18 52  1  0  0  0  0
 19 20  1  0  0  0  0
 19 53  1  0  0  0  0
 19 54  1  0  0  0  0
 20 21  1  0  0  0  0
 20 55  1  0  0  0  0
 20 56  1  0  0  0  0
 21 57  1  0  0  0  0
 21 58  1  0  0  0  0
 22 23  1  0  0  0  0
 22 59  1  0  0  0  0
 23 24  1  0  0  0  0
 24 25  1  0  0  0  0
 25 26  1  0  0  0  0
 25 27  1  0  0  0  0
 26 60  1  0  0  0  0
 26 61  1  0  0  0  0
 26 62  1  0  0  0  0
 27 63  1  0  0  0  0
 27 64  1  0  0  0  0
 27 65  1  0  0  0  0
 28 66  1  0  0  0  0
M  END
$$$$
CHEMBL120669
 OpenBabel12022418083D

 63 66  0  0  1  0  0  0  0  0999 V2000
    3.0230    0.8318    1.3995 C   0  0  0  0  0  0  0  0  0  0  0  0
    1.9939    0.4545    2.5061 C   0  0  2  0  0  0  0  0  0  0  0  0
    2.6828   -0.6049    1.6433 C   0  0  0  0  0  0  0  0  0  0  0  0
    0.4766    0.5886    2.2679 C   0  0  0  0  0  0  0  0  0  0  0  0
   -0.4675   -0.3803    2.6767 C   0  0  0  0  0  0  0  0  0  0  0  0
   -1.6070   -0.5777    1.9113 C   0  0  0  0  0  0  0  0  0  0  0  0
   -1.6140    0.0356    0.6686 C   0  0  0  0  0  0  0  0  0  0  0  0
   -2.0519   -0.8545   -0.4567 C   0  0  1  0  0  0  0  0  0  0  0  0
   -3.4395   -1.3109   -0.0261 C   0  0  2  0  0  0  0  0  0  0  0  0
   -3.2913   -2.1975    1.2562 C   0  0  0  0  0  0  0  0  0  0  0  0
   -4.7103   -2.6110    1.6960 C   0  0  0  0  0  0  0  0  0  0  0  0
   -2.4505   -3.4869    1.2477 C   0  0  0  0  0  0  0  0  0  0  0  0
   -2.6120   -1.4312    2.3163 O   0  0  0  0  0  0  0  0  0  0  0  0
   -4.2869   -1.7018   -1.2463 C   0  0  0  0  0  0  0  0  0  0  0  0
   -4.3078   -0.4971   -2.1896 C   0  0  0  0  0  0  0  0  0  0  0  0
   -3.1838    0.1883   -2.4387 C   0  0  0  0  0  0  0  0  0  0  0  0
   -1.9030   -0.3790   -1.9056 C   0  0  0  0  0  0  0  0  0  0  0  0
   -3.1001    1.5169   -3.1369 C   0  0  0  0  0  0  0  0  0  0  0  0
   -0.9821    1.2627    0.5302 C   0  0  0  0  0  0  0  0  0  0  0  0
    0.0059    1.5960    1.4301 C   0  0  0  0  0  0  0  0  0  0  0  0
   -1.2461    2.0717   -0.5288 O   0  0  0  0  0  0  0  0  0  0  0  0
    2.4085    0.4875    3.9625 C   0  0  0  0  0  0  0  0  0  0  0  0
    2.5182    1.9107    4.4961 C   0  0  0  0  0  0  0  0  0  0  0  0
    2.9440    1.8957    5.9607 C   0  0  0  0  0  0  0  0  0  0  0  0
    3.2236    3.3119    6.4487 C   0  0  0  0  0  0  0  0  0  0  0  0
    3.6818    3.3160    7.9084 C   0  0  0  0  0  0  0  0  0  0  0  0
    3.9383    4.7225    8.3972 C   0  0  0  0  0  0  0  0  0  0  0  0
    2.6010    1.4261   -0.2185 Cl  0  0  0  0  0  0  0  0  0  0  0  0
    4.6618    1.3462    1.8282 Cl  0  0  0  0  0  0  0  0  0  0  0  0
    2.1036   -1.1195    0.8824 H   0  0  0  0  0  0  0  0  0  0  0  0
    3.4603   -1.2291    2.0665 H   0  0  0  0  0  0  0  0  0  0  0  0
   -0.2530   -1.0763    3.4820 H   0  0  0  0  0  0  0  0  0  0  0  0
   -1.3618   -1.7124   -0.4220 H   0  0  0  0  0  0  0  0  0  0  0  0
   -3.9671   -0.4151    0.3501 H   0  0  0  0  0  0  0  0  0  0  0  0
   -5.1310   -3.3375    0.9839 H   0  0  0  0  0  0  0  0  0  0  0  0
   -5.3902   -1.7542    1.7329 H   0  0  0  0  0  0  0  0  0  0  0  0
   -4.7220   -3.0729    2.6866 H   0  0  0  0  0  0  0  0  0  0  0  0
   -2.5455   -3.9688    2.2372 H   0  0  0  0  0  0  0  0  0  0  0  0
   -1.3767   -3.2853    1.1657 H   0  0  0  0  0  0  0  0  0  0  0  0
   -2.7526   -4.2121    0.4944 H   0  0  0  0  0  0  0  0  0  0  0  0
   -5.3186   -1.9135   -0.9437 H   0  0  0  0  0  0  0  0  0  0  0  0
   -3.9002   -2.5839   -1.7677 H   0  0  0  0  0  0  0  0  0  0  0  0
   -5.2707   -0.1163   -2.5232 H   0  0  0  0  0  0  0  0  0  0  0  0
   -1.6785   -1.2538   -2.5367 H   0  0  0  0  0  0  0  0  0  0  0  0
   -1.0338    0.2694   -2.0457 H   0  0  0  0  0  0  0  0  0  0  0  0
   -3.6419    1.5011   -4.0850 H   0  0  0  0  0  0  0  0  0  0  0  0
   -3.5136    2.3018   -2.4985 H   0  0  0  0  0  0  0  0  0  0  0  0
   -2.0606    1.7946   -3.3523 H   0  0  0  0  0  0  0  0  0  0  0  0
    0.5747    2.5078    1.2963 H   0  0  0  0  0  0  0  0  0  0  0  0
   -0.6040    2.7984   -0.5355 H   0  0  0  0  0  0  0  0  0  0  0  0
    3.3672   -0.0292    4.0952 H   0  0  0  0  0  0  0  0  0  0  0  0
    1.6878   -0.0776    4.5663 H   0  0  0  0  0  0  0  0  0  0  0  0
    3.2491    2.4792    3.9128 H   0  0  0  0  0  0  0  0  0  0  0  0
    1.5625    2.4355    4.3843 H   0  0  0  0  0  0  0  0  0  0  0  0
    3.8455    1.2800    6.0790 H   0  0  0  0  0  0  0  0  0  0  0  0
    2.1557    1.4357    6.5686 H   0  0  0  0  0  0  0  0  0  0  0  0
    4.0092    3.7617    5.8252 H   0  0  0  0  0  0  0  0  0  0  0  0
    2.3280    3.9292    6.3333 H   0  0  0  0  0  0  0  0  0  0  0  0
    4.5967    2.7185    8.0073 H   0  0  0  0  0  0  0  0  0  0  0  0
    2.9134    2.8393    8.5401 H   0  0  0  0  0  0  0  0  0  0  0  0
    4.3840    4.7038    9.3937 H   0  0  0  0  0  0  0  0  0  0  0  0
    4.6225    5.2558    7.7253 H   0  0  0  0  0  0  0  0  0  0  0  0
    3.0033    5.2927    8.4496 H   0  0  0  0  0  0  0  0  0  0  0  0
  1  3  1  0  0  0  0
  1  2  1  0  0  0  0
  1 28  1  0  0  0  0
  1 29  1  0  0  0  0
  2  3  1  0  0  0  0
  2  4  1  0  0  0  0
  2 22  1  1  0  0  0
  3 30  1  0  0  0  0
  3 31  1  0  0  0  0
  4 20  2  0  0  0  0
  4  5  1  0  0  0  0
  5  6  2  0  0  0  0
  5 32  1  0  0  0  0
  6 13  1  0  0  0  0
  6  7  1  0  0  0  0
  7  8  1  0  0  0  0
  7 19  2  0  0  0  0
  8  9  1  0  0  0  0
  8 17  1  0  0  0  0
  8 33  1  1  0  0  0
  9 10  1  0  0  0  0
  9 14  1  0  0  0  0
  9 34  1  1  0  0  0
 10 13  1  0  0  0  0
 10 11  1  0  0  0  0
 10 12  1  0  0  0  0
 11 35  1  0  0  0  0
 11 36  1  0  0  0  0
 11 37  1  0  0  0  0
 12 38  1  0  0  0  0
 12 39  1  0  0  0  0
 12 40  1  0  0  0  0
 14 15  1  0  0  0  0
 14 41  1  0  0  0  0
 14 42  1  0  0  0  0
 15 16  2  0  0  0  0
 15 43  1  0  0  0  0
 16 17  1  0  0  0  0
 16 18  1  0  0  0  0
 17 44  1  0  0  0  0
 17 45  1  0  0  0  0
 18 46  1  0  0  0  0
 18 47  1  0  0  0  0
 18 48  1  0  0  0  0
 19 20  1  0  0  0  0
 19 21  1  0  0  0  0
 20 49  1  0  0  0  0
 21 50  1  0  0  0  0
 22 23  1  0  0  0  0
 22 51  1  0  0  0  0
 22 52  1  0  0  0  0
 23 24  1  0  0  0  0
 23 53  1  0  0  0  0
 23 54  1  0  0  0  0
 24 25  1  0  0  0  0
 24 55  1  0  0  0  0
 24 56  1  0  0  0  0
 25 26  1  0  0  0  0
 25 57  1  0  0  0  0
 25 58  1  0  0  0  0
 26 27  1  0  0  0  0
 26 59  1  0  0  0  0
 26 60  1  0  0  0  0
 27 61  1  0  0  0  0
 27 62  1  0  0  0  0
 27 63  1  0  0  0  0
M  END
$$$$
CHEMBL600602
 OpenBabel12022418083D

 65 67  0  0  1  0  0  0  0  0999 V2000
    6.3641    5.3154   -2.2017 C   0  0  0  0  0  0  0  0  0  0  0  0
    6.1279    4.2317   -1.1632 C   0  0  0  0  0  0  0  0  0  0  0  0
    4.8341    3.4699   -1.4303 C   0  0  0  0  0  0  0  0  0  0  0  0
    4.5974    2.4075   -0.3585 C   0  0  0  0  0  0  0  0  0  0  0  0
    3.3395    1.6074   -0.6733 C   0  0  0  0  0  0  0  0  0  0  0  0
    3.0905    0.5198    0.3793 C   0  0  0  0  0  0  0  0  0  0  0  0
    1.8439   -0.3464    0.0886 C   0  0  0  0  0  0  0  0  0  0  0  0
    2.0582   -1.1630   -1.2161 C   0  0  0  0  0  0  0  0  0  0  0  0
    1.6734   -1.4148    1.2009 C   0  0  0  0  0  0  0  0  0  0  0  0
    0.5601    0.4978    0.0840 C   0  0  0  0  0  0  0  0  0  0  0  0
    0.0203    1.0787    1.2511 C   0  0  0  0  0  0  0  0  0  0  0  0
   -1.3234    1.5122    1.3336 C   0  0  0  0  0  0  0  0  0  0  0  0
   -2.1544    1.3411    0.2362 C   0  0  0  0  0  0  0  0  0  0  0  0
   -1.5496    0.8833   -0.9493 C   0  0  0  0  0  0  0  0  0  0  0  0
   -0.2010    0.5742   -1.0722 C   0  0  0  0  0  0  0  0  0  0  0  0
   -2.3258    0.3719   -1.9727 O   0  0  0  0  0  0  0  0  0  0  0  0
   -3.2247   -0.6020   -1.4064 C   0  0  0  0  0  0  0  0  0  0  0  0
   -3.8526   -1.3564   -2.5837 C   0  0  0  0  0  0  0  0  0  0  0  0
   -2.4906   -1.7041   -0.5721 C   0  0  0  0  0  0  0  0  0  0  0  0
   -4.2304    0.1621   -0.5215 C   0  0  2  0  0  0  0  0  0  0  0  0
   -5.5772    0.5179   -1.1857 C   0  0  0  0  0  0  0  0  0  0  0  0
   -6.3974    1.4412   -0.2804 C   0  0  0  0  0  0  0  0  0  0  0  0
   -5.8598    1.4023    1.1334 C   0  0  0  0  0  0  0  0  0  0  0  0
   -4.5618    1.7500    1.3190 C   0  0  0  0  0  0  0  0  0  0  0  0
   -3.6537    1.5012    0.1203 C   0  0  1  0  0  0  0  0  0  0  0  0
   -6.5552    0.4652    2.0819 C   0  0  0  0  0  0  0  0  0  0  0  0
   -1.8038    1.9767    2.5206 O   0  0  0  0  0  0  0  0  0  0  0  0
    6.0649    4.9898   -3.2032 H   0  0  0  0  0  0  0  0  0  0  0  0
    7.4248    5.5819   -2.2327 H   0  0  0  0  0  0  0  0  0  0  0  0
    5.7965    6.2172   -1.9511 H   0  0  0  0  0  0  0  0  0  0  0  0
    6.9685    3.5283   -1.1766 H   0  0  0  0  0  0  0  0  0  0  0  0
    6.1008    4.6844   -0.1652 H   0  0  0  0  0  0  0  0  0  0  0  0
    4.8907    2.9887   -2.4154 H   0  0  0  0  0  0  0  0  0  0  0  0
    3.9857    4.1642   -1.4607 H   0  0  0  0  0  0  0  0  0  0  0  0
    4.4977    2.8846    0.6233 H   0  0  0  0  0  0  0  0  0  0  0  0
    5.4594    1.7312   -0.3086 H   0  0  0  0  0  0  0  0  0  0  0  0
    2.4836    2.2897   -0.7224 H   0  0  0  0  0  0  0  0  0  0  0  0
    3.4531    1.1598   -1.6663 H   0  0  0  0  0  0  0  0  0  0  0  0
    3.9730   -0.1328    0.4323 H   0  0  0  0  0  0  0  0  0  0  0  0
    3.0009    0.9941    1.3649 H   0  0  0  0  0  0  0  0  0  0  0  0
    2.9235   -1.8285   -1.1305 H   0  0  0  0  0  0  0  0  0  0  0  0
    1.1888   -1.7950   -1.4386 H   0  0  0  0  0  0  0  0  0  0  0  0
    2.2239   -0.5294   -2.0930 H   0  0  0  0  0  0  0  0  0  0  0  0
    1.6195   -0.9746    2.2017 H   0  0  0  0  0  0  0  0  0  0  0  0
    0.7499   -1.9901    1.0463 H   0  0  0  0  0  0  0  0  0  0  0  0
    2.5066   -2.1252    1.2020 H   0  0  0  0  0  0  0  0  0  0  0  0
    0.6448    1.1173    2.1502 H   0  0  0  0  0  0  0  0  0  0  0  0
    0.1314    0.1909   -2.0296 H   0  0  0  0  0  0  0  0  0  0  0  0
   -3.0743   -1.8747   -3.1573 H   0  0  0  0  0  0  0  0  0  0  0  0
   -4.5733   -2.1065   -2.2399 H   0  0  0  0  0  0  0  0  0  0  0  0
   -4.3429   -0.6805   -3.2888 H   0  0  0  0  0  0  0  0  0  0  0  0
   -2.0466   -1.3262    0.3577 H   0  0  0  0  0  0  0  0  0  0  0  0
   -3.1779   -2.5010   -0.2684 H   0  0  0  0  0  0  0  0  0  0  0  0
   -1.6700   -2.1519   -1.1457 H   0  0  0  0  0  0  0  0  0  0  0  0
   -4.4738   -0.5431    0.2917 H   0  0  0  0  0  0  0  0  0  0  0  0
   -5.4132    1.0177   -2.1475 H   0  0  0  0  0  0  0  0  0  0  0  0
   -6.1489   -0.3959   -1.3823 H   0  0  0  0  0  0  0  0  0  0  0  0
   -6.3129    2.4736   -0.6499 H   0  0  0  0  0  0  0  0  0  0  0  0
   -7.4641    1.2002   -0.3259 H   0  0  0  0  0  0  0  0  0  0  0  0
   -4.1301    1.7919    2.3112 H   0  0  0  0  0  0  0  0  0  0  0  0
   -3.7899    2.3439   -0.5723 H   0  0  0  0  0  0  0  0  0  0  0  0
   -7.0210   -0.3429    1.4986 H   0  0  0  0  0  0  0  0  0  0  0  0
   -5.8345   -0.0402    2.7364 H   0  0  0  0  0  0  0  0  0  0  0  0
   -7.3279    0.9473    2.6778 H   0  0  0  0  0  0  0  0  0  0  0  0
   -1.0988    1.9302    3.1864 H   0  0  0  0  0  0  0  0  0  0  0  0
  1  2  1  0  0  0  0
  1 28  1  0  0  0  0
  1 29  1  0  0  0  0
  1 30  1  0  0  0  0
  2  3  1  0  0  0  0
  2 31  1  0  0  0  0
  2 32  1  0  0  0  0
  3  4  1  0  0  0  0
  3 33  1  0  0  0  0
  3 34  1  0  0  0  0
  4  5  1  0  0  0  0
  4 35  1  0  0  0  0
  4 36  1  0  0  0  0
  5  6  1  0  0  0  0
  5 37  1  0  0  0  0
  5 38  1  0  0  0  0
  6  7  1  0  0  0  0
  6 39  1  0  0  0  0
  6 40  1  0  0  0  0
  7  8  1  0  0  0  0
  7  9  1  0  0  0  0
  7 10  1  0  0  0  0
  8 41  1  0  0  0  0
  8 42  1  0  0  0  0
  8 43  1  0  0  0  0
  9 44  1  0  0  0  0
  9 45  1  0  0  0  0
  9 46  1  0  0  0  0
 10 15  2  0  0  0  0
 10 11  1  0  0  0  0
 11 12  2  0  0  0  0
 11 47  1  0  0  0  0
 12 13  1  0  0  0  0
 12 27  1  0  0  0  0
 13 25  1  0  0  0  0
 13 14  2  0  0  0  0
 14 15  1  0  0  0  0
 14 16  1  0  0  0  0
 15 48  1  0  0  0  0
 16 17  1  0  0  0  0
 17 18  1  0  0  0  0
 17 19  1  0  0  0  0
 17 20  1  0  0  0  0
 18 49  1  0  0  0  0
 18 50  1  0  0  0  0
 18 51  1  0  0  0  0
 19 52  1  0  0  0  0
 19 53  1  0  0  0  0
 19 54  1  0  0  0  0
 20 21  1  0  0  0  0
 20 25  1  0  0  0  0
 20 55  1  1  0  0  0
 21 22  1  0  0  0  0
 21 56  1  0  0  0  0
 21 57  1  0  0  0  0
 22 23  1  0  0  0  0
 22 58  1  0  0  0  0
 22 59  1  0  0  0  0
 23 24  2  0  0  0  0
 23 26  1  0  0  0  0
 24 60  1  0  0  0  0
 25 24  1  0  0  0  0
 25 61  1  6  0  0  0
 26 62  1  0  0  0  0
 26 63  1  0  0  0  0
 26 64  1  0  0  0  0
 27 65  1  0  0  0  0
M  END
$$$$
CHEMBL108392
 OpenBabel12022418083D

 68 71  0  0  1  0  0  0  0  0999 V2000
    1.4751    0.8913    7.8385 C   0  0  0  0  0  0  0  0  0  0  0  0
    2.9814    0.9031    7.6239 C   0  0  0  0  0  0  0  0  0  0  0  0
    3.3383    1.5173    6.2712 C   0  0  0  0  0  0  0  0  0  0  0  0
    4.8510    1.5644    6.0411 C   0  0  0  0  0  0  0  0  0  0  0  0
    5.1686    2.1298    4.6498 C   0  0  0  0  0  0  0  0  0  0  0  0
    6.6899    2.3354    4.4527 C   0  0  0  0  0  0  0  0  0  0  0  0
    7.1441    3.0425    3.1181 C   0  0  0  0  0  0  0  0  0  0  0  0
    6.7417    4.5518    3.0397 C   0  0  0  0  0  0  0  0  0  0  0  0
    6.8956    5.3793    1.8996 C   0  0  0  0  0  0  0  0  0  0  0  0
    6.3828    6.7129    1.8417 C   0  0  0  0  0  0  0  0  0  0  0  0
    5.6463    7.2839    2.9014 C   0  0  0  0  0  0  0  0  0  0  0  0
    5.5286    6.4232    4.0310 C   0  0  0  0  0  0  0  0  0  0  0  0
    6.1357    5.1679    4.1295 C   0  0  0  0  0  0  0  0  0  0  0  0
    4.6150    6.5831    5.0669 O   0  0  0  0  0  0  0  0  0  0  0  0
    3.9864    7.8707    5.0184 C   0  0  0  0  0  0  0  0  0  0  0  0
    5.1361    8.7447    5.6347 C   0  0  0  0  0  0  0  0  0  0  0  0
    2.8567    7.9194    6.0420 C   0  0  0  0  0  0  0  0  0  0  0  0
    3.4610    7.9471    3.5062 C   0  0  1  0  0  0  0  0  0  0  0  0
    2.1906    8.6809    3.0644 C   0  0  0  0  0  0  0  0  0  0  0  0
    2.2110   10.0358    3.6169 C   0  0  0  0  0  0  0  0  0  0  0  0
    3.3937   10.6640    3.7610 C   0  0  0  0  0  0  0  0  0  0  0  0
    3.3578   11.8267    4.7268 C   0  0  0  0  0  0  0  0  0  0  0  0
    4.7145   10.0686    3.1267 C   0  0  0  0  0  0  0  0  0  0  0  0
    4.6455    8.4866    2.7114 C   0  0  1  0  0  0  0  0  0  0  0  0
    6.4831    7.4177    0.6708 O   0  0  0  0  0  0  0  0  0  0  0  0
    9.0075    2.9589    2.9898 S   0  0  0  0  0  0  0  0  0  0  0  0
    9.3042    1.1768    3.0437 C   0  0  0  0  0  0  0  0  0  0  0  0
    8.6003    0.3560    1.9776 C   0  0  0  0  0  0  0  0  0  0  0  0
    7.0802    0.4403    1.9714 C   0  0  0  0  0  0  0  0  0  0  0  0
    6.4510    2.1207    1.6473 S   0  0  0  0  0  0  0  0  0  0  0  0
    1.2309    0.4419    8.8059 H   0  0  0  0  0  0  0  0  0  0  0  0
    0.9724    0.3119    7.0574 H   0  0  0  0  0  0  0  0  0  0  0  0
    1.0698    1.9083    7.8242 H   0  0  0  0  0  0  0  0  0  0  0  0
    3.3617   -0.1233    7.6794 H   0  0  0  0  0  0  0  0  0  0  0  0
    3.4564    1.4713    8.4319 H   0  0  0  0  0  0  0  0  0  0  0  0
    2.9320    2.5350    6.2164 H   0  0  0  0  0  0  0  0  0  0  0  0
    2.8628    0.9375    5.4710 H   0  0  0  0  0  0  0  0  0  0  0  0
    5.2751    0.5570    6.1325 H   0  0  0  0  0  0  0  0  0  0  0  0
    5.3171    2.1855    6.8156 H   0  0  0  0  0  0  0  0  0  0  0  0
    4.6166    3.0634    4.5161 H   0  0  0  0  0  0  0  0  0  0  0  0
    4.7769    1.4335    3.9005 H   0  0  0  0  0  0  0  0  0  0  0  0
    7.1342    1.3417    4.5540 H   0  0  0  0  0  0  0  0  0  0  0  0
    7.0962    2.8881    5.3106 H   0  0  0  0  0  0  0  0  0  0  0  0
    7.3833    4.9617    1.0190 H   0  0  0  0  0  0  0  0  0  0  0  0
    5.9805    4.6513    5.0706 H   0  0  0  0  0  0  0  0  0  0  0  0
    5.4931    8.2786    6.5649 H   0  0  0  0  0  0  0  0  0  0  0  0
    4.8473    9.7619    5.8845 H   0  0  0  0  0  0  0  0  0  0  0  0
    6.0555    8.7729    5.0291 H   0  0  0  0  0  0  0  0  0  0  0  0
    3.1815    7.4818    6.9927 H   0  0  0  0  0  0  0  0  0  0  0  0
    1.9785    7.3594    5.7093 H   0  0  0  0  0  0  0  0  0  0  0  0
    2.5597    8.9551    6.2408 H   0  0  0  0  0  0  0  0  0  0  0  0
    3.2418    6.9183    3.1708 H   0  0  0  0  0  0  0  0  0  0  0  0
    1.3045    8.1290    3.3688 H   0  0  0  0  0  0  0  0  0  0  0  0
    2.1500    8.7491    1.9640 H   0  0  0  0  0  0  0  0  0  0  0  0
    1.2835   10.4069    4.0485 H   0  0  0  0  0  0  0  0  0  0  0  0
    3.0998   12.7665    4.2312 H   0  0  0  0  0  0  0  0  0  0  0  0
    4.2859   11.9334    5.2913 H   0  0  0  0  0  0  0  0  0  0  0  0
    2.5781   11.6531    5.4912 H   0  0  0  0  0  0  0  0  0  0  0  0
    5.5706   10.2960    3.7638 H   0  0  0  0  0  0  0  0  0  0  0  0
    4.8965   10.6521    2.2138 H   0  0  0  0  0  0  0  0  0  0  0  0
    4.3982    8.4969    1.6398 H   0  0  0  0  0  0  0  0  0  0  0  0
    6.9051    6.8462    0.0091 H   0  0  0  0  0  0  0  0  0  0  0  0
    9.0768    0.7813    4.0382 H   0  0  0  0  0  0  0  0  0  0  0  0
   10.3756    1.0342    2.9204 H   0  0  0  0  0  0  0  0  0  0  0  0
    8.8744   -0.6942    2.1007 H   0  0  0  0  0  0  0  0  0  0  0  0
    8.9662    0.6329    0.9801 H   0  0  0  0  0  0  0  0  0  0  0  0
    6.6624    0.0381    2.9015 H   0  0  0  0  0  0  0  0  0  0  0  0
    6.6889   -0.2136    1.1724 H   0  0  0  0  0  0  0  0  0  0  0  0
  1  2  1  0  0  0  0
  1 31  1  0  0  0  0
  1 32  1  0  0  0  0
  1 33  1  0  0  0  0
  2  3  1  0  0  0  0
  2 34  1  0  0  0  0
  2 35  1  0  0  0  0
  3  4  1  0  0  0  0
  3 36  1  0  0  0  0
  3 37  1  0  0  0  0
  4  5  1  0  0  0  0
  4 38  1  0  0  0  0
  4 39  1  0  0  0  0
  5  6  1  0  0  0  0
  5 40  1  0  0  0  0
  5 41  1  0  0  0  0
  6  7  1  0  0  0  0
  6 42  1  0  0  0  0
  6 43  1  0  0  0  0
  7 30  1  0  0  0  0
  7  8  1  0  0  0  0
  7 26  1  0  0  0  0
  8 13  2  0  0  0  0
  8  9  1  0  0  0  0
  9 10  2  0  0  0  0
  9 44  1  0  0  0  0
 10 11  1  0  0  0  0
 10 25  1  0  0  0  0
 11 24  1  0  0  0  0
 11 12  2  0  0  0  0
 12 13  1  0  0  0  0
 12 14  1  0  0  0  0
 13 45  1  0  0  0  0
 14 15  1  0  0  0  0
 15 16  1  0  0  0  0
 15 17  1  0  0  0  0
 15 18  1  0  0  0  0
 16 46  1  0  0  0  0
 16 47  1  0  0  0  0
 16 48  1  0  0  0  0
 17 49  1  0  0  0  0
 17 50  1  0  0  0  0
 17 51  1  0  0  0  0
 18 19  1  0  0  0  0
 18 24  1  0  0  0  0
 18 52  1  6  0  0  0
 19 20  1  0  0  0  0
 19 53  1  0  0  0  0
 19 54  1  0  0  0  0
 20 21  2  0  0  0  0
 20 55  1  0  0  0  0
 21 22  1  0  0  0  0
 21 23  1  0  0  0  0
 22 56  1  0  0  0  0
 22 57  1  0  0  0  0
 22 58  1  0  0  0  0
 23 59  1  0  0  0  0
 23 60  1  0  0  0  0
 24 23  1  0  0  0  0
 24 61  1  6  0  0  0
 25 62  1  0  0  0  0
 26 27  1  0  0  0  0
 27 28  1  0  0  0  0
 27 63  1  0  0  0  0
 27 64  1  0  0  0  0
 28 29  1  0  0  0  0
 28 65  1  0  0  0  0
 28 66  1  0  0  0  0
 29 30  1  0  0  0  0
 29 67  1  0  0  0  0
 29 68  1  0  0  0  0
M  END
$$$$
CHEMBL1259001
 OpenBabel12022418083D

 62 65  0  0  1  0  0  0  0  0999 V2000
    7.0796   -5.5110    2.3142 C   0  0  0  0  0  0  0  0  0  0  0  0
    7.0983   -4.0045    2.4330 C   0  0  0  0  0  0  0  0  0  0  0  0
    7.3355   -3.3256    1.0792 C   0  0  0  0  0  0  0  0  0  0  0  0
    7.3250   -1.8255    1.3164 C   0  0  0  0  0  0  0  0  0  0  0  0
    7.5258   -0.9445    0.1364 C   0  0  0  0  0  0  0  0  0  0  0  0
    7.5453    0.3977    0.1655 C   0  0  0  0  0  0  0  0  0  0  0  0
    7.4021    1.3139    1.3638 C   0  0  0  0  0  0  0  0  0  0  0  0
    8.6240    2.3710    1.2779 C   0  0  0  0  0  0  0  0  0  0  0  0
    9.8657    2.0968    1.8880 C   0  0  0  0  0  0  0  0  0  0  0  0
   10.9258    2.9959    1.8223 C   0  0  0  0  0  0  0  0  0  0  0  0
   10.8107    4.1938    1.1157 C   0  0  0  0  0  0  0  0  0  0  0  0
    9.5865    4.4851    0.5003 C   0  0  0  0  0  0  0  0  0  0  0  0
    8.5206    3.5889    0.5840 C   0  0  0  0  0  0  0  0  0  0  0  0
    9.3252    5.6399   -0.2017 O   0  0  0  0  0  0  0  0  0  0  0  0
   10.4945    6.3615   -0.6610 C   0  0  0  0  0  0  0  0  0  0  0  0
   10.0080    7.7486   -1.1145 C   0  0  0  0  0  0  0  0  0  0  0  0
   10.9752    5.6203   -1.9226 C   0  0  0  0  0  0  0  0  0  0  0  0
   11.4528    6.5194    0.5554 C   0  0  2  0  0  0  0  0  0  0  0  0
   12.6177    7.5113    0.4723 C   0  0  0  0  0  0  0  0  0  0  0  0
   13.7534    7.0501   -0.4157 C   0  0  0  0  0  0  0  0  0  0  0  0
   14.2072    5.6632   -0.0226 C   0  0  0  0  0  0  0  0  0  0  0  0
   15.3953    5.3663   -0.0351 O   0  0  0  0  0  0  0  0  0  0  0  0
   13.1410    4.6135    0.2168 C   0  0  0  0  0  0  0  0  0  0  0  0
   11.9683    5.1577    1.0442 C   0  0  2  0  0  0  0  0  0  0  0  0
   12.0973    2.7178    2.4695 O   0  0  0  0  0  0  0  0  0  0  0  0
    5.9365    1.8809    1.4542 C   0  0  0  0  0  0  0  0  0  0  0  0
    6.0194    1.7978    2.9826 C   0  0  0  0  0  0  0  0  0  0  0  0
    7.1537    0.7827    2.8322 C   0  0  0  0  0  0  0  0  0  0  0  0
    6.9051   -5.9602    3.2965 H   0  0  0  0  0  0  0  0  0  0  0  0
    8.0362   -5.8790    1.9322 H   0  0  0  0  0  0  0  0  0  0  0  0
    6.2825   -5.8371    1.6400 H   0  0  0  0  0  0  0  0  0  0  0  0
    7.8811   -3.7049    3.1393 H   0  0  0  0  0  0  0  0  0  0  0  0
    6.1442   -3.6637    2.8574 H   0  0  0  0  0  0  0  0  0  0  0  0
    6.5465   -3.6043    0.3706 H   0  0  0  0  0  0  0  0  0  0  0  0
    8.2946   -3.6414    0.6533 H   0  0  0  0  0  0  0  0  0  0  0  0
    8.1123   -1.5997    2.0459 H   0  0  0  0  0  0  0  0  0  0  0  0
    6.3359   -1.5957    1.7273 H   0  0  0  0  0  0  0  0  0  0  0  0
    7.6496   -1.4340   -0.8292 H   0  0  0  0  0  0  0  0  0  0  0  0
    7.6825    0.9127   -0.7872 H   0  0  0  0  0  0  0  0  0  0  0  0
    9.9868    1.1588    2.4243 H   0  0  0  0  0  0  0  0  0  0  0  0
    7.5927    3.8402    0.0777 H   0  0  0  0  0  0  0  0  0  0  0  0
    9.2377    7.6656   -1.8901 H   0  0  0  0  0  0  0  0  0  0  0  0
   10.8291    8.3445   -1.5271 H   0  0  0  0  0  0  0  0  0  0  0  0
    9.5522    8.3002   -0.2852 H   0  0  0  0  0  0  0  0  0  0  0  0
   10.2481    5.7470   -2.7357 H   0  0  0  0  0  0  0  0  0  0  0  0
   11.0233    4.5356   -1.7829 H   0  0  0  0  0  0  0  0  0  0  0  0
   11.9344    5.9739   -2.2959 H   0  0  0  0  0  0  0  0  0  0  0  0
   10.8151    6.9071    1.3722 H   0  0  0  0  0  0  0  0  0  0  0  0
   13.0163    7.6372    1.4883 H   0  0  0  0  0  0  0  0  0  0  0  0
   12.2742    8.5076    0.1724 H   0  0  0  0  0  0  0  0  0  0  0  0
   14.5993    7.7340   -0.2990 H   0  0  0  0  0  0  0  0  0  0  0  0
   13.4738    7.0584   -1.4687 H   0  0  0  0  0  0  0  0  0  0  0  0
   13.6178    3.7807    0.7405 H   0  0  0  0  0  0  0  0  0  0  0  0
   12.8353    4.2204   -0.7553 H   0  0  0  0  0  0  0  0  0  0  0  0
   12.3337    5.3137    2.0702 H   0  0  0  0  0  0  0  0  0  0  0  0
   12.0177    1.8615    2.9206 H   0  0  0  0  0  0  0  0  0  0  0  0
    5.1678    1.2218    1.0298 H   0  0  0  0  0  0  0  0  0  0  0  0
    5.7615    2.8885    1.0692 H   0  0  0  0  0  0  0  0  0  0  0  0
    5.1234    1.4069    3.4740 H   0  0  0  0  0  0  0  0  0  0  0  0
    6.3225    2.7267    3.4739 H   0  0  0  0  0  0  0  0  0  0  0  0
    7.9720    0.9284    3.5459 H   0  0  0  0  0  0  0  0  0  0  0  0
    6.7748   -0.2177    3.0157 H   0  0  0  0  0  0  0  0  0  0  0  0
  1  2  1  0  0  0  0
  1 29  1  0  0  0  0
  1 30  1  0  0  0  0
  1 31  1  0  0  0  0
  2  3  1  0  0  0  0
  2 32  1  0  0  0  0
  2 33  1  0  0  0  0
  3  4  1  0  0  0  0
  3 34  1  0  0  0  0
  3 35  1  0  0  0  0
  4  5  1  0  0  0  0
  4 36  1  0  0  0  0
  4 37  1  0  0  0  0
  5  6  2  0  0  0  0
  5 38  1  0  0  0  0
  6  7  1  0  0  0  0
  6 39  1  0  0  0  0
  7 28  1  0  0  0  0
  7  8  1  0  0  0  0
  7 26  1  0  0  0  0
  8 13  2  0  0  0  0
  8  9  1  0  0  0  0
  9 10  2  0  0  0  0
  9 40  1  0  0  0  0
 10 11  1  0  0  0  0
 10 25  1  0  0  0  0
 11 24  1  0  0  0  0
 11 12  2  0  0  0  0
 12 13  1  0  0  0  0
 12 14  1  0  0  0  0
 13 41  1  0  0  0  0
 14 15  1  0  0  0  0
 15 16  1  0  0  0  0
 15 17  1  0  0  0  0
 15 18  1  0  0  0  0
 16 42  1  0  0  0  0
 16 43  1  0  0  0  0
 16 44  1  0  0  0  0
 17 45  1  0  0  0  0
 17 46  1  0  0  0  0
 17 47  1  0  0  0  0
 18 19  1  0  0  0  0
 18 24  1  0  0  0  0
 18 48  1  1  0  0  0
 19 20  1  0  0  0  0
 19 49  1  0  0  0  0
 19 50  1  0  0  0  0
 20 21  1  0  0  0  0
 20 51  1  0  0  0  0
 20 52  1  0  0  0  0
 21 22  2  0  0  0  0
 21 23  1  0  0  0  0
 23 53  1  0  0  0  0
 23 54  1  0  0  0  0
 24 23  1  0  0  0  0
 24 55  1  1  0  0  0
 25 56  1  0  0  0  0
 26 27  1  0  0  0  0
 26 57  1  0  0  0  0
 26 58  1  0  0  0  0
 27 28  1  0  0  0  0
 27 59  1  0  0  0  0
 27 60  1  0  0  0  0
 28 61  1  0  0  0  0
 28 62  1  0  0  0  0
M  END
$$$$
CHEMBL394305
 OpenBabel12022418083D

 63 65  0  0  1  0  0  0  0  0999 V2000
    2.1392    5.2886   -2.2593 C   0  0  0  0  0  0  0  0  0  0  0  0
    2.9008    4.2328   -2.5963 C   0  0  0  0  0  0  0  0  0  0  0  0
    3.2504    3.9943   -4.0421 C   0  0  0  0  0  0  0  0  0  0  0  0
    3.4808    3.2302   -1.5898 C   0  0  1  0  0  0  0  0  0  0  0  0
    3.9198    3.8583   -0.2506 C   0  0  0  0  0  0  0  0  0  0  0  0
    4.4655    2.8524    0.7772 C   0  0  0  0  0  0  0  0  0  0  0  0
    3.9012    1.4565    0.7023 C   0  0  0  0  0  0  0  0  0  0  0  0
    3.1161    1.0440   -0.3060 C   0  0  0  0  0  0  0  0  0  0  0  0
    2.6296    1.9261   -1.4344 C   0  0  1  0  0  0  0  0  0  0  0  0
    1.1082    2.0641   -1.3149 C   0  0  0  0  0  0  0  0  0  0  0  0
    0.4740    2.6444   -0.2030 C   0  0  0  0  0  0  0  0  0  0  0  0
   -0.9075    2.6108   -0.0339 C   0  0  0  0  0  0  0  0  0  0  0  0
   -1.7453    1.9865   -0.9564 C   0  0  0  0  0  0  0  0  0  0  0  0
   -3.2415    1.9257   -0.7085 C   0  0  0  0  0  0  0  0  0  0  0  0
   -3.7693    0.6305   -0.1217 C   0  0  0  0  0  0  0  0  0  0  0  0
   -3.1930    0.2487    1.2483 C   0  0  0  0  0  0  0  0  0  0  0  0
   -3.8198   -1.0759    1.6953 C   0  0  0  0  0  0  0  0  0  0  0  0
   -3.3240   -1.5689    3.0538 C   0  0  0  0  0  0  0  0  0  0  0  0
   -4.0052   -2.8963    3.4022 C   0  0  0  0  0  0  0  0  0  0  0  0
   -3.5587   -3.4347    4.7497 C   0  0  0  0  0  0  0  0  0  0  0  0
   -3.9526    3.2224   -0.3632 C   0  0  0  0  0  0  0  0  0  0  0  0
   -4.1468    2.6154   -1.7194 C   0  0  0  0  0  0  0  0  0  0  0  0
   -1.1379    1.4235   -2.0840 C   0  0  0  0  0  0  0  0  0  0  0  0
    0.2505    1.4762   -2.2648 C   0  0  0  0  0  0  0  0  0  0  0  0
    0.7035    0.8826   -3.4124 O   0  0  0  0  0  0  0  0  0  0  0  0
    1.1193    3.2437    0.8388 O   0  0  0  0  0  0  0  0  0  0  0  0
    4.1592    0.5394    1.8650 C   0  0  0  0  0  0  0  0  0  0  0  0
    1.7579    5.9784   -3.0077 H   0  0  0  0  0  0  0  0  0  0  0  0
    1.8473    5.4963   -1.2348 H   0  0  0  0  0  0  0  0  0  0  0  0
    2.7583    4.7099   -4.7104 H   0  0  0  0  0  0  0  0  0  0  0  0
    2.9441    2.9919   -4.3534 H   0  0  0  0  0  0  0  0  0  0  0  0
    4.3305    4.0915   -4.1915 H   0  0  0  0  0  0  0  0  0  0  0  0
    4.4377    2.9014   -2.0303 H   0  0  0  0  0  0  0  0  0  0  0  0
    3.1052    4.4236    0.2104 H   0  0  0  0  0  0  0  0  0  0  0  0
    4.6994    4.6097   -0.4398 H   0  0  0  0  0  0  0  0  0  0  0  0
    4.2661    3.2639    1.7758 H   0  0  0  0  0  0  0  0  0  0  0  0
    5.5551    2.7878    0.6774 H   0  0  0  0  0  0  0  0  0  0  0  0
    2.7252    0.0259   -0.3050 H   0  0  0  0  0  0  0  0  0  0  0  0
    2.8510    1.3434   -2.3406 H   0  0  0  0  0  0  0  0  0  0  0  0
   -1.3349    3.0500    0.8651 H   0  0  0  0  0  0  0  0  0  0  0  0
   -3.5728   -0.1767   -0.8384 H   0  0  0  0  0  0  0  0  0  0  0  0
   -4.8613    0.6954   -0.0232 H   0  0  0  0  0  0  0  0  0  0  0  0
   -3.4025    1.0357    1.9828 H   0  0  0  0  0  0  0  0  0  0  0  0
   -2.1038    0.1377    1.1971 H   0  0  0  0  0  0  0  0  0  0  0  0
   -3.6054   -1.8424    0.9402 H   0  0  0  0  0  0  0  0  0  0  0  0
   -4.9102   -0.9618    1.7336 H   0  0  0  0  0  0  0  0  0  0  0  0
   -3.5448   -0.8232    3.8264 H   0  0  0  0  0  0  0  0  0  0  0  0
   -2.2364   -1.7049    3.0297 H   0  0  0  0  0  0  0  0  0  0  0  0
   -3.7831   -3.6410    2.6281 H   0  0  0  0  0  0  0  0  0  0  0  0
   -5.0937   -2.7621    3.4141 H   0  0  0  0  0  0  0  0  0  0  0  0
   -2.4800   -3.6179    4.7612 H   0  0  0  0  0  0  0  0  0  0  0  0
   -4.0663   -4.3811    4.9634 H   0  0  0  0  0  0  0  0  0  0  0  0
   -3.8005   -2.7312    5.5522 H   0  0  0  0  0  0  0  0  0  0  0  0
   -3.3826    4.1431   -0.3164 H   0  0  0  0  0  0  0  0  0  0  0  0
   -4.7782    3.1931    0.3396 H   0  0  0  0  0  0  0  0  0  0  0  0
   -5.1054    2.1688   -1.9427 H   0  0  0  0  0  0  0  0  0  0  0  0
   -3.6845    3.1049   -2.5714 H   0  0  0  0  0  0  0  0  0  0  0  0
   -1.7519    0.9290   -2.8335 H   0  0  0  0  0  0  0  0  0  0  0  0
    1.4482    1.4068   -3.7469 H   0  0  0  0  0  0  0  0  0  0  0  0
    1.9430    2.7578    0.9824 H   0  0  0  0  0  0  0  0  0  0  0  0
    4.5936    1.0794    2.7117 H   0  0  0  0  0  0  0  0  0  0  0  0
    4.8388   -0.2692    1.5831 H   0  0  0  0  0  0  0  0  0  0  0  0
    3.2169    0.1021    2.2184 H   0  0  0  0  0  0  0  0  0  0  0  0
  1  2  2  0  0  0  0
  1 28  1  0  0  0  0
  1 29  1  0  0  0  0
  2  3  1  0  0  0  0
  3 30  1  0  0  0  0
  3 31  1  0  0  0  0
  3 32  1  0  0  0  0
  4  2  1  0  0  0  0
  4  5  1  0  0  0  0
  4  9  1  0  0  0  0
  4 33  1  6  0  0  0
  5  6  1  0  0  0  0
  5 34  1  0  0  0  0
  5 35  1  0  0  0  0
  6  7  1  0  0  0  0
  6 36  1  0  0  0  0
  6 37  1  0  0  0  0
  7  8  2  0  0  0  0
  7 27  1  0  0  0  0
  8  9  1  0  0  0  0
  8 38  1  0  0  0  0
  9 10  1  0  0  0  0
  9 39  1  6  0  0  0
 10 24  2  0  0  0  0
 10 11  1  0  0  0  0
 11 12  2  0  0  0  0
 11 26  1  0  0  0  0
 12 13  1  0  0  0  0
 12 40  1  0  0  0  0
 13 14  1  0  0  0  0
 13 23  2  0  0  0  0
 14 22  1  0  0  0  0
 14 15  1  0  0  0  0
 14 21  1  0  0  0  0
 15 16  1  0  0  0  0
 15 41  1  0  0  0  0
 15 42  1  0  0  0  0
 16 17  1  0  0  0  0
 16 43  1  0  0  0  0
 16 44  1  0  0  0  0
 17 18  1  0  0  0  0
 17 45  1  0  0  0  0
 17 46  1  0  0  0  0
 18 19  1  0  0  0  0
 18 47  1  0  0  0  0
 18 48  1  0  0  0  0
 19 20  1  0  0  0  0
 19 49  1  0  0  0  0
 19 50  1  0  0  0  0
 20 51  1  0  0  0  0
 20 52  1  0  0  0  0
 20 53  1  0  0  0  0
 21 22  1  0  0  0  0
 21 54  1  0  0  0  0
 21 55  1  0  0  0  0
 22 56  1  0  0  0  0
 22 57  1  0  0  0  0
 23 24  1  0  0  0  0
 23 58  1  0  0  0  0
 24 25  1  0  0  0  0
 25 59  1  0  0  0  0
 26 60  1  0  0  0  0
 27 61  1  0  0  0  0
 27 62  1  0  0  0  0
 27 63  1  0  0  0  0
M  END
$$$$
CHEMBL118631
 OpenBabel12022418083D

 63 66  0  0  1  0  0  0  0  0999 V2000
    2.2557   -0.4523    2.6380 C   0  0  0  0  0  0  0  0  0  0  0  0
    1.8164    0.1937    1.3153 C   0  0  1  0  0  0  0  0  0  0  0  0
    2.0719   -1.3040    1.4133 C   0  0  0  0  0  0  0  0  0  0  0  0
    0.3732    0.6793    1.1982 C   0  0  0  0  0  0  0  0  0  0  0  0
   -0.0311    1.8781    1.8143 C   0  0  0  0  0  0  0  0  0  0  0  0
   -1.2573    2.4304    1.5027 C   0  0  0  0  0  0  0  0  0  0  0  0
   -2.1499    1.7837    0.5981 C   0  0  0  0  0  0  0  0  0  0  0  0
   -3.3161    2.5688    0.0395 C   0  0  1  0  0  0  0  0  0  0  0  0
   -2.7108    3.9810    0.0118 C   0  0  2  0  0  0  0  0  0  0  0  0
   -2.6485    4.4090    1.5111 C   0  0  0  0  0  0  0  0  0  0  0  0
   -2.5752    5.9331    1.6216 C   0  0  0  0  0  0  0  0  0  0  0  0
   -3.7288    3.9718    2.5377 C   0  0  0  0  0  0  0  0  0  0  0  0
   -1.4419    3.7436    2.0002 O   0  0  0  0  0  0  0  0  0  0  0  0
   -3.1189    4.8785   -1.1601 C   0  0  0  0  0  0  0  0  0  0  0  0
   -4.5203    4.6447   -1.5703 C   0  0  0  0  0  0  0  0  0  0  0  0
   -4.9865    3.3881   -1.5836 C   0  0  0  0  0  0  0  0  0  0  0  0
   -4.0470    2.2241   -1.2561 C   0  0  0  0  0  0  0  0  0  0  0  0
   -6.4494    3.1463   -1.7714 C   0  0  0  0  0  0  0  0  0  0  0  0
   -1.8145    0.5237    0.1441 C   0  0  0  0  0  0  0  0  0  0  0  0
   -0.5491    0.0031    0.3828 C   0  0  0  0  0  0  0  0  0  0  0  0
   -2.6951   -0.1980   -0.6007 O   0  0  0  0  0  0  0  0  0  0  0  0
    2.7550    1.0944    0.5065 C   0  0  0  0  0  0  0  0  0  0  0  0
    3.9745    0.4626   -0.1598 C   0  0  0  0  0  0  0  0  0  0  0  0
    4.7407    1.5462   -0.9181 C   0  0  0  0  0  0  0  0  0  0  0  0
    6.0472    1.0342   -1.5133 C   0  0  0  0  0  0  0  0  0  0  0  0
    6.7263    2.1566   -2.2965 C   0  0  0  0  0  0  0  0  0  0  0  0
    8.0593    1.7235   -2.8780 C   0  0  0  0  0  0  0  0  0  0  0  0
    0.9974   -0.7368    4.0651 Br  0  0  0  0  0  0  0  0  0  0  0  0
    4.0137   -0.2342    3.3389 Br  0  0  0  0  0  0  0  0  0  0  0  0
    2.9412   -1.7308    0.9309 H   0  0  0  0  0  0  0  0  0  0  0  0
    1.2220   -1.9766    1.3789 H   0  0  0  0  0  0  0  0  0  0  0  0
    0.6637    2.4221    2.4495 H   0  0  0  0  0  0  0  0  0  0  0  0
   -4.1211    2.4798    0.7810 H   0  0  0  0  0  0  0  0  0  0  0  0
   -1.6471    3.8973   -0.2851 H   0  0  0  0  0  0  0  0  0  0  0  0
   -3.4214    6.3952    1.0924 H   0  0  0  0  0  0  0  0  0  0  0  0
   -1.6371    6.3215    1.2221 H   0  0  0  0  0  0  0  0  0  0  0  0
   -2.6577    6.2728    2.6600 H   0  0  0  0  0  0  0  0  0  0  0  0
   -3.4673    4.3622    3.5321 H   0  0  0  0  0  0  0  0  0  0  0  0
   -4.7294    4.3242    2.2808 H   0  0  0  0  0  0  0  0  0  0  0  0
   -3.7573    2.8886    2.7123 H   0  0  0  0  0  0  0  0  0  0  0  0
   -2.9095    5.9309   -0.9851 H   0  0  0  0  0  0  0  0  0  0  0  0
   -2.4870    4.6182   -2.0299 H   0  0  0  0  0  0  0  0  0  0  0  0
   -5.1312    5.4918   -1.8365 H   0  0  0  0  0  0  0  0  0  0  0  0
   -4.6255    1.2953   -1.1287 H   0  0  0  0  0  0  0  0  0  0  0  0
   -3.3460    2.0517   -2.0818 H   0  0  0  0  0  0  0  0  0  0  0  0
   -6.9943    3.6950   -0.9919 H   0  0  0  0  0  0  0  0  0  0  0  0
   -6.7124    2.0935   -1.6728 H   0  0  0  0  0  0  0  0  0  0  0  0
   -6.7852    3.5053   -2.7470 H   0  0  0  0  0  0  0  0  0  0  0  0
   -0.2457   -0.9022   -0.1388 H   0  0  0  0  0  0  0  0  0  0  0  0
   -2.6464   -1.1148   -0.2794 H   0  0  0  0  0  0  0  0  0  0  0  0
    2.1687    1.5474   -0.3088 H   0  0  0  0  0  0  0  0  0  0  0  0
    3.0652    1.9339    1.1419 H   0  0  0  0  0  0  0  0  0  0  0  0
    3.6625   -0.3251   -0.8556 H   0  0  0  0  0  0  0  0  0  0  0  0
    4.6380   -0.0002    0.5735 H   0  0  0  0  0  0  0  0  0  0  0  0
    4.1040    1.9447   -1.7181 H   0  0  0  0  0  0  0  0  0  0  0  0
    4.9615    2.3800   -0.2400 H   0  0  0  0  0  0  0  0  0  0  0  0
    5.8461    0.1850   -2.1776 H   0  0  0  0  0  0  0  0  0  0  0  0
    6.7081    0.6762   -0.7147 H   0  0  0  0  0  0  0  0  0  0  0  0
    6.8819    3.0283   -1.6491 H   0  0  0  0  0  0  0  0  0  0  0  0
    6.0643    2.4774   -3.1095 H   0  0  0  0  0  0  0  0  0  0  0  0
    8.0322    0.6871   -3.2270 H   0  0  0  0  0  0  0  0  0  0  0  0
    8.8519    1.8152   -2.1288 H   0  0  0  0  0  0  0  0  0  0  0  0
    8.3226    2.3636   -3.7259 H   0  0  0  0  0  0  0  0  0  0  0  0
  1  3  1  0  0  0  0
  1  2  1  0  0  0  0
  1 28  1  0  0  0  0
  1 29  1  0  0  0  0
  2  3  1  0  0  0  0
  2 22  1  6  0  0  0
  2  4  1  0  0  0  0
  3 30  1  0  0  0  0
  3 31  1  0  0  0  0
  4 20  2  0  0  0  0
  4  5  1  0  0  0  0
  5  6  2  0  0  0  0
  5 32  1  0  0  0  0
  6 13  1  0  0  0  0
  6  7  1  0  0  0  0
  7  8  1  0  0  0  0
  7 19  2  0  0  0  0
  8  9  1  0  0  0  0
  8 17  1  0  0  0  0
  8 33  1  1  0  0  0
  9 10  1  0  0  0  0
  9 14  1  0  0  0  0
  9 34  1  6  0  0  0
 10 13  1  0  0  0  0
 10 11  1  0  0  0  0
 10 12  1  0  0  0  0
 11 35  1  0  0  0  0
 11 36  1  0  0  0  0
 11 37  1  0  0  0  0
 12 38  1  0  0  0  0
 12 39  1  0  0  0  0
 12 40  1  0  0  0  0
 14 15  1  0  0  0  0
 14 41  1  0  0  0  0
 14 42  1  0  0  0  0
 15 16  2  0  0  0  0
 15 43  1  0  0  0  0
 16 17  1  0  0  0  0
 16 18  1  0  0  0  0
 17 44  1  0  0  0  0
 17 45  1  0  0  0  0
 18 46  1  0  0  0  0
 18 47  1  0  0  0  0
 18 48  1  0  0  0  0
 19 20  1  0  0  0  0
 19 21  1  0  0  0  0
 20 49  1  0  0  0  0
 21 50  1  0  0  0  0
 22 23  1  0  0  0  0
 22 51  1  0  0  0  0
 22 52  1  0  0  0  0
 23 24  1  0  0  0  0
 23 53  1  0  0  0  0
 23 54  1  0  0  0  0
 24 25  1  0  0  0  0
 24 55  1  0  0  0  0
 24 56  1  0  0  0  0
 25 26  1  0  0  0  0
 25 57  1  0  0  0  0
 25 58  1  0  0  0  0
 26 27  1  0  0  0  0
 26 59  1  0  0  0  0
 26 60  1  0  0  0  0
 27 61  1  0  0  0  0
 27 62  1  0  0  0  0
 27 63  1  0  0  0  0
M  END
$$$$
CHEMBL57802
 OpenBabel12022418083D

 65 67  0  0  1  0  0  0  0  0999 V2000
    0.9470   -0.2561    0.1053 C   0  0  0  0  0  0  0  0  0  0  0  0
    2.2869   -0.2424    0.1340 C   0  0  0  0  0  0  0  0  0  0  0  0
    3.1204   -1.4754    0.3150 C   0  0  0  0  0  0  0  0  0  0  0  0
    4.0090   -1.6795   -0.9140 C   0  0  0  0  0  0  0  0  0  0  0  0
    4.8145   -0.4135   -1.2741 C   0  0  2  0  0  0  0  0  0  0  0  0
    3.9244    0.8578   -1.3803 C   0  0  1  0  0  0  0  0  0  0  0  0
    3.0959    1.0082   -0.0868 C   0  0  0  0  0  0  0  0  0  0  0  0
    4.8036    2.0439   -1.7246 C   0  0  0  0  0  0  0  0  0  0  0  0
    4.4194    3.3784   -1.5549 C   0  0  0  0  0  0  0  0  0  0  0  0
    5.2975    4.4372   -1.7709 C   0  0  0  0  0  0  0  0  0  0  0  0
    6.5957    4.2213   -2.2473 C   0  0  0  0  0  0  0  0  0  0  0  0
    7.5241    5.4237   -2.5126 C   0  0  0  0  0  0  0  0  0  0  0  0
    8.8977    4.9757   -3.0603 C   0  0  0  0  0  0  0  0  0  0  0  0
    6.8587    6.3287   -3.5766 C   0  0  0  0  0  0  0  0  0  0  0  0
    7.7323    6.2208   -1.1823 C   0  0  0  0  0  0  0  0  0  0  0  0
    8.6178    7.4660   -1.3116 C   0  0  0  0  0  0  0  0  0  0  0  0
    8.7786    8.1997    0.0175 C   0  0  0  0  0  0  0  0  0  0  0  0
    9.6728    9.4238   -0.1759 C   0  0  0  0  0  0  0  0  0  0  0  0
    9.8724   10.1880    1.1260 C   0  0  0  0  0  0  0  0  0  0  0  0
   10.7657   11.4001    0.9104 C   0  0  0  0  0  0  0  0  0  0  0  0
    6.9590    2.8904   -2.5041 C   0  0  0  0  0  0  0  0  0  0  0  0
    6.0800    1.8231   -2.2644 C   0  0  0  0  0  0  0  0  0  0  0  0
    6.5836    0.5931   -2.6012 O   0  0  0  0  0  0  0  0  0  0  0  0
    5.6791   -0.5305   -2.5532 C   0  0  0  0  0  0  0  0  0  0  0  0
    6.5675   -1.7871   -2.5090 C   0  0  0  0  0  0  0  0  0  0  0  0
    4.8907   -0.5766   -3.8766 C   0  0  0  0  0  0  0  0  0  0  0  0
    3.1517    3.7596   -1.2132 O   0  0  0  0  0  0  0  0  0  0  0  0
    0.3752    0.6521   -0.0643 H   0  0  0  0  0  0  0  0  0  0  0  0
    0.3834   -1.1743    0.2363 H   0  0  0  0  0  0  0  0  0  0  0  0
    2.5029   -2.3650    0.4754 H   0  0  0  0  0  0  0  0  0  0  0  0
    3.7444   -1.3571    1.2118 H   0  0  0  0  0  0  0  0  0  0  0  0
    3.3889   -1.9913   -1.7637 H   0  0  0  0  0  0  0  0  0  0  0  0
    4.6922   -2.5072   -0.6943 H   0  0  0  0  0  0  0  0  0  0  0  0
    5.5087   -0.2474   -0.4341 H   0  0  0  0  0  0  0  0  0  0  0  0
    3.2166    0.7353   -2.2121 H   0  0  0  0  0  0  0  0  0  0  0  0
    3.7518    1.1888    0.7745 H   0  0  0  0  0  0  0  0  0  0  0  0
    2.4116    1.8562   -0.1313 H   0  0  0  0  0  0  0  0  0  0  0  0
    4.9334    5.4463   -1.5845 H   0  0  0  0  0  0  0  0  0  0  0  0
    8.7914    4.3983   -3.9862 H   0  0  0  0  0  0  0  0  0  0  0  0
    9.4293    4.3546   -2.3294 H   0  0  0  0  0  0  0  0  0  0  0  0
    9.5452    5.8227   -3.3059 H   0  0  0  0  0  0  0  0  0  0  0  0
    6.6419    5.7687   -4.4944 H   0  0  0  0  0  0  0  0  0  0  0  0
    7.5010    7.1696   -3.8579 H   0  0  0  0  0  0  0  0  0  0  0  0
    5.9133    6.7529   -3.2207 H   0  0  0  0  0  0  0  0  0  0  0  0
    8.1645    5.5530   -0.4245 H   0  0  0  0  0  0  0  0  0  0  0  0
    6.7641    6.5448   -0.7793 H   0  0  0  0  0  0  0  0  0  0  0  0
    8.1852    8.1617   -2.0390 H   0  0  0  0  0  0  0  0  0  0  0  0
    9.6127    7.1897   -1.6735 H   0  0  0  0  0  0  0  0  0  0  0  0
    9.2207    7.5273    0.7623 H   0  0  0  0  0  0  0  0  0  0  0  0
    7.7970    8.5098    0.3950 H   0  0  0  0  0  0  0  0  0  0  0  0
    9.2271   10.0877   -0.9274 H   0  0  0  0  0  0  0  0  0  0  0  0
   10.6475    9.1066   -0.5678 H   0  0  0  0  0  0  0  0  0  0  0  0
   10.3247    9.5329    1.8795 H   0  0  0  0  0  0  0  0  0  0  0  0
    8.9028   10.5174    1.5192 H   0  0  0  0  0  0  0  0  0  0  0  0
   11.7511   11.0950    0.5390 H   0  0  0  0  0  0  0  0  0  0  0  0
   10.9050   11.9429    1.8456 H   0  0  0  0  0  0  0  0  0  0  0  0
   10.3229   12.0836    0.1778 H   0  0  0  0  0  0  0  0  0  0  0  0
    7.9365    2.6371   -2.9063 H   0  0  0  0  0  0  0  0  0  0  0  0
    7.1711   -1.8124   -1.5955 H   0  0  0  0  0  0  0  0  0  0  0  0
    7.2750   -1.7959   -3.3475 H   0  0  0  0  0  0  0  0  0  0  0  0
    5.9778   -2.7080   -2.5664 H   0  0  0  0  0  0  0  0  0  0  0  0
    4.3870    0.3697   -4.0980 H   0  0  0  0  0  0  0  0  0  0  0  0
    4.1457   -1.3775   -3.8810 H   0  0  0  0  0  0  0  0  0  0  0  0
    5.5704   -0.7431   -4.7214 H   0  0  0  0  0  0  0  0  0  0  0  0
    2.5406    3.1773   -1.7056 H   0  0  0  0  0  0  0  0  0  0  0  0
  1  2  2  0  0  0  0
  1 28  1  0  0  0  0
  1 29  1  0  0  0  0
  2  7  1  0  0  0  0
  2  3  1  0  0  0  0
  3  4  1  0  0  0  0
  3 30  1  0  0  0  0
  3 31  1  0  0  0  0
  4 32  1  0  0  0  0
  4 33  1  0  0  0  0
  5  4  1  0  0  0  0
  5  6  1  0  0  0  0
  5 24  1  0  0  0  0
  5 34  1  1  0  0  0
  6  7  1  0  0  0  0
  6  8  1  0  0  0  0
  6 35  1  6  0  0  0
  7 36  1  0  0  0  0
  7 37  1  0  0  0  0
  8 22  2  0  0  0  0
  8  9  1  0  0  0  0
  9 10  2  0  0  0  0
  9 27  1  0  0  0  0
 10 11  1  0  0  0  0
 10 38  1  0  0  0  0
 11 12  1  0  0  0  0
 11 21  2  0  0  0  0
 12 13  1  0  0  0  0
 12 14  1  0  0  0  0
 12 15  1  0  0  0  0
 13 39  1  0  0  0  0
 13 40  1  0  0  0  0
 13 41  1  0  0  0  0
 14 42  1  0  0  0  0
 14 43  1  0  0  0  0
 14 44  1  0  0  0  0
 15 16  1  0  0  0  0
 15 45  1  0  0  0  0
 15 46  1  0  0  0  0
 16 17  1  0  0  0  0
 16 47  1  0  0  0  0
 16 48  1  0  0  0  0
 17 18  1  0  0  0  0
 17 49  1  0  0  0  0
 17 50  1  0  0  0  0
 18 19  1  0  0  0  0
 18 51  1  0  0  0  0
 18 52  1  0  0  0  0
 19 20  1  0  0  0  0
 19 53  1  0  0  0  0
 19 54  1  0  0  0  0
 20 55  1  0  0  0  0
 20 56  1  0  0  0  0
 20 57  1  0  0  0  0
 21 22  1  0  0  0  0
 21 58  1  0  0  0  0
 22 23  1  0  0  0  0
 23 24  1  0  0  0  0
 24 25  1  0  0  0  0
 24 26  1  0  0  0  0
 25 59  1  0  0  0  0
 25 60  1  0  0  0  0
 25 61  1  0  0  0  0
 26 62  1  0  0  0  0
 26 63  1  0  0  0  0
 26 64  1  0  0  0  0
 27 65  1  0  0  0  0
M  END
$$$$
CHEMBL1259057
 OpenBabel12022418083D

 61 64  0  0  1  0  0  0  0  0999 V2000
    0.9867   -0.1836   -0.0820 C   0  0  0  0  0  0  0  0  0  0  0  0
    2.5232   -0.1760    0.0436 C   0  0  0  0  0  0  0  0  0  0  0  0
    3.0907   -0.7203   -1.2802 C   0  0  0  0  0  0  0  0  0  0  0  0
    3.0899   -0.9663    1.2554 C   0  0  1  0  0  0  0  0  0  0  0  0
    2.4456   -0.4086    2.5522 C   0  0  2  0  0  0  0  0  0  0  0  0
    2.5976    1.1022    2.5624 C   0  0  0  0  0  0  0  0  0  0  0  0
    2.8750    1.7974    1.3816 C   0  0  0  0  0  0  0  0  0  0  0  0
    3.1169    3.1964    1.3829 C   0  0  0  0  0  0  0  0  0  0  0  0
    3.0888    3.9548    2.5637 C   0  0  0  0  0  0  0  0  0  0  0  0
    3.4639    5.5125    2.7055 C   0  0  0  0  0  0  0  0  0  0  0  0
    4.9546    5.6616    3.0568 C   0  0  0  0  0  0  0  0  0  0  0  0
    5.9806    5.2672    1.9982 C   0  0  0  0  0  0  0  0  0  0  0  0
    7.3408    5.5324    2.6605 C   0  0  0  0  0  0  0  0  0  0  0  0
    8.5740    5.2079    1.8349 C   0  0  0  0  0  0  0  0  0  0  0  0
    9.8059    5.5303    2.6703 C   0  0  0  0  0  0  0  0  0  0  0  0
   11.4237    5.1415    1.6722 Br  0  0  0  0  0  0  0  0  0  0  0  0
    2.8286    6.5816    1.7486 C   0  0  0  0  0  0  0  0  0  0  0  0
    2.7143    7.5395    2.9643 C   0  0  0  0  0  0  0  0  0  0  0  0
    2.6602    6.2836    3.8467 C   0  0  0  0  0  0  0  0  0  0  0  0
    2.7335    3.2410    3.7276 C   0  0  0  0  0  0  0  0  0  0  0  0
    2.4555    1.8735    3.7160 C   0  0  0  0  0  0  0  0  0  0  0  0
    2.0280    1.3743    4.9054 O   0  0  0  0  0  0  0  0  0  0  0  0
    2.9648    1.1991    0.1371 O   0  0  0  0  0  0  0  0  0  0  0  0
    3.0338   -1.1272    3.7797 C   0  0  0  0  0  0  0  0  0  0  0  0
    2.8601   -2.6176    3.6101 C   0  0  0  0  0  0  0  0  0  0  0  0
    2.2325   -3.2961    4.4176 O   0  0  0  0  0  0  0  0  0  0  0  0
    3.5139   -3.2026    2.3958 C   0  0  0  0  0  0  0  0  0  0  0  0
    2.9646   -2.5018    1.1588 C   0  0  0  0  0  0  0  0  0  0  0  0
    0.6764    0.3121   -1.0101 H   0  0  0  0  0  0  0  0  0  0  0  0
    0.4987    0.3798    0.7176 H   0  0  0  0  0  0  0  0  0  0  0  0
    0.5823   -1.1991   -0.0890 H   0  0  0  0  0  0  0  0  0  0  0  0
    2.8009   -0.0836   -2.1234 H   0  0  0  0  0  0  0  0  0  0  0  0
    2.7316   -1.7317   -1.4936 H   0  0  0  0  0  0  0  0  0  0  0  0
    4.1870   -0.7359   -1.2656 H   0  0  0  0  0  0  0  0  0  0  0  0
    4.1683   -0.7455    1.3069 H   0  0  0  0  0  0  0  0  0  0  0  0
    1.3688   -0.6301    2.5360 H   0  0  0  0  0  0  0  0  0  0  0  0
    3.3614    3.6894    0.4381 H   0  0  0  0  0  0  0  0  0  0  0  0
    5.1512    5.0763    3.9691 H   0  0  0  0  0  0  0  0  0  0  0  0
    5.1694    6.7012    3.3369 H   0  0  0  0  0  0  0  0  0  0  0  0
    5.8679    5.8665    1.0891 H   0  0  0  0  0  0  0  0  0  0  0  0
    5.8950    4.2135    1.7169 H   0  0  0  0  0  0  0  0  0  0  0  0
    7.3924    4.9537    3.5932 H   0  0  0  0  0  0  0  0  0  0  0  0
    7.3906    6.5931    2.9511 H   0  0  0  0  0  0  0  0  0  0  0  0
    8.5722    5.7961    0.9102 H   0  0  0  0  0  0  0  0  0  0  0  0
    8.5673    4.1484    1.5503 H   0  0  0  0  0  0  0  0  0  0  0  0
    9.8457    4.9289    3.5847 H   0  0  0  0  0  0  0  0  0  0  0  0
    9.8471    6.5898    2.9426 H   0  0  0  0  0  0  0  0  0  0  0  0
    1.8452    6.3047    1.3481 H   0  0  0  0  0  0  0  0  0  0  0  0
    3.4509    6.9502    0.9319 H   0  0  0  0  0  0  0  0  0  0  0  0
    1.8304    8.1806    3.0140 H   0  0  0  0  0  0  0  0  0  0  0  0
    3.5963    8.1692    3.1305 H   0  0  0  0  0  0  0  0  0  0  0  0
    3.1588    6.3657    4.8182 H   0  0  0  0  0  0  0  0  0  0  0  0
    1.6403    5.9252    4.0157 H   0  0  0  0  0  0  0  0  0  0  0  0
    2.6710    3.7574    4.6780 H   0  0  0  0  0  0  0  0  0  0  0  0
    1.2609    0.8112    4.7285 H   0  0  0  0  0  0  0  0  0  0  0  0
    2.5200   -0.8677    4.7069 H   0  0  0  0  0  0  0  0  0  0  0  0
    4.0978   -0.9045    3.9167 H   0  0  0  0  0  0  0  0  0  0  0  0
    3.3127   -4.2783    2.3561 H   0  0  0  0  0  0  0  0  0  0  0  0
    4.5966   -3.0642    2.4903 H   0  0  0  0  0  0  0  0  0  0  0  0
    3.5244   -2.8750    0.2939 H   0  0  0  0  0  0  0  0  0  0  0  0
    1.9163   -2.7849    1.0165 H   0  0  0  0  0  0  0  0  0  0  0  0
  1  2  1  0  0  0  0
  1 29  1  0  0  0  0
  1 30  1  0  0  0  0
  1 31  1  0  0  0  0
  2 23  1  0  0  0  0
  2  3  1  0  0  0  0
  2  4  1  0  0  0  0
  3 32  1  0  0  0  0
  3 33  1  0  0  0  0
  3 34  1  0  0  0  0
  4  5  1  0  0  0  0
  4 28  1  0  0  0  0
  4 35  1  1  0  0  0
  5  6  1  0  0  0  0
  5 24  1  0  0  0  0
  5 36  1  6  0  0  0
  6 21  2  0  0  0  0
  6  7  1  0  0  0  0
  7  8  2  0  0  0  0
  7 23  1  0  0  0  0
  8  9  1  0  0  0  0
  8 37  1  0  0  0  0
  9 10  1  0  0  0  0
  9 20  2  0  0  0  0
 10 19  1  0  0  0  0
 10 11  1  0  0  0  0
 10 17  1  0  0  0  0
 11 12  1  0  0  0  0
 11 38  1  0  0  0  0
 11 39  1  0  0  0  0
 12 13  1  0  0  0  0
 12 40  1  0  0  0  0
 12 41  1  0  0  0  0
 13 14  1  0  0  0  0
 13 42  1  0  0  0  0
 13 43  1  0  0  0  0
 14 15  1  0  0  0  0
 14 44  1  0  0  0  0
 14 45  1  0  0  0  0
 15 16  1  0  0  0  0
 15 46  1  0  0  0  0
 15 47  1  0  0  0  0
 17 18  1  0  0  0  0
 17 48  1  0  0  0  0
 17 49  1  0  0  0  0
 18 19  1  0  0  0  0
 18 50  1  0  0  0  0
 18 51  1  0  0  0  0
 19 52  1  0  0  0  0
 19 53  1  0  0  0  0
 20 21  1  0  0  0  0
 20 54  1  0  0  0  0
 21 22  1  0  0  0  0
 22 55  1  0  0  0  0
 24 25  1  0  0  0  0
 24 56  1  0  0  0  0
 24 57  1  0  0  0  0
 25 26  2  0  0  0  0
 25 27  1  0  0  0  0
 27 28  1  0  0  0  0
 27 58  1  0  0  0  0
 27 59  1  0  0  0  0
 28 60  1  0  0  0  0
 28 61  1  0  0  0  0
M  END
$$$$
CHEMBL1259091
 OpenBabel12022418083D

 63 66  0  0  1  0  0  0  0  0999 V2000
    1.0053   -0.0027   -0.1877 C   0  0  0  0  0  0  0  0  0  0  0  0
    2.5386    0.0136   -0.0411 C   0  0  0  0  0  0  0  0  0  0  0  0
    3.1297   -0.5263   -1.3570 C   0  0  0  0  0  0  0  0  0  0  0  0
    3.0862   -0.7771    1.1773 C   0  0  1  0  0  0  0  0  0  0  0  0
    2.4365   -0.2167    2.4670 C   0  0  2  0  0  0  0  0  0  0  0  0
    2.5909    1.2958    2.4778 C   0  0  0  0  0  0  0  0  0  0  0  0
    2.8970    1.9882    1.2929 C   0  0  0  0  0  0  0  0  0  0  0  0
    3.1534    3.3737    1.3145 C   0  0  0  0  0  0  0  0  0  0  0  0
    3.1129    4.1386    2.4957 C   0  0  0  0  0  0  0  0  0  0  0  0
    3.4831    5.7034    2.6355 C   0  0  0  0  0  0  0  0  0  0  0  0
    4.9696    5.8589    3.0178 C   0  0  0  0  0  0  0  0  0  0  0  0
    6.0076    5.4801    1.9601 C   0  0  0  0  0  0  0  0  0  0  0  0
    7.3710    5.7484    2.6096 C   0  0  0  0  0  0  0  0  0  0  0  0
    8.5979    5.4317    1.7671 C   0  0  0  0  0  0  0  0  0  0  0  0
    9.8360    5.7559    2.5963 C   0  0  0  0  0  0  0  0  0  0  0  0
   11.4528    5.3812    1.5941 Br  0  0  0  0  0  0  0  0  0  0  0  0
    2.8585    6.7516    1.6503 C   0  0  0  0  0  0  0  0  0  0  0  0
    2.6994    7.7186    2.8478 C   0  0  0  0  0  0  0  0  0  0  0  0
    2.6496    6.4744    3.7455 C   0  0  0  0  0  0  0  0  0  0  0  0
    2.7267    3.4276    3.6411 C   0  0  0  0  0  0  0  0  0  0  0  0
    2.4344    2.0681    3.6295 C   0  0  0  0  0  0  0  0  0  0  0  0
    1.9566    1.5815    4.8090 O   0  0  0  0  0  0  0  0  0  0  0  0
    2.9797    1.3898    0.0556 O   0  0  0  0  0  0  0  0  0  0  0  0
    3.0263   -0.9452    3.6921 C   0  0  0  0  0  0  0  0  0  0  0  0
    2.8247   -2.4545    3.5884 C   0  0  1  0  0  0  0  0  0  0  0  0
    3.4964   -3.0022    2.3404 C   0  0  0  0  0  0  0  0  0  0  0  0
    2.9628   -2.3105    1.0864 C   0  0  0  0  0  0  0  0  0  0  0  0
    3.3436   -3.0974    4.7459 O   0  0  0  0  0  0  0  0  0  0  0  0
    0.7034    0.4928   -1.1179 H   0  0  0  0  0  0  0  0  0  0  0  0
    0.5028    0.5549    0.6092 H   0  0  0  0  0  0  0  0  0  0  0  0
    0.6064   -1.0212   -0.2024 H   0  0  0  0  0  0  0  0  0  0  0  0
    2.8530    0.1149   -2.2020 H   0  0  0  0  0  0  0  0  0  0  0  0
    2.7736   -1.5390   -1.5821 H   0  0  0  0  0  0  0  0  0  0  0  0
    4.2239   -0.5401   -1.3235 H   0  0  0  0  0  0  0  0  0  0  0  0
    4.1662   -0.5606    1.2371 H   0  0  0  0  0  0  0  0  0  0  0  0
    1.3600   -0.4281    2.4524 H   0  0  0  0  0  0  0  0  0  0  0  0
    3.4165    3.8728    0.3735 H   0  0  0  0  0  0  0  0  0  0  0  0
    5.1584    5.2677    3.9209 H   0  0  0  0  0  0  0  0  0  0  0  0
    5.1716    6.8986    3.3057 H   0  0  0  0  0  0  0  0  0  0  0  0
    5.8832    6.0825    1.0517 H   0  0  0  0  0  0  0  0  0  0  0  0
    5.9239    4.4265    1.6728 H   0  0  0  0  0  0  0  0  0  0  0  0
    7.4320    5.1654    3.5385 H   0  0  0  0  0  0  0  0  0  0  0  0
    7.4162    6.8061    2.9007 H   0  0  0  0  0  0  0  0  0  0  0  0
    8.5876    6.0247    0.8453 H   0  0  0  0  0  0  0  0  0  0  0  0
    8.5960    4.3748    1.4772 H   0  0  0  0  0  0  0  0  0  0  0  0
    9.8816    5.1527    3.5089 H   0  0  0  0  0  0  0  0  0  0  0  0
    9.8724    6.8145    2.8727 H   0  0  0  0  0  0  0  0  0  0  0  0
    1.8918    6.4524    1.2260 H   0  0  0  0  0  0  0  0  0  0  0  0
    3.4969    7.1181    0.8437 H   0  0  0  0  0  0  0  0  0  0  0  0
    1.8010    8.3410    2.8696 H   0  0  0  0  0  0  0  0  0  0  0  0
    3.5656    8.3655    3.0267 H   0  0  0  0  0  0  0  0  0  0  0  0
    3.1267    6.5765    4.7272 H   0  0  0  0  0  0  0  0  0  0  0  0
    1.6307    6.1009    3.9014 H   0  0  0  0  0  0  0  0  0  0  0  0
    2.6477    3.9478    4.5916 H   0  0  0  0  0  0  0  0  0  0  0  0
    1.2452    0.9553    4.5986 H   0  0  0  0  0  0  0  0  0  0  0  0
    2.5630   -0.6336    4.6302 H   0  0  0  0  0  0  0  0  0  0  0  0
    4.0928   -0.7072    3.8036 H   0  0  0  0  0  0  0  0  0  0  0  0
    1.7521   -2.6803    3.5549 H   0  0  0  0  0  0  0  0  0  0  0  0
    3.3401   -4.0852    2.2747 H   0  0  0  0  0  0  0  0  0  0  0  0
    4.5835   -2.8640    2.4154 H   0  0  0  0  0  0  0  0  0  0  0  0
    3.5356   -2.6878    0.2315 H   0  0  0  0  0  0  0  0  0  0  0  0
    1.9188   -2.6023    0.9300 H   0  0  0  0  0  0  0  0  0  0  0  0
    4.2232   -2.7280    4.9354 H   0  0  0  0  0  0  0  0  0  0  0  0
  1  2  1  0  0  0  0
  1 29  1  0  0  0  0
  1 30  1  0  0  0  0
  1 31  1  0  0  0  0
  2 23  1  0  0  0  0
  2  3  1  0  0  0  0
  2  4  1  0  0  0  0
  3 32  1  0  0  0  0
  3 33  1  0  0  0  0
  3 34  1  0  0  0  0
  4  5  1  0  0  0  0
  4 27  1  0  0  0  0
  4 35  1  1  0  0  0
  5  6  1  0  0  0  0
  5 24  1  0  0  0  0
  5 36  1  6  0  0  0
  6 21  2  0  0  0  0
  6  7  1  0  0  0  0
  7  8  2  0  0  0  0
  7 23  1  0  0  0  0
  8  9  1  0  0  0  0
  8 37  1  0  0  0  0
  9 10  1  0  0  0  0
  9 20  2  0  0  0  0
 10 19  1  0  0  0  0
 10 11  1  0  0  0  0
 10 17  1  0  0  0  0
 11 12  1  0  0  0  0
 11 38  1  0  0  0  0
 11 39  1  0  0  0  0
 12 13  1  0  0  0  0
 12 40  1  0  0  0  0
 12 41  1  0  0  0  0
 13 14  1  0  0  0  0
 13 42  1  0  0  0  0
 13 43  1  0  0  0  0
 14 15  1  0  0  0  0
 14 44  1  0  0  0  0
 14 45  1  0  0  0  0
 15 16  1  0  0  0  0
 15 46  1  0  0  0  0
 15 47  1  0  0  0  0
 17 18  1  0  0  0  0
 17 48  1  0  0  0  0
 17 49  1  0  0  0  0
 18 19  1  0  0  0  0
 18 50  1  0  0  0  0
 18 51  1  0  0  0  0
 19 52  1  0  0  0  0
 19 53  1  0  0  0  0
 20 21  1  0  0  0  0
 20 54  1  0  0  0  0
 21 22  1  0  0  0  0
 22 55  1  0  0  0  0
 24 25  1  0  0  0  0
 24 56  1  0  0  0  0
 24 57  1  0  0  0  0
 25 26  1  0  0  0  0
 25 28  1  0  0  0  0
 25 58  1  6  0  0  0
 26 27  1  0  0  0  0
 26 59  1  0  0  0  0
 26 60  1  0  0  0  0
 27 61  1  0  0  0  0
 27 62  1  0  0  0  0
 28 63  1  0  0  0  0
M  END
$$$$
CHEMBL1259076
 OpenBabel12022418083D

 66 69  0  0  1  0  0  0  0  0999 V2000
    4.0839   -2.3513    1.6925 C   0  0  0  0  0  0  0  0  0  0  0  0
    4.1818   -0.9663    1.0744 C   0  0  0  0  0  0  0  0  0  0  0  0
    5.0507   -0.9804   -0.1791 C   0  0  0  0  0  0  0  0  0  0  0  0
    5.1529    0.4123   -0.8066 C   0  0  0  0  0  0  0  0  0  0  0  0
    6.0353    0.3547   -2.0473 C   0  0  0  0  0  0  0  0  0  0  0  0
    6.1896    1.7143   -2.7416 C   0  0  0  0  0  0  0  0  0  0  0  0
    7.0805    1.6026   -4.0028 C   0  0  0  0  0  0  0  0  0  0  0  0
    6.2674    0.7929   -5.1288 C   0  0  0  0  0  0  0  0  0  0  0  0
    5.3337    1.4051   -5.9780 C   0  0  0  0  0  0  0  0  0  0  0  0
    4.4903    0.6592   -6.7976 C   0  0  0  0  0  0  0  0  0  0  0  0
    4.5127   -0.7446   -6.8032 C   0  0  0  0  0  0  0  0  0  0  0  0
    5.5161   -1.3619   -6.0350 C   0  0  0  0  0  0  0  0  0  0  0  0
    6.3647   -0.6086   -5.2380 C   0  0  0  0  0  0  0  0  0  0  0  0
    5.7123   -2.7192   -5.9587 O   0  0  0  0  0  0  0  0  0  0  0  0
    5.0184   -3.5271   -6.9265 C   0  0  0  0  0  0  0  0  0  0  0  0
    5.0773   -4.9733   -6.4025 C   0  0  0  0  0  0  0  0  0  0  0  0
    5.8214   -3.4811   -8.2409 C   0  0  0  0  0  0  0  0  0  0  0  0
    3.5501   -3.0291   -7.0264 C   0  0  2  0  0  0  0  0  0  0  0  0
    2.5971   -3.9738   -7.7756 C   0  0  0  0  0  0  0  0  0  0  0  0
    1.1914   -3.3947   -7.8992 C   0  0  0  0  0  0  0  0  0  0  0  0
    1.2242   -2.0070   -8.5138 C   0  0  2  0  0  0  0  0  0  0  0  0
    2.0998   -1.0717   -7.6886 C   0  0  0  0  0  0  0  0  0  0  0  0
    3.5466   -1.5924   -7.6075 C   0  0  1  0  0  0  0  0  0  0  0  0
   -0.0986   -1.4891   -8.6008 O   0  0  0  0  0  0  0  0  0  0  0  0
    3.6128    1.3350   -7.5942 O   0  0  0  0  0  0  0  0  0  0  0  0
    7.7449    2.9813   -4.3668 C   0  0  0  0  0  0  0  0  0  0  0  0
    9.0211    2.2063   -4.7344 C   0  0  0  0  0  0  0  0  0  0  0  0
    8.5560    1.1058   -3.7637 C   0  0  0  0  0  0  0  0  0  0  0  0
    3.4451   -2.3246    2.5805 H   0  0  0  0  0  0  0  0  0  0  0  0
    5.0704   -2.7179    1.9935 H   0  0  0  0  0  0  0  0  0  0  0  0
    3.6535   -3.0668    0.9843 H   0  0  0  0  0  0  0  0  0  0  0  0
    4.6033   -0.2711    1.8095 H   0  0  0  0  0  0  0  0  0  0  0  0
    3.1767   -0.6091    0.8243 H   0  0  0  0  0  0  0  0  0  0  0  0
    4.6347   -1.6850   -0.9108 H   0  0  0  0  0  0  0  0  0  0  0  0
    6.0542   -1.3432    0.0774 H   0  0  0  0  0  0  0  0  0  0  0  0
    5.5888    1.1086   -0.0810 H   0  0  0  0  0  0  0  0  0  0  0  0
    4.1561    0.7861   -1.0672 H   0  0  0  0  0  0  0  0  0  0  0  0
    5.6177   -0.3781   -2.7426 H   0  0  0  0  0  0  0  0  0  0  0  0
    7.0196   -0.0243   -1.7479 H   0  0  0  0  0  0  0  0  0  0  0  0
    6.6240    2.4318   -2.0349 H   0  0  0  0  0  0  0  0  0  0  0  0
    5.2007    2.1096   -3.0097 H   0  0  0  0  0  0  0  0  0  0  0  0
    5.2421    2.4882   -5.9520 H   0  0  0  0  0  0  0  0  0  0  0  0
    7.0862   -1.1401   -4.6114 H   0  0  0  0  0  0  0  0  0  0  0  0
    6.1118   -5.2759   -6.2017 H   0  0  0  0  0  0  0  0  0  0  0  0
    4.6601   -5.6846   -7.1236 H   0  0  0  0  0  0  0  0  0  0  0  0
    4.5353   -5.0748   -5.4567 H   0  0  0  0  0  0  0  0  0  0  0  0
    6.8155   -3.9209   -8.0947 H   0  0  0  0  0  0  0  0  0  0  0  0
    6.0133   -2.4573   -8.5791 H   0  0  0  0  0  0  0  0  0  0  0  0
    5.3213   -4.0256   -9.0468 H   0  0  0  0  0  0  0  0  0  0  0  0
    3.1666   -2.9604   -5.9938 H   0  0  0  0  0  0  0  0  0  0  0  0
    2.5146   -4.9264   -7.2411 H   0  0  0  0  0  0  0  0  0  0  0  0
    2.9880   -4.1950   -8.7743 H   0  0  0  0  0  0  0  0  0  0  0  0
    0.7132   -3.3501   -6.9119 H   0  0  0  0  0  0  0  0  0  0  0  0
    0.5620   -4.0572   -8.5042 H   0  0  0  0  0  0  0  0  0  0  0  0
    1.6144   -2.0653   -9.5372 H   0  0  0  0  0  0  0  0  0  0  0  0
    1.6812   -0.9325   -6.6824 H   0  0  0  0  0  0  0  0  0  0  0  0
    2.0368   -0.0951   -8.1729 H   0  0  0  0  0  0  0  0  0  0  0  0
    3.9319   -1.6179   -8.6354 H   0  0  0  0  0  0  0  0  0  0  0  0
   -0.3878   -1.2504   -7.7037 H   0  0  0  0  0  0  0  0  0  0  0  0
    3.5891    2.2673   -7.3228 H   0  0  0  0  0  0  0  0  0  0  0  0
    7.8976    3.6522   -3.5104 H   0  0  0  0  0  0  0  0  0  0  0  0
    7.3032    3.5720   -5.1746 H   0  0  0  0  0  0  0  0  0  0  0  0
    9.9666    2.6885   -4.4768 H   0  0  0  0  0  0  0  0  0  0  0  0
    9.0570    1.8927   -5.7839 H   0  0  0  0  0  0  0  0  0  0  0  0
    8.7874    0.0911   -4.0869 H   0  0  0  0  0  0  0  0  0  0  0  0
    8.9121    1.2291   -2.7361 H   0  0  0  0  0  0  0  0  0  0  0  0
  1  2  1  0  0  0  0
  1 29  1  0  0  0  0
  1 30  1  0  0  0  0
  1 31  1  0  0  0  0
  2  3  1  0  0  0  0
  2 32  1  0  0  0  0
  2 33  1  0  0  0  0
  3  4  1  0  0  0  0
  3 34  1  0  0  0  0
  3 35  1  0  0  0  0
  4  5  1  0  0  0  0
  4 36  1  0  0  0  0
  4 37  1  0  0  0  0
  5  6  1  0  0  0  0
  5 38  1  0  0  0  0
  5 39  1  0  0  0  0
  6  7  1  0  0  0  0
  6 40  1  0  0  0  0
  6 41  1  0  0  0  0
  7 28  1  0  0  0  0
  7  8  1  0  0  0  0
  7 26  1  0  0  0  0
  8 13  2  0  0  0  0
  8  9  1  0  0  0  0
  9 10  2  0  0  0  0
  9 42  1  0  0  0  0
 10 11  1  0  0  0  0
 10 25  1  0  0  0  0
 11 23  1  0  0  0  0
 11 12  2  0  0  0  0
 12 13  1  0  0  0  0
 12 14  1  0  0  0  0
 13 43  1  0  0  0  0
 14 15  1  0  0  0  0
 15 16  1  0  0  0  0
 15 17  1  0  0  0  0
 15 18  1  0  0  0  0
 16 44  1  0  0  0  0
 16 45  1  0  0  0  0
 16 46  1  0  0  0  0
 17 47  1  0  0  0  0
 17 48  1  0  0  0  0
 17 49  1  0  0  0  0
 18 19  1  0  0  0  0
 18 23  1  0  0  0  0
 18 50  1  1  0  0  0
 19 20  1  0  0  0  0
 19 51  1  0  0  0  0
 19 52  1  0  0  0  0
 20 21  1  0  0  0  0
 20 53  1  0  0  0  0
 20 54  1  0  0  0  0
 21 22  1  0  0  0  0
 21 24  1  0  0  0  0
 21 55  1  6  0  0  0
 22 56  1  0  0  0  0
 22 57  1  0  0  0  0
 23 22  1  0  0  0  0
 23 58  1  6  0  0  0
 24 59  1  0  0  0  0
 25 60  1  0  0  0  0
 26 27  1  0  0  0  0
 26 61  1  0  0  0  0
 26 62  1  0  0  0  0
 27 28  1  0  0  0  0
 27 63  1  0  0  0  0
 27 64  1  0  0  0  0
 28 65  1  0  0  0  0
 28 66  1  0  0  0  0
M  END
$$$$
CHEMBL59540
 OpenBabel12022418083D

 64 66  0  0  1  0  0  0  0  0999 V2000
   -0.3789  -10.3365   -0.6519 C   0  0  0  0  0  0  0  0  0  0  0  0
   -0.9121   -8.9147   -0.5923 C   0  0  0  0  0  0  0  0  0  0  0  0
    0.2007   -7.9166   -0.2731 C   0  0  0  0  0  0  0  0  0  0  0  0
   -0.3369   -6.4863   -0.2311 C   0  0  0  0  0  0  0  0  0  0  0  0
    0.7683   -5.4796    0.1031 C   0  0  0  0  0  0  0  0  0  0  0  0
    0.2023   -4.0545    0.1659 C   0  0  0  0  0  0  0  0  0  0  0  0
    1.2325   -2.9264    0.4922 C   0  0  0  0  0  0  0  0  0  0  0  0
    2.3784   -2.9111   -0.5438 C   0  0  0  0  0  0  0  0  0  0  0  0
    1.8648   -3.1791    1.8783 C   0  0  0  0  0  0  0  0  0  0  0  0
    0.4763   -1.5864    0.4377 C   0  0  0  0  0  0  0  0  0  0  0  0
    0.0924   -0.8783    1.5859 C   0  0  0  0  0  0  0  0  0  0  0  0
   -0.6606    0.3003    1.4756 C   0  0  0  0  0  0  0  0  0  0  0  0
   -1.2908    0.6303    0.2998 C   0  0  0  0  0  0  0  0  0  0  0  0
   -0.7565    0.0424   -0.8738 C   0  0  0  0  0  0  0  0  0  0  0  0
    0.1359   -1.0307   -0.8042 C   0  0  0  0  0  0  0  0  0  0  0  0
   -1.3114    0.2809   -2.1035 O   0  0  0  0  0  0  0  0  0  0  0  0
   -2.7454    0.0333   -2.1369 C   0  0  0  0  0  0  0  0  0  0  0  0
   -2.9705   -1.2199   -2.9851 C   0  0  0  0  0  0  0  0  0  0  0  0
   -3.3836    1.2361   -2.8551 C   0  0  0  0  0  0  0  0  0  0  0  0
   -3.2757   -0.1846   -0.6965 C   0  0  2  0  0  0  0  0  0  0  0  0
   -4.7120   -0.6020   -0.5454 C   0  0  0  0  0  0  0  0  0  0  0  0
   -5.6108    0.5110   -0.2045 C   0  0  0  0  0  0  0  0  0  0  0  0
   -5.2230    1.2336    0.8605 C   0  0  0  0  0  0  0  0  0  0  0  0
   -6.3807    1.6064    1.6824 C   0  0  0  0  0  0  0  0  0  0  0  0
   -6.2647    1.9173    2.8799 O   0  0  0  0  0  0  0  0  0  0  0  0
   -3.7660    1.3093    1.3435 C   0  0  0  0  0  0  0  0  0  0  0  0
   -2.7739    1.0175    0.1732 C   0  0  1  0  0  0  0  0  0  0  0  0
   -0.2499    1.3321    2.3009 O   0  0  0  0  0  0  0  0  0  0  0  0
   -1.1995  -11.0435   -0.8080 H   0  0  0  0  0  0  0  0  0  0  0  0
    0.1299  -10.6051    0.2794 H   0  0  0  0  0  0  0  0  0  0  0  0
    0.3310  -10.4515   -1.4771 H   0  0  0  0  0  0  0  0  0  0  0  0
   -1.3781   -8.6633   -1.5522 H   0  0  0  0  0  0  0  0  0  0  0  0
   -1.6944   -8.8545    0.1734 H   0  0  0  0  0  0  0  0  0  0  0  0
    0.9930   -7.9919   -1.0275 H   0  0  0  0  0  0  0  0  0  0  0  0
    0.6506   -8.1682    0.6952 H   0  0  0  0  0  0  0  0  0  0  0  0
   -0.7828   -6.2344   -1.2012 H   0  0  0  0  0  0  0  0  0  0  0  0
   -1.1346   -6.4182    0.5187 H   0  0  0  0  0  0  0  0  0  0  0  0
    1.5521   -5.5417   -0.6598 H   0  0  0  0  0  0  0  0  0  0  0  0
    1.2197   -5.7519    1.0630 H   0  0  0  0  0  0  0  0  0  0  0  0
   -0.2832   -3.8431   -0.7971 H   0  0  0  0  0  0  0  0  0  0  0  0
   -0.6043   -4.0329    0.9128 H   0  0  0  0  0  0  0  0  0  0  0  0
    3.1079   -3.7050   -0.3560 H   0  0  0  0  0  0  0  0  0  0  0  0
    2.0052   -3.0566   -1.5635 H   0  0  0  0  0  0  0  0  0  0  0  0
    2.9180   -1.9562   -0.5204 H   0  0  0  0  0  0  0  0  0  0  0  0
    2.4798   -2.3276    2.1939 H   0  0  0  0  0  0  0  0  0  0  0  0
    2.5165   -4.0592    1.8741 H   0  0  0  0  0  0  0  0  0  0  0  0
    1.1010   -3.3498    2.6466 H   0  0  0  0  0  0  0  0  0  0  0  0
    0.4033   -1.1866    2.5795 H   0  0  0  0  0  0  0  0  0  0  0  0
    0.4219   -1.4988   -1.7365 H   0  0  0  0  0  0  0  0  0  0  0  0
   -4.0328   -1.3841   -3.1892 H   0  0  0  0  0  0  0  0  0  0  0  0
   -2.4508   -1.1437   -3.9449 H   0  0  0  0  0  0  0  0  0  0  0  0
   -2.5754   -2.1074   -2.4793 H   0  0  0  0  0  0  0  0  0  0  0  0
   -3.1478    2.1908   -2.3779 H   0  0  0  0  0  0  0  0  0  0  0  0
   -4.4719    1.1414   -2.9180 H   0  0  0  0  0  0  0  0  0  0  0  0
   -2.9874    1.3236   -3.8725 H   0  0  0  0  0  0  0  0  0  0  0  0
   -2.7741   -1.0967   -0.3201 H   0  0  0  0  0  0  0  0  0  0  0  0
   -4.7609   -1.2794    0.3298 H   0  0  0  0  0  0  0  0  0  0  0  0
   -5.0967   -1.2105   -1.3630 H   0  0  0  0  0  0  0  0  0  0  0  0
   -6.6336    0.4285   -0.5512 H   0  0  0  0  0  0  0  0  0  0  0  0
   -7.3832    1.4856    1.2298 H   0  0  0  0  0  0  0  0  0  0  0  0
   -3.6170    0.6277    2.1857 H   0  0  0  0  0  0  0  0  0  0  0  0
   -3.5739    2.3271    1.7060 H   0  0  0  0  0  0  0  0  0  0  0  0
   -2.7615    1.9521   -0.4005 H   0  0  0  0  0  0  0  0  0  0  0  0
    0.6814    1.4875    1.9812 H   0  0  0  0  0  0  0  0  0  0  0  0
  1  2  1  0  0  0  0
  1 29  1  0  0  0  0
  1 30  1  0  0  0  0
  1 31  1  0  0  0  0
  2  3  1  0  0  0  0
  2 32  1  0  0  0  0
  2 33  1  0  0  0  0
  3  4  1  0  0  0  0
  3 34  1  0  0  0  0
  3 35  1  0  0  0  0
  4  5  1  0  0  0  0
  4 36  1  0  0  0  0
  4 37  1  0  0  0  0
  5  6  1  0  0  0  0
  5 38  1  0  0  0  0
  5 39  1  0  0  0  0
  6  7  1  0  0  0  0
  6 40  1  0  0  0  0
  6 41  1  0  0  0  0
  7  8  1  0  0  0  0
  7  9  1  0  0  0  0
  7 10  1  0  0  0  0
  8 42  1  0  0  0  0
  8 43  1  0  0  0  0
  8 44  1  0  0  0  0
  9 45  1  0  0  0  0
  9 46  1  0  0  0  0
  9 47  1  0  0  0  0
 10 15  2  0  0  0  0
 10 11  1  0  0  0  0
 11 12  2  0  0  0  0
 11 48  1  0  0  0  0
 12 13  1  0  0  0  0
 12 28  1  0  0  0  0
 13 27  1  0  0  0  0
 13 14  2  0  0  0  0
 14 15  1  0  0  0  0
 14 16  1  0  0  0  0
 15 49  1  0  0  0  0
 16 17  1  0  0  0  0
 17 18  1  0  0  0  0
 17 19  1  0  0  0  0
 17 20  1  0  0  0  0
 18 50  1  0  0  0  0
 18 51  1  0  0  0  0
 18 52  1  0  0  0  0
 19 53  1  0  0  0  0
 19 54  1  0  0  0  0
 19 55  1  0  0  0  0
 20 21  1  0  0  0  0
 20 27  1  0  0  0  0
 20 56  1  1  0  0  0
 21 22  1  0  0  0  0
 21 57  1  0  0  0  0
 21 58  1  0  0  0  0
 22 23  2  0  0  0  0
 22 59  1  0  0  0  0
 23 24  1  0  0  0  0
 23 26  1  0  0  0  0
 24 25  2  0  0  0  0
 24 60  1  0  0  0  0
 26 61  1  0  0  0  0
 26 62  1  0  0  0  0
 27 26  1  0  0  0  0
 27 63  1  6  0  0  0
 28 64  1  0  0  0  0
M  END
$$$$
CHEMBL1259243
 OpenBabel12022418083D

 65 68  0  0  1  0  0  0  0  0999 V2000
    4.4680    4.1623    2.9558 C   0  0  0  0  0  0  0  0  0  0  0  0
    4.9536    2.7315    2.8845 C   0  0  0  0  0  0  0  0  0  0  0  0
    6.4297    2.6058    2.4649 C   0  0  0  0  0  0  0  0  0  0  0  0
    6.7292    1.1159    2.3502 C   0  0  0  0  0  0  0  0  0  0  0  0
    8.0790    0.6487    1.8979 C   0  0  0  0  0  0  0  0  0  0  0  0
    8.3401   -0.5370    1.3143 C   0  0  0  0  0  0  0  0  0  0  0  0
    7.4059   -1.7025    0.8958 C   0  0  0  0  0  0  0  0  0  0  0  0
    7.5304   -1.9111   -0.6297 C   0  0  0  0  0  0  0  0  0  0  0  0
    7.1696   -0.8691   -1.4985 C   0  0  0  0  0  0  0  0  0  0  0  0
    7.1812   -1.0422   -2.8884 C   0  0  0  0  0  0  0  0  0  0  0  0
    7.5271   -2.2638   -3.4793 C   0  0  0  0  0  0  0  0  0  0  0  0
    7.9983   -3.2658   -2.6167 C   0  0  0  0  0  0  0  0  0  0  0  0
    7.9936   -3.0922   -1.2232 C   0  0  0  0  0  0  0  0  0  0  0  0
    8.4699   -4.4871   -3.0229 O   0  0  0  0  0  0  0  0  0  0  0  0
    8.6696   -4.6803   -4.4361 C   0  0  0  0  0  0  0  0  0  0  0  0
    8.7303   -6.2070   -4.6268 C   0  0  0  0  0  0  0  0  0  0  0  0
   10.0508   -4.1115   -4.8176 C   0  0  0  0  0  0  0  0  0  0  0  0
    7.4699   -4.0662   -5.2042 C   0  0  2  0  0  0  0  0  0  0  0  0
    7.4141   -4.4319   -6.6973 C   0  0  0  0  0  0  0  0  0  0  0  0
    6.2047   -3.8204   -7.3853 C   0  0  0  0  0  0  0  0  0  0  0  0
    6.1780   -2.3395   -7.1336 C   0  0  0  0  0  0  0  0  0  0  0  0
    6.0236   -1.5341   -8.0516 O   0  0  0  0  0  0  0  0  0  0  0  0
    6.2338   -1.9075   -5.6891 C   0  0  0  0  0  0  0  0  0  0  0  0
    7.4495   -2.5290   -4.9774 C   0  0  1  0  0  0  0  0  0  0  0  0
    6.8500    0.0235   -3.6753 O   0  0  0  0  0  0  0  0  0  0  0  0
    7.7303   -2.9523    1.7562 C   0  0  0  0  0  0  0  0  0  0  0  0
    6.5085   -3.8734    1.6364 C   0  0  0  0  0  0  0  0  0  0  0  0
    5.3209   -2.9697    1.3477 C   0  0  0  0  0  0  0  0  0  0  0  0
    5.9025   -1.5685    1.2710 C   0  0  0  0  0  0  0  0  0  0  0  0
    3.4175    4.1800    3.2655 H   0  0  0  0  0  0  0  0  0  0  0  0
    4.5402    4.6469    1.9780 H   0  0  0  0  0  0  0  0  0  0  0  0
    5.0486    4.7373    3.6819 H   0  0  0  0  0  0  0  0  0  0  0  0
    4.3180    2.1858    2.1734 H   0  0  0  0  0  0  0  0  0  0  0  0
    4.8078    2.2520    3.8609 H   0  0  0  0  0  0  0  0  0  0  0  0
    7.0831    3.0824    3.2026 H   0  0  0  0  0  0  0  0  0  0  0  0
    6.5904    3.0966    1.4984 H   0  0  0  0  0  0  0  0  0  0  0  0
    5.9936    0.7689    1.6278 H   0  0  0  0  0  0  0  0  0  0  0  0
    6.5281    0.6502    3.3255 H   0  0  0  0  0  0  0  0  0  0  0  0
    8.9154    1.3034    2.1194 H   0  0  0  0  0  0  0  0  0  0  0  0
    9.3876   -0.7396    1.0766 H   0  0  0  0  0  0  0  0  0  0  0  0
    6.8726    0.0882   -1.0763 H   0  0  0  0  0  0  0  0  0  0  0  0
    8.3512   -3.9249   -0.6238 H   0  0  0  0  0  0  0  0  0  0  0  0
    9.4763   -6.6539   -3.9583 H   0  0  0  0  0  0  0  0  0  0  0  0
    8.9967   -6.4847   -5.6518 H   0  0  0  0  0  0  0  0  0  0  0  0
    7.7721   -6.6734   -4.3734 H   0  0  0  0  0  0  0  0  0  0  0  0
   10.8454   -4.6492   -4.2891 H   0  0  0  0  0  0  0  0  0  0  0  0
   10.1647   -3.0637   -4.5214 H   0  0  0  0  0  0  0  0  0  0  0  0
   10.2418   -4.1922   -5.8914 H   0  0  0  0  0  0  0  0  0  0  0  0
    6.5529   -4.4733   -4.7456 H   0  0  0  0  0  0  0  0  0  0  0  0
    7.3455   -5.5177   -6.8211 H   0  0  0  0  0  0  0  0  0  0  0  0
    8.3278   -4.1020   -7.2035 H   0  0  0  0  0  0  0  0  0  0  0  0
    5.2722   -4.2497   -7.0040 H   0  0  0  0  0  0  0  0  0  0  0  0
    6.2471   -4.0067   -8.4630 H   0  0  0  0  0  0  0  0  0  0  0  0
    5.2925   -2.1915   -5.2056 H   0  0  0  0  0  0  0  0  0  0  0  0
    6.2903   -0.8157   -5.7041 H   0  0  0  0  0  0  0  0  0  0  0  0
    8.3480   -2.0919   -5.4334 H   0  0  0  0  0  0  0  0  0  0  0  0
    6.6251    0.7819   -3.1117 H   0  0  0  0  0  0  0  0  0  0  0  0
    7.8418   -2.6655    2.8101 H   0  0  0  0  0  0  0  0  0  0  0  0
    8.6555   -3.4682    1.4776 H   0  0  0  0  0  0  0  0  0  0  0  0
    6.3584   -4.4493    2.5585 H   0  0  0  0  0  0  0  0  0  0  0  0
    6.6231   -4.5948    0.8238 H   0  0  0  0  0  0  0  0  0  0  0  0
    4.5647   -3.0233    2.1399 H   0  0  0  0  0  0  0  0  0  0  0  0
    4.8306   -3.2429    0.4085 H   0  0  0  0  0  0  0  0  0  0  0  0
    5.3193   -0.9437    0.5856 H   0  0  0  0  0  0  0  0  0  0  0  0
    5.7927   -1.1700    2.2849 H   0  0  0  0  0  0  0  0  0  0  0  0
  1  2  1  0  0  0  0
  1 30  1  0  0  0  0
  1 31  1  0  0  0  0
  1 32  1  0  0  0  0
  2  3  1  0  0  0  0
  2 33  1  0  0  0  0
  2 34  1  0  0  0  0
  3  4  1  0  0  0  0
  3 35  1  0  0  0  0
  3 36  1  0  0  0  0
  4  5  1  0  0  0  0
  4 37  1  0  0  0  0
  4 38  1  0  0  0  0
  5  6  2  0  0  0  0
  5 39  1  0  0  0  0
  6  7  1  0  0  0  0
  6 40  1  0  0  0  0
  7 29  1  0  0  0  0
  7  8  1  0  0  0  0
  7 26  1  0  0  0  0
  8 13  2  0  0  0  0
  8  9  1  0  0  0  0
  9 10  2  0  0  0  0
  9 41  1  0  0  0  0
 10 11  1  0  0  0  0
 10 25  1  0  0  0  0
 11 24  1  0  0  0  0
 11 12  2  0  0  0  0
 12 13  1  0  0  0  0
 12 14  1  0  0  0  0
 13 42  1  0  0  0  0
 14 15  1  0  0  0  0
 15 16  1  0  0  0  0
 15 17  1  0  0  0  0
 15 18  1  0  0  0  0
 16 43  1  0  0  0  0
 16 44  1  0  0  0  0
 16 45  1  0  0  0  0
 17 46  1  0  0  0  0
 17 47  1  0  0  0  0
 17 48  1  0  0  0  0
 18 19  1  0  0  0  0
 18 24  1  0  0  0  0
 18 49  1  1  0  0  0
 19 20  1  0  0  0  0
 19 50  1  0  0  0  0
 19 51  1  0  0  0  0
 20 21  1  0  0  0  0
 20 52  1  0  0  0  0
 20 53  1  0  0  0  0
 21 22  2  0  0  0  0
 21 23  1  0  0  0  0
 23 54  1  0  0  0  0
 23 55  1  0  0  0  0
 24 23  1  0  0  0  0
 24 56  1  6  0  0  0
 25 57  1  0  0  0  0
 26 27  1  0  0  0  0
 26 58  1  0  0  0  0
 26 59  1  0  0  0  0
 27 28  1  0  0  0  0
 27 60  1  0  0  0  0
 27 61  1  0  0  0  0
 28 29  1  0  0  0  0
 28 62  1  0  0  0  0
 28 63  1  0  0  0  0
 29 64  1  0  0  0  0
 29 65  1  0  0  0  0
M  END
$$$$
CHEMBL1259018
 OpenBabel12022418083D

 64 67  0  0  1  0  0  0  0  0999 V2000
    3.5318   -2.4016   -0.9122 C   0  0  0  0  0  0  0  0  0  0  0  0
    3.4302   -0.8877   -0.9834 C   0  0  0  0  0  0  0  0  0  0  0  0
    4.7463   -0.2138   -0.6021 C   0  0  0  0  0  0  0  0  0  0  0  0
    4.6119    1.3076   -0.6669 C   0  0  0  0  0  0  0  0  0  0  0  0
    5.9199    1.9951   -0.2875 C   0  0  0  0  0  0  0  0  0  0  0  0
    5.7776    3.5236   -0.3198 C   0  0  0  0  0  0  0  0  0  0  0  0
    7.1182    4.2314   -0.0139 C   0  0  0  0  0  0  0  0  0  0  0  0
    8.1279    3.9537   -1.2418 C   0  0  0  0  0  0  0  0  0  0  0  0
    8.0336    4.6636   -2.4514 C   0  0  0  0  0  0  0  0  0  0  0  0
    8.7502    4.2835   -3.5936 C   0  0  0  0  0  0  0  0  0  0  0  0
    9.5763    3.1546   -3.6002 C   0  0  0  0  0  0  0  0  0  0  0  0
    9.7592    2.5084   -2.3700 C   0  0  0  0  0  0  0  0  0  0  0  0
    9.0597    2.9060   -1.2249 C   0  0  0  0  0  0  0  0  0  0  0  0
   10.5610    1.4163   -2.1657 O   0  0  0  0  0  0  0  0  0  0  0  0
   11.4435    1.0424   -3.2377 C   0  0  0  0  0  0  0  0  0  0  0  0
   11.8359   -0.4130   -2.9315 C   0  0  0  0  0  0  0  0  0  0  0  0
   12.7124    1.9064   -3.1345 C   0  0  0  0  0  0  0  0  0  0  0  0
   10.6831    1.1454   -4.5852 C   0  0  2  0  0  0  0  0  0  0  0  0
   11.4321    0.5330   -5.7841 C   0  0  0  0  0  0  0  0  0  0  0  0
   10.6315    0.6447   -7.0719 C   0  0  0  0  0  0  0  0  0  0  0  0
   10.2257    2.0755   -7.2851 C   0  0  0  0  0  0  0  0  0  0  0  0
   10.4285    2.6502   -8.3532 O   0  0  0  0  0  0  0  0  0  0  0  0
    9.4746    2.7271   -6.1502 C   0  0  0  0  0  0  0  0  0  0  0  0
   10.2795    2.6247   -4.8422 C   0  0  1  0  0  0  0  0  0  0  0  0
    8.6042    5.0340   -4.7250 O   0  0  0  0  0  0  0  0  0  0  0  0
    6.9513    5.7357    0.4230 C   0  0  0  0  0  0  0  0  0  0  0  0
    8.0304    5.4792    1.4919 C   0  0  0  0  0  0  0  0  0  0  0  0
    7.6151    3.9999    1.4574 C   0  0  0  0  0  0  0  0  0  0  0  0
    2.5757   -2.8557   -1.1906 H   0  0  0  0  0  0  0  0  0  0  0  0
    3.7825   -2.7310    0.1011 H   0  0  0  0  0  0  0  0  0  0  0  0
    4.2990   -2.7768   -1.5967 H   0  0  0  0  0  0  0  0  0  0  0  0
    2.6334   -0.5485   -0.3116 H   0  0  0  0  0  0  0  0  0  0  0  0
    3.1456   -0.5931   -2.0001 H   0  0  0  0  0  0  0  0  0  0  0  0
    5.5430   -0.5466   -1.2793 H   0  0  0  0  0  0  0  0  0  0  0  0
    5.0387   -0.5160    0.4112 H   0  0  0  0  0  0  0  0  0  0  0  0
    3.8138    1.6391    0.0064 H   0  0  0  0  0  0  0  0  0  0  0  0
    4.3270    1.6061   -1.6834 H   0  0  0  0  0  0  0  0  0  0  0  0
    6.6919    1.6602   -0.9867 H   0  0  0  0  0  0  0  0  0  0  0  0
    6.2360    1.6737    0.7114 H   0  0  0  0  0  0  0  0  0  0  0  0
    5.0156    3.8251    0.4093 H   0  0  0  0  0  0  0  0  0  0  0  0
    5.4063    3.8423   -1.3028 H   0  0  0  0  0  0  0  0  0  0  0  0
    7.3421    5.5014   -2.5019 H   0  0  0  0  0  0  0  0  0  0  0  0
    9.1958    2.3245   -0.3153 H   0  0  0  0  0  0  0  0  0  0  0  0
   12.2097   -0.5082   -1.9054 H   0  0  0  0  0  0  0  0  0  0  0  0
   12.6162   -0.7803   -3.6058 H   0  0  0  0  0  0  0  0  0  0  0  0
   10.9674   -1.0774   -3.0043 H   0  0  0  0  0  0  0  0  0  0  0  0
   13.2143    1.7307   -2.1753 H   0  0  0  0  0  0  0  0  0  0  0  0
   12.4872    2.9779   -3.1472 H   0  0  0  0  0  0  0  0  0  0  0  0
   13.4235    1.6889   -3.9353 H   0  0  0  0  0  0  0  0  0  0  0  0
    9.7437    0.5713   -4.4726 H   0  0  0  0  0  0  0  0  0  0  0  0
   11.6274   -0.5285   -5.6077 H   0  0  0  0  0  0  0  0  0  0  0  0
   12.4001    1.0287   -5.9129 H   0  0  0  0  0  0  0  0  0  0  0  0
    9.7235    0.0327   -7.0344 H   0  0  0  0  0  0  0  0  0  0  0  0
   11.2341    0.3061   -7.9208 H   0  0  0  0  0  0  0  0  0  0  0  0
    8.4921    2.2485   -6.0618 H   0  0  0  0  0  0  0  0  0  0  0  0
    9.3181    3.7650   -6.4524 H   0  0  0  0  0  0  0  0  0  0  0  0
   11.1907    3.2232   -4.9783 H   0  0  0  0  0  0  0  0  0  0  0  0
    7.9538    5.7380   -4.5678 H   0  0  0  0  0  0  0  0  0  0  0  0
    5.9698    5.9808    0.8480 H   0  0  0  0  0  0  0  0  0  0  0  0
    7.2065    6.5062   -0.3091 H   0  0  0  0  0  0  0  0  0  0  0  0
    7.8871    5.9897    2.4476 H   0  0  0  0  0  0  0  0  0  0  0  0
    9.0541    5.6577    1.1440 H   0  0  0  0  0  0  0  0  0  0  0  0
    8.4222    3.2813    1.6146 H   0  0  0  0  0  0  0  0  0  0  0  0
    6.8121    3.7653    2.1691 H   0  0  0  0  0  0  0  0  0  0  0  0
  1  2  1  0  0  0  0
  1 29  1  0  0  0  0
  1 30  1  0  0  0  0
  1 31  1  0  0  0  0
  2  3  1  0  0  0  0
  2 32  1  0  0  0  0
  2 33  1  0  0  0  0
  3  4  1  0  0  0  0
  3 34  1  0  0  0  0
  3 35  1  0  0  0  0
  4  5  1  0  0  0  0
  4 36  1  0  0  0  0
  4 37  1  0  0  0  0
  5  6  1  0  0  0  0
  5 38  1  0  0  0  0
  5 39  1  0  0  0  0
  6  7  1  0  0  0  0
  6 40  1  0  0  0  0
  6 41  1  0  0  0  0
  7 28  1  0  0  0  0
  7  8  1  0  0  0  0
  7 26  1  0  0  0  0
  8 13  2  0  0  0  0
  8  9  1  0  0  0  0
  9 10  2  0  0  0  0
  9 42  1  0  0  0  0
 10 11  1  0  0  0  0
 10 25  1  0  0  0  0
 11 24  1  0  0  0  0
 11 12  2  0  0  0  0
 12 13  1  0  0  0  0
 12 14  1  0  0  0  0
 13 43  1  0  0  0  0
 14 15  1  0  0  0  0
 15 16  1  0  0  0  0
 15 17  1  0  0  0  0
 15 18  1  0  0  0  0
 16 44  1  0  0  0  0
 16 45  1  0  0  0  0
 16 46  1  0  0  0  0
 17 47  1  0  0  0  0
 17 48  1  0  0  0  0
 17 49  1  0  0  0  0
 18 19  1  0  0  0  0
 18 24  1  0  0  0  0
 18 50  1  1  0  0  0
 19 20  1  0  0  0  0
 19 51  1  0  0  0  0
 19 52  1  0  0  0  0
 20 21  1  0  0  0  0
 20 53  1  0  0  0  0
 20 54  1  0  0  0  0
 21 22  2  0  0  0  0
 21 23  1  0  0  0  0
 23 55  1  0  0  0  0
 23 56  1  0  0  0  0
 24 23  1  0  0  0  0
 24 57  1  6  0  0  0
 25 58  1  0  0  0  0
 26 27  1  0  0  0  0
 26 59  1  0  0  0  0
 26 60  1  0  0  0  0
 27 28  1  0  0  0  0
 27 61  1  0  0  0  0
 27 62  1  0  0  0  0
 28 63  1  0  0  0  0
 28 64  1  0  0  0  0
M  END
$$$$
CHEMBL111340
 OpenBabel12022418083D

 61 63  0  0  0  0  0  0  0  0999 V2000
    7.3615    8.2825   -8.6771 C   0  0  0  0  0  0  0  0  0  0  0  0
    6.8553    6.8774   -8.3827 C   0  0  0  0  0  0  0  0  0  0  0  0
    7.2482    6.4435   -6.9758 C   0  0  0  0  0  0  0  0  0  0  0  0
    6.7522    5.0335   -6.6451 C   0  0  0  0  0  0  0  0  0  0  0  0
    7.1671    4.6707   -5.2196 C   0  0  0  0  0  0  0  0  0  0  0  0
    6.6973    3.2726   -4.7957 C   0  0  0  0  0  0  0  0  0  0  0  0
    7.1483    2.8687   -3.3545 C   0  0  0  0  0  0  0  0  0  0  0  0
    6.4784    3.8228   -2.3298 C   0  0  0  0  0  0  0  0  0  0  0  0
    6.6065    1.4551   -3.0357 C   0  0  0  0  0  0  0  0  0  0  0  0
    8.6852    2.8551   -3.2594 C   0  0  0  0  0  0  0  0  0  0  0  0
    9.3844    3.6816   -2.3855 C   0  0  0  0  0  0  0  0  0  0  0  0
   10.7880    3.7017   -2.3496 C   0  0  0  0  0  0  0  0  0  0  0  0
   11.5799    2.8985   -3.1959 C   0  0  0  0  0  0  0  0  0  0  0  0
   13.0583    2.8836   -3.2384 C   0  0  0  0  0  0  0  0  0  0  0  0
   13.7010    2.0000   -4.1249 C   0  0  0  0  0  0  0  0  0  0  0  0
   12.8736    1.0700   -5.0110 C   0  0  0  0  0  0  0  0  0  0  0  0
   13.1397   -0.3909   -4.6103 C   0  0  0  0  0  0  0  0  0  0  0  0
   13.2285    1.2804   -6.4956 C   0  0  0  0  0  0  0  0  0  0  0  0
   11.4434    1.2165   -4.9675 O   0  0  0  0  0  0  0  0  0  0  0  0
   10.8672    2.0601   -4.0616 C   0  0  0  0  0  0  0  0  0  0  0  0
    9.4590    2.0352   -4.0946 C   0  0  0  0  0  0  0  0  0  0  0  0
   15.1166    1.9574   -4.1827 C   0  0  0  0  0  0  0  0  0  0  0  0
   15.9054    2.7821   -3.3840 C   0  0  0  0  0  0  0  0  0  0  0  0
   15.2872    3.6588   -2.5019 C   0  0  0  0  0  0  0  0  0  0  0  0
   16.0506    4.5898   -1.6271 C   0  0  0  0  0  0  0  0  0  0  0  0
   15.6179    5.6716   -1.2684 O   0  0  0  0  0  0  0  0  0  0  0  0
   17.2496    4.1147   -1.2300 O   0  0  0  0  0  0  0  0  0  0  0  0
   13.8866    3.7106   -2.4504 C   0  0  0  0  0  0  0  0  0  0  0  0
   11.3551    4.5601   -1.4421 O   0  0  0  0  0  0  0  0  0  0  0  0
    7.0767    8.5863   -9.6890 H   0  0  0  0  0  0  0  0  0  0  0  0
    8.4529    8.3289   -8.6015 H   0  0  0  0  0  0  0  0  0  0  0  0
    6.9395    9.0064   -7.9723 H   0  0  0  0  0  0  0  0  0  0  0  0
    7.2711    6.1814   -9.1196 H   0  0  0  0  0  0  0  0  0  0  0  0
    5.7647    6.8569   -8.4903 H   0  0  0  0  0  0  0  0  0  0  0  0
    6.8373    7.1547   -6.2472 H   0  0  0  0  0  0  0  0  0  0  0  0
    8.3403    6.4788   -6.8740 H   0  0  0  0  0  0  0  0  0  0  0  0
    7.1741    4.3121   -7.3542 H   0  0  0  0  0  0  0  0  0  0  0  0
    5.6607    4.9893   -6.7389 H   0  0  0  0  0  0  0  0  0  0  0  0
    6.7520    5.4250   -4.5429 H   0  0  0  0  0  0  0  0  0  0  0  0
    8.2583    4.7390   -5.1480 H   0  0  0  0  0  0  0  0  0  0  0  0
    7.0653    2.5398   -5.5263 H   0  0  0  0  0  0  0  0  0  0  0  0
    5.6020    3.2319   -4.8575 H   0  0  0  0  0  0  0  0  0  0  0  0
    5.3855    3.7725   -2.3967 H   0  0  0  0  0  0  0  0  0  0  0  0
    6.7638    4.8679   -2.4811 H   0  0  0  0  0  0  0  0  0  0  0  0
    6.7514    3.5595   -1.3004 H   0  0  0  0  0  0  0  0  0  0  0  0
    5.5114    1.4550   -2.9893 H   0  0  0  0  0  0  0  0  0  0  0  0
    6.9782    1.0992   -2.0676 H   0  0  0  0  0  0  0  0  0  0  0  0
    6.8972    0.7195   -3.7938 H   0  0  0  0  0  0  0  0  0  0  0  0
    8.8516    4.3409   -1.7105 H   0  0  0  0  0  0  0  0  0  0  0  0
   14.1990   -0.6608   -4.6627 H   0  0  0  0  0  0  0  0  0  0  0  0
   12.5813   -1.0816   -5.2530 H   0  0  0  0  0  0  0  0  0  0  0  0
   12.7934   -0.5759   -3.5853 H   0  0  0  0  0  0  0  0  0  0  0  0
   14.2937    1.1522   -6.7099 H   0  0  0  0  0  0  0  0  0  0  0  0
   12.9361    2.2864   -6.8214 H   0  0  0  0  0  0  0  0  0  0  0  0
   12.6743    0.5795   -7.1317 H   0  0  0  0  0  0  0  0  0  0  0  0
    8.9787    1.3678   -4.7976 H   0  0  0  0  0  0  0  0  0  0  0  0
   15.6181    1.2737   -4.8658 H   0  0  0  0  0  0  0  0  0  0  0  0
   16.9864    2.7453   -3.4929 H   0  0  0  0  0  0  0  0  0  0  0  0
   17.4060    3.1732   -1.4236 H   0  0  0  0  0  0  0  0  0  0  0  0
   13.4646    4.4341   -1.7610 H   0  0  0  0  0  0  0  0  0  0  0  0
   10.6707    5.1034   -1.0201 H   0  0  0  0  0  0  0  0  0  0  0  0
  1  2  1  0  0  0  0
  1 30  1  0  0  0  0
  1 31  1  0  0  0  0
  1 32  1  0  0  0  0
  2  3  1  0  0  0  0
  2 33  1  0  0  0  0
  2 34  1  0  0  0  0
  3  4  1  0  0  0  0
  3 35  1  0  0  0  0
  3 36  1  0  0  0  0
  4  5  1  0  0  0  0
  4 37  1  0  0  0  0
  4 38  1  0  0  0  0
  5  6  1  0  0  0  0
  5 39  1  0  0  0  0
  5 40  1  0  0  0  0
  6  7  1  0  0  0  0
  6 41  1  0  0  0  0
  6 42  1  0  0  0  0
  7  8  1  0  0  0  0
  7  9  1  0  0  0  0
  7 10  1  0  0  0  0
  8 43  1  0  0  0  0
  8 44  1  0  0  0  0
  8 45  1  0  0  0  0
  9 46  1  0  0  0  0
  9 47  1  0  0  0  0
  9 48  1  0  0  0  0
 10 21  2  0  0  0  0
 10 11  1  0  0  0  0
 11 12  2  0  0  0  0
 11 49  1  0  0  0  0
 12 13  1  0  0  0  0
 12 29  1  0  0  0  0
 13 20  2  0  0  0  0
 13 14  1  0  0  0  0
 14 28  2  0  0  0  0
 14 15  1  0  0  0  0
 15 16  1  0  0  0  0
 15 22  2  0  0  0  0
 16 17  1  0  0  0  0
 16 18  1  0  0  0  0
 16 19  1  0  0  0  0
 17 50  1  0  0  0  0
 17 51  1  0  0  0  0
 17 52  1  0  0  0  0
 18 53  1  0  0  0  0
 18 54  1  0  0  0  0
 18 55  1  0  0  0  0
 19 20  1  0  0  0  0
 20 21  1  0  0  0  0
 21 56  1  0  0  0  0
 22 23  1  0  0  0  0
 22 57  1  0  0  0  0
 23 24  2  0  0  0  0
 23 58  1  0  0  0  0
 24 25  1  0  0  0  0
 24 28  1  0  0  0  0
 25 26  2  0  0  0  0
 25 27  1  0  0  0  0
 27 59  1  0  0  0  0
 28 60  1  0  0  0  0
 29 61  1  0  0  0  0
M  END
$$$$
CHEMBL1259092
 OpenBabel12022418083D

 63 66  0  0  1  0  0  0  0  0999 V2000
    0.9115   -0.0345   -0.0833 C   0  0  0  0  0  0  0  0  0  0  0  0
    2.4471   -0.0167    0.0612 C   0  0  0  0  0  0  0  0  0  0  0  0
    3.0354   -0.5522   -1.2565 C   0  0  0  0  0  0  0  0  0  0  0  0
    2.9921   -0.8158    1.2749 C   0  0  1  0  0  0  0  0  0  0  0  0
    2.3438   -0.2625    2.5670 C   0  0  2  0  0  0  0  0  0  0  0  0
    2.5130    1.2443    2.5908 C   0  0  0  0  0  0  0  0  0  0  0  0
    2.8132    1.9486    1.4093 C   0  0  0  0  0  0  0  0  0  0  0  0
    3.0728    3.3373    1.4265 C   0  0  0  0  0  0  0  0  0  0  0  0
    3.0355    4.0900    2.6159 C   0  0  0  0  0  0  0  0  0  0  0  0
    3.3950    5.6558    2.7535 C   0  0  0  0  0  0  0  0  0  0  0  0
    4.8789    5.8245    3.1340 C   0  0  0  0  0  0  0  0  0  0  0  0
    5.9273    5.4525    2.0833 C   0  0  0  0  0  0  0  0  0  0  0  0
    7.2828    5.7378    2.7371 C   0  0  0  0  0  0  0  0  0  0  0  0
    8.5201    5.4335    1.9051 C   0  0  0  0  0  0  0  0  0  0  0  0
    9.7474    5.7763    2.7436 C   0  0  0  0  0  0  0  0  0  0  0  0
   11.3774    5.4186    1.7566 Br  0  0  0  0  0  0  0  0  0  0  0  0
    2.7592    6.6955    1.7631 C   0  0  0  0  0  0  0  0  0  0  0  0
    2.5885    7.6650    2.9562 C   0  0  0  0  0  0  0  0  0  0  0  0
    2.5532    6.4241    3.8594 C   0  0  0  0  0  0  0  0  0  0  0  0
    2.6618    3.3720    3.7615 C   0  0  0  0  0  0  0  0  0  0  0  0
    2.3699    2.0139    3.7424 C   0  0  0  0  0  0  0  0  0  0  0  0
    1.9055    1.5307    4.9346 O   0  0  0  0  0  0  0  0  0  0  0  0
    2.8854    1.3578    0.1663 O   0  0  0  0  0  0  0  0  0  0  0  0
    2.9164   -1.0135    3.7894 C   0  0  0  0  0  0  0  0  0  0  0  0
    2.7296   -2.5246    3.6822 C   0  0  2  0  0  0  0  0  0  0  0  0
    3.3641   -3.0684    2.4119 C   0  0  0  0  0  0  0  0  0  0  0  0
    2.8640   -2.3464    1.1593 C   0  0  0  0  0  0  0  0  0  0  0  0
    1.3428   -2.8501    3.7431 O   0  0  0  0  0  0  0  0  0  0  0  0
    0.6081    0.4598   -1.0136 H   0  0  0  0  0  0  0  0  0  0  0  0
    0.4087    0.5214    0.7139 H   0  0  0  0  0  0  0  0  0  0  0  0
    0.5142   -1.0542   -0.0980 H   0  0  0  0  0  0  0  0  0  0  0  0
    2.7582    0.0910   -2.1002 H   0  0  0  0  0  0  0  0  0  0  0  0
    2.6777   -1.5630   -1.4838 H   0  0  0  0  0  0  0  0  0  0  0  0
    4.1298   -0.5685   -1.2241 H   0  0  0  0  0  0  0  0  0  0  0  0
    4.0723   -0.6031    1.3382 H   0  0  0  0  0  0  0  0  0  0  0  0
    1.2632   -0.4491    2.5430 H   0  0  0  0  0  0  0  0  0  0  0  0
    3.3260    3.8367    0.4918 H   0  0  0  0  0  0  0  0  0  0  0  0
    5.0714    5.2325    4.0392 H   0  0  0  0  0  0  0  0  0  0  0  0
    5.0710    6.8658    3.4209 H   0  0  0  0  0  0  0  0  0  0  0  0
    5.7977    6.0490    1.1710 H   0  0  0  0  0  0  0  0  0  0  0  0
    5.8519    4.3968    1.7982 H   0  0  0  0  0  0  0  0  0  0  0  0
    7.3442    5.1587    3.6677 H   0  0  0  0  0  0  0  0  0  0  0  0
    7.3135    6.7967    3.0249 H   0  0  0  0  0  0  0  0  0  0  0  0
    8.5103    6.0227    0.9809 H   0  0  0  0  0  0  0  0  0  0  0  0
    8.5349    4.3753    1.6201 H   0  0  0  0  0  0  0  0  0  0  0  0
    9.7929    5.1772    3.6587 H   0  0  0  0  0  0  0  0  0  0  0  0
    9.7682    6.8363    3.0165 H   0  0  0  0  0  0  0  0  0  0  0  0
    1.7954    6.3853    1.3391 H   0  0  0  0  0  0  0  0  0  0  0  0
    3.3938    7.0660    0.9549 H   0  0  0  0  0  0  0  0  0  0  0  0
    1.6835    8.2773    2.9749 H   0  0  0  0  0  0  0  0  0  0  0  0
    3.4478    8.3228    3.1326 H   0  0  0  0  0  0  0  0  0  0  0  0
    3.0290    6.5367    4.8403 H   0  0  0  0  0  0  0  0  0  0  0  0
    1.5379    6.0410    4.0176 H   0  0  0  0  0  0  0  0  0  0  0  0
    2.5870    3.8906    4.7150 H   0  0  0  0  0  0  0  0  0  0  0  0
    1.1956    0.8990    4.7334 H   0  0  0  0  0  0  0  0  0  0  0  0
    2.4159   -0.7089    4.7103 H   0  0  0  0  0  0  0  0  0  0  0  0
    3.9808   -0.7749    3.9090 H   0  0  0  0  0  0  0  0  0  0  0  0
    3.1928   -3.0025    4.5535 H   0  0  0  0  0  0  0  0  0  0  0  0
    3.1512   -4.1392    2.3154 H   0  0  0  0  0  0  0  0  0  0  0  0
    4.4530   -2.9561    2.4813 H   0  0  0  0  0  0  0  0  0  0  0  0
    3.4619   -2.7108    0.3155 H   0  0  0  0  0  0  0  0  0  0  0  0
    1.8283   -2.6344    0.9571 H   0  0  0  0  0  0  0  0  0  0  0  0
    0.9137   -2.6075    2.9029 H   0  0  0  0  0  0  0  0  0  0  0  0
  1  2  1  0  0  0  0
  1 29  1  0  0  0  0
  1 30  1  0  0  0  0
  1 31  1  0  0  0  0
  2 23  1  0  0  0  0
  2  3  1  0  0  0  0
  2  4  1  0  0  0  0
  3 32  1  0  0  0  0
  3 33  1  0  0  0  0
  3 34  1  0  0  0  0
  4  5  1  0  0  0  0
  4 27  1  0  0  0  0
  4 35  1  1  0  0  0
  5  6  1  0  0  0  0
  5 24  1  0  0  0  0
  5 36  1  6  0  0  0
  6 21  2  0  0  0  0
  6  7  1  0  0  0  0
  7  8  2  0  0  0  0
  7 23  1  0  0  0  0
  8  9  1  0  0  0  0
  8 37  1  0  0  0  0
  9 10  1  0  0  0  0
  9 20  2  0  0  0  0
 10 19  1  0  0  0  0
 10 11  1  0  0  0  0
 10 17  1  0  0  0  0
 11 12  1  0  0  0  0
 11 38  1  0  0  0  0
 11 39  1  0  0  0  0
 12 13  1  0  0  0  0
 12 40  1  0  0  0  0
 12 41  1  0  0  0  0
 13 14  1  0  0  0  0
 13 42  1  0  0  0  0
 13 43  1  0  0  0  0
 14 15  1  0  0  0  0
 14 44  1  0  0  0  0
 14 45  1  0  0  0  0
 15 16  1  0  0  0  0
 15 46  1  0  0  0  0
 15 47  1  0  0  0  0
 17 18  1  0  0  0  0
 17 48  1  0  0  0  0
 17 49  1  0  0  0  0
 18 19  1  0  0  0  0
 18 50  1  0  0  0  0
 18 51  1  0  0  0  0
 19 52  1  0  0  0  0
 19 53  1  0  0  0  0
 20 21  1  0  0  0  0
 20 54  1  0  0  0  0
 21 22  1  0  0  0  0
 22 55  1  0  0  0  0
 24 25  1  0  0  0  0
 24 56  1  0  0  0  0
 24 57  1  0  0  0  0
 25 26  1  0  0  0  0
 25 28  1  0  0  0  0
 25 58  1  1  0  0  0
 26 27  1  0  0  0  0
 26 59  1  0  0  0  0
 26 60  1  0  0  0  0
 27 61  1  0  0  0  0
 27 62  1  0  0  0  0
 28 63  1  0  0  0  0
M  END
$$$$
CHEMBL4474156
 OpenBabel12022418083D

 71 74  0  0  0  0  0  0  0  0999 V2000
    3.6868    0.7020    0.6541 C   0  0  0  0  0  0  0  0  0  0  0  0
    2.4714   -0.1226    0.1621 C   0  0  0  0  0  0  0  0  0  0  0  0
    1.2899    0.8531   -0.0580 C   0  0  0  0  0  0  0  0  0  0  0  0
    2.7973   -0.7935   -1.1846 C   0  0  0  0  0  0  0  0  0  0  0  0
    2.6229   -2.1585   -1.4279 C   0  0  0  0  0  0  0  0  0  0  0  0
    3.0242   -2.7623   -2.6317 C   0  0  0  0  0  0  0  0  0  0  0  0
    3.5421   -2.0049   -3.7016 C   0  0  0  0  0  0  0  0  0  0  0  0
    3.9321   -2.7780   -4.8902 C   0  0  0  0  0  0  0  0  0  0  0  0
    3.7529   -4.1519   -4.9147 C   0  0  0  0  0  0  0  0  0  0  0  0
    3.2067   -4.9322   -3.7673 C   0  0  0  0  0  0  0  0  0  0  0  0
    4.2435   -5.9444   -3.2579 C   0  0  0  0  0  0  0  0  0  0  0  0
    1.9188   -5.6695   -4.1587 C   0  0  0  0  0  0  0  0  0  0  0  0
    2.8469   -4.1258   -2.6170 O   0  0  0  0  0  0  0  0  0  0  0  0
    4.1867   -4.5780   -6.1754 C   0  0  0  0  0  0  0  0  0  0  0  0
    4.6440   -3.5687   -6.9074 N   0  0  0  0  0  0  0  0  0  0  0  0
    4.5482   -2.4873   -6.0915 N   0  0  0  0  0  0  0  0  0  0  0  0
    5.0122   -1.2184   -6.6279 C   0  0  0  0  0  0  0  0  0  0  0  0
    6.3255   -1.2854   -7.4288 C   0  0  0  0  0  0  0  0  0  0  0  0
    6.7395    0.1207   -7.8688 C   0  0  0  0  0  0  0  0  0  0  0  0
    5.6413    0.8041   -8.6848 C   0  0  0  0  0  0  0  0  0  0  0  0
    4.3084    0.8217   -7.9461 C   0  0  0  0  0  0  0  0  0  0  0  0
    3.9073   -0.5732   -7.4810 C   0  0  0  0  0  0  0  0  0  0  0  0
    3.5915   -0.6237   -3.4944 C   0  0  0  0  0  0  0  0  0  0  0  0
    3.2728   -0.0370   -2.2597 C   0  0  0  0  0  0  0  0  0  0  0  0
    3.8743    0.2878   -4.4646 O   0  0  0  0  0  0  0  0  0  0  0  0
    2.0489   -1.1115    1.2989 C   0  0  0  0  0  0  0  0  0  0  0  0
    3.1608   -2.0548    1.7831 C   0  0  0  0  0  0  0  0  0  0  0  0
    2.6518   -3.0734    2.8053 C   0  0  0  0  0  0  0  0  0  0  0  0
    3.7607   -4.0777    3.1209 C   0  0  0  0  0  0  0  0  0  0  0  0
    3.3467   -5.0735    4.1982 C   0  0  0  0  0  0  0  0  0  0  0  0
    4.4775   -6.0449    4.4953 C   0  0  0  0  0  0  0  0  0  0  0  0
    3.9257    1.5338   -0.0166 H   0  0  0  0  0  0  0  0  0  0  0  0
    4.5900    0.0860    0.7282 H   0  0  0  0  0  0  0  0  0  0  0  0
    3.4906    1.1371    1.6414 H   0  0  0  0  0  0  0  0  0  0  0  0
    1.5516    1.6644   -0.7480 H   0  0  0  0  0  0  0  0  0  0  0  0
    0.9833    1.3236    0.8832 H   0  0  0  0  0  0  0  0  0  0  0  0
    0.4185    0.3364   -0.4758 H   0  0  0  0  0  0  0  0  0  0  0  0
    2.1870   -2.8147   -0.6781 H   0  0  0  0  0  0  0  0  0  0  0  0
    4.5487   -6.6516   -4.0379 H   0  0  0  0  0  0  0  0  0  0  0  0
    3.8532   -6.5174   -2.4085 H   0  0  0  0  0  0  0  0  0  0  0  0
    5.1436   -5.4314   -2.8961 H   0  0  0  0  0  0  0  0  0  0  0  0
    2.0693   -6.3466   -5.0072 H   0  0  0  0  0  0  0  0  0  0  0  0
    1.1298   -4.9559   -4.4258 H   0  0  0  0  0  0  0  0  0  0  0  0
    1.5322   -6.2549   -3.3158 H   0  0  0  0  0  0  0  0  0  0  0  0
    4.1948   -5.5766   -6.5941 H   0  0  0  0  0  0  0  0  0  0  0  0
    5.2716   -0.6046   -5.7703 H   0  0  0  0  0  0  0  0  0  0  0  0
    6.2147   -1.9255   -8.3133 H   0  0  0  0  0  0  0  0  0  0  0  0
    7.1193   -1.7269   -6.8139 H   0  0  0  0  0  0  0  0  0  0  0  0
    7.6612    0.0699   -8.4597 H   0  0  0  0  0  0  0  0  0  0  0  0
    6.9618    0.7300   -6.9828 H   0  0  0  0  0  0  0  0  0  0  0  0
    5.5191    0.2752   -9.6384 H   0  0  0  0  0  0  0  0  0  0  0  0
    5.9417    1.8299   -8.9244 H   0  0  0  0  0  0  0  0  0  0  0  0
    3.5266    1.2294   -8.5992 H   0  0  0  0  0  0  0  0  0  0  0  0
    4.3759    1.4897   -7.0776 H   0  0  0  0  0  0  0  0  0  0  0  0
    2.9626   -0.5209   -6.9285 H   0  0  0  0  0  0  0  0  0  0  0  0
    3.7040   -1.2005   -8.3597 H   0  0  0  0  0  0  0  0  0  0  0  0
    3.3822    1.0421   -2.1669 H   0  0  0  0  0  0  0  0  0  0  0  0
    3.0464    0.3696   -4.9730 H   0  0  0  0  0  0  0  0  0  0  0  0
    1.1741   -1.6929    0.9789 H   0  0  0  0  0  0  0  0  0  0  0  0
    1.7111   -0.5309    2.1691 H   0  0  0  0  0  0  0  0  0  0  0  0
    3.9698   -1.4794    2.2401 H   0  0  0  0  0  0  0  0  0  0  0  0
    3.6079   -2.6000    0.9464 H   0  0  0  0  0  0  0  0  0  0  0  0
    1.7748   -3.6031    2.4132 H   0  0  0  0  0  0  0  0  0  0  0  0
    2.3405   -2.5513    3.7174 H   0  0  0  0  0  0  0  0  0  0  0  0
    4.6592   -3.5392    3.4466 H   0  0  0  0  0  0  0  0  0  0  0  0
    4.0280   -4.6215    2.2065 H   0  0  0  0  0  0  0  0  0  0  0  0
    2.4624   -5.6327    3.8729 H   0  0  0  0  0  0  0  0  0  0  0  0
    3.0767   -4.5390    5.1185 H   0  0  0  0  0  0  0  0  0  0  0  0
    4.7516   -6.6128    3.5998 H   0  0  0  0  0  0  0  0  0  0  0  0
    4.1745   -6.7568    5.2712 H   0  0  0  0  0  0  0  0  0  0  0  0
    5.3670   -5.5138    4.8486 H   0  0  0  0  0  0  0  0  0  0  0  0
  1  2  1  0  0  0  0
  1 32  1  0  0  0  0
  1 33  1  0  0  0  0
  1 34  1  0  0  0  0
  2  3  1  0  0  0  0
  2  4  1  0  0  0  0
  2 26  1  0  0  0  0
  3 35  1  0  0  0  0
  3 36  1  0  0  0  0
  3 37  1  0  0  0  0
  4 24  2  0  0  0  0
  4  5  1  0  0  0  0
  5  6  2  0  0  0  0
  5 38  1  0  0  0  0
  6 13  1  0  0  0  0
  6  7  1  0  0  0  0
  7  8  1  0  0  0  0
  7 23  2  0  0  0  0
  8 16  1  0  0  0  0
  8  9  2  0  0  0  0
  9 10  1  0  0  0  0
  9 14  1  0  0  0  0
 10 11  1  0  0  0  0
 10 12  1  0  0  0  0
 10 13  1  0  0  0  0
 11 39  1  0  0  0  0
 11 40  1  0  0  0  0
 11 41  1  0  0  0  0
 12 42  1  0  0  0  0
 12 43  1  0  0  0  0
 12 44  1  0  0  0  0
 14 15  2  0  0  0  0
 14 45  1  0  0  0  0
 15 16  1  0  0  0  0
 16 17  1  0  0  0  0
 17 22  1  0  0  0  0
 17 18  1  0  0  0  0
 17 46  1  0  0  0  0
 18 19  1  0  0  0  0
 18 47  1  0  0  0  0
 18 48  1  0  0  0  0
 19 20  1  0  0  0  0
 19 49  1  0  0  0  0
 19 50  1  0  0  0  0
 20 21  1  0  0  0  0
 20 51  1  0  0  0  0
 20 52  1  0  0  0  0
 21 22  1  0  0  0  0
 21 53  1  0  0  0  0
 21 54  1  0  0  0  0
 22 55  1  0  0  0  0
 22 56  1  0  0  0  0
 23 24  1  0  0  0  0
 23 25  1  0  0  0  0
 24 57  1  0  0  0  0
 25 58  1  0  0  0  0
 26 27  1  0  0  0  0
 26 59  1  0  0  0  0
 26 60  1  0  0  0  0
 27 28  1  0  0  0  0
 27 61  1  0  0  0  0
 27 62  1  0  0  0  0
 28 29  1  0  0  0  0
 28 63  1  0  0  0  0
 28 64  1  0  0  0  0
 29 30  1  0  0  0  0
 29 65  1  0  0  0  0
 29 66  1  0  0  0  0
 30 31  1  0  0  0  0
 30 67  1  0  0  0  0
 30 68  1  0  0  0  0
 31 69  1  0  0  0  0
 31 70  1  0  0  0  0
 31 71  1  0  0  0  0
M  END
$$$$
CHEMBL4591232
 OpenBabel12022418083D

 59 61  0  0  0  0  0  0  0  0999 V2000
    0.9123    0.3392   -0.1350 C   0  0  0  0  0  0  0  0  0  0  0  0
    2.4218    0.1002    0.1167 C   0  0  0  0  0  0  0  0  0  0  0  0
    3.1943    0.6107   -1.1234 C   0  0  0  0  0  0  0  0  0  0  0  0
    2.8833    0.8982    1.3544 C   0  0  0  0  0  0  0  0  0  0  0  0
    3.5196    0.2861    2.4466 C   0  0  0  0  0  0  0  0  0  0  0  0
    3.8127    0.9815    3.6215 C   0  0  0  0  0  0  0  0  0  0  0  0
    3.5615    2.3533    3.7041 C   0  0  0  0  0  0  0  0  0  0  0  0
    3.9074    2.9973    4.9426 C   0  0  0  0  0  0  0  0  0  0  0  0
    4.4379    2.2521    6.0108 C   0  0  0  0  0  0  0  0  0  0  0  0
    4.6276    0.7742    5.9279 C   0  0  0  0  0  0  0  0  0  0  0  0
    3.6959    0.0617    6.9223 C   0  0  0  0  0  0  0  0  0  0  0  0
    6.0862    0.3901    6.2106 C   0  0  0  0  0  0  0  0  0  0  0  0
    4.3402    0.2016    4.6223 O   0  0  0  0  0  0  0  0  0  0  0  0
    4.6661    3.1645    7.0131 C   0  0  0  0  0  0  0  0  0  0  0  0
    4.2489    4.3700    6.5171 N   0  0  0  0  0  0  0  0  0  0  0  0
    4.2757    5.6375    7.2352 C   0  0  0  0  0  0  0  0  0  0  0  0
    2.9645    6.1790    7.3059 O   0  0  0  0  0  0  0  0  0  0  0  0
    3.7841    4.3060    5.2421 N   0  0  0  0  0  0  0  0  0  0  0  0
    3.0068    3.0028    2.5994 C   0  0  0  0  0  0  0  0  0  0  0  0
    2.6644    2.2873    1.4456 C   0  0  0  0  0  0  0  0  0  0  0  0
    2.7654    4.3515    2.5943 O   0  0  0  0  0  0  0  0  0  0  0  0
    2.6672   -1.4469    0.2064 C   0  0  0  0  0  0  0  0  0  0  0  0
    1.8381   -2.1813    1.2734 C   0  0  0  0  0  0  0  0  0  0  0  0
    2.1782   -3.6673    1.3587 C   0  0  0  0  0  0  0  0  0  0  0  0
    1.4148   -4.2886    2.5286 C   0  0  0  0  0  0  0  0  0  0  0  0
    1.6548   -5.7882    2.6363 C   0  0  0  0  0  0  0  0  0  0  0  0
    0.8714   -6.3750    3.7996 C   0  0  0  0  0  0  0  0  0  0  0  0
    0.6847    1.3905   -0.3381 H   0  0  0  0  0  0  0  0  0  0  0  0
    0.3058    0.0478    0.7294 H   0  0  0  0  0  0  0  0  0  0  0  0
    0.5647   -0.2367   -1.0016 H   0  0  0  0  0  0  0  0  0  0  0  0
    2.9608    1.6575   -1.3500 H   0  0  0  0  0  0  0  0  0  0  0  0
    2.9358    0.0289   -2.0169 H   0  0  0  0  0  0  0  0  0  0  0  0
    4.2778    0.5370   -0.9789 H   0  0  0  0  0  0  0  0  0  0  0  0
    3.7892   -0.7646    2.4341 H   0  0  0  0  0  0  0  0  0  0  0  0
    3.8478    0.4108    7.9493 H   0  0  0  0  0  0  0  0  0  0  0  0
    3.8480   -1.0238    6.8998 H   0  0  0  0  0  0  0  0  0  0  0  0
    2.6451    0.2324    6.6587 H   0  0  0  0  0  0  0  0  0  0  0  0
    6.4355    0.7651    7.1780 H   0  0  0  0  0  0  0  0  0  0  0  0
    6.7456    0.7898    5.4299 H   0  0  0  0  0  0  0  0  0  0  0  0
    6.2158   -0.6985    6.1939 H   0  0  0  0  0  0  0  0  0  0  0  0
    5.0617    3.0620    8.0073 H   0  0  0  0  0  0  0  0  0  0  0  0
    4.9394    6.3204    6.6980 H   0  0  0  0  0  0  0  0  0  0  0  0
    4.6526    5.4630    8.2465 H   0  0  0  0  0  0  0  0  0  0  0  0
    2.6252    6.1431    6.3913 H   0  0  0  0  0  0  0  0  0  0  0  0
    2.2218    2.8360    0.6181 H   0  0  0  0  0  0  0  0  0  0  0  0
    3.0660    4.6881    3.4677 H   0  0  0  0  0  0  0  0  0  0  0  0
    3.7369   -1.6431    0.3623 H   0  0  0  0  0  0  0  0  0  0  0  0
    2.4258   -1.9024   -0.7644 H   0  0  0  0  0  0  0  0  0  0  0  0
    0.7698   -2.0814    1.0570 H   0  0  0  0  0  0  0  0  0  0  0  0
    1.9823   -1.7461    2.2646 H   0  0  0  0  0  0  0  0  0  0  0  0
    3.2565   -3.8051    1.5045 H   0  0  0  0  0  0  0  0  0  0  0  0
    1.9050   -4.1625    0.4197 H   0  0  0  0  0  0  0  0  0  0  0  0
    0.3418   -4.0955    2.4077 H   0  0  0  0  0  0  0  0  0  0  0  0
    1.7227   -3.8014    3.4631 H   0  0  0  0  0  0  0  0  0  0  0  0
    2.7230   -5.9878    2.7792 H   0  0  0  0  0  0  0  0  0  0  0  0
    1.3498   -6.2820    1.7067 H   0  0  0  0  0  0  0  0  0  0  0  0
    1.1713   -5.9134    4.7462 H   0  0  0  0  0  0  0  0  0  0  0  0
    1.0497   -7.4509    3.8717 H   0  0  0  0  0  0  0  0  0  0  0  0
   -0.2037   -6.2133    3.6670 H   0  0  0  0  0  0  0  0  0  0  0  0
  1  2  1  0  0  0  0
  1 28  1  0  0  0  0
  1 29  1  0  0  0  0
  1 30  1  0  0  0  0
  2  3  1  0  0  0  0
  2  4  1  0  0  0  0
  2 22  1  0  0  0  0
  3 31  1  0  0  0  0
  3 32  1  0  0  0  0
  3 33  1  0  0  0  0
  4 20  2  0  0  0  0
  4  5  1  0  0  0  0
  5  6  2  0  0  0  0
  5 34  1  0  0  0  0
  6 13  1  0  0  0  0
  6  7  1  0  0  0  0
  7  8  1  0  0  0  0
  7 19  2  0  0  0  0
  8 18  2  0  0  0  0
  8  9  1  0  0  0  0
  9 10  1  0  0  0  0
  9 14  2  0  0  0  0
 10 11  1  0  0  0  0
 10 12  1  0  0  0  0
 10 13  1  0  0  0  0
 11 35  1  0  0  0  0
 11 36  1  0  0  0  0
 11 37  1  0  0  0  0
 12 38  1  0  0  0  0
 12 39  1  0  0  0  0
 12 40  1  0  0  0  0
 14 15  1  0  0  0  0
 14 41  1  0  0  0  0
 15 16  1  0  0  0  0
 15 18  1  0  0  0  0
 16 17  1  0  0  0  0
 16 42  1  0  0  0  0
 16 43  1  0  0  0  0
 17 44  1  0  0  0  0
 19 20  1  0  0  0  0
 19 21  1  0  0  0  0
 20 45  1  0  0  0  0
 21 46  1  0  0  0  0
 22 23  1  0  0  0  0
 22 47  1  0  0  0  0
 22 48  1  0  0  0  0
 23 24  1  0  0  0  0
 23 49  1  0  0  0  0
 23 50  1  0  0  0  0
 24 25  1  0  0  0  0
 24 51  1  0  0  0  0
 24 52  1  0  0  0  0
 25 26  1  0  0  0  0
 25 53  1  0  0  0  0
 25 54  1  0  0  0  0
 26 27  1  0  0  0  0
 26 55  1  0  0  0  0
 26 56  1  0  0  0  0
 27 57  1  0  0  0  0
 27 58  1  0  0  0  0
 27 59  1  0  0  0  0
M  END
$$$$
CHEMBL5189892
 OpenBabel12022418083D

 59 61  0  0  1  0  0  0  0  0999 V2000
   -0.3185   -7.9944    1.3281 C   0  0  0  0  0  0  0  0  0  0  0  0
   -0.8238   -6.6129    0.9316 C   0  0  0  0  0  0  0  0  0  0  0  0
    0.2835   -5.5802    1.1070 C   0  0  0  0  0  0  0  0  0  0  0  0
   -0.1713   -4.1684    0.7299 C   0  0  0  0  0  0  0  0  0  0  0  0
    1.2178   -2.8857    0.9026 Si  0  0  0  0  0  0  0  0  0  0  0  0
    1.8866   -2.9109    2.6617 C   0  0  0  0  0  0  0  0  0  0  0  0
    2.5735   -3.1826   -0.3533 C   0  0  0  0  0  0  0  0  0  0  0  0
    0.5823   -1.1516    0.5524 C   0  0  0  0  0  0  0  0  0  0  0  0
    0.3940   -0.2679    1.6253 C   0  0  0  0  0  0  0  0  0  0  0  0
    0.0350    1.0484    1.3968 C   0  0  0  0  0  0  0  0  0  0  0  0
   -0.2516    1.4752    0.0983 C   0  0  0  0  0  0  0  0  0  0  0  0
   -1.1370    2.6556   -0.2322 C   0  0  2  0  0  0  0  0  0  0  0  0
   -1.4898    3.5654    0.8968 C   0  0  0  0  0  0  0  0  0  0  0  0
   -2.6830    3.5439    1.5093 C   0  0  0  0  0  0  0  0  0  0  0  0
   -3.8051    2.6996    0.9704 C   0  0  0  0  0  0  0  0  0  0  0  0
   -3.6901    2.4564   -0.5519 C   0  0  0  0  0  0  0  0  0  0  0  0
   -2.3176    1.8691   -0.8648 C   0  0  1  0  0  0  0  0  0  0  0  0
   -1.8428    1.5240   -2.3051 C   0  0  0  0  0  0  0  0  0  0  0  0
   -2.7476    0.5052   -2.9993 C   0  0  0  0  0  0  0  0  0  0  0  0
   -1.7229    2.7767   -3.1966 C   0  0  0  0  0  0  0  0  0  0  0  0
   -0.5119    0.8995   -2.2572 O   0  0  0  0  0  0  0  0  0  0  0  0
   -0.0716    0.5841   -0.9830 C   0  0  0  0  0  0  0  0  0  0  0  0
    0.3653   -0.7123   -0.7636 C   0  0  0  0  0  0  0  0  0  0  0  0
   -2.8354    4.2553    2.8171 C   0  0  0  0  0  0  0  0  0  0  0  0
   -0.1024    1.8762    2.4707 O   0  0  0  0  0  0  0  0  0  0  0  0
   -0.0035   -8.0105    2.3701 H   0  0  0  0  0  0  0  0  0  0  0  0
   -1.1078   -8.7377    1.1895 H   0  0  0  0  0  0  0  0  0  0  0  0
    0.5360   -8.2844    0.7034 H   0  0  0  0  0  0  0  0  0  0  0  0
   -1.1614   -6.6278   -0.1110 H   0  0  0  0  0  0  0  0  0  0  0  0
   -1.6875   -6.3495    1.5532 H   0  0  0  0  0  0  0  0  0  0  0  0
    0.6232   -5.5930    2.1508 H   0  0  0  0  0  0  0  0  0  0  0  0
    1.1446   -5.8690    0.4910 H   0  0  0  0  0  0  0  0  0  0  0  0
   -1.0106   -3.8678    1.3691 H   0  0  0  0  0  0  0  0  0  0  0  0
   -0.5338   -4.1539   -0.3046 H   0  0  0  0  0  0  0  0  0  0  0  0
    2.4659   -3.8158    2.8513 H   0  0  0  0  0  0  0  0  0  0  0  0
    1.0632   -2.8714    3.3839 H   0  0  0  0  0  0  0  0  0  0  0  0
    2.5311   -2.0435    2.8373 H   0  0  0  0  0  0  0  0  0  0  0  0
    3.3696   -2.4453   -0.2243 H   0  0  0  0  0  0  0  0  0  0  0  0
    2.1776   -3.0741   -1.3687 H   0  0  0  0  0  0  0  0  0  0  0  0
    2.9979   -4.1835   -0.2549 H   0  0  0  0  0  0  0  0  0  0  0  0
    0.5040   -0.6077    2.6515 H   0  0  0  0  0  0  0  0  0  0  0  0
   -0.6124    3.2897   -0.9563 H   0  0  0  0  0  0  0  0  0  0  0  0
   -0.6734    4.1586    1.3029 H   0  0  0  0  0  0  0  0  0  0  0  0
   -3.7811    1.7461    1.5117 H   0  0  0  0  0  0  0  0  0  0  0  0
   -4.7699    3.1693    1.1895 H   0  0  0  0  0  0  0  0  0  0  0  0
   -4.4674    1.7332   -0.8337 H   0  0  0  0  0  0  0  0  0  0  0  0
   -3.8777    3.3801   -1.1035 H   0  0  0  0  0  0  0  0  0  0  0  0
   -2.4158    0.8884   -0.3605 H   0  0  0  0  0  0  0  0  0  0  0  0
   -3.7987    0.8145   -2.9973 H   0  0  0  0  0  0  0  0  0  0  0  0
   -2.6563   -0.4857   -2.5387 H   0  0  0  0  0  0  0  0  0  0  0  0
   -2.4382    0.3644   -4.0471 H   0  0  0  0  0  0  0  0  0  0  0  0
   -1.7952    2.5248   -4.2606 H   0  0  0  0  0  0  0  0  0  0  0  0
   -2.5072    3.5081   -2.9818 H   0  0  0  0  0  0  0  0  0  0  0  0
   -0.7481    3.2646   -3.0836 H   0  0  0  0  0  0  0  0  0  0  0  0
    0.4501   -1.3878   -1.6116 H   0  0  0  0  0  0  0  0  0  0  0  0
   -2.1274    3.8407    3.5468 H   0  0  0  0  0  0  0  0  0  0  0  0
   -2.6309    5.3276    2.7144 H   0  0  0  0  0  0  0  0  0  0  0  0
   -3.8373    4.1308    3.2298 H   0  0  0  0  0  0  0  0  0  0  0  0
    0.0757    1.3873    3.2884 H   0  0  0  0  0  0  0  0  0  0  0  0
  1  2  1  0  0  0  0
  1 26  1  0  0  0  0
  1 27  1  0  0  0  0
  1 28  1  0  0  0  0
  2  3  1  0  0  0  0
  2 29  1  0  0  0  0
  2 30  1  0  0  0  0
  3  4  1  0  0  0  0
  3 31  1  0  0  0  0
  3 32  1  0  0  0  0
  4  5  1  0  0  0  0
  4 33  1  0  0  0  0
  4 34  1  0  0  0  0
  5  6  1  0  0  0  0
  5  7  1  0  0  0  0
  5  8  1  0  0  0  0
  6 35  1  0  0  0  0
  6 36  1  0  0  0  0
  6 37  1  0  0  0  0
  7 38  1  0  0  0  0
  7 39  1  0  0  0  0
  7 40  1  0  0  0  0
  8 23  2  0  0  0  0
  8  9  1  0  0  0  0
  9 10  2  0  0  0  0
  9 41  1  0  0  0  0
 10 11  1  0  0  0  0
 10 25  1  0  0  0  0
 11 22  2  0  0  0  0
 11 12  1  0  0  0  0
 12 13  1  0  0  0  0
 12 17  1  0  0  0  0
 12 42  1  6  0  0  0
 13 14  2  0  0  0  0
 13 43  1  0  0  0  0
 14 15  1  0  0  0  0
 14 24  1  0  0  0  0
 15 16  1  0  0  0  0
 15 44  1  0  0  0  0
 15 45  1  0  0  0  0
 16 46  1  0  0  0  0
 16 47  1  0  0  0  0
 17 16  1  0  0  0  0
 17 18  1  0  0  0  0
 17 48  1  1  0  0  0
 18 19  1  0  0  0  0
 18 20  1  0  0  0  0
 18 21  1  0  0  0  0
 19 49  1  0  0  0  0
 19 50  1  0  0  0  0
 19 51  1  0  0  0  0
 20 52  1  0  0  0  0
 20 53  1  0  0  0  0
 20 54  1  0  0  0  0
 21 22  1  0  0  0  0
 22 23  1  0  0  0  0
 23 55  1  0  0  0  0
 24 56  1  0  0  0  0
 24 57  1  0  0  0  0
 24 58  1  0  0  0  0
 25 59  1  0  0  0  0
M  END
$$$$
CHEMBL138917	6KPF	best_smi
 OpenBabel12022418093D

 63 65  0  0  1  0  0  0  0  0999 V2000
   -1.0600   -2.4657    0.4949 C   0  0  0  0  0  0  0  0  0  0  0  0
    0.1272   -1.7257   -0.0680 C   0  0  0  0  0  0  0  0  0  0  0  0
    0.0336   -1.5306   -1.3946 C   0  0  0  0  0  0  0  0  0  0  0  0
   -0.0520   -0.1345   -1.9201 C   0  0  0  0  0  0  0  0  0  0  0  0
   -0.0681    0.9846   -0.8605 C   0  0  2  0  0  0  0  0  0  0  0  0
    0.3529    0.6472    0.5713 C   0  0  1  0  0  0  0  0  0  0  0  0
    0.9187   -0.7419    0.7912 C   0  0  0  0  0  0  0  0  0  0  0  0
    0.9319    1.9910    0.9649 C   0  0  0  0  0  0  0  0  0  0  0  0
    2.1999    2.5097    0.7304 C   0  0  0  0  0  0  0  0  0  0  0  0
    3.1090    1.7462    0.0502 O   0  0  0  0  0  0  0  0  0  0  0  0
    2.4648    3.8955    0.8530 C   0  0  0  0  0  0  0  0  0  0  0  0
    1.4506    4.8136    1.2110 C   0  0  0  0  0  0  0  0  0  0  0  0
    1.6263    6.3413    1.0773 C   0  0  0  0  0  0  0  0  0  0  0  0
    0.4597    7.1451    1.7175 C   0  0  0  0  0  0  0  0  0  0  0  0
    2.9109    6.8360    1.7800 C   0  0  0  0  0  0  0  0  0  0  0  0
    1.7310    6.7117   -0.4439 C   0  0  0  0  0  0  0  0  0  0  0  0
    0.5463    6.2494   -1.3142 C   0  0  0  0  0  0  0  0  0  0  0  0
    0.7308    6.6470   -2.7844 C   0  0  0  0  0  0  0  0  0  0  0  0
   -0.4599    6.1652   -3.6204 C   0  0  0  0  0  0  0  0  0  0  0  0
   -0.3126    6.5525   -5.0897 C   0  0  0  0  0  0  0  0  0  0  0  0
   -1.4679    6.0691   -5.8689 C   0  0  0  0  0  0  0  0  0  0  0  0
   -2.3745    5.6862   -6.4700 N   0  0  0  0  0  0  0  0  0  0  0  0
    0.1697    4.2889    1.3933 C   0  0  0  0  0  0  0  0  0  0  0  0
   -0.0693    2.9589    1.0873 C   0  0  0  0  0  0  0  0  0  0  0  0
   -1.3247    2.7042    0.5611 O   0  0  0  0  0  0  0  0  0  0  0  0
   -1.3374    1.8930   -0.6796 C   0  0  0  0  0  0  0  0  0  0  0  0
   -1.4270    2.8458   -1.8749 C   0  0  0  0  0  0  0  0  0  0  0  0
   -2.6446    1.1089   -0.5382 C   0  0  0  0  0  0  0  0  0  0  0  0
   -1.3063   -3.3558   -0.0998 H   0  0  0  0  0  0  0  0  0  0  0  0
   -1.9347   -1.7997    0.4270 H   0  0  0  0  0  0  0  0  0  0  0  0
   -0.9474   -2.7525    1.5393 H   0  0  0  0  0  0  0  0  0  0  0  0
   -0.4534   -2.2716   -2.0279 H   0  0  0  0  0  0  0  0  0  0  0  0
   -0.9594   -0.0735   -2.5247 H   0  0  0  0  0  0  0  0  0  0  0  0
    0.7832    0.0200   -2.6130 H   0  0  0  0  0  0  0  0  0  0  0  0
    0.7063    1.6436   -1.2863 H   0  0  0  0  0  0  0  0  0  0  0  0
   -0.5472    0.5586    1.2029 H   0  0  0  0  0  0  0  0  0  0  0  0
    1.9871   -0.8048    0.5630 H   0  0  0  0  0  0  0  0  0  0  0  0
    0.8195   -1.0235    1.8483 H   0  0  0  0  0  0  0  0  0  0  0  0
    3.2616    2.2132   -0.7938 H   0  0  0  0  0  0  0  0  0  0  0  0
    3.4437    4.2634    0.5481 H   0  0  0  0  0  0  0  0  0  0  0  0
   -0.4884    7.0148    1.1866 H   0  0  0  0  0  0  0  0  0  0  0  0
    0.6678    8.2205    1.7183 H   0  0  0  0  0  0  0  0  0  0  0  0
    0.2923    6.8393    2.7582 H   0  0  0  0  0  0  0  0  0  0  0  0
    2.8237    6.7574    2.8696 H   0  0  0  0  0  0  0  0  0  0  0  0
    3.0958    7.8919    1.5425 H   0  0  0  0  0  0  0  0  0  0  0  0
    3.8031    6.2821    1.4757 H   0  0  0  0  0  0  0  0  0  0  0  0
    2.6535    6.2857   -0.8570 H   0  0  0  0  0  0  0  0  0  0  0  0
    1.8239    7.8007   -0.5390 H   0  0  0  0  0  0  0  0  0  0  0  0
   -0.3720    6.6832   -0.9561 H   0  0  0  0  0  0  0  0  0  0  0  0
    0.4537    5.1607   -1.2653 H   0  0  0  0  0  0  0  0  0  0  0  0
    1.6554    6.2068   -3.1686 H   0  0  0  0  0  0  0  0  0  0  0  0
    0.8303    7.7306   -2.8641 H   0  0  0  0  0  0  0  0  0  0  0  0
   -1.3860    6.5878   -3.2148 H   0  0  0  0  0  0  0  0  0  0  0  0
   -0.5484    5.0763   -3.5421 H   0  0  0  0  0  0  0  0  0  0  0  0
    0.6107    6.1238   -5.4974 H   0  0  0  0  0  0  0  0  0  0  0  0
   -0.2334    7.6389   -5.1828 H   0  0  0  0  0  0  0  0  0  0  0  0
   -0.6978    4.9204    1.5493 H   0  0  0  0  0  0  0  0  0  0  0  0
   -1.7866    2.3315   -2.7703 H   0  0  0  0  0  0  0  0  0  0  0  0
   -2.0722    3.7029   -1.6604 H   0  0  0  0  0  0  0  0  0  0  0  0
   -0.4388    3.2550   -2.1139 H   0  0  0  0  0  0  0  0  0  0  0  0
   -2.8357    0.4400   -1.3785 H   0  0  0  0  0  0  0  0  0  0  0  0
   -3.4884    1.8058   -0.4540 H   0  0  0  0  0  0  0  0  0  0  0  0
   -2.6554    0.5257    0.3895 H   0  0  0  0  0  0  0  0  0  0  0  0
  1  2  1  0  0  0  0
  1 29  1  0  0  0  0
  1 30  1  0  0  0  0
  1 31  1  0  0  0  0
  2  7  1  0  0  0  0
  2  3  2  0  0  0  0
  3  4  1  0  0  0  0
  3 32  1  0  0  0  0
  4 33  1  0  0  0  0
  4 34  1  0  0  0  0
  5  4  1  0  0  0  0
  5  6  1  0  0  0  0
  5 26  1  0  0  0  0
  5 35  1  6  0  0  0
  6  7  1  0  0  0  0
  6  8  1  0  0  0  0
  6 36  1  1  0  0  0
  7 37  1  0  0  0  0
  7 38  1  0  0  0  0
  8 24  2  0  0  0  0
  8  9  1  0  0  0  0
  9 10  1  0  0  0  0
  9 11  2  0  0  0  0
 10 39  1  0  0  0  0
 11 12  1  0  0  0  0
 11 40  1  0  0  0  0
 12 13  1  0  0  0  0
 12 23  2  0  0  0  0
 13 14  1  0  0  0  0
 13 15  1  0  0  0  0
 13 16  1  0  0  0  0
 14 41  1  0  0  0  0
 14 42  1  0  0  0  0
 14 43  1  0  0  0  0
 15 44  1  0  0  0  0
 15 45  1  0  0  0  0
 15 46  1  0  0  0  0
 16 17  1  0  0  0  0
 16 47  1  0  0  0  0
 16 48  1  0  0  0  0
 17 18  1  0  0  0  0
 17 49  1  0  0  0  0
 17 50  1  0  0  0  0
 18 19  1  0  0  0  0
 18 51  1  0  0  0  0
 18 52  1  0  0  0  0
 19 20  1  0  0  0  0
 19 53  1  0  0  0  0
 19 54  1  0  0  0  0
 20 21  1  0  0  0  0
 20 55  1  0  0  0  0
 20 56  1  0  0  0  0
 21 22  3  0  0  0  0
 23 24  1  0  0  0  0
 23 57  1  0  0  0  0
 24 25  1  0  0  0  0
 25 26  1  0  0  0  0
 26 27  1  0  0  0  0
 26 28  1  0  0  0  0
 27 58  1  0  0  0  0
 27 59  1  0  0  0  0
 27 60  1  0  0  0  0
 28 61  1  0  0  0  0
 28 62  1  0  0  0  0
 28 63  1  0  0  0  0
M  END
$$$$
CHEMBL336670	6KPF	best_smi
 OpenBabel12022418093D

 60 62  0  0  1  0  0  0  0  0999 V2000
    5.4597    0.3698   -1.8821 C   0  0  0  0  0  0  0  0  0  0  0  0
    4.9659    0.3168   -0.4316 C   0  0  0  0  0  0  0  0  0  0  0  0
    5.5901   -0.6687    0.2701 C   0  0  0  0  0  0  0  0  0  0  0  0
    4.8364   -2.0010    0.3952 C   0  0  0  0  0  0  0  0  0  0  0  0
    3.4814   -1.8159   -0.3017 C   0  0  2  0  0  0  0  0  0  0  0  0
    2.8046   -0.6856    0.4924 C   0  0  1  0  0  0  0  0  0  0  0  0
    3.4264    0.5852   -0.1800 C   0  0  0  0  0  0  0  0  0  0  0  0
    1.3447   -0.9960    0.6726 C   0  0  0  0  0  0  0  0  0  0  0  0
    0.6644   -0.7579    1.8696 C   0  0  0  0  0  0  0  0  0  0  0  0
    1.2609   -0.0158    2.8515 O   0  0  0  0  0  0  0  0  0  0  0  0
   -0.5932   -1.3260    2.1302 C   0  0  0  0  0  0  0  0  0  0  0  0
   -1.3000   -2.0029    1.1278 C   0  0  0  0  0  0  0  0  0  0  0  0
   -2.7670   -2.4451    1.2635 C   0  0  0  0  0  0  0  0  0  0  0  0
   -3.5519   -1.6464    0.1952 C   0  0  0  0  0  0  0  0  0  0  0  0
   -3.3789   -2.1230    2.6468 C   0  0  0  0  0  0  0  0  0  0  0  0
   -2.8825   -3.9797    0.9976 C   0  0  0  0  0  0  0  0  0  0  0  0
   -4.3056   -4.5363    0.9775 C   0  0  0  0  0  0  0  0  0  0  0  0
   -4.2972   -6.0174    0.6338 C   0  0  0  0  0  0  0  0  0  0  0  0
   -5.7244   -6.6224    0.6142 C   0  0  0  0  0  0  0  0  0  0  0  0
   -5.6994   -8.0329    0.2952 C   0  0  0  0  0  0  0  0  0  0  0  0
   -5.6891   -9.1707    0.0406 N   0  0  0  0  0  0  0  0  0  0  0  0
   -0.6268   -2.2246   -0.0783 C   0  0  0  0  0  0  0  0  0  0  0  0
    0.6944   -1.8204   -0.2408 C   0  0  0  0  0  0  0  0  0  0  0  0
    1.3568   -2.4480   -1.2583 O   0  0  0  0  0  0  0  0  0  0  0  0
    2.6340   -2.9728   -0.8174 C   0  0  0  0  0  0  0  0  0  0  0  0
    3.2516   -3.4686   -2.1481 C   0  0  0  0  0  0  0  0  0  0  0  0
    2.4897   -4.1442    0.1573 C   0  0  0  0  0  0  0  0  0  0  0  0
    4.7449   -0.1404   -2.5451 H   0  0  0  0  0  0  0  0  0  0  0  0
    5.6210    1.3743   -2.2627 H   0  0  0  0  0  0  0  0  0  0  0  0
    6.3929   -0.2029   -2.0046 H   0  0  0  0  0  0  0  0  0  0  0  0
    6.6630   -0.8212    0.1646 H   0  0  0  0  0  0  0  0  0  0  0  0
    4.7248   -2.2636    1.4538 H   0  0  0  0  0  0  0  0  0  0  0  0
    5.4209   -2.7841   -0.0930 H   0  0  0  0  0  0  0  0  0  0  0  0
    3.6897   -1.3776   -1.2810 H   0  0  0  0  0  0  0  0  0  0  0  0
    3.1974   -0.6747    1.5204 H   0  0  0  0  0  0  0  0  0  0  0  0
    2.9212    0.8113   -1.1282 H   0  0  0  0  0  0  0  0  0  0  0  0
    3.3158    1.4678    0.4614 H   0  0  0  0  0  0  0  0  0  0  0  0
    0.5660    0.2801    3.4641 H   0  0  0  0  0  0  0  0  0  0  0  0
   -0.9986   -1.2464    3.1339 H   0  0  0  0  0  0  0  0  0  0  0  0
   -3.3604   -2.0316   -0.8138 H   0  0  0  0  0  0  0  0  0  0  0  0
   -3.2626   -0.5881    0.1997 H   0  0  0  0  0  0  0  0  0  0  0  0
   -4.6326   -1.6912    0.3586 H   0  0  0  0  0  0  0  0  0  0  0  0
   -3.1035   -1.1272    3.0085 H   0  0  0  0  0  0  0  0  0  0  0  0
   -4.4736   -2.1376    2.6156 H   0  0  0  0  0  0  0  0  0  0  0  0
   -3.0618   -2.8540    3.4004 H   0  0  0  0  0  0  0  0  0  0  0  0
   -2.4206   -4.2355    0.0358 H   0  0  0  0  0  0  0  0  0  0  0  0
   -2.2976   -4.5219    1.7553 H   0  0  0  0  0  0  0  0  0  0  0  0
   -4.7914   -4.3863    1.9468 H   0  0  0  0  0  0  0  0  0  0  0  0
   -4.9077   -4.0084    0.2251 H   0  0  0  0  0  0  0  0  0  0  0  0
   -3.6839   -6.5712    1.3705 H   0  0  0  0  0  0  0  0  0  0  0  0
   -3.8259   -6.1795   -0.3430 H   0  0  0  0  0  0  0  0  0  0  0  0
   -6.3219   -6.0664   -0.1155 H   0  0  0  0  0  0  0  0  0  0  0  0
   -6.1861   -6.4558    1.6014 H   0  0  0  0  0  0  0  0  0  0  0  0
   -1.0825   -2.7954   -0.8833 H   0  0  0  0  0  0  0  0  0  0  0  0
    2.6392   -4.2591   -2.5934 H   0  0  0  0  0  0  0  0  0  0  0  0
    3.2585   -2.6608   -2.8964 H   0  0  0  0  0  0  0  0  0  0  0  0
    4.2769   -3.8238   -2.0221 H   0  0  0  0  0  0  0  0  0  0  0  0
    1.4939   -4.2050    0.6039 H   0  0  0  0  0  0  0  0  0  0  0  0
    2.6606   -5.0984   -0.3525 H   0  0  0  0  0  0  0  0  0  0  0  0
    3.2203   -4.0889    0.9687 H   0  0  0  0  0  0  0  0  0  0  0  0
  1  2  1  0  0  0  0
  1 28  1  0  0  0  0
  1 29  1  0  0  0  0
  1 30  1  0  0  0  0
  2  7  1  0  0  0  0
  2  3  2  0  0  0  0
  3  4  1  0  0  0  0
  3 31  1  0  0  0  0
  4 32  1  0  0  0  0
  4 33  1  0  0  0  0
  5  4  1  0  0  0  0
  5  6  1  0  0  0  0
  5 25  1  0  0  0  0
  5 34  1  6  0  0  0
  6  7  1  0  0  0  0
  6  8  1  0  0  0  0
  6 35  1  1  0  0  0
  7 36  1  0  0  0  0
  7 37  1  0  0  0  0
  8 23  2  0  0  0  0
  8  9  1  0  0  0  0
  9 10  1  0  0  0  0
  9 11  2  0  0  0  0
 10 38  1  0  0  0  0
 11 12  1  0  0  0  0
 11 39  1  0  0  0  0
 12 13  1  0  0  0  0
 12 22  2  0  0  0  0
 13 14  1  0  0  0  0
 13 15  1  0  0  0  0
 13 16  1  0  0  0  0
 14 40  1  0  0  0  0
 14 41  1  0  0  0  0
 14 42  1  0  0  0  0
 15 43  1  0  0  0  0
 15 44  1  0  0  0  0
 15 45  1  0  0  0  0
 16 17  1  0  0  0  0
 16 46  1  0  0  0  0
 16 47  1  0  0  0  0
 17 18  1  0  0  0  0
 17 48  1  0  0  0  0
 17 49  1  0  0  0  0
 18 19  1  0  0  0  0
 18 50  1  0  0  0  0
 18 51  1  0  0  0  0
 19 20  1  0  0  0  0
 19 52  1  0  0  0  0
 19 53  1  0  0  0  0
 20 21  3  0  0  0  0
 22 23  1  0  0  0  0
 22 54  1  0  0  0  0
 23 24  1  0  0  0  0
 24 25  1  0  0  0  0
 25 26  1  0  0  0  0
 25 27  1  0  0  0  0
 26 55  1  0  0  0  0
 26 56  1  0  0  0  0
 26 57  1  0  0  0  0
 27 58  1  0  0  0  0
 27 59  1  0  0  0  0
 27 60  1  0  0  0  0
M  END
$$$$
CHEMBL5091754	6KPF	best_smi
 OpenBabel12022418093D

 69 71  0  0  1  0  0  0  0  0999 V2000
    0.9600    0.1639    0.3133 C   0  0  0  0  0  0  0  0  0  0  0  0
    2.4505    0.1083   -0.1288 C   0  0  0  0  0  0  0  0  0  0  0  0
    2.5909    1.1625   -1.2491 C   0  0  0  0  0  0  0  0  0  0  0  0
    3.3504    0.5095    1.0816 C   0  0  0  0  0  0  0  0  0  0  0  0
    3.2591   -0.4665    2.2640 C   0  0  0  0  0  0  0  0  0  0  0  0
    4.1465   -0.0666    3.4412 C   0  0  0  0  0  0  0  0  0  0  0  0
    3.9786   -1.0847    4.5715 C   0  0  0  0  0  0  0  0  0  0  0  0
    4.8345   -0.7406    5.7862 C   0  0  0  0  0  0  0  0  0  0  0  0
    4.6454   -1.7796    6.8899 C   0  0  0  0  0  0  0  0  0  0  0  0
    5.4627   -1.4589    8.0623 C   0  0  0  0  0  0  0  0  0  0  0  0
    6.1112   -1.2046    8.9960 N   0  0  0  0  0  0  0  0  0  0  0  0
    2.8708   -1.2642   -0.6885 C   0  0  0  0  0  0  0  0  0  0  0  0
    1.9566   -2.3175   -0.7543 C   0  0  0  0  0  0  0  0  0  0  0  0
    2.3133   -3.5634   -1.2653 C   0  0  0  0  0  0  0  0  0  0  0  0
    1.3247   -4.4996   -1.3747 O   0  0  0  0  0  0  0  0  0  0  0  0
    3.6195   -3.8452   -1.6788 C   0  0  0  0  0  0  0  0  0  0  0  0
    4.5388   -2.7833   -1.6701 C   0  0  0  0  0  0  0  0  0  0  0  0
    4.1708   -1.5187   -1.1692 C   0  0  0  0  0  0  0  0  0  0  0  0
    5.8332   -2.8829   -2.1263 O   0  0  0  0  0  0  0  0  0  0  0  0
    6.1918   -4.0984   -2.8323 C   0  0  0  0  0  0  0  0  0  0  0  0
    7.7305   -4.1604   -2.8294 C   0  0  0  0  0  0  0  0  0  0  0  0
    5.7488   -3.9564   -4.3031 C   0  0  0  0  0  0  0  0  0  0  0  0
    5.5876   -5.3145   -2.0814 C   0  0  2  0  0  0  0  0  0  0  0  0
    6.1055   -6.6955   -2.5234 C   0  0  0  0  0  0  0  0  0  0  0  0
    5.4198   -7.8392   -1.7692 C   0  0  0  0  0  0  0  0  0  0  0  0
    3.9015   -7.7468   -1.9007 C   0  0  1  0  0  0  0  0  0  0  0  0
    3.1633   -8.8619   -1.1548 C   0  0  0  0  0  0  0  0  0  0  0  0
    3.5317  -10.1361   -1.6590 O   0  0  0  0  0  0  0  0  0  0  0  0
    3.4160   -6.3942   -1.3880 C   0  0  0  0  0  0  0  0  0  0  0  0
    4.0473   -5.2209   -2.1561 C   0  0  1  0  0  0  0  0  0  0  0  0
    0.6782    1.1691    0.6444 H   0  0  0  0  0  0  0  0  0  0  0  0
    0.7398   -0.5229    1.1376 H   0  0  0  0  0  0  0  0  0  0  0  0
    0.2859   -0.1001   -0.5109 H   0  0  0  0  0  0  0  0  0  0  0  0
    2.1906    2.1324   -0.9301 H   0  0  0  0  0  0  0  0  0  0  0  0
    2.0354    0.8579   -2.1453 H   0  0  0  0  0  0  0  0  0  0  0  0
    3.6334    1.3205   -1.5427 H   0  0  0  0  0  0  0  0  0  0  0  0
    3.0640    1.5118    1.4273 H   0  0  0  0  0  0  0  0  0  0  0  0
    4.3987    0.5874    0.7660 H   0  0  0  0  0  0  0  0  0  0  0  0
    3.5406   -1.4746    1.9394 H   0  0  0  0  0  0  0  0  0  0  0  0
    2.2279   -0.5213    2.6265 H   0  0  0  0  0  0  0  0  0  0  0  0
    3.8686    0.9331    3.7954 H   0  0  0  0  0  0  0  0  0  0  0  0
    5.1952   -0.0256    3.1248 H   0  0  0  0  0  0  0  0  0  0  0  0
    4.2475   -2.0835    4.2056 H   0  0  0  0  0  0  0  0  0  0  0  0
    2.9237   -1.1278    4.8706 H   0  0  0  0  0  0  0  0  0  0  0  0
    4.5637    0.2553    6.1591 H   0  0  0  0  0  0  0  0  0  0  0  0
    5.8909   -0.6941    5.4927 H   0  0  0  0  0  0  0  0  0  0  0  0
    4.9174   -2.7742    6.5173 H   0  0  0  0  0  0  0  0  0  0  0  0
    3.5894   -1.8249    7.1832 H   0  0  0  0  0  0  0  0  0  0  0  0
    0.9361   -2.1865   -0.4130 H   0  0  0  0  0  0  0  0  0  0  0  0
    0.5217   -4.1756   -0.9465 H   0  0  0  0  0  0  0  0  0  0  0  0
    4.9238   -0.7321   -1.1635 H   0  0  0  0  0  0  0  0  0  0  0  0
    8.1617   -3.2422   -3.2462 H   0  0  0  0  0  0  0  0  0  0  0  0
    8.1058   -4.9992   -3.4265 H   0  0  0  0  0  0  0  0  0  0  0  0
    8.1221   -4.2534   -1.8111 H   0  0  0  0  0  0  0  0  0  0  0  0
    6.2962   -3.1416   -4.7928 H   0  0  0  0  0  0  0  0  0  0  0  0
    4.6923   -3.6877   -4.3983 H   0  0  0  0  0  0  0  0  0  0  0  0
    5.9279   -4.8726   -4.8735 H   0  0  0  0  0  0  0  0  0  0  0  0
    5.8709   -5.2068   -1.0207 H   0  0  0  0  0  0  0  0  0  0  0  0
    7.1816   -6.7731   -2.3329 H   0  0  0  0  0  0  0  0  0  0  0  0
    5.9572   -6.8335   -3.5997 H   0  0  0  0  0  0  0  0  0  0  0  0
    5.7049   -7.8017   -0.7096 H   0  0  0  0  0  0  0  0  0  0  0  0
    5.7805   -8.7966   -2.1618 H   0  0  0  0  0  0  0  0  0  0  0  0
    3.6534   -7.8338   -2.9680 H   0  0  0  0  0  0  0  0  0  0  0  0
    2.0786   -8.7524   -1.2743 H   0  0  0  0  0  0  0  0  0  0  0  0
    3.3824   -8.8357   -0.0822 H   0  0  0  0  0  0  0  0  0  0  0  0
    3.3041  -10.1479   -2.6045 H   0  0  0  0  0  0  0  0  0  0  0  0
    3.6157   -6.2909   -0.3129 H   0  0  0  0  0  0  0  0  0  0  0  0
    2.3324   -6.4064   -1.5098 H   0  0  0  0  0  0  0  0  0  0  0  0
    3.7259   -5.3125   -3.2021 H   0  0  0  0  0  0  0  0  0  0  0  0
  1  2  1  0  0  0  0
  1 31  1  0  0  0  0
  1 32  1  0  0  0  0
  1 33  1  0  0  0  0
  2  3  1  0  0  0  0
  2  4  1  0  0  0  0
  2 12  1  0  0  0  0
  3 34  1  0  0  0  0
  3 35  1  0  0  0  0
  3 36  1  0  0  0  0
  4  5  1  0  0  0  0
  4 37  1  0  0  0  0
  4 38  1  0  0  0  0
  5  6  1  0  0  0  0
  5 39  1  0  0  0  0
  5 40  1  0  0  0  0
  6  7  1  0  0  0  0
  6 41  1  0  0  0  0
  6 42  1  0  0  0  0
  7  8  1  0  0  0  0
  7 43  1  0  0  0  0
  7 44  1  0  0  0  0
  8  9  1  0  0  0  0
  8 45  1  0  0  0  0
  8 46  1  0  0  0  0
  9 10  1  0  0  0  0
  9 47  1  0  0  0  0
  9 48  1  0  0  0  0
 10 11  3  0  0  0  0
 12 18  2  0  0  0  0
 12 13  1  0  0  0  0
 13 14  2  0  0  0  0
 13 49  1  0  0  0  0
 14 15  1  0  0  0  0
 14 16  1  0  0  0  0
 15 50  1  0  0  0  0
 16 30  1  0  0  0  0
 16 17  2  0  0  0  0
 17 18  1  0  0  0  0
 17 19  1  0  0  0  0
 18 51  1  0  0  0  0
 19 20  1  0  0  0  0
 20 21  1  0  0  0  0
 20 22  1  0  0  0  0
 20 23  1  0  0  0  0
 21 52  1  0  0  0  0
 21 53  1  0  0  0  0
 21 54  1  0  0  0  0
 22 55  1  0  0  0  0
 22 56  1  0  0  0  0
 22 57  1  0  0  0  0
 23 24  1  0  0  0  0
 23 30  1  0  0  0  0
 23 58  1  1  0  0  0
 24 25  1  0  0  0  0
 24 59  1  0  0  0  0
 24 60  1  0  0  0  0
 25 26  1  0  0  0  0
 25 61  1  0  0  0  0
 25 62  1  0  0  0  0
 26 27  1  0  0  0  0
 26 29  1  0  0  0  0
 26 63  1  6  0  0  0
 27 28  1  0  0  0  0
 27 64  1  0  0  0  0
 27 65  1  0  0  0  0
 28 66  1  0  0  0  0
 29 67  1  0  0  0  0
 29 68  1  0  0  0  0
 30 29  1  0  0  0  0
 30 69  1  6  0  0  0
M  END
$$$$
CHEMBL5085420	6KPF	best_smi
 OpenBabel12022418093D

 70 72  0  0  1  0  0  0  0  0999 V2000
    2.3065    1.2704    1.0127 C   0  0  0  0  0  0  0  0  0  0  0  0
    2.5760    0.0674    0.0788 C   0  0  0  0  0  0  0  0  0  0  0  0
    1.2302   -0.2479   -0.6224 C   0  0  0  0  0  0  0  0  0  0  0  0
    3.6015    0.4838   -1.0209 C   0  0  0  0  0  0  0  0  0  0  0  0
    4.9954    0.8260   -0.4860 C   0  0  0  0  0  0  0  0  0  0  0  0
    5.9519    1.2243   -1.6091 C   0  0  0  0  0  0  0  0  0  0  0  0
    7.3213    1.5705   -1.0266 C   0  0  0  0  0  0  0  0  0  0  0  0
    8.3077    1.9863   -2.1120 C   0  0  0  0  0  0  0  0  0  0  0  0
    9.6684    2.3240   -1.5076 C   0  0  0  0  0  0  0  0  0  0  0  0
   10.5726    2.7066   -2.6024 N   0  0  0  0  0  0  0  0  0  0  0  0
   11.6544    2.9968   -2.2624 C   0  0  0  0  0  0  0  0  0  0  0  0
   13.1303    3.3928   -1.8112 S   0  0  0  0  0  0  0  0  0  0  0  0
    3.0505   -1.1884    0.8294 C   0  0  0  0  0  0  0  0  0  0  0  0
    3.3025   -2.3756    0.1253 C   0  0  0  0  0  0  0  0  0  0  0  0
    3.6883   -3.5452    0.7882 C   0  0  0  0  0  0  0  0  0  0  0  0
    3.9718   -4.6456    0.0297 O   0  0  0  0  0  0  0  0  0  0  0  0
    3.8013   -3.5979    2.1823 C   0  0  0  0  0  0  0  0  0  0  0  0
    3.6583   -2.3887    2.8769 C   0  0  0  0  0  0  0  0  0  0  0  0
    3.2728   -1.2145    2.2128 C   0  0  0  0  0  0  0  0  0  0  0  0
    3.8505   -2.2341    4.2275 O   0  0  0  0  0  0  0  0  0  0  0  0
    4.3672   -3.3695    4.9539 C   0  0  0  0  0  0  0  0  0  0  0  0
    4.0183   -3.1026    6.4287 C   0  0  0  0  0  0  0  0  0  0  0  0
    5.9039   -3.3680    4.8376 C   0  0  0  0  0  0  0  0  0  0  0  0
    3.6722   -4.6534    4.4331 C   0  0  2  0  0  0  0  0  0  0  0  0
    3.8789   -5.9079    5.2955 C   0  0  0  0  0  0  0  0  0  0  0  0
    3.1842   -7.1317    4.6967 C   0  0  0  0  0  0  0  0  0  0  0  0
    3.6393   -7.3663    3.2567 C   0  0  1  0  0  0  0  0  0  0  0  0
    2.9678   -8.5845    2.6174 C   0  0  0  0  0  0  0  0  0  0  0  0
    3.2747   -9.7668    3.3417 O   0  0  0  0  0  0  0  0  0  0  0  0
    3.3627   -6.1250    2.4073 C   0  0  0  0  0  0  0  0  0  0  0  0
    4.0785   -4.8773    2.9547 C   0  0  1  0  0  0  0  0  0  0  0  0
    1.9512    2.1386    0.4465 H   0  0  0  0  0  0  0  0  0  0  0  0
    3.2020    1.5821    1.5601 H   0  0  0  0  0  0  0  0  0  0  0  0
    1.5376    1.0311    1.7572 H   0  0  0  0  0  0  0  0  0  0  0  0
    0.8600    0.6257   -1.1721 H   0  0  0  0  0  0  0  0  0  0  0  0
    0.4615   -0.5347    0.1048 H   0  0  0  0  0  0  0  0  0  0  0  0
    1.3179   -1.0659   -1.3462 H   0  0  0  0  0  0  0  0  0  0  0  0
    3.2102    1.3543   -1.5649 H   0  0  0  0  0  0  0  0  0  0  0  0
    3.6992   -0.3121   -1.7710 H   0  0  0  0  0  0  0  0  0  0  0  0
    5.4160   -0.0326    0.0494 H   0  0  0  0  0  0  0  0  0  0  0  0
    4.9318    1.6544    0.2268 H   0  0  0  0  0  0  0  0  0  0  0  0
    5.5491    2.0874   -2.1526 H   0  0  0  0  0  0  0  0  0  0  0  0
    6.0487    0.4016   -2.3278 H   0  0  0  0  0  0  0  0  0  0  0  0
    7.7167    0.7035   -0.4831 H   0  0  0  0  0  0  0  0  0  0  0  0
    7.2136    2.3842   -0.2986 H   0  0  0  0  0  0  0  0  0  0  0  0
    7.9195    2.8561   -2.6563 H   0  0  0  0  0  0  0  0  0  0  0  0
    8.4191    1.1778   -2.8452 H   0  0  0  0  0  0  0  0  0  0  0  0
   10.0603    1.4506   -0.9700 H   0  0  0  0  0  0  0  0  0  0  0  0
    9.5587    3.1478   -0.7902 H   0  0  0  0  0  0  0  0  0  0  0  0
    3.1958   -2.3900   -0.9556 H   0  0  0  0  0  0  0  0  0  0  0  0
    3.7331   -4.4703   -0.8950 H   0  0  0  0  0  0  0  0  0  0  0  0
    3.1482   -0.3232    2.8222 H   0  0  0  0  0  0  0  0  0  0  0  0
    4.3963   -2.1234    6.7475 H   0  0  0  0  0  0  0  0  0  0  0  0
    4.4491   -3.8562    7.0961 H   0  0  0  0  0  0  0  0  0  0  0  0
    2.9336   -3.0771    6.5788 H   0  0  0  0  0  0  0  0  0  0  0  0
    6.3241   -2.4696    5.3059 H   0  0  0  0  0  0  0  0  0  0  0  0
    6.2448   -3.3336    3.7981 H   0  0  0  0  0  0  0  0  0  0  0  0
    6.3504   -4.2412    5.3222 H   0  0  0  0  0  0  0  0  0  0  0  0
    2.5872   -4.4530    4.4433 H   0  0  0  0  0  0  0  0  0  0  0  0
    3.4634   -5.7490    6.2973 H   0  0  0  0  0  0  0  0  0  0  0  0
    4.9464   -6.1187    5.4186 H   0  0  0  0  0  0  0  0  0  0  0  0
    2.0964   -6.9857    4.7250 H   0  0  0  0  0  0  0  0  0  0  0  0
    3.4028   -8.0076    5.3176 H   0  0  0  0  0  0  0  0  0  0  0  0
    4.7226   -7.5493    3.2768 H   0  0  0  0  0  0  0  0  0  0  0  0
    3.3158   -8.7204    1.5868 H   0  0  0  0  0  0  0  0  0  0  0  0
    1.8794   -8.4695    2.5892 H   0  0  0  0  0  0  0  0  0  0  0  0
    4.2425   -9.8630    3.3402 H   0  0  0  0  0  0  0  0  0  0  0  0
    2.2823   -5.9384    2.3397 H   0  0  0  0  0  0  0  0  0  0  0  0
    3.7061   -6.3617    1.3983 H   0  0  0  0  0  0  0  0  0  0  0  0
    5.1575   -5.0688    2.8942 H   0  0  0  0  0  0  0  0  0  0  0  0
  1  2  1  0  0  0  0
  1 32  1  0  0  0  0
  1 33  1  0  0  0  0
  1 34  1  0  0  0  0
  2  3  1  0  0  0  0
  2  4  1  0  0  0  0
  2 13  1  0  0  0  0
  3 35  1  0  0  0  0
  3 36  1  0  0  0  0
  3 37  1  0  0  0  0
  4  5  1  0  0  0  0
  4 38  1  0  0  0  0
  4 39  1  0  0  0  0
  5  6  1  0  0  0  0
  5 40  1  0  0  0  0
  5 41  1  0  0  0  0
  6  7  1  0  0  0  0
  6 42  1  0  0  0  0
  6 43  1  0  0  0  0
  7  8  1  0  0  0  0
  7 44  1  0  0  0  0
  7 45  1  0  0  0  0
  8  9  1  0  0  0  0
  8 46  1  0  0  0  0
  8 47  1  0  0  0  0
  9 10  1  0  0  0  0
  9 48  1  0  0  0  0
  9 49  1  0  0  0  0
 10 11  2  0  0  0  0
 11 12  2  0  0  0  0
 13 19  2  0  0  0  0
 13 14  1  0  0  0  0
 14 15  2  0  0  0  0
 14 50  1  0  0  0  0
 15 16  1  0  0  0  0
 15 17  1  0  0  0  0
 16 51  1  0  0  0  0
 17 31  1  0  0  0  0
 17 18  2  0  0  0  0
 18 19  1  0  0  0  0
 18 20  1  0  0  0  0
 19 52  1  0  0  0  0
 20 21  1  0  0  0  0
 21 22  1  0  0  0  0
 21 23  1  0  0  0  0
 21 24  1  0  0  0  0
 22 53  1  0  0  0  0
 22 54  1  0  0  0  0
 22 55  1  0  0  0  0
 23 56  1  0  0  0  0
 23 57  1  0  0  0  0
 23 58  1  0  0  0  0
 24 25  1  0  0  0  0
 24 31  1  0  0  0  0
 24 59  1  1  0  0  0
 25 26  1  0  0  0  0
 25 60  1  0  0  0  0
 25 61  1  0  0  0  0
 26 27  1  0  0  0  0
 26 62  1  0  0  0  0
 26 63  1  0  0  0  0
 27 28  1  0  0  0  0
 27 30  1  0  0  0  0
 27 64  1  1  0  0  0
 28 29  1  0  0  0  0
 28 65  1  0  0  0  0
 28 66  1  0  0  0  0
 29 67  1  0  0  0  0
 30 68  1  0  0  0  0
 30 69  1  0  0  0  0
 31 30  1  0  0  0  0
 31 70  1  6  0  0  0
M  END
$$$$
CHEMBL4470925	6KPF	best_smi
 OpenBabel12022418093D

 65 67  0  0  1  0  0  0  0  0999 V2000
    8.4025   -0.2032    3.7344 C   0  0  0  0  0  0  0  0  0  0  0  0
    7.7358    1.0691    3.2294 C   0  0  0  0  0  0  0  0  0  0  0  0
    6.5179    0.7526    2.3584 C   0  0  0  0  0  0  0  0  0  0  0  0
    5.7564    2.0026    1.9287 C   0  0  0  0  0  0  0  0  0  0  0  0
    6.5657    2.8980    1.1507 O   0  0  0  0  0  0  0  0  0  0  0  0
    6.2429    3.0202   -0.1718 C   0  0  0  0  0  0  0  0  0  0  0  0
    5.5445    2.2224   -0.7847 O   0  0  0  0  0  0  0  0  0  0  0  0
    6.8377    4.3143   -0.7756 C   0  0  0  0  0  0  0  0  0  0  0  0
    6.2934    4.4960   -2.2076 C   0  0  0  0  0  0  0  0  0  0  0  0
    6.2864    5.4689    0.0936 C   0  0  0  0  0  0  0  0  0  0  0  0
    8.3718    4.2896   -0.8401 C   0  0  0  0  0  0  0  0  0  0  0  0
    9.0556    3.0825   -1.0319 C   0  0  0  0  0  0  0  0  0  0  0  0
   10.4520    3.0443   -1.0494 C   0  0  0  0  0  0  0  0  0  0  0  0
   11.0563    1.8350   -1.2540 O   0  0  0  0  0  0  0  0  0  0  0  0
   11.2277    4.1978   -0.8875 C   0  0  0  0  0  0  0  0  0  0  0  0
   10.5436    5.4210   -0.8569 C   0  0  0  0  0  0  0  0  0  0  0  0
    9.1445    5.4648   -0.8118 C   0  0  0  0  0  0  0  0  0  0  0  0
   11.1532    6.6542   -0.8656 O   0  0  0  0  0  0  0  0  0  0  0  0
   12.5851    6.6784   -1.0724 C   0  0  0  0  0  0  0  0  0  0  0  0
   13.0443    8.0632   -0.5827 C   0  0  0  0  0  0  0  0  0  0  0  0
   12.8756    6.6085   -2.5850 C   0  0  0  0  0  0  0  0  0  0  0  0
   13.2264    5.5432   -0.2350 C   0  0  2  0  0  0  0  0  0  0  0  0
   14.7559    5.6065   -0.0999 C   0  0  0  0  0  0  0  0  0  0  0  0
   15.3002    4.4451    0.7330 C   0  0  0  0  0  0  0  0  0  0  0  0
   14.8471    3.1015    0.1605 C   0  0  1  0  0  0  0  0  0  0  0  0
   15.3738    1.9136    0.9704 C   0  0  0  0  0  0  0  0  0  0  0  0
   16.7945    1.9013    0.9802 O   0  0  0  0  0  0  0  0  0  0  0  0
   13.3187    3.0459    0.0873 C   0  0  0  0  0  0  0  0  0  0  0  0
   12.7458    4.1765   -0.7858 C   0  0  1  0  0  0  0  0  0  0  0  0
    9.2772    0.0437    4.3444 H   0  0  0  0  0  0  0  0  0  0  0  0
    8.7340   -0.8313    2.9023 H   0  0  0  0  0  0  0  0  0  0  0  0
    7.7145   -0.7885    4.3534 H   0  0  0  0  0  0  0  0  0  0  0  0
    8.4641    1.6542    2.6569 H   0  0  0  0  0  0  0  0  0  0  0  0
    7.4319    1.6766    4.0900 H   0  0  0  0  0  0  0  0  0  0  0  0
    5.8306    0.1083    2.9216 H   0  0  0  0  0  0  0  0  0  0  0  0
    6.8427    0.1938    1.4740 H   0  0  0  0  0  0  0  0  0  0  0  0
    5.4423    2.5648    2.8148 H   0  0  0  0  0  0  0  0  0  0  0  0
    4.8392    1.7182    1.4005 H   0  0  0  0  0  0  0  0  0  0  0  0
    5.1967    4.4944   -2.2204 H   0  0  0  0  0  0  0  0  0  0  0  0
    6.6266    3.6887   -2.8706 H   0  0  0  0  0  0  0  0  0  0  0  0
    6.6282    5.4427   -2.6482 H   0  0  0  0  0  0  0  0  0  0  0  0
    5.1972    5.3918    0.1993 H   0  0  0  0  0  0  0  0  0  0  0  0
    6.4995    6.4534   -0.3340 H   0  0  0  0  0  0  0  0  0  0  0  0
    6.7119    5.4479    1.1045 H   0  0  0  0  0  0  0  0  0  0  0  0
    8.4971    2.1595   -1.1730 H   0  0  0  0  0  0  0  0  0  0  0  0
   10.4005    1.1280   -1.1359 H   0  0  0  0  0  0  0  0  0  0  0  0
    8.6713    6.4431   -0.7575 H   0  0  0  0  0  0  0  0  0  0  0  0
   12.4825    8.8600   -1.0859 H   0  0  0  0  0  0  0  0  0  0  0  0
   14.1080    8.2372   -0.7764 H   0  0  0  0  0  0  0  0  0  0  0  0
   12.8571    8.1845    0.4895 H   0  0  0  0  0  0  0  0  0  0  0  0
   12.4665    7.4878   -3.0971 H   0  0  0  0  0  0  0  0  0  0  0  0
   12.3980    5.7488   -3.0648 H   0  0  0  0  0  0  0  0  0  0  0  0
   13.9494    6.5687   -2.7915 H   0  0  0  0  0  0  0  0  0  0  0  0
   12.8241    5.6396    0.7879 H   0  0  0  0  0  0  0  0  0  0  0  0
   15.0549    6.5377    0.3949 H   0  0  0  0  0  0  0  0  0  0  0  0
   15.2307    5.5988   -1.0874 H   0  0  0  0  0  0  0  0  0  0  0  0
   14.9514    4.5444    1.7700 H   0  0  0  0  0  0  0  0  0  0  0  0
   16.3936    4.5041    0.7601 H   0  0  0  0  0  0  0  0  0  0  0  0
   15.2543    3.0218   -0.8571 H   0  0  0  0  0  0  0  0  0  0  0  0
   15.0320    0.9670    0.5364 H   0  0  0  0  0  0  0  0  0  0  0  0
   15.0234    1.9522    2.0068 H   0  0  0  0  0  0  0  0  0  0  0  0
   17.0896    1.8337    0.0560 H   0  0  0  0  0  0  0  0  0  0  0  0
   12.8833    3.0940    1.0945 H   0  0  0  0  0  0  0  0  0  0  0  0
   13.0614    2.0653   -0.3178 H   0  0  0  0  0  0  0  0  0  0  0  0
   13.1363    4.0364   -1.8034 H   0  0  0  0  0  0  0  0  0  0  0  0
  1  2  1  0  0  0  0
  1 30  1  0  0  0  0
  1 31  1  0  0  0  0
  1 32  1  0  0  0  0
  2  3  1  0  0  0  0
  2 33  1  0  0  0  0
  2 34  1  0  0  0  0
  3  4  1  0  0  0  0
  3 35  1  0  0  0  0
  3 36  1  0  0  0  0
  4  5  1  0  0  0  0
  4 37  1  0  0  0  0
  4 38  1  0  0  0  0
  5  6  1  0  0  0  0
  6  7  2  0  0  0  0
  6  8  1  0  0  0  0
  8  9  1  0  0  0  0
  8 10  1  0  0  0  0
  8 11  1  0  0  0  0
  9 39  1  0  0  0  0
  9 40  1  0  0  0  0
  9 41  1  0  0  0  0
 10 42  1  0  0  0  0
 10 43  1  0  0  0  0
 10 44  1  0  0  0  0
 11 17  2  0  0  0  0
 11 12  1  0  0  0  0
 12 13  2  0  0  0  0
 12 45  1  0  0  0  0
 13 14  1  0  0  0  0
 13 15  1  0  0  0  0
 14 46  1  0  0  0  0
 15 29  1  0  0  0  0
 15 16  2  0  0  0  0
 16 17  1  0  0  0  0
 16 18  1  0  0  0  0
 17 47  1  0  0  0  0
 18 19  1  0  0  0  0
 19 20  1  0  0  0  0
 19 21  1  0  0  0  0
 19 22  1  0  0  0  0
 20 48  1  0  0  0  0
 20 49  1  0  0  0  0
 20 50  1  0  0  0  0
 21 51  1  0  0  0  0
 21 52  1  0  0  0  0
 21 53  1  0  0  0  0
 22 23  1  0  0  0  0
 22 29  1  0  0  0  0
 22 54  1  1  0  0  0
 23 24  1  0  0  0  0
 23 55  1  0  0  0  0
 23 56  1  0  0  0  0
 24 25  1  0  0  0  0
 24 57  1  0  0  0  0
 24 58  1  0  0  0  0
 25 26  1  0  0  0  0
 25 28  1  0  0  0  0
 25 59  1  6  0  0  0
 26 27  1  0  0  0  0
 26 60  1  0  0  0  0
 26 61  1  0  0  0  0
 27 62  1  0  0  0  0
 28 63  1  0  0  0  0
 28 64  1  0  0  0  0
 29 28  1  0  0  0  0
 29 65  1  6  0  0  0
M  END
$$$$
CHEMBL5081770	6KPF	best_smi
 OpenBabel12022418093D

 70 72  0  0  1  0  0  0  0  0999 V2000
    2.0948    1.4700    0.2249 C   0  0  0  0  0  0  0  0  0  0  0  0
    2.4252   -0.0289    0.0463 C   0  0  0  0  0  0  0  0  0  0  0  0
    1.1192   -0.7212   -0.4216 C   0  0  0  0  0  0  0  0  0  0  0  0
    3.4825   -0.2088   -1.0878 C   0  0  0  0  0  0  0  0  0  0  0  0
    4.8372    0.4371   -0.7912 C   0  0  0  0  0  0  0  0  0  0  0  0
    5.8322    0.2372   -1.9326 C   0  0  0  0  0  0  0  0  0  0  0  0
    7.1558    0.9095   -1.5736 C   0  0  0  0  0  0  0  0  0  0  0  0
    8.1905    0.7508   -2.6774 C   0  0  0  0  0  0  0  0  0  0  0  0
    9.4970    1.4336   -2.2860 C   0  0  0  0  0  0  0  0  0  0  0  0
   10.4502    1.2546   -3.3819 N   0  0  0  0  0  0  0  0  0  0  0  0
   11.5770    1.7558   -3.2071 N   0  3  0  0  0  0  0  0  0  0  0  0
   12.6037    2.2092   -3.0418 N   0  5  0  0  0  0  0  0  0  0  0  0
    2.9002   -0.6673    1.3614 C   0  0  0  0  0  0  0  0  0  0  0  0
    3.2144   -2.0304    1.4077 C   0  0  0  0  0  0  0  0  0  0  0  0
    3.6099   -2.6354    2.5988 C   0  0  0  0  0  0  0  0  0  0  0  0
    3.9654   -3.9559    2.5585 O   0  0  0  0  0  0  0  0  0  0  0  0
    3.6697   -1.9268    3.8084 C   0  0  0  0  0  0  0  0  0  0  0  0
    3.4561   -0.5449    3.7483 C   0  0  0  0  0  0  0  0  0  0  0  0
    3.0660    0.0640    2.5497 C   0  0  0  0  0  0  0  0  0  0  0  0
    3.5785    0.3181    4.8116 O   0  0  0  0  0  0  0  0  0  0  0  0
    4.1061   -0.2286    6.0401 C   0  0  0  0  0  0  0  0  0  0  0  0
    3.7059    0.7586    7.1517 C   0  0  0  0  0  0  0  0  0  0  0  0
    5.6453   -0.2181    5.9562 C   0  0  0  0  0  0  0  0  0  0  0  0
    3.4688   -1.6228    6.2697 C   0  0  2  0  0  0  0  0  0  0  0  0
    3.6641   -2.2149    7.6736 C   0  0  0  0  0  0  0  0  0  0  0  0
    3.0526   -3.6119    7.7976 C   0  0  0  0  0  0  0  0  0  0  0  0
    3.5902   -4.5429    6.7123 C   0  0  1  0  0  0  0  0  0  0  0  0
    3.0018   -5.9528    6.7894 C   0  0  0  0  0  0  0  0  0  0  0  0
    3.3087   -6.5579    8.0360 O   0  0  0  0  0  0  0  0  0  0  0  0
    3.3069   -3.9572    5.3314 C   0  0  0  0  0  0  0  0  0  0  0  0
    3.9535   -2.5765    5.1497 C   0  0  1  0  0  0  0  0  0  0  0  0
    1.7029    1.9096   -0.6968 H   0  0  0  0  0  0  0  0  0  0  0  0
    2.9743    2.0520    0.5207 H   0  0  0  0  0  0  0  0  0  0  0  0
    1.3368    1.6152    1.0049 H   0  0  0  0  0  0  0  0  0  0  0  0
    0.7699   -0.2970   -1.3710 H   0  0  0  0  0  0  0  0  0  0  0  0
    0.3157   -0.5975    0.3133 H   0  0  0  0  0  0  0  0  0  0  0  0
    1.2516   -1.7968   -0.5850 H   0  0  0  0  0  0  0  0  0  0  0  0
    3.0867    0.2165   -2.0201 H   0  0  0  0  0  0  0  0  0  0  0  0
    3.6417   -1.2759   -1.2954 H   0  0  0  0  0  0  0  0  0  0  0  0
    5.2618    0.0152    0.1265 H   0  0  0  0  0  0  0  0  0  0  0  0
    4.7132    1.5124   -0.6292 H   0  0  0  0  0  0  0  0  0  0  0  0
    5.4319    0.6691   -2.8579 H   0  0  0  0  0  0  0  0  0  0  0  0
    5.9907   -0.8329   -2.1122 H   0  0  0  0  0  0  0  0  0  0  0  0
    7.5429    0.4782   -0.6426 H   0  0  0  0  0  0  0  0  0  0  0  0
    6.9830    1.9770   -1.3851 H   0  0  0  0  0  0  0  0  0  0  0  0
    7.8117    1.1867   -3.6150 H   0  0  0  0  0  0  0  0  0  0  0  0
    8.3720   -0.3112   -2.8746 H   0  0  0  0  0  0  0  0  0  0  0  0
    9.8916    0.9911   -1.3643 H   0  0  0  0  0  0  0  0  0  0  0  0
    9.3257    2.5024   -2.1080 H   0  0  0  0  0  0  0  0  0  0  0  0
    3.1530   -2.6290    0.5029 H   0  0  0  0  0  0  0  0  0  0  0  0
    3.7119   -4.3284    1.6979 H   0  0  0  0  0  0  0  0  0  0  0  0
    2.8920    1.1357    2.5860 H   0  0  0  0  0  0  0  0  0  0  0  0
    4.0547    1.7725    6.9207 H   0  0  0  0  0  0  0  0  0  0  0  0
    4.1340    0.4773    8.1200 H   0  0  0  0  0  0  0  0  0  0  0  0
    2.6173    0.8218    7.2538 H   0  0  0  0  0  0  0  0  0  0  0  0
    6.0202    0.8107    5.8898 H   0  0  0  0  0  0  0  0  0  0  0  0
    6.0195   -0.7148    5.0557 H   0  0  0  0  0  0  0  0  0  0  0  0
    6.1036   -0.6889    6.8310 H   0  0  0  0  0  0  0  0  0  0  0  0
    2.3795   -1.4988    6.1427 H   0  0  0  0  0  0  0  0  0  0  0  0
    3.1806   -1.5753    8.4213 H   0  0  0  0  0  0  0  0  0  0  0  0
    4.7287   -2.2586    7.9259 H   0  0  0  0  0  0  0  0  0  0  0  0
    1.9598   -3.5411    7.7199 H   0  0  0  0  0  0  0  0  0  0  0  0
    3.2755   -4.0129    8.7925 H   0  0  0  0  0  0  0  0  0  0  0  0
    4.6777   -4.6206    6.8494 H   0  0  0  0  0  0  0  0  0  0  0  0
    3.4156   -6.5857    5.9954 H   0  0  0  0  0  0  0  0  0  0  0  0
    1.9138   -5.9367    6.6685 H   0  0  0  0  0  0  0  0  0  0  0  0
    4.2774   -6.5670    8.1200 H   0  0  0  0  0  0  0  0  0  0  0  0
    2.2252   -3.8929    5.1518 H   0  0  0  0  0  0  0  0  0  0  0  0
    3.7056   -4.6736    4.6111 H   0  0  0  0  0  0  0  0  0  0  0  0
    5.0400   -2.7124    5.2267 H   0  0  0  0  0  0  0  0  0  0  0  0
  1  2  1  0  0  0  0
  1 32  1  0  0  0  0
  1 33  1  0  0  0  0
  1 34  1  0  0  0  0
  2  3  1  0  0  0  0
  2  4  1  0  0  0  0
  2 13  1  0  0  0  0
  3 35  1  0  0  0  0
  3 36  1  0  0  0  0
  3 37  1  0  0  0  0
  4  5  1  0  0  0  0
  4 38  1  0  0  0  0
  4 39  1  0  0  0  0
  5  6  1  0  0  0  0
  5 40  1  0  0  0  0
  5 41  1  0  0  0  0
  6  7  1  0  0  0  0
  6 42  1  0  0  0  0
  6 43  1  0  0  0  0
  7  8  1  0  0  0  0
  7 44  1  0  0  0  0
  7 45  1  0  0  0  0
  8  9  1  0  0  0  0
  8 46  1  0  0  0  0
  8 47  1  0  0  0  0
  9 10  1  0  0  0  0
  9 48  1  0  0  0  0
  9 49  1  0  0  0  0
 10 11  2  0  0  0  0
 11 12  2  0  0  0  0
 13 19  2  0  0  0  0
 13 14  1  0  0  0  0
 14 15  2  0  0  0  0
 14 50  1  0  0  0  0
 15 16  1  0  0  0  0
 15 17  1  0  0  0  0
 16 51  1  0  0  0  0
 17 31  1  0  0  0  0
 17 18  2  0  0  0  0
 18 19  1  0  0  0  0
 18 20  1  0  0  0  0
 19 52  1  0  0  0  0
 20 21  1  0  0  0  0
 21 22  1  0  0  0  0
 21 23  1  0  0  0  0
 21 24  1  0  0  0  0
 22 53  1  0  0  0  0
 22 54  1  0  0  0  0
 22 55  1  0  0  0  0
 23 56  1  0  0  0  0
 23 57  1  0  0  0  0
 23 58  1  0  0  0  0
 24 25  1  0  0  0  0
 24 31  1  0  0  0  0
 24 59  1  6  0  0  0
 25 26  1  0  0  0  0
 25 60  1  0  0  0  0
 25 61  1  0  0  0  0
 26 27  1  0  0  0  0
 26 62  1  0  0  0  0
 26 63  1  0  0  0  0
 27 28  1  0  0  0  0
 27 30  1  0  0  0  0
 27 64  1  1  0  0  0
 28 29  1  0  0  0  0
 28 65  1  0  0  0  0
 28 66  1  0  0  0  0
 29 67  1  0  0  0  0
 30 68  1  0  0  0  0
 30 69  1  0  0  0  0
 31 30  1  0  0  0  0
 31 70  1  1  0  0  0
M  CHG  2  11   1  12  -1
M  END
$$$$
CHEMBL5071417	6KPF	best_smi
 OpenBabel12022418093D

 73 76  0  0  1  0  0  0  0  0999 V2000
    1.0178    0.0687   -0.0698 C   0  0  0  0  0  0  0  0  0  0  0  0
    2.5512    0.1012    0.0890 C   0  0  0  0  0  0  0  0  0  0  0  0
    3.1503   -0.4598   -1.2143 C   0  0  0  0  0  0  0  0  0  0  0  0
    2.9714    1.4858    0.1694 O   0  0  0  0  0  0  0  0  0  0  0  0
    2.8626    2.1003    1.3976 C   0  0  0  0  0  0  0  0  0  0  0  0
    3.0812    3.4915    1.3967 C   0  0  0  0  0  0  0  0  0  0  0  0
    3.0162    4.2479    2.5794 C   0  0  0  0  0  0  0  0  0  0  0  0
    3.4080    5.7258    2.6449 C   0  0  0  0  0  0  0  0  0  0  0  0
    4.9074    5.8289    3.0262 C   0  0  0  0  0  0  0  0  0  0  0  0
    5.8671    5.2359    2.0119 C   0  0  0  0  0  0  0  0  0  0  0  0
    7.2850    5.3842    2.5270 C   0  0  0  0  0  0  0  0  0  0  0  0
    8.2270    4.7898    1.5095 C   0  0  0  0  0  0  0  0  0  0  0  0
    9.6497    4.9230    1.9927 C   0  0  0  0  0  0  0  0  0  0  0  0
   10.5509    4.3285    0.9433 C   0  0  0  0  0  0  0  0  0  0  0  0
   11.9912    4.4592    1.4110 C   0  0  0  0  0  0  0  0  0  0  0  0
   13.1861    4.5676    1.7990 N   0  0  0  0  0  0  0  0  0  0  0  0
    3.0377    6.5223    1.3785 C   0  0  0  0  0  0  0  0  0  0  0  0
    3.0846    7.9878    1.7965 C   0  0  0  0  0  0  0  0  0  0  0  0
    2.7664    8.0042    3.2892 C   0  0  0  0  0  0  0  0  0  0  0  0
    2.6256    6.5403    3.7081 C   0  0  0  0  0  0  0  0  0  0  0  0
    2.6678    3.5728    3.7521 C   0  0  0  0  0  0  0  0  0  0  0  0
    2.4283    2.1996    3.7479 C   0  0  0  0  0  0  0  0  0  0  0  0
    2.0321    1.6304    4.9252 O   0  0  0  0  0  0  0  0  0  0  0  0
    2.5822    1.4199    2.5931 C   0  0  0  0  0  0  0  0  0  0  0  0
    2.4274   -0.0932    2.5935 C   0  0  2  0  0  0  0  0  0  0  0  0
    2.9831   -0.8123    3.8370 C   0  0  0  0  0  0  0  0  0  0  0  0
    2.7946   -2.3270    3.7526 C   0  0  2  0  0  0  0  0  0  0  0  0
    3.2690   -2.9736    5.0564 C   0  0  0  0  0  0  0  0  0  0  0  0
    3.0568   -4.3767    5.0293 O   0  0  0  0  0  0  0  0  0  0  0  0
    3.5114   -2.8754    2.5207 C   0  0  0  0  0  0  0  0  0  0  0  0
    3.0035   -2.1972    1.2464 C   0  0  0  0  0  0  0  0  0  0  0  0
    3.1005   -0.6626    1.3226 C   0  0  1  0  0  0  0  0  0  0  0  0
    0.6296   -0.9539   -0.0774 H   0  0  0  0  0  0  0  0  0  0  0  0
    0.7198    0.5532   -1.0077 H   0  0  0  0  0  0  0  0  0  0  0  0
    0.5034    0.6301    0.7163 H   0  0  0  0  0  0  0  0  0  0  0  0
    2.8012   -1.4787   -1.4178 H   0  0  0  0  0  0  0  0  0  0  0  0
    4.2448   -0.4672   -1.1790 H   0  0  0  0  0  0  0  0  0  0  0  0
    2.8704    0.1597   -2.0752 H   0  0  0  0  0  0  0  0  0  0  0  0
    3.3495    3.9591    0.4508 H   0  0  0  0  0  0  0  0  0  0  0  0
    5.0710    5.3283    3.9915 H   0  0  0  0  0  0  0  0  0  0  0  0
    5.1978    6.8741    3.1880 H   0  0  0  0  0  0  0  0  0  0  0  0
    5.7739    5.7417    1.0451 H   0  0  0  0  0  0  0  0  0  0  0  0
    5.6668    4.1722    1.8508 H   0  0  0  0  0  0  0  0  0  0  0  0
    7.3964    4.8680    3.4890 H   0  0  0  0  0  0  0  0  0  0  0  0
    7.5246    6.4414    2.6937 H   0  0  0  0  0  0  0  0  0  0  0  0
    8.1103    5.3017    0.5460 H   0  0  0  0  0  0  0  0  0  0  0  0
    7.9861    3.7314    1.3456 H   0  0  0  0  0  0  0  0  0  0  0  0
    9.7807    4.4019    2.9499 H   0  0  0  0  0  0  0  0  0  0  0  0
    9.9017    5.9764    2.1645 H   0  0  0  0  0  0  0  0  0  0  0  0
   10.4456    4.8493   -0.0152 H   0  0  0  0  0  0  0  0  0  0  0  0
   10.3337    3.2724    0.7824 H   0  0  0  0  0  0  0  0  0  0  0  0
    2.0131    6.2765    1.0670 H   0  0  0  0  0  0  0  0  0  0  0  0
    3.6864    6.3296    0.5187 H   0  0  0  0  0  0  0  0  0  0  0  0
    2.3761    8.5905    1.2200 H   0  0  0  0  0  0  0  0  0  0  0  0
    4.0845    8.4022    1.6218 H   0  0  0  0  0  0  0  0  0  0  0  0
    1.8535    8.5635    3.5095 H   0  0  0  0  0  0  0  0  0  0  0  0
    3.5826    8.4879    3.8405 H   0  0  0  0  0  0  0  0  0  0  0  0
    3.0091    6.3922    4.7252 H   0  0  0  0  0  0  0  0  0  0  0  0
    1.5649    6.2628    3.7138 H   0  0  0  0  0  0  0  0  0  0  0  0
    2.6000    4.1195    4.6878 H   0  0  0  0  0  0  0  0  0  0  0  0
    2.1490    2.2689    5.6471 H   0  0  0  0  0  0  0  0  0  0  0  0
    1.3500   -0.3041    2.5594 H   0  0  0  0  0  0  0  0  0  0  0  0
    2.4624   -0.4968    4.7421 H   0  0  0  0  0  0  0  0  0  0  0  0
    4.0437   -0.5618    3.9758 H   0  0  0  0  0  0  0  0  0  0  0  0
    1.7237   -2.5470    3.6389 H   0  0  0  0  0  0  0  0  0  0  0  0
    2.7177   -2.5648    5.9121 H   0  0  0  0  0  0  0  0  0  0  0  0
    4.3338   -2.7876    5.2280 H   0  0  0  0  0  0  0  0  0  0  0  0
    2.1042   -4.5225    4.8993 H   0  0  0  0  0  0  0  0  0  0  0  0
    3.3583   -3.9573    2.4373 H   0  0  0  0  0  0  0  0  0  0  0  0
    4.5934   -2.7146    2.6166 H   0  0  0  0  0  0  0  0  0  0  0  0
    1.9696   -2.5067    1.0607 H   0  0  0  0  0  0  0  0  0  0  0  0
    3.6070   -2.5728    0.4118 H   0  0  0  0  0  0  0  0  0  0  0  0
    4.1761   -0.4277    1.3906 H   0  0  0  0  0  0  0  0  0  0  0  0
  1  2  1  0  0  0  0
  1 33  1  0  0  0  0
  1 34  1  0  0  0  0
  1 35  1  0  0  0  0
  2 32  1  0  0  0  0
  2  3  1  0  0  0  0
  2  4  1  0  0  0  0
  3 36  1  0  0  0  0
  3 37  1  0  0  0  0
  3 38  1  0  0  0  0
  4  5  1  0  0  0  0
  5 24  2  0  0  0  0
  5  6  1  0  0  0  0
  6  7  2  0  0  0  0
  6 39  1  0  0  0  0
  7  8  1  0  0  0  0
  7 21  1  0  0  0  0
  8 20  1  0  0  0  0
  8  9  1  0  0  0  0
  8 17  1  0  0  0  0
  9 10  1  0  0  0  0
  9 40  1  0  0  0  0
  9 41  1  0  0  0  0
 10 11  1  0  0  0  0
 10 42  1  0  0  0  0
 10 43  1  0  0  0  0
 11 12  1  0  0  0  0
 11 44  1  0  0  0  0
 11 45  1  0  0  0  0
 12 13  1  0  0  0  0
 12 46  1  0  0  0  0
 12 47  1  0  0  0  0
 13 14  1  0  0  0  0
 13 48  1  0  0  0  0
 13 49  1  0  0  0  0
 14 15  1  0  0  0  0
 14 50  1  0  0  0  0
 14 51  1  0  0  0  0
 15 16  3  0  0  0  0
 17 18  1  0  0  0  0
 17 52  1  0  0  0  0
 17 53  1  0  0  0  0
 18 19  1  0  0  0  0
 18 54  1  0  0  0  0
 18 55  1  0  0  0  0
 19 20  1  0  0  0  0
 19 56  1  0  0  0  0
 19 57  1  0  0  0  0
 20 58  1  0  0  0  0
 20 59  1  0  0  0  0
 21 22  2  0  0  0  0
 21 60  1  0  0  0  0
 22 23  1  0  0  0  0
 22 24  1  0  0  0  0
 23 61  1  0  0  0  0
 24 25  1  0  0  0  0
 25 26  1  0  0  0  0
 25 32  1  0  0  0  0
 25 62  1  6  0  0  0
 26 27  1  0  0  0  0
 26 63  1  0  0  0  0
 26 64  1  0  0  0  0
 27 28  1  0  0  0  0
 27 30  1  0  0  0  0
 27 65  1  6  0  0  0
 28 29  1  0  0  0  0
 28 66  1  0  0  0  0
 28 67  1  0  0  0  0
 29 68  1  0  0  0  0
 30 31  1  0  0  0  0
 30 69  1  0  0  0  0
 30 70  1  0  0  0  0
 31 71  1  0  0  0  0
 31 72  1  0  0  0  0
 32 31  1  0  0  0  0
 32 73  1  1  0  0  0
M  END
$$$$
CHEMBL85071	6KPF	best_smi
 OpenBabel12022418093D

 68 70  0  0  1  0  0  0  0  0999 V2000
    6.5623    3.3760   -3.9841 C   0  0  0  0  0  0  0  0  0  0  0  0
    6.1669    2.4892   -2.8133 C   0  0  0  0  0  0  0  0  0  0  0  0
    6.7143    3.0449   -1.5018 C   0  0  0  0  0  0  0  0  0  0  0  0
    6.3268    2.1787   -0.3022 C   0  0  0  0  0  0  0  0  0  0  0  0
    6.8898    2.7881    0.9826 C   0  0  0  0  0  0  0  0  0  0  0  0
    6.5065    1.9759    2.2267 C   0  0  0  0  0  0  0  0  0  0  0  0
    7.1042    2.5303    3.5591 C   0  0  0  0  0  0  0  0  0  0  0  0
    6.5251    3.9377    3.8311 C   0  0  0  0  0  0  0  0  0  0  0  0
    6.6185    1.6318    4.7261 C   0  0  0  0  0  0  0  0  0  0  0  0
    8.6413    2.4874    3.5221 C   0  0  0  0  0  0  0  0  0  0  0  0
    9.3013    1.2680    3.3178 C   0  0  0  0  0  0  0  0  0  0  0  0
   10.6968    1.1844    3.2936 C   0  0  0  0  0  0  0  0  0  0  0  0
   11.2597   -0.0309    3.0252 O   0  0  0  0  0  0  0  0  0  0  0  0
   11.5031    2.3083    3.5097 C   0  0  0  0  0  0  0  0  0  0  0  0
   10.8483    3.5439    3.6334 C   0  0  0  0  0  0  0  0  0  0  0  0
    9.4462    3.6267    3.6566 C   0  0  0  0  0  0  0  0  0  0  0  0
   11.4803    4.7560    3.7488 O   0  0  0  0  0  0  0  0  0  0  0  0
   12.9106    4.7730    3.5692 C   0  0  0  0  0  0  0  0  0  0  0  0
   13.3784    6.0832    4.2202 C   0  0  0  0  0  0  0  0  0  0  0  0
   13.2130    4.8735    2.0617 C   0  0  0  0  0  0  0  0  0  0  0  0
   13.5256    3.5403    4.2799 C   0  0  2  0  0  0  0  0  0  0  0  0
   15.0544    3.5682    4.4248 C   0  0  0  0  0  0  0  0  0  0  0  0
   15.5842    2.3097    5.1120 C   0  0  0  0  0  0  0  0  0  0  0  0
   15.1308    1.0547    4.3688 C   0  0  1  0  0  0  0  0  0  0  0  0
   15.6503   -0.2301    5.0203 C   0  0  0  0  0  0  0  0  0  0  0  0
   17.0711   -0.2471    5.0383 O   0  0  0  0  0  0  0  0  0  0  0  0
   13.6029    1.0121    4.2849 C   0  0  0  0  0  0  0  0  0  0  0  0
   13.0215    2.2527    3.5794 C   0  0  1  0  0  0  0  0  0  0  0  0
    6.1670    2.9708   -4.9205 H   0  0  0  0  0  0  0  0  0  0  0  0
    7.6515    3.4429   -4.0736 H   0  0  0  0  0  0  0  0  0  0  0  0
    6.1679    4.3896   -3.8574 H   0  0  0  0  0  0  0  0  0  0  0  0
    6.5504    1.4760   -2.9798 H   0  0  0  0  0  0  0  0  0  0  0  0
    5.0742    2.4215   -2.7638 H   0  0  0  0  0  0  0  0  0  0  0  0
    6.3357    4.0638   -1.3519 H   0  0  0  0  0  0  0  0  0  0  0  0
    7.8075    3.1153   -1.5625 H   0  0  0  0  0  0  0  0  0  0  0  0
    6.7161    1.1620   -0.4346 H   0  0  0  0  0  0  0  0  0  0  0  0
    5.2351    2.1054   -0.2318 H   0  0  0  0  0  0  0  0  0  0  0  0
    6.5129    3.8116    1.0759 H   0  0  0  0  0  0  0  0  0  0  0  0
    7.9801    2.8513    0.8935 H   0  0  0  0  0  0  0  0  0  0  0  0
    6.8152    0.9334    2.0750 H   0  0  0  0  0  0  0  0  0  0  0  0
    5.4114    1.9496    2.3064 H   0  0  0  0  0  0  0  0  0  0  0  0
    5.4292    3.9162    3.8386 H   0  0  0  0  0  0  0  0  0  0  0  0
    6.8291    4.6696    3.0762 H   0  0  0  0  0  0  0  0  0  0  0  0
    6.8482    4.3217    4.8059 H   0  0  0  0  0  0  0  0  0  0  0  0
    5.5280    1.6725    4.8289 H   0  0  0  0  0  0  0  0  0  0  0  0
    7.0553    1.9531    5.6798 H   0  0  0  0  0  0  0  0  0  0  0  0
    6.8874    0.5800    4.5813 H   0  0  0  0  0  0  0  0  0  0  0  0
    8.7170    0.3633    3.1715 H   0  0  0  0  0  0  0  0  0  0  0  0
   10.5607   -0.7024    2.9649 H   0  0  0  0  0  0  0  0  0  0  0  0
    9.0094    4.6139    3.7796 H   0  0  0  0  0  0  0  0  0  0  0  0
   12.8269    6.9414    3.8153 H   0  0  0  0  0  0  0  0  0  0  0  0
   14.4458    6.2708    4.0590 H   0  0  0  0  0  0  0  0  0  0  0  0
   13.1832    6.0783    5.2997 H   0  0  0  0  0  0  0  0  0  0  0  0
   12.8135    5.8090    1.6511 H   0  0  0  0  0  0  0  0  0  0  0  0
   12.7293    4.0792    1.4847 H   0  0  0  0  0  0  0  0  0  0  0  0
   14.2874    4.8474    1.8575 H   0  0  0  0  0  0  0  0  0  0  0  0
   13.1193    3.5275    5.3054 H   0  0  0  0  0  0  0  0  0  0  0  0
   15.3594    4.4296    5.0294 H   0  0  0  0  0  0  0  0  0  0  0  0
   15.5318    3.6762    3.4451 H   0  0  0  0  0  0  0  0  0  0  0  0
   15.2267    2.2806    6.1494 H   0  0  0  0  0  0  0  0  0  0  0  0
   16.6777    2.3597    5.1537 H   0  0  0  0  0  0  0  0  0  0  0  0
   15.5407    1.1053    3.3505 H   0  0  0  0  0  0  0  0  0  0  0  0
   15.3100   -1.1113    4.4649 H   0  0  0  0  0  0  0  0  0  0  0  0
   15.2928   -0.3261    6.0509 H   0  0  0  0  0  0  0  0  0  0  0  0
   17.3726   -0.1839    4.1160 H   0  0  0  0  0  0  0  0  0  0  0  0
   13.1653    0.9118    5.2872 H   0  0  0  0  0  0  0  0  0  0  0  0
   13.3529    0.1012    3.7366 H   0  0  0  0  0  0  0  0  0  0  0  0
   13.3904    2.2322    2.5450 H   0  0  0  0  0  0  0  0  0  0  0  0
  1  2  1  0  0  0  0
  1 29  1  0  0  0  0
  1 30  1  0  0  0  0
  1 31  1  0  0  0  0
  2  3  1  0  0  0  0
  2 32  1  0  0  0  0
  2 33  1  0  0  0  0
  3  4  1  0  0  0  0
  3 34  1  0  0  0  0
  3 35  1  0  0  0  0
  4  5  1  0  0  0  0
  4 36  1  0  0  0  0
  4 37  1  0  0  0  0
  5  6  1  0  0  0  0
  5 38  1  0  0  0  0
  5 39  1  0  0  0  0
  6  7  1  0  0  0  0
  6 40  1  0  0  0  0
  6 41  1  0  0  0  0
  7  8  1  0  0  0  0
  7  9  1  0  0  0  0
  7 10  1  0  0  0  0
  8 42  1  0  0  0  0
  8 43  1  0  0  0  0
  8 44  1  0  0  0  0
  9 45  1  0  0  0  0
  9 46  1  0  0  0  0
  9 47  1  0  0  0  0
 10 16  2  0  0  0  0
 10 11  1  0  0  0  0
 11 12  2  0  0  0  0
 11 48  1  0  0  0  0
 12 13  1  0  0  0  0
 12 14  1  0  0  0  0
 13 49  1  0  0  0  0
 14 28  1  0  0  0  0
 14 15  2  0  0  0  0
 15 16  1  0  0  0  0
 15 17  1  0  0  0  0
 16 50  1  0  0  0  0
 17 18  1  0  0  0  0
 18 19  1  0  0  0  0
 18 20  1  0  0  0  0
 18 21  1  0  0  0  0
 19 51  1  0  0  0  0
 19 52  1  0  0  0  0
 19 53  1  0  0  0  0
 20 54  1  0  0  0  0
 20 55  1  0  0  0  0
 20 56  1  0  0  0  0
 21 22  1  0  0  0  0
 21 28  1  0  0  0  0
 21 57  1  1  0  0  0
 22 23  1  0  0  0  0
 22 58  1  0  0  0  0
 22 59  1  0  0  0  0
 23 24  1  0  0  0  0
 23 60  1  0  0  0  0
 23 61  1  0  0  0  0
 24 25  1  0  0  0  0
 24 27  1  0  0  0  0
 24 62  1  6  0  0  0
 25 26  1  0  0  0  0
 25 63  1  0  0  0  0
 25 64  1  0  0  0  0
 26 65  1  0  0  0  0
 27 66  1  0  0  0  0
 27 67  1  0  0  0  0
 28 27  1  0  0  0  0
 28 68  1  6  0  0  0
M  END
$$$$
CHEMBL5080279	6KPF	best_smi
 OpenBabel12022418093D

 76 79  0  0  1  0  0  0  0  0999 V2000
    1.0535    0.0070   -0.1139 C   0  0  0  0  0  0  0  0  0  0  0  0
    2.5942    0.0093    0.0037 C   0  0  0  0  0  0  0  0  0  0  0  0
    3.1470   -0.5990   -1.2948 C   0  0  0  0  0  0  0  0  0  0  0  0
    3.0439    1.3897    0.0542 O   0  0  0  0  0  0  0  0  0  0  0  0
    2.9536    2.0104    1.2807 C   0  0  0  0  0  0  0  0  0  0  0  0
    3.2041    3.4015    1.2893 C   0  0  0  0  0  0  0  0  0  0  0  0
    3.1433    4.1322    2.4960 C   0  0  0  0  0  0  0  0  0  0  0  0
    3.5134    5.6237    2.6007 C   0  0  0  0  0  0  0  0  0  0  0  0
    5.0284    5.7257    2.9089 C   0  0  0  0  0  0  0  0  0  0  0  0
    6.0247    5.1794    1.9223 C   0  0  0  0  0  0  0  0  0  0  0  0
    7.4107    5.4094    2.5011 C   0  0  0  0  0  0  0  0  0  0  0  0
    8.3671    4.8588    1.4815 C   0  0  0  0  0  0  0  0  0  0  0  0
    9.7708    5.0418    1.9668 C   0  0  0  0  0  0  0  0  0  0  0  0
   10.6746    4.4776    0.9057 C   0  0  0  0  0  0  0  0  0  0  0  0
   12.0735    4.6571    1.3857 C   0  0  0  0  0  0  0  0  0  0  0  0
   13.0230    4.0998    0.3377 C   0  0  0  0  0  0  0  0  0  0  0  0
   13.8106    3.6375   -0.5318 N   0  0  0  0  0  0  0  0  0  0  0  0
    3.0773    6.4397    1.3761 C   0  0  0  0  0  0  0  0  0  0  0  0
    3.0980    7.9074    1.7866 C   0  0  0  0  0  0  0  0  0  0  0  0
    2.8321    7.9116    3.2905 C   0  0  0  0  0  0  0  0  0  0  0  0
    2.7678    6.4345    3.7208 C   0  0  0  0  0  0  0  0  0  0  0  0
    2.7952    3.4383    3.6603 C   0  0  0  0  0  0  0  0  0  0  0  0
    2.5038    2.0621    3.6359 C   0  0  0  0  0  0  0  0  0  0  0  0
    2.0667    1.5168    4.7951 O   0  0  0  0  0  0  0  0  0  0  0  0
    2.6484    1.3258    2.4706 C   0  0  0  0  0  0  0  0  0  0  0  0
    2.4711   -0.1821    2.4905 C   0  0  2  0  0  0  0  0  0  0  0  0
    3.0122   -0.8745    3.7530 C   0  0  0  0  0  0  0  0  0  0  0  0
    2.8216   -2.3833    3.6915 C   0  0  2  0  0  0  0  0  0  0  0  0
    3.2779   -2.9936    5.0198 C   0  0  0  0  0  0  0  0  0  0  0  0
    3.1152   -4.4007    5.0073 O   0  0  0  0  0  0  0  0  0  0  0  0
    3.5598   -2.9406    2.4805 C   0  0  0  0  0  0  0  0  0  0  0  0
    3.0749   -2.2832    1.1822 C   0  0  0  0  0  0  0  0  0  0  0  0
    3.1575   -0.7487    1.2385 C   0  0  1  0  0  0  0  0  0  0  0  0
    0.6460   -1.0060   -0.0936 H   0  0  0  0  0  0  0  0  0  0  0  0
    0.7413    0.4872   -1.0493 H   0  0  0  0  0  0  0  0  0  0  0  0
    0.5696    0.5927    0.6749 H   0  0  0  0  0  0  0  0  0  0  0  0
    2.7866   -1.6213   -1.4463 H   0  0  0  0  0  0  0  0  0  0  0  0
    4.2430   -0.6114   -1.2904 H   0  0  0  0  0  0  0  0  0  0  0  0
    2.8426   -0.0104   -2.1681 H   0  0  0  0  0  0  0  0  0  0  0  0
    3.4632    3.8864    0.3632 H   0  0  0  0  0  0  0  0  0  0  0  0
    5.2306    5.2372    3.8744 H   0  0  0  0  0  0  0  0  0  0  0  0
    5.2933    6.7873    3.0175 H   0  0  0  0  0  0  0  0  0  0  0  0
    5.9614    5.7093    0.9671 H   0  0  0  0  0  0  0  0  0  0  0  0
    5.8887    4.1112    1.7539 H   0  0  0  0  0  0  0  0  0  0  0  0
    7.5362    4.8994    3.4656 H   0  0  0  0  0  0  0  0  0  0  0  0
    7.6012    6.4755    2.6706 H   0  0  0  0  0  0  0  0  0  0  0  0
    8.2309    5.3749    0.5230 H   0  0  0  0  0  0  0  0  0  0  0  0
    8.1632    3.7947    1.3122 H   0  0  0  0  0  0  0  0  0  0  0  0
    9.9191    4.5206    2.9211 H   0  0  0  0  0  0  0  0  0  0  0  0
    9.9855    6.1046    2.1355 H   0  0  0  0  0  0  0  0  0  0  0  0
   10.5242    4.9949   -0.0509 H   0  0  0  0  0  0  0  0  0  0  0  0
   10.4583    3.4154    0.7328 H   0  0  0  0  0  0  0  0  0  0  0  0
   12.2493    4.1268    2.3289 H   0  0  0  0  0  0  0  0  0  0  0  0
   12.3151    5.7144    1.5446 H   0  0  0  0  0  0  0  0  0  0  0  0
    2.0411    6.1830    1.1015 H   0  0  0  0  0  0  0  0  0  0  0  0
    3.7002    6.2520    0.4925 H   0  0  0  0  0  0  0  0  0  0  0  0
    2.3555    8.4934    1.2420 H   0  0  0  0  0  0  0  0  0  0  0  0
    4.0773    8.3567    1.5644 H   0  0  0  0  0  0  0  0  0  0  0  0
    1.8911    8.4320    3.5258 H   0  0  0  0  0  0  0  0  0  0  0  0
    3.6233    8.4593    3.8151 H   0  0  0  0  0  0  0  0  0  0  0  0
    3.2047    6.2999    4.7147 H   0  0  0  0  0  0  0  0  0  0  0  0
    1.7162    6.1347    3.7913 H   0  0  0  0  0  0  0  0  0  0  0  0
    2.7433    3.9248    4.6213 H   0  0  0  0  0  0  0  0  0  0  0  0
    2.2654    2.1075    5.5404 H   0  0  0  0  0  0  0  0  0  0  0  0
    1.3946   -0.3885    2.4564 H   0  0  0  0  0  0  0  0  0  0  0  0
    2.4702   -0.5596    4.6449 H   0  0  0  0  0  0  0  0  0  0  0  0
    4.0657   -0.6137    3.9103 H   0  0  0  0  0  0  0  0  0  0  0  0
    1.7532   -2.6040    3.5672 H   0  0  0  0  0  0  0  0  0  0  0  0
    2.6831   -2.5894    5.8499 H   0  0  0  0  0  0  0  0  0  0  0  0
    4.3278   -2.7610    5.2236 H   0  0  0  0  0  0  0  0  0  0  0  0
    2.1776   -4.5784    4.8226 H   0  0  0  0  0  0  0  0  0  0  0  0
    3.4132   -4.0238    2.4093 H   0  0  0  0  0  0  0  0  0  0  0  0
    4.6394   -2.7717    2.5952 H   0  0  0  0  0  0  0  0  0  0  0  0
    2.0492   -2.6016    0.9769 H   0  0  0  0  0  0  0  0  0  0  0  0
    3.7048   -2.6603    0.3701 H   0  0  0  0  0  0  0  0  0  0  0  0
    4.2307   -0.5035    1.3061 H   0  0  0  0  0  0  0  0  0  0  0  0
  1  2  1  0  0  0  0
  1 34  1  0  0  0  0
  1 35  1  0  0  0  0
  1 36  1  0  0  0  0
  2 33  1  0  0  0  0
  2  3  1  0  0  0  0
  2  4  1  0  0  0  0
  3 37  1  0  0  0  0
  3 38  1  0  0  0  0
  3 39  1  0  0  0  0
  4  5  1  0  0  0  0
  5 25  2  0  0  0  0
  5  6  1  0  0  0  0
  6  7  2  0  0  0  0
  6 40  1  0  0  0  0
  7  8  1  0  0  0  0
  7 22  1  0  0  0  0
  8 21  1  0  0  0  0
  8  9  1  0  0  0  0
  8 18  1  0  0  0  0
  9 10  1  0  0  0  0
  9 41  1  0  0  0  0
  9 42  1  0  0  0  0
 10 11  1  0  0  0  0
 10 43  1  0  0  0  0
 10 44  1  0  0  0  0
 11 12  1  0  0  0  0
 11 45  1  0  0  0  0
 11 46  1  0  0  0  0
 12 13  1  0  0  0  0
 12 47  1  0  0  0  0
 12 48  1  0  0  0  0
 13 14  1  0  0  0  0
 13 49  1  0  0  0  0
 13 50  1  0  0  0  0
 14 15  1  0  0  0  0
 14 51  1  0  0  0  0
 14 52  1  0  0  0  0
 15 16  1  0  0  0  0
 15 53  1  0  0  0  0
 15 54  1  0  0  0  0
 16 17  3  0  0  0  0
 18 19  1  0  0  0  0
 18 55  1  0  0  0  0
 18 56  1  0  0  0  0
 19 20  1  0  0  0  0
 19 57  1  0  0  0  0
 19 58  1  0  0  0  0
 20 21  1  0  0  0  0
 20 59  1  0  0  0  0
 20 60  1  0  0  0  0
 21 61  1  0  0  0  0
 21 62  1  0  0  0  0
 22 23  2  0  0  0  0
 22 63  1  0  0  0  0
 23 24  1  0  0  0  0
 23 25  1  0  0  0  0
 24 64  1  0  0  0  0
 25 26  1  0  0  0  0
 26 27  1  0  0  0  0
 26 33  1  0  0  0  0
 26 65  1  6  0  0  0
 27 28  1  0  0  0  0
 27 66  1  0  0  0  0
 27 67  1  0  0  0  0
 28 29  1  0  0  0  0
 28 31  1  0  0  0  0
 28 68  1  6  0  0  0
 29 30  1  0  0  0  0
 29 69  1  0  0  0  0
 29 70  1  0  0  0  0
 30 71  1  0  0  0  0
 31 32  1  0  0  0  0
 31 72  1  0  0  0  0
 31 73  1  0  0  0  0
 32 74  1  0  0  0  0
 32 75  1  0  0  0  0
 33 32  1  0  0  0  0
 33 76  1  1  0  0  0
M  END
$$$$
