CHEMBL476325
 OpenBabel12022417453D

 65 68  0  0  1  0  0  0  0  0999 V2000
    4.0081   -1.7579    5.9011 C   0  0  0  0  0  0  0  0  0  0  0  0
    4.2767   -1.7707    4.4046 C   0  0  0  0  0  0  0  0  0  0  0  0
    3.1312   -2.4380    3.6523 C   0  0  0  0  0  0  0  0  0  0  0  0
    3.3974   -2.4912    2.1483 C   0  0  0  0  0  0  0  0  0  0  0  0
    2.2074   -3.1382    1.4440 C   0  0  0  0  0  0  0  0  0  0  0  0
    2.4190   -3.2439   -0.0724 C   0  0  0  0  0  0  0  0  0  0  0  0
    1.2339   -3.8785   -0.8628 C   0  0  0  0  0  0  0  0  0  0  0  0
   -0.0168   -2.9968   -0.6796 C   0  0  0  0  0  0  0  0  0  0  0  0
   -0.9100   -3.1253    0.4135 C   0  0  0  0  0  0  0  0  0  0  0  0
   -1.8819   -2.1474    0.7019 C   0  0  0  0  0  0  0  0  0  0  0  0
   -2.0342   -1.0214   -0.0982 C   0  0  0  0  0  0  0  0  0  0  0  0
   -1.0394   -0.8522   -1.1027 C   0  0  0  0  0  0  0  0  0  0  0  0
   -0.1310   -1.8391   -1.4470 C   0  0  0  0  0  0  0  0  0  0  0  0
   -0.7369    0.3588   -1.7179 O   0  0  0  0  0  0  0  0  0  0  0  0
   -1.3641    1.5080   -1.0595 C   0  0  0  0  0  0  0  0  0  0  0  0
   -1.0792    2.7377   -1.8896 C   0  0  0  0  0  0  0  0  0  0  0  0
   -0.5789    1.6979    0.2992 C   0  0  0  0  0  0  0  0  0  0  0  0
   -2.8542    1.0445   -1.0616 C   0  0  2  0  0  0  0  0  0  0  0  0
   -4.0181    1.9720   -1.4938 C   0  0  0  0  0  0  0  0  0  0  0  0
   -5.0118    2.2959   -0.4182 C   0  0  0  0  0  0  0  0  0  0  0  0
   -4.8187    1.6493    0.7477 C   0  0  0  0  0  0  0  0  0  0  0  0
   -4.1710    2.5685    1.7669 C   0  0  0  0  0  0  0  0  0  0  0  0
   -4.4123    0.1638    0.6781 C   0  0  0  0  0  0  0  0  0  0  0  0
   -2.9697    0.1513    0.1997 C   0  0  1  0  0  0  0  0  0  0  0  0
   -2.5387   -2.1975    1.9023 O   0  0  0  0  0  0  0  0  0  0  0  0
    1.8089   -3.9241   -2.6522 S   0  0  0  0  0  0  0  0  0  0  0  0
    2.1218   -5.6904   -2.7663 C   0  0  0  0  0  0  0  0  0  0  0  0
    1.0003   -6.3646   -2.0156 C   0  0  0  0  0  0  0  0  0  0  0  0
    0.9524   -5.6365   -0.3603 S   0  0  0  0  0  0  0  0  0  0  0  0
    4.7954   -1.2081    6.4234 H   0  0  0  0  0  0  0  0  0  0  0  0
    3.0492   -1.2789    6.1246 H   0  0  0  0  0  0  0  0  0  0  0  0
    3.9811   -2.7779    6.2991 H   0  0  0  0  0  0  0  0  0  0  0  0
    5.2157   -2.3005    4.2086 H   0  0  0  0  0  0  0  0  0  0  0  0
    4.4009   -0.7413    4.0496 H   0  0  0  0  0  0  0  0  0  0  0  0
    2.9854   -3.4585    4.0326 H   0  0  0  0  0  0  0  0  0  0  0  0
    2.2015   -1.8903    3.8432 H   0  0  0  0  0  0  0  0  0  0  0  0
    3.5536   -1.4777    1.7606 H   0  0  0  0  0  0  0  0  0  0  0  0
    4.3094   -3.0648    1.9482 H   0  0  0  0  0  0  0  0  0  0  0  0
    1.3271   -2.5270    1.6651 H   0  0  0  0  0  0  0  0  0  0  0  0
    2.0337   -4.1307    1.8716 H   0  0  0  0  0  0  0  0  0  0  0  0
    2.6043   -2.2270   -0.4475 H   0  0  0  0  0  0  0  0  0  0  0  0
    3.3436   -3.8078   -0.2549 H   0  0  0  0  0  0  0  0  0  0  0  0
   -0.7953   -3.9511    1.1127 H   0  0  0  0  0  0  0  0  0  0  0  0
    0.5609   -1.6070   -2.2494 H   0  0  0  0  0  0  0  0  0  0  0  0
    0.0034    2.8630   -2.0203 H   0  0  0  0  0  0  0  0  0  0  0  0
   -1.4616    3.6307   -1.3822 H   0  0  0  0  0  0  0  0  0  0  0  0
   -1.5079    2.6681   -2.8904 H   0  0  0  0  0  0  0  0  0  0  0  0
    0.1165    0.8732    0.5082 H   0  0  0  0  0  0  0  0  0  0  0  0
   -1.1914    1.8678    1.1802 H   0  0  0  0  0  0  0  0  0  0  0  0
    0.0637    2.5951    0.2540 H   0  0  0  0  0  0  0  0  0  0  0  0
   -2.9496    0.3457   -1.9174 H   0  0  0  0  0  0  0  0  0  0  0  0
   -3.6427    2.9069   -1.9039 H   0  0  0  0  0  0  0  0  0  0  0  0
   -4.5855    1.5003   -2.3166 H   0  0  0  0  0  0  0  0  0  0  0  0
   -5.3380    3.3373   -0.4400 H   0  0  0  0  0  0  0  0  0  0  0  0
   -3.3132    3.0706    1.2842 H   0  0  0  0  0  0  0  0  0  0  0  0
   -4.8442    3.3584    2.1073 H   0  0  0  0  0  0  0  0  0  0  0  0
   -3.7617    2.0227    2.6176 H   0  0  0  0  0  0  0  0  0  0  0  0
   -5.0600   -0.3804    0.0083 H   0  0  0  0  0  0  0  0  0  0  0  0
   -4.5193   -0.2935    1.6750 H   0  0  0  0  0  0  0  0  0  0  0  0
   -2.4869    0.5820    1.0712 H   0  0  0  0  0  0  0  0  0  0  0  0
   -1.8745   -2.4407    2.5668 H   0  0  0  0  0  0  0  0  0  0  0  0
    2.1348   -5.9934   -3.8177 H   0  0  0  0  0  0  0  0  0  0  0  0
    3.1049   -5.9191   -2.3387 H   0  0  0  0  0  0  0  0  0  0  0  0
    1.1719   -7.4413   -1.9431 H   0  0  0  0  0  0  0  0  0  0  0  0
    0.0343   -6.2105   -2.5083 H   0  0  0  0  0  0  0  0  0  0  0  0
  1  2  1  0  0  0  0
  1 30  1  0  0  0  0
  1 31  1  0  0  0  0
  1 32  1  0  0  0  0
  2  3  1  0  0  0  0
  2 33  1  0  0  0  0
  2 34  1  0  0  0  0
  3  4  1  0  0  0  0
  3 35  1  0  0  0  0
  3 36  1  0  0  0  0
  4  5  1  0  0  0  0
  4 37  1  0  0  0  0
  4 38  1  0  0  0  0
  5  6  1  0  0  0  0
  5 39  1  0  0  0  0
  5 40  1  0  0  0  0
  6  7  1  0  0  0  0
  6 41  1  0  0  0  0
  6 42  1  0  0  0  0
  7 29  1  0  0  0  0
  7  8  1  0  0  0  0
  7 26  1  0  0  0  0
  8 13  2  0  0  0  0
  8  9  1  0  0  0  0
  9 10  2  0  0  0  0
  9 43  1  0  0  0  0
 10 11  1  0  0  0  0
 10 25  1  0  0  0  0
 11 24  1  0  0  0  0
 11 12  2  0  0  0  0
 12 13  1  0  0  0  0
 12 14  1  0  0  0  0
 13 44  1  0  0  0  0
 14 15  1  0  0  0  0
 15 16  1  0  0  0  0
 15 17  1  0  0  0  0
 15 18  1  0  0  0  0
 16 45  1  0  0  0  0
 16 46  1  0  0  0  0
 16 47  1  0  0  0  0
 17 48  1  0  0  0  0
 17 49  1  0  0  0  0
 17 50  1  0  0  0  0
 18 19  1  0  0  0  0
 18 24  1  0  0  0  0
 18 51  1  6  0  0  0
 19 20  1  0  0  0  0
 19 52  1  0  0  0  0
 19 53  1  0  0  0  0
 20 21  2  0  0  0  0
 20 54  1  0  0  0  0
 21 22  1  0  0  0  0
 21 23  1  0  0  0  0
 22 55  1  0  0  0  0
 22 56  1  0  0  0  0
 22 57  1  0  0  0  0
 23 58  1  0  0  0  0
 23 59  1  0  0  0  0
 24 23  1  0  0  0  0
 24 60  1  1  0  0  0
 25 61  1  0  0  0  0
 26 27  1  0  0  0  0
 27 28  1  0  0  0  0
 27 62  1  0  0  0  0
 27 63  1  0  0  0  0
 28 29  1  0  0  0  0
 28 64  1  0  0  0  0
 28 65  1  0  0  0  0
M  END
$$$$
CHEMBL232410
 OpenBabel12022417453D

 56 57  0  0  0  0  0  0  0  0999 V2000
    6.8958    0.4396   -4.4235 C   0  0  0  0  0  0  0  0  0  0  0  0
    6.4371    0.2644   -2.9850 C   0  0  0  0  0  0  0  0  0  0  0  0
    6.9110    1.4276   -2.1223 C   0  0  0  0  0  0  0  0  0  0  0  0
    6.4520    1.2954   -0.6670 C   0  0  0  0  0  0  0  0  0  0  0  0
    6.9472    2.5058    0.1282 C   0  0  0  0  0  0  0  0  0  0  0  0
    6.5133    2.4752    1.6030 C   0  0  0  0  0  0  0  0  0  0  0  0
    7.0496    3.6814    2.4398 C   0  0  0  0  0  0  0  0  0  0  0  0
    6.4457    5.0031    1.9059 C   0  0  0  0  0  0  0  0  0  0  0  0
    6.5563    3.5465    3.9004 C   0  0  0  0  0  0  0  0  0  0  0  0
    8.5848    3.6679    2.4195 C   0  0  0  0  0  0  0  0  0  0  0  0
    9.3310    4.6391    1.7488 C   0  0  0  0  0  0  0  0  0  0  0  0
   10.7192    4.5168    1.6106 C   0  0  0  0  0  0  0  0  0  0  0  0
   11.4653    3.5124    2.2543 C   0  0  0  0  0  0  0  0  0  0  0  0
   12.9502    3.4801    2.1199 C   0  0  0  0  0  0  0  0  0  0  0  0
   13.6720    2.2608    1.8702 C   0  0  0  0  0  0  0  0  0  0  0  0
   13.0408    0.9033    1.6461 C   0  0  0  0  0  0  0  0  0  0  0  0
   15.0753    2.2493    1.8244 C   0  0  0  0  0  0  0  0  0  0  0  0
   15.8201    3.4144    1.9264 C   0  0  0  0  0  0  0  0  0  0  0  0
   15.1535    4.6281    2.0892 C   0  0  0  0  0  0  0  0  0  0  0  0
   13.7487    4.6758    2.2156 C   0  0  0  0  0  0  0  0  0  0  0  0
   13.2220    6.0792    2.3977 C   0  0  0  0  0  0  0  0  0  0  0  0
   10.7013    2.5936    3.0003 C   0  0  0  0  0  0  0  0  0  0  0  0
    9.3008    2.6258    3.0219 C   0  0  0  0  0  0  0  0  0  0  0  0
   11.2461    1.6038    3.7780 O   0  0  0  0  0  0  0  0  0  0  0  0
    6.5448   -0.3984   -5.0390 H   0  0  0  0  0  0  0  0  0  0  0  0
    7.9886    0.4740   -4.4862 H   0  0  0  0  0  0  0  0  0  0  0  0
    6.4989    1.3665   -4.8519 H   0  0  0  0  0  0  0  0  0  0  0  0
    6.8298   -0.6798   -2.5898 H   0  0  0  0  0  0  0  0  0  0  0  0
    5.3432    0.2016   -2.9585 H   0  0  0  0  0  0  0  0  0  0  0  0
    6.5263    2.3681   -2.5381 H   0  0  0  0  0  0  0  0  0  0  0  0
    8.0069    1.4877   -2.1581 H   0  0  0  0  0  0  0  0  0  0  0  0
    6.8534    0.3729   -0.2293 H   0  0  0  0  0  0  0  0  0  0  0  0
    5.3640    1.2380   -0.6214 H   0  0  0  0  0  0  0  0  0  0  0  0
    6.5655    3.4116   -0.3554 H   0  0  0  0  0  0  0  0  0  0  0  0
    8.0411    2.5385    0.0576 H   0  0  0  0  0  0  0  0  0  0  0  0
    6.8494    1.5302    2.0455 H   0  0  0  0  0  0  0  0  0  0  0  0
    5.4170    2.4609    1.6477 H   0  0  0  0  0  0  0  0  0  0  0  0
    5.3502    4.9982    1.9828 H   0  0  0  0  0  0  0  0  0  0  0  0
    6.6870    5.1823    0.8532 H   0  0  0  0  0  0  0  0  0  0  0  0
    6.8081    5.8676    2.4723 H   0  0  0  0  0  0  0  0  0  0  0  0
    5.4672    3.6560    3.9648 H   0  0  0  0  0  0  0  0  0  0  0  0
    7.0054    4.3173    4.5415 H   0  0  0  0  0  0  0  0  0  0  0  0
    6.8041    2.5723    4.3376 H   0  0  0  0  0  0  0  0  0  0  0  0
    8.8597    5.5041    1.2898 H   0  0  0  0  0  0  0  0  0  0  0  0
   11.2133    5.2587    0.9879 H   0  0  0  0  0  0  0  0  0  0  0  0
   11.9810    0.9449    1.3984 H   0  0  0  0  0  0  0  0  0  0  0  0
   13.1868    0.2796    2.5376 H   0  0  0  0  0  0  0  0  0  0  0  0
   13.5260    0.3976    0.8037 H   0  0  0  0  0  0  0  0  0  0  0  0
   15.6141    1.3085    1.6883 H   0  0  0  0  0  0  0  0  0  0  0  0
   16.9008    3.3902    1.8621 H   0  0  0  0  0  0  0  0  0  0  0  0
   15.7432    5.5345    2.1307 H   0  0  0  0  0  0  0  0  0  0  0  0
   12.2071    6.1331    2.7974 H   0  0  0  0  0  0  0  0  0  0  0  0
   13.2588    6.6112    1.4381 H   0  0  0  0  0  0  0  0  0  0  0  0
   13.8462    6.6251    3.1159 H   0  0  0  0  0  0  0  0  0  0  0  0
    8.7804    1.8147    3.5269 H   0  0  0  0  0  0  0  0  0  0  0  0
   12.1882    1.8099    3.8969 H   0  0  0  0  0  0  0  0  0  0  0  0
  1  2  1  0  0  0  0
  1 25  1  0  0  0  0
  1 26  1  0  0  0  0
  1 27  1  0  0  0  0
  2  3  1  0  0  0  0
  2 28  1  0  0  0  0
  2 29  1  0  0  0  0
  3  4  1  0  0  0  0
  3 30  1  0  0  0  0
  3 31  1  0  0  0  0
  4  5  1  0  0  0  0
  4 32  1  0  0  0  0
  4 33  1  0  0  0  0
  5  6  1  0  0  0  0
  5 34  1  0  0  0  0
  5 35  1  0  0  0  0
  6  7  1  0  0  0  0
  6 36  1  0  0  0  0
  6 37  1  0  0  0  0
  7  8  1  0  0  0  0
  7  9  1  0  0  0  0
  7 10  1  0  0  0  0
  8 38  1  0  0  0  0
  8 39  1  0  0  0  0
  8 40  1  0  0  0  0
  9 41  1  0  0  0  0
  9 42  1  0  0  0  0
  9 43  1  0  0  0  0
 10 23  2  0  0  0  0
 10 11  1  0  0  0  0
 11 12  2  0  0  0  0
 11 44  1  0  0  0  0
 12 13  1  0  0  0  0
 12 45  1  0  0  0  0
 13 14  1  0  0  0  0
 13 22  2  0  0  0  0
 14 20  2  0  0  0  0
 14 15  1  0  0  0  0
 15 16  1  0  0  0  0
 15 17  2  0  0  0  0
 16 46  1  0  0  0  0
 16 47  1  0  0  0  0
 16 48  1  0  0  0  0
 17 18  1  0  0  0  0
 17 49  1  0  0  0  0
 18 19  2  0  0  0  0
 18 50  1  0  0  0  0
 19 20  1  0  0  0  0
 19 51  1  0  0  0  0
 20 21  1  0  0  0  0
 21 52  1  0  0  0  0
 21 53  1  0  0  0  0
 21 54  1  0  0  0  0
 22 23  1  0  0  0  0
 22 24  1  0  0  0  0
 23 55  1  0  0  0  0
 24 56  1  0  0  0  0
M  END
$$$$
CHEMBL108392
 OpenBabel12022417453D

 68 71  0  0  1  0  0  0  0  0999 V2000
   14.1419    0.9955   -4.9159 C   0  0  0  0  0  0  0  0  0  0  0  0
   12.7833    1.3049   -5.5340 C   0  0  0  0  0  0  0  0  0  0  0  0
   11.7722    1.6345   -4.4393 C   0  0  0  0  0  0  0  0  0  0  0  0
   10.3542    1.9131   -4.9536 C   0  0  0  0  0  0  0  0  0  0  0  0
    9.4082    2.1113   -3.7506 C   0  0  0  0  0  0  0  0  0  0  0  0
    8.1035    2.8559   -4.1264 C   0  0  0  0  0  0  0  0  0  0  0  0
    7.1438    3.3972   -2.9863 C   0  0  0  0  0  0  0  0  0  0  0  0
    7.6607    4.7158   -2.2873 C   0  0  0  0  0  0  0  0  0  0  0  0
    6.8717    5.6283   -1.5403 C   0  0  0  0  0  0  0  0  0  0  0  0
    7.4380    6.7190   -0.7884 C   0  0  0  0  0  0  0  0  0  0  0  0
    8.8209    6.9409   -0.6956 C   0  0  0  0  0  0  0  0  0  0  0  0
    9.5768    5.9984   -1.4479 C   0  0  0  0  0  0  0  0  0  0  0  0
    9.0197    4.9966   -2.2518 C   0  0  0  0  0  0  0  0  0  0  0  0
   10.9463    5.7842   -1.3195 O   0  0  0  0  0  0  0  0  0  0  0  0
   11.5619    6.8002   -0.5148 C   0  0  0  0  0  0  0  0  0  0  0  0
   11.6523    7.9535   -1.5773 C   0  0  0  0  0  0  0  0  0  0  0  0
   13.0075    6.4088   -0.2341 C   0  0  0  0  0  0  0  0  0  0  0  0
   10.6412    6.7987    0.7911 C   0  0  1  0  0  0  0  0  0  0  0  0
   11.1287    7.0826    2.2050 C   0  0  0  0  0  0  0  0  0  0  0  0
   11.9161    8.3195    2.2067 C   0  0  0  0  0  0  0  0  0  0  0  0
   11.5578    9.3123    1.3570 C   0  0  0  0  0  0  0  0  0  0  0  0
   12.6550   10.3121    1.0891 C   0  0  0  0  0  0  0  0  0  0  0  0
   10.2023    9.2329    0.5367 C   0  0  0  0  0  0  0  0  0  0  0  0
    9.4990    7.7565    0.4637 C   0  0  1  0  0  0  0  0  0  0  0  0
    6.6068    7.4998   -0.0284 O   0  0  0  0  0  0  0  0  0  0  0  0
    5.4801    3.7596   -3.7879 S   0  0  0  0  0  0  0  0  0  0  0  0
    4.9638    2.1123   -4.3817 C   0  0  0  0  0  0  0  0  0  0  0  0
    4.8164    1.0729   -3.2852 C   0  0  0  0  0  0  0  0  0  0  0  0
    6.1111    0.7387   -2.5594 C   0  0  0  0  0  0  0  0  0  0  0  0
    6.8496    2.1312   -1.6414 S   0  0  0  0  0  0  0  0  0  0  0  0
   14.8737    0.7483   -5.6905 H   0  0  0  0  0  0  0  0  0  0  0  0
   14.0737    0.1442   -4.2294 H   0  0  0  0  0  0  0  0  0  0  0  0
   14.5210    1.8541   -4.3508 H   0  0  0  0  0  0  0  0  0  0  0  0
   12.4445    0.4404   -6.1148 H   0  0  0  0  0  0  0  0  0  0  0  0
   12.8844    2.1489   -6.2258 H   0  0  0  0  0  0  0  0  0  0  0  0
   12.1269    2.5180   -3.8920 H   0  0  0  0  0  0  0  0  0  0  0  0
   11.7371    0.8046   -3.7220 H   0  0  0  0  0  0  0  0  0  0  0  0
    9.9979    1.0780   -5.5684 H   0  0  0  0  0  0  0  0  0  0  0  0
   10.3734    2.8040   -5.5939 H   0  0  0  0  0  0  0  0  0  0  0  0
    9.9702    2.6111   -2.9664 H   0  0  0  0  0  0  0  0  0  0  0  0
    9.1757    1.1277   -3.3279 H   0  0  0  0  0  0  0  0  0  0  0  0
    7.5763    2.1377   -4.7614 H   0  0  0  0  0  0  0  0  0  0  0  0
    8.3467    3.6973   -4.7894 H   0  0  0  0  0  0  0  0  0  0  0  0
    5.7961    5.4667   -1.4886 H   0  0  0  0  0  0  0  0  0  0  0  0
    9.7493    4.3968   -2.7653 H   0  0  0  0  0  0  0  0  0  0  0  0
   12.0980    7.5642   -2.5047 H   0  0  0  0  0  0  0  0  0  0  0  0
   12.2623    8.8036   -1.2715 H   0  0  0  0  0  0  0  0  0  0  0  0
   10.6823    8.3213   -1.9283 H   0  0  0  0  0  0  0  0  0  0  0  0
   13.4925    6.0575   -1.1525 H   0  0  0  0  0  0  0  0  0  0  0  0
   13.0775    5.5972    0.4976 H   0  0  0  0  0  0  0  0  0  0  0  0
   13.5804    7.2710    0.1259 H   0  0  0  0  0  0  0  0  0  0  0  0
   10.2274    5.7769    0.9209 H   0  0  0  0  0  0  0  0  0  0  0  0
   11.7033    6.2489    2.5961 H   0  0  0  0  0  0  0  0  0  0  0  0
   10.2887    7.2100    2.8906 H   0  0  0  0  0  0  0  0  0  0  0  0
   12.8383    8.3180    2.7663 H   0  0  0  0  0  0  0  0  0  0  0  0
   12.6270   11.1378    1.8018 H   0  0  0  0  0  0  0  0  0  0  0  0
   12.6426   10.6937    0.0631 H   0  0  0  0  0  0  0  0  0  0  0  0
   13.6470    9.8351    1.2023 H   0  0  0  0  0  0  0  0  0  0  0  0
   10.3281    9.6869   -0.4514 H   0  0  0  0  0  0  0  0  0  0  0  0
    9.5149    9.9127    1.0572 H   0  0  0  0  0  0  0  0  0  0  0  0
    8.7682    7.7638    1.2851 H   0  0  0  0  0  0  0  0  0  0  0  0
    5.7083    7.1270   -0.0721 H   0  0  0  0  0  0  0  0  0  0  0  0
    5.6331    1.7571   -5.1705 H   0  0  0  0  0  0  0  0  0  0  0  0
    3.9914    2.2461   -4.8682 H   0  0  0  0  0  0  0  0  0  0  0  0
    4.4369    0.1479   -3.7464 H   0  0  0  0  0  0  0  0  0  0  0  0
    4.0464    1.3819   -2.5716 H   0  0  0  0  0  0  0  0  0  0  0  0
    6.8436    0.3043   -3.2463 H   0  0  0  0  0  0  0  0  0  0  0  0
    5.8877   -0.0417   -1.8212 H   0  0  0  0  0  0  0  0  0  0  0  0
  1  2  1  0  0  0  0
  1 31  1  0  0  0  0
  1 32  1  0  0  0  0
  1 33  1  0  0  0  0
  2  3  1  0  0  0  0
  2 34  1  0  0  0  0
  2 35  1  0  0  0  0
  3  4  1  0  0  0  0
  3 36  1  0  0  0  0
  3 37  1  0  0  0  0
  4  5  1  0  0  0  0
  4 38  1  0  0  0  0
  4 39  1  0  0  0  0
  5  6  1  0  0  0  0
  5 40  1  0  0  0  0
  5 41  1  0  0  0  0
  6  7  1  0  0  0  0
  6 42  1  0  0  0  0
  6 43  1  0  0  0  0
  7 30  1  0  0  0  0
  7  8  1  0  0  0  0
  7 26  1  0  0  0  0
  8 13  2  0  0  0  0
  8  9  1  0  0  0  0
  9 10  2  0  0  0  0
  9 44  1  0  0  0  0
 10 11  1  0  0  0  0
 10 25  1  0  0  0  0
 11 24  1  0  0  0  0
 11 12  2  0  0  0  0
 12 13  1  0  0  0  0
 12 14  1  0  0  0  0
 13 45  1  0  0  0  0
 14 15  1  0  0  0  0
 15 16  1  0  0  0  0
 15 17  1  0  0  0  0
 15 18  1  0  0  0  0
 16 46  1  0  0  0  0
 16 47  1  0  0  0  0
 16 48  1  0  0  0  0
 17 49  1  0  0  0  0
 17 50  1  0  0  0  0
 17 51  1  0  0  0  0
 18 19  1  0  0  0  0
 18 24  1  0  0  0  0
 18 52  1  1  0  0  0
 19 20  1  0  0  0  0
 19 53  1  0  0  0  0
 19 54  1  0  0  0  0
 20 21  2  0  0  0  0
 20 55  1  0  0  0  0
 21 22  1  0  0  0  0
 21 23  1  0  0  0  0
 22 56  1  0  0  0  0
 22 57  1  0  0  0  0
 22 58  1  0  0  0  0
 23 59  1  0  0  0  0
 23 60  1  0  0  0  0
 24 23  1  0  0  0  0
 24 61  1  1  0  0  0
 25 62  1  0  0  0  0
 26 27  1  0  0  0  0
 27 28  1  0  0  0  0
 27 63  1  0  0  0  0
 27 64  1  0  0  0  0
 28 29  1  0  0  0  0
 28 65  1  0  0  0  0
 28 66  1  0  0  0  0
 29 30  1  0  0  0  0
 29 67  1  0  0  0  0
 29 68  1  0  0  0  0
M  END
$$$$
CHEMBL3809355
 OpenBabel12022417453D

 57 58  0  0  0  0  0  0  0  0999 V2000
    7.0038    2.7582   -1.6459 C   0  0  0  0  0  0  0  0  0  0  0  0
    6.5299    1.3151   -1.7242 C   0  0  0  0  0  0  0  0  0  0  0  0
    7.0012    0.5259   -0.5081 C   0  0  0  0  0  0  0  0  0  0  0  0
    6.5393   -0.9321   -0.5478 C   0  0  0  0  0  0  0  0  0  0  0  0
    7.0310   -1.6503    0.7072 C   0  0  0  0  0  0  0  0  0  0  0  0
    6.5989   -3.1219    0.7636 C   0  0  0  0  0  0  0  0  0  0  0  0
    7.1344   -3.8826    2.0191 C   0  0  0  0  0  0  0  0  0  0  0  0
    6.4996   -3.2750    3.2956 C   0  0  0  0  0  0  0  0  0  0  0  0
    6.6529   -5.3515    1.9602 C   0  0  0  0  0  0  0  0  0  0  0  0
    8.6729   -3.8596    2.0356 C   0  0  0  0  0  0  0  0  0  0  0  0
    9.4065   -4.4156    0.9761 C   0  0  0  0  0  0  0  0  0  0  0  0
   10.8066   -4.3693    0.9712 C   0  0  0  0  0  0  0  0  0  0  0  0
   11.5444   -3.7729    2.0132 C   0  0  0  0  0  0  0  0  0  0  0  0
   10.8023   -3.2205    3.0620 C   0  0  0  0  0  0  0  0  0  0  0  0
    9.4017   -3.2596    3.0686 C   0  0  0  0  0  0  0  0  0  0  0  0
   11.3374   -2.5993    4.1579 O   0  0  0  0  0  0  0  0  0  0  0  0
   13.0692   -3.7543    1.9842 C   0  0  0  0  0  0  0  0  0  0  0  0
   13.6405   -5.1794    2.1193 C   0  0  0  0  0  0  0  0  0  0  0  0
   15.1589   -5.2134    1.9890 C   0  0  0  0  0  0  0  0  0  0  0  0
   15.6222   -4.5138    0.7168 C   0  0  0  0  0  0  0  0  0  0  0  0
   15.1503   -3.0648    0.6875 C   0  0  0  0  0  0  0  0  0  0  0  0
   13.6304   -2.9741    0.7776 C   0  0  0  0  0  0  0  0  0  0  0  0
   11.4677   -4.9299   -0.0895 O   0  0  0  0  0  0  0  0  0  0  0  0
    6.6622    3.3202   -2.5198 H   0  0  0  0  0  0  0  0  0  0  0  0
    8.0971    2.8095   -1.6125 H   0  0  0  0  0  0  0  0  0  0  0  0
    6.6122    3.2501   -0.7493 H   0  0  0  0  0  0  0  0  0  0  0  0
    6.9150    0.8550   -2.6411 H   0  0  0  0  0  0  0  0  0  0  0  0
    5.4357    1.2952   -1.7812 H   0  0  0  0  0  0  0  0  0  0  0  0
    6.6218    1.0028    0.4045 H   0  0  0  0  0  0  0  0  0  0  0  0
    8.0967    0.5591   -0.4530 H   0  0  0  0  0  0  0  0  0  0  0  0
    6.9355   -1.4264   -1.4429 H   0  0  0  0  0  0  0  0  0  0  0  0
    5.4452   -0.9785   -0.6012 H   0  0  0  0  0  0  0  0  0  0  0  0
    6.6459   -1.1172    1.5821 H   0  0  0  0  0  0  0  0  0  0  0  0
    8.1236   -1.5773    0.7399 H   0  0  0  0  0  0  0  0  0  0  0  0
    6.9342   -3.6221   -0.1558 H   0  0  0  0  0  0  0  0  0  0  0  0
    5.5031   -3.1729    0.7482 H   0  0  0  0  0  0  0  0  0  0  0  0
    5.4073   -3.3538    3.2708 H   0  0  0  0  0  0  0  0  0  0  0  0
    6.7450   -2.2154    3.4226 H   0  0  0  0  0  0  0  0  0  0  0  0
    6.8425   -3.7960    4.1978 H   0  0  0  0  0  0  0  0  0  0  0  0
    5.5621   -5.4131    2.0542 H   0  0  0  0  0  0  0  0  0  0  0  0
    7.0891   -5.9422    2.7754 H   0  0  0  0  0  0  0  0  0  0  0  0
    6.9219   -5.8406    1.0182 H   0  0  0  0  0  0  0  0  0  0  0  0
    8.8848   -4.8804    0.1443 H   0  0  0  0  0  0  0  0  0  0  0  0
    8.9040   -2.7961    3.9154 H   0  0  0  0  0  0  0  0  0  0  0  0
   12.2947   -2.7298    4.1886 H   0  0  0  0  0  0  0  0  0  0  0  0
   13.4482   -3.2105    2.8548 H   0  0  0  0  0  0  0  0  0  0  0  0
   13.2171   -5.8527    1.3663 H   0  0  0  0  0  0  0  0  0  0  0  0
   13.3529   -5.5981    3.0932 H   0  0  0  0  0  0  0  0  0  0  0  0
   15.5006   -6.2546    1.9846 H   0  0  0  0  0  0  0  0  0  0  0  0
   15.6142   -4.7309    2.8623 H   0  0  0  0  0  0  0  0  0  0  0  0
   15.2313   -5.0467   -0.1593 H   0  0  0  0  0  0  0  0  0  0  0  0
   16.7147   -4.5481    0.6541 H   0  0  0  0  0  0  0  0  0  0  0  0
   15.4892   -2.5845   -0.2373 H   0  0  0  0  0  0  0  0  0  0  0  0
   15.6025   -2.5122    1.5198 H   0  0  0  0  0  0  0  0  0  0  0  0
   13.3343   -1.9192    0.8567 H   0  0  0  0  0  0  0  0  0  0  0  0
   13.2144   -3.3312   -0.1684 H   0  0  0  0  0  0  0  0  0  0  0  0
   10.8225   -5.2276   -0.7508 H   0  0  0  0  0  0  0  0  0  0  0  0
  1  2  1  0  0  0  0
  1 24  1  0  0  0  0
  1 25  1  0  0  0  0
  1 26  1  0  0  0  0
  2  3  1  0  0  0  0
  2 27  1  0  0  0  0
  2 28  1  0  0  0  0
  3  4  1  0  0  0  0
  3 29  1  0  0  0  0
  3 30  1  0  0  0  0
  4  5  1  0  0  0  0
  4 31  1  0  0  0  0
  4 32  1  0  0  0  0
  5  6  1  0  0  0  0
  5 33  1  0  0  0  0
  5 34  1  0  0  0  0
  6  7  1  0  0  0  0
  6 35  1  0  0  0  0
  6 36  1  0  0  0  0
  7  8  1  0  0  0  0
  7  9  1  0  0  0  0
  7 10  1  0  0  0  0
  8 37  1  0  0  0  0
  8 38  1  0  0  0  0
  8 39  1  0  0  0  0
  9 40  1  0  0  0  0
  9 41  1  0  0  0  0
  9 42  1  0  0  0  0
 10 15  2  0  0  0  0
 10 11  1  0  0  0  0
 11 12  2  0  0  0  0
 11 43  1  0  0  0  0
 12 13  1  0  0  0  0
 12 23  1  0  0  0  0
 13 14  2  0  0  0  0
 13 17  1  0  0  0  0
 14 15  1  0  0  0  0
 14 16  1  0  0  0  0
 15 44  1  0  0  0  0
 16 45  1  0  0  0  0
 17 22  1  0  0  0  0
 17 18  1  0  0  0  0
 17 46  1  0  0  0  0
 18 19  1  0  0  0  0
 18 47  1  0  0  0  0
 18 48  1  0  0  0  0
 19 20  1  0  0  0  0
 19 49  1  0  0  0  0
 19 50  1  0  0  0  0
 20 21  1  0  0  0  0
 20 51  1  0  0  0  0
 20 52  1  0  0  0  0
 21 22  1  0  0  0  0
 21 53  1  0  0  0  0
 21 54  1  0  0  0  0
 22 55  1  0  0  0  0
 22 56  1  0  0  0  0
 23 57  1  0  0  0  0
M  END
$$$$
CHEMBL234897
 OpenBabel12022417453D

 52 53  0  0  0  0  0  0  0  0999 V2000
    6.9863    2.4218    3.5238 C   0  0  0  0  0  0  0  0  0  0  0  0
    6.4921    1.6331    2.3234 C   0  0  0  0  0  0  0  0  0  0  0  0
    6.9652    0.1843    2.3946 C   0  0  0  0  0  0  0  0  0  0  0  0
    6.4798   -0.6385    1.1991 C   0  0  0  0  0  0  0  0  0  0  0  0
    6.9653   -2.0799    1.3450 C   0  0  0  0  0  0  0  0  0  0  0  0
    6.5067   -2.9830    0.1914 C   0  0  0  0  0  0  0  0  0  0  0  0
    7.0277   -4.4507    0.3031 C   0  0  0  0  0  0  0  0  0  0  0  0
    6.4132   -5.1174    1.5628 C   0  0  0  0  0  0  0  0  0  0  0  0
    6.5160   -5.2653   -0.9070 C   0  0  0  0  0  0  0  0  0  0  0  0
    8.5641   -4.4631    0.2999 C   0  0  0  0  0  0  0  0  0  0  0  0
    9.2918   -3.9136   -0.7679 C   0  0  0  0  0  0  0  0  0  0  0  0
   10.6938   -3.8516   -0.7358 C   0  0  0  0  0  0  0  0  0  0  0  0
   11.4448   -4.3769    0.3380 C   0  0  0  0  0  0  0  0  0  0  0  0
   12.9357   -4.3082    0.3163 C   0  0  0  0  0  0  0  0  0  0  0  0
   13.6096   -4.5326   -0.9083 C   0  0  0  0  0  0  0  0  0  0  0  0
   14.9990   -4.4991   -1.0120 C   0  0  0  0  0  0  0  0  0  0  0  0
   15.7672   -4.2652    0.1212 C   0  0  0  0  0  0  0  0  0  0  0  0
   15.1396   -4.0479    1.3422 C   0  0  0  0  0  0  0  0  0  0  0  0
   13.7401   -4.0683    1.4664 C   0  0  0  0  0  0  0  0  0  0  0  0
   13.2097   -3.6683    2.7023 N   0  0  0  0  0  0  0  0  0  0  0  0
   10.6983   -4.9715    1.3659 C   0  0  0  0  0  0  0  0  0  0  0  0
    9.3018   -4.9827    1.3678 C   0  0  0  0  0  0  0  0  0  0  0  0
   11.2633   -5.5898    2.4528 O   0  0  0  0  0  0  0  0  0  0  0  0
    6.6434    3.4620    3.4630 H   0  0  0  0  0  0  0  0  0  0  0  0
    8.0801    2.4257    3.5670 H   0  0  0  0  0  0  0  0  0  0  0  0
    6.6086    1.9928    4.4573 H   0  0  0  0  0  0  0  0  0  0  0  0
    6.8604    2.0997    1.4026 H   0  0  0  0  0  0  0  0  0  0  0  0
    5.3970    1.6651    2.2920 H   0  0  0  0  0  0  0  0  0  0  0  0
    6.6009   -0.2720    3.3236 H   0  0  0  0  0  0  0  0  0  0  0  0
    8.0612    0.1586    2.4351 H   0  0  0  0  0  0  0  0  0  0  0  0
    6.8608   -0.2057    0.2670 H   0  0  0  0  0  0  0  0  0  0  0  0
    5.3845   -0.6178    1.1503 H   0  0  0  0  0  0  0  0  0  0  0  0
    6.5963   -2.4704    2.2963 H   0  0  0  0  0  0  0  0  0  0  0  0
    8.0592   -2.0701    1.4038 H   0  0  0  0  0  0  0  0  0  0  0  0
    6.8257   -2.5361   -0.7556 H   0  0  0  0  0  0  0  0  0  0  0  0
    5.4093   -2.9895    0.1668 H   0  0  0  0  0  0  0  0  0  0  0  0
    5.3185   -5.1211    1.5151 H   0  0  0  0  0  0  0  0  0  0  0  0
    6.6956   -4.6045    2.4866 H   0  0  0  0  0  0  0  0  0  0  0  0
    6.7378   -6.1596    1.6598 H   0  0  0  0  0  0  0  0  0  0  0  0
    5.4239   -5.3638   -0.8840 H   0  0  0  0  0  0  0  0  0  0  0  0
    6.9399   -6.2765   -0.9086 H   0  0  0  0  0  0  0  0  0  0  0  0
    6.7780   -4.7967   -1.8626 H   0  0  0  0  0  0  0  0  0  0  0  0
    8.7800   -3.4983   -1.6330 H   0  0  0  0  0  0  0  0  0  0  0  0
   11.1933   -3.3706   -1.5735 H   0  0  0  0  0  0  0  0  0  0  0  0
   13.0441   -4.7312   -1.8167 H   0  0  0  0  0  0  0  0  0  0  0  0
   15.4780   -4.6494   -1.9743 H   0  0  0  0  0  0  0  0  0  0  0  0
   16.8493   -4.2348    0.0498 H   0  0  0  0  0  0  0  0  0  0  0  0
   15.7562   -3.8328    2.2157 H   0  0  0  0  0  0  0  0  0  0  0  0
   12.2112   -3.8054    2.8427 H   0  0  0  0  0  0  0  0  0  0  0  0
   13.7613   -3.9219    3.5154 H   0  0  0  0  0  0  0  0  0  0  0  0
    8.8150   -5.4140    2.2382 H   0  0  0  0  0  0  0  0  0  0  0  0
   12.1973   -5.7649    2.2401 H   0  0  0  0  0  0  0  0  0  0  0  0
  1  2  1  0  0  0  0
  1 24  1  0  0  0  0
  1 25  1  0  0  0  0
  1 26  1  0  0  0  0
  2  3  1  0  0  0  0
  2 27  1  0  0  0  0
  2 28  1  0  0  0  0
  3  4  1  0  0  0  0
  3 29  1  0  0  0  0
  3 30  1  0  0  0  0
  4  5  1  0  0  0  0
  4 31  1  0  0  0  0
  4 32  1  0  0  0  0
  5  6  1  0  0  0  0
  5 33  1  0  0  0  0
  5 34  1  0  0  0  0
  6  7  1  0  0  0  0
  6 35  1  0  0  0  0
  6 36  1  0  0  0  0
  7  8  1  0  0  0  0
  7  9  1  0  0  0  0
  7 10  1  0  0  0  0
  8 37  1  0  0  0  0
  8 38  1  0  0  0  0
  8 39  1  0  0  0  0
  9 40  1  0  0  0  0
  9 41  1  0  0  0  0
  9 42  1  0  0  0  0
 10 22  2  0  0  0  0
 10 11  1  0  0  0  0
 11 12  2  0  0  0  0
 11 43  1  0  0  0  0
 12 13  1  0  0  0  0
 12 44  1  0  0  0  0
 13 14  1  0  0  0  0
 13 21  2  0  0  0  0
 14 19  2  0  0  0  0
 14 15  1  0  0  0  0
 15 16  2  0  0  0  0
 15 45  1  0  0  0  0
 16 17  1  0  0  0  0
 16 46  1  0  0  0  0
 17 18  2  0  0  0  0
 17 47  1  0  0  0  0
 18 19  1  0  0  0  0
 18 48  1  0  0  0  0
 19 20  1  0  0  0  0
 20 49  1  0  0  0  0
 20 50  1  0  0  0  0
 21 22  1  0  0  0  0
 21 23  1  0  0  0  0
 22 51  1  0  0  0  0
 23 52  1  0  0  0  0
M  END
$$$$
CHEMBL5176902
 OpenBabel12022417453D

 57 58  0  0  0  0  0  0  0  0999 V2000
    1.0182   -0.1092    0.1944 C   0  0  0  0  0  0  0  0  0  0  0  0
    2.8930   -0.0607    0.0497 Si  0  0  0  0  0  0  0  0  0  0  0  0
    3.6783   -0.1397    1.7500 C   0  0  0  0  0  0  0  0  0  0  0  0
    3.4367   -1.5616   -0.9765 C   0  0  0  0  0  0  0  0  0  0  0  0
    3.0871   -2.8557   -0.5784 C   0  0  0  0  0  0  0  0  0  0  0  0
    3.4476   -3.9516   -1.3642 C   0  0  0  0  0  0  0  0  0  0  0  0
    4.1471   -3.8143   -2.5813 C   0  0  0  0  0  0  0  0  0  0  0  0
    4.5041   -2.5146   -2.9548 C   0  0  0  0  0  0  0  0  0  0  0  0
    4.1724   -1.4194   -2.1581 C   0  0  0  0  0  0  0  0  0  0  0  0
    5.1865   -2.1813   -4.0896 O   0  0  0  0  0  0  0  0  0  0  0  0
    4.4924   -5.0331   -3.4206 C   0  0  0  0  0  0  0  0  0  0  0  0
    5.5430   -5.9109   -2.7127 C   0  0  0  0  0  0  0  0  0  0  0  0
    5.8247   -7.1988   -3.4802 C   0  0  0  0  0  0  0  0  0  0  0  0
    4.5364   -7.9518   -3.7971 C   0  0  0  0  0  0  0  0  0  0  0  0
    3.5767   -7.0894   -4.6044 C   0  0  0  0  0  0  0  0  0  0  0  0
    3.2326   -5.8020   -3.8634 C   0  0  0  0  0  0  0  0  0  0  0  0
    3.1093   -5.2024   -0.9207 O   0  0  0  0  0  0  0  0  0  0  0  0
    3.4261    1.5627   -0.8080 C   0  0  0  0  0  0  0  0  0  0  0  0
    2.8468    1.7633   -2.2056 C   0  0  0  0  0  0  0  0  0  0  0  0
    3.3452    3.0528   -2.8413 C   0  0  0  0  0  0  0  0  0  0  0  0
    2.7830    3.1750   -4.2563 C   0  0  0  0  0  0  0  0  0  0  0  0
    3.2391    4.4659   -4.9255 C   0  0  0  0  0  0  0  0  0  0  0  0
    2.6614    4.5803   -6.3251 C   0  0  0  0  0  0  0  0  0  0  0  0
    0.6929   -1.0266    0.6946 H   0  0  0  0  0  0  0  0  0  0  0  0
    0.5565   -0.0827   -0.7974 H   0  0  0  0  0  0  0  0  0  0  0  0
    0.6482    0.7447    0.7689 H   0  0  0  0  0  0  0  0  0  0  0  0
    3.3961   -1.0593    2.2711 H   0  0  0  0  0  0  0  0  0  0  0  0
    3.3580    0.7097    2.3605 H   0  0  0  0  0  0  0  0  0  0  0  0
    4.7693   -0.1105    1.6724 H   0  0  0  0  0  0  0  0  0  0  0  0
    2.5338   -3.0107    0.3446 H   0  0  0  0  0  0  0  0  0  0  0  0
    4.5065   -0.4472   -2.5103 H   0  0  0  0  0  0  0  0  0  0  0  0
    5.4700   -2.9688   -4.5685 H   0  0  0  0  0  0  0  0  0  0  0  0
    4.9636   -4.7185   -4.3585 H   0  0  0  0  0  0  0  0  0  0  0  0
    5.2263   -6.1765   -1.6981 H   0  0  0  0  0  0  0  0  0  0  0  0
    6.4763   -5.3482   -2.5970 H   0  0  0  0  0  0  0  0  0  0  0  0
    6.4922   -7.8356   -2.8884 H   0  0  0  0  0  0  0  0  0  0  0  0
    6.3509   -6.9603   -4.4118 H   0  0  0  0  0  0  0  0  0  0  0  0
    4.0565   -8.2648   -2.8606 H   0  0  0  0  0  0  0  0  0  0  0  0
    4.7741   -8.8611   -4.3567 H   0  0  0  0  0  0  0  0  0  0  0  0
    2.6546   -7.6479   -4.8032 H   0  0  0  0  0  0  0  0  0  0  0  0
    4.0207   -6.8444   -5.5746 H   0  0  0  0  0  0  0  0  0  0  0  0
    2.6211   -5.1596   -4.5098 H   0  0  0  0  0  0  0  0  0  0  0  0
    2.5920   -6.0668   -3.0176 H   0  0  0  0  0  0  0  0  0  0  0  0
    2.5795   -5.1205   -0.1067 H   0  0  0  0  0  0  0  0  0  0  0  0
    4.5225    1.5700   -0.8432 H   0  0  0  0  0  0  0  0  0  0  0  0
    3.1213    2.3908   -0.1592 H   0  0  0  0  0  0  0  0  0  0  0  0
    1.7499    1.7691   -2.1635 H   0  0  0  0  0  0  0  0  0  0  0  0
    3.1082    0.9424   -2.8731 H   0  0  0  0  0  0  0  0  0  0  0  0
    4.4425    3.0529   -2.8804 H   0  0  0  0  0  0  0  0  0  0  0  0
    3.0381    3.9101   -2.2343 H   0  0  0  0  0  0  0  0  0  0  0  0
    1.6869    3.1456   -4.2163 H   0  0  0  0  0  0  0  0  0  0  0  0
    3.1078    2.3167   -4.8587 H   0  0  0  0  0  0  0  0  0  0  0  0
    4.3331    4.4909   -4.9784 H   0  0  0  0  0  0  0  0  0  0  0  0
    2.9199    5.3263   -4.3274 H   0  0  0  0  0  0  0  0  0  0  0  0
    2.9843    3.7422   -6.9513 H   0  0  0  0  0  0  0  0  0  0  0  0
    2.9955    5.5095   -6.7991 H   0  0  0  0  0  0  0  0  0  0  0  0
    1.5672    4.5856   -6.2973 H   0  0  0  0  0  0  0  0  0  0  0  0
  1  2  1  0  0  0  0
  1 24  1  0  0  0  0
  1 25  1  0  0  0  0
  1 26  1  0  0  0  0
  2  3  1  0  0  0  0
  2  4  1  0  0  0  0
  2 18  1  0  0  0  0
  3 27  1  0  0  0  0
  3 28  1  0  0  0  0
  3 29  1  0  0  0  0
  4  9  2  0  0  0  0
  4  5  1  0  0  0  0
  5  6  2  0  0  0  0
  5 30  1  0  0  0  0
  6  7  1  0  0  0  0
  6 17  1  0  0  0  0
  7  8  2  0  0  0  0
  7 11  1  0  0  0  0
  8  9  1  0  0  0  0
  8 10  1  0  0  0  0
  9 31  1  0  0  0  0
 10 32  1  0  0  0  0
 11 16  1  0  0  0  0
 11 12  1  0  0  0  0
 11 33  1  0  0  0  0
 12 13  1  0  0  0  0
 12 34  1  0  0  0  0
 12 35  1  0  0  0  0
 13 14  1  0  0  0  0
 13 36  1  0  0  0  0
 13 37  1  0  0  0  0
 14 15  1  0  0  0  0
 14 38  1  0  0  0  0
 14 39  1  0  0  0  0
 15 16  1  0  0  0  0
 15 40  1  0  0  0  0
 15 41  1  0  0  0  0
 16 42  1  0  0  0  0
 16 43  1  0  0  0  0
 17 44  1  0  0  0  0
 18 19  1  0  0  0  0
 18 45  1  0  0  0  0
 18 46  1  0  0  0  0
 19 20  1  0  0  0  0
 19 47  1  0  0  0  0
 19 48  1  0  0  0  0
 20 21  1  0  0  0  0
 20 49  1  0  0  0  0
 20 50  1  0  0  0  0
 21 22  1  0  0  0  0
 21 51  1  0  0  0  0
 21 52  1  0  0  0  0
 22 23  1  0  0  0  0
 22 53  1  0  0  0  0
 22 54  1  0  0  0  0
 23 55  1  0  0  0  0
 23 56  1  0  0  0  0
 23 57  1  0  0  0  0
M  END
$$$$
CHEMBL391134
 OpenBabel12022417453D

 56 57  0  0  0  0  0  0  0  0999 V2000
    6.8716    2.1110    3.8156 C   0  0  0  0  0  0  0  0  0  0  0  0
    6.3879    1.4157    2.5517 C   0  0  0  0  0  0  0  0  0  0  0  0
    6.8840   -0.0264    2.5030 C   0  0  0  0  0  0  0  0  0  0  0  0
    6.4058   -0.7667    1.2519 C   0  0  0  0  0  0  0  0  0  0  0  0
    6.9190   -2.2063    1.2750 C   0  0  0  0  0  0  0  0  0  0  0  0
    6.4684   -3.0262    0.0567 C   0  0  0  0  0  0  0  0  0  0  0  0
    7.0085   -4.4949    0.0409 C   0  0  0  0  0  0  0  0  0  0  0  0
    6.4218   -5.2733    1.2451 C   0  0  0  0  0  0  0  0  0  0  0  0
    6.4788   -5.2081   -1.2283 C   0  0  0  0  0  0  0  0  0  0  0  0
    8.5422   -4.4873    0.0065 C   0  0  0  0  0  0  0  0  0  0  0  0
    9.2345   -3.9807   -1.0960 C   0  0  0  0  0  0  0  0  0  0  0  0
   10.6332   -3.9165   -1.1256 C   0  0  0  0  0  0  0  0  0  0  0  0
   11.4173   -4.2461   -0.0050 C   0  0  0  0  0  0  0  0  0  0  0  0
   12.8993   -4.0270   -0.0183 C   0  0  0  0  0  0  0  0  0  0  0  0
   13.7280   -5.0273    0.5404 C   0  0  0  0  0  0  0  0  0  0  0  0
   15.1079   -4.8728    0.6536 C   0  0  0  0  0  0  0  0  0  0  0  0
   15.7232   -3.7465    0.1291 C   0  0  0  0  0  0  0  0  0  0  0  0
   14.9598   -2.7593   -0.5064 C   0  0  0  0  0  0  0  0  0  0  0  0
   15.6900   -1.6130   -1.1634 C   0  0  0  0  0  0  0  0  0  0  0  0
   13.5393   -2.8657   -0.5429 C   0  0  0  0  0  0  0  0  0  0  0  0
   12.7866   -1.7240   -1.1938 C   0  0  0  0  0  0  0  0  0  0  0  0
   10.7093   -4.7868    1.0883 C   0  0  0  0  0  0  0  0  0  0  0  0
    9.3212   -4.9350    1.0828 C   0  0  0  0  0  0  0  0  0  0  0  0
   11.3007   -5.1703    2.2647 O   0  0  0  0  0  0  0  0  0  0  0  0
    6.5148    3.1439    3.8429 H   0  0  0  0  0  0  0  0  0  0  0  0
    7.9656    2.1262    3.8602 H   0  0  0  0  0  0  0  0  0  0  0  0
    6.5013    1.5983    4.7094 H   0  0  0  0  0  0  0  0  0  0  0  0
    6.7484    1.9654    1.6740 H   0  0  0  0  0  0  0  0  0  0  0  0
    5.2925    1.4370    2.5242 H   0  0  0  0  0  0  0  0  0  0  0  0
    6.5335   -0.5600    3.3951 H   0  0  0  0  0  0  0  0  0  0  0  0
    7.9802   -0.0357    2.5343 H   0  0  0  0  0  0  0  0  0  0  0  0
    6.7722   -0.2535    0.3508 H   0  0  0  0  0  0  0  0  0  0  0  0
    5.3107   -0.7602    1.2114 H   0  0  0  0  0  0  0  0  0  0  0  0
    6.5612   -2.6798    2.1948 H   0  0  0  0  0  0  0  0  0  0  0  0
    8.0134   -2.1820    1.3276 H   0  0  0  0  0  0  0  0  0  0  0  0
    6.7839   -2.5008   -0.8544 H   0  0  0  0  0  0  0  0  0  0  0  0
    5.3703   -3.0440    0.0293 H   0  0  0  0  0  0  0  0  0  0  0  0
    5.3267   -5.2985    1.2052 H   0  0  0  0  0  0  0  0  0  0  0  0
    6.6966   -4.8292    2.2070 H   0  0  0  0  0  0  0  0  0  0  0  0
    6.7740   -6.3114    1.2560 H   0  0  0  0  0  0  0  0  0  0  0  0
    5.3902   -5.3316   -1.1906 H   0  0  0  0  0  0  0  0  0  0  0  0
    6.9243   -6.2047   -1.3334 H   0  0  0  0  0  0  0  0  0  0  0  0
    6.7022   -4.6493   -2.1436 H   0  0  0  0  0  0  0  0  0  0  0  0
    8.6936   -3.6041   -1.9668 H   0  0  0  0  0  0  0  0  0  0  0  0
   11.1019   -3.5602   -2.0394 H   0  0  0  0  0  0  0  0  0  0  0  0
   13.2969   -5.9568    0.9094 H   0  0  0  0  0  0  0  0  0  0  0  0
   15.7050   -5.6428    1.1364 H   0  0  0  0  0  0  0  0  0  0  0  0
   16.8032   -3.6536    0.1956 H   0  0  0  0  0  0  0  0  0  0  0  0
   16.7747   -1.7046   -1.0467 H   0  0  0  0  0  0  0  0  0  0  0  0
   15.3966   -0.6555   -0.7242 H   0  0  0  0  0  0  0  0  0  0  0  0
   15.4794   -1.6067   -2.2393 H   0  0  0  0  0  0  0  0  0  0  0  0
   11.7338   -1.6746   -0.9165 H   0  0  0  0  0  0  0  0  0  0  0  0
   12.8684   -1.8053   -2.2858 H   0  0  0  0  0  0  0  0  0  0  0  0
   13.1921   -0.7554   -0.8847 H   0  0  0  0  0  0  0  0  0  0  0  0
    8.8625   -5.3688    1.9702 H   0  0  0  0  0  0  0  0  0  0  0  0
   12.1386   -4.6893    2.3524 H   0  0  0  0  0  0  0  0  0  0  0  0
  1  2  1  0  0  0  0
  1 25  1  0  0  0  0
  1 26  1  0  0  0  0
  1 27  1  0  0  0  0
  2  3  1  0  0  0  0
  2 28  1  0  0  0  0
  2 29  1  0  0  0  0
  3  4  1  0  0  0  0
  3 30  1  0  0  0  0
  3 31  1  0  0  0  0
  4  5  1  0  0  0  0
  4 32  1  0  0  0  0
  4 33  1  0  0  0  0
  5  6  1  0  0  0  0
  5 34  1  0  0  0  0
  5 35  1  0  0  0  0
  6  7  1  0  0  0  0
  6 36  1  0  0  0  0
  6 37  1  0  0  0  0
  7  8  1  0  0  0  0
  7  9  1  0  0  0  0
  7 10  1  0  0  0  0
  8 38  1  0  0  0  0
  8 39  1  0  0  0  0
  8 40  1  0  0  0  0
  9 41  1  0  0  0  0
  9 42  1  0  0  0  0
  9 43  1  0  0  0  0
 10 23  2  0  0  0  0
 10 11  1  0  0  0  0
 11 12  2  0  0  0  0
 11 44  1  0  0  0  0
 12 13  1  0  0  0  0
 12 45  1  0  0  0  0
 13 14  1  0  0  0  0
 13 22  2  0  0  0  0
 14 20  2  0  0  0  0
 14 15  1  0  0  0  0
 15 16  2  0  0  0  0
 15 46  1  0  0  0  0
 16 17  1  0  0  0  0
 16 47  1  0  0  0  0
 17 18  2  0  0  0  0
 17 48  1  0  0  0  0
 18 19  1  0  0  0  0
 18 20  1  0  0  0  0
 19 49  1  0  0  0  0
 19 50  1  0  0  0  0
 19 51  1  0  0  0  0
 20 21  1  0  0  0  0
 21 52  1  0  0  0  0
 21 53  1  0  0  0  0
 21 54  1  0  0  0  0
 22 23  1  0  0  0  0
 22 24  1  0  0  0  0
 23 55  1  0  0  0  0
 24 56  1  0  0  0  0
M  END
$$$$
CHEMBL303479
 OpenBabel12022417453D

 66 69  0  0  1  0  0  0  0  0999 V2000
    1.1909    0.9849    0.1364 C   0  0  0  0  0  0  0  0  0  0  0  0
   -0.0758    1.5744    0.2651 C   0  0  0  0  0  0  0  0  0  0  0  0
   -1.2593    0.8169    0.2154 C   0  0  0  0  0  0  0  0  0  0  0  0
   -1.1868   -0.5819    0.1257 C   0  0  0  0  0  0  0  0  0  0  0  0
    0.0904   -1.1544    0.1738 C   0  0  0  0  0  0  0  0  0  0  0  0
    1.2581   -0.4007    0.1266 C   0  0  0  0  0  0  0  0  0  0  0  0
    2.4093   -1.1356    0.0736 O   0  0  0  0  0  0  0  0  0  0  0  0
    3.6169   -0.4856    0.5087 C   0  0  0  0  0  0  0  0  0  0  0  0
    3.7246    0.9142   -0.1230 C   0  0  1  0  0  0  0  0  0  0  0  0
    2.4655    1.7835    0.0965 C   0  0  1  0  0  0  0  0  0  0  0  0
    2.5029    2.8733   -1.0020 C   0  0  0  0  0  0  0  0  0  0  0  0
    3.8256    3.6117   -0.9948 C   0  0  0  0  0  0  0  0  0  0  0  0
    4.9066    3.1210   -0.3563 C   0  0  0  0  0  0  0  0  0  0  0  0
    4.9303    1.7679    0.3147 C   0  0  0  0  0  0  0  0  0  0  0  0
    3.8636    4.9197   -1.7274 C   0  0  0  0  0  0  0  0  0  0  0  0
    4.7527   -1.3831   -0.0258 C   0  0  0  0  0  0  0  0  0  0  0  0
    3.6551   -0.5251    2.0403 C   0  0  0  0  0  0  0  0  0  0  0  0
   -2.4360   -1.4541    0.0675 C   0  0  1  0  0  0  0  0  0  0  0  0
   -3.7649   -0.6684   -0.1451 C   0  0  0  0  0  0  0  0  0  0  0  0
   -3.6133    0.7902   -0.5477 C   0  0  0  0  0  0  0  0  0  0  0  0
   -2.6013    1.4894    0.3384 C   0  0  0  0  0  0  0  0  0  0  0  0
   -2.3708   -2.6029   -0.9850 C   0  0  0  0  0  0  0  0  0  0  0  0
   -1.4365   -3.7994   -0.7128 C   0  0  0  0  0  0  0  0  0  0  0  0
   -1.5138   -4.3687    0.7104 C   0  0  0  0  0  0  0  0  0  0  0  0
   -2.8683   -5.0330    0.9300 C   0  0  0  0  0  0  0  0  0  0  0  0
   -3.0509   -5.5890    2.3350 C   0  0  0  0  0  0  0  0  0  0  0  0
   -4.3928   -6.3013    2.4204 C   0  0  0  0  0  0  0  0  0  0  0  0
   -0.2159    2.9227    0.4869 O   0  0  0  0  0  0  0  0  0  0  0  0
    0.2288   -2.2206    0.2747 H   0  0  0  0  0  0  0  0  0  0  0  0
    3.8159    0.7369   -1.2086 H   0  0  0  0  0  0  0  0  0  0  0  0
    2.5434    2.2591    1.0798 H   0  0  0  0  0  0  0  0  0  0  0  0
    1.6971    3.5974   -0.8571 H   0  0  0  0  0  0  0  0  0  0  0  0
    2.3470    2.4286   -1.9952 H   0  0  0  0  0  0  0  0  0  0  0  0
    5.8295    3.6955   -0.3272 H   0  0  0  0  0  0  0  0  0  0  0  0
    5.8696    1.2657    0.0651 H   0  0  0  0  0  0  0  0  0  0  0  0
    4.9212    1.9261    1.4002 H   0  0  0  0  0  0  0  0  0  0  0  0
    2.9146    5.1158   -2.2383 H   0  0  0  0  0  0  0  0  0  0  0  0
    4.6480    4.9109   -2.4905 H   0  0  0  0  0  0  0  0  0  0  0  0
    4.0435    5.7450   -1.0320 H   0  0  0  0  0  0  0  0  0  0  0  0
    4.7058   -1.4632   -1.1196 H   0  0  0  0  0  0  0  0  0  0  0  0
    4.6557   -2.4080    0.3530 H   0  0  0  0  0  0  0  0  0  0  0  0
    5.7434   -1.0120    0.2508 H   0  0  0  0  0  0  0  0  0  0  0  0
    2.8413    0.0586    2.4800 H   0  0  0  0  0  0  0  0  0  0  0  0
    4.6047   -0.1582    2.4387 H   0  0  0  0  0  0  0  0  0  0  0  0
    3.5148   -1.5551    2.3936 H   0  0  0  0  0  0  0  0  0  0  0  0
   -2.5377   -1.9011    1.0640 H   0  0  0  0  0  0  0  0  0  0  0  0
   -4.3305   -0.7035    0.7964 H   0  0  0  0  0  0  0  0  0  0  0  0
   -4.4129   -1.1610   -0.8806 H   0  0  0  0  0  0  0  0  0  0  0  0
   -4.5836    1.2945   -0.4649 H   0  0  0  0  0  0  0  0  0  0  0  0
   -3.3070    0.8569   -1.5990 H   0  0  0  0  0  0  0  0  0  0  0  0
   -2.5536    2.5417    0.0384 H   0  0  0  0  0  0  0  0  0  0  0  0
   -2.9152    1.4602    1.3892 H   0  0  0  0  0  0  0  0  0  0  0  0
   -2.1212   -2.1833   -1.9678 H   0  0  0  0  0  0  0  0  0  0  0  0
   -3.3763   -3.0298   -1.0937 H   0  0  0  0  0  0  0  0  0  0  0  0
   -0.4039   -3.5508   -0.9705 H   0  0  0  0  0  0  0  0  0  0  0  0
   -1.6893   -4.5966   -1.4237 H   0  0  0  0  0  0  0  0  0  0  0  0
   -1.3351   -3.5966    1.4666 H   0  0  0  0  0  0  0  0  0  0  0  0
   -0.7137   -5.1066    0.8458 H   0  0  0  0  0  0  0  0  0  0  0  0
   -2.9791   -5.8438    0.2001 H   0  0  0  0  0  0  0  0  0  0  0  0
   -3.6729   -4.3149    0.7375 H   0  0  0  0  0  0  0  0  0  0  0  0
   -3.0175   -4.7758    3.0702 H   0  0  0  0  0  0  0  0  0  0  0  0
   -2.2448   -6.2888    2.5789 H   0  0  0  0  0  0  0  0  0  0  0  0
   -5.2127   -5.6115    2.1908 H   0  0  0  0  0  0  0  0  0  0  0  0
   -4.5539   -6.7053    3.4220 H   0  0  0  0  0  0  0  0  0  0  0  0
   -4.4376   -7.1283    1.7027 H   0  0  0  0  0  0  0  0  0  0  0  0
    0.5656    3.2294    0.9700 H   0  0  0  0  0  0  0  0  0  0  0  0
  1  6  2  0  0  0  0
  1 10  1  0  0  0  0
  1  2  1  0  0  0  0
  2  3  2  0  0  0  0
  2 28  1  0  0  0  0
  3 21  1  0  0  0  0
  3  4  1  0  0  0  0
  4  5  2  0  0  0  0
  4 18  1  0  0  0  0
  5  6  1  0  0  0  0
  5 29  1  0  0  0  0
  6  7  1  0  0  0  0
  7  8  1  0  0  0  0
  8  9  1  0  0  0  0
  8 16  1  0  0  0  0
  8 17  1  0  0  0  0
  9 10  1  0  0  0  0
  9 14  1  0  0  0  0
  9 30  1  6  0  0  0
 10 11  1  0  0  0  0
 10 31  1  1  0  0  0
 11 12  1  0  0  0  0
 11 32  1  0  0  0  0
 11 33  1  0  0  0  0
 12 13  2  0  0  0  0
 12 15  1  0  0  0  0
 13 14  1  0  0  0  0
 13 34  1  0  0  0  0
 14 35  1  0  0  0  0
 14 36  1  0  0  0  0
 15 37  1  0  0  0  0
 15 38  1  0  0  0  0
 15 39  1  0  0  0  0
 16 40  1  0  0  0  0
 16 41  1  0  0  0  0
 16 42  1  0  0  0  0
 17 43  1  0  0  0  0
 17 44  1  0  0  0  0
 17 45  1  0  0  0  0
 18 19  1  0  0  0  0
 18 22  1  0  0  0  0
 18 46  1  1  0  0  0
 19 20  1  0  0  0  0
 19 47  1  0  0  0  0
 19 48  1  0  0  0  0
 20 21  1  0  0  0  0
 20 49  1  0  0  0  0
 20 50  1  0  0  0  0
 21 51  1  0  0  0  0
 21 52  1  0  0  0  0
 22 23  1  0  0  0  0
 22 53  1  0  0  0  0
 22 54  1  0  0  0  0
 23 24  1  0  0  0  0
 23 55  1  0  0  0  0
 23 56  1  0  0  0  0
 24 25  1  0  0  0  0
 24 57  1  0  0  0  0
 24 58  1  0  0  0  0
 25 26  1  0  0  0  0
 25 59  1  0  0  0  0
 25 60  1  0  0  0  0
 26 27  1  0  0  0  0
 26 61  1  0  0  0  0
 26 62  1  0  0  0  0
 27 63  1  0  0  0  0
 27 64  1  0  0  0  0
 27 65  1  0  0  0  0
 28 66  1  0  0  0  0
M  END
$$$$
CHEMBL420173
 OpenBabel12022417453D

 64 66  0  0  0  0  0  0  0  0999 V2000
    7.3765   10.7459   -5.2577 C   0  0  0  0  0  0  0  0  0  0  0  0
    6.8055    9.3453   -5.3996 C   0  0  0  0  0  0  0  0  0  0  0  0
    7.2133    8.4751   -4.2185 C   0  0  0  0  0  0  0  0  0  0  0  0
    6.6499    7.0585   -4.3357 C   0  0  0  0  0  0  0  0  0  0  0  0
    7.0897    6.2470   -3.1230 C   0  0  0  0  0  0  0  0  0  0  0  0
    6.5594    4.8070   -3.1409 C   0  0  0  0  0  0  0  0  0  0  0  0
    7.0167    3.9639   -1.9052 C   0  0  0  0  0  0  0  0  0  0  0  0
    6.4611    4.5937   -0.6032 C   0  0  0  0  0  0  0  0  0  0  0  0
    6.3967    2.5492   -1.9983 C   0  0  0  0  0  0  0  0  0  0  0  0
    8.5503    3.8559   -1.9031 C   0  0  0  0  0  0  0  0  0  0  0  0
    9.2281    3.2850   -2.9842 C   0  0  0  0  0  0  0  0  0  0  0  0
   10.6307    3.2522   -3.0308 C   0  0  0  0  0  0  0  0  0  0  0  0
   11.4372    3.7790   -1.9992 C   0  0  0  0  0  0  0  0  0  0  0  0
   12.9143    3.7981   -1.9699 C   0  0  0  0  0  0  0  0  0  0  0  0
   13.5663    4.3668   -0.8616 C   0  0  0  0  0  0  0  0  0  0  0  0
   12.7550    4.9849    0.2745 C   0  0  0  0  0  0  0  0  0  0  0  0
   13.0195    6.4983    0.3309 C   0  0  0  0  0  0  0  0  0  0  0  0
   13.1181    4.3189    1.6138 C   0  0  0  0  0  0  0  0  0  0  0  0
   11.3240    4.8615    0.1978 O   0  0  0  0  0  0  0  0  0  0  0  0
   10.7426    4.3254   -0.9136 C   0  0  0  0  0  0  0  0  0  0  0  0
    9.3405    4.3631   -0.8680 C   0  0  0  0  0  0  0  0  0  0  0  0
   14.9803    4.4016   -0.8103 C   0  0  0  0  0  0  0  0  0  0  0  0
   15.7550    3.8828   -1.8433 C   0  0  0  0  0  0  0  0  0  0  0  0
   15.1281    3.3247   -2.9465 C   0  0  0  0  0  0  0  0  0  0  0  0
   15.8755    2.7592   -4.1059 C   0  0  0  0  0  0  0  0  0  0  0  0
   15.3395    2.2637   -5.0799 O   0  0  0  0  0  0  0  0  0  0  0  0
   17.2068    2.8813   -3.9134 O   0  0  0  0  0  0  0  0  0  0  0  0
   17.9813    2.3535   -4.9945 C   0  0  0  0  0  0  0  0  0  0  0  0
   13.7284    3.2878   -2.9989 C   0  0  0  0  0  0  0  0  0  0  0  0
   11.1855    2.6754   -4.1419 O   0  0  0  0  0  0  0  0  0  0  0  0
    7.0795   11.3651   -6.1095 H   0  0  0  0  0  0  0  0  0  0  0  0
    8.4706   10.7201   -5.2183 H   0  0  0  0  0  0  0  0  0  0  0  0
    7.0133   11.2257   -4.3428 H   0  0  0  0  0  0  0  0  0  0  0  0
    7.1646    8.8975   -6.3330 H   0  0  0  0  0  0  0  0  0  0  0  0
    5.7128    9.4014   -5.4609 H   0  0  0  0  0  0  0  0  0  0  0  0
    6.8604    8.9336   -3.2857 H   0  0  0  0  0  0  0  0  0  0  0  0
    8.3080    8.4294   -4.1557 H   0  0  0  0  0  0  0  0  0  0  0  0
    7.0093    6.5851   -5.2569 H   0  0  0  0  0  0  0  0  0  0  0  0
    5.5553    7.0929   -4.3851 H   0  0  0  0  0  0  0  0  0  0  0  0
    6.7360    6.7668   -2.2281 H   0  0  0  0  0  0  0  0  0  0  0  0
    8.1848    6.2456   -3.0839 H   0  0  0  0  0  0  0  0  0  0  0  0
    6.8906    4.3285   -4.0730 H   0  0  0  0  0  0  0  0  0  0  0  0
    5.4633    4.8264   -3.1912 H   0  0  0  0  0  0  0  0  0  0  0  0
    5.3682    4.5384   -0.5625 H   0  0  0  0  0  0  0  0  0  0  0  0
    6.7384    5.6460   -0.4958 H   0  0  0  0  0  0  0  0  0  0  0  0
    6.8420    4.0739    0.2832 H   0  0  0  0  0  0  0  0  0  0  0  0
    5.3071    2.5858   -1.8755 H   0  0  0  0  0  0  0  0  0  0  0  0
    6.7935    1.8935   -1.2139 H   0  0  0  0  0  0  0  0  0  0  0  0
    6.5922    2.0684   -2.9630 H   0  0  0  0  0  0  0  0  0  0  0  0
    8.6608    2.8725   -3.8135 H   0  0  0  0  0  0  0  0  0  0  0  0
   14.0812    6.7417    0.4307 H   0  0  0  0  0  0  0  0  0  0  0  0
   12.4841    6.9607    1.1667 H   0  0  0  0  0  0  0  0  0  0  0  0
   12.6463    6.9847   -0.5800 H   0  0  0  0  0  0  0  0  0  0  0  0
   14.1891    4.3452    1.8344 H   0  0  0  0  0  0  0  0  0  0  0  0
   12.7995    3.2682    1.6161 H   0  0  0  0  0  0  0  0  0  0  0  0
   12.5927    4.8001    2.4459 H   0  0  0  0  0  0  0  0  0  0  0  0
    8.8931    4.8218    0.0099 H   0  0  0  0  0  0  0  0  0  0  0  0
   15.4922    4.8506    0.0397 H   0  0  0  0  0  0  0  0  0  0  0  0
   16.8404    3.9304   -1.7709 H   0  0  0  0  0  0  0  0  0  0  0  0
   19.0379    2.4951   -4.7524 H   0  0  0  0  0  0  0  0  0  0  0  0
   17.7589    2.8936   -5.9186 H   0  0  0  0  0  0  0  0  0  0  0  0
   17.7893    1.2839   -5.1104 H   0  0  0  0  0  0  0  0  0  0  0  0
   13.2952    2.8446   -3.8872 H   0  0  0  0  0  0  0  0  0  0  0  0
   10.4941    2.3985   -4.7602 H   0  0  0  0  0  0  0  0  0  0  0  0
  1  2  1  0  0  0  0
  1 31  1  0  0  0  0
  1 32  1  0  0  0  0
  1 33  1  0  0  0  0
  2  3  1  0  0  0  0
  2 34  1  0  0  0  0
  2 35  1  0  0  0  0
  3  4  1  0  0  0  0
  3 36  1  0  0  0  0
  3 37  1  0  0  0  0
  4  5  1  0  0  0  0
  4 38  1  0  0  0  0
  4 39  1  0  0  0  0
  5  6  1  0  0  0  0
  5 40  1  0  0  0  0
  5 41  1  0  0  0  0
  6  7  1  0  0  0  0
  6 42  1  0  0  0  0
  6 43  1  0  0  0  0
  7  8  1  0  0  0  0
  7  9  1  0  0  0  0
  7 10  1  0  0  0  0
  8 44  1  0  0  0  0
  8 45  1  0  0  0  0
  8 46  1  0  0  0  0
  9 47  1  0  0  0  0
  9 48  1  0  0  0  0
  9 49  1  0  0  0  0
 10 21  2  0  0  0  0
 10 11  1  0  0  0  0
 11 12  2  0  0  0  0
 11 50  1  0  0  0  0
 12 13  1  0  0  0  0
 12 30  1  0  0  0  0
 13 20  2  0  0  0  0
 13 14  1  0  0  0  0
 14 29  2  0  0  0  0
 14 15  1  0  0  0  0
 15 16  1  0  0  0  0
 15 22  2  0  0  0  0
 16 17  1  0  0  0  0
 16 18  1  0  0  0  0
 16 19  1  0  0  0  0
 17 51  1  0  0  0  0
 17 52  1  0  0  0  0
 17 53  1  0  0  0  0
 18 54  1  0  0  0  0
 18 55  1  0  0  0  0
 18 56  1  0  0  0  0
 19 20  1  0  0  0  0
 20 21  1  0  0  0  0
 21 57  1  0  0  0  0
 22 23  1  0  0  0  0
 22 58  1  0  0  0  0
 23 24  2  0  0  0  0
 23 59  1  0  0  0  0
 24 25  1  0  0  0  0
 24 29  1  0  0  0  0
 25 26  2  0  0  0  0
 25 27  1  0  0  0  0
 27 28  1  0  0  0  0
 28 60  1  0  0  0  0
 28 61  1  0  0  0  0
 28 62  1  0  0  0  0
 29 63  1  0  0  0  0
 30 64  1  0  0  0  0
M  END
$$$$
CHEMBL5200844
 OpenBabel12022417453D

 65 67  0  0  1  0  0  0  0  0999 V2000
    1.0358    0.5967   -0.3177 C   0  0  0  0  0  0  0  0  0  0  0  0
    2.5333    0.1979   -0.2347 C   0  0  0  0  0  0  0  0  0  0  0  0
    2.9827   -0.0675   -1.7209 C   0  0  0  0  0  0  0  0  0  0  0  0
    2.9035   -0.8101    0.9904 C   0  0  2  0  0  0  0  0  0  0  0  0
    3.8653   -1.8501    0.4604 C   0  0  2  0  0  0  0  0  0  0  0  0
    5.0044   -0.4686    0.2886 C   0  0  0  0  0  0  0  0  0  0  0  0
    4.5340    0.9566    0.3623 C   0  0  0  0  0  0  0  0  0  0  0  0
    5.2579    2.1380    0.7184 C   0  0  0  0  0  0  0  0  0  0  0  0
    6.6006    2.1106    1.0130 C   0  0  0  0  0  0  0  0  0  0  0  0
    7.1346    0.7987    0.9750 C   0  0  0  0  0  0  0  0  0  0  0  0
    6.3787   -0.4259    0.6545 C   0  0  0  0  0  0  0  0  0  0  0  0
    7.1711   -1.5306    0.7966 O   0  0  0  0  0  0  0  0  0  0  0  0
    7.5026    3.8077    1.3749 Si  0  0  0  0  0  0  0  0  0  0  0  0
    6.7477    4.7283    2.9453 C   0  0  0  0  0  0  0  0  0  0  0  0
    6.9292    3.9141    4.2185 C   0  0  0  0  0  0  0  0  0  0  0  0
    6.3632    4.6180    5.4468 C   0  0  0  0  0  0  0  0  0  0  0  0
    6.5570    3.7275    6.6718 C   0  0  0  0  0  0  0  0  0  0  0  0
    6.0021    4.3788    7.9321 C   0  0  0  0  0  0  0  0  0  0  0  0
    6.2030    3.4749    9.1354 C   0  0  0  0  0  0  0  0  0  0  0  0
    9.3614    3.7172    1.7056 C   0  0  0  0  0  0  0  0  0  0  0  0
    7.2471    5.0628   -0.0394 C   0  0  0  0  0  0  0  0  0  0  0  0
    3.2289    1.3446    0.1652 O   0  0  0  0  0  0  0  0  0  0  0  0
    2.5933   -3.0365   -0.1331 C   0  0  0  0  0  0  0  0  0  0  0  0
    1.2567   -3.1903    0.2517 C   0  0  0  0  0  0  0  0  0  0  0  0
    0.5796   -2.2160    1.3072 C   0  0  0  0  0  0  0  0  0  0  0  0
    1.7004   -1.3676    1.6858 C   0  0  0  0  0  0  0  0  0  0  0  0
   -0.0466   -4.0854    0.0967 C   0  0  0  0  0  0  0  0  0  0  0  0
    0.9065    1.5721   -0.8000 H   0  0  0  0  0  0  0  0  0  0  0  0
    0.6140    0.6834    0.6753 H   0  0  0  0  0  0  0  0  0  0  0  0
    0.4937   -0.1539   -0.8846 H   0  0  0  0  0  0  0  0  0  0  0  0
    2.6798    0.7817   -2.3491 H   0  0  0  0  0  0  0  0  0  0  0  0
    2.5549   -0.9796   -2.1302 H   0  0  0  0  0  0  0  0  0  0  0  0
    4.0669   -0.1010   -1.8815 H   0  0  0  0  0  0  0  0  0  0  0  0
    3.3798   -0.3186    1.8557 H   0  0  0  0  0  0  0  0  0  0  0  0
    4.4525   -2.5316    1.1351 H   0  0  0  0  0  0  0  0  0  0  0  0
    4.6917    3.0727    0.7725 H   0  0  0  0  0  0  0  0  0  0  0  0
    8.1887    0.6886    1.2518 H   0  0  0  0  0  0  0  0  0  0  0  0
    6.5779   -2.3405    0.7685 H   0  0  0  0  0  0  0  0  0  0  0  0
    5.6931    4.9405    2.7474 H   0  0  0  0  0  0  0  0  0  0  0  0
    7.2664    5.6961    3.0377 H   0  0  0  0  0  0  0  0  0  0  0  0
    7.9939    3.7135    4.3858 H   0  0  0  0  0  0  0  0  0  0  0  0
    6.4345    2.9435    4.0965 H   0  0  0  0  0  0  0  0  0  0  0  0
    5.2964    4.8286    5.3002 H   0  0  0  0  0  0  0  0  0  0  0  0
    6.8682    5.5797    5.5988 H   0  0  0  0  0  0  0  0  0  0  0  0
    7.6250    3.5165    6.8057 H   0  0  0  0  0  0  0  0  0  0  0  0
    6.0593    2.7640    6.5050 H   0  0  0  0  0  0  0  0  0  0  0  0
    4.9335    4.5858    7.8051 H   0  0  0  0  0  0  0  0  0  0  0  0
    6.5032    5.3374    8.1075 H   0  0  0  0  0  0  0  0  0  0  0  0
    5.6897    2.5182    8.9956 H   0  0  0  0  0  0  0  0  0  0  0  0
    5.8031    3.9487   10.0376 H   0  0  0  0  0  0  0  0  0  0  0  0
    7.2663    3.2720    9.2985 H   0  0  0  0  0  0  0  0  0  0  0  0
    9.5690    3.1285    2.5941 H   0  0  0  0  0  0  0  0  0  0  0  0
    9.7416    4.7369    1.8879 H   0  0  0  0  0  0  0  0  0  0  0  0
    9.8896    3.3084    0.8612 H   0  0  0  0  0  0  0  0  0  0  0  0
    6.1822    5.2524   -0.2014 H   0  0  0  0  0  0  0  0  0  0  0  0
    7.6974    4.7006   -0.9628 H   0  0  0  0  0  0  0  0  0  0  0  0
    7.7209    6.0213    0.2199 H   0  0  0  0  0  0  0  0  0  0  0  0
    2.9876   -3.8761   -0.7168 H   0  0  0  0  0  0  0  0  0  0  0  0
    0.1397   -2.6479    2.1767 H   0  0  0  0  0  0  0  0  0  0  0  0
   -0.2390   -1.6578    0.8182 H   0  0  0  0  0  0  0  0  0  0  0  0
    2.2330   -2.1319    2.2820 H   0  0  0  0  0  0  0  0  0  0  0  0
    1.4567   -1.1624    0.6945 H   0  0  0  0  0  0  0  0  0  0  0  0
    0.0322   -5.1091   -0.2735 H   0  0  0  0  0  0  0  0  0  0  0  0
   -0.8017   -3.5339   -0.4786 H   0  0  0  0  0  0  0  0  0  0  0  0
   -0.5736   -4.2114    1.0812 H   0  0  0  0  0  0  0  0  0  0  0  0
  1  2  1  0  0  0  0
  1 28  1  0  0  0  0
  1 29  1  0  0  0  0
  1 30  1  0  0  0  0
  2 22  1  0  0  0  0
  2  3  1  0  0  0  0
  2  4  1  0  0  0  0
  3 31  1  0  0  0  0
  3 32  1  0  0  0  0
  3 33  1  0  0  0  0
  4  5  1  0  0  0  0
  4 26  1  0  0  0  0
  4 34  1  1  0  0  0
  5  6  1  0  0  0  0
  5 23  1  0  0  0  0
  5 35  1  1  0  0  0
  6 11  2  0  0  0  0
  6  7  1  0  0  0  0
  7  8  2  0  0  0  0
  7 22  1  0  0  0  0
  8  9  1  0  0  0  0
  8 36  1  0  0  0  0
  9 10  2  0  0  0  0
  9 13  1  0  0  0  0
 10 11  1  0  0  0  0
 10 37  1  0  0  0  0
 11 12  1  0  0  0  0
 12 38  1  0  0  0  0
 13 14  1  0  0  0  0
 13 20  1  0  0  0  0
 13 21  1  0  0  0  0
 14 15  1  0  0  0  0
 14 39  1  0  0  0  0
 14 40  1  0  0  0  0
 15 16  1  0  0  0  0
 15 41  1  0  0  0  0
 15 42  1  0  0  0  0
 16 17  1  0  0  0  0
 16 43  1  0  0  0  0
 16 44  1  0  0  0  0
 17 18  1  0  0  0  0
 17 45  1  0  0  0  0
 17 46  1  0  0  0  0
 18 19  1  0  0  0  0
 18 47  1  0  0  0  0
 18 48  1  0  0  0  0
 19 49  1  0  0  0  0
 19 50  1  0  0  0  0
 19 51  1  0  0  0  0
 20 52  1  0  0  0  0
 20 53  1  0  0  0  0
 20 54  1  0  0  0  0
 21 55  1  0  0  0  0
 21 56  1  0  0  0  0
 21 57  1  0  0  0  0
 23 24  2  0  0  0  0
 23 58  1  0  0  0  0
 24 25  1  0  0  0  0
 24 27  1  0  0  0  0
 25 26  1  0  0  0  0
 25 59  1  0  0  0  0
 25 60  1  0  0  0  0
 26 61  1  0  0  0  0
 26 62  1  0  0  0  0
 27 63  1  0  0  0  0
 27 64  1  0  0  0  0
 27 65  1  0  0  0  0
M  END
$$$$
CHEMBL5183623
 OpenBabel12022417453D

 54 55  0  0  0  0  0  0  0  0999 V2000
    1.0620   -0.0590    0.0004 C   0  0  0  0  0  0  0  0  0  0  0  0
    2.9453   -0.0825    0.0132 Si  0  0  0  0  0  0  0  0  0  0  0  0
    3.5692    0.5498    1.6694 C   0  0  0  0  0  0  0  0  0  0  0  0
    3.5460   -1.8667   -0.2483 C   0  0  0  0  0  0  0  0  0  0  0  0
    3.1896   -2.8780    0.6521 C   0  0  0  0  0  0  0  0  0  0  0  0
    3.6088   -4.1996    0.4423 C   0  0  0  0  0  0  0  0  0  0  0  0
    4.3826   -4.5821   -0.6697 C   0  0  0  0  0  0  0  0  0  0  0  0
    4.7436   -3.5472   -1.5528 C   0  0  0  0  0  0  0  0  0  0  0  0
    4.3425   -2.2197   -1.3431 C   0  0  0  0  0  0  0  0  0  0  0  0
    5.5013   -3.7181   -2.6803 O   0  0  0  0  0  0  0  0  0  0  0  0
    4.8033   -6.0223   -0.8820 C   0  0  0  0  0  0  0  0  0  0  0  0
    5.6900   -6.6155    0.2172 C   0  0  0  0  0  0  0  0  0  0  0  0
    5.6413   -8.1153   -0.0480 C   0  0  0  0  0  0  0  0  0  0  0  0
    4.2819   -8.3907   -0.6887 C   0  0  0  0  0  0  0  0  0  0  0  0
    3.6545   -7.0331   -1.0015 C   0  0  0  0  0  0  0  0  0  0  0  0
    3.2415   -5.1461    1.3636 O   0  0  0  0  0  0  0  0  0  0  0  0
    3.5725    1.0809   -1.3851 C   0  0  0  0  0  0  0  0  0  0  0  0
    3.1264    2.5346   -1.2039 C   0  0  0  0  0  0  0  0  0  0  0  0
    3.6073    3.4530   -2.3280 C   0  0  0  0  0  0  0  0  0  0  0  0
    3.1034    4.8760   -2.0749 C   0  0  0  0  0  0  0  0  0  0  0  0
    3.5537    5.8580   -3.1508 C   0  0  0  0  0  0  0  0  0  0  0  0
    3.0314    7.2571   -2.8551 C   0  0  0  0  0  0  0  0  0  0  0  0
    0.6581   -0.6818    0.8036 H   0  0  0  0  0  0  0  0  0  0  0  0
    0.6796   -0.4326   -0.9541 H   0  0  0  0  0  0  0  0  0  0  0  0
    0.6902    0.9602    0.1423 H   0  0  0  0  0  0  0  0  0  0  0  0
    3.2040   -0.0775    2.4879 H   0  0  0  0  0  0  0  0  0  0  0  0
    3.2223    1.5721    1.8475 H   0  0  0  0  0  0  0  0  0  0  0  0
    4.6628    0.5496    1.6961 H   0  0  0  0  0  0  0  0  0  0  0  0
    2.5791   -2.6406    1.5205 H   0  0  0  0  0  0  0  0  0  0  0  0
    4.6627   -1.4726   -2.0679 H   0  0  0  0  0  0  0  0  0  0  0  0
    5.5889   -4.6575   -2.8885 H   0  0  0  0  0  0  0  0  0  0  0  0
    5.3804   -6.1172   -1.8085 H   0  0  0  0  0  0  0  0  0  0  0  0
    5.3153   -6.4115    1.2245 H   0  0  0  0  0  0  0  0  0  0  0  0
    6.7145   -6.2293    0.1696 H   0  0  0  0  0  0  0  0  0  0  0  0
    5.7844   -8.6934    0.8704 H   0  0  0  0  0  0  0  0  0  0  0  0
    6.4400   -8.4002   -0.7428 H   0  0  0  0  0  0  0  0  0  0  0  0
    3.6364   -8.9656   -0.0157 H   0  0  0  0  0  0  0  0  0  0  0  0
    4.4064   -8.9823   -1.6023 H   0  0  0  0  0  0  0  0  0  0  0  0
    3.2060   -7.0148   -2.0006 H   0  0  0  0  0  0  0  0  0  0  0  0
    2.8427   -6.8445   -0.2937 H   0  0  0  0  0  0  0  0  0  0  0  0
    2.7597   -4.7175    2.0879 H   0  0  0  0  0  0  0  0  0  0  0  0
    3.1971    0.6914   -2.3385 H   0  0  0  0  0  0  0  0  0  0  0  0
    4.6666    1.0256   -1.4094 H   0  0  0  0  0  0  0  0  0  0  0  0
    3.5031    2.9187   -0.2475 H   0  0  0  0  0  0  0  0  0  0  0  0
    2.0314    2.5818   -1.1535 H   0  0  0  0  0  0  0  0  0  0  0  0
    3.2355    3.0907   -3.2940 H   0  0  0  0  0  0  0  0  0  0  0  0
    4.7028    3.4457   -2.3743 H   0  0  0  0  0  0  0  0  0  0  0  0
    3.4630    5.2198   -1.0971 H   0  0  0  0  0  0  0  0  0  0  0  0
    2.0071    4.8689   -2.0270 H   0  0  0  0  0  0  0  0  0  0  0  0
    3.1865    5.5354   -4.1319 H   0  0  0  0  0  0  0  0  0  0  0  0
    4.6481    5.8842   -3.2031 H   0  0  0  0  0  0  0  0  0  0  0  0
    1.9369    7.2672   -2.8178 H   0  0  0  0  0  0  0  0  0  0  0  0
    3.3517    7.9558   -3.6339 H   0  0  0  0  0  0  0  0  0  0  0  0
    3.4093    7.6215   -1.8949 H   0  0  0  0  0  0  0  0  0  0  0  0
  1  2  1  0  0  0  0
  1 23  1  0  0  0  0
  1 24  1  0  0  0  0
  1 25  1  0  0  0  0
  2  3  1  0  0  0  0
  2  4  1  0  0  0  0
  2 17  1  0  0  0  0
  3 26  1  0  0  0  0
  3 27  1  0  0  0  0
  3 28  1  0  0  0  0
  4  9  2  0  0  0  0
  4  5  1  0  0  0  0
  5  6  2  0  0  0  0
  5 29  1  0  0  0  0
  6  7  1  0  0  0  0
  6 16  1  0  0  0  0
  7  8  2  0  0  0  0
  7 11  1  0  0  0  0
  8  9  1  0  0  0  0
  8 10  1  0  0  0  0
  9 30  1  0  0  0  0
 10 31  1  0  0  0  0
 11 15  1  0  0  0  0
 11 12  1  0  0  0  0
 11 32  1  0  0  0  0
 12 13  1  0  0  0  0
 12 33  1  0  0  0  0
 12 34  1  0  0  0  0
 13 14  1  0  0  0  0
 13 35  1  0  0  0  0
 13 36  1  0  0  0  0
 14 15  1  0  0  0  0
 14 37  1  0  0  0  0
 14 38  1  0  0  0  0
 15 39  1  0  0  0  0
 15 40  1  0  0  0  0
 16 41  1  0  0  0  0
 17 18  1  0  0  0  0
 17 42  1  0  0  0  0
 17 43  1  0  0  0  0
 18 19  1  0  0  0  0
 18 44  1  0  0  0  0
 18 45  1  0  0  0  0
 19 20  1  0  0  0  0
 19 46  1  0  0  0  0
 19 47  1  0  0  0  0
 20 21  1  0  0  0  0
 20 48  1  0  0  0  0
 20 49  1  0  0  0  0
 21 22  1  0  0  0  0
 21 50  1  0  0  0  0
 21 51  1  0  0  0  0
 22 52  1  0  0  0  0
 22 53  1  0  0  0  0
 22 54  1  0  0  0  0
M  END
$$$$
CHEMBL2071071	6KQI	best_smi
 OpenBabel12022417453D

 51 54  0  0  0  0  0  0  0  0999 V2000
    4.0217   -1.4356    1.9945 O   0  0  0  0  0  0  0  0  0  0  0  0
    3.7450   -0.7409    1.0228 C   0  0  0  0  0  0  0  0  0  0  0  0
    2.8999    0.3458    1.0737 N   0  0  0  0  0  0  0  0  0  0  0  0
    2.2390    0.8288    2.2747 C   0  0  0  0  0  0  0  0  0  0  0  0
    3.1339    1.7841    3.0717 C   0  0  0  0  0  0  0  0  0  0  0  0
    2.4624    2.4707    4.2390 C   0  0  0  0  0  0  0  0  0  0  0  0
    2.4954    3.8630    4.3574 C   0  0  0  0  0  0  0  0  0  0  0  0
    1.9603    4.5060    5.4862 C   0  0  0  0  0  0  0  0  0  0  0  0
    1.3737    3.7968    6.5442 C   0  0  0  0  0  0  0  0  0  0  0  0
    0.8694    4.4334    7.6638 N   0  0  0  0  0  0  0  0  0  0  0  0
    0.8690    3.8102    8.9899 C   0  0  0  0  0  0  0  0  0  0  0  0
   -0.5669    3.7061    9.5024 C   0  0  0  0  0  0  0  0  0  0  0  0
   -1.2565    5.0708    9.4869 C   0  0  0  0  0  0  0  0  0  0  0  0
   -1.1507    5.7285    8.1112 C   0  0  0  0  0  0  0  0  0  0  0  0
    0.2964    5.7799    7.6116 C   0  0  0  0  0  0  0  0  0  0  0  0
    1.3395    2.4016    6.3995 C   0  0  0  0  0  0  0  0  0  0  0  0
    1.8734    1.7457    5.2751 C   0  0  0  0  0  0  0  0  0  0  0  0
    4.3161   -0.9499   -0.2947 C   0  0  0  0  0  0  0  0  0  0  0  0
    3.8824   -0.4898   -1.5266 C   0  0  0  0  0  0  0  0  0  0  0  0
    4.8450   -0.8302   -2.5051 C   0  0  0  0  0  0  0  0  0  0  0  0
    4.9699   -0.5341   -3.8731 C   0  0  0  0  0  0  0  0  0  0  0  0
    6.0834   -1.0081   -4.5639 C   0  0  0  0  0  0  0  0  0  0  0  0
    6.2638   -0.6146   -6.2318 Cl  0  0  0  0  0  0  0  0  0  0  0  0
    7.0516   -1.7782   -3.9226 C   0  0  0  0  0  0  0  0  0  0  0  0
    6.9401   -2.0882   -2.5583 C   0  0  0  0  0  0  0  0  0  0  0  0
    5.8284   -1.5856   -1.8679 C   0  0  0  0  0  0  0  0  0  0  0  0
    5.4578   -1.6890   -0.5412 N   0  0  0  0  0  0  0  0  0  0  0  0
    2.8950    0.9651    0.2766 H   0  0  0  0  0  0  0  0  0  0  0  0
    1.9262   -0.0299    2.8760 H   0  0  0  0  0  0  0  0  0  0  0  0
    1.3384    1.3517    1.9328 H   0  0  0  0  0  0  0  0  0  0  0  0
    3.5228    2.5452    2.3820 H   0  0  0  0  0  0  0  0  0  0  0  0
    4.0127    1.2463    3.4455 H   0  0  0  0  0  0  0  0  0  0  0  0
    2.9625    4.4731    3.5873 H   0  0  0  0  0  0  0  0  0  0  0  0
    2.0610    5.5867    5.5407 H   0  0  0  0  0  0  0  0  0  0  0  0
    1.4557    4.4379    9.6740 H   0  0  0  0  0  0  0  0  0  0  0  0
    1.3468    2.8253    9.0101 H   0  0  0  0  0  0  0  0  0  0  0  0
   -0.5713    3.3030   10.5214 H   0  0  0  0  0  0  0  0  0  0  0  0
   -1.1325    3.0072    8.8739 H   0  0  0  0  0  0  0  0  0  0  0  0
   -0.7955    5.7224   10.2392 H   0  0  0  0  0  0  0  0  0  0  0  0
   -2.3107    4.9571    9.7636 H   0  0  0  0  0  0  0  0  0  0  0  0
   -1.5663    6.7416    8.1519 H   0  0  0  0  0  0  0  0  0  0  0  0
   -1.7587    5.1596    7.3963 H   0  0  0  0  0  0  0  0  0  0  0  0
    0.2873    6.2077    6.6045 H   0  0  0  0  0  0  0  0  0  0  0  0
    0.8896    6.4530    8.2435 H   0  0  0  0  0  0  0  0  0  0  0  0
    0.8772    1.7839    7.1641 H   0  0  0  0  0  0  0  0  0  0  0  0
    1.8328    0.6595    5.2388 H   0  0  0  0  0  0  0  0  0  0  0  0
    2.9787    0.0749   -1.7082 H   0  0  0  0  0  0  0  0  0  0  0  0
    4.2159    0.0689   -4.3724 H   0  0  0  0  0  0  0  0  0  0  0  0
    7.9095   -2.1412   -4.4847 H   0  0  0  0  0  0  0  0  0  0  0  0
    7.6998   -2.6869   -2.0643 H   0  0  0  0  0  0  0  0  0  0  0  0
    5.9759   -2.1791    0.1735 H   0  0  0  0  0  0  0  0  0  0  0  0
  1  2  2  0  0  0  0
  2  3  1  0  0  0  0
  2 18  1  0  0  0  0
  3  4  1  0  0  0  0
  3 28  1  0  0  0  0
  4  5  1  0  0  0  0
  4 29  1  0  0  0  0
  4 30  1  0  0  0  0
  5  6  1  0  0  0  0
  5 31  1  0  0  0  0
  5 32  1  0  0  0  0
  6 17  2  0  0  0  0
  6  7  1  0  0  0  0
  7  8  2  0  0  0  0
  7 33  1  0  0  0  0
  8  9  1  0  0  0  0
  8 34  1  0  0  0  0
  9 10  1  0  0  0  0
  9 16  2  0  0  0  0
 10 15  1  0  0  0  0
 10 11  1  0  0  0  0
 11 12  1  0  0  0  0
 11 35  1  0  0  0  0
 11 36  1  0  0  0  0
 12 13  1  0  0  0  0
 12 37  1  0  0  0  0
 12 38  1  0  0  0  0
 13 14  1  0  0  0  0
 13 39  1  0  0  0  0
 13 40  1  0  0  0  0
 14 15  1  0  0  0  0
 14 41  1  0  0  0  0
 14 42  1  0  0  0  0
 15 43  1  0  0  0  0
 15 44  1  0  0  0  0
 16 17  1  0  0  0  0
 16 45  1  0  0  0  0
 17 46  1  0  0  0  0
 18 27  1  0  0  0  0
 18 19  2  0  0  0  0
 19 20  1  0  0  0  0
 19 47  1  0  0  0  0
 20 26  2  0  0  0  0
 20 21  1  0  0  0  0
 21 22  2  0  0  0  0
 21 48  1  0  0  0  0
 22 23  1  0  0  0  0
 22 24  1  0  0  0  0
 24 25  2  0  0  0  0
 24 49  1  0  0  0  0
 25 26  1  0  0  0  0
 25 50  1  0  0  0  0
 26 27  1  0  0  0  0
 27 51  1  0  0  0  0
M  END
$$$$
CHEMBL3237113	6KQI	best_smi
 OpenBabel12022417453D

 62 64  0  0  0  0  0  0  0  0999 V2000
    0.9201    0.1773    0.2961 C   0  0  0  0  0  0  0  0  0  0  0  0
    2.4364    0.1747    0.3074 C   0  0  0  0  0  0  0  0  0  0  0  0
    2.9796    1.2698   -0.6001 C   0  0  0  0  0  0  0  0  0  0  0  0
    4.5014    1.2688   -0.6016 C   0  0  0  0  0  0  0  0  0  0  0  0
    5.0138    2.3689   -1.5190 C   0  0  0  0  0  0  0  0  0  0  0  0
    6.5398    2.4161   -1.5060 C   0  0  0  0  0  0  0  0  0  0  0  0
    7.0763    3.4875   -2.4083 C   0  0  0  0  0  0  0  0  0  0  0  0
    7.8287    3.4074   -3.5836 C   0  0  0  0  0  0  0  0  0  0  0  0
    8.3830    2.3268   -4.3937 C   0  0  0  0  0  0  0  0  0  0  0  0
    8.9657    2.5487   -5.4520 O   0  0  0  0  0  0  0  0  0  0  0  0
    8.2254    1.0569   -3.9035 N   0  0  0  0  0  0  0  0  0  0  0  0
    8.7204   -0.1277   -4.5842 C   0  0  0  0  0  0  0  0  0  0  0  0
    8.2986   -1.3932   -3.8276 C   0  0  0  0  0  0  0  0  0  0  0  0
    8.7857   -2.6705   -4.4574 C   0  0  0  0  0  0  0  0  0  0  0  0
    7.9976   -3.3661   -5.3727 C   0  0  0  0  0  0  0  0  0  0  0  0
    8.4580   -4.5602   -5.9556 C   0  0  0  0  0  0  0  0  0  0  0  0
    9.7208   -5.1079   -5.6683 C   0  0  0  0  0  0  0  0  0  0  0  0
   10.1542   -6.2987   -6.2381 N   0  0  0  0  0  0  0  0  0  0  0  0
    9.7245   -6.7084   -7.5765 C   0  0  0  0  0  0  0  0  0  0  0  0
   11.3376   -7.0128   -5.7619 C   0  0  0  0  0  0  0  0  0  0  0  0
   10.4800   -4.3948   -4.7257 C   0  0  0  0  0  0  0  0  0  0  0  0
   10.0314   -3.2029   -4.1317 C   0  0  0  0  0  0  0  0  0  0  0  0
    7.9857    4.7112   -4.0253 N   0  0  0  0  0  0  0  0  0  0  0  0
    7.3279    5.6112   -3.2290 C   0  0  0  0  0  0  0  0  0  0  0  0
    7.1521    6.9946   -3.3519 C   0  0  0  0  0  0  0  0  0  0  0  0
    6.3754    7.6452   -2.3817 C   0  0  0  0  0  0  0  0  0  0  0  0
    5.8268    6.9381   -1.3187 C   0  0  0  0  0  0  0  0  0  0  0  0
    4.8407    7.7456   -0.1590 Cl  0  0  0  0  0  0  0  0  0  0  0  0
    6.0485    5.5718   -1.1873 C   0  0  0  0  0  0  0  0  0  0  0  0
    6.7874    4.8827   -2.1807 C   0  0  0  0  0  0  0  0  0  0  0  0
    0.5353   -0.6116    0.9482 H   0  0  0  0  0  0  0  0  0  0  0  0
    0.5390    0.0047   -0.7156 H   0  0  0  0  0  0  0  0  0  0  0  0
    0.5304    1.1374    0.6496 H   0  0  0  0  0  0  0  0  0  0  0  0
    2.8056   -0.8017   -0.0270 H   0  0  0  0  0  0  0  0  0  0  0  0
    2.7972    0.3273    1.3313 H   0  0  0  0  0  0  0  0  0  0  0  0
    2.6118    2.2472   -0.2626 H   0  0  0  0  0  0  0  0  0  0  0  0
    2.6119    1.1241   -1.6233 H   0  0  0  0  0  0  0  0  0  0  0  0
    4.8803    0.2973   -0.9389 H   0  0  0  0  0  0  0  0  0  0  0  0
    4.8761    1.4320    0.4167 H   0  0  0  0  0  0  0  0  0  0  0  0
    4.5855    3.3189   -1.1878 H   0  0  0  0  0  0  0  0  0  0  0  0
    4.6525    2.2098   -2.5427 H   0  0  0  0  0  0  0  0  0  0  0  0
    6.8902    1.4204   -1.7588 H   0  0  0  0  0  0  0  0  0  0  0  0
    6.9069    2.6025   -0.4889 H   0  0  0  0  0  0  0  0  0  0  0  0
    8.1437    0.9867   -2.9079 H   0  0  0  0  0  0  0  0  0  0  0  0
    9.8109   -0.0434   -4.6408 H   0  0  0  0  0  0  0  0  0  0  0  0
    8.3305   -0.1273   -5.6088 H   0  0  0  0  0  0  0  0  0  0  0  0
    7.2044   -1.4249   -3.7367 H   0  0  0  0  0  0  0  0  0  0  0  0
    8.6663   -1.3417   -2.7934 H   0  0  0  0  0  0  0  0  0  0  0  0
    7.0050   -3.0030   -5.6306 H   0  0  0  0  0  0  0  0  0  0  0  0
    7.7695   -5.0743   -6.6201 H   0  0  0  0  0  0  0  0  0  0  0  0
    8.8907   -6.1398   -7.9934 H   0  0  0  0  0  0  0  0  0  0  0  0
    9.4271   -7.7631   -7.5567 H   0  0  0  0  0  0  0  0  0  0  0  0
   10.5581   -6.6125   -8.2829 H   0  0  0  0  0  0  0  0  0  0  0  0
   11.6846   -6.7161   -4.7700 H   0  0  0  0  0  0  0  0  0  0  0  0
   12.1677   -6.8943   -6.4677 H   0  0  0  0  0  0  0  0  0  0  0  0
   11.1058   -8.0814   -5.6897 H   0  0  0  0  0  0  0  0  0  0  0  0
   11.4642   -4.7372   -4.4251 H   0  0  0  0  0  0  0  0  0  0  0  0
   10.6727   -2.7093   -3.4050 H   0  0  0  0  0  0  0  0  0  0  0  0
    8.4790    4.9508   -4.8845 H   0  0  0  0  0  0  0  0  0  0  0  0
    7.5788    7.5499   -4.1792 H   0  0  0  0  0  0  0  0  0  0  0  0
    6.1925    8.7139   -2.4696 H   0  0  0  0  0  0  0  0  0  0  0  0
    5.6145    5.0322   -0.3512 H   0  0  0  0  0  0  0  0  0  0  0  0
  1  2  1  0  0  0  0
  1 31  1  0  0  0  0
  1 32  1  0  0  0  0
  1 33  1  0  0  0  0
  2  3  1  0  0  0  0
  2 34  1  0  0  0  0
  2 35  1  0  0  0  0
  3  4  1  0  0  0  0
  3 36  1  0  0  0  0
  3 37  1  0  0  0  0
  4  5  1  0  0  0  0
  4 38  1  0  0  0  0
  4 39  1  0  0  0  0
  5  6  1  0  0  0  0
  5 40  1  0  0  0  0
  5 41  1  0  0  0  0
  6  7  1  0  0  0  0
  6 42  1  0  0  0  0
  6 43  1  0  0  0  0
  7 30  1  0  0  0  0
  7  8  2  0  0  0  0
  8  9  1  0  0  0  0
  8 23  1  0  0  0  0
  9 10  2  0  0  0  0
  9 11  1  0  0  0  0
 11 12  1  0  0  0  0
 11 44  1  0  0  0  0
 12 13  1  0  0  0  0
 12 45  1  0  0  0  0
 12 46  1  0  0  0  0
 13 14  1  0  0  0  0
 13 47  1  0  0  0  0
 13 48  1  0  0  0  0
 14 22  2  0  0  0  0
 14 15  1  0  0  0  0
 15 16  2  0  0  0  0
 15 49  1  0  0  0  0
 16 17  1  0  0  0  0
 16 50  1  0  0  0  0
 17 18  1  0  0  0  0
 17 21  2  0  0  0  0
 18 19  1  0  0  0  0
 18 20  1  0  0  0  0
 19 51  1  0  0  0  0
 19 52  1  0  0  0  0
 19 53  1  0  0  0  0
 20 54  1  0  0  0  0
 20 55  1  0  0  0  0
 20 56  1  0  0  0  0
 21 22  1  0  0  0  0
 21 57  1  0  0  0  0
 22 58  1  0  0  0  0
 23 24  1  0  0  0  0
 23 59  1  0  0  0  0
 24 30  2  0  0  0  0
 24 25  1  0  0  0  0
 25 26  2  0  0  0  0
 25 60  1  0  0  0  0
 26 27  1  0  0  0  0
 26 61  1  0  0  0  0
 27 28  1  0  0  0  0
 27 29  2  0  0  0  0
 29 30  1  0  0  0  0
 29 62  1  0  0  0  0
M  END
$$$$
CHEMBL4776235	6KQI	best_smi
 OpenBabel12022417453D

 56 58  0  0  0  0  0  0  0  0999 V2000
   12.2284   -0.6807    0.0370 C   0  0  0  0  0  0  0  0  0  0  0  0
   11.3034   -0.0180   -0.9659 C   0  0  0  0  0  0  0  0  0  0  0  0
    9.8990   -0.6076   -0.8883 C   0  0  0  0  0  0  0  0  0  0  0  0
    8.9759    0.0723   -1.8934 C   0  0  0  0  0  0  0  0  0  0  0  0
    7.5749   -0.5237   -1.8061 C   0  0  0  0  0  0  0  0  0  0  0  0
    6.6127    0.0564   -2.8464 C   0  0  0  0  0  0  0  0  0  0  0  0
    7.0661   -0.1309   -4.2664 C   0  0  0  0  0  0  0  0  0  0  0  0
    7.2675   -1.3153   -4.9810 C   0  0  0  0  0  0  0  0  0  0  0  0
    7.1137   -2.7317   -4.6774 C   0  0  0  0  0  0  0  0  0  0  0  0
    7.4961   -3.6042   -5.4548 O   0  0  0  0  0  0  0  0  0  0  0  0
    6.5109   -3.0428   -3.4843 N   0  0  0  0  0  0  0  0  0  0  0  0
    6.3310   -4.4035   -3.0155 C   0  0  0  0  0  0  0  0  0  0  0  0
    5.8208   -4.4377   -1.5734 C   0  0  0  0  0  0  0  0  0  0  0  0
    5.5411   -5.8382   -1.0863 C   0  0  0  0  0  0  0  0  0  0  0  0
    4.2827   -6.4177   -1.2803 C   0  0  0  0  0  0  0  0  0  0  0  0
    4.0131   -7.6997   -0.7970 C   0  0  0  0  0  0  0  0  0  0  0  0
    4.9892   -8.4382   -0.1143 C   0  0  0  0  0  0  0  0  0  0  0  0
    4.6102   -9.6938    0.3946 N   0  0  0  0  0  0  0  0  0  0  0  0
    5.5243  -10.5390    0.4634 N   0  3  0  0  0  0  0  0  0  0  0  0
    6.3479  -11.3180    0.5388 N   0  5  0  0  0  0  0  0  0  0  0  0
    6.2502   -7.8570    0.0636 C   0  0  0  0  0  0  0  0  0  0  0  0
    6.5286   -6.5756   -0.4257 C   0  0  0  0  0  0  0  0  0  0  0  0
    7.7648   -0.9403   -6.2164 N   0  0  0  0  0  0  0  0  0  0  0  0
    7.8550    0.4228   -6.3402 C   0  0  0  0  0  0  0  0  0  0  0  0
    8.2888    1.2118   -7.4148 C   0  0  0  0  0  0  0  0  0  0  0  0
    8.2628    2.6021   -7.2530 C   0  0  0  0  0  0  0  0  0  0  0  0
    7.8335    3.1682   -6.0571 C   0  0  0  0  0  0  0  0  0  0  0  0
    7.7997    4.8822   -5.8878 Cl  0  0  0  0  0  0  0  0  0  0  0  0
    7.4211    2.3673   -4.9894 C   0  0  0  0  0  0  0  0  0  0  0  0
    7.4206    0.9623   -5.1351 C   0  0  0  0  0  0  0  0  0  0  0  0
   13.2257   -0.2365   -0.0197 H   0  0  0  0  0  0  0  0  0  0  0  0
   12.3176   -1.7525   -0.1640 H   0  0  0  0  0  0  0  0  0  0  0  0
   11.8523   -0.5522    1.0571 H   0  0  0  0  0  0  0  0  0  0  0  0
   11.7068   -0.1503   -1.9769 H   0  0  0  0  0  0  0  0  0  0  0  0
   11.2623    1.0603   -0.7705 H   0  0  0  0  0  0  0  0  0  0  0  0
    9.4960   -0.4900    0.1242 H   0  0  0  0  0  0  0  0  0  0  0  0
    9.9417   -1.6849   -1.0959 H   0  0  0  0  0  0  0  0  0  0  0  0
    9.3907   -0.0695   -2.8972 H   0  0  0  0  0  0  0  0  0  0  0  0
    8.9311    1.1513   -1.7059 H   0  0  0  0  0  0  0  0  0  0  0  0
    7.1561   -0.3522   -0.8076 H   0  0  0  0  0  0  0  0  0  0  0  0
    7.6692   -1.6068   -1.9081 H   0  0  0  0  0  0  0  0  0  0  0  0
    6.4822    1.1233   -2.6295 H   0  0  0  0  0  0  0  0  0  0  0  0
    5.6128   -0.3776   -2.7277 H   0  0  0  0  0  0  0  0  0  0  0  0
    6.0306   -2.3108   -2.9914 H   0  0  0  0  0  0  0  0  0  0  0  0
    7.2919   -4.9278   -3.1004 H   0  0  0  0  0  0  0  0  0  0  0  0
    5.6260   -4.8889   -3.6945 H   0  0  0  0  0  0  0  0  0  0  0  0
    4.9059   -3.8382   -1.4824 H   0  0  0  0  0  0  0  0  0  0  0  0
    6.5440   -3.9556   -0.9010 H   0  0  0  0  0  0  0  0  0  0  0  0
    3.4943   -5.8725   -1.7959 H   0  0  0  0  0  0  0  0  0  0  0  0
    3.0221   -8.1282   -0.9362 H   0  0  0  0  0  0  0  0  0  0  0  0
    7.0346   -8.3837    0.6032 H   0  0  0  0  0  0  0  0  0  0  0  0
    7.5190   -6.1533   -0.2674 H   0  0  0  0  0  0  0  0  0  0  0  0
    8.0277   -1.6093   -6.9293 H   0  0  0  0  0  0  0  0  0  0  0  0
    8.6284    0.7692   -8.3468 H   0  0  0  0  0  0  0  0  0  0  0  0
    8.5808    3.2407   -8.0737 H   0  0  0  0  0  0  0  0  0  0  0  0
    7.0963    2.8264   -4.0609 H   0  0  0  0  0  0  0  0  0  0  0  0
  1  2  1  0  0  0  0
  1 31  1  0  0  0  0
  1 32  1  0  0  0  0
  1 33  1  0  0  0  0
  2  3  1  0  0  0  0
  2 34  1  0  0  0  0
  2 35  1  0  0  0  0
  3  4  1  0  0  0  0
  3 36  1  0  0  0  0
  3 37  1  0  0  0  0
  4  5  1  0  0  0  0
  4 38  1  0  0  0  0
  4 39  1  0  0  0  0
  5  6  1  0  0  0  0
  5 40  1  0  0  0  0
  5 41  1  0  0  0  0
  6  7  1  0  0  0  0
  6 42  1  0  0  0  0
  6 43  1  0  0  0  0
  7 30  1  0  0  0  0
  7  8  2  0  0  0  0
  8  9  1  0  0  0  0
  8 23  1  0  0  0  0
  9 10  2  0  0  0  0
  9 11  1  0  0  0  0
 11 12  1  0  0  0  0
 11 44  1  0  0  0  0
 12 13  1  0  0  0  0
 12 45  1  0  0  0  0
 12 46  1  0  0  0  0
 13 14  1  0  0  0  0
 13 47  1  0  0  0  0
 13 48  1  0  0  0  0
 14 22  2  0  0  0  0
 14 15  1  0  0  0  0
 15 16  2  0  0  0  0
 15 49  1  0  0  0  0
 16 17  1  0  0  0  0
 16 50  1  0  0  0  0
 17 18  1  0  0  0  0
 17 21  2  0  0  0  0
 18 19  2  0  0  0  0
 19 20  2  0  0  0  0
 21 22  1  0  0  0  0
 21 51  1  0  0  0  0
 22 52  1  0  0  0  0
 23 24  1  0  0  0  0
 23 53  1  0  0  0  0
 24 30  2  0  0  0  0
 24 25  1  0  0  0  0
 25 26  2  0  0  0  0
 25 54  1  0  0  0  0
 26 27  1  0  0  0  0
 26 55  1  0  0  0  0
 27 28  1  0  0  0  0
 27 29  2  0  0  0  0
 29 30  1  0  0  0  0
 29 56  1  0  0  0  0
M  CHG  2  19   1  20  -1
M  END
$$$$
CHEMBL4744733	6KQI	best_smi
 OpenBabel12022417453D

 54 57  0  0  0  0  0  0  0  0999 V2000
    0.6950   -0.5264   -2.3656 C   0  0  0  0  0  0  0  0  0  0  0  0
    1.9603   -1.3319   -2.6244 C   0  0  0  0  0  0  0  0  0  0  0  0
    3.1279   -0.8624   -1.8066 C   0  0  0  0  0  0  0  0  0  0  0  0
    3.5944   -1.3555   -0.5881 C   0  0  0  0  0  0  0  0  0  0  0  0
    3.1475   -2.4134    0.2955 C   0  0  0  0  0  0  0  0  0  0  0  0
    3.9118   -2.9876    1.0654 O   0  0  0  0  0  0  0  0  0  0  0  0
    1.8052   -2.6910    0.2497 N   0  0  0  0  0  0  0  0  0  0  0  0
    1.1947   -3.7302    1.0489 C   0  0  0  0  0  0  0  0  0  0  0  0
    0.7367   -3.2177    2.4175 C   0  0  0  0  0  0  0  0  0  0  0  0
    0.1078   -4.3035    3.2566 C   0  0  0  0  0  0  0  0  0  0  0  0
   -1.2039   -4.1861    3.7381 C   0  0  0  0  0  0  0  0  0  0  0  0
   -1.7490   -5.1841    4.5519 C   0  0  0  0  0  0  0  0  0  0  0  0
   -0.9911   -6.3078    4.8954 C   0  0  0  0  0  0  0  0  0  0  0  0
   -1.5759   -7.3403    5.7937 C   0  0  0  0  0  0  0  0  0  0  0  0
   -2.7905   -7.5044    5.8125 O   0  0  0  0  0  0  0  0  0  0  0  0
   -0.7078   -8.1881    6.6564 C   0  0  0  0  0  0  0  0  0  0  0  0
   -1.0942   -9.5138    6.8899 C   0  0  0  0  0  0  0  0  0  0  0  0
   -0.2827  -10.3541    7.6551 C   0  0  0  0  0  0  0  0  0  0  0  0
    0.9132   -9.8744    8.1901 C   0  0  0  0  0  0  0  0  0  0  0  0
    1.2904   -8.5487    7.9810 C   0  0  0  0  0  0  0  0  0  0  0  0
    0.4731   -7.7013    7.2315 C   0  0  0  0  0  0  0  0  0  0  0  0
    0.2980   -6.4501    4.3713 C   0  0  0  0  0  0  0  0  0  0  0  0
    0.8507   -5.4440    3.5848 C   0  0  0  0  0  0  0  0  0  0  0  0
    4.7484   -0.6601   -0.2933 N   0  0  0  0  0  0  0  0  0  0  0  0
    5.0378    0.2691   -1.2588 C   0  0  0  0  0  0  0  0  0  0  0  0
    6.1098    1.1644   -1.3576 C   0  0  0  0  0  0  0  0  0  0  0  0
    6.1649    1.9845   -2.4888 C   0  0  0  0  0  0  0  0  0  0  0  0
    5.1790    1.9094   -3.4682 C   0  0  0  0  0  0  0  0  0  0  0  0
    5.2791    2.9270   -4.8551 Cl  0  0  0  0  0  0  0  0  0  0  0  0
    4.1107    1.0154   -3.3514 C   0  0  0  0  0  0  0  0  0  0  0  0
    4.0382    0.1721   -2.2219 C   0  0  0  0  0  0  0  0  0  0  0  0
   -0.0805   -0.8007   -3.0870 H   0  0  0  0  0  0  0  0  0  0  0  0
    0.8796    0.5491   -2.4495 H   0  0  0  0  0  0  0  0  0  0  0  0
    0.2918   -0.7082   -1.3655 H   0  0  0  0  0  0  0  0  0  0  0  0
    2.2145   -1.2504   -3.6887 H   0  0  0  0  0  0  0  0  0  0  0  0
    1.7728   -2.3974   -2.4511 H   0  0  0  0  0  0  0  0  0  0  0  0
    1.2016   -2.0371   -0.2188 H   0  0  0  0  0  0  0  0  0  0  0  0
    1.9155   -4.5482    1.1518 H   0  0  0  0  0  0  0  0  0  0  0  0
    0.3411   -4.1130    0.4786 H   0  0  0  0  0  0  0  0  0  0  0  0
    0.0291   -2.3909    2.2758 H   0  0  0  0  0  0  0  0  0  0  0  0
    1.5848   -2.7978    2.9730 H   0  0  0  0  0  0  0  0  0  0  0  0
   -1.8091   -3.3166    3.4924 H   0  0  0  0  0  0  0  0  0  0  0  0
   -2.7665   -5.0777    4.9304 H   0  0  0  0  0  0  0  0  0  0  0  0
   -2.0217   -9.8960    6.4678 H   0  0  0  0  0  0  0  0  0  0  0  0
   -0.5819  -11.3849    7.8296 H   0  0  0  0  0  0  0  0  0  0  0  0
    1.5486  -10.5328    8.7772 H   0  0  0  0  0  0  0  0  0  0  0  0
    2.2209   -8.1745    8.4017 H   0  0  0  0  0  0  0  0  0  0  0  0
    0.7763   -6.6656    7.1003 H   0  0  0  0  0  0  0  0  0  0  0  0
    0.8973   -7.3339    4.5732 H   0  0  0  0  0  0  0  0  0  0  0  0
    1.8739   -5.5608    3.2308 H   0  0  0  0  0  0  0  0  0  0  0  0
    5.3091   -0.8399    0.5296 H   0  0  0  0  0  0  0  0  0  0  0  0
    6.8806    1.2159   -0.5951 H   0  0  0  0  0  0  0  0  0  0  0  0
    6.9926    2.6808   -2.6009 H   0  0  0  0  0  0  0  0  0  0  0  0
    3.3520    0.9633   -4.1259 H   0  0  0  0  0  0  0  0  0  0  0  0
  1  2  1  0  0  0  0
  1 32  1  0  0  0  0
  1 33  1  0  0  0  0
  1 34  1  0  0  0  0
  2  3  1  0  0  0  0
  2 35  1  0  0  0  0
  2 36  1  0  0  0  0
  3 31  1  0  0  0  0
  3  4  2  0  0  0  0
  4  5  1  0  0  0  0
  4 24  1  0  0  0  0
  5  6  2  0  0  0  0
  5  7  1  0  0  0  0
  7  8  1  0  0  0  0
  7 37  1  0  0  0  0
  8  9  1  0  0  0  0
  8 38  1  0  0  0  0
  8 39  1  0  0  0  0
  9 10  1  0  0  0  0
  9 40  1  0  0  0  0
  9 41  1  0  0  0  0
 10 23  2  0  0  0  0
 10 11  1  0  0  0  0
 11 12  2  0  0  0  0
 11 42  1  0  0  0  0
 12 13  1  0  0  0  0
 12 43  1  0  0  0  0
 13 14  1  0  0  0  0
 13 22  2  0  0  0  0
 14 15  2  0  0  0  0
 14 16  1  0  0  0  0
 16 21  2  0  0  0  0
 16 17  1  0  0  0  0
 17 18  2  0  0  0  0
 17 44  1  0  0  0  0
 18 19  1  0  0  0  0
 18 45  1  0  0  0  0
 19 20  2  0  0  0  0
 19 46  1  0  0  0  0
 20 21  1  0  0  0  0
 20 47  1  0  0  0  0
 21 48  1  0  0  0  0
 22 23  1  0  0  0  0
 22 49  1  0  0  0  0
 23 50  1  0  0  0  0
 24 25  1  0  0  0  0
 24 51  1  0  0  0  0
 25 31  2  0  0  0  0
 25 26  1  0  0  0  0
 26 27  2  0  0  0  0
 26 52  1  0  0  0  0
 27 28  1  0  0  0  0
 27 53  1  0  0  0  0
 28 29  1  0  0  0  0
 28 30  2  0  0  0  0
 30 31  1  0  0  0  0
 30 54  1  0  0  0  0
M  END
$$$$
