CHEMBL482741
 OpenBabel12022417453D

 47 50  0  0  0  0  0  0  0  0999 V2000
    2.6750   -0.2507   -1.4707 C   0  0  0  0  0  0  0  0  0  0  0  0
    2.6829    0.0949    0.0226 C   0  0  0  0  0  0  0  0  0  0  0  0
    3.4573   -0.9462    0.8238 C   0  0  0  0  0  0  0  0  0  0  0  0
    3.1539    1.4687    0.2531 N   0  0  0  0  0  0  0  0  0  0  0  0
    4.5343    1.8163   -0.0960 C   0  0  0  0  0  0  0  0  0  0  0  0
    4.8574    3.3096   -0.1233 C   0  0  0  0  0  0  0  0  0  0  0  0
    3.9052    4.0317   -0.9111 O   0  0  0  0  0  0  0  0  0  0  0  0
    2.7877    4.3181   -0.1991 C   0  0  0  0  0  0  0  0  0  0  0  0
    2.1929    3.5782    0.8425 C   0  0  0  0  0  0  0  0  0  0  0  0
    2.5220    2.2064    1.2629 C   0  0  0  0  0  0  0  0  0  0  0  0
    2.1381    1.6981    2.3137 O   0  0  0  0  0  0  0  0  0  0  0  0
    1.1613    4.2524    1.3447 N   0  0  0  0  0  0  0  0  0  0  0  0
    0.9695    5.3173    0.5288 N   0  0  0  0  0  0  0  0  0  0  0  0
   -0.0988    6.2234    0.8157 C   0  0  0  0  0  0  0  0  0  0  0  0
    0.0468    7.5870    0.4989 C   0  0  0  0  0  0  0  0  0  0  0  0
   -1.0135    8.4826    0.6521 C   0  0  0  0  0  0  0  0  0  0  0  0
   -2.2179    8.0445    1.1842 C   0  0  0  0  0  0  0  0  0  0  0  0
   -2.3510    6.7120    1.5653 C   0  0  0  0  0  0  0  0  0  0  0  0
   -1.3134    5.7918    1.3845 C   0  0  0  0  0  0  0  0  0  0  0  0
   -1.7153    4.1545    1.7851 Cl  0  0  0  0  0  0  0  0  0  0  0  0
    1.9414    5.3677   -0.4860 C   0  0  0  0  0  0  0  0  0  0  0  0
    1.9856    6.2882   -1.6457 C   0  0  0  0  0  0  0  0  0  0  0  0
    3.2218    6.7253   -2.1492 C   0  0  0  0  0  0  0  0  0  0  0  0
    3.2902    7.6406   -3.2015 C   0  0  0  0  0  0  0  0  0  0  0  0
    2.1189    8.1535   -3.7478 C   0  0  0  0  0  0  0  0  0  0  0  0
    0.8827    7.7136   -3.2913 C   0  0  0  0  0  0  0  0  0  0  0  0
    0.8207    6.7485   -2.2817 C   0  0  0  0  0  0  0  0  0  0  0  0
    2.2009    9.3337   -4.9953 Cl  0  0  0  0  0  0  0  0  0  0  0  0
    2.3211   -1.2735   -1.6341 H   0  0  0  0  0  0  0  0  0  0  0  0
    3.6685   -0.1762   -1.9217 H   0  0  0  0  0  0  0  0  0  0  0  0
    2.0114    0.4274   -2.0196 H   0  0  0  0  0  0  0  0  0  0  0  0
    1.6363    0.0525    0.3551 H   0  0  0  0  0  0  0  0  0  0  0  0
    4.5326   -0.8848    0.6342 H   0  0  0  0  0  0  0  0  0  0  0  0
    3.1287   -1.9574    0.5609 H   0  0  0  0  0  0  0  0  0  0  0  0
    3.2949   -0.8092    1.8973 H   0  0  0  0  0  0  0  0  0  0  0  0
    4.7437    1.4144   -1.0893 H   0  0  0  0  0  0  0  0  0  0  0  0
    5.1980    1.3250    0.6237 H   0  0  0  0  0  0  0  0  0  0  0  0
    5.8393    3.4490   -0.5899 H   0  0  0  0  0  0  0  0  0  0  0  0
    4.9394    3.7320    0.8879 H   0  0  0  0  0  0  0  0  0  0  0  0
    0.9846    7.9848    0.1196 H   0  0  0  0  0  0  0  0  0  0  0  0
   -0.8958    9.5203    0.3462 H   0  0  0  0  0  0  0  0  0  0  0  0
   -3.0482    8.7350    1.3081 H   0  0  0  0  0  0  0  0  0  0  0  0
   -3.3064    6.3823    1.9836 H   0  0  0  0  0  0  0  0  0  0  0  0
    4.1539    6.3595   -1.7235 H   0  0  0  0  0  0  0  0  0  0  0  0
    4.2594    7.9571   -3.5729 H   0  0  0  0  0  0  0  0  0  0  0  0
   -0.0378    8.1206   -3.7021 H   0  0  0  0  0  0  0  0  0  0  0  0
   -0.1628    6.3993   -1.9733 H   0  0  0  0  0  0  0  0  0  0  0  0
  1  2  1  0  0  0  0
  1 29  1  0  0  0  0
  1 30  1  0  0  0  0
  1 31  1  0  0  0  0
  2  3  1  0  0  0  0
  2  4  1  0  0  0  0
  2 32  1  0  0  0  0
  3 33  1  0  0  0  0
  3 34  1  0  0  0  0
  3 35  1  0  0  0  0
  4 10  1  0  0  0  0
  4  5  1  0  0  0  0
  5  6  1  0  0  0  0
  5 36  1  0  0  0  0
  5 37  1  0  0  0  0
  6  7  1  0  0  0  0
  6 38  1  0  0  0  0
  6 39  1  0  0  0  0
  7  8  1  0  0  0  0
  8 21  2  0  0  0  0
  8  9  1  0  0  0  0
  9 10  1  0  0  0  0
  9 12  2  0  0  0  0
 10 11  2  0  0  0  0
 12 13  1  0  0  0  0
 13 14  1  0  0  0  0
 13 21  1  0  0  0  0
 14 19  2  0  0  0  0
 14 15  1  0  0  0  0
 15 16  2  0  0  0  0
 15 40  1  0  0  0  0
 16 17  1  0  0  0  0
 16 41  1  0  0  0  0
 17 18  2  0  0  0  0
 17 42  1  0  0  0  0
 18 19  1  0  0  0  0
 18 43  1  0  0  0  0
 19 20  1  0  0  0  0
 21 22  1  0  0  0  0
 22 27  2  0  0  0  0
 22 23  1  0  0  0  0
 23 24  2  0  0  0  0
 23 44  1  0  0  0  0
 24 25  1  0  0  0  0
 24 45  1  0  0  0  0
 25 26  2  0  0  0  0
 25 28  1  0  0  0  0
 26 27  1  0  0  0  0
 26 46  1  0  0  0  0
 27 47  1  0  0  0  0
M  END
$$$$
CHEMBL520345
 OpenBabel12022417453D

 50 53  0  0  0  0  0  0  0  0999 V2000
    5.6316   -2.8128    1.9446 C   0  0  0  0  0  0  0  0  0  0  0  0
    4.9076   -1.6644    2.6325 C   0  0  0  0  0  0  0  0  0  0  0  0
    3.6253   -1.3015    1.8984 C   0  0  0  0  0  0  0  0  0  0  0  0
    2.8370   -0.1569    2.5425 C   0  0  0  0  0  0  0  0  0  0  0  0
    3.5328    1.1396    2.7068 N   0  0  0  0  0  0  0  0  0  0  0  0
    4.0987    1.7503    1.5021 C   0  0  0  0  0  0  0  0  0  0  0  0
    4.7900    3.0939    1.6745 C   0  0  0  0  0  0  0  0  0  0  0  0
    3.8209    4.1278    1.8143 O   0  0  0  0  0  0  0  0  0  0  0  0
    3.3676    4.2209    3.0833 C   0  0  0  0  0  0  0  0  0  0  0  0
    3.2300    3.2133    4.0547 C   0  0  0  0  0  0  0  0  0  0  0  0
    3.3951    1.7477    3.9642 C   0  0  0  0  0  0  0  0  0  0  0  0
    3.3247    1.0281    4.9667 O   0  0  0  0  0  0  0  0  0  0  0  0
    2.8079    3.7657    5.1998 N   0  0  0  0  0  0  0  0  0  0  0  0
    2.5763    5.0754    4.9449 N   0  0  0  0  0  0  0  0  0  0  0  0
    2.1431    5.9152    6.0284 C   0  0  0  0  0  0  0  0  0  0  0  0
    2.5155    7.2732    6.0324 C   0  0  0  0  0  0  0  0  0  0  0  0
    2.0105    8.1580    6.9885 C   0  0  0  0  0  0  0  0  0  0  0  0
    1.1780    7.6900    7.9956 C   0  0  0  0  0  0  0  0  0  0  0  0
    0.8658    6.3336    8.0548 C   0  0  0  0  0  0  0  0  0  0  0  0
    1.3375    5.4391    7.0805 C   0  0  0  0  0  0  0  0  0  0  0  0
    0.7484    3.8187    7.2478 Cl  0  0  0  0  0  0  0  0  0  0  0  0
    2.8632    5.4006    3.6102 C   0  0  0  0  0  0  0  0  0  0  0  0
    2.6359    6.6889    2.9215 C   0  0  0  0  0  0  0  0  0  0  0  0
    3.5662    7.1505    1.9743 C   0  0  0  0  0  0  0  0  0  0  0  0
    3.4101    8.3891    1.3438 C   0  0  0  0  0  0  0  0  0  0  0  0
    2.3302    9.1992    1.6727 C   0  0  0  0  0  0  0  0  0  0  0  0
    1.3766    8.7542    2.5827 C   0  0  0  0  0  0  0  0  0  0  0  0
    1.5079    7.4886    3.1692 C   0  0  0  0  0  0  0  0  0  0  0  0
    2.1761   10.7543    0.9559 Cl  0  0  0  0  0  0  0  0  0  0  0  0
    3.9131   -0.9763    0.6077 F   0  0  0  0  0  0  0  0  0  0  0  0
    2.8200   -2.3978    1.8342 F   0  0  0  0  0  0  0  0  0  0  0  0
    6.5969   -2.9947    2.4250 H   0  0  0  0  0  0  0  0  0  0  0  0
    5.8145   -2.5896    0.8883 H   0  0  0  0  0  0  0  0  0  0  0  0
    5.0436   -3.7352    2.0016 H   0  0  0  0  0  0  0  0  0  0  0  0
    5.5806   -0.8016    2.6664 H   0  0  0  0  0  0  0  0  0  0  0  0
    4.6784   -1.9562    3.6634 H   0  0  0  0  0  0  0  0  0  0  0  0
    2.4295   -0.5064    3.4973 H   0  0  0  0  0  0  0  0  0  0  0  0
    1.9602    0.0522    1.9159 H   0  0  0  0  0  0  0  0  0  0  0  0
    3.3024    1.8189    0.7539 H   0  0  0  0  0  0  0  0  0  0  0  0
    4.8605    1.0527    1.1401 H   0  0  0  0  0  0  0  0  0  0  0  0
    5.3561    3.3223    0.7643 H   0  0  0  0  0  0  0  0  0  0  0  0
    5.5171    3.0975    2.4997 H   0  0  0  0  0  0  0  0  0  0  0  0
    3.2085    7.6763    5.2978 H   0  0  0  0  0  0  0  0  0  0  0  0
    2.2686    9.2135    6.9417 H   0  0  0  0  0  0  0  0  0  0  0  0
    0.7760    8.3739    8.7387 H   0  0  0  0  0  0  0  0  0  0  0  0
    0.2251    5.9748    8.8581 H   0  0  0  0  0  0  0  0  0  0  0  0
    4.4349    6.5504    1.7137 H   0  0  0  0  0  0  0  0  0  0  0  0
    4.1428    8.7146    0.6100 H   0  0  0  0  0  0  0  0  0  0  0  0
    0.5324    9.3860    2.8470 H   0  0  0  0  0  0  0  0  0  0  0  0
    0.7280    7.1613    3.8543 H   0  0  0  0  0  0  0  0  0  0  0  0
  1  2  1  0  0  0  0
  1 32  1  0  0  0  0
  1 33  1  0  0  0  0
  1 34  1  0  0  0  0
  2  3  1  0  0  0  0
  2 35  1  0  0  0  0
  2 36  1  0  0  0  0
  3  4  1  0  0  0  0
  3 30  1  0  0  0  0
  3 31  1  0  0  0  0
  4  5  1  0  0  0  0
  4 37  1  0  0  0  0
  4 38  1  0  0  0  0
  5 11  1  0  0  0  0
  5  6  1  0  0  0  0
  6  7  1  0  0  0  0
  6 39  1  0  0  0  0
  6 40  1  0  0  0  0
  7  8  1  0  0  0  0
  7 41  1  0  0  0  0
  7 42  1  0  0  0  0
  8  9  1  0  0  0  0
  9 22  2  0  0  0  0
  9 10  1  0  0  0  0
 10 11  1  0  0  0  0
 10 13  2  0  0  0  0
 11 12  2  0  0  0  0
 13 14  1  0  0  0  0
 14 15  1  0  0  0  0
 14 22  1  0  0  0  0
 15 20  2  0  0  0  0
 15 16  1  0  0  0  0
 16 17  2  0  0  0  0
 16 43  1  0  0  0  0
 17 18  1  0  0  0  0
 17 44  1  0  0  0  0
 18 19  2  0  0  0  0
 18 45  1  0  0  0  0
 19 20  1  0  0  0  0
 19 46  1  0  0  0  0
 20 21  1  0  0  0  0
 22 23  1  0  0  0  0
 23 28  2  0  0  0  0
 23 24  1  0  0  0  0
 24 25  2  0  0  0  0
 24 47  1  0  0  0  0
 25 26  1  0  0  0  0
 25 48  1  0  0  0  0
 26 27  2  0  0  0  0
 26 29  1  0  0  0  0
 27 28  1  0  0  0  0
 27 49  1  0  0  0  0
 28 50  1  0  0  0  0
M  END
$$$$
CHEMBL244403
 OpenBabel12022417453D

 52 55  0  0  0  0  0  0  0  0999 V2000
    2.0586    2.4669    1.0497 C   0  0  0  0  0  0  0  0  0  0  0  0
    3.2149    1.5529    0.6755 C   0  0  0  0  0  0  0  0  0  0  0  0
    3.8031    1.9329   -0.6796 C   0  0  0  0  0  0  0  0  0  0  0  0
    4.9706    1.0248   -1.0703 C   0  0  0  0  0  0  0  0  0  0  0  0
    5.5230    1.4329   -2.4322 C   0  0  0  0  0  0  0  0  0  0  0  0
    6.6164    0.5826   -2.7875 O   0  0  0  0  0  0  0  0  0  0  0  0
    7.2318    0.8437   -3.9960 C   0  0  0  0  0  0  0  0  0  0  0  0
    6.7629    1.8044   -4.8917 C   0  0  0  0  0  0  0  0  0  0  0  0
    7.4125    2.0189   -6.0997 C   0  0  0  0  0  0  0  0  0  0  0  0
    8.5937    1.3311   -6.4126 C   0  0  0  0  0  0  0  0  0  0  0  0
    9.2702    1.6660   -7.7134 C   0  0  0  0  0  0  0  0  0  0  0  0
    9.8660    0.7825   -8.3210 O   0  0  0  0  0  0  0  0  0  0  0  0
    9.2267    3.0543   -8.2928 C   0  0  0  0  0  0  0  0  0  0  0  0
    9.2387    3.2774   -9.7083 C   0  0  0  0  0  0  0  0  0  0  0  0
    9.2913    2.2647  -10.7031 C   0  0  0  0  0  0  0  0  0  0  0  0
    9.3527    2.5585  -12.0672 C   0  0  0  0  0  0  0  0  0  0  0  0
    9.3356    3.8773  -12.4896 C   0  0  0  0  0  0  0  0  0  0  0  0
    9.2431    4.8988  -11.5466 C   0  0  0  0  0  0  0  0  0  0  0  0
    9.1955    4.6183  -10.1707 C   0  0  0  0  0  0  0  0  0  0  0  0
    9.1081    5.6806   -9.2585 C   0  0  0  0  0  0  0  0  0  0  0  0
    9.1143    5.4503   -7.8877 C   0  0  0  0  0  0  0  0  0  0  0  0
    9.2075    4.1490   -7.4084 C   0  0  0  0  0  0  0  0  0  0  0  0
    9.0886    0.3247   -5.5292 C   0  0  0  0  0  0  0  0  0  0  0  0
   10.2527   -0.4518   -5.7706 C   0  0  0  0  0  0  0  0  0  0  0  0
   10.6775   -1.4628   -4.9083 C   0  0  0  0  0  0  0  0  0  0  0  0
    9.9626   -1.7214   -3.7532 C   0  0  0  0  0  0  0  0  0  0  0  0
    8.8354   -0.9552   -3.4578 C   0  0  0  0  0  0  0  0  0  0  0  0
    8.3788    0.0704   -4.3184 C   0  0  0  0  0  0  0  0  0  0  0  0
    1.6481    2.1791    2.0238 H   0  0  0  0  0  0  0  0  0  0  0  0
    1.2528    2.4058    0.3106 H   0  0  0  0  0  0  0  0  0  0  0  0
    2.3864    3.5100    1.1146 H   0  0  0  0  0  0  0  0  0  0  0  0
    2.8606    0.5159    0.6501 H   0  0  0  0  0  0  0  0  0  0  0  0
    3.9887    1.6149    1.4488 H   0  0  0  0  0  0  0  0  0  0  0  0
    4.1445    2.9757   -0.6515 H   0  0  0  0  0  0  0  0  0  0  0  0
    3.0213    1.8741   -1.4470 H   0  0  0  0  0  0  0  0  0  0  0  0
    4.6471   -0.0225   -1.1054 H   0  0  0  0  0  0  0  0  0  0  0  0
    5.7665    1.0751   -0.3177 H   0  0  0  0  0  0  0  0  0  0  0  0
    5.8652    2.4741   -2.3793 H   0  0  0  0  0  0  0  0  0  0  0  0
    4.7214    1.3351   -3.1738 H   0  0  0  0  0  0  0  0  0  0  0  0
    5.8829    2.4071   -4.6908 H   0  0  0  0  0  0  0  0  0  0  0  0
    6.9789    2.7429   -6.7859 H   0  0  0  0  0  0  0  0  0  0  0  0
    9.3051    1.2108  -10.4322 H   0  0  0  0  0  0  0  0  0  0  0  0
    9.4237    1.7494  -12.7905 H   0  0  0  0  0  0  0  0  0  0  0  0
    9.3947    4.1125  -13.5483 H   0  0  0  0  0  0  0  0  0  0  0  0
    9.2248    5.9283  -11.9009 H   0  0  0  0  0  0  0  0  0  0  0  0
    9.0486    6.7074   -9.6140 H   0  0  0  0  0  0  0  0  0  0  0  0
    9.0568    6.2863   -7.1950 H   0  0  0  0  0  0  0  0  0  0  0  0
    9.2572    4.0045   -6.3321 H   0  0  0  0  0  0  0  0  0  0  0  0
   10.8571   -0.2942   -6.6609 H   0  0  0  0  0  0  0  0  0  0  0  0
   11.5602   -2.0473   -5.1547 H   0  0  0  0  0  0  0  0  0  0  0  0
   10.2784   -2.5143   -3.0813 H   0  0  0  0  0  0  0  0  0  0  0  0
    8.2964   -1.1767   -2.5380 H   0  0  0  0  0  0  0  0  0  0  0  0
  1  2  1  0  0  0  0
  1 29  1  0  0  0  0
  1 30  1  0  0  0  0
  1 31  1  0  0  0  0
  2  3  1  0  0  0  0
  2 32  1  0  0  0  0
  2 33  1  0  0  0  0
  3  4  1  0  0  0  0
  3 34  1  0  0  0  0
  3 35  1  0  0  0  0
  4  5  1  0  0  0  0
  4 36  1  0  0  0  0
  4 37  1  0  0  0  0
  5  6  1  0  0  0  0
  5 38  1  0  0  0  0
  5 39  1  0  0  0  0
  6  7  1  0  0  0  0
  7 28  2  0  0  0  0
  7  8  1  0  0  0  0
  8  9  2  0  0  0  0
  8 40  1  0  0  0  0
  9 10  1  0  0  0  0
  9 41  1  0  0  0  0
 10 11  1  0  0  0  0
 10 23  2  0  0  0  0
 11 12  2  0  0  0  0
 11 13  1  0  0  0  0
 13 22  2  0  0  0  0
 13 14  1  0  0  0  0
 14 19  2  0  0  0  0
 14 15  1  0  0  0  0
 15 16  2  0  0  0  0
 15 42  1  0  0  0  0
 16 17  1  0  0  0  0
 16 43  1  0  0  0  0
 17 18  2  0  0  0  0
 17 44  1  0  0  0  0
 18 19  1  0  0  0  0
 18 45  1  0  0  0  0
 19 20  1  0  0  0  0
 20 21  2  0  0  0  0
 20 46  1  0  0  0  0
 21 22  1  0  0  0  0
 21 47  1  0  0  0  0
 22 48  1  0  0  0  0
 23 28  1  0  0  0  0
 23 24  1  0  0  0  0
 24 25  2  0  0  0  0
 24 49  1  0  0  0  0
 25 26  1  0  0  0  0
 25 50  1  0  0  0  0
 26 27  2  0  0  0  0
 26 51  1  0  0  0  0
 27 28  1  0  0  0  0
 27 52  1  0  0  0  0
M  END
$$$$
CHEMBL1828801
 OpenBabel12022417453D

 53 56  0  0  0  0  0  0  0  0999 V2000
    0.9162   -2.4359   -0.1844 C   0  0  0  0  0  0  0  0  0  0  0  0
    2.4342   -2.4645   -0.1963 C   0  0  0  0  0  0  0  0  0  0  0  0
    2.9916   -1.7580   -1.4303 C   0  0  0  0  0  0  0  0  0  0  0  0
    4.5174   -1.7894   -1.4297 C   0  0  0  0  0  0  0  0  0  0  0  0
    5.0836   -1.1065   -2.6718 C   0  0  0  0  0  0  0  0  0  0  0  0
    6.5387   -1.0975   -2.6811 N   0  0  0  0  0  0  0  0  0  0  0  0
    7.3036   -2.2344   -2.7051 C   0  0  0  0  0  0  0  0  0  0  0  0
    8.6315   -1.8786   -2.8002 C   0  0  0  0  0  0  0  0  0  0  0  0
    9.7980   -2.7697   -2.9645 C   0  0  0  0  0  0  0  0  0  0  0  0
   10.9411   -2.3703   -2.7754 O   0  0  0  0  0  0  0  0  0  0  0  0
    9.5806   -4.1734   -3.4156 C   0  0  0  0  0  0  0  0  0  0  0  0
    8.6816   -4.3601   -4.4889 C   0  0  0  0  0  0  0  0  0  0  0  0
    8.4209   -5.6262   -4.9976 C   0  0  0  0  0  0  0  0  0  0  0  0
    9.1190   -6.7121   -4.4964 C   0  0  0  0  0  0  0  0  0  0  0  0
   10.0419   -6.5335   -3.4602 C   0  0  0  0  0  0  0  0  0  0  0  0
   10.2829   -5.2725   -2.8613 C   0  0  0  0  0  0  0  0  0  0  0  0
   11.1842   -5.2044   -1.6729 C   0  0  0  0  0  0  0  0  0  0  0  0
   12.3180   -6.0312   -1.5575 C   0  0  0  0  0  0  0  0  0  0  0  0
   13.1220   -6.0270   -0.4097 C   0  0  0  0  0  0  0  0  0  0  0  0
   12.8442   -5.1495    0.6304 C   0  0  0  0  0  0  0  0  0  0  0  0
   11.7512   -4.2990    0.5363 C   0  0  0  0  0  0  0  0  0  0  0  0
   10.9139   -4.3575   -0.5812 C   0  0  0  0  0  0  0  0  0  0  0  0
    8.6738   -0.4471   -2.7241 C   0  0  0  0  0  0  0  0  0  0  0  0
    9.7189    0.4927   -2.7147 C   0  0  0  0  0  0  0  0  0  0  0  0
    9.4320    1.8569   -2.6905 C   0  0  0  0  0  0  0  0  0  0  0  0
    8.1140    2.2978   -2.6808 C   0  0  0  0  0  0  0  0  0  0  0  0
    7.0503    1.3888   -2.6862 C   0  0  0  0  0  0  0  0  0  0  0  0
    7.3517    0.0134   -2.6922 C   0  0  0  0  0  0  0  0  0  0  0  0
    0.5343   -2.9467    0.7047 H   0  0  0  0  0  0  0  0  0  0  0  0
    0.5090   -2.9378   -1.0679 H   0  0  0  0  0  0  0  0  0  0  0  0
    0.5457   -1.4060   -0.1723 H   0  0  0  0  0  0  0  0  0  0  0  0
    2.7766   -3.5061   -0.1768 H   0  0  0  0  0  0  0  0  0  0  0  0
    2.8133   -1.9819    0.7121 H   0  0  0  0  0  0  0  0  0  0  0  0
    2.6435   -0.7182   -1.4515 H   0  0  0  0  0  0  0  0  0  0  0  0
    2.6126   -2.2454   -2.3369 H   0  0  0  0  0  0  0  0  0  0  0  0
    4.8543   -2.8322   -1.3849 H   0  0  0  0  0  0  0  0  0  0  0  0
    4.9009   -1.2956   -0.5278 H   0  0  0  0  0  0  0  0  0  0  0  0
    4.7255   -0.0754   -2.7346 H   0  0  0  0  0  0  0  0  0  0  0  0
    4.7669   -1.6219   -3.5855 H   0  0  0  0  0  0  0  0  0  0  0  0
    6.8302   -3.2149   -2.6841 H   0  0  0  0  0  0  0  0  0  0  0  0
    8.1677   -3.5114   -4.9368 H   0  0  0  0  0  0  0  0  0  0  0  0
    7.6867   -5.7565   -5.7879 H   0  0  0  0  0  0  0  0  0  0  0  0
    8.9433   -7.7050   -4.9015 H   0  0  0  0  0  0  0  0  0  0  0  0
   10.5594   -7.4212   -3.0997 H   0  0  0  0  0  0  0  0  0  0  0  0
   12.5996   -6.7052   -2.3654 H   0  0  0  0  0  0  0  0  0  0  0  0
   13.9688   -6.7031   -0.3374 H   0  0  0  0  0  0  0  0  0  0  0  0
   13.4777   -5.1232    1.5134 H   0  0  0  0  0  0  0  0  0  0  0  0
   11.5370   -3.5870    1.3299 H   0  0  0  0  0  0  0  0  0  0  0  0
   10.0461   -3.7044   -0.5810 H   0  0  0  0  0  0  0  0  0  0  0  0
   10.7551    0.1553   -2.7256 H   0  0  0  0  0  0  0  0  0  0  0  0
   10.2490    2.5781   -2.6834 H   0  0  0  0  0  0  0  0  0  0  0  0
    7.9043    3.3640   -2.6738 H   0  0  0  0  0  0  0  0  0  0  0  0
    6.0292    1.7518   -2.6803 H   0  0  0  0  0  0  0  0  0  0  0  0
  1  2  1  0  0  0  0
  1 29  1  0  0  0  0
  1 30  1  0  0  0  0
  1 31  1  0  0  0  0
  2  3  1  0  0  0  0
  2 32  1  0  0  0  0
  2 33  1  0  0  0  0
  3  4  1  0  0  0  0
  3 34  1  0  0  0  0
  3 35  1  0  0  0  0
  4  5  1  0  0  0  0
  4 36  1  0  0  0  0
  4 37  1  0  0  0  0
  5  6  1  0  0  0  0
  5 38  1  0  0  0  0
  5 39  1  0  0  0  0
  6 28  1  0  0  0  0
  6  7  1  0  0  0  0
  7  8  2  0  0  0  0
  7 40  1  0  0  0  0
  8  9  1  0  0  0  0
  8 23  1  0  0  0  0
  9 10  2  0  0  0  0
  9 11  1  0  0  0  0
 11 16  2  0  0  0  0
 11 12  1  0  0  0  0
 12 13  2  0  0  0  0
 12 41  1  0  0  0  0
 13 14  1  0  0  0  0
 13 42  1  0  0  0  0
 14 15  2  0  0  0  0
 14 43  1  0  0  0  0
 15 16  1  0  0  0  0
 15 44  1  0  0  0  0
 16 17  1  0  0  0  0
 17 22  2  0  0  0  0
 17 18  1  0  0  0  0
 18 19  2  0  0  0  0
 18 45  1  0  0  0  0
 19 20  1  0  0  0  0
 19 46  1  0  0  0  0
 20 21  2  0  0  0  0
 20 47  1  0  0  0  0
 21 22  1  0  0  0  0
 21 48  1  0  0  0  0
 22 49  1  0  0  0  0
 23 28  2  0  0  0  0
 23 24  1  0  0  0  0
 24 25  2  0  0  0  0
 24 50  1  0  0  0  0
 25 26  1  0  0  0  0
 25 51  1  0  0  0  0
 26 27  2  0  0  0  0
 26 52  1  0  0  0  0
 27 28  1  0  0  0  0
 27 53  1  0  0  0  0
M  END
$$$$
CHEMBL1828812
 OpenBabel12022417453D

 48 51  0  0  0  0  0  0  0  0999 V2000
    2.2007   -0.3615    0.3291 C   0  0  0  0  0  0  0  0  0  0  0  0
    1.7875   -1.4626    0.7137 O   0  0  0  0  0  0  0  0  0  0  0  0
    1.3101    0.9597    0.6443 C   0  0  0  0  0  0  0  0  0  0  0  0
    0.0390    1.0280    1.4200 C   0  0  0  0  0  0  0  0  0  0  0  0
   -0.7621    0.0805    2.0783 C   0  0  0  0  0  0  0  0  0  0  0  0
   -1.9199    0.4325    2.7162 N   0  0  0  0  0  0  0  0  0  0  0  0
   -2.3124    1.7200    2.7272 C   0  0  0  0  0  0  0  0  0  0  0  0
   -1.6160    2.7381    2.1184 C   0  0  0  0  0  0  0  0  0  0  0  0
   -0.4364    2.3572    1.4583 C   0  0  0  0  0  0  0  0  0  0  0  0
    0.4279    3.1218    0.7199 N   0  0  0  0  0  0  0  0  0  0  0  0
    1.4442    2.3034    0.2325 C   0  0  0  0  0  0  0  0  0  0  0  0
    0.1600    4.5151    0.3345 C   0  0  0  0  0  0  0  0  0  0  0  0
    0.5599    5.6312    1.3234 C   0  0  0  0  0  0  0  0  0  0  0  0
    2.0716    5.7588    1.4998 C   0  0  0  0  0  0  0  0  0  0  0  0
    2.4669    6.9245    2.4139 C   0  0  0  0  0  0  0  0  0  0  0  0
    3.9770    6.9720    2.6057 C   0  0  0  0  0  0  0  0  0  0  0  0
    3.6281   -0.3464   -0.3585 C   0  0  0  0  0  0  0  0  0  0  0  0
    4.0583    0.9628   -0.5003 C   0  0  0  0  0  0  0  0  0  0  0  0
    5.3769    1.1950   -0.7809 C   0  0  0  0  0  0  0  0  0  0  0  0
    5.7166    0.5496   -1.9215 C   0  0  0  0  0  0  0  0  0  0  0  0
    5.4944   -0.8159   -1.9368 C   0  0  0  0  0  0  0  0  0  0  0  0
    6.3393   -1.4894   -2.8376 C   0  0  0  0  0  0  0  0  0  0  0  0
    6.5774   -2.8414   -2.7227 C   0  0  0  0  0  0  0  0  0  0  0  0
    5.9165   -3.5027   -1.7036 C   0  0  0  0  0  0  0  0  0  0  0  0
    4.9122   -2.8428   -0.8956 C   0  0  0  0  0  0  0  0  0  0  0  0
    4.5805   -1.3967   -0.9746 C   0  0  0  0  0  0  0  0  0  0  0  0
   -0.5198   -0.9729    2.0997 H   0  0  0  0  0  0  0  0  0  0  0  0
   -3.2463    1.9279    3.2484 H   0  0  0  0  0  0  0  0  0  0  0  0
   -1.9809    3.7600    2.1409 H   0  0  0  0  0  0  0  0  0  0  0  0
    2.1510    2.8183   -0.3934 H   0  0  0  0  0  0  0  0  0  0  0  0
   -0.9248    4.5952    0.1716 H   0  0  0  0  0  0  0  0  0  0  0  0
    0.6189    4.6887   -0.6444 H   0  0  0  0  0  0  0  0  0  0  0  0
    0.0764    5.4847    2.2969 H   0  0  0  0  0  0  0  0  0  0  0  0
    0.1764    6.5873    0.9351 H   0  0  0  0  0  0  0  0  0  0  0  0
    2.5378    5.9032    0.5180 H   0  0  0  0  0  0  0  0  0  0  0  0
    2.4616    4.8255    1.9178 H   0  0  0  0  0  0  0  0  0  0  0  0
    1.9841    6.8206    3.3926 H   0  0  0  0  0  0  0  0  0  0  0  0
    2.1298    7.8770    1.9870 H   0  0  0  0  0  0  0  0  0  0  0  0
    4.3429    6.0386    3.0459 H   0  0  0  0  0  0  0  0  0  0  0  0
    4.2565    7.7933    3.2730 H   0  0  0  0  0  0  0  0  0  0  0  0
    4.4885    7.1226    1.6494 H   0  0  0  0  0  0  0  0  0  0  0  0
    3.3687    1.5996   -1.0415 H   0  0  0  0  0  0  0  0  0  0  0  0
    6.0208    0.8514    0.0659 H   0  0  0  0  0  0  0  0  0  0  0  0
    6.3966    1.0350   -2.6199 H   0  0  0  0  0  0  0  0  0  0  0  0
    6.9187   -0.9372   -3.5865 H   0  0  0  0  0  0  0  0  0  0  0  0
    7.3116   -3.3150   -3.3704 H   0  0  0  0  0  0  0  0  0  0  0  0
    6.2060   -4.5414   -1.5313 H   0  0  0  0  0  0  0  0  0  0  0  0
    4.4672   -3.4597   -0.1232 H   0  0  0  0  0  0  0  0  0  0  0  0
  1  2  2  0  0  0  0
  1  3  1  0  0  0  0
  1 17  1  0  0  0  0
  3 11  2  0  0  0  0
  3  4  1  0  0  0  0
  4  9  2  0  0  0  0
  4  5  1  0  0  0  0
  5  6  2  0  0  0  0
  5 27  1  0  0  0  0
  6  7  1  0  0  0  0
  7  8  2  0  0  0  0
  7 28  1  0  0  0  0
  8  9  1  0  0  0  0
  8 29  1  0  0  0  0
  9 10  1  0  0  0  0
 10 11  1  0  0  0  0
 10 12  1  0  0  0  0
 11 30  1  0  0  0  0
 12 13  1  0  0  0  0
 12 31  1  0  0  0  0
 12 32  1  0  0  0  0
 13 14  1  0  0  0  0
 13 33  1  0  0  0  0
 13 34  1  0  0  0  0
 14 15  1  0  0  0  0
 14 35  1  0  0  0  0
 14 36  1  0  0  0  0
 15 16  1  0  0  0  0
 15 37  1  0  0  0  0
 15 38  1  0  0  0  0
 16 39  1  0  0  0  0
 16 40  1  0  0  0  0
 16 41  1  0  0  0  0
 17 26  2  0  0  0  0
 17 18  1  0  0  0  0
 18 19  2  0  0  0  0
 18 42  1  0  0  0  0
 19 20  1  0  0  0  0
 19 43  1  0  0  0  0
 20 21  2  0  0  0  0
 20 44  1  0  0  0  0
 21 26  1  0  0  0  0
 21 22  1  0  0  0  0
 22 23  2  0  0  0  0
 22 45  1  0  0  0  0
 23 24  1  0  0  0  0
 23 46  1  0  0  0  0
 24 25  2  0  0  0  0
 24 47  1  0  0  0  0
 25 26  1  0  0  0  0
 25 48  1  0  0  0  0
M  END
$$$$
CHEMBL1828809
 OpenBabel12022417453D

 48 51  0  0  0  0  0  0  0  0999 V2000
    1.1056    0.0316    0.0074 C   0  0  0  0  0  0  0  0  0  0  0  0
    2.2190    0.1811    0.5191 O   0  0  0  0  0  0  0  0  0  0  0  0
    0.3117   -1.1598    0.2229 C   0  0  0  0  0  0  0  0  0  0  0  0
    0.2709   -2.0252    1.3483 C   0  0  0  0  0  0  0  0  0  0  0  0
   -0.5363   -3.1244    1.0472 C   0  0  0  0  0  0  0  0  0  0  0  0
   -0.7214   -4.2164    1.8174 N   0  0  0  0  0  0  0  0  0  0  0  0
    0.0151   -4.1750    2.9625 C   0  0  0  0  0  0  0  0  0  0  0  0
    0.8634   -3.1521    3.3653 C   0  0  0  0  0  0  0  0  0  0  0  0
    0.9857   -2.0428    2.5516 C   0  0  0  0  0  0  0  0  0  0  0  0
   -1.1003   -2.8561   -0.2075 N   0  0  0  0  0  0  0  0  0  0  0  0
   -0.5726   -1.6757   -0.6879 C   0  0  0  0  0  0  0  0  0  0  0  0
   -2.0110   -3.7068   -0.9550 C   0  0  0  0  0  0  0  0  0  0  0  0
   -3.2979   -3.9764   -0.1815 C   0  0  0  0  0  0  0  0  0  0  0  0
   -4.2536   -4.8582   -0.9448 C   0  0  0  0  0  0  0  0  0  0  0  0
   -5.5033   -5.0679   -0.0941 C   0  0  0  0  0  0  0  0  0  0  0  0
   -6.4925   -5.9426   -0.8101 C   0  0  0  0  0  0  0  0  0  0  0  0
    0.5616    1.0826   -0.9369 C   0  0  0  0  0  0  0  0  0  0  0  0
    1.6127    1.7450   -1.6335 C   0  0  0  0  0  0  0  0  0  0  0  0
    1.2913    2.4770   -2.7396 C   0  0  0  0  0  0  0  0  0  0  0  0
   -0.0045    2.9499   -2.8122 C   0  0  0  0  0  0  0  0  0  0  0  0
   -1.0273    2.5185   -1.9454 C   0  0  0  0  0  0  0  0  0  0  0  0
   -2.2564    3.1531   -1.8827 C   0  0  0  0  0  0  0  0  0  0  0  0
   -3.2339    2.7557   -0.9536 C   0  0  0  0  0  0  0  0  0  0  0  0
   -3.5969    1.4561   -1.0587 C   0  0  0  0  0  0  0  0  0  0  0  0
   -2.3372    0.8700   -0.9018 C   0  0  0  0  0  0  0  0  0  0  0  0
   -0.9009    1.3820   -1.2096 C   0  0  0  0  0  0  0  0  0  0  0  0
   -0.0926   -5.0322    3.6229 H   0  0  0  0  0  0  0  0  0  0  0  0
    1.4463   -3.2064    4.2756 H   0  0  0  0  0  0  0  0  0  0  0  0
    1.7112   -1.2666    2.7627 H   0  0  0  0  0  0  0  0  0  0  0  0
   -0.8319   -1.2751   -1.6574 H   0  0  0  0  0  0  0  0  0  0  0  0
   -1.4781   -4.6427   -1.1391 H   0  0  0  0  0  0  0  0  0  0  0  0
   -2.2472   -3.2373   -1.9172 H   0  0  0  0  0  0  0  0  0  0  0  0
   -3.8087   -3.0317    0.0500 H   0  0  0  0  0  0  0  0  0  0  0  0
   -3.0615   -4.4669    0.7718 H   0  0  0  0  0  0  0  0  0  0  0  0
   -3.7681   -5.8143   -1.1722 H   0  0  0  0  0  0  0  0  0  0  0  0
   -4.5043   -4.3849   -1.9013 H   0  0  0  0  0  0  0  0  0  0  0  0
   -5.9894   -4.1110    0.1290 H   0  0  0  0  0  0  0  0  0  0  0  0
   -5.2510   -5.5446    0.8603 H   0  0  0  0  0  0  0  0  0  0  0  0
   -6.7562   -5.5003   -1.7704 H   0  0  0  0  0  0  0  0  0  0  0  0
   -7.3782   -6.0746   -0.1747 H   0  0  0  0  0  0  0  0  0  0  0  0
   -6.0350   -6.9006   -1.0556 H   0  0  0  0  0  0  0  0  0  0  0  0
    2.6672    1.6661   -1.3637 H   0  0  0  0  0  0  0  0  0  0  0  0
    2.0190    2.7316   -3.5093 H   0  0  0  0  0  0  0  0  0  0  0  0
   -0.2323    3.6987   -3.5527 H   0  0  0  0  0  0  0  0  0  0  0  0
   -2.4913    3.8684   -2.6649 H   0  0  0  0  0  0  0  0  0  0  0  0
   -3.0482    2.6927    0.1589 H   0  0  0  0  0  0  0  0  0  0  0  0
   -4.5843    1.9417   -1.1949 H   0  0  0  0  0  0  0  0  0  0  0  0
   -2.2859    0.1184   -0.1210 H   0  0  0  0  0  0  0  0  0  0  0  0
  1  2  2  0  0  0  0
  1  3  1  0  0  0  0
  1 17  1  0  0  0  0
  3 11  2  0  0  0  0
  3  4  1  0  0  0  0
  4  9  2  0  0  0  0
  4  5  1  0  0  0  0
  5  6  2  0  0  0  0
  5 10  1  0  0  0  0
  6  7  1  0  0  0  0
  7  8  2  0  0  0  0
  7 27  1  0  0  0  0
  8  9  1  0  0  0  0
  8 28  1  0  0  0  0
  9 29  1  0  0  0  0
 10 11  1  0  0  0  0
 10 12  1  0  0  0  0
 11 30  1  0  0  0  0
 12 13  1  0  0  0  0
 12 31  1  0  0  0  0
 12 32  1  0  0  0  0
 13 14  1  0  0  0  0
 13 33  1  0  0  0  0
 13 34  1  0  0  0  0
 14 15  1  0  0  0  0
 14 35  1  0  0  0  0
 14 36  1  0  0  0  0
 15 16  1  0  0  0  0
 15 37  1  0  0  0  0
 15 38  1  0  0  0  0
 16 39  1  0  0  0  0
 16 40  1  0  0  0  0
 16 41  1  0  0  0  0
 17 26  2  0  0  0  0
 17 18  1  0  0  0  0
 18 19  2  0  0  0  0
 18 42  1  0  0  0  0
 19 20  1  0  0  0  0
 19 43  1  0  0  0  0
 20 21  2  0  0  0  0
 20 44  1  0  0  0  0
 21 26  1  0  0  0  0
 21 22  1  0  0  0  0
 22 23  2  0  0  0  0
 22 45  1  0  0  0  0
 23 24  1  0  0  0  0
 23 46  1  0  0  0  0
 24 25  2  0  0  0  0
 24 47  1  0  0  0  0
 25 26  1  0  0  0  0
 25 48  1  0  0  0  0
M  END
$$$$
CHEMBL3959009
 OpenBabel12022417453D

 62 66  0  0  1  0  0  0  0  0999 V2000
    1.0669   -0.0879   -0.8552 C   0  0  1  0  0  0  0  0  0  0  0  0
    0.5347   -1.1217   -1.8337 C   0  0  0  0  0  0  0  0  0  0  0  0
   -0.6889   -0.9027   -2.4726 C   0  0  0  0  0  0  0  0  0  0  0  0
   -1.1843   -1.8718   -3.3362 C   0  0  0  0  0  0  0  0  0  0  0  0
   -0.4549   -3.0356   -3.5402 C   0  0  0  0  0  0  0  0  0  0  0  0
    0.7477   -3.1809   -2.8663 C   0  0  0  0  0  0  0  0  0  0  0  0
    1.2561   -2.2593   -2.0194 N   0  0  0  0  0  0  0  0  0  0  0  0
    0.5603   -0.3859    0.5576 C   0  0  0  0  0  0  0  0  0  0  0  0
    2.5203   -0.0079   -0.8702 N   0  0  0  0  0  0  0  0  0  0  0  0
    3.1655    1.1367   -0.4653 C   0  0  0  0  0  0  0  0  0  0  0  0
    2.5327    2.1527   -0.1750 O   0  0  0  0  0  0  0  0  0  0  0  0
    4.6411    1.0935   -0.4333 C   0  0  0  0  0  0  0  0  0  0  0  0
    5.4912    2.2092   -0.1927 C   0  0  0  0  0  0  0  0  0  0  0  0
    6.7844    1.7363   -0.3497 C   0  0  0  0  0  0  0  0  0  0  0  0
    7.9827    2.5272   -0.2720 C   0  0  0  0  0  0  0  0  0  0  0  0
    8.9991    2.1244    0.5220 C   0  0  0  0  0  0  0  0  0  0  0  0
   10.2359    2.8870    0.7409 C   0  0  0  0  0  0  0  0  0  0  0  0
   11.3460    2.6868   -0.0915 C   0  0  0  0  0  0  0  0  0  0  0  0
   12.5201    3.4158    0.1136 C   0  0  0  0  0  0  0  0  0  0  0  0
   12.5800    4.3424    1.1473 C   0  0  0  0  0  0  0  0  0  0  0  0
   11.4868    4.5581    1.9779 C   0  0  0  0  0  0  0  0  0  0  0  0
   10.3116    3.8294    1.7748 C   0  0  0  0  0  0  0  0  0  0  0  0
   13.7079    5.0384    1.3456 F   0  0  0  0  0  0  0  0  0  0  0  0
    7.9723    3.8920   -0.9501 C   0  0  0  0  0  0  0  0  0  0  0  0
    7.2575    4.9631   -0.1135 C   0  0  0  0  0  0  0  0  0  0  0  0
    6.1320    4.4738    0.8094 C   0  0  0  0  0  0  0  0  0  0  0  0
    5.0682    3.6167    0.1192 C   0  0  0  0  0  0  0  0  0  0  0  0
    6.6745    0.3842   -0.6741 N   0  0  0  0  0  0  0  0  0  0  0  0
    7.6736   -0.5624   -1.0744 C   0  0  0  0  0  0  0  0  0  0  0  0
    8.8817   -0.1618   -1.6624 C   0  0  0  0  0  0  0  0  0  0  0  0
    9.8472   -1.1077   -2.0247 C   0  0  0  0  0  0  0  0  0  0  0  0
    9.6012   -2.4624   -1.8243 C   0  0  0  0  0  0  0  0  0  0  0  0
    8.3965   -2.8809   -1.2654 C   0  0  0  0  0  0  0  0  0  0  0  0
    7.4299   -1.9354   -0.8990 C   0  0  0  0  0  0  0  0  0  0  0  0
   10.7838   -3.6211   -2.2913 Cl  0  0  0  0  0  0  0  0  0  0  0  0
    5.3642   -0.0261   -0.6295 N   0  0  0  0  0  0  0  0  0  0  0  0
    0.6829    0.8948   -1.1594 H   0  0  0  0  0  0  0  0  0  0  0  0
   -1.2533    0.0117   -2.2993 H   0  0  0  0  0  0  0  0  0  0  0  0
   -2.1347   -1.7224   -3.8451 H   0  0  0  0  0  0  0  0  0  0  0  0
   -0.8131   -3.8119   -4.2062 H   0  0  0  0  0  0  0  0  0  0  0  0
    1.3518   -4.0745   -2.9938 H   0  0  0  0  0  0  0  0  0  0  0  0
    0.9577   -1.3371    0.9298 H   0  0  0  0  0  0  0  0  0  0  0  0
   -0.5334   -0.4439    0.5859 H   0  0  0  0  0  0  0  0  0  0  0  0
    0.8704    0.3965    1.2587 H   0  0  0  0  0  0  0  0  0  0  0  0
    3.0635   -0.8380   -1.0869 H   0  0  0  0  0  0  0  0  0  0  0  0
    8.9532    1.1900    1.0786 H   0  0  0  0  0  0  0  0  0  0  0  0
   11.3057    1.9657   -0.9036 H   0  0  0  0  0  0  0  0  0  0  0  0
   13.3861    3.2670   -0.5241 H   0  0  0  0  0  0  0  0  0  0  0  0
   11.5559    5.2899    2.7767 H   0  0  0  0  0  0  0  0  0  0  0  0
    9.4569    4.0047    2.4242 H   0  0  0  0  0  0  0  0  0  0  0  0
    7.4534    3.7902   -1.9137 H   0  0  0  0  0  0  0  0  0  0  0  0
    8.9779    4.2370   -1.2136 H   0  0  0  0  0  0  0  0  0  0  0  0
    6.8547    5.7227   -0.7953 H   0  0  0  0  0  0  0  0  0  0  0  0
    7.9985    5.4813    0.5078 H   0  0  0  0  0  0  0  0  0  0  0  0
    5.6420    5.3574    1.2365 H   0  0  0  0  0  0  0  0  0  0  0  0
    6.5581    3.9287    1.6625 H   0  0  0  0  0  0  0  0  0  0  0  0
    4.2121    3.5783    0.8024 H   0  0  0  0  0  0  0  0  0  0  0  0
    4.7286    4.1049   -0.8021 H   0  0  0  0  0  0  0  0  0  0  0  0
    9.0890    0.8773   -1.8945 H   0  0  0  0  0  0  0  0  0  0  0  0
   10.7799   -0.7786   -2.4757 H   0  0  0  0  0  0  0  0  0  0  0  0
    8.2008   -3.9390   -1.1120 H   0  0  0  0  0  0  0  0  0  0  0  0
    6.4996   -2.2855   -0.4542 H   0  0  0  0  0  0  0  0  0  0  0  0
  1  2  1  0  0  0  0
  1  8  1  0  0  0  0
  1  9  1  0  0  0  0
  1 37  1  6  0  0  0
  2  7  2  0  0  0  0
  2  3  1  0  0  0  0
  3  4  2  0  0  0  0
  3 38  1  0  0  0  0
  4  5  1  0  0  0  0
  4 39  1  0  0  0  0
  5  6  2  0  0  0  0
  5 40  1  0  0  0  0
  6  7  1  0  0  0  0
  6 41  1  0  0  0  0
  8 42  1  0  0  0  0
  8 43  1  0  0  0  0
  8 44  1  0  0  0  0
  9 10  1  0  0  0  0
  9 45  1  0  0  0  0
 10 11  2  0  0  0  0
 10 12  1  0  0  0  0
 12 36  2  0  0  0  0
 12 13  1  0  0  0  0
 13 27  1  0  0  0  0
 13 14  2  0  0  0  0
 14 15  1  0  0  0  0
 14 28  1  0  0  0  0
 15 16  2  0  0  0  0
 15 24  1  0  0  0  0
 16 17  1  0  0  0  0
 16 46  1  0  0  0  0
 17 22  2  0  0  0  0
 17 18  1  0  0  0  0
 18 19  2  0  0  0  0
 18 47  1  0  0  0  0
 19 20  1  0  0  0  0
 19 48  1  0  0  0  0
 20 21  2  0  0  0  0
 20 23  1  0  0  0  0
 21 22  1  0  0  0  0
 21 49  1  0  0  0  0
 22 50  1  0  0  0  0
 24 25  1  0  0  0  0
 24 51  1  0  0  0  0
 24 52  1  0  0  0  0
 25 26  1  0  0  0  0
 25 53  1  0  0  0  0
 25 54  1  0  0  0  0
 26 27  1  0  0  0  0
 26 55  1  0  0  0  0
 26 56  1  0  0  0  0
 27 57  1  0  0  0  0
 27 58  1  0  0  0  0
 28 29  1  0  0  0  0
 28 36  1  0  0  0  0
 29 34  2  0  0  0  0
 29 30  1  0  0  0  0
 30 31  2  0  0  0  0
 30 59  1  0  0  0  0
 31 32  1  0  0  0  0
 31 60  1  0  0  0  0
 32 33  2  0  0  0  0
 32 35  1  0  0  0  0
 33 34  1  0  0  0  0
 33 61  1  0  0  0  0
 34 62  1  0  0  0  0
M  END
$$$$
CHEMBL3260755
 OpenBabel12022417453D

 55 59  0  0  0  0  0  0  0  0999 V2000
    1.0802   -0.0509   -0.1433 C   0  0  0  0  0  0  0  0  0  0  0  0
    2.5470    0.3489   -0.1972 C   0  0  0  0  0  0  0  0  0  0  0  0
    3.0506    0.4442   -1.5455 N   0  0  0  0  0  0  0  0  0  0  0  0
    3.5592   -0.6334   -2.2862 C   0  0  0  0  0  0  0  0  0  0  0  0
    3.6481   -1.7894   -1.9010 O   0  0  0  0  0  0  0  0  0  0  0  0
    3.8855   -0.0816   -3.5071 N   0  0  0  0  0  0  0  0  0  0  0  0
    3.5304    1.2251   -3.4569 C   0  0  0  0  0  0  0  0  0  0  0  0
    3.7680    2.0648   -4.6650 C   0  0  0  0  0  0  0  0  0  0  0  0
    3.5408    3.5187   -4.5779 C   0  0  0  0  0  0  0  0  0  0  0  0
    4.5256    4.3705   -4.0580 C   0  0  0  0  0  0  0  0  0  0  0  0
    4.2751    5.7400   -3.9144 C   0  0  0  0  0  0  0  0  0  0  0  0
    3.0411    6.2644   -4.2948 C   0  0  0  0  0  0  0  0  0  0  0  0
    2.0643    5.4366   -4.8428 C   0  0  0  0  0  0  0  0  0  0  0  0
    2.3129    4.0669   -4.9860 C   0  0  0  0  0  0  0  0  0  0  0  0
    2.7163    7.9391   -4.0687 Cl  0  0  0  0  0  0  0  0  0  0  0  0
    4.1843    1.4583   -5.8003 C   0  0  0  0  0  0  0  0  0  0  0  0
    4.5461    2.1363   -7.0100 C   0  0  0  0  0  0  0  0  0  0  0  0
    3.7736    2.3594   -8.1658 C   0  0  0  0  0  0  0  0  0  0  0  0
    4.4817    2.9323   -9.1440 N   0  0  0  0  0  0  0  0  0  0  0  0
    5.7226    3.0214   -8.6306 N   0  0  0  0  0  0  0  0  0  0  0  0
    6.8132    3.4932   -9.4508 C   0  0  0  0  0  0  0  0  0  0  0  0
    5.8083    2.5833   -7.3371 C   0  0  0  0  0  0  0  0  0  0  0  0
    4.2931   -0.0468   -5.8623 C   0  0  0  0  0  0  0  0  0  0  0  0
    4.4050   -0.6183   -6.9455 O   0  0  0  0  0  0  0  0  0  0  0  0
    4.3016   -0.7257   -4.6633 N   0  0  0  0  0  0  0  0  0  0  0  0
    4.4684   -2.1740   -4.6274 C   0  0  0  0  0  0  0  0  0  0  0  0
    5.8485   -2.6470   -4.2107 C   0  0  0  0  0  0  0  0  0  0  0  0
    7.0161   -2.0394   -4.6979 C   0  0  0  0  0  0  0  0  0  0  0  0
    8.2690   -2.6279   -4.4861 C   0  0  0  0  0  0  0  0  0  0  0  0
    8.3707   -3.8347   -3.7884 C   0  0  0  0  0  0  0  0  0  0  0  0
    9.6398   -4.4937   -3.6686 C   0  0  0  0  0  0  0  0  0  0  0  0
   10.6620   -5.0393   -3.6009 N   0  0  0  0  0  0  0  0  0  0  0  0
    7.2207   -4.4199   -3.2526 C   0  0  0  0  0  0  0  0  0  0  0  0
    5.9709   -3.8276   -3.4599 C   0  0  0  0  0  0  0  0  0  0  0  0
    3.0317    1.5959   -2.3098 N   0  0  0  0  0  0  0  0  0  0  0  0
    0.7881   -0.2739    0.8879 H   0  0  0  0  0  0  0  0  0  0  0  0
    0.8824   -0.9397   -0.7511 H   0  0  0  0  0  0  0  0  0  0  0  0
    0.4412    0.7569   -0.5107 H   0  0  0  0  0  0  0  0  0  0  0  0
    3.1330   -0.4197    0.3207 H   0  0  0  0  0  0  0  0  0  0  0  0
    2.7117    1.3012    0.3141 H   0  0  0  0  0  0  0  0  0  0  0  0
    5.4899    3.9763   -3.7469 H   0  0  0  0  0  0  0  0  0  0  0  0
    5.0393    6.3884   -3.4928 H   0  0  0  0  0  0  0  0  0  0  0  0
    1.1042    5.8459   -5.1477 H   0  0  0  0  0  0  0  0  0  0  0  0
    1.5333    3.4347   -5.4037 H   0  0  0  0  0  0  0  0  0  0  0  0
    2.7358    2.1134   -8.3503 H   0  0  0  0  0  0  0  0  0  0  0  0
    6.4441    3.7319  -10.4517 H   0  0  0  0  0  0  0  0  0  0  0  0
    7.5655    2.7022   -9.5139 H   0  0  0  0  0  0  0  0  0  0  0  0
    7.2345    4.3862   -8.9838 H   0  0  0  0  0  0  0  0  0  0  0  0
    6.7483    2.5801   -6.8034 H   0  0  0  0  0  0  0  0  0  0  0  0
    4.3082   -2.5758   -5.6360 H   0  0  0  0  0  0  0  0  0  0  0  0
    3.6737   -2.6291   -4.0295 H   0  0  0  0  0  0  0  0  0  0  0  0
    6.9641   -1.1299   -5.2916 H   0  0  0  0  0  0  0  0  0  0  0  0
    9.1566   -2.1589   -4.9058 H   0  0  0  0  0  0  0  0  0  0  0  0
    7.2824   -5.3572   -2.7029 H   0  0  0  0  0  0  0  0  0  0  0  0
    5.0833   -4.3175   -3.0609 H   0  0  0  0  0  0  0  0  0  0  0  0
  1  2  1  0  0  0  0
  1 36  1  0  0  0  0
  1 37  1  0  0  0  0
  1 38  1  0  0  0  0
  2  3  1  0  0  0  0
  2 39  1  0  0  0  0
  2 40  1  0  0  0  0
  3 35  1  0  0  0  0
  3  4  1  0  0  0  0
  4  5  2  0  0  0  0
  4  6  1  0  0  0  0
  6 25  1  0  0  0  0
  6  7  1  0  0  0  0
  7  8  1  0  0  0  0
  7 35  2  0  0  0  0
  8  9  1  0  0  0  0
  8 16  2  0  0  0  0
  9 14  2  0  0  0  0
  9 10  1  0  0  0  0
 10 11  2  0  0  0  0
 10 41  1  0  0  0  0
 11 12  1  0  0  0  0
 11 42  1  0  0  0  0
 12 13  2  0  0  0  0
 12 15  1  0  0  0  0
 13 14  1  0  0  0  0
 13 43  1  0  0  0  0
 14 44  1  0  0  0  0
 16 17  1  0  0  0  0
 16 23  1  0  0  0  0
 17 22  2  0  0  0  0
 17 18  1  0  0  0  0
 18 19  2  0  0  0  0
 18 45  1  0  0  0  0
 19 20  1  0  0  0  0
 20 21  1  0  0  0  0
 20 22  1  0  0  0  0
 21 46  1  0  0  0  0
 21 47  1  0  0  0  0
 21 48  1  0  0  0  0
 22 49  1  0  0  0  0
 23 24  2  0  0  0  0
 23 25  1  0  0  0  0
 25 26  1  0  0  0  0
 26 27  1  0  0  0  0
 26 50  1  0  0  0  0
 26 51  1  0  0  0  0
 27 34  2  0  0  0  0
 27 28  1  0  0  0  0
 28 29  2  0  0  0  0
 28 52  1  0  0  0  0
 29 30  1  0  0  0  0
 29 53  1  0  0  0  0
 30 31  1  0  0  0  0
 30 33  2  0  0  0  0
 31 32  3  0  0  0  0
 33 34  1  0  0  0  0
 33 54  1  0  0  0  0
 34 55  1  0  0  0  0
M  END
$$$$
CHEMBL3260744
 OpenBabel12022417453D

 61 65  0  0  0  0  0  0  0  0999 V2000
    2.7556    0.2506   -1.3301 C   0  0  0  0  0  0  0  0  0  0  0  0
    2.8797   -0.3263    0.0707 C   0  0  0  0  0  0  0  0  0  0  0  0
    3.1125   -1.7521    0.0738 N   0  0  0  0  0  0  0  0  0  0  0  0
    2.0975   -2.7117   -0.0262 C   0  0  0  0  0  0  0  0  0  0  0  0
    0.9064   -2.4841   -0.1389 O   0  0  0  0  0  0  0  0  0  0  0  0
    2.7734   -3.9215    0.0058 N   0  0  0  0  0  0  0  0  0  0  0  0
    4.0922   -3.6368    0.0607 C   0  0  0  0  0  0  0  0  0  0  0  0
    5.0501   -4.7886    0.0999 C   0  0  0  0  0  0  0  0  0  0  0  0
    6.4877   -4.5054    0.2939 C   0  0  0  0  0  0  0  0  0  0  0  0
    7.0095   -4.2648    1.5720 C   0  0  0  0  0  0  0  0  0  0  0  0
    8.3437   -3.8713    1.7263 C   0  0  0  0  0  0  0  0  0  0  0  0
    9.1621   -3.7314    0.6071 C   0  0  0  0  0  0  0  0  0  0  0  0
    8.6742   -4.0297   -0.6623 C   0  0  0  0  0  0  0  0  0  0  0  0
    7.3401   -4.4176   -0.8182 C   0  0  0  0  0  0  0  0  0  0  0  0
   10.7719   -3.1523    0.7891 Cl  0  0  0  0  0  0  0  0  0  0  0  0
    4.5606   -6.0455   -0.0184 C   0  0  0  0  0  0  0  0  0  0  0  0
    5.3923   -7.2620    0.2138 C   0  0  0  0  0  0  0  0  0  0  0  0
    5.5119   -7.7237    1.5334 C   0  0  0  0  0  0  0  0  0  0  0  0
    6.2374   -8.8835    1.7843 C   0  0  0  0  0  0  0  0  0  0  0  0
    6.8214   -9.6122    0.8227 N   0  0  0  0  0  0  0  0  0  0  0  0
    6.6908   -9.1648   -0.4396 C   0  0  0  0  0  0  0  0  0  0  0  0
    6.0133   -7.9958   -0.8072 C   0  0  0  0  0  0  0  0  0  0  0  0
    5.9811   -7.6297   -2.2570 C   0  0  0  0  0  0  0  0  0  0  0  0
    3.1025   -6.2673   -0.3357 C   0  0  0  0  0  0  0  0  0  0  0  0
    2.7034   -7.3830   -0.6606 O   0  0  0  0  0  0  0  0  0  0  0  0
    2.2572   -5.1869   -0.2125 N   0  0  0  0  0  0  0  0  0  0  0  0
    0.7986   -5.3314   -0.2428 C   0  0  0  0  0  0  0  0  0  0  0  0
    0.1484   -5.2847    1.1284 C   0  0  0  0  0  0  0  0  0  0  0  0
    0.8275   -5.7805    2.2533 C   0  0  0  0  0  0  0  0  0  0  0  0
    0.2691   -5.6867    3.5236 C   0  0  0  0  0  0  0  0  0  0  0  0
   -0.9999   -5.1414    3.6629 C   0  0  0  0  0  0  0  0  0  0  0  0
   -1.5875   -4.9534    5.0565 C   0  0  0  0  0  0  0  0  0  0  0  0
   -0.7340   -5.3468    6.0525 F   0  0  0  0  0  0  0  0  0  0  0  0
   -1.8850   -3.6521    5.3396 F   0  0  0  0  0  0  0  0  0  0  0  0
   -2.7339   -5.6603    5.2671 F   0  0  0  0  0  0  0  0  0  0  0  0
   -1.7118   -4.7274    2.5774 N   0  0  0  0  0  0  0  0  0  0  0  0
   -1.1456   -4.7893    1.3388 C   0  0  0  0  0  0  0  0  0  0  0  0
   -2.0030   -4.2022    0.2538 C   0  0  0  0  0  0  0  0  0  0  0  0
    4.3595   -2.3596    0.1056 N   0  0  0  0  0  0  0  0  0  0  0  0
    2.4855    1.3103   -1.2786 H   0  0  0  0  0  0  0  0  0  0  0  0
    1.9833   -0.2653   -1.9102 H   0  0  0  0  0  0  0  0  0  0  0  0
    3.7001    0.1637   -1.8751 H   0  0  0  0  0  0  0  0  0  0  0  0
    1.9332   -0.1485    0.5966 H   0  0  0  0  0  0  0  0  0  0  0  0
    3.6744    0.1700    0.6349 H   0  0  0  0  0  0  0  0  0  0  0  0
    6.3819   -4.3547    2.4551 H   0  0  0  0  0  0  0  0  0  0  0  0
    8.7310   -3.6506    2.7177 H   0  0  0  0  0  0  0  0  0  0  0  0
    9.3166   -3.9368   -1.5344 H   0  0  0  0  0  0  0  0  0  0  0  0
    6.9695   -4.6215   -1.8200 H   0  0  0  0  0  0  0  0  0  0  0  0
    5.0443   -7.2102    2.3649 H   0  0  0  0  0  0  0  0  0  0  0  0
    6.3546   -9.2611    2.7934 H   0  0  0  0  0  0  0  0  0  0  0  0
    7.1599   -9.7962   -1.1908 H   0  0  0  0  0  0  0  0  0  0  0  0
    5.5462   -6.6437   -2.4322 H   0  0  0  0  0  0  0  0  0  0  0  0
    5.4000   -8.3649   -2.8217 H   0  0  0  0  0  0  0  0  0  0  0  0
    7.0042   -7.6070   -2.6489 H   0  0  0  0  0  0  0  0  0  0  0  0
    0.5386   -6.2914   -0.7051 H   0  0  0  0  0  0  0  0  0  0  0  0
    0.4145   -4.5695   -0.9220 H   0  0  0  0  0  0  0  0  0  0  0  0
    1.8160   -6.2223    2.1618 H   0  0  0  0  0  0  0  0  0  0  0  0
    0.8342   -6.0174    4.3906 H   0  0  0  0  0  0  0  0  0  0  0  0
   -1.6255   -4.3790   -0.7542 H   0  0  0  0  0  0  0  0  0  0  0  0
   -2.0822   -3.1210    0.4069 H   0  0  0  0  0  0  0  0  0  0  0  0
   -3.0090   -4.6334    0.2957 H   0  0  0  0  0  0  0  0  0  0  0  0
  1  2  1  0  0  0  0
  1 40  1  0  0  0  0
  1 41  1  0  0  0  0
  1 42  1  0  0  0  0
  2  3  1  0  0  0  0
  2 43  1  0  0  0  0
  2 44  1  0  0  0  0
  3 39  1  0  0  0  0
  3  4  1  0  0  0  0
  4  5  2  0  0  0  0
  4  6  1  0  0  0  0
  6 26  1  0  0  0  0
  6  7  1  0  0  0  0
  7  8  1  0  0  0  0
  7 39  2  0  0  0  0
  8  9  1  0  0  0  0
  8 16  2  0  0  0  0
  9 14  2  0  0  0  0
  9 10  1  0  0  0  0
 10 11  2  0  0  0  0
 10 45  1  0  0  0  0
 11 12  1  0  0  0  0
 11 46  1  0  0  0  0
 12 13  2  0  0  0  0
 12 15  1  0  0  0  0
 13 14  1  0  0  0  0
 13 47  1  0  0  0  0
 14 48  1  0  0  0  0
 16 17  1  0  0  0  0
 16 24  1  0  0  0  0
 17 22  2  0  0  0  0
 17 18  1  0  0  0  0
 18 19  2  0  0  0  0
 18 49  1  0  0  0  0
 19 20  1  0  0  0  0
 19 50  1  0  0  0  0
 20 21  2  0  0  0  0
 21 22  1  0  0  0  0
 21 51  1  0  0  0  0
 22 23  1  0  0  0  0
 23 52  1  0  0  0  0
 23 53  1  0  0  0  0
 23 54  1  0  0  0  0
 24 25  2  0  0  0  0
 24 26  1  0  0  0  0
 26 27  1  0  0  0  0
 27 28  1  0  0  0  0
 27 55  1  0  0  0  0
 27 56  1  0  0  0  0
 28 37  2  0  0  0  0
 28 29  1  0  0  0  0
 29 30  2  0  0  0  0
 29 57  1  0  0  0  0
 30 31  1  0  0  0  0
 30 58  1  0  0  0  0
 31 32  1  0  0  0  0
 31 36  2  0  0  0  0
 32 33  1  0  0  0  0
 32 34  1  0  0  0  0
 32 35  1  0  0  0  0
 36 37  1  0  0  0  0
 37 38  1  0  0  0  0
 38 59  1  0  0  0  0
 38 60  1  0  0  0  0
 38 61  1  0  0  0  0
M  END
$$$$
CHEMBL3260753
 OpenBabel12022417453D

 60 64  0  0  0  0  0  0  0  0999 V2000
    1.1040    0.3871   -0.1596 C   0  0  0  0  0  0  0  0  0  0  0  0
    2.6172    0.4770   -0.2616 C   0  0  0  0  0  0  0  0  0  0  0  0
    3.0925    0.2881   -1.6117 N   0  0  0  0  0  0  0  0  0  0  0  0
    3.3181   -0.9591   -2.2060 C   0  0  0  0  0  0  0  0  0  0  0  0
    3.1499   -2.0483   -1.6815 O   0  0  0  0  0  0  0  0  0  0  0  0
    3.7281   -0.6560   -3.4888 N   0  0  0  0  0  0  0  0  0  0  0  0
    3.6544    0.6894   -3.6153 C   0  0  0  0  0  0  0  0  0  0  0  0
    4.0274    1.2877   -4.9301 C   0  0  0  0  0  0  0  0  0  0  0  0
    4.0734    2.7576   -5.0472 C   0  0  0  0  0  0  0  0  0  0  0  0
    5.1900    3.4801   -4.6065 C   0  0  0  0  0  0  0  0  0  0  0  0
    5.1819    4.8786   -4.6424 C   0  0  0  0  0  0  0  0  0  0  0  0
    4.0620    5.5557   -5.1222 C   0  0  0  0  0  0  0  0  0  0  0  0
    2.9607    4.8470   -5.5962 C   0  0  0  0  0  0  0  0  0  0  0  0
    2.9667    3.4499   -5.5612 C   0  0  0  0  0  0  0  0  0  0  0  0
    4.0277    7.2756   -5.1042 Cl  0  0  0  0  0  0  0  0  0  0  0  0
    4.3258    0.4584   -5.9556 C   0  0  0  0  0  0  0  0  0  0  0  0
    4.8771    0.9303   -7.2407 C   0  0  0  0  0  0  0  0  0  0  0  0
    4.1087    1.1799   -8.3609 C   0  0  0  0  0  0  0  0  0  0  0  0
    4.6190    1.5096   -9.5702 N   0  0  0  0  0  0  0  0  0  0  0  0
    5.9621    1.5715   -9.6621 C   0  0  0  0  0  0  0  0  0  0  0  0
    6.5648    1.8630  -11.0009 C   0  0  0  0  0  0  0  0  0  0  0  0
    6.8036    1.3609   -8.6337 N   0  0  0  0  0  0  0  0  0  0  0  0
    6.2371    1.0400   -7.4509 C   0  0  0  0  0  0  0  0  0  0  0  0
    4.1709   -1.0321   -5.8109 C   0  0  0  0  0  0  0  0  0  0  0  0
    4.3002   -1.7564   -6.7948 O   0  0  0  0  0  0  0  0  0  0  0  0
    3.9462   -1.5239   -4.5471 N   0  0  0  0  0  0  0  0  0  0  0  0
    4.0783   -2.9497   -4.2433 C   0  0  0  0  0  0  0  0  0  0  0  0
    5.4014   -3.3239   -3.6013 C   0  0  0  0  0  0  0  0  0  0  0  0
    6.5830   -2.6635   -3.9791 C   0  0  0  0  0  0  0  0  0  0  0  0
    7.8076   -3.0027   -3.4121 C   0  0  0  0  0  0  0  0  0  0  0  0
    7.8556   -4.0337   -2.4846 C   0  0  0  0  0  0  0  0  0  0  0  0
    9.1816   -4.4052   -1.8331 C   0  0  0  0  0  0  0  0  0  0  0  0
   10.2160   -3.6004   -2.2284 F   0  0  0  0  0  0  0  0  0  0  0  0
    9.1562   -4.3094   -0.4726 F   0  0  0  0  0  0  0  0  0  0  0  0
    9.5873   -5.6757   -2.1173 F   0  0  0  0  0  0  0  0  0  0  0  0
    6.7310   -4.7184   -2.1351 N   0  0  0  0  0  0  0  0  0  0  0  0
    5.5317   -4.3717   -2.6814 C   0  0  0  0  0  0  0  0  0  0  0  0
    4.3818   -5.1893   -2.1668 C   0  0  0  0  0  0  0  0  0  0  0  0
    3.2866    1.3061   -2.5279 N   0  0  0  0  0  0  0  0  0  0  0  0
    0.7959    0.3619    0.8910 H   0  0  0  0  0  0  0  0  0  0  0  0
    0.7213   -0.5166   -0.6460 H   0  0  0  0  0  0  0  0  0  0  0  0
    0.6286    1.2507   -0.6344 H   0  0  0  0  0  0  0  0  0  0  0  0
    3.0537   -0.3179    0.3550 H   0  0  0  0  0  0  0  0  0  0  0  0
    2.9816    1.4363    0.1176 H   0  0  0  0  0  0  0  0  0  0  0  0
    6.0652    2.9700   -4.2110 H   0  0  0  0  0  0  0  0  0  0  0  0
    6.0424    5.4341   -4.2778 H   0  0  0  0  0  0  0  0  0  0  0  0
    2.0892    5.3746   -5.9756 H   0  0  0  0  0  0  0  0  0  0  0  0
    2.0891    2.9134   -5.9156 H   0  0  0  0  0  0  0  0  0  0  0  0
    3.0265    1.0976   -8.3374 H   0  0  0  0  0  0  0  0  0  0  0  0
    5.7932    1.9626  -11.7705 H   0  0  0  0  0  0  0  0  0  0  0  0
    7.2299    1.0384  -11.2958 H   0  0  0  0  0  0  0  0  0  0  0  0
    7.1456    2.7846  -10.9624 H   0  0  0  0  0  0  0  0  0  0  0  0
    6.9527    0.8376   -6.6587 H   0  0  0  0  0  0  0  0  0  0  0  0
    3.9970   -3.5228   -5.1744 H   0  0  0  0  0  0  0  0  0  0  0  0
    3.2092   -3.2371   -3.6504 H   0  0  0  0  0  0  0  0  0  0  0  0
    6.5700   -1.8718   -4.7229 H   0  0  0  0  0  0  0  0  0  0  0  0
    8.7067   -2.4631   -3.6972 H   0  0  0  0  0  0  0  0  0  0  0  0
    3.4501   -5.0418   -2.7138 H   0  0  0  0  0  0  0  0  0  0  0  0
    4.2073   -4.9453   -1.1140 H   0  0  0  0  0  0  0  0  0  0  0  0
    4.6260   -6.2548   -2.2394 H   0  0  0  0  0  0  0  0  0  0  0  0
  1  2  1  0  0  0  0
  1 40  1  0  0  0  0
  1 41  1  0  0  0  0
  1 42  1  0  0  0  0
  2  3  1  0  0  0  0
  2 43  1  0  0  0  0
  2 44  1  0  0  0  0
  3 39  1  0  0  0  0
  3  4  1  0  0  0  0
  4  5  2  0  0  0  0
  4  6  1  0  0  0  0
  6 26  1  0  0  0  0
  6  7  1  0  0  0  0
  7  8  1  0  0  0  0
  7 39  2  0  0  0  0
  8  9  1  0  0  0  0
  8 16  2  0  0  0  0
  9 14  2  0  0  0  0
  9 10  1  0  0  0  0
 10 11  2  0  0  0  0
 10 45  1  0  0  0  0
 11 12  1  0  0  0  0
 11 46  1  0  0  0  0
 12 13  2  0  0  0  0
 12 15  1  0  0  0  0
 13 14  1  0  0  0  0
 13 47  1  0  0  0  0
 14 48  1  0  0  0  0
 16 17  1  0  0  0  0
 16 24  1  0  0  0  0
 17 23  2  0  0  0  0
 17 18  1  0  0  0  0
 18 19  2  0  0  0  0
 18 49  1  0  0  0  0
 19 20  1  0  0  0  0
 20 21  1  0  0  0  0
 20 22  2  0  0  0  0
 21 50  1  0  0  0  0
 21 51  1  0  0  0  0
 21 52  1  0  0  0  0
 22 23  1  0  0  0  0
 23 53  1  0  0  0  0
 24 25  2  0  0  0  0
 24 26  1  0  0  0  0
 26 27  1  0  0  0  0
 27 28  1  0  0  0  0
 27 54  1  0  0  0  0
 27 55  1  0  0  0  0
 28 37  2  0  0  0  0
 28 29  1  0  0  0  0
 29 30  2  0  0  0  0
 29 56  1  0  0  0  0
 30 31  1  0  0  0  0
 30 57  1  0  0  0  0
 31 32  1  0  0  0  0
 31 36  2  0  0  0  0
 32 33  1  0  0  0  0
 32 34  1  0  0  0  0
 32 35  1  0  0  0  0
 36 37  1  0  0  0  0
 37 38  1  0  0  0  0
 38 58  1  0  0  0  0
 38 59  1  0  0  0  0
 38 60  1  0  0  0  0
M  END
$$$$
CHEMBL3923909
 OpenBabel12022417453D

 63 68  0  0  0  0  0  0  0  0999 V2000
   -0.0176   -1.1573    0.6099 C   0  0  0  0  0  0  0  0  0  0  0  0
   -0.8112   -0.2429   -0.3129 C   0  0  0  0  0  0  0  0  0  0  0  0
   -1.2728   -0.5332    1.1192 C   0  0  0  0  0  0  0  0  0  0  0  0
   -0.2845    1.1939   -0.5241 C   0  0  0  0  0  0  0  0  0  0  0  0
   -1.1622    2.2853   -0.5060 C   0  0  0  0  0  0  0  0  0  0  0  0
   -0.6650    3.5829   -0.4016 C   0  0  0  0  0  0  0  0  0  0  0  0
    0.7052    3.7773   -0.3375 C   0  0  0  0  0  0  0  0  0  0  0  0
    1.5204    2.6650   -0.4342 C   0  0  0  0  0  0  0  0  0  0  0  0
    1.0618    1.3966   -0.5376 N   0  0  0  0  0  0  0  0  0  0  0  0
   -1.5467   -0.8340   -1.4151 N   0  0  0  0  0  0  0  0  0  0  0  0
   -2.9051   -0.6354   -1.5417 C   0  0  0  0  0  0  0  0  0  0  0  0
   -3.5401    0.0043   -0.7003 O   0  0  0  0  0  0  0  0  0  0  0  0
   -3.5826   -1.1821   -2.7348 C   0  0  0  0  0  0  0  0  0  0  0  0
   -4.8482   -0.7174   -3.1788 C   0  0  0  0  0  0  0  0  0  0  0  0
   -5.2136   -1.5543   -4.2151 C   0  0  0  0  0  0  0  0  0  0  0  0
   -6.4481   -1.4791   -4.9422 C   0  0  0  0  0  0  0  0  0  0  0  0
   -6.4227   -1.4433   -6.2933 C   0  0  0  0  0  0  0  0  0  0  0  0
   -7.6063   -1.2495   -7.1381 C   0  0  0  0  0  0  0  0  0  0  0  0
   -8.3534   -2.3475   -7.5833 C   0  0  0  0  0  0  0  0  0  0  0  0
   -9.4859   -2.1504   -8.3776 C   0  0  0  0  0  0  0  0  0  0  0  0
   -9.8655   -0.8594   -8.7205 C   0  0  0  0  0  0  0  0  0  0  0  0
   -9.1388    0.2438   -8.2796 C   0  0  0  0  0  0  0  0  0  0  0  0
   -8.0065    0.0473   -7.4880 C   0  0  0  0  0  0  0  0  0  0  0  0
  -10.9517   -0.6703   -9.4829 F   0  0  0  0  0  0  0  0  0  0  0  0
   -7.7261   -1.2256   -4.1472 C   0  0  0  0  0  0  0  0  0  0  0  0
   -7.9072    0.2515   -3.7644 C   0  0  0  0  0  0  0  0  0  0  0  0
   -6.6236    1.0710   -3.5772 C   0  0  0  0  0  0  0  0  0  0  0  0
   -5.6187    0.4409   -2.6152 C   0  0  0  0  0  0  0  0  0  0  0  0
   -4.1836   -2.4843   -4.3544 N   0  0  0  0  0  0  0  0  0  0  0  0
   -4.1070   -3.6387   -5.1982 C   0  0  0  0  0  0  0  0  0  0  0  0
   -5.2561   -4.2847   -5.6813 C   0  0  0  0  0  0  0  0  0  0  0  0
   -5.1611   -5.3174   -6.6195 C   0  0  0  0  0  0  0  0  0  0  0  0
   -3.9105   -5.7506   -7.0606 C   0  0  0  0  0  0  0  0  0  0  0  0
   -2.7539   -5.1707   -6.5265 C   0  0  0  0  0  0  0  0  0  0  0  0
   -2.8494   -4.1317   -5.5879 C   0  0  0  0  0  0  0  0  0  0  0  0
   -1.1720   -5.6686   -7.0160 Cl  0  0  0  0  0  0  0  0  0  0  0  0
   -3.8682   -6.9852   -8.2685 Cl  0  0  0  0  0  0  0  0  0  0  0  0
   -3.1207   -2.1678   -3.5294 N   0  0  0  0  0  0  0  0  0  0  0  0
   -0.0299   -2.2233    0.4275 H   0  0  0  0  0  0  0  0  0  0  0  0
    0.9202   -0.7902    1.0142 H   0  0  0  0  0  0  0  0  0  0  0  0
   -1.1962    0.2711    1.8447 H   0  0  0  0  0  0  0  0  0  0  0  0
   -2.1446   -1.1585    1.2647 H   0  0  0  0  0  0  0  0  0  0  0  0
   -2.2354    2.1223   -0.4970 H   0  0  0  0  0  0  0  0  0  0  0  0
   -1.3472    4.4250   -0.3277 H   0  0  0  0  0  0  0  0  0  0  0  0
    1.1269    4.7668   -0.2044 H   0  0  0  0  0  0  0  0  0  0  0  0
    2.6018    2.7620   -0.4008 H   0  0  0  0  0  0  0  0  0  0  0  0
   -1.0636   -1.3689   -2.1271 H   0  0  0  0  0  0  0  0  0  0  0  0
   -5.4905   -1.5204   -6.8501 H   0  0  0  0  0  0  0  0  0  0  0  0
   -8.0652   -3.3601   -7.3125 H   0  0  0  0  0  0  0  0  0  0  0  0
  -10.0720   -2.9931   -8.7294 H   0  0  0  0  0  0  0  0  0  0  0  0
   -9.4592    1.2413   -8.5542 H   0  0  0  0  0  0  0  0  0  0  0  0
   -7.4446    0.9101   -7.1392 H   0  0  0  0  0  0  0  0  0  0  0  0
   -7.6773   -1.8258   -3.2270 H   0  0  0  0  0  0  0  0  0  0  0  0
   -8.6217   -1.5870   -4.6641 H   0  0  0  0  0  0  0  0  0  0  0  0
   -8.4954    0.2986   -2.8394 H   0  0  0  0  0  0  0  0  0  0  0  0
   -8.5126    0.7481   -4.5316 H   0  0  0  0  0  0  0  0  0  0  0  0
   -6.9055    2.0569   -3.1880 H   0  0  0  0  0  0  0  0  0  0  0  0
   -6.1495    1.2585   -4.5499 H   0  0  0  0  0  0  0  0  0  0  0  0
   -4.9036    1.2304   -2.3505 H   0  0  0  0  0  0  0  0  0  0  0  0
   -6.1200    0.1305   -1.6909 H   0  0  0  0  0  0  0  0  0  0  0  0
   -6.2513   -4.0116   -5.3394 H   0  0  0  0  0  0  0  0  0  0  0  0
   -6.0688   -5.7728   -7.0120 H   0  0  0  0  0  0  0  0  0  0  0  0
   -1.9388   -3.6780   -5.2038 H   0  0  0  0  0  0  0  0  0  0  0  0
  1  3  1  0  0  0  0
  1  2  1  0  0  0  0
  1 39  1  0  0  0  0
  1 40  1  0  0  0  0
  2  3  1  0  0  0  0
  2  4  1  0  0  0  0
  2 10  1  0  0  0  0
  3 41  1  0  0  0  0
  3 42  1  0  0  0  0
  4  9  2  0  0  0  0
  4  5  1  0  0  0  0
  5  6  2  0  0  0  0
  5 43  1  0  0  0  0
  6  7  1  0  0  0  0
  6 44  1  0  0  0  0
  7  8  2  0  0  0  0
  7 45  1  0  0  0  0
  8  9  1  0  0  0  0
  8 46  1  0  0  0  0
 10 11  1  0  0  0  0
 10 47  1  0  0  0  0
 11 12  2  0  0  0  0
 11 13  1  0  0  0  0
 13 38  2  0  0  0  0
 13 14  1  0  0  0  0
 14 28  1  0  0  0  0
 14 15  2  0  0  0  0
 15 16  1  0  0  0  0
 15 29  1  0  0  0  0
 16 17  2  0  0  0  0
 16 25  1  0  0  0  0
 17 18  1  0  0  0  0
 17 48  1  0  0  0  0
 18 23  2  0  0  0  0
 18 19  1  0  0  0  0
 19 20  2  0  0  0  0
 19 49  1  0  0  0  0
 20 21  1  0  0  0  0
 20 50  1  0  0  0  0
 21 22  2  0  0  0  0
 21 24  1  0  0  0  0
 22 23  1  0  0  0  0
 22 51  1  0  0  0  0
 23 52  1  0  0  0  0
 25 26  1  0  0  0  0
 25 53  1  0  0  0  0
 25 54  1  0  0  0  0
 26 27  1  0  0  0  0
 26 55  1  0  0  0  0
 26 56  1  0  0  0  0
 27 28  1  0  0  0  0
 27 57  1  0  0  0  0
 27 58  1  0  0  0  0
 28 59  1  0  0  0  0
 28 60  1  0  0  0  0
 29 30  1  0  0  0  0
 29 38  1  0  0  0  0
 30 35  2  0  0  0  0
 30 31  1  0  0  0  0
 31 32  2  0  0  0  0
 31 61  1  0  0  0  0
 32 33  1  0  0  0  0
 32 62  1  0  0  0  0
 33 34  2  0  0  0  0
 33 37  1  0  0  0  0
 34 35  1  0  0  0  0
 34 36  1  0  0  0  0
 35 63  1  0  0  0  0
M  END
$$$$
CHEMBL1760650
 OpenBabel12022417453D

 54 56  0  0  0  0  0  0  0  0999 V2000
    6.5759    0.5303   -5.1585 C   0  0  0  0  0  0  0  0  0  0  0  0
    5.6489    0.9493   -4.1677 O   0  0  0  0  0  0  0  0  0  0  0  0
    5.8391    2.1749   -3.5963 C   0  0  0  0  0  0  0  0  0  0  0  0
    6.6015    3.1859   -4.2023 C   0  0  0  0  0  0  0  0  0  0  0  0
    6.7340    4.4411   -3.6073 C   0  0  0  0  0  0  0  0  0  0  0  0
    6.0808    4.7018   -2.4121 C   0  0  0  0  0  0  0  0  0  0  0  0
    5.3270    3.7056   -1.7922 C   0  0  0  0  0  0  0  0  0  0  0  0
    5.2000    2.4184   -2.3655 C   0  0  0  0  0  0  0  0  0  0  0  0
    4.5317    1.3586   -1.5054 C   0  0  0  0  0  0  0  0  0  0  0  0
    3.8005    0.2860   -2.1867 N   0  0  0  0  0  0  0  0  0  0  0  0
    4.2834   -0.9924   -2.4547 C   0  0  0  0  0  0  0  0  0  0  0  0
    5.6471   -1.4700   -2.2630 C   0  0  0  0  0  0  0  0  0  0  0  0
    6.4207   -1.0413   -1.4111 O   0  0  0  0  0  0  0  0  0  0  0  0
    5.9933   -2.4834   -3.1368 N   0  0  0  0  0  0  0  0  0  0  0  0
    7.2903   -3.1415   -3.1304 C   0  0  0  0  0  0  0  0  0  0  0  0
    7.2283   -4.6066   -3.6436 C   0  0  0  0  0  0  0  0  0  0  0  0
    6.7410   -4.6559   -5.1057 C   0  0  0  0  0  0  0  0  0  0  0  0
    8.6464   -5.2144   -3.6048 C   0  0  0  0  0  0  0  0  0  0  0  0
    6.2971   -5.4335   -2.7286 C   0  0  0  0  0  0  0  0  0  0  0  0
    6.2293   -6.7985   -3.1282 O   0  0  0  0  0  0  0  0  0  0  0  0
    3.2041   -1.7196   -2.9374 C   0  0  0  0  0  0  0  0  0  0  0  0
    2.0570   -0.8942   -2.9546 C   0  0  0  0  0  0  0  0  0  0  0  0
    0.7106   -1.1206   -3.3002 C   0  0  0  0  0  0  0  0  0  0  0  0
   -0.2121   -0.0727   -3.1921 C   0  0  0  0  0  0  0  0  0  0  0  0
   -1.5888   -0.3066   -3.5148 C   0  0  0  0  0  0  0  0  0  0  0  0
   -2.7039   -0.5014   -3.7710 N   0  0  0  0  0  0  0  0  0  0  0  0
    0.2007    1.1892   -2.7643 C   0  0  0  0  0  0  0  0  0  0  0  0
    1.5365    1.4319   -2.4216 C   0  0  0  0  0  0  0  0  0  0  0  0
    2.4496    0.3664   -2.5089 C   0  0  0  0  0  0  0  0  0  0  0  0
    6.2362    6.4070   -1.6121 Br  0  0  0  0  0  0  0  0  0  0  0  0
    6.3314   -0.5028   -5.4233 H   0  0  0  0  0  0  0  0  0  0  0  0
    7.5976    0.5446   -4.7665 H   0  0  0  0  0  0  0  0  0  0  0  0
    6.4859    1.1284   -6.0701 H   0  0  0  0  0  0  0  0  0  0  0  0
    7.1094    3.0264   -5.1479 H   0  0  0  0  0  0  0  0  0  0  0  0
    7.3449    5.2009   -4.0875 H   0  0  0  0  0  0  0  0  0  0  0  0
    4.8527    3.9228   -0.8363 H   0  0  0  0  0  0  0  0  0  0  0  0
    3.7964    1.8394   -0.8455 H   0  0  0  0  0  0  0  0  0  0  0  0
    5.2698    0.9125   -0.8352 H   0  0  0  0  0  0  0  0  0  0  0  0
    5.4433   -2.5212   -3.9835 H   0  0  0  0  0  0  0  0  0  0  0  0
    7.6972   -3.1119   -2.1126 H   0  0  0  0  0  0  0  0  0  0  0  0
    7.9559   -2.5408   -3.7620 H   0  0  0  0  0  0  0  0  0  0  0  0
    7.3725   -4.0343   -5.7507 H   0  0  0  0  0  0  0  0  0  0  0  0
    5.7097   -4.3026   -5.2029 H   0  0  0  0  0  0  0  0  0  0  0  0
    6.7737   -5.6750   -5.5072 H   0  0  0  0  0  0  0  0  0  0  0  0
    9.3363   -4.6539   -4.2454 H   0  0  0  0  0  0  0  0  0  0  0  0
    8.6478   -6.2534   -3.9552 H   0  0  0  0  0  0  0  0  0  0  0  0
    9.0530   -5.2084   -2.5876 H   0  0  0  0  0  0  0  0  0  0  0  0
    5.2763   -5.0364   -2.7206 H   0  0  0  0  0  0  0  0  0  0  0  0
    6.6645   -5.4164   -1.6965 H   0  0  0  0  0  0  0  0  0  0  0  0
    5.6884   -6.8480   -3.9341 H   0  0  0  0  0  0  0  0  0  0  0  0
    3.2312   -2.7664   -3.2142 H   0  0  0  0  0  0  0  0  0  0  0  0
    0.3947   -2.1065   -3.6328 H   0  0  0  0  0  0  0  0  0  0  0  0
   -0.5198    2.0024   -2.6862 H   0  0  0  0  0  0  0  0  0  0  0  0
    1.8418    2.4200   -2.0908 H   0  0  0  0  0  0  0  0  0  0  0  0
  1  2  1  0  0  0  0
  1 31  1  0  0  0  0
  1 32  1  0  0  0  0
  1 33  1  0  0  0  0
  2  3  1  0  0  0  0
  3  8  2  0  0  0  0
  3  4  1  0  0  0  0
  4  5  2  0  0  0  0
  4 34  1  0  0  0  0
  5  6  1  0  0  0  0
  5 35  1  0  0  0  0
  6  7  2  0  0  0  0
  6 30  1  0  0  0  0
  7  8  1  0  0  0  0
  7 36  1  0  0  0  0
  8  9  1  0  0  0  0
  9 10  1  0  0  0  0
  9 37  1  0  0  0  0
  9 38  1  0  0  0  0
 10 29  1  0  0  0  0
 10 11  1  0  0  0  0
 11 12  1  0  0  0  0
 11 21  2  0  0  0  0
 12 13  2  0  0  0  0
 12 14  1  0  0  0  0
 14 15  1  0  0  0  0
 14 39  1  0  0  0  0
 15 16  1  0  0  0  0
 15 40  1  0  0  0  0
 15 41  1  0  0  0  0
 16 17  1  0  0  0  0
 16 18  1  0  0  0  0
 16 19  1  0  0  0  0
 17 42  1  0  0  0  0
 17 43  1  0  0  0  0
 17 44  1  0  0  0  0
 18 45  1  0  0  0  0
 18 46  1  0  0  0  0
 18 47  1  0  0  0  0
 19 20  1  0  0  0  0
 19 48  1  0  0  0  0
 19 49  1  0  0  0  0
 20 50  1  0  0  0  0
 21 22  1  0  0  0  0
 21 51  1  0  0  0  0
 22 29  2  0  0  0  0
 22 23  1  0  0  0  0
 23 24  2  0  0  0  0
 23 52  1  0  0  0  0
 24 25  1  0  0  0  0
 24 27  1  0  0  0  0
 25 26  3  0  0  0  0
 27 28  2  0  0  0  0
 27 53  1  0  0  0  0
 28 29  1  0  0  0  0
 28 54  1  0  0  0  0
M  END
$$$$
CHEMBL482986
 OpenBabel12022417453D

 50 54  0  0  0  0  0  0  0  0999 V2000
    2.4013   -0.6172    0.0709 N   0  0  0  0  0  0  0  0  0  0  0  0
    1.3588   -1.4742    0.1350 N   0  0  0  0  0  0  0  0  0  0  0  0
    0.2662   -0.7277    0.0262 C   0  0  0  0  0  0  0  0  0  0  0  0
    0.5854    0.6514    0.0395 C   0  0  0  0  0  0  0  0  0  0  0  0
    1.9764    0.7275    0.0831 C   0  0  0  0  0  0  0  0  0  0  0  0
    2.8361    1.9225   -0.0248 C   0  0  0  0  0  0  0  0  0  0  0  0
    2.5535    3.0679    0.7363 C   0  0  0  0  0  0  0  0  0  0  0  0
    3.3699    4.2034    0.6658 C   0  0  0  0  0  0  0  0  0  0  0  0
    4.4956    4.1974   -0.1514 C   0  0  0  0  0  0  0  0  0  0  0  0
    4.7882    3.0802   -0.9264 C   0  0  0  0  0  0  0  0  0  0  0  0
    3.9455    1.9628   -0.8851 C   0  0  0  0  0  0  0  0  0  0  0  0
    5.5296    5.5706   -0.1990 Cl  0  0  0  0  0  0  0  0  0  0  0  0
   -0.4870    1.6747   -0.1264 C   0  0  0  0  0  0  0  0  0  0  0  0
   -1.8620    1.0555    0.1998 C   0  0  0  0  0  0  0  0  0  0  0  0
   -2.0591   -0.2791   -0.3907 N   0  0  0  0  0  0  0  0  0  0  0  0
   -1.0780   -1.2712   -0.2241 C   0  0  0  0  0  0  0  0  0  0  0  0
   -1.3036   -2.4682   -0.3916 O   0  0  0  0  0  0  0  0  0  0  0  0
   -3.1555   -0.5594   -1.3092 C   0  0  0  0  0  0  0  0  0  0  0  0
   -4.5621   -0.3031   -0.7839 C   0  0  0  0  0  0  0  0  0  0  0  0
   -5.4045   -0.3127   -2.0571 C   0  0  0  0  0  0  0  0  0  0  0  0
   -4.4976    0.2153   -3.1692 C   0  0  0  0  0  0  0  0  0  0  0  0
   -3.0914    0.2855   -2.5824 C   0  0  0  0  0  0  0  0  0  0  0  0
    3.7116   -1.1735    0.0761 C   0  0  0  0  0  0  0  0  0  0  0  0
    4.7188   -0.5757    0.8497 C   0  0  0  0  0  0  0  0  0  0  0  0
    6.0017   -1.1296    0.8866 C   0  0  0  0  0  0  0  0  0  0  0  0
    6.2875   -2.2898    0.1715 C   0  0  0  0  0  0  0  0  0  0  0  0
    5.2940   -2.8921   -0.5961 C   0  0  0  0  0  0  0  0  0  0  0  0
    4.0080   -2.3405   -0.6561 C   0  0  0  0  0  0  0  0  0  0  0  0
    2.9331   -3.0905   -1.7919 Cl  0  0  0  0  0  0  0  0  0  0  0  0
    1.7003    3.0898    1.4094 H   0  0  0  0  0  0  0  0  0  0  0  0
    3.1278    5.0808    1.2604 H   0  0  0  0  0  0  0  0  0  0  0  0
    5.6698    3.0669   -1.5626 H   0  0  0  0  0  0  0  0  0  0  0  0
    4.1890    1.1166   -1.5246 H   0  0  0  0  0  0  0  0  0  0  0  0
   -0.4833    2.0287   -1.1637 H   0  0  0  0  0  0  0  0  0  0  0  0
   -0.3274    2.5384    0.5252 H   0  0  0  0  0  0  0  0  0  0  0  0
   -2.6644    1.7354   -0.1007 H   0  0  0  0  0  0  0  0  0  0  0  0
   -1.9440    0.9180    1.2865 H   0  0  0  0  0  0  0  0  0  0  0  0
   -3.1032   -1.6127   -1.6160 H   0  0  0  0  0  0  0  0  0  0  0  0
   -4.6461    0.6663   -0.2832 H   0  0  0  0  0  0  0  0  0  0  0  0
   -4.8819   -1.0741   -0.0754 H   0  0  0  0  0  0  0  0  0  0  0  0
   -6.3147    0.2864   -1.9463 H   0  0  0  0  0  0  0  0  0  0  0  0
   -5.7130   -1.3379   -2.2930 H   0  0  0  0  0  0  0  0  0  0  0  0
   -4.8210    1.2039   -3.5114 H   0  0  0  0  0  0  0  0  0  0  0  0
   -4.5262   -0.4574   -4.0334 H   0  0  0  0  0  0  0  0  0  0  0  0
   -2.3325   -0.0845   -3.2794 H   0  0  0  0  0  0  0  0  0  0  0  0
   -2.8427    1.3303   -2.3644 H   0  0  0  0  0  0  0  0  0  0  0  0
    4.5209    0.3030    1.4580 H   0  0  0  0  0  0  0  0  0  0  0  0
    6.7785   -0.6599    1.4852 H   0  0  0  0  0  0  0  0  0  0  0  0
    7.2830   -2.7246    0.2051 H   0  0  0  0  0  0  0  0  0  0  0  0
    5.5296   -3.7882   -1.1664 H   0  0  0  0  0  0  0  0  0  0  0  0
  1  5  1  0  0  0  0
  1  2  1  0  0  0  0
  1 23  1  0  0  0  0
  2  3  2  0  0  0  0
  3 16  1  0  0  0  0
  3  4  1  0  0  0  0
  4  5  2  0  0  0  0
  4 13  1  0  0  0  0
  5  6  1  0  0  0  0
  6 11  2  0  0  0  0
  6  7  1  0  0  0  0
  7  8  2  0  0  0  0
  7 30  1  0  0  0  0
  8  9  1  0  0  0  0
  8 31  1  0  0  0  0
  9 10  2  0  0  0  0
  9 12  1  0  0  0  0
 10 11  1  0  0  0  0
 10 32  1  0  0  0  0
 11 33  1  0  0  0  0
 13 14  1  0  0  0  0
 13 34  1  0  0  0  0
 13 35  1  0  0  0  0
 14 15  1  0  0  0  0
 14 36  1  0  0  0  0
 14 37  1  0  0  0  0
 15 16  1  0  0  0  0
 15 18  1  0  0  0  0
 16 17  2  0  0  0  0
 18 22  1  0  0  0  0
 18 19  1  0  0  0  0
 18 38  1  0  0  0  0
 19 20  1  0  0  0  0
 19 39  1  0  0  0  0
 19 40  1  0  0  0  0
 20 21  1  0  0  0  0
 20 41  1  0  0  0  0
 20 42  1  0  0  0  0
 21 22  1  0  0  0  0
 21 43  1  0  0  0  0
 21 44  1  0  0  0  0
 22 45  1  0  0  0  0
 22 46  1  0  0  0  0
 23 28  2  0  0  0  0
 23 24  1  0  0  0  0
 24 25  2  0  0  0  0
 24 47  1  0  0  0  0
 25 26  1  0  0  0  0
 25 48  1  0  0  0  0
 26 27  2  0  0  0  0
 26 49  1  0  0  0  0
 27 28  1  0  0  0  0
 27 50  1  0  0  0  0
 28 29  1  0  0  0  0
M  END
$$$$
CHEMBL3422784
 OpenBabel12022417453D

 54 57  0  0  1  0  0  0  0  0999 V2000
    8.7487   -6.1415   -4.3565 C   0  0  0  0  0  0  0  0  0  0  0  0
    8.9444   -7.5122   -4.1899 C   0  0  0  0  0  0  0  0  0  0  0  0
    8.6494   -8.0992   -2.9676 C   0  0  0  0  0  0  0  0  0  0  0  0
    8.1879   -7.3103   -1.9090 C   0  0  0  0  0  0  0  0  0  0  0  0
    7.9929   -5.9280   -2.0507 C   0  0  0  0  0  0  0  0  0  0  0  0
    8.2663   -5.3610   -3.2880 C   0  0  0  0  0  0  0  0  0  0  0  0
    8.0707   -3.9196   -3.5109 C   0  0  0  0  0  0  0  0  0  0  0  0
    7.9257   -3.0801   -2.4731 C   0  0  0  0  0  0  0  0  0  0  0  0
    7.9201   -3.6826   -1.0906 C   0  0  0  0  0  0  0  0  0  0  0  0
    8.1976   -2.9805   -0.1181 O   0  0  0  0  0  0  0  0  0  0  0  0
    7.5805   -5.0639   -0.9822 N   0  0  0  0  0  0  0  0  0  0  0  0
    7.2838   -5.6217    0.3600 C   0  0  0  0  0  0  0  0  0  0  0  0
    6.2444   -6.7523    0.5298 C   0  0  0  0  0  0  0  0  0  0  0  0
    6.2261   -7.4696    1.7494 C   0  0  0  0  0  0  0  0  0  0  0  0
    5.4391   -8.6222    1.9211 C   0  0  0  0  0  0  0  0  0  0  0  0
    4.6566   -9.0687    0.8668 C   0  0  0  0  0  0  0  0  0  0  0  0
    4.5806   -8.3388   -0.3121 C   0  0  0  0  0  0  0  0  0  0  0  0
    5.3409   -7.1676   -0.4648 C   0  0  0  0  0  0  0  0  0  0  0  0
    3.9572  -10.2066    0.9917 F   0  0  0  0  0  0  0  0  0  0  0  0
    7.7082   -1.6218   -2.8300 C   0  0  0  0  0  0  0  0  0  0  0  0
    7.1080   -1.3238   -3.8644 O   0  0  0  0  0  0  0  0  0  0  0  0
    8.2074   -0.6519   -1.9971 N   0  0  0  0  0  0  0  0  0  0  0  0
    7.9006    0.8073   -2.1190 C   0  0  1  0  0  0  0  0  0  0  0  0
    7.7461    1.3704   -0.6944 C   0  0  0  0  0  0  0  0  0  0  0  0
    8.0028    2.8583   -0.4836 C   0  0  0  0  0  0  0  0  0  0  0  0
    9.1927    3.4153   -1.2605 C   0  0  2  0  0  0  0  0  0  0  0  0
    8.9898    3.0961   -2.7410 C   0  0  0  0  0  0  0  0  0  0  0  0
    8.8918    1.5837   -3.0218 C   0  0  0  0  0  0  0  0  0  0  0  0
   10.5520    2.9285   -0.7504 C   0  0  0  0  0  0  0  0  0  0  0  0
    8.9924   -5.6973   -5.3234 H   0  0  0  0  0  0  0  0  0  0  0  0
    9.3336   -8.1211   -5.0031 H   0  0  0  0  0  0  0  0  0  0  0  0
    8.7892   -9.1679   -2.8212 H   0  0  0  0  0  0  0  0  0  0  0  0
    8.0101   -7.8216   -0.9696 H   0  0  0  0  0  0  0  0  0  0  0  0
    8.0456   -3.5571   -4.5377 H   0  0  0  0  0  0  0  0  0  0  0  0
    6.9769   -4.8031    1.0173 H   0  0  0  0  0  0  0  0  0  0  0  0
    8.2438   -5.9979    0.7406 H   0  0  0  0  0  0  0  0  0  0  0  0
    6.8511   -7.1514    2.5823 H   0  0  0  0  0  0  0  0  0  0  0  0
    5.4662   -9.1842    2.8460 H   0  0  0  0  0  0  0  0  0  0  0  0
    3.9497   -8.6992   -1.1197 H   0  0  0  0  0  0  0  0  0  0  0  0
    5.2755   -6.6314   -1.4091 H   0  0  0  0  0  0  0  0  0  0  0  0
    8.7418   -0.9589   -1.1905 H   0  0  0  0  0  0  0  0  0  0  0  0
    6.9221    0.8843   -2.6135 H   0  0  0  0  0  0  0  0  0  0  0  0
    8.4035    0.8239   -0.0102 H   0  0  0  0  0  0  0  0  0  0  0  0
    6.7237    1.1498   -0.3562 H   0  0  0  0  0  0  0  0  0  0  0  0
    8.1341    3.0471    0.5897 H   0  0  0  0  0  0  0  0  0  0  0  0
    7.1047    3.4192   -0.7763 H   0  0  0  0  0  0  0  0  0  0  0  0
    9.1830    4.5066   -1.1279 H   0  0  0  0  0  0  0  0  0  0  0  0
    9.8077    3.5346   -3.3274 H   0  0  0  0  0  0  0  0  0  0  0  0
    8.0728    3.5952   -3.0841 H   0  0  0  0  0  0  0  0  0  0  0  0
    8.5918    1.4643   -4.0721 H   0  0  0  0  0  0  0  0  0  0  0  0
    9.8919    1.1439   -2.9559 H   0  0  0  0  0  0  0  0  0  0  0  0
   10.7905    1.9140   -1.0803 H   0  0  0  0  0  0  0  0  0  0  0  0
   10.6025    2.9455    0.3426 H   0  0  0  0  0  0  0  0  0  0  0  0
   11.3451    3.5864   -1.1266 H   0  0  0  0  0  0  0  0  0  0  0  0
  1  6  2  0  0  0  0
  1  2  1  0  0  0  0
  1 30  1  0  0  0  0
  2  3  2  0  0  0  0
  2 31  1  0  0  0  0
  3  4  1  0  0  0  0
  3 32  1  0  0  0  0
  4  5  2  0  0  0  0
  4 33  1  0  0  0  0
  5 11  1  0  0  0  0
  5  6  1  0  0  0  0
  6  7  1  0  0  0  0
  7  8  2  0  0  0  0
  7 34  1  0  0  0  0
  8  9  1  0  0  0  0
  8 20  1  0  0  0  0
  9 10  2  0  0  0  0
  9 11  1  0  0  0  0
 11 12  1  0  0  0  0
 12 13  1  0  0  0  0
 12 35  1  0  0  0  0
 12 36  1  0  0  0  0
 13 18  2  0  0  0  0
 13 14  1  0  0  0  0
 14 15  2  0  0  0  0
 14 37  1  0  0  0  0
 15 16  1  0  0  0  0
 15 38  1  0  0  0  0
 16 17  2  0  0  0  0
 16 19  1  0  0  0  0
 17 18  1  0  0  0  0
 17 39  1  0  0  0  0
 18 40  1  0  0  0  0
 20 21  2  0  0  0  0
 20 22  1  0  0  0  0
 22 41  1  0  0  0  0
 23 24  1  0  0  0  0
 23 28  1  0  0  0  0
 23 22  1  0  0  0  0
 23 42  1  6  0  0  0
 24 25  1  0  0  0  0
 24 43  1  0  0  0  0
 24 44  1  0  0  0  0
 25 26  1  0  0  0  0
 25 45  1  0  0  0  0
 25 46  1  0  0  0  0
 26 27  1  0  0  0  0
 26 29  1  0  0  0  0
 26 47  1  1  0  0  0
 27 28  1  0  0  0  0
 27 48  1  0  0  0  0
 27 49  1  0  0  0  0
 28 50  1  0  0  0  0
 28 51  1  0  0  0  0
 29 52  1  0  0  0  0
 29 53  1  0  0  0  0
 29 54  1  0  0  0  0
M  END
$$$$
CHEMBL482742
 OpenBabel12022417453D

 44 47  0  0  0  0  0  0  0  0999 V2000
    2.2993    0.0524    0.4361 C   0  0  0  0  0  0  0  0  0  0  0  0
    1.7220    1.2132   -0.0629 C   0  0  0  0  0  0  0  0  0  0  0  0
    0.4418    1.1672   -0.6111 C   0  0  0  0  0  0  0  0  0  0  0  0
   -0.2942   -0.0268   -0.6224 C   0  0  0  0  0  0  0  0  0  0  0  0
    0.2691   -1.1974   -0.0796 C   0  0  0  0  0  0  0  0  0  0  0  0
    1.5918   -1.1513    0.3996 C   0  0  0  0  0  0  0  0  0  0  0  0
   -0.4681   -2.4194    0.0087 N   0  0  0  0  0  0  0  0  0  0  0  0
   -0.4068   -3.4471    0.9729 C   0  0  0  0  0  0  0  0  0  0  0  0
   -1.2689   -4.4174    0.4924 C   0  0  0  0  0  0  0  0  0  0  0  0
   -1.7350   -3.9840   -0.7665 C   0  0  0  0  0  0  0  0  0  0  0  0
   -2.4475   -4.7511   -1.7942 C   0  0  0  0  0  0  0  0  0  0  0  0
   -2.9593   -4.2554   -2.7958 O   0  0  0  0  0  0  0  0  0  0  0  0
   -2.2574   -6.1228   -1.6985 N   0  0  0  0  0  0  0  0  0  0  0  0
   -2.6711   -6.9158   -0.5395 C   0  0  0  0  0  0  0  0  0  0  0  0
   -2.7774   -6.1504    0.7819 C   0  0  0  0  0  0  0  0  0  0  0  0
   -1.5224   -5.5730    1.1522 O   0  0  0  0  0  0  0  0  0  0  0  0
   -1.5793   -6.7705   -2.8277 C   0  0  0  0  0  0  0  0  0  0  0  0
   -2.3170   -7.8638   -3.5964 C   0  0  0  0  0  0  0  0  0  0  0  0
   -3.5331   -8.1405   -3.0815 F   0  0  0  0  0  0  0  0  0  0  0  0
   -2.4773   -7.5373   -4.8967 F   0  0  0  0  0  0  0  0  0  0  0  0
   -1.5979   -9.0140   -3.5569 F   0  0  0  0  0  0  0  0  0  0  0  0
   -1.3001   -2.7427   -1.0131 N   0  0  0  0  0  0  0  0  0  0  0  0
    0.3624   -3.4429    2.2312 C   0  0  0  0  0  0  0  0  0  0  0  0
    1.0076   -4.6135    2.6629 C   0  0  0  0  0  0  0  0  0  0  0  0
    1.7916   -4.6188    3.8207 C   0  0  0  0  0  0  0  0  0  0  0  0
    1.9605   -3.4435    4.5449 C   0  0  0  0  0  0  0  0  0  0  0  0
    1.3176   -2.2766    4.1450 C   0  0  0  0  0  0  0  0  0  0  0  0
    0.4918   -2.2883    3.0168 C   0  0  0  0  0  0  0  0  0  0  0  0
    2.9666   -3.4312    5.9389 Cl  0  0  0  0  0  0  0  0  0  0  0  0
   -1.9204    0.1228   -1.2005 Cl  0  0  0  0  0  0  0  0  0  0  0  0
    3.3016    0.0808    0.8580 H   0  0  0  0  0  0  0  0  0  0  0  0
    2.2650    2.1543   -0.0291 H   0  0  0  0  0  0  0  0  0  0  0  0
    0.0030    2.0808   -1.0075 H   0  0  0  0  0  0  0  0  0  0  0  0
    2.1008   -2.0456    0.7517 H   0  0  0  0  0  0  0  0  0  0  0  0
   -1.9488   -7.7310   -0.4257 H   0  0  0  0  0  0  0  0  0  0  0  0
   -3.6477   -7.3533   -0.7761 H   0  0  0  0  0  0  0  0  0  0  0  0
   -3.0471   -6.8583    1.5748 H   0  0  0  0  0  0  0  0  0  0  0  0
   -3.5733   -5.3935    0.7642 H   0  0  0  0  0  0  0  0  0  0  0  0
   -0.6514   -7.1824   -2.4117 H   0  0  0  0  0  0  0  0  0  0  0  0
   -1.2585   -5.9972   -3.5365 H   0  0  0  0  0  0  0  0  0  0  0  0
    0.9109   -5.5389    2.0982 H   0  0  0  0  0  0  0  0  0  0  0  0
    2.2727   -5.5389    4.1414 H   0  0  0  0  0  0  0  0  0  0  0  0
    1.4550   -1.3522    4.6995 H   0  0  0  0  0  0  0  0  0  0  0  0
   -0.0159   -1.3655    2.7431 H   0  0  0  0  0  0  0  0  0  0  0  0
  1  6  2  0  0  0  0
  1  2  1  0  0  0  0
  1 31  1  0  0  0  0
  2  3  2  0  0  0  0
  2 32  1  0  0  0  0
  3  4  1  0  0  0  0
  3 33  1  0  0  0  0
  4  5  2  0  0  0  0
  4 30  1  0  0  0  0
  5  6  1  0  0  0  0
  5  7  1  0  0  0  0
  6 34  1  0  0  0  0
  7 22  1  0  0  0  0
  7  8  1  0  0  0  0
  8  9  2  0  0  0  0
  8 23  1  0  0  0  0
  9 16  1  0  0  0  0
  9 10  1  0  0  0  0
 10 11  1  0  0  0  0
 10 22  2  0  0  0  0
 11 12  2  0  0  0  0
 11 13  1  0  0  0  0
 13 14  1  0  0  0  0
 13 17  1  0  0  0  0
 14 15  1  0  0  0  0
 14 35  1  0  0  0  0
 14 36  1  0  0  0  0
 15 16  1  0  0  0  0
 15 37  1  0  0  0  0
 15 38  1  0  0  0  0
 17 18  1  0  0  0  0
 17 39  1  0  0  0  0
 17 40  1  0  0  0  0
 18 19  1  0  0  0  0
 18 20  1  0  0  0  0
 18 21  1  0  0  0  0
 23 28  2  0  0  0  0
 23 24  1  0  0  0  0
 24 25  2  0  0  0  0
 24 41  1  0  0  0  0
 25 26  1  0  0  0  0
 25 42  1  0  0  0  0
 26 27  2  0  0  0  0
 26 29  1  0  0  0  0
 27 28  1  0  0  0  0
 27 43  1  0  0  0  0
 28 44  1  0  0  0  0
M  END
$$$$
CHEMBL467896
 OpenBabel12022417453D

 53 56  0  0  0  0  0  0  0  0999 V2000
    1.6217   -0.3211    2.6365 F   0  0  0  0  0  0  0  0  0  0  0  0
    0.4271   -0.2262    2.0367 C   0  0  0  0  0  0  0  0  0  0  0  0
   -0.7303   -0.3071    2.8010 C   0  0  0  0  0  0  0  0  0  0  0  0
   -1.9754   -0.2356    2.1746 C   0  0  0  0  0  0  0  0  0  0  0  0
   -2.0692   -0.0904    0.7814 C   0  0  0  0  0  0  0  0  0  0  0  0
   -3.4287   -0.0664    0.1040 C   0  0  0  0  0  0  0  0  0  0  0  0
   -3.9900    1.2758    0.0105 N   0  0  0  0  0  0  0  0  0  0  0  0
   -3.6973    2.0504   -1.1054 C   0  0  0  0  0  0  0  0  0  0  0  0
   -3.1048    1.6051   -2.0910 O   0  0  0  0  0  0  0  0  0  0  0  0
   -4.1095    3.4868   -1.0815 C   0  0  0  0  0  0  0  0  0  0  0  0
   -4.8510    3.9478   -0.0611 C   0  0  0  0  0  0  0  0  0  0  0  0
   -5.2873    3.0603    1.0035 C   0  0  0  0  0  0  0  0  0  0  0  0
   -6.1612    3.5144    1.9956 C   0  0  0  0  0  0  0  0  0  0  0  0
   -6.5757    2.6415    2.9921 C   0  0  0  0  0  0  0  0  0  0  0  0
   -6.0815    1.3506    2.9688 C   0  0  0  0  0  0  0  0  0  0  0  0
   -5.2174    0.8866    2.0318 N   0  0  0  0  0  0  0  0  0  0  0  0
   -4.8352    1.7397    1.0521 C   0  0  0  0  0  0  0  0  0  0  0  0
   -3.7182    4.4898   -2.1226 C   0  0  0  0  0  0  0  0  0  0  0  0
   -4.0402    5.6745   -2.0171 O   0  0  0  0  0  0  0  0  0  0  0  0
   -2.9788    4.0224   -3.1777 N   0  0  0  0  0  0  0  0  0  0  0  0
   -2.4935    4.8985   -4.2422 C   0  0  0  0  0  0  0  0  0  0  0  0
   -1.0855    4.4733   -4.6785 C   0  0  0  0  0  0  0  0  0  0  0  0
   -1.0301    3.4641   -5.8236 C   0  0  0  0  0  0  0  0  0  0  0  0
   -1.0478    4.1364   -7.1964 C   0  0  0  0  0  0  0  0  0  0  0  0
   -2.3940    4.7157   -7.6183 C   0  0  0  0  0  0  0  0  0  0  0  0
   -3.0318    5.6895   -6.6283 C   0  0  0  0  0  0  0  0  0  0  0  0
   -3.5390    5.0052   -5.3594 C   0  0  0  0  0  0  0  0  0  0  0  0
   -0.8846    0.0222    0.0311 C   0  0  0  0  0  0  0  0  0  0  0  0
    0.3610   -0.0539    0.6590 C   0  0  0  0  0  0  0  0  0  0  0  0
   -0.6565   -0.4354    3.8759 H   0  0  0  0  0  0  0  0  0  0  0  0
   -2.8784   -0.3073    2.7788 H   0  0  0  0  0  0  0  0  0  0  0  0
   -4.1182   -0.7494    0.6150 H   0  0  0  0  0  0  0  0  0  0  0  0
   -3.3206   -0.4853   -0.9051 H   0  0  0  0  0  0  0  0  0  0  0  0
   -5.1435    4.9929    0.0010 H   0  0  0  0  0  0  0  0  0  0  0  0
   -6.5301    4.5373    1.9894 H   0  0  0  0  0  0  0  0  0  0  0  0
   -7.2684    2.9601    3.7631 H   0  0  0  0  0  0  0  0  0  0  0  0
   -6.3806    0.6272    3.7224 H   0  0  0  0  0  0  0  0  0  0  0  0
   -2.8186    3.0170   -3.2496 H   0  0  0  0  0  0  0  0  0  0  0  0
   -2.3867    5.8977   -3.7996 H   0  0  0  0  0  0  0  0  0  0  0  0
   -0.5528    4.0561   -3.8142 H   0  0  0  0  0  0  0  0  0  0  0  0
   -0.5208    5.3703   -4.9647 H   0  0  0  0  0  0  0  0  0  0  0  0
   -1.8270    2.7167   -5.7405 H   0  0  0  0  0  0  0  0  0  0  0  0
   -0.0821    2.9178   -5.7409 H   0  0  0  0  0  0  0  0  0  0  0  0
   -0.7488    3.3953   -7.9485 H   0  0  0  0  0  0  0  0  0  0  0  0
   -0.2854    4.9250   -7.2316 H   0  0  0  0  0  0  0  0  0  0  0  0
   -3.0919    3.8942   -7.8235 H   0  0  0  0  0  0  0  0  0  0  0  0
   -2.2519    5.2380   -8.5729 H   0  0  0  0  0  0  0  0  0  0  0  0
   -3.8929    6.1471   -7.1313 H   0  0  0  0  0  0  0  0  0  0  0  0
   -2.3434    6.5082   -6.3879 H   0  0  0  0  0  0  0  0  0  0  0  0
   -4.3887    5.5831   -4.9710 H   0  0  0  0  0  0  0  0  0  0  0  0
   -3.9500    4.0163   -5.6022 H   0  0  0  0  0  0  0  0  0  0  0  0
   -0.9277    0.1563   -1.0481 H   0  0  0  0  0  0  0  0  0  0  0  0
    1.2799    0.0109    0.0847 H   0  0  0  0  0  0  0  0  0  0  0  0
  1  2  1  0  0  0  0
  2 29  2  0  0  0  0
  2  3  1  0  0  0  0
  3  4  2  0  0  0  0
  3 30  1  0  0  0  0
  4  5  1  0  0  0  0
  4 31  1  0  0  0  0
  5  6  1  0  0  0  0
  5 28  2  0  0  0  0
  6  7  1  0  0  0  0
  6 32  1  0  0  0  0
  6 33  1  0  0  0  0
  7 17  1  0  0  0  0
  7  8  1  0  0  0  0
  8  9  2  0  0  0  0
  8 10  1  0  0  0  0
 10 11  2  0  0  0  0
 10 18  1  0  0  0  0
 11 12  1  0  0  0  0
 11 34  1  0  0  0  0
 12 17  2  0  0  0  0
 12 13  1  0  0  0  0
 13 14  2  0  0  0  0
 13 35  1  0  0  0  0
 14 15  1  0  0  0  0
 14 36  1  0  0  0  0
 15 16  2  0  0  0  0
 15 37  1  0  0  0  0
 16 17  1  0  0  0  0
 18 19  2  0  0  0  0
 18 20  1  0  0  0  0
 20 21  1  0  0  0  0
 20 38  1  0  0  0  0
 21 27  1  0  0  0  0
 21 22  1  0  0  0  0
 21 39  1  0  0  0  0
 22 23  1  0  0  0  0
 22 40  1  0  0  0  0
 22 41  1  0  0  0  0
 23 24  1  0  0  0  0
 23 42  1  0  0  0  0
 23 43  1  0  0  0  0
 24 25  1  0  0  0  0
 24 44  1  0  0  0  0
 24 45  1  0  0  0  0
 25 26  1  0  0  0  0
 25 46  1  0  0  0  0
 25 47  1  0  0  0  0
 26 27  1  0  0  0  0
 26 48  1  0  0  0  0
 26 49  1  0  0  0  0
 27 50  1  0  0  0  0
 27 51  1  0  0  0  0
 28 29  1  0  0  0  0
 28 52  1  0  0  0  0
 29 53  1  0  0  0  0
M  END
$$$$
CHEMBL1828632
 OpenBabel12022417453D

 48 51  0  0  0  0  0  0  0  0999 V2000
    2.1134   -0.0069   -0.1621 C   0  0  0  0  0  0  0  0  0  0  0  0
    1.3565   -0.0826   -1.1181 O   0  0  0  0  0  0  0  0  0  0  0  0
    0.9023   -0.8018    1.0422 C   0  0  0  0  0  0  0  0  0  0  0  0
    0.7100   -0.6390    2.4689 C   0  0  0  0  0  0  0  0  0  0  0  0
   -0.2659   -1.4716    3.0906 C   0  0  0  0  0  0  0  0  0  0  0  0
   -0.3144   -1.6125    4.4855 C   0  0  0  0  0  0  0  0  0  0  0  0
    0.5424   -0.8809    5.2402 N   0  0  0  0  0  0  0  0  0  0  0  0
    1.3739   -0.0157    4.6278 C   0  0  0  0  0  0  0  0  0  0  0  0
    1.4668    0.1626    3.2773 C   0  0  0  0  0  0  0  0  0  0  0  0
   -0.9846   -2.0589    2.0787 N   0  0  0  0  0  0  0  0  0  0  0  0
   -0.4146   -1.5523    0.8461 C   0  0  0  0  0  0  0  0  0  0  0  0
   -2.0554   -3.0838    2.2791 C   0  0  0  0  0  0  0  0  0  0  0  0
   -3.4308   -2.4593    2.4714 C   0  0  0  0  0  0  0  0  0  0  0  0
   -4.5144   -3.5069    2.6726 C   0  0  0  0  0  0  0  0  0  0  0  0
   -5.8643   -2.8299    2.8457 C   0  0  0  0  0  0  0  0  0  0  0  0
   -6.9423   -3.8701    3.0447 C   0  0  0  0  0  0  0  0  0  0  0  0
    4.0328    0.6405   -0.3634 C   0  0  0  0  0  0  0  0  0  0  0  0
    4.0967   -0.1774    0.5414 C   0  0  0  0  0  0  0  0  0  0  0  0
    4.7299    0.6116   -0.0945 C   0  0  0  0  0  0  0  0  0  0  0  0
    6.0894    0.4468    0.3258 C   0  0  0  0  0  0  0  0  0  0  0  0
    6.8078    1.2562   -0.3127 C   0  0  0  0  0  0  0  0  0  0  0  0
    8.4071    1.2703    0.1422 C   0  0  0  0  0  0  0  0  0  0  0  0
    9.4084    2.1653   -0.1504 C   0  0  0  0  0  0  0  0  0  0  0  0
    8.8778    2.9396   -1.1179 C   0  0  0  0  0  0  0  0  0  0  0  0
    7.2233    2.6713   -1.5954 C   0  0  0  0  0  0  0  0  0  0  0  0
    5.7381    1.7345   -1.0324 C   0  0  0  0  0  0  0  0  0  0  0  0
   -0.9678   -2.2970    5.0219 H   0  0  0  0  0  0  0  0  0  0  0  0
    2.0395    0.5719    5.2424 H   0  0  0  0  0  0  0  0  0  0  0  0
    2.1417    0.8457    2.8057 H   0  0  0  0  0  0  0  0  0  0  0  0
   -0.9788   -1.8818   -0.0283 H   0  0  0  0  0  0  0  0  0  0  0  0
   -1.8199   -3.7062    3.1665 H   0  0  0  0  0  0  0  0  0  0  0  0
   -2.0834   -3.7647    1.4183 H   0  0  0  0  0  0  0  0  0  0  0  0
   -3.6749   -1.8606    1.5900 H   0  0  0  0  0  0  0  0  0  0  0  0
   -3.4100   -1.7986    3.3430 H   0  0  0  0  0  0  0  0  0  0  0  0
   -4.2881   -4.1088    3.5597 H   0  0  0  0  0  0  0  0  0  0  0  0
   -4.5474   -4.1773    1.8065 H   0  0  0  0  0  0  0  0  0  0  0  0
   -6.0938   -2.2272    1.9601 H   0  0  0  0  0  0  0  0  0  0  0  0
   -5.8353   -2.1599    3.7120 H   0  0  0  0  0  0  0  0  0  0  0  0
   -6.9898   -4.5370    2.1787 H   0  0  0  0  0  0  0  0  0  0  0  0
   -7.9137   -3.3871    3.1695 H   0  0  0  0  0  0  0  0  0  0  0  0
   -6.7306   -4.4696    3.9350 H   0  0  0  0  0  0  0  0  0  0  0  0
    3.8282   -0.8896    1.1925 H   0  0  0  0  0  0  0  0  0  0  0  0
    4.1970    1.7037   -1.2705 H   0  0  0  0  0  0  0  0  0  0  0  0
    6.4566   -0.1835    1.1043 H   0  0  0  0  0  0  0  0  0  0  0  0
    8.7340    0.4469    0.7959 H   0  0  0  0  0  0  0  0  0  0  0  0
   10.4077    2.2066    0.3114 H   0  0  0  0  0  0  0  0  0  0  0  0
    9.6739    3.6883   -1.4882 H   0  0  0  0  0  0  0  0  0  0  0  0
    7.4329    3.3068   -2.5501 H   0  0  0  0  0  0  0  0  0  0  0  0
  1  2  2  0  0  0  0
  1  3  1  0  0  0  0
  1 17  1  0  0  0  0
  3 11  2  0  0  0  0
  3  4  1  0  0  0  0
  4  9  2  0  0  0  0
  4  5  1  0  0  0  0
  5  6  2  0  0  0  0
  5 10  1  0  0  0  0
  6  7  1  0  0  0  0
  6 27  1  0  0  0  0
  7  8  2  0  0  0  0
  8  9  1  0  0  0  0
  8 28  1  0  0  0  0
  9 29  1  0  0  0  0
 10 11  1  0  0  0  0
 10 12  1  0  0  0  0
 11 30  1  0  0  0  0
 12 13  1  0  0  0  0
 12 31  1  0  0  0  0
 12 32  1  0  0  0  0
 13 14  1  0  0  0  0
 13 33  1  0  0  0  0
 13 34  1  0  0  0  0
 14 15  1  0  0  0  0
 14 35  1  0  0  0  0
 14 36  1  0  0  0  0
 15 16  1  0  0  0  0
 15 37  1  0  0  0  0
 15 38  1  0  0  0  0
 16 39  1  0  0  0  0
 16 40  1  0  0  0  0
 16 41  1  0  0  0  0
 17 26  2  0  0  0  0
 17 18  1  0  0  0  0
 18 19  2  0  0  0  0
 18 42  1  0  0  0  0
 19 20  1  0  0  0  0
 19 43  1  0  0  0  0
 20 21  2  0  0  0  0
 20 44  1  0  0  0  0
 21 26  1  0  0  0  0
 21 22  1  0  0  0  0
 22 23  2  0  0  0  0
 22 45  1  0  0  0  0
 23 24  1  0  0  0  0
 23 46  1  0  0  0  0
 24 25  2  0  0  0  0
 24 47  1  0  0  0  0
 25 26  1  0  0  0  0
 25 48  1  0  0  0  0
M  END
$$$$
CHEMBL390675
 OpenBabel12022417453D

 53 56  0  0  0  0  0  0  0  0999 V2000
    2.2083   -0.0781    0.7026 C   0  0  0  0  0  0  0  0  0  0  0  0
    2.0161    1.0115    1.5347 C   0  0  0  0  0  0  0  0  0  0  0  0
    0.7344    1.3045    1.9874 C   0  0  0  0  0  0  0  0  0  0  0  0
   -0.3603    0.4813    1.6694 C   0  0  0  0  0  0  0  0  0  0  0  0
   -0.1757   -0.6930    0.8876 C   0  0  0  0  0  0  0  0  0  0  0  0
    1.1256   -0.8937    0.3576 C   0  0  0  0  0  0  0  0  0  0  0  0
   -1.3020   -1.5558    0.7147 C   0  0  0  0  0  0  0  0  0  0  0  0
   -2.5714   -1.1603    1.1848 C   0  0  0  0  0  0  0  0  0  0  0  0
   -2.7392    0.0303    1.8792 C   0  0  0  0  0  0  0  0  0  0  0  0
   -1.6350    0.8310    2.1347 C   0  0  0  0  0  0  0  0  0  0  0  0
   -1.2893   -2.9269    0.0953 C   0  0  0  0  0  0  0  0  0  0  0  0
   -2.3389   -3.3382   -0.3953 O   0  0  0  0  0  0  0  0  0  0  0  0
   -0.0988   -3.8350    0.1438 C   0  0  0  0  0  0  0  0  0  0  0  0
    0.7042   -3.7956    1.2875 C   0  0  0  0  0  0  0  0  0  0  0  0
    1.9379   -4.4382    1.2986 C   0  0  0  0  0  0  0  0  0  0  0  0
    2.3819   -5.1853    0.2058 C   0  0  0  0  0  0  0  0  0  0  0  0
    1.4882   -5.3905   -0.8925 C   0  0  0  0  0  0  0  0  0  0  0  0
    0.2375   -4.7007   -0.9368 C   0  0  0  0  0  0  0  0  0  0  0  0
   -0.5999   -4.9182   -2.0651 C   0  0  0  0  0  0  0  0  0  0  0  0
   -0.2703   -5.7999   -3.0913 C   0  0  0  0  0  0  0  0  0  0  0  0
    0.9270   -6.4832   -3.0383 C   0  0  0  0  0  0  0  0  0  0  0  0
    1.7891   -6.2763   -1.9614 C   0  0  0  0  0  0  0  0  0  0  0  0
    3.6895   -5.6812    0.1775 N   0  0  0  0  0  0  0  0  0  0  0  0
    4.4561   -5.9622    1.3773 C   0  0  0  0  0  0  0  0  0  0  0  0
    5.8419   -6.4919    0.9999 C   0  0  0  0  0  0  0  0  0  0  0  0
    6.6651   -6.7902    2.2538 C   0  0  0  0  0  0  0  0  0  0  0  0
    8.0606   -7.3084    1.9120 C   0  0  0  0  0  0  0  0  0  0  0  0
    8.8589   -7.5995    3.1732 C   0  0  0  0  0  0  0  0  0  0  0  0
    3.2012   -0.3012    0.3166 H   0  0  0  0  0  0  0  0  0  0  0  0
    2.8500    1.6439    1.8162 H   0  0  0  0  0  0  0  0  0  0  0  0
    0.5909    2.1886    2.6109 H   0  0  0  0  0  0  0  0  0  0  0  0
    1.3297   -1.7025   -0.3405 H   0  0  0  0  0  0  0  0  0  0  0  0
   -3.4421   -1.7965    1.0274 H   0  0  0  0  0  0  0  0  0  0  0  0
   -3.7263    0.3235    2.2285 H   0  0  0  0  0  0  0  0  0  0  0  0
   -1.7809    1.7464    2.7061 H   0  0  0  0  0  0  0  0  0  0  0  0
    0.4251   -3.1995    2.1522 H   0  0  0  0  0  0  0  0  0  0  0  0
    2.5722   -4.2801    2.1662 H   0  0  0  0  0  0  0  0  0  0  0  0
   -1.5615   -4.4209   -2.1545 H   0  0  0  0  0  0  0  0  0  0  0  0
   -0.9595   -5.9531   -3.9180 H   0  0  0  0  0  0  0  0  0  0  0  0
    1.1915   -7.1871   -3.8235 H   0  0  0  0  0  0  0  0  0  0  0  0
    2.7064   -6.8604   -1.9575 H   0  0  0  0  0  0  0  0  0  0  0  0
    3.9988   -6.1361   -0.6715 H   0  0  0  0  0  0  0  0  0  0  0  0
    3.9311   -6.7045    1.9901 H   0  0  0  0  0  0  0  0  0  0  0  0
    4.5879   -5.0510    1.9714 H   0  0  0  0  0  0  0  0  0  0  0  0
    6.3630   -5.7529    0.3787 H   0  0  0  0  0  0  0  0  0  0  0  0
    5.7427   -7.4018    0.3935 H   0  0  0  0  0  0  0  0  0  0  0  0
    6.1392   -7.5327    2.8665 H   0  0  0  0  0  0  0  0  0  0  0  0
    6.7529   -5.8784    2.8576 H   0  0  0  0  0  0  0  0  0  0  0  0
    8.5974   -6.5676    1.3081 H   0  0  0  0  0  0  0  0  0  0  0  0
    7.9842   -8.2232    1.3137 H   0  0  0  0  0  0  0  0  0  0  0  0
    8.9771   -6.6953    3.7796 H   0  0  0  0  0  0  0  0  0  0  0  0
    9.8562   -7.9697    2.9171 H   0  0  0  0  0  0  0  0  0  0  0  0
    8.3609   -8.3586    3.7854 H   0  0  0  0  0  0  0  0  0  0  0  0
  1  6  2  0  0  0  0
  1  2  1  0  0  0  0
  1 29  1  0  0  0  0
  2  3  2  0  0  0  0
  2 30  1  0  0  0  0
  3  4  1  0  0  0  0
  3 31  1  0  0  0  0
  4 10  2  0  0  0  0
  4  5  1  0  0  0  0
  5  6  1  0  0  0  0
  5  7  2  0  0  0  0
  6 32  1  0  0  0  0
  7  8  1  0  0  0  0
  7 11  1  0  0  0  0
  8  9  2  0  0  0  0
  8 33  1  0  0  0  0
  9 10  1  0  0  0  0
  9 34  1  0  0  0  0
 10 35  1  0  0  0  0
 11 12  2  0  0  0  0
 11 13  1  0  0  0  0
 13 18  2  0  0  0  0
 13 14  1  0  0  0  0
 14 15  2  0  0  0  0
 14 36  1  0  0  0  0
 15 16  1  0  0  0  0
 15 37  1  0  0  0  0
 16 17  2  0  0  0  0
 16 23  1  0  0  0  0
 17 22  1  0  0  0  0
 17 18  1  0  0  0  0
 18 19  1  0  0  0  0
 19 20  2  0  0  0  0
 19 38  1  0  0  0  0
 20 21  1  0  0  0  0
 20 39  1  0  0  0  0
 21 22  2  0  0  0  0
 21 40  1  0  0  0  0
 22 41  1  0  0  0  0
 23 24  1  0  0  0  0
 23 42  1  0  0  0  0
 24 25  1  0  0  0  0
 24 43  1  0  0  0  0
 24 44  1  0  0  0  0
 25 26  1  0  0  0  0
 25 45  1  0  0  0  0
 25 46  1  0  0  0  0
 26 27  1  0  0  0  0
 26 47  1  0  0  0  0
 26 48  1  0  0  0  0
 27 28  1  0  0  0  0
 27 49  1  0  0  0  0
 27 50  1  0  0  0  0
 28 51  1  0  0  0  0
 28 52  1  0  0  0  0
 28 53  1  0  0  0  0
M  END
$$$$
CHEMBL3260754
 OpenBabel12022417453D

 58 62  0  0  0  0  0  0  0  0999 V2000
    1.1388   -0.1064   -0.1472 C   0  0  0  0  0  0  0  0  0  0  0  0
    2.5696    0.4113   -0.1518 C   0  0  0  0  0  0  0  0  0  0  0  0
    3.0462    0.7104   -1.4777 N   0  0  0  0  0  0  0  0  0  0  0  0
    3.5482   -0.2523   -2.3626 C   0  0  0  0  0  0  0  0  0  0  0  0
    3.6647   -1.4461   -2.1288 O   0  0  0  0  0  0  0  0  0  0  0  0
    3.8184    0.4472   -3.5181 N   0  0  0  0  0  0  0  0  0  0  0  0
    3.4080    1.7288   -3.3087 C   0  0  0  0  0  0  0  0  0  0  0  0
    3.5679    2.6938   -4.4379 C   0  0  0  0  0  0  0  0  0  0  0  0
    3.2985    4.1289   -4.1894 C   0  0  0  0  0  0  0  0  0  0  0  0
    4.2743    4.9541   -3.6198 C   0  0  0  0  0  0  0  0  0  0  0  0
    3.9736    6.2846   -3.3019 C   0  0  0  0  0  0  0  0  0  0  0  0
    2.7006    6.7905   -3.5645 C   0  0  0  0  0  0  0  0  0  0  0  0
    1.7366    5.9914   -4.1694 C   0  0  0  0  0  0  0  0  0  0  0  0
    2.0348    4.6624   -4.4869 C   0  0  0  0  0  0  0  0  0  0  0  0
    2.3129    8.4059   -3.1102 Cl  0  0  0  0  0  0  0  0  0  0  0  0
    3.9679    2.2200   -5.6423 C   0  0  0  0  0  0  0  0  0  0  0  0
    4.3339    3.0718   -6.7983 C   0  0  0  0  0  0  0  0  0  0  0  0
    3.4318    3.2981   -7.8405 C   0  0  0  0  0  0  0  0  0  0  0  0
    3.8844    3.9450   -8.9840 C   0  0  0  0  0  0  0  0  0  0  0  0
    5.1496    4.3857   -9.1498 N   0  0  0  0  0  0  0  0  0  0  0  0
    6.0096    4.1566   -8.1351 C   0  0  0  0  0  0  0  0  0  0  0  0
    5.6518    3.5116   -6.9595 C   0  0  0  0  0  0  0  0  0  0  0  0
    6.5721    3.2732   -6.0168 F   0  0  0  0  0  0  0  0  0  0  0  0
    4.1056    0.7407   -5.8688 C   0  0  0  0  0  0  0  0  0  0  0  0
    4.2344    0.3078   -7.0138 O   0  0  0  0  0  0  0  0  0  0  0  0
    4.1302   -0.0672   -4.7657 N   0  0  0  0  0  0  0  0  0  0  0  0
    4.5305   -1.4722   -4.8480 C   0  0  0  0  0  0  0  0  0  0  0  0
    5.9398   -1.7364   -4.3585 C   0  0  0  0  0  0  0  0  0  0  0  0
    6.9434   -0.7631   -4.5074 C   0  0  0  0  0  0  0  0  0  0  0  0
    8.2316   -0.9870   -4.0325 C   0  0  0  0  0  0  0  0  0  0  0  0
    8.5286   -2.2088   -3.4452 C   0  0  0  0  0  0  0  0  0  0  0  0
    9.9141   -2.4459   -2.8598 C   0  0  0  0  0  0  0  0  0  0  0  0
   10.7377   -1.3592   -2.9713 F   0  0  0  0  0  0  0  0  0  0  0  0
    9.8895   -2.7383   -1.5271 F   0  0  0  0  0  0  0  0  0  0  0  0
   10.5905   -3.4701   -3.4586 F   0  0  0  0  0  0  0  0  0  0  0  0
    7.5910   -3.1925   -3.3481 N   0  0  0  0  0  0  0  0  0  0  0  0
    6.3234   -2.9580   -3.7886 C   0  0  0  0  0  0  0  0  0  0  0  0
    5.3775   -4.0979   -3.5409 C   0  0  0  0  0  0  0  0  0  0  0  0
    2.9427    1.9410   -2.1124 N   0  0  0  0  0  0  0  0  0  0  0  0
    0.8759   -0.4849    0.8528 H   0  0  0  0  0  0  0  0  0  0  0  0
    1.0022   -0.9227   -0.8612 H   0  0  0  0  0  0  0  0  0  0  0  0
    0.4389    0.6886   -0.4067 H   0  0  0  0  0  0  0  0  0  0  0  0
    3.2188   -0.3756    0.2597 H   0  0  0  0  0  0  0  0  0  0  0  0
    2.6744    1.2983    0.4797 H   0  0  0  0  0  0  0  0  0  0  0  0
    5.2677    4.5721   -3.3970 H   0  0  0  0  0  0  0  0  0  0  0  0
    4.7263    6.9121   -2.8332 H   0  0  0  0  0  0  0  0  0  0  0  0
    0.7472    6.3885   -4.3796 H   0  0  0  0  0  0  0  0  0  0  0  0
    1.2631    4.0463   -4.9378 H   0  0  0  0  0  0  0  0  0  0  0  0
    2.4037    2.9434   -7.8043 H   0  0  0  0  0  0  0  0  0  0  0  0
    3.2228    4.1045   -9.8333 H   0  0  0  0  0  0  0  0  0  0  0  0
    7.0280    4.4895   -8.2951 H   0  0  0  0  0  0  0  0  0  0  0  0
    4.4826   -1.8000   -5.8932 H   0  0  0  0  0  0  0  0  0  0  0  0
    3.7736   -2.0562   -4.3279 H   0  0  0  0  0  0  0  0  0  0  0  0
    6.7328    0.1939   -4.9768 H   0  0  0  0  0  0  0  0  0  0  0  0
    8.9811   -0.2052   -4.1115 H   0  0  0  0  0  0  0  0  0  0  0  0
    4.4075   -3.9847   -4.0269 H   0  0  0  0  0  0  0  0  0  0  0  0
    5.2131   -4.1984   -2.4633 H   0  0  0  0  0  0  0  0  0  0  0  0
    5.8124   -5.0303   -3.9156 H   0  0  0  0  0  0  0  0  0  0  0  0
  1  2  1  0  0  0  0
  1 40  1  0  0  0  0
  1 41  1  0  0  0  0
  1 42  1  0  0  0  0
  2  3  1  0  0  0  0
  2 43  1  0  0  0  0
  2 44  1  0  0  0  0
  3 39  1  0  0  0  0
  3  4  1  0  0  0  0
  4  5  2  0  0  0  0
  4  6  1  0  0  0  0
  6 26  1  0  0  0  0
  6  7  1  0  0  0  0
  7  8  1  0  0  0  0
  7 39  2  0  0  0  0
  8  9  1  0  0  0  0
  8 16  2  0  0  0  0
  9 14  2  0  0  0  0
  9 10  1  0  0  0  0
 10 11  2  0  0  0  0
 10 45  1  0  0  0  0
 11 12  1  0  0  0  0
 11 46  1  0  0  0  0
 12 13  2  0  0  0  0
 12 15  1  0  0  0  0
 13 14  1  0  0  0  0
 13 47  1  0  0  0  0
 14 48  1  0  0  0  0
 16 17  1  0  0  0  0
 16 24  1  0  0  0  0
 17 22  2  0  0  0  0
 17 18  1  0  0  0  0
 18 19  2  0  0  0  0
 18 49  1  0  0  0  0
 19 20  1  0  0  0  0
 19 50  1  0  0  0  0
 20 21  2  0  0  0  0
 21 22  1  0  0  0  0
 21 51  1  0  0  0  0
 22 23  1  0  0  0  0
 24 25  2  0  0  0  0
 24 26  1  0  0  0  0
 26 27  1  0  0  0  0
 27 28  1  0  0  0  0
 27 52  1  0  0  0  0
 27 53  1  0  0  0  0
 28 37  2  0  0  0  0
 28 29  1  0  0  0  0
 29 30  2  0  0  0  0
 29 54  1  0  0  0  0
 30 31  1  0  0  0  0
 30 55  1  0  0  0  0
 31 32  1  0  0  0  0
 31 36  2  0  0  0  0
 32 33  1  0  0  0  0
 32 34  1  0  0  0  0
 32 35  1  0  0  0  0
 36 37  1  0  0  0  0
 37 38  1  0  0  0  0
 38 56  1  0  0  0  0
 38 57  1  0  0  0  0
 38 58  1  0  0  0  0
M  END
$$$$
CHEMBL570908
 OpenBabel12022417453D

 49 52  0  0  0  0  0  0  0  0999 V2000
    0.7251    0.8452   -1.2532 C   0  0  0  0  0  0  0  0  0  0  0  0
    1.8921    0.4596   -0.3645 C   0  0  0  0  0  0  0  0  0  0  0  0
    1.4962    0.4979    1.0982 C   0  0  0  0  0  0  0  0  0  0  0  0
    2.8073   -0.6760   -0.8231 C   0  0  0  0  0  0  0  0  0  0  0  0
    2.5918   -1.4249   -2.1047 C   0  0  0  0  0  0  0  0  0  0  0  0
    2.5176   -0.8508   -3.1819 O   0  0  0  0  0  0  0  0  0  0  0  0
    2.5454   -2.8847   -2.0278 C   0  0  0  0  0  0  0  0  0  0  0  0
    2.9275   -3.6782   -3.0960 C   0  0  0  0  0  0  0  0  0  0  0  0
    2.8200   -4.9943   -2.7427 N   0  0  0  0  0  0  0  0  0  0  0  0
    3.2945   -6.1031   -3.5656 C   0  0  0  0  0  0  0  0  0  0  0  0
    2.2262   -6.7054   -4.4418 C   0  0  0  0  0  0  0  0  0  0  0  0
    1.9612   -8.0784   -4.3908 C   0  0  0  0  0  0  0  0  0  0  0  0
    1.0522   -8.6183   -5.2891 C   0  0  0  0  0  0  0  0  0  0  0  0
    0.3932   -7.8950   -6.2171 N   0  0  0  0  0  0  0  0  0  0  0  0
    0.6471   -6.5703   -6.2428 C   0  0  0  0  0  0  0  0  0  0  0  0
    1.5416   -5.9395   -5.3918 C   0  0  0  0  0  0  0  0  0  0  0  0
    2.3080   -5.0928   -1.4672 C   0  0  0  0  0  0  0  0  0  0  0  0
    1.9857   -6.2231   -0.6968 C   0  0  0  0  0  0  0  0  0  0  0  0
    1.4524   -6.0265    0.5778 C   0  0  0  0  0  0  0  0  0  0  0  0
    1.2508   -4.7441    1.0741 C   0  0  0  0  0  0  0  0  0  0  0  0
    1.5819   -3.6232    0.3029 C   0  0  0  0  0  0  0  0  0  0  0  0
    2.1251   -3.7846   -0.9908 C   0  0  0  0  0  0  0  0  0  0  0  0
    3.3531    0.7569   -0.7724 C   0  0  0  0  0  0  0  0  0  0  0  0
    3.6452    1.5555   -2.0262 C   0  0  0  0  0  0  0  0  0  0  0  0
    4.4151    1.0215    0.2802 C   0  0  0  0  0  0  0  0  0  0  0  0
    0.2511    1.7614   -0.8835 H   0  0  0  0  0  0  0  0  0  0  0  0
   -0.0277    0.0486   -1.2392 H   0  0  0  0  0  0  0  0  0  0  0  0
    0.9892    1.0237   -2.2954 H   0  0  0  0  0  0  0  0  0  0  0  0
    1.0670    1.4742    1.3496 H   0  0  0  0  0  0  0  0  0  0  0  0
    2.3263    0.3201    1.7846 H   0  0  0  0  0  0  0  0  0  0  0  0
    0.7390   -0.2673    1.3009 H   0  0  0  0  0  0  0  0  0  0  0  0
    3.2014   -1.3190   -0.0379 H   0  0  0  0  0  0  0  0  0  0  0  0
    3.2869   -3.3863   -4.0774 H   0  0  0  0  0  0  0  0  0  0  0  0
    3.7308   -6.8479   -2.8900 H   0  0  0  0  0  0  0  0  0  0  0  0
    4.1137   -5.7294   -4.1926 H   0  0  0  0  0  0  0  0  0  0  0  0
    2.4601   -8.7292   -3.6801 H   0  0  0  0  0  0  0  0  0  0  0  0
    0.8331   -9.6825   -5.2931 H   0  0  0  0  0  0  0  0  0  0  0  0
    0.1043   -6.0081   -6.9977 H   0  0  0  0  0  0  0  0  0  0  0  0
    1.7017   -4.8704   -5.4871 H   0  0  0  0  0  0  0  0  0  0  0  0
    2.1252   -7.2294   -1.0787 H   0  0  0  0  0  0  0  0  0  0  0  0
    1.1799   -6.8871    1.1823 H   0  0  0  0  0  0  0  0  0  0  0  0
    0.8230   -4.6093    2.0636 H   0  0  0  0  0  0  0  0  0  0  0  0
    1.3963   -2.6347    0.7110 H   0  0  0  0  0  0  0  0  0  0  0  0
    2.9291    1.4294   -2.8374 H   0  0  0  0  0  0  0  0  0  0  0  0
    4.6309    1.2847   -2.4205 H   0  0  0  0  0  0  0  0  0  0  0  0
    3.6616    2.6246   -1.7858 H   0  0  0  0  0  0  0  0  0  0  0  0
    4.3362    0.3648    1.1508 H   0  0  0  0  0  0  0  0  0  0  0  0
    4.3574    2.0594    0.6237 H   0  0  0  0  0  0  0  0  0  0  0  0
    5.4119    0.8563   -0.1443 H   0  0  0  0  0  0  0  0  0  0  0  0
  1  2  1  0  0  0  0
  1 26  1  0  0  0  0
  1 27  1  0  0  0  0
  1 28  1  0  0  0  0
  2 23  1  0  0  0  0
  2  3  1  0  0  0  0
  2  4  1  0  0  0  0
  3 29  1  0  0  0  0
  3 30  1  0  0  0  0
  3 31  1  0  0  0  0
  4  5  1  0  0  0  0
  4 23  1  0  0  0  0
  4 32  1  0  0  0  0
  5  6  2  0  0  0  0
  5  7  1  0  0  0  0
  7 22  1  0  0  0  0
  7  8  2  0  0  0  0
  8  9  1  0  0  0  0
  8 33  1  0  0  0  0
  9 10  1  0  0  0  0
  9 17  1  0  0  0  0
 10 11  1  0  0  0  0
 10 34  1  0  0  0  0
 10 35  1  0  0  0  0
 11 16  2  0  0  0  0
 11 12  1  0  0  0  0
 12 13  2  0  0  0  0
 12 36  1  0  0  0  0
 13 14  1  0  0  0  0
 13 37  1  0  0  0  0
 14 15  2  0  0  0  0
 15 16  1  0  0  0  0
 15 38  1  0  0  0  0
 16 39  1  0  0  0  0
 17 22  2  0  0  0  0
 17 18  1  0  0  0  0
 18 19  2  0  0  0  0
 18 40  1  0  0  0  0
 19 20  1  0  0  0  0
 19 41  1  0  0  0  0
 20 21  2  0  0  0  0
 20 42  1  0  0  0  0
 21 22  1  0  0  0  0
 21 43  1  0  0  0  0
 23 24  1  0  0  0  0
 23 25  1  0  0  0  0
 24 44  1  0  0  0  0
 24 45  1  0  0  0  0
 24 46  1  0  0  0  0
 25 47  1  0  0  0  0
 25 48  1  0  0  0  0
 25 49  1  0  0  0  0
M  END
$$$$
CHEMBL1801076
 OpenBabel12022417453D

 56 60  0  0  1  0  0  0  0  0999 V2000
    5.2452    0.2743   -0.3130 C   0  0  0  0  0  0  0  0  0  0  0  0
    5.3107   -0.2777    0.9951 O   0  0  0  0  0  0  0  0  0  0  0  0
    5.4273    0.6497    1.9674 C   0  0  0  0  0  0  0  0  0  0  0  0
    5.4809    2.0515    1.9107 C   0  0  0  0  0  0  0  0  0  0  0  0
    5.5713    2.4318    3.2303 C   0  0  0  0  0  0  0  0  0  0  0  0
    5.6437    3.7334    3.8437 C   0  0  0  0  0  0  0  0  0  0  0  0
    5.6134    4.7827    3.2039 O   0  0  0  0  0  0  0  0  0  0  0  0
    5.7633    3.7029    5.2152 N   0  0  0  0  0  0  0  0  0  0  0  0
    5.8304    4.8938    6.0258 C   0  0  0  0  0  0  0  0  0  0  0  0
    4.4785    5.5190    6.3474 C   0  0  0  0  0  0  0  0  0  0  0  0
    3.7847    5.0471    7.2376 O   0  0  0  0  0  0  0  0  0  0  0  0
    4.0939    6.5486    5.5227 N   0  0  0  0  0  0  0  0  0  0  0  0
    2.8117    7.2389    5.6257 C   0  0  2  0  0  0  0  0  0  0  0  0
    2.3323    7.6670    4.2367 C   0  0  0  0  0  0  0  0  0  0  0  0
    2.8540    8.4525    6.5369 C   0  0  0  0  0  0  0  0  0  0  0  0
    1.7059    8.8476    7.2503 C   0  0  0  0  0  0  0  0  0  0  0  0
    1.7407    9.9504    8.1145 C   0  0  0  0  0  0  0  0  0  0  0  0
    2.9254   10.6794    8.2623 C   0  0  0  0  0  0  0  0  0  0  0  0
    4.0397   10.3552    7.4817 C   0  0  0  0  0  0  0  0  0  0  0  0
    3.9966    9.2503    6.6410 C   0  0  0  0  0  0  0  0  0  0  0  0
    5.0935    8.9593    5.9259 F   0  0  0  0  0  0  0  0  0  0  0  0
    3.0453   11.7412    9.1980 N   0  0  0  0  0  0  0  0  0  0  0  0
    2.4407   11.8666   10.4471 C   0  0  0  0  0  0  0  0  0  0  0  0
    2.9051   13.0763   10.9704 C   0  0  0  0  0  0  0  0  0  0  0  0
    3.7773   13.5678    9.9826 C   0  0  0  0  0  0  0  0  0  0  0  0
    3.9155   12.7524    8.9435 N   0  0  0  0  0  0  0  0  0  0  0  0
    4.7417   15.1783   10.1280 Br  0  0  0  0  0  0  0  0  0  0  0  0
    2.4855   13.4856   12.2518 C   0  0  0  0  0  0  0  0  0  0  0  0
    1.6459   12.6506   12.9949 C   0  0  0  0  0  0  0  0  0  0  0  0
    1.2246   11.4296   12.4788 C   0  0  0  0  0  0  0  0  0  0  0  0
    1.6124   11.0146   11.2014 C   0  0  0  0  0  0  0  0  0  0  0  0
    6.8872    4.8789    7.1237 C   0  0  0  0  0  0  0  0  0  0  0  0
    7.0720    5.7654    5.9343 C   0  0  0  0  0  0  0  0  0  0  0  0
    5.5951    1.3133    4.0156 O   0  0  0  0  0  0  0  0  0  0  0  0
    5.4992    0.1855    3.2138 N   0  0  0  0  0  0  0  0  0  0  0  0
    5.0779   -0.5452   -1.0167 H   0  0  0  0  0  0  0  0  0  0  0  0
    6.1904    0.7613   -0.5762 H   0  0  0  0  0  0  0  0  0  0  0  0
    4.4077    0.9741   -0.4105 H   0  0  0  0  0  0  0  0  0  0  0  0
    5.4483    2.7149    1.0590 H   0  0  0  0  0  0  0  0  0  0  0  0
    5.7305    2.8078    5.6913 H   0  0  0  0  0  0  0  0  0  0  0  0
    4.7978    6.9461    4.9119 H   0  0  0  0  0  0  0  0  0  0  0  0
    2.0909    6.5209    6.0384 H   0  0  0  0  0  0  0  0  0  0  0  0
    3.0237    8.3845    3.7791 H   0  0  0  0  0  0  0  0  0  0  0  0
    1.3458    8.1434    4.2839 H   0  0  0  0  0  0  0  0  0  0  0  0
    2.2583    6.8052    3.5653 H   0  0  0  0  0  0  0  0  0  0  0  0
    0.7708    8.3002    7.1340 H   0  0  0  0  0  0  0  0  0  0  0  0
    0.8240   10.2443    8.6214 H   0  0  0  0  0  0  0  0  0  0  0  0
    4.9677   10.9155    7.5545 H   0  0  0  0  0  0  0  0  0  0  0  0
    2.8370   14.4208   12.6794 H   0  0  0  0  0  0  0  0  0  0  0  0
    1.3407   12.9480   13.9955 H   0  0  0  0  0  0  0  0  0  0  0  0
    0.5978   10.7775   13.0839 H   0  0  0  0  0  0  0  0  0  0  0  0
    1.3072   10.0379   10.8398 H   0  0  0  0  0  0  0  0  0  0  0  0
    7.5297    4.0084    7.2074 H   0  0  0  0  0  0  0  0  0  0  0  0
    6.6537    5.3419    8.0750 H   0  0  0  0  0  0  0  0  0  0  0  0
    6.9860    6.8334    6.0896 H   0  0  0  0  0  0  0  0  0  0  0  0
    7.8298    5.4909    5.2070 H   0  0  0  0  0  0  0  0  0  0  0  0
  1  2  1  0  0  0  0
  1 36  1  0  0  0  0
  1 37  1  0  0  0  0
  1 38  1  0  0  0  0
  2  3  1  0  0  0  0
  3 35  2  0  0  0  0
  3  4  1  0  0  0  0
  4  5  2  0  0  0  0
  4 39  1  0  0  0  0
  5  6  1  0  0  0  0
  5 34  1  0  0  0  0
  6  7  2  0  0  0  0
  6  8  1  0  0  0  0
  8  9  1  0  0  0  0
  8 40  1  0  0  0  0
  9 33  1  0  0  0  0
  9 10  1  0  0  0  0
  9 32  1  0  0  0  0
 10 11  2  0  0  0  0
 10 12  1  0  0  0  0
 12 41  1  0  0  0  0
 13 15  1  0  0  0  0
 13 14  1  0  0  0  0
 13 12  1  0  0  0  0
 13 42  1  1  0  0  0
 14 43  1  0  0  0  0
 14 44  1  0  0  0  0
 14 45  1  0  0  0  0
 15 20  2  0  0  0  0
 15 16  1  0  0  0  0
 16 17  2  0  0  0  0
 16 46  1  0  0  0  0
 17 18  1  0  0  0  0
 17 47  1  0  0  0  0
 18 19  2  0  0  0  0
 18 22  1  0  0  0  0
 19 20  1  0  0  0  0
 19 48  1  0  0  0  0
 20 21  1  0  0  0  0
 22 26  1  0  0  0  0
 22 23  1  0  0  0  0
 23 31  2  0  0  0  0
 23 24  1  0  0  0  0
 24 25  1  0  0  0  0
 24 28  2  0  0  0  0
 25 26  2  0  0  0  0
 25 27  1  0  0  0  0
 28 29  1  0  0  0  0
 28 49  1  0  0  0  0
 29 30  2  0  0  0  0
 29 50  1  0  0  0  0
 30 31  1  0  0  0  0
 30 51  1  0  0  0  0
 31 52  1  0  0  0  0
 32 33  1  0  0  0  0
 32 53  1  0  0  0  0
 32 54  1  0  0  0  0
 33 55  1  0  0  0  0
 33 56  1  0  0  0  0
 34 35  1  0  0  0  0
M  END
$$$$
CHEMBL4779298
 OpenBabel12022417453D

 51 53  0  0  0  0  0  0  0  0999 V2000
   -1.2538   -0.6057    0.0002 C   0  0  0  0  0  0  0  0  0  0  0  0
   -0.1504   -1.3678    0.0711 C   0  0  0  0  0  0  0  0  0  0  0  0
   -0.3097   -2.8566    0.2223 C   0  0  0  0  0  0  0  0  0  0  0  0
    1.1170   -0.7636    0.0342 N   0  0  0  0  0  0  0  0  0  0  0  0
    2.3387   -1.5246    0.3193 C   0  0  0  0  0  0  0  0  0  0  0  0
    3.1275   -2.0704   -0.8577 C   0  0  0  0  0  0  0  0  0  0  0  0
    3.1154   -3.4472   -1.1424 C   0  0  0  0  0  0  0  0  0  0  0  0
    4.0340   -3.9972   -2.0427 C   0  0  0  0  0  0  0  0  0  0  0  0
    4.9538   -3.1720   -2.6756 C   0  0  0  0  0  0  0  0  0  0  0  0
    4.9433   -1.8005   -2.4622 C   0  0  0  0  0  0  0  0  0  0  0  0
    4.0269   -1.2483   -1.5586 C   0  0  0  0  0  0  0  0  0  0  0  0
    5.8833   -3.7108   -3.4770 F   0  0  0  0  0  0  0  0  0  0  0  0
    1.2639    0.6360   -0.0756 C   0  0  0  0  0  0  0  0  0  0  0  0
    2.3569    1.2043   -0.0948 O   0  0  0  0  0  0  0  0  0  0  0  0
    0.0133    1.4579   -0.1124 C   0  0  0  0  0  0  0  0  0  0  0  0
   -1.1697    0.8216   -0.0728 C   0  0  0  0  0  0  0  0  0  0  0  0
   -0.0336    2.9485   -0.1597 C   0  0  0  0  0  0  0  0  0  0  0  0
   -1.0976    3.5607   -0.1015 O   0  0  0  0  0  0  0  0  0  0  0  0
    1.1751    3.5923   -0.2671 N   0  0  0  0  0  0  0  0  0  0  0  0
    1.2804    5.0467   -0.3491 C   0  0  0  0  0  0  0  0  0  0  0  0
    1.2058    5.6949    1.0434 C   0  0  0  0  0  0  0  0  0  0  0  0
    2.5460    5.8174    1.7657 C   0  0  0  0  0  0  0  0  0  0  0  0
    3.2741    7.1196    1.4318 C   0  0  0  0  0  0  0  0  0  0  0  0
    3.8447    7.2217    0.0192 C   0  0  0  0  0  0  0  0  0  0  0  0
    2.8791    6.9017   -1.1206 C   0  0  0  0  0  0  0  0  0  0  0  0
    2.5097    5.4216   -1.1828 C   0  0  0  0  0  0  0  0  0  0  0  0
   -2.2493   -1.0394    0.0324 H   0  0  0  0  0  0  0  0  0  0  0  0
   -1.3614   -3.1343    0.3669 H   0  0  0  0  0  0  0  0  0  0  0  0
    0.2196   -3.2363    1.1004 H   0  0  0  0  0  0  0  0  0  0  0  0
    0.0402   -3.3772   -0.6729 H   0  0  0  0  0  0  0  0  0  0  0  0
    2.1134   -2.3398    1.0140 H   0  0  0  0  0  0  0  0  0  0  0  0
    3.0205   -0.8858    0.8958 H   0  0  0  0  0  0  0  0  0  0  0  0
    2.4331   -4.1146   -0.6222 H   0  0  0  0  0  0  0  0  0  0  0  0
    4.0638   -5.0673   -2.2230 H   0  0  0  0  0  0  0  0  0  0  0  0
    5.6723   -1.1732   -2.9654 H   0  0  0  0  0  0  0  0  0  0  0  0
    4.0677   -0.1797   -1.3632 H   0  0  0  0  0  0  0  0  0  0  0  0
   -2.1095    1.3723   -0.0747 H   0  0  0  0  0  0  0  0  0  0  0  0
    2.0249    3.0294   -0.2153 H   0  0  0  0  0  0  0  0  0  0  0  0
    0.3928    5.3883   -0.8982 H   0  0  0  0  0  0  0  0  0  0  0  0
    0.5134    5.1258    1.6768 H   0  0  0  0  0  0  0  0  0  0  0  0
    0.7581    6.6922    0.9445 H   0  0  0  0  0  0  0  0  0  0  0  0
    3.1855    4.9479    1.5768 H   0  0  0  0  0  0  0  0  0  0  0  0
    2.3452    5.8253    2.8448 H   0  0  0  0  0  0  0  0  0  0  0  0
    4.1049    7.2409    2.1386 H   0  0  0  0  0  0  0  0  0  0  0  0
    2.6021    7.9685    1.6107 H   0  0  0  0  0  0  0  0  0  0  0  0
    4.7246    6.5710   -0.0595 H   0  0  0  0  0  0  0  0  0  0  0  0
    4.2132    8.2459   -0.1208 H   0  0  0  0  0  0  0  0  0  0  0  0
    3.3843    7.1609   -2.0595 H   0  0  0  0  0  0  0  0  0  0  0  0
    1.9845    7.5333   -1.0674 H   0  0  0  0  0  0  0  0  0  0  0  0
    2.2969    5.1547   -2.2268 H   0  0  0  0  0  0  0  0  0  0  0  0
    3.3747    4.8078   -0.8992 H   0  0  0  0  0  0  0  0  0  0  0  0
  1 16  1  0  0  0  0
  1  2  2  0  0  0  0
  1 27  1  0  0  0  0
  2  3  1  0  0  0  0
  2  4  1  0  0  0  0
  3 28  1  0  0  0  0
  3 29  1  0  0  0  0
  3 30  1  0  0  0  0
  4  5  1  0  0  0  0
  4 13  1  0  0  0  0
  5  6  1  0  0  0  0
  5 31  1  0  0  0  0
  5 32  1  0  0  0  0
  6 11  2  0  0  0  0
  6  7  1  0  0  0  0
  7  8  2  0  0  0  0
  7 33  1  0  0  0  0
  8  9  1  0  0  0  0
  8 34  1  0  0  0  0
  9 10  2  0  0  0  0
  9 12  1  0  0  0  0
 10 11  1  0  0  0  0
 10 35  1  0  0  0  0
 11 36  1  0  0  0  0
 13 14  2  0  0  0  0
 13 15  1  0  0  0  0
 15 16  2  0  0  0  0
 15 17  1  0  0  0  0
 16 37  1  0  0  0  0
 17 18  2  0  0  0  0
 17 19  1  0  0  0  0
 19 20  1  0  0  0  0
 19 38  1  0  0  0  0
 20 26  1  0  0  0  0
 20 21  1  0  0  0  0
 20 39  1  0  0  0  0
 21 22  1  0  0  0  0
 21 40  1  0  0  0  0
 21 41  1  0  0  0  0
 22 23  1  0  0  0  0
 22 42  1  0  0  0  0
 22 43  1  0  0  0  0
 23 24  1  0  0  0  0
 23 44  1  0  0  0  0
 23 45  1  0  0  0  0
 24 25  1  0  0  0  0
 24 46  1  0  0  0  0
 24 47  1  0  0  0  0
 25 26  1  0  0  0  0
 25 48  1  0  0  0  0
 25 49  1  0  0  0  0
 26 50  1  0  0  0  0
 26 51  1  0  0  0  0
M  END
$$$$
CHEMBL3956678
 OpenBabel12022417453D

 63 67  0  0  1  0  0  0  0  0999 V2000
    1.3714    0.2788    0.2695 C   0  0  0  0  0  0  0  0  0  0  0  0
    2.7850    0.7000    0.6731 C   0  0  2  0  0  0  0  0  0  0  0  0
    2.8091    1.3021    2.0666 C   0  0  0  0  0  0  0  0  0  0  0  0
    3.4532    0.6063    3.1058 C   0  0  0  0  0  0  0  0  0  0  0  0
    3.4309    1.0880    4.4157 C   0  0  0  0  0  0  0  0  0  0  0  0
    2.7701    2.2776    4.7063 C   0  0  0  0  0  0  0  0  0  0  0  0
    2.1389    2.9879    3.6862 C   0  0  0  0  0  0  0  0  0  0  0  0
    2.1576    2.5055    2.3740 C   0  0  0  0  0  0  0  0  0  0  0  0
    3.3798    1.5748   -0.3243 N   0  0  0  0  0  0  0  0  0  0  0  0
    4.3988    1.1396   -1.1474 C   0  0  0  0  0  0  0  0  0  0  0  0
    4.8754    0.0106   -1.0609 O   0  0  0  0  0  0  0  0  0  0  0  0
    4.9006    2.1316   -2.1263 C   0  0  0  0  0  0  0  0  0  0  0  0
    6.0299    1.9741   -2.9738 C   0  0  0  0  0  0  0  0  0  0  0  0
    6.1906    3.1957   -3.6168 C   0  0  0  0  0  0  0  0  0  0  0  0
    7.3098    3.5608   -4.4508 C   0  0  0  0  0  0  0  0  0  0  0  0
    7.1095    4.1223   -5.6651 C   0  0  0  0  0  0  0  0  0  0  0  0
    8.1850    4.4574   -6.6138 C   0  0  0  0  0  0  0  0  0  0  0  0
    8.7934    5.7232   -6.5916 C   0  0  0  0  0  0  0  0  0  0  0  0
    9.8240    6.0275   -7.4865 C   0  0  0  0  0  0  0  0  0  0  0  0
   10.2461    5.0678   -8.4007 C   0  0  0  0  0  0  0  0  0  0  0  0
    9.6571    3.8107   -8.4360 C   0  0  0  0  0  0  0  0  0  0  0  0
    8.6244    3.5040   -7.5428 C   0  0  0  0  0  0  0  0  0  0  0  0
   11.2333    5.3600   -9.2553 F   0  0  0  0  0  0  0  0  0  0  0  0
    8.6967    3.1348   -3.9755 C   0  0  0  0  0  0  0  0  0  0  0  0
    9.0055    1.6609   -4.2767 C   0  0  0  0  0  0  0  0  0  0  0  0
    7.8031    0.7070   -4.3172 C   0  0  0  0  0  0  0  0  0  0  0  0
    6.9116    0.7615   -3.0745 C   0  0  0  0  0  0  0  0  0  0  0  0
    5.1210    3.9998   -3.2060 N   0  0  0  0  0  0  0  0  0  0  0  0
    4.8345    5.3766   -3.4824 C   0  0  0  0  0  0  0  0  0  0  0  0
    3.5177    5.8822   -3.4977 C   0  0  0  0  0  0  0  0  0  0  0  0
    3.2877    7.2424   -3.7620 C   0  0  0  0  0  0  0  0  0  0  0  0
    4.3527    8.1010   -4.0115 C   0  0  0  0  0  0  0  0  0  0  0  0
    5.6555    7.6219   -3.9893 C   0  0  0  0  0  0  0  0  0  0  0  0
    5.8949    6.2732   -3.7103 C   0  0  0  0  0  0  0  0  0  0  0  0
    4.0594    9.7625   -4.3428 Cl  0  0  0  0  0  0  0  0  0  0  0  0
    2.0846    4.9226   -3.3218 Cl  0  0  0  0  0  0  0  0  0  0  0  0
    4.3401    3.3393   -2.2964 N   0  0  0  0  0  0  0  0  0  0  0  0
    1.3837   -0.2362   -0.6967 H   0  0  0  0  0  0  0  0  0  0  0  0
    0.6982    1.1380    0.1786 H   0  0  0  0  0  0  0  0  0  0  0  0
    0.9442   -0.4060    1.0109 H   0  0  0  0  0  0  0  0  0  0  0  0
    3.3765   -0.2228    0.7056 H   0  0  0  0  0  0  0  0  0  0  0  0
    3.9673   -0.3317    2.9025 H   0  0  0  0  0  0  0  0  0  0  0  0
    3.9223    0.5292    5.2083 H   0  0  0  0  0  0  0  0  0  0  0  0
    2.7439    2.6489    5.7276 H   0  0  0  0  0  0  0  0  0  0  0  0
    1.6203    3.9152    3.9162 H   0  0  0  0  0  0  0  0  0  0  0  0
    1.6442    3.0682    1.5985 H   0  0  0  0  0  0  0  0  0  0  0  0
    3.0392    2.5178   -0.4768 H   0  0  0  0  0  0  0  0  0  0  0  0
    6.1127    4.3421   -6.0368 H   0  0  0  0  0  0  0  0  0  0  0  0
    8.4763    6.4772   -5.8772 H   0  0  0  0  0  0  0  0  0  0  0  0
   10.3021    7.0026   -7.4770 H   0  0  0  0  0  0  0  0  0  0  0  0
   10.0049    3.0764   -9.1564 H   0  0  0  0  0  0  0  0  0  0  0  0
    8.1731    2.5161   -7.5734 H   0  0  0  0  0  0  0  0  0  0  0  0
    8.7441    3.2898   -2.8878 H   0  0  0  0  0  0  0  0  0  0  0  0
    9.4930    3.7702   -4.3772 H   0  0  0  0  0  0  0  0  0  0  0  0
    9.7227    1.2985   -3.5293 H   0  0  0  0  0  0  0  0  0  0  0  0
    9.5203    1.5952   -5.2428 H   0  0  0  0  0  0  0  0  0  0  0  0
    8.1896   -0.3144   -4.4237 H   0  0  0  0  0  0  0  0  0  0  0  0
    7.2063    0.8946   -5.2197 H   0  0  0  0  0  0  0  0  0  0  0  0
    6.2703   -0.1275   -3.1064 H   0  0  0  0  0  0  0  0  0  0  0  0
    7.5263    0.6872   -2.1695 H   0  0  0  0  0  0  0  0  0  0  0  0
    2.2710    7.6290   -3.7866 H   0  0  0  0  0  0  0  0  0  0  0  0
    6.4924    8.2916   -4.1728 H   0  0  0  0  0  0  0  0  0  0  0  0
    6.9323    5.9597   -3.6364 H   0  0  0  0  0  0  0  0  0  0  0  0
  1 38  1  0  0  0  0
  1 39  1  0  0  0  0
  1 40  1  0  0  0  0
  2  9  1  0  0  0  0
  2  3  1  0  0  0  0
  2  1  1  0  0  0  0
  2 41  1  1  0  0  0
  3  8  2  0  0  0  0
  3  4  1  0  0  0  0
  4  5  2  0  0  0  0
  4 42  1  0  0  0  0
  5  6  1  0  0  0  0
  5 43  1  0  0  0  0
  6  7  2  0  0  0  0
  6 44  1  0  0  0  0
  7  8  1  0  0  0  0
  7 45  1  0  0  0  0
  8 46  1  0  0  0  0
  9 10  1  0  0  0  0
  9 47  1  0  0  0  0
 10 11  2  0  0  0  0
 10 12  1  0  0  0  0
 12 37  2  0  0  0  0
 12 13  1  0  0  0  0
 13 27  1  0  0  0  0
 13 14  2  0  0  0  0
 14 15  1  0  0  0  0
 14 28  1  0  0  0  0
 15 16  2  0  0  0  0
 15 24  1  0  0  0  0
 16 17  1  0  0  0  0
 16 48  1  0  0  0  0
 17 22  2  0  0  0  0
 17 18  1  0  0  0  0
 18 19  2  0  0  0  0
 18 49  1  0  0  0  0
 19 20  1  0  0  0  0
 19 50  1  0  0  0  0
 20 21  2  0  0  0  0
 20 23  1  0  0  0  0
 21 22  1  0  0  0  0
 21 51  1  0  0  0  0
 22 52  1  0  0  0  0
 24 25  1  0  0  0  0
 24 53  1  0  0  0  0
 24 54  1  0  0  0  0
 25 26  1  0  0  0  0
 25 55  1  0  0  0  0
 25 56  1  0  0  0  0
 26 27  1  0  0  0  0
 26 57  1  0  0  0  0
 26 58  1  0  0  0  0
 27 59  1  0  0  0  0
 27 60  1  0  0  0  0
 28 29  1  0  0  0  0
 28 37  1  0  0  0  0
 29 34  2  0  0  0  0
 29 30  1  0  0  0  0
 30 31  2  0  0  0  0
 30 36  1  0  0  0  0
 31 32  1  0  0  0  0
 31 61  1  0  0  0  0
 32 33  2  0  0  0  0
 32 35  1  0  0  0  0
 33 34  1  0  0  0  0
 33 62  1  0  0  0  0
 34 63  1  0  0  0  0
M  END
$$$$
CHEMBL4467516
 OpenBabel12022417453D

 44 47  0  0  1  0  0  0  0  0999 V2000
   -1.5934   -1.0476    0.1383 C   0  0  0  0  0  0  0  0  0  0  0  0
   -1.7972    0.3166    0.0529 C   0  0  0  0  0  0  0  0  0  0  0  0
   -0.7297    1.2006   -0.0150 C   0  0  0  0  0  0  0  0  0  0  0  0
    0.5622    0.6592    0.0234 C   0  0  0  0  0  0  0  0  0  0  0  0
    0.8362   -0.7074    0.0937 C   0  0  0  0  0  0  0  0  0  0  0  0
   -0.2902   -1.5678    0.1391 C   0  0  0  0  0  0  0  0  0  0  0  0
    2.2883   -0.8599    0.0986 C   0  0  0  0  0  0  0  0  0  0  0  0
    2.8247    0.4421    0.0424 C   0  0  0  0  0  0  0  0  0  0  0  0
    4.1975    0.9915   -0.0094 C   0  0  0  0  0  0  0  0  0  0  0  0
    4.4568    2.1643   -0.7412 C   0  0  0  0  0  0  0  0  0  0  0  0
    5.7259    2.7381   -0.7415 C   0  0  0  0  0  0  0  0  0  0  0  0
    6.7764    2.1536   -0.0522 C   0  0  0  0  0  0  0  0  0  0  0  0
    6.5494    0.9762    0.6523 C   0  0  0  0  0  0  0  0  0  0  0  0
    5.2667    0.4121    0.6860 C   0  0  0  0  0  0  0  0  0  0  0  0
    5.9289    3.8811   -1.4105 F   0  0  0  0  0  0  0  0  0  0  0  0
    1.7596    1.3118    0.0131 N   0  0  0  0  0  0  0  0  0  0  0  0
    3.1097   -2.1578    0.1488 C   0  0  1  0  0  0  0  0  0  0  0  0
    2.4095   -3.5010    0.2843 C   0  0  0  0  0  0  0  0  0  0  0  0
    1.7530   -3.6748    1.6243 N   0  3  0  0  0  0  0  0  0  0  0  0
    2.2139   -3.0676    2.5948 O   0  0  0  0  0  0  0  0  0  0  0  0
    0.8080   -4.4730    1.6624 O   0  5  0  0  0  0  0  0  0  0  0  0
    3.9738   -2.1926   -1.1167 C   0  0  0  0  0  0  0  0  0  0  0  0
    3.5514   -1.7271   -2.3720 C   0  0  0  0  0  0  0  0  0  0  0  0
    4.4153   -1.7553   -3.4714 C   0  0  0  0  0  0  0  0  0  0  0  0
    5.6974   -2.2880   -3.3480 C   0  0  0  0  0  0  0  0  0  0  0  0
    6.1166   -2.8009   -2.1244 C   0  0  0  0  0  0  0  0  0  0  0  0
    5.2598   -2.7502   -1.0292 C   0  0  0  0  0  0  0  0  0  0  0  0
    5.6820   -3.2582    0.1386 F   0  0  0  0  0  0  0  0  0  0  0  0
   -3.0476    0.7968    0.0328 F   0  0  0  0  0  0  0  0  0  0  0  0
   -2.4490   -1.7133    0.2036 H   0  0  0  0  0  0  0  0  0  0  0  0
   -0.9049    2.2679   -0.0838 H   0  0  0  0  0  0  0  0  0  0  0  0
   -0.2023   -2.6451    0.1859 H   0  0  0  0  0  0  0  0  0  0  0  0
    3.6846    2.6586   -1.3221 H   0  0  0  0  0  0  0  0  0  0  0  0
    7.7564    2.6188   -0.0636 H   0  0  0  0  0  0  0  0  0  0  0  0
    7.3636    0.4994    1.1924 H   0  0  0  0  0  0  0  0  0  0  0  0
    5.1276   -0.4794    1.2879 H   0  0  0  0  0  0  0  0  0  0  0  0
    1.8462    2.3182   -0.0063 H   0  0  0  0  0  0  0  0  0  0  0  0
    3.7808   -2.0473    1.0103 H   0  0  0  0  0  0  0  0  0  0  0  0
    3.1261   -4.3327    0.2397 H   0  0  0  0  0  0  0  0  0  0  0  0
    1.6576   -3.6708   -0.4924 H   0  0  0  0  0  0  0  0  0  0  0  0
    2.5595   -1.2993   -2.5066 H   0  0  0  0  0  0  0  0  0  0  0  0
    4.0867   -1.3499   -4.4259 H   0  0  0  0  0  0  0  0  0  0  0  0
    6.3658   -2.3040   -4.2053 H   0  0  0  0  0  0  0  0  0  0  0  0
    7.1066   -3.2328   -2.0144 H   0  0  0  0  0  0  0  0  0  0  0  0
  1  6  2  0  0  0  0
  1  2  1  0  0  0  0
  1 30  1  0  0  0  0
  2  3  2  0  0  0  0
  2 29  1  0  0  0  0
  3  4  1  0  0  0  0
  3 31  1  0  0  0  0
  4 16  1  0  0  0  0
  4  5  2  0  0  0  0
  5  6  1  0  0  0  0
  5  7  1  0  0  0  0
  6 32  1  0  0  0  0
  7  8  2  0  0  0  0
  7 17  1  0  0  0  0
  8  9  1  0  0  0  0
  8 16  1  0  0  0  0
  9 14  2  0  0  0  0
  9 10  1  0  0  0  0
 10 11  2  0  0  0  0
 10 33  1  0  0  0  0
 11 12  1  0  0  0  0
 11 15  1  0  0  0  0
 12 13  2  0  0  0  0
 12 34  1  0  0  0  0
 13 14  1  0  0  0  0
 13 35  1  0  0  0  0
 14 36  1  0  0  0  0
 16 37  1  0  0  0  0
 17 18  1  0  0  0  0
 17 22  1  0  0  0  0
 17 38  1  1  0  0  0
 18 19  1  0  0  0  0
 18 39  1  0  0  0  0
 18 40  1  0  0  0  0
 19 20  2  0  0  0  0
 19 21  1  0  0  0  0
 22 27  2  0  0  0  0
 22 23  1  0  0  0  0
 23 24  2  0  0  0  0
 23 41  1  0  0  0  0
 24 25  1  0  0  0  0
 24 42  1  0  0  0  0
 25 26  2  0  0  0  0
 25 43  1  0  0  0  0
 26 27  1  0  0  0  0
 26 44  1  0  0  0  0
 27 28  1  0  0  0  0
M  CHG  2  19   1  21  -1
M  END
$$$$
CHEMBL3353439
 OpenBabel12022417453D

 53 56  0  0  1  0  0  0  0  0999 V2000
    2.4317   -0.8895    0.1161 C   0  0  0  0  0  0  0  0  0  0  0  0
    2.4001    0.4894    0.2315 C   0  0  0  0  0  0  0  0  0  0  0  0
    1.2574    1.2241    0.2217 N   0  0  0  0  0  0  0  0  0  0  0  0
    0.0858    0.5543    0.1087 C   0  0  0  0  0  0  0  0  0  0  0  0
    0.0317   -0.8457    0.0633 C   0  0  0  0  0  0  0  0  0  0  0  0
    1.2265   -1.5728    0.0471 C   0  0  0  0  0  0  0  0  0  0  0  0
   -1.2490   -1.5429    0.0085 C   0  0  0  0  0  0  0  0  0  0  0  0
   -2.3981   -0.8528    0.0019 C   0  0  0  0  0  0  0  0  0  0  0  0
   -2.3580    0.6468    0.0456 C   0  0  0  0  0  0  0  0  0  0  0  0
   -3.4151    1.2810    0.1077 O   0  0  0  0  0  0  0  0  0  0  0  0
   -1.1278    1.2811    0.0265 N   0  0  0  0  0  0  0  0  0  0  0  0
   -1.0982    2.7392    0.0270 C   0  0  0  0  0  0  0  0  0  0  0  0
   -1.1053    3.4243   -1.3337 C   0  0  0  0  0  0  0  0  0  0  0  0
    0.0820    3.9757   -1.8424 C   0  0  0  0  0  0  0  0  0  0  0  0
    0.0461    4.8770   -2.9115 C   0  0  0  0  0  0  0  0  0  0  0  0
   -1.1638    5.1943   -3.5053 C   0  0  0  0  0  0  0  0  0  0  0  0
   -2.3429    4.5792   -3.0914 C   0  0  0  0  0  0  0  0  0  0  0  0
   -2.3121    3.6905   -2.0142 C   0  0  0  0  0  0  0  0  0  0  0  0
   -1.2083    6.1330   -4.4646 F   0  0  0  0  0  0  0  0  0  0  0  0
   -3.6880   -1.6415   -0.0630 C   0  0  0  0  0  0  0  0  0  0  0  0
   -3.7129   -2.8621   -0.0595 O   0  0  0  0  0  0  0  0  0  0  0  0
   -4.8023   -0.8445   -0.1224 N   0  0  0  0  0  0  0  0  0  0  0  0
   -6.1883   -1.2818   -0.0129 C   0  0  2  0  0  0  0  0  0  0  0  0
   -7.1160   -0.2451   -0.6682 C   0  0  0  0  0  0  0  0  0  0  0  0
   -7.0978    1.1094    0.0514 C   0  0  0  0  0  0  0  0  0  0  0  0
   -7.3325    0.9898    1.5649 C   0  0  1  0  0  0  0  0  0  0  0  0
   -6.4854   -0.1171    2.2118 C   0  0  0  0  0  0  0  0  0  0  0  0
   -6.5852   -1.4454    1.4574 C   0  0  0  0  0  0  0  0  0  0  0  0
   -7.0512    2.3310    2.2465 C   0  0  0  0  0  0  0  0  0  0  0  0
    4.0672   -1.8200    0.0119 Br  0  0  0  0  0  0  0  0  0  0  0  0
    3.3158    1.0679    0.3207 H   0  0  0  0  0  0  0  0  0  0  0  0
    1.2141   -2.6562   -0.0388 H   0  0  0  0  0  0  0  0  0  0  0  0
   -1.2421   -2.6293   -0.0237 H   0  0  0  0  0  0  0  0  0  0  0  0
   -0.2597    3.1124    0.6250 H   0  0  0  0  0  0  0  0  0  0  0  0
   -1.9845    3.1113    0.5600 H   0  0  0  0  0  0  0  0  0  0  0  0
    1.0350    3.7608   -1.3596 H   0  0  0  0  0  0  0  0  0  0  0  0
    0.9541    5.3645   -3.2518 H   0  0  0  0  0  0  0  0  0  0  0  0
   -3.2795    4.8365   -3.5798 H   0  0  0  0  0  0  0  0  0  0  0  0
   -3.2500    3.2646   -1.6618 H   0  0  0  0  0  0  0  0  0  0  0  0
   -4.6461    0.1459    0.0280 H   0  0  0  0  0  0  0  0  0  0  0  0
   -6.2808   -2.2426   -0.5285 H   0  0  0  0  0  0  0  0  0  0  0  0
   -8.1428   -0.6301   -0.6648 H   0  0  0  0  0  0  0  0  0  0  0  0
   -6.8349   -0.0952   -1.7177 H   0  0  0  0  0  0  0  0  0  0  0  0
   -7.8650    1.7599   -0.3876 H   0  0  0  0  0  0  0  0  0  0  0  0
   -6.1424    1.6122   -0.1409 H   0  0  0  0  0  0  0  0  0  0  0  0
   -8.3898    0.7407    1.7250 H   0  0  0  0  0  0  0  0  0  0  0  0
   -6.8054   -0.2678    3.2495 H   0  0  0  0  0  0  0  0  0  0  0  0
   -5.4354    0.1977    2.2583 H   0  0  0  0  0  0  0  0  0  0  0  0
   -5.9484   -2.1911    1.9457 H   0  0  0  0  0  0  0  0  0  0  0  0
   -7.6163   -1.8183    1.5155 H   0  0  0  0  0  0  0  0  0  0  0  0
   -6.0260    2.6665    2.0504 H   0  0  0  0  0  0  0  0  0  0  0  0
   -7.1768    2.2554    3.3315 H   0  0  0  0  0  0  0  0  0  0  0  0
   -7.7334    3.1049    1.8798 H   0  0  0  0  0  0  0  0  0  0  0  0
  1  6  2  0  0  0  0
  1  2  1  0  0  0  0
  1 30  1  0  0  0  0
  2  3  2  0  0  0  0
  2 31  1  0  0  0  0
  3  4  1  0  0  0  0
  4 11  1  0  0  0  0
  4  5  2  0  0  0  0
  5  6  1  0  0  0  0
  5  7  1  0  0  0  0
  6 32  1  0  0  0  0
  7  8  2  0  0  0  0
  7 33  1  0  0  0  0
  8  9  1  0  0  0  0
  8 20  1  0  0  0  0
  9 10  2  0  0  0  0
  9 11  1  0  0  0  0
 11 12  1  0  0  0  0
 12 13  1  0  0  0  0
 12 34  1  0  0  0  0
 12 35  1  0  0  0  0
 13 18  2  0  0  0  0
 13 14  1  0  0  0  0
 14 15  2  0  0  0  0
 14 36  1  0  0  0  0
 15 16  1  0  0  0  0
 15 37  1  0  0  0  0
 16 17  2  0  0  0  0
 16 19  1  0  0  0  0
 17 18  1  0  0  0  0
 17 38  1  0  0  0  0
 18 39  1  0  0  0  0
 20 21  2  0  0  0  0
 20 22  1  0  0  0  0
 22 40  1  0  0  0  0
 23 22  1  0  0  0  0
 23 24  1  0  0  0  0
 23 28  1  0  0  0  0
 23 41  1  6  0  0  0
 24 25  1  0  0  0  0
 24 42  1  0  0  0  0
 24 43  1  0  0  0  0
 25 26  1  0  0  0  0
 25 44  1  0  0  0  0
 25 45  1  0  0  0  0
 26 27  1  0  0  0  0
 26 29  1  0  0  0  0
 26 46  1  1  0  0  0
 27 28  1  0  0  0  0
 27 47  1  0  0  0  0
 27 48  1  0  0  0  0
 28 49  1  0  0  0  0
 28 50  1  0  0  0  0
 29 51  1  0  0  0  0
 29 52  1  0  0  0  0
 29 53  1  0  0  0  0
M  END
$$$$
CHEMBL4438072
 OpenBabel12022417453D

 49 52  0  0  0  0  0  0  0  0999 V2000
    0.8938   -4.5406   -2.8493 C   0  0  0  0  0  0  0  0  0  0  0  0
    2.4127   -4.6162   -2.8630 C   0  0  0  0  0  0  0  0  0  0  0  0
    3.0370   -3.5964   -1.9088 C   0  0  0  0  0  0  0  0  0  0  0  0
    4.5680   -3.6696   -1.9309 C   0  0  0  0  0  0  0  0  0  0  0  0
    5.1928   -2.6133   -1.0147 C   0  0  0  0  0  0  0  0  0  0  0  0
    6.6467   -2.6736   -0.9770 N   0  0  0  0  0  0  0  0  0  0  0  0
    7.4543   -2.3814   -2.0459 C   0  0  0  0  0  0  0  0  0  0  0  0
    8.7821   -2.4981   -1.6714 C   0  0  0  0  0  0  0  0  0  0  0  0
    8.7691   -2.7661   -0.2542 C   0  0  0  0  0  0  0  0  0  0  0  0
    7.4275   -2.9476    0.1303 C   0  0  0  0  0  0  0  0  0  0  0  0
    7.0692   -3.3186    1.4415 C   0  0  0  0  0  0  0  0  0  0  0  0
    8.0848   -3.4896    2.3945 C   0  0  0  0  0  0  0  0  0  0  0  0
    9.4107   -3.2602    2.0554 C   0  0  0  0  0  0  0  0  0  0  0  0
    9.7491   -2.8885    0.7564 C   0  0  0  0  0  0  0  0  0  0  0  0
   11.0412   -2.6413    0.4891 F   0  0  0  0  0  0  0  0  0  0  0  0
    9.8939   -2.3387   -2.6332 C   0  0  0  0  0  0  0  0  0  0  0  0
    9.7475   -1.6491   -3.6401 O   0  0  0  0  0  0  0  0  0  0  0  0
   11.1881   -3.0929   -2.4483 C   0  0  0  0  0  0  0  0  0  0  0  0
   11.1012   -4.3906   -1.8983 C   0  0  0  0  0  0  0  0  0  0  0  0
   12.2551   -5.0857   -1.5424 C   0  0  0  0  0  0  0  0  0  0  0  0
   13.4900   -4.4487   -1.6446 C   0  0  0  0  0  0  0  0  0  0  0  0
   13.5844   -3.1445   -2.1442 C   0  0  0  0  0  0  0  0  0  0  0  0
   14.8076   -2.4594   -2.0672 C   0  0  0  0  0  0  0  0  0  0  0  0
   14.9430   -1.1790   -2.5912 C   0  0  0  0  0  0  0  0  0  0  0  0
   13.9199   -0.6494   -3.3615 C   0  0  0  0  0  0  0  0  0  0  0  0
   12.6810   -1.2935   -3.3986 C   0  0  0  0  0  0  0  0  0  0  0  0
   12.4478   -2.4982   -2.6893 C   0  0  0  0  0  0  0  0  0  0  0  0
    0.4690   -5.2798   -3.5360 H   0  0  0  0  0  0  0  0  0  0  0  0
    0.5456   -3.5507   -3.1606 H   0  0  0  0  0  0  0  0  0  0  0  0
    0.4995   -4.7442   -1.8480 H   0  0  0  0  0  0  0  0  0  0  0  0
    2.7700   -4.4380   -3.8839 H   0  0  0  0  0  0  0  0  0  0  0  0
    2.7247   -5.6293   -2.5828 H   0  0  0  0  0  0  0  0  0  0  0  0
    2.6762   -3.7770   -0.8890 H   0  0  0  0  0  0  0  0  0  0  0  0
    2.7139   -2.5860   -2.1893 H   0  0  0  0  0  0  0  0  0  0  0  0
    4.9222   -3.5240   -2.9582 H   0  0  0  0  0  0  0  0  0  0  0  0
    4.8949   -4.6705   -1.6224 H   0  0  0  0  0  0  0  0  0  0  0  0
    4.8097   -2.7329    0.0050 H   0  0  0  0  0  0  0  0  0  0  0  0
    4.9244   -1.6048   -1.3422 H   0  0  0  0  0  0  0  0  0  0  0  0
    7.0311   -2.1345   -3.0123 H   0  0  0  0  0  0  0  0  0  0  0  0
    6.0349   -3.4719    1.7312 H   0  0  0  0  0  0  0  0  0  0  0  0
    7.8244   -3.7802    3.3984 H   0  0  0  0  0  0  0  0  0  0  0  0
   10.1960   -3.3717    2.7989 H   0  0  0  0  0  0  0  0  0  0  0  0
   10.1377   -4.8704   -1.7243 H   0  0  0  0  0  0  0  0  0  0  0  0
   12.1909   -6.0824   -1.1294 H   0  0  0  0  0  0  0  0  0  0  0  0
   14.3787   -4.9764   -1.3079 H   0  0  0  0  0  0  0  0  0  0  0  0
   15.6516   -2.9034   -1.5431 H   0  0  0  0  0  0  0  0  0  0  0  0
   15.8469   -0.6050   -2.4075 H   0  0  0  0  0  0  0  0  0  0  0  0
   14.0676    0.2818   -3.9016 H   0  0  0  0  0  0  0  0  0  0  0  0
   11.8932   -0.8347   -3.9932 H   0  0  0  0  0  0  0  0  0  0  0  0
  1  2  1  0  0  0  0
  1 28  1  0  0  0  0
  1 29  1  0  0  0  0
  1 30  1  0  0  0  0
  2  3  1  0  0  0  0
  2 31  1  0  0  0  0
  2 32  1  0  0  0  0
  3  4  1  0  0  0  0
  3 33  1  0  0  0  0
  3 34  1  0  0  0  0
  4  5  1  0  0  0  0
  4 35  1  0  0  0  0
  4 36  1  0  0  0  0
  5  6  1  0  0  0  0
  5 37  1  0  0  0  0
  5 38  1  0  0  0  0
  6 10  1  0  0  0  0
  6  7  1  0  0  0  0
  7  8  2  0  0  0  0
  7 39  1  0  0  0  0
  8  9  1  0  0  0  0
  8 16  1  0  0  0  0
  9 14  2  0  0  0  0
  9 10  1  0  0  0  0
 10 11  2  0  0  0  0
 11 12  1  0  0  0  0
 11 40  1  0  0  0  0
 12 13  2  0  0  0  0
 12 41  1  0  0  0  0
 13 14  1  0  0  0  0
 13 42  1  0  0  0  0
 14 15  1  0  0  0  0
 16 17  2  0  0  0  0
 16 18  1  0  0  0  0
 18 27  2  0  0  0  0
 18 19  1  0  0  0  0
 19 20  2  0  0  0  0
 19 43  1  0  0  0  0
 20 21  1  0  0  0  0
 20 44  1  0  0  0  0
 21 22  2  0  0  0  0
 21 45  1  0  0  0  0
 22 27  1  0  0  0  0
 22 23  1  0  0  0  0
 23 24  2  0  0  0  0
 23 46  1  0  0  0  0
 24 25  1  0  0  0  0
 24 47  1  0  0  0  0
 25 26  2  0  0  0  0
 25 48  1  0  0  0  0
 26 27  1  0  0  0  0
 26 49  1  0  0  0  0
M  END
$$$$
CHEMBL508336
 OpenBabel12022417453D

 50 53  0  0  0  0  0  0  0  0999 V2000
    1.6178   -0.3780    2.6347 F   0  0  0  0  0  0  0  0  0  0  0  0
    0.4330   -0.2470    2.0230 C   0  0  0  0  0  0  0  0  0  0  0  0
   -0.7323   -0.3159    2.7759 C   0  0  0  0  0  0  0  0  0  0  0  0
   -1.9721   -0.2187    2.1339 C   0  0  0  0  0  0  0  0  0  0  0  0
   -2.0492   -0.0511    0.7419 C   0  0  0  0  0  0  0  0  0  0  0  0
   -3.4112   -0.0318    0.0635 C   0  0  0  0  0  0  0  0  0  0  0  0
   -3.9934    1.3023   -0.0181 N   0  0  0  0  0  0  0  0  0  0  0  0
   -3.7523    2.0667   -1.1548 C   0  0  0  0  0  0  0  0  0  0  0  0
   -3.2305    1.6071   -2.1740 O   0  0  0  0  0  0  0  0  0  0  0  0
   -4.1258    3.5115   -1.1104 C   0  0  0  0  0  0  0  0  0  0  0  0
   -4.8334    3.9788   -0.0682 C   0  0  0  0  0  0  0  0  0  0  0  0
   -5.2757    3.0867    0.9917 C   0  0  0  0  0  0  0  0  0  0  0  0
   -6.1538    3.5434    1.9830 C   0  0  0  0  0  0  0  0  0  0  0  0
   -6.5824    2.6694    2.9663 C   0  0  0  0  0  0  0  0  0  0  0  0
   -6.0951    1.3769    2.9412 C   0  0  0  0  0  0  0  0  0  0  0  0
   -5.2207    0.9114    2.0102 N   0  0  0  0  0  0  0  0  0  0  0  0
   -4.8321    1.7636    1.0358 C   0  0  0  0  0  0  0  0  0  0  0  0
   -3.7179    4.5209   -2.1421 C   0  0  0  0  0  0  0  0  0  0  0  0
   -4.0043    5.7094   -2.0102 O   0  0  0  0  0  0  0  0  0  0  0  0
   -3.0076    4.0542   -3.2200 N   0  0  0  0  0  0  0  0  0  0  0  0
   -2.5303    4.9335   -4.2894 C   0  0  0  0  0  0  0  0  0  0  0  0
   -1.1584    4.4711   -4.8024 C   0  0  0  0  0  0  0  0  0  0  0  0
   -0.6750    5.2791   -6.0082 C   0  0  0  0  0  0  0  0  0  0  0  0
   -1.7127    5.2713   -7.1232 C   0  0  0  0  0  0  0  0  0  0  0  0
   -3.0459    5.8142   -6.6195 C   0  0  0  0  0  0  0  0  0  0  0  0
   -3.5630    5.0182   -5.4214 C   0  0  0  0  0  0  0  0  0  0  0  0
   -0.8553    0.0580    0.0081 C   0  0  0  0  0  0  0  0  0  0  0  0
    0.3840   -0.0532    0.6468 C   0  0  0  0  0  0  0  0  0  0  0  0
   -0.6761   -0.4626    3.8479 H   0  0  0  0  0  0  0  0  0  0  0  0
   -2.8817   -0.2884    2.7270 H   0  0  0  0  0  0  0  0  0  0  0  0
   -4.0909   -0.7273    0.5713 H   0  0  0  0  0  0  0  0  0  0  0  0
   -3.2955   -0.4429   -0.9469 H   0  0  0  0  0  0  0  0  0  0  0  0
   -5.0937    5.0300    0.0176 H   0  0  0  0  0  0  0  0  0  0  0  0
   -6.5125    4.5704    1.9788 H   0  0  0  0  0  0  0  0  0  0  0  0
   -7.2869    2.9839    3.7324 H   0  0  0  0  0  0  0  0  0  0  0  0
   -6.4095    0.6485    3.6843 H   0  0  0  0  0  0  0  0  0  0  0  0
   -2.9380    3.0436   -3.3433 H   0  0  0  0  0  0  0  0  0  0  0  0
   -2.4106    5.9393   -3.8642 H   0  0  0  0  0  0  0  0  0  0  0  0
   -1.2049    3.4127   -5.0851 H   0  0  0  0  0  0  0  0  0  0  0  0
   -0.4157    4.5483   -3.9991 H   0  0  0  0  0  0  0  0  0  0  0  0
    0.2666    4.8589   -6.3795 H   0  0  0  0  0  0  0  0  0  0  0  0
   -0.4647    6.3129   -5.7077 H   0  0  0  0  0  0  0  0  0  0  0  0
   -1.8458    4.2473   -7.4938 H   0  0  0  0  0  0  0  0  0  0  0  0
   -1.3581    5.8728   -7.9678 H   0  0  0  0  0  0  0  0  0  0  0  0
   -3.7833    5.7852   -7.4288 H   0  0  0  0  0  0  0  0  0  0  0  0
   -2.9237    6.8666   -6.3344 H   0  0  0  0  0  0  0  0  0  0  0  0
   -4.4859    5.4811   -5.0511 H   0  0  0  0  0  0  0  0  0  0  0  0
   -3.8353    4.0071   -5.7511 H   0  0  0  0  0  0  0  0  0  0  0  0
   -0.8796    0.2120   -1.0702 H   0  0  0  0  0  0  0  0  0  0  0  0
    1.3091   -0.0059    0.0852 H   0  0  0  0  0  0  0  0  0  0  0  0
  1  2  1  0  0  0  0
  2 28  2  0  0  0  0
  2  3  1  0  0  0  0
  3  4  2  0  0  0  0
  3 29  1  0  0  0  0
  4  5  1  0  0  0  0
  4 30  1  0  0  0  0
  5  6  1  0  0  0  0
  5 27  2  0  0  0  0
  6  7  1  0  0  0  0
  6 31  1  0  0  0  0
  6 32  1  0  0  0  0
  7 17  1  0  0  0  0
  7  8  1  0  0  0  0
  8  9  2  0  0  0  0
  8 10  1  0  0  0  0
 10 11  2  0  0  0  0
 10 18  1  0  0  0  0
 11 12  1  0  0  0  0
 11 33  1  0  0  0  0
 12 17  2  0  0  0  0
 12 13  1  0  0  0  0
 13 14  2  0  0  0  0
 13 34  1  0  0  0  0
 14 15  1  0  0  0  0
 14 35  1  0  0  0  0
 15 16  2  0  0  0  0
 15 36  1  0  0  0  0
 16 17  1  0  0  0  0
 18 19  2  0  0  0  0
 18 20  1  0  0  0  0
 20 21  1  0  0  0  0
 20 37  1  0  0  0  0
 21 26  1  0  0  0  0
 21 22  1  0  0  0  0
 21 38  1  0  0  0  0
 22 23  1  0  0  0  0
 22 39  1  0  0  0  0
 22 40  1  0  0  0  0
 23 24  1  0  0  0  0
 23 41  1  0  0  0  0
 23 42  1  0  0  0  0
 24 25  1  0  0  0  0
 24 43  1  0  0  0  0
 24 44  1  0  0  0  0
 25 26  1  0  0  0  0
 25 45  1  0  0  0  0
 25 46  1  0  0  0  0
 26 47  1  0  0  0  0
 26 48  1  0  0  0  0
 27 28  1  0  0  0  0
 27 49  1  0  0  0  0
 28 50  1  0  0  0  0
M  END
$$$$
CHEMBL3942960
 OpenBabel12022417453D

 52 55  0  0  1  0  0  0  0  0999 V2000
    8.5564    0.6530   -2.0594 C   0  0  0  0  0  0  0  0  0  0  0  0
    7.4303   -0.1706   -2.6168 C   0  0  0  0  0  0  0  0  0  0  0  0
    7.4326    0.2101   -1.1580 C   0  0  0  0  0  0  0  0  0  0  0  0
    6.4758    1.2458   -0.6228 C   0  0  0  0  0  0  0  0  0  0  0  0
    5.3845    0.6476    0.2771 C   0  0  2  0  0  0  0  0  0  0  0  0
    4.3873    1.7416    0.7230 C   0  0  0  0  0  0  0  0  0  0  0  0
    4.4201    2.9086    0.3434 O   0  0  0  0  0  0  0  0  0  0  0  0
    3.3716    1.3131    1.5331 N   0  0  0  0  0  0  0  0  0  0  0  0
    5.9574   -0.0001    1.4601 N   0  0  0  0  0  0  0  0  0  0  0  0
    5.3315   -1.0294    2.1252 C   0  0  0  0  0  0  0  0  0  0  0  0
    4.2568   -1.4989    1.7715 O   0  0  0  0  0  0  0  0  0  0  0  0
    6.0307   -1.5045    3.3620 C   0  0  0  0  0  0  0  0  0  0  0  0
    5.5300   -2.5929    4.0477 C   0  0  0  0  0  0  0  0  0  0  0  0
    6.1797   -2.9749    5.2148 C   0  0  0  0  0  0  0  0  0  0  0  0
    7.3064   -2.2798    5.6971 C   0  0  0  0  0  0  0  0  0  0  0  0
    7.7592   -1.2068    4.9022 C   0  0  0  0  0  0  0  0  0  0  0  0
    9.0271   -0.4405    5.2344 C   0  0  0  0  0  0  0  0  0  0  0  0
    8.8864    0.8581    6.0115 C   0  0  0  0  0  0  0  0  0  0  0  0
    7.7555    1.6854    5.9065 C   0  0  0  0  0  0  0  0  0  0  0  0
    7.7221    2.9282    6.5456 C   0  0  0  0  0  0  0  0  0  0  0  0
    8.8187    3.3532    7.2844 C   0  0  0  0  0  0  0  0  0  0  0  0
    9.9456    2.5531    7.4108 C   0  0  0  0  0  0  0  0  0  0  0  0
    9.9832    1.3114    6.7746 C   0  0  0  0  0  0  0  0  0  0  0  0
    8.7972    4.5580    7.8686 F   0  0  0  0  0  0  0  0  0  0  0  0
    7.1329   -0.8103    3.7513 N   0  0  0  0  0  0  0  0  0  0  0  0
    7.9670   -2.7827    6.9641 C   0  0  0  0  0  0  0  0  0  0  0  0
    8.2662   -1.9069    8.1545 C   0  0  0  0  0  0  0  0  0  0  0  0
    7.1157   -2.8591    8.2200 C   0  0  0  0  0  0  0  0  0  0  0  0
    9.5224    0.1778   -1.9299 H   0  0  0  0  0  0  0  0  0  0  0  0
    8.6130    1.6977   -2.3446 H   0  0  0  0  0  0  0  0  0  0  0  0
    7.6382   -1.2038   -2.8723 H   0  0  0  0  0  0  0  0  0  0  0  0
    6.7362    0.3185   -3.2909 H   0  0  0  0  0  0  0  0  0  0  0  0
    7.6778   -0.5578   -0.4322 H   0  0  0  0  0  0  0  0  0  0  0  0
    6.0060    1.7818   -1.4583 H   0  0  0  0  0  0  0  0  0  0  0  0
    7.0502    1.9909   -0.0583 H   0  0  0  0  0  0  0  0  0  0  0  0
    4.8151   -0.1014   -0.2881 H   0  0  0  0  0  0  0  0  0  0  0  0
    2.6476    1.9681    1.7915 H   0  0  0  0  0  0  0  0  0  0  0  0
    3.2355    0.3216    1.7141 H   0  0  0  0  0  0  0  0  0  0  0  0
    6.7574    0.4199    1.9271 H   0  0  0  0  0  0  0  0  0  0  0  0
    4.6605   -3.1336    3.6892 H   0  0  0  0  0  0  0  0  0  0  0  0
    5.8060   -3.8381    5.7645 H   0  0  0  0  0  0  0  0  0  0  0  0
    9.5182   -0.1863    4.2849 H   0  0  0  0  0  0  0  0  0  0  0  0
    9.7252   -1.1104    5.7512 H   0  0  0  0  0  0  0  0  0  0  0  0
    6.8954    1.3868    5.3109 H   0  0  0  0  0  0  0  0  0  0  0  0
    6.8553    3.5752    6.4539 H   0  0  0  0  0  0  0  0  0  0  0  0
   10.7950    2.9069    7.9849 H   0  0  0  0  0  0  0  0  0  0  0  0
   10.8783    0.7024    6.8603 H   0  0  0  0  0  0  0  0  0  0  0  0
    8.6526   -3.6164    6.8127 H   0  0  0  0  0  0  0  0  0  0  0  0
    8.0282   -0.8513    8.1284 H   0  0  0  0  0  0  0  0  0  0  0  0
    9.1434   -2.1431    8.7480 H   0  0  0  0  0  0  0  0  0  0  0  0
    7.2070   -3.7401    8.8435 H   0  0  0  0  0  0  0  0  0  0  0  0
    6.1205   -2.4257    8.2138 H   0  0  0  0  0  0  0  0  0  0  0  0
  1  3  1  0  0  0  0
  1  2  1  0  0  0  0
  1 29  1  0  0  0  0
  1 30  1  0  0  0  0
  2  3  1  0  0  0  0
  2 31  1  0  0  0  0
  2 32  1  0  0  0  0
  3  4  1  0  0  0  0
  3 33  1  0  0  0  0
  4 34  1  0  0  0  0
  4 35  1  0  0  0  0
  5  9  1  0  0  0  0
  5  6  1  0  0  0  0
  5  4  1  0  0  0  0
  5 36  1  6  0  0  0
  6  7  2  0  0  0  0
  6  8  1  0  0  0  0
  8 37  1  0  0  0  0
  8 38  1  0  0  0  0
  9 10  1  0  0  0  0
  9 39  1  0  0  0  0
 10 11  2  0  0  0  0
 10 12  1  0  0  0  0
 12 25  2  0  0  0  0
 12 13  1  0  0  0  0
 13 14  2  0  0  0  0
 13 40  1  0  0  0  0
 14 15  1  0  0  0  0
 14 41  1  0  0  0  0
 15 16  2  0  0  0  0
 15 26  1  0  0  0  0
 16 17  1  0  0  0  0
 16 25  1  0  0  0  0
 17 18  1  0  0  0  0
 17 42  1  0  0  0  0
 17 43  1  0  0  0  0
 18 23  2  0  0  0  0
 18 19  1  0  0  0  0
 19 20  2  0  0  0  0
 19 44  1  0  0  0  0
 20 21  1  0  0  0  0
 20 45  1  0  0  0  0
 21 22  2  0  0  0  0
 21 24  1  0  0  0  0
 22 23  1  0  0  0  0
 22 46  1  0  0  0  0
 23 47  1  0  0  0  0
 26 28  1  0  0  0  0
 26 27  1  0  0  0  0
 26 48  1  0  0  0  0
 27 28  1  0  0  0  0
 27 49  1  0  0  0  0
 27 50  1  0  0  0  0
 28 51  1  0  0  0  0
 28 52  1  0  0  0  0
M  END
$$$$
CHEMBL370560
 OpenBabel12022417453D

 50 54  0  0  0  0  0  0  0  0999 V2000
    0.9883   -0.0659   -0.0359 O   0  0  0  0  0  0  0  0  0  0  0  0
    2.2168   -0.0102   -0.0101 C   0  0  0  0  0  0  0  0  0  0  0  0
    3.0626   -1.1836    0.0015 C   0  0  0  0  0  0  0  0  0  0  0  0
    4.4492   -1.0824    0.0298 C   0  0  0  0  0  0  0  0  0  0  0  0
    4.9670   -2.3601    0.0232 C   0  0  0  0  0  0  0  0  0  0  0  0
    6.3784   -2.7774   -0.0609 C   0  0  0  0  0  0  0  0  0  0  0  0
    6.7742   -3.9259   -0.7647 C   0  0  0  0  0  0  0  0  0  0  0  0
    8.1099   -4.3308   -0.7940 C   0  0  0  0  0  0  0  0  0  0  0  0
    9.0839   -3.5510   -0.1771 C   0  0  0  0  0  0  0  0  0  0  0  0
    8.7236   -2.3850    0.4900 C   0  0  0  0  0  0  0  0  0  0  0  0
    7.3789   -2.0093    0.5551 C   0  0  0  0  0  0  0  0  0  0  0  0
   10.7316   -4.0271   -0.2508 Cl  0  0  0  0  0  0  0  0  0  0  0  0
    3.8222   -3.1860    0.0345 N   0  0  0  0  0  0  0  0  0  0  0  0
    3.7313   -4.6044    0.1804 C   0  0  0  0  0  0  0  0  0  0  0  0
    4.6831   -5.2753    0.9731 C   0  0  0  0  0  0  0  0  0  0  0  0
    4.6659   -6.6653    1.0965 C   0  0  0  0  0  0  0  0  0  0  0  0
    3.6714   -7.4037    0.4684 C   0  0  0  0  0  0  0  0  0  0  0  0
    2.7026   -6.7519   -0.2941 C   0  0  0  0  0  0  0  0  0  0  0  0
    2.7221   -5.3572   -0.4465 C   0  0  0  0  0  0  0  0  0  0  0  0
    1.5435   -4.7191   -1.5435 Cl  0  0  0  0  0  0  0  0  0  0  0  0
    2.6708   -2.4584   -0.0089 N   0  0  0  0  0  0  0  0  0  0  0  0
    5.1282    0.1369    0.0179 N   0  0  0  0  0  0  0  0  0  0  0  0
    4.3444    1.1694    0.0189 C   0  0  0  0  0  0  0  0  0  0  0  0
    2.9538    1.1836    0.0198 N   0  0  0  0  0  0  0  0  0  0  0  0
    2.2557    2.4738    0.0840 C   0  0  0  0  0  0  0  0  0  0  0  0
    1.4103    2.7535   -1.1700 C   0  0  0  0  0  0  0  0  0  0  0  0
    0.6988    4.1015   -1.0774 C   0  0  0  0  0  0  0  0  0  0  0  0
   -0.1244    4.2149    0.2028 C   0  0  0  0  0  0  0  0  0  0  0  0
    0.7320    3.9733    1.4423 C   0  0  0  0  0  0  0  0  0  0  0  0
    1.4343    2.6210    1.3765 C   0  0  0  0  0  0  0  0  0  0  0  0
    6.0476   -4.5476   -1.2831 H   0  0  0  0  0  0  0  0  0  0  0  0
    8.3791   -5.2514   -1.3029 H   0  0  0  0  0  0  0  0  0  0  0  0
    9.4790   -1.7619    0.9625 H   0  0  0  0  0  0  0  0  0  0  0  0
    7.1250   -1.0970    1.0920 H   0  0  0  0  0  0  0  0  0  0  0  0
    5.4593   -4.7347    1.5105 H   0  0  0  0  0  0  0  0  0  0  0  0
    5.4311   -7.1668    1.6846 H   0  0  0  0  0  0  0  0  0  0  0  0
    3.6490   -8.4856    0.5676 H   0  0  0  0  0  0  0  0  0  0  0  0
    1.9389   -7.3436   -0.7945 H   0  0  0  0  0  0  0  0  0  0  0  0
    4.8040    2.1725    0.0158 H   0  0  0  0  0  0  0  0  0  0  0  0
    3.0241    3.2583    0.1176 H   0  0  0  0  0  0  0  0  0  0  0  0
    0.6556    1.9741   -1.3177 H   0  0  0  0  0  0  0  0  0  0  0  0
    2.0502    2.7354   -2.0606 H   0  0  0  0  0  0  0  0  0  0  0  0
    0.0464    4.2315   -1.9481 H   0  0  0  0  0  0  0  0  0  0  0  0
    1.4399    4.9096   -1.1088 H   0  0  0  0  0  0  0  0  0  0  0  0
   -0.9428    3.4846    0.1765 H   0  0  0  0  0  0  0  0  0  0  0  0
   -0.5829    5.2081    0.2600 H   0  0  0  0  0  0  0  0  0  0  0  0
    0.1050    4.0169    2.3397 H   0  0  0  0  0  0  0  0  0  0  0  0
    1.4800    4.7701    1.5339 H   0  0  0  0  0  0  0  0  0  0  0  0
    2.0893    2.5016    2.2482 H   0  0  0  0  0  0  0  0  0  0  0  0
    0.6763    1.8339    1.4520 H   0  0  0  0  0  0  0  0  0  0  0  0
  1  2  2  0  0  0  0
  2 24  1  0  0  0  0
  2  3  1  0  0  0  0
  3 21  2  0  0  0  0
  3  4  1  0  0  0  0
  4  5  2  0  0  0  0
  4 22  1  0  0  0  0
  5  6  1  0  0  0  0
  5 13  1  0  0  0  0
  6 11  2  0  0  0  0
  6  7  1  0  0  0  0
  7  8  2  0  0  0  0
  7 31  1  0  0  0  0
  8  9  1  0  0  0  0
  8 32  1  0  0  0  0
  9 10  2  0  0  0  0
  9 12  1  0  0  0  0
 10 11  1  0  0  0  0
 10 33  1  0  0  0  0
 11 34  1  0  0  0  0
 13 14  1  0  0  0  0
 13 21  1  0  0  0  0
 14 19  2  0  0  0  0
 14 15  1  0  0  0  0
 15 16  2  0  0  0  0
 15 35  1  0  0  0  0
 16 17  1  0  0  0  0
 16 36  1  0  0  0  0
 17 18  2  0  0  0  0
 17 37  1  0  0  0  0
 18 19  1  0  0  0  0
 18 38  1  0  0  0  0
 19 20  1  0  0  0  0
 22 23  2  0  0  0  0
 23 24  1  0  0  0  0
 23 39  1  0  0  0  0
 24 25  1  0  0  0  0
 25 30  1  0  0  0  0
 25 26  1  0  0  0  0
 25 40  1  0  0  0  0
 26 27  1  0  0  0  0
 26 41  1  0  0  0  0
 26 42  1  0  0  0  0
 27 28  1  0  0  0  0
 27 43  1  0  0  0  0
 27 44  1  0  0  0  0
 28 29  1  0  0  0  0
 28 45  1  0  0  0  0
 28 46  1  0  0  0  0
 29 30  1  0  0  0  0
 29 47  1  0  0  0  0
 29 48  1  0  0  0  0
 30 49  1  0  0  0  0
 30 50  1  0  0  0  0
M  END
$$$$
CHEMBL1760645
 OpenBabel12022417453D

 54 56  0  0  0  0  0  0  0  0999 V2000
    2.9039    0.5911   -4.2019 C   0  0  0  0  0  0  0  0  0  0  0  0
    2.4238   -0.2027   -2.9716 C   0  0  0  0  0  0  0  0  0  0  0  0
    2.7610    0.6026   -1.7027 C   0  0  0  0  0  0  0  0  0  0  0  0
    0.8947   -0.4221   -3.0713 C   0  0  0  0  0  0  0  0  0  0  0  0
    0.1750    0.8014   -3.1550 O   0  0  0  0  0  0  0  0  0  0  0  0
    3.0835   -1.6047   -2.9274 C   0  0  0  0  0  0  0  0  0  0  0  0
    4.5310   -1.5840   -2.8351 N   0  0  0  0  0  0  0  0  0  0  0  0
    5.2149   -2.0330   -1.7259 C   0  0  0  0  0  0  0  0  0  0  0  0
    4.6392   -2.4567   -0.7297 O   0  0  0  0  0  0  0  0  0  0  0  0
    6.6635   -1.9650   -1.8422 C   0  0  0  0  0  0  0  0  0  0  0  0
    7.4478   -1.9995   -2.9854 C   0  0  0  0  0  0  0  0  0  0  0  0
    8.8142   -1.9935   -2.6104 C   0  0  0  0  0  0  0  0  0  0  0  0
   10.0161   -2.0429   -3.3477 C   0  0  0  0  0  0  0  0  0  0  0  0
   11.2449   -2.0684   -2.6756 C   0  0  0  0  0  0  0  0  0  0  0  0
   12.4704   -2.0989   -3.4260 C   0  0  0  0  0  0  0  0  0  0  0  0
   13.4569   -2.1200   -4.0337 N   0  0  0  0  0  0  0  0  0  0  0  0
   11.2728   -2.0613   -1.2832 C   0  0  0  0  0  0  0  0  0  0  0  0
   10.0880   -2.0110   -0.5298 C   0  0  0  0  0  0  0  0  0  0  0  0
    8.8593   -1.9588   -1.2155 C   0  0  0  0  0  0  0  0  0  0  0  0
    7.5431   -1.8744   -0.7689 N   0  0  0  0  0  0  0  0  0  0  0  0
    7.1383   -1.7655    0.6397 C   0  0  0  0  0  0  0  0  0  0  0  0
    6.3666   -0.5085    1.0051 C   0  0  0  0  0  0  0  0  0  0  0  0
    6.6456    0.7421    0.4353 C   0  0  0  0  0  0  0  0  0  0  0  0
    6.0014    1.8905    0.8985 C   0  0  0  0  0  0  0  0  0  0  0  0
    5.0720    1.8013    1.9346 C   0  0  0  0  0  0  0  0  0  0  0  0
    4.7433    0.5642    2.4883 C   0  0  0  0  0  0  0  0  0  0  0  0
    5.4095   -0.5799    2.0415 C   0  0  0  0  0  0  0  0  0  0  0  0
    3.8399    0.6221    3.5040 O   0  0  0  0  0  0  0  0  0  0  0  0
    2.9410   -0.4569    3.7169 C   0  0  0  0  0  0  0  0  0  0  0  0
    2.9940   -1.4212    2.7776 F   0  0  0  0  0  0  0  0  0  0  0  0
    3.1886   -1.0106    4.9244 F   0  0  0  0  0  0  0  0  0  0  0  0
    1.6809    0.0358    3.7349 F   0  0  0  0  0  0  0  0  0  0  0  0
    2.4156    1.5705   -4.2614 H   0  0  0  0  0  0  0  0  0  0  0  0
    2.6793    0.0526   -5.1294 H   0  0  0  0  0  0  0  0  0  0  0  0
    3.9836    0.7714   -4.1709 H   0  0  0  0  0  0  0  0  0  0  0  0
    2.3087    1.6004   -1.7275 H   0  0  0  0  0  0  0  0  0  0  0  0
    3.8408    0.7481   -1.5935 H   0  0  0  0  0  0  0  0  0  0  0  0
    2.3970    0.0932   -0.8038 H   0  0  0  0  0  0  0  0  0  0  0  0
    0.5139   -0.9854   -2.2116 H   0  0  0  0  0  0  0  0  0  0  0  0
    0.6518   -0.9988   -3.9713 H   0  0  0  0  0  0  0  0  0  0  0  0
    0.2139    1.2288   -2.2824 H   0  0  0  0  0  0  0  0  0  0  0  0
    2.8495   -2.1581   -3.8447 H   0  0  0  0  0  0  0  0  0  0  0  0
    2.6732   -2.1827   -2.0914 H   0  0  0  0  0  0  0  0  0  0  0  0
    5.0568   -1.2370   -3.6236 H   0  0  0  0  0  0  0  0  0  0  0  0
    7.0822   -2.0805   -4.0006 H   0  0  0  0  0  0  0  0  0  0  0  0
    9.9809   -2.0671   -4.4350 H   0  0  0  0  0  0  0  0  0  0  0  0
   12.2277   -2.1003   -0.7568 H   0  0  0  0  0  0  0  0  0  0  0  0
   10.1413   -2.0188    0.5551 H   0  0  0  0  0  0  0  0  0  0  0  0
    8.0381   -1.7900    1.2614 H   0  0  0  0  0  0  0  0  0  0  0  0
    6.5652   -2.6720    0.8644 H   0  0  0  0  0  0  0  0  0  0  0  0
    7.3779    0.8425   -0.3630 H   0  0  0  0  0  0  0  0  0  0  0  0
    6.2367    2.8601    0.4688 H   0  0  0  0  0  0  0  0  0  0  0  0
    4.6014    2.7072    2.3123 H   0  0  0  0  0  0  0  0  0  0  0  0
    5.2137   -1.5461    2.4994 H   0  0  0  0  0  0  0  0  0  0  0  0
  1  2  1  0  0  0  0
  1 33  1  0  0  0  0
  1 34  1  0  0  0  0
  1 35  1  0  0  0  0
  2  3  1  0  0  0  0
  2  4  1  0  0  0  0
  2  6  1  0  0  0  0
  3 36  1  0  0  0  0
  3 37  1  0  0  0  0
  3 38  1  0  0  0  0
  4  5  1  0  0  0  0
  4 39  1  0  0  0  0
  4 40  1  0  0  0  0
  5 41  1  0  0  0  0
  6  7  1  0  0  0  0
  6 42  1  0  0  0  0
  6 43  1  0  0  0  0
  7  8  1  0  0  0  0
  7 44  1  0  0  0  0
  8  9  2  0  0  0  0
  8 10  1  0  0  0  0
 10 20  1  0  0  0  0
 10 11  2  0  0  0  0
 11 12  1  0  0  0  0
 11 45  1  0  0  0  0
 12 19  2  0  0  0  0
 12 13  1  0  0  0  0
 13 14  2  0  0  0  0
 13 46  1  0  0  0  0
 14 15  1  0  0  0  0
 14 17  1  0  0  0  0
 15 16  3  0  0  0  0
 17 18  2  0  0  0  0
 17 47  1  0  0  0  0
 18 19  1  0  0  0  0
 18 48  1  0  0  0  0
 19 20  1  0  0  0  0
 20 21  1  0  0  0  0
 21 22  1  0  0  0  0
 21 49  1  0  0  0  0
 21 50  1  0  0  0  0
 22 27  2  0  0  0  0
 22 23  1  0  0  0  0
 23 24  2  0  0  0  0
 23 51  1  0  0  0  0
 24 25  1  0  0  0  0
 24 52  1  0  0  0  0
 25 26  2  0  0  0  0
 25 53  1  0  0  0  0
 26 27  1  0  0  0  0
 26 28  1  0  0  0  0
 27 54  1  0  0  0  0
 28 29  1  0  0  0  0
 29 30  1  0  0  0  0
 29 31  1  0  0  0  0
 29 32  1  0  0  0  0
M  END
$$$$
CHEMBL1760663
 OpenBabel12022417453D

 54 56  0  0  0  0  0  0  0  0999 V2000
   -1.4742    1.8517   -4.6944 C   0  0  0  0  0  0  0  0  0  0  0  0
   -1.5233    2.6136   -3.3681 C   0  0  0  0  0  0  0  0  0  0  0  0
   -2.9411    2.5538   -2.7879 C   0  0  0  0  0  0  0  0  0  0  0  0
   -0.5147    2.0622   -2.3380 C   0  0  0  0  0  0  0  0  0  0  0  0
    0.9502    2.0866   -2.7805 C   0  0  0  0  0  0  0  0  0  0  0  0
    1.4195    3.4121   -3.1129 N   0  0  0  0  0  0  0  0  0  0  0  0
    2.7236    3.6352   -3.4719 C   0  0  0  0  0  0  0  0  0  0  0  0
    3.5654    2.7440   -3.4402 O   0  0  0  0  0  0  0  0  0  0  0  0
    3.0264    4.9979   -3.8799 C   0  0  0  0  0  0  0  0  0  0  0  0
    2.1906    5.9560   -4.4309 C   0  0  0  0  0  0  0  0  0  0  0  0
    2.9566    7.1086   -4.7383 C   0  0  0  0  0  0  0  0  0  0  0  0
    2.6420    8.3436   -5.3450 C   0  0  0  0  0  0  0  0  0  0  0  0
    3.6551    9.2883   -5.5622 C   0  0  0  0  0  0  0  0  0  0  0  0
    3.3376   10.5442   -6.1827 C   0  0  0  0  0  0  0  0  0  0  0  0
    3.0776   11.5579   -6.6831 N   0  0  0  0  0  0  0  0  0  0  0  0
    4.9656    9.0046   -5.1832 C   0  0  0  0  0  0  0  0  0  0  0  0
    5.2954    7.7905   -4.5631 C   0  0  0  0  0  0  0  0  0  0  0  0
    4.2703    6.8526   -4.3396 C   0  0  0  0  0  0  0  0  0  0  0  0
    4.2740    5.5970   -3.7431 N   0  0  0  0  0  0  0  0  0  0  0  0
    5.4307    4.9800   -3.0741 C   0  0  0  0  0  0  0  0  0  0  0  0
    5.2955    4.7562   -1.5734 C   0  0  0  0  0  0  0  0  0  0  0  0
    4.1972    5.1919   -0.8155 C   0  0  0  0  0  0  0  0  0  0  0  0
    4.1516    4.9902    0.5634 C   0  0  0  0  0  0  0  0  0  0  0  0
    5.2096    4.3601    1.2094 C   0  0  0  0  0  0  0  0  0  0  0  0
    6.3034    3.8881    0.4832 C   0  0  0  0  0  0  0  0  0  0  0  0
    6.3513    4.0999   -0.8984 C   0  0  0  0  0  0  0  0  0  0  0  0
    7.2774    3.3260    1.2493 O   0  0  0  0  0  0  0  0  0  0  0  0
    8.0607    2.2621    0.7331 C   0  0  0  0  0  0  0  0  0  0  0  0
    7.6543    1.8025   -0.4670 F   0  0  0  0  0  0  0  0  0  0  0  0
    9.3458    2.6669    0.6321 F   0  0  0  0  0  0  0  0  0  0  0  0
    8.0154    1.2341    1.6114 F   0  0  0  0  0  0  0  0  0  0  0  0
   -1.2131    3.9912   -3.6249 O   0  0  0  0  0  0  0  0  0  0  0  0
   -1.7041    0.7902   -4.5558 H   0  0  0  0  0  0  0  0  0  0  0  0
   -0.4934    1.9385   -5.1727 H   0  0  0  0  0  0  0  0  0  0  0  0
   -2.1921    2.2701   -5.4092 H   0  0  0  0  0  0  0  0  0  0  0  0
   -3.2517    1.5234   -2.5855 H   0  0  0  0  0  0  0  0  0  0  0  0
   -3.6653    3.0031   -3.4773 H   0  0  0  0  0  0  0  0  0  0  0  0
   -3.0068    3.1265   -1.8559 H   0  0  0  0  0  0  0  0  0  0  0  0
   -0.7782    1.0279   -2.0837 H   0  0  0  0  0  0  0  0  0  0  0  0
   -0.5954    2.6506   -1.4140 H   0  0  0  0  0  0  0  0  0  0  0  0
    1.1157    1.4413   -3.6490 H   0  0  0  0  0  0  0  0  0  0  0  0
    1.5834    1.7006   -1.9727 H   0  0  0  0  0  0  0  0  0  0  0  0
    0.7123    4.1287   -3.2560 H   0  0  0  0  0  0  0  0  0  0  0  0
    1.1372    5.8253   -4.6462 H   0  0  0  0  0  0  0  0  0  0  0  0
    1.6184    8.5490   -5.6494 H   0  0  0  0  0  0  0  0  0  0  0  0
    5.7553    9.7333   -5.3667 H   0  0  0  0  0  0  0  0  0  0  0  0
    6.3256    7.5940   -4.2824 H   0  0  0  0  0  0  0  0  0  0  0  0
    6.2930    5.6345   -3.2346 H   0  0  0  0  0  0  0  0  0  0  0  0
    5.6361    4.0405   -3.5983 H   0  0  0  0  0  0  0  0  0  0  0  0
    3.3529    5.6990   -1.2754 H   0  0  0  0  0  0  0  0  0  0  0  0
    3.2932    5.3340    1.1347 H   0  0  0  0  0  0  0  0  0  0  0  0
    5.1785    4.2348    2.2894 H   0  0  0  0  0  0  0  0  0  0  0  0
    7.2145    3.7781   -1.4766 H   0  0  0  0  0  0  0  0  0  0  0  0
   -1.8967    4.3348   -4.2286 H   0  0  0  0  0  0  0  0  0  0  0  0
  1  2  1  0  0  0  0
  1 33  1  0  0  0  0
  1 34  1  0  0  0  0
  1 35  1  0  0  0  0
  2  3  1  0  0  0  0
  2  4  1  0  0  0  0
  2 32  1  0  0  0  0
  3 36  1  0  0  0  0
  3 37  1  0  0  0  0
  3 38  1  0  0  0  0
  4  5  1  0  0  0  0
  4 39  1  0  0  0  0
  4 40  1  0  0  0  0
  5  6  1  0  0  0  0
  5 41  1  0  0  0  0
  5 42  1  0  0  0  0
  6  7  1  0  0  0  0
  6 43  1  0  0  0  0
  7  8  2  0  0  0  0
  7  9  1  0  0  0  0
  9 19  1  0  0  0  0
  9 10  2  0  0  0  0
 10 11  1  0  0  0  0
 10 44  1  0  0  0  0
 11 18  2  0  0  0  0
 11 12  1  0  0  0  0
 12 13  2  0  0  0  0
 12 45  1  0  0  0  0
 13 14  1  0  0  0  0
 13 16  1  0  0  0  0
 14 15  3  0  0  0  0
 16 17  2  0  0  0  0
 16 46  1  0  0  0  0
 17 18  1  0  0  0  0
 17 47  1  0  0  0  0
 18 19  1  0  0  0  0
 19 20  1  0  0  0  0
 20 21  1  0  0  0  0
 20 48  1  0  0  0  0
 20 49  1  0  0  0  0
 21 26  2  0  0  0  0
 21 22  1  0  0  0  0
 22 23  2  0  0  0  0
 22 50  1  0  0  0  0
 23 24  1  0  0  0  0
 23 51  1  0  0  0  0
 24 25  2  0  0  0  0
 24 52  1  0  0  0  0
 25 26  1  0  0  0  0
 25 27  1  0  0  0  0
 26 53  1  0  0  0  0
 27 28  1  0  0  0  0
 28 29  1  0  0  0  0
 28 30  1  0  0  0  0
 28 31  1  0  0  0  0
 32 54  1  0  0  0  0
M  END
$$$$
CHEMBL3354942
 OpenBabel12022417453D

 50 54  0  0  1  0  0  0  0  0999 V2000
    4.3017    1.0253   -1.3617 C   0  0  0  0  0  0  0  0  0  0  0  0
    3.1727   -0.0130   -1.1376 C   0  0  0  0  0  0  0  0  0  0  0  0
    2.5319    0.2928    0.2408 C   0  0  0  0  0  0  0  0  0  0  0  0
    2.1470    0.1387   -2.2902 C   0  0  0  0  0  0  0  0  0  0  0  0
    0.7916    0.4566   -2.0697 C   0  0  0  0  0  0  0  0  0  0  0  0
   -0.1036    0.6342   -3.1305 C   0  0  0  0  0  0  0  0  0  0  0  0
    0.3331    0.5002   -4.4425 C   0  0  0  0  0  0  0  0  0  0  0  0
    1.6647    0.1865   -4.6930 C   0  0  0  0  0  0  0  0  0  0  0  0
    2.5589    0.0014   -3.6313 C   0  0  0  0  0  0  0  0  0  0  0  0
    3.7214   -1.3872   -1.1350 N   0  0  0  0  0  0  0  0  0  0  0  0
    4.6804   -1.8233   -0.2431 C   0  0  0  0  0  0  0  0  0  0  0  0
    5.1887   -1.0896    0.6064 O   0  0  0  0  0  0  0  0  0  0  0  0
    5.0854   -3.2368   -0.3314 C   0  0  0  0  0  0  0  0  0  0  0  0
    6.0616   -3.8337    0.4877 C   0  0  0  0  0  0  0  0  0  0  0  0
    6.1671   -5.1211    0.0625 C   0  0  0  0  0  0  0  0  0  0  0  0
    7.3874   -5.7979    0.6442 C   0  0  1  0  0  0  0  0  0  0  0  0
    8.0318   -4.6552    1.4726 C   0  0  1  0  0  0  0  0  0  0  0  0
    7.0977   -3.4286    1.4694 C   0  0  0  0  0  0  0  0  0  0  0  0
    7.6087   -5.9270    2.1302 C   0  0  0  0  0  0  0  0  0  0  0  0
    5.2760   -5.3144   -0.9430 N   0  0  0  0  0  0  0  0  0  0  0  0
    4.9833   -6.5316   -1.5899 C   0  0  0  0  0  0  0  0  0  0  0  0
    5.0505   -7.7389   -0.8794 C   0  0  0  0  0  0  0  0  0  0  0  0
    4.7466   -8.9487   -1.4963 C   0  0  0  0  0  0  0  0  0  0  0  0
    4.4059   -8.9491   -2.8396 C   0  0  0  0  0  0  0  0  0  0  0  0
    4.3464   -7.7620   -3.5680 C   0  0  0  0  0  0  0  0  0  0  0  0
    4.6118   -6.5414   -2.9398 C   0  0  0  0  0  0  0  0  0  0  0  0
    4.1207  -10.1096   -3.4424 F   0  0  0  0  0  0  0  0  0  0  0  0
    5.3253   -7.7652    0.4321 F   0  0  0  0  0  0  0  0  0  0  0  0
    4.6342   -4.1294   -1.2560 N   0  0  0  0  0  0  0  0  0  0  0  0
    3.8989    2.0439   -1.4107 H   0  0  0  0  0  0  0  0  0  0  0  0
    4.8544    0.8403   -2.2896 H   0  0  0  0  0  0  0  0  0  0  0  0
    5.0413    1.0141   -0.5552 H   0  0  0  0  0  0  0  0  0  0  0  0
    2.1388    1.3163    0.2804 H   0  0  0  0  0  0  0  0  0  0  0  0
    3.2437    0.2084    1.0667 H   0  0  0  0  0  0  0  0  0  0  0  0
    1.7130   -0.4011    0.4651 H   0  0  0  0  0  0  0  0  0  0  0  0
    0.3928    0.5911   -1.0677 H   0  0  0  0  0  0  0  0  0  0  0  0
   -1.1418    0.8854   -2.9262 H   0  0  0  0  0  0  0  0  0  0  0  0
   -0.3620    0.6431   -5.2655 H   0  0  0  0  0  0  0  0  0  0  0  0
    2.0127    0.0922   -5.7187 H   0  0  0  0  0  0  0  0  0  0  0  0
    3.5941   -0.2362   -3.8675 H   0  0  0  0  0  0  0  0  0  0  0  0
    3.3490   -2.0829   -1.7754 H   0  0  0  0  0  0  0  0  0  0  0  0
    7.9379   -6.4936    0.0270 H   0  0  0  0  0  0  0  0  0  0  0  0
    9.0776   -4.4294    1.3291 H   0  0  0  0  0  0  0  0  0  0  0  0
    6.6720   -3.2640    2.4637 H   0  0  0  0  0  0  0  0  0  0  0  0
    7.6382   -2.5367    1.1414 H   0  0  0  0  0  0  0  0  0  0  0  0
    8.3887   -6.6075    2.4563 H   0  0  0  0  0  0  0  0  0  0  0  0
    6.7374   -5.9335    2.7747 H   0  0  0  0  0  0  0  0  0  0  0  0
    4.7617   -9.8714   -0.9279 H   0  0  0  0  0  0  0  0  0  0  0  0
    4.0922   -7.7991   -4.6232 H   0  0  0  0  0  0  0  0  0  0  0  0
    4.5723   -5.6187   -3.5147 H   0  0  0  0  0  0  0  0  0  0  0  0
  1  2  1  0  0  0  0
  1 30  1  0  0  0  0
  1 31  1  0  0  0  0
  1 32  1  0  0  0  0
  2  3  1  0  0  0  0
  2  4  1  0  0  0  0
  2 10  1  0  0  0  0
  3 33  1  0  0  0  0
  3 34  1  0  0  0  0
  3 35  1  0  0  0  0
  4  9  2  0  0  0  0
  4  5  1  0  0  0  0
  5  6  2  0  0  0  0
  5 36  1  0  0  0  0
  6  7  1  0  0  0  0
  6 37  1  0  0  0  0
  7  8  2  0  0  0  0
  7 38  1  0  0  0  0
  8  9  1  0  0  0  0
  8 39  1  0  0  0  0
  9 40  1  0  0  0  0
 10 11  1  0  0  0  0
 10 41  1  0  0  0  0
 11 12  2  0  0  0  0
 11 13  1  0  0  0  0
 13 29  2  0  0  0  0
 13 14  1  0  0  0  0
 14 18  1  0  0  0  0
 14 15  2  0  0  0  0
 15 16  1  0  0  0  0
 15 20  1  0  0  0  0
 16 17  1  0  0  0  0
 16 19  1  0  0  0  0
 16 42  1  6  0  0  0
 17 18  1  0  0  0  0
 17 19  1  0  0  0  0
 17 43  1  6  0  0  0
 18 44  1  0  0  0  0
 18 45  1  0  0  0  0
 19 46  1  0  0  0  0
 19 47  1  0  0  0  0
 20 21  1  0  0  0  0
 20 29  1  0  0  0  0
 21 26  2  0  0  0  0
 21 22  1  0  0  0  0
 22 23  2  0  0  0  0
 22 28  1  0  0  0  0
 23 24  1  0  0  0  0
 23 48  1  0  0  0  0
 24 25  2  0  0  0  0
 24 27  1  0  0  0  0
 25 26  1  0  0  0  0
 25 49  1  0  0  0  0
 26 50  1  0  0  0  0
M  END
$$$$
CHEMBL2206842
 OpenBabel12022417453D

 49 52  0  0  0  0  0  0  0  0999 V2000
    4.9387   -7.6549   -1.1457 C   0  0  0  0  0  0  0  0  0  0  0  0
    4.4291   -6.3843   -1.8073 C   0  0  0  0  0  0  0  0  0  0  0  0
    4.9542   -5.1321   -1.0996 C   0  0  0  0  0  0  0  0  0  0  0  0
    4.4523   -3.8586   -1.7887 C   0  0  0  0  0  0  0  0  0  0  0  0
    5.0086   -2.5596   -1.1815 C   0  0  0  0  0  0  0  0  0  0  0  0
    6.4591   -2.4684   -1.1663 N   0  0  0  0  0  0  0  0  0  0  0  0
    7.2157   -2.4339   -0.0110 C   0  0  0  0  0  0  0  0  0  0  0  0
    8.5488   -2.5993   -0.3475 C   0  0  0  0  0  0  0  0  0  0  0  0
    9.6826   -2.8818    0.5500 C   0  0  0  0  0  0  0  0  0  0  0  0
   10.8441   -2.9195    0.1483 O   0  0  0  0  0  0  0  0  0  0  0  0
    9.3882   -3.3490    1.9322 C   0  0  0  0  0  0  0  0  0  0  0  0
    8.5197   -4.4621    1.9779 C   0  0  0  0  0  0  0  0  0  0  0  0
    8.0688   -4.9650    3.1841 C   0  0  0  0  0  0  0  0  0  0  0  0
    8.4475   -4.3318    4.3546 C   0  0  0  0  0  0  0  0  0  0  0  0
    9.2941   -3.2134    4.3460 C   0  0  0  0  0  0  0  0  0  0  0  0
    9.5183   -2.5707    5.5697 C   0  0  0  0  0  0  0  0  0  0  0  0
   10.3803   -1.4906    5.6775 C   0  0  0  0  0  0  0  0  0  0  0  0
   11.0976   -1.0937    4.5625 C   0  0  0  0  0  0  0  0  0  0  0  0
   10.8564   -1.6850    3.3119 C   0  0  0  0  0  0  0  0  0  0  0  0
    9.8852   -2.7309    3.1363 C   0  0  0  0  0  0  0  0  0  0  0  0
   11.8589   -1.0578    2.0506 Cl  0  0  0  0  0  0  0  0  0  0  0  0
    8.5999   -2.5428   -1.7768 C   0  0  0  0  0  0  0  0  0  0  0  0
    9.6603   -2.5949   -2.7163 C   0  0  0  0  0  0  0  0  0  0  0  0
    9.3850   -2.5990   -4.0841 C   0  0  0  0  0  0  0  0  0  0  0  0
    8.0780   -2.5360   -4.5379 C   0  0  0  0  0  0  0  0  0  0  0  0
    7.0027   -2.4599   -3.6428 C   0  0  0  0  0  0  0  0  0  0  0  0
    7.2878   -2.4635   -2.2597 C   0  0  0  0  0  0  0  0  0  0  0  0
    4.5553   -8.5356   -1.6704 H   0  0  0  0  0  0  0  0  0  0  0  0
    4.6130   -7.7115   -0.1022 H   0  0  0  0  0  0  0  0  0  0  0  0
    6.0324   -7.6970   -1.1679 H   0  0  0  0  0  0  0  0  0  0  0  0
    3.3331   -6.3872   -1.8012 H   0  0  0  0  0  0  0  0  0  0  0  0
    4.7472   -6.3782   -2.8567 H   0  0  0  0  0  0  0  0  0  0  0  0
    6.0490   -5.1593   -1.1047 H   0  0  0  0  0  0  0  0  0  0  0  0
    4.6324   -5.1341   -0.0518 H   0  0  0  0  0  0  0  0  0  0  0  0
    3.3569   -3.8272   -1.7274 H   0  0  0  0  0  0  0  0  0  0  0  0
    4.6940   -3.9096   -2.8554 H   0  0  0  0  0  0  0  0  0  0  0  0
    4.6509   -2.4617   -0.1491 H   0  0  0  0  0  0  0  0  0  0  0  0
    4.6389   -1.6926   -1.7388 H   0  0  0  0  0  0  0  0  0  0  0  0
    6.7266   -2.3894    0.9586 H   0  0  0  0  0  0  0  0  0  0  0  0
    8.1755   -4.9316    1.0579 H   0  0  0  0  0  0  0  0  0  0  0  0
    7.3992   -5.8218    3.2083 H   0  0  0  0  0  0  0  0  0  0  0  0
    8.0655   -4.7258    5.2976 H   0  0  0  0  0  0  0  0  0  0  0  0
    8.9902   -2.8960    6.4675 H   0  0  0  0  0  0  0  0  0  0  0  0
   10.5039   -0.9747    6.6248 H   0  0  0  0  0  0  0  0  0  0  0  0
   11.8411   -0.3058    4.6660 H   0  0  0  0  0  0  0  0  0  0  0  0
   10.6870   -2.6575   -2.3678 H   0  0  0  0  0  0  0  0  0  0  0  0
   10.2100   -2.6526   -4.7907 H   0  0  0  0  0  0  0  0  0  0  0  0
    7.8777   -2.5555   -5.6083 H   0  0  0  0  0  0  0  0  0  0  0  0
    5.9910   -2.4123   -4.0127 H   0  0  0  0  0  0  0  0  0  0  0  0
  1  2  1  0  0  0  0
  1 28  1  0  0  0  0
  1 29  1  0  0  0  0
  1 30  1  0  0  0  0
  2  3  1  0  0  0  0
  2 31  1  0  0  0  0
  2 32  1  0  0  0  0
  3  4  1  0  0  0  0
  3 33  1  0  0  0  0
  3 34  1  0  0  0  0
  4  5  1  0  0  0  0
  4 35  1  0  0  0  0
  4 36  1  0  0  0  0
  5  6  1  0  0  0  0
  5 37  1  0  0  0  0
  5 38  1  0  0  0  0
  6 27  1  0  0  0  0
  6  7  1  0  0  0  0
  7  8  2  0  0  0  0
  7 39  1  0  0  0  0
  8  9  1  0  0  0  0
  8 22  1  0  0  0  0
  9 10  2  0  0  0  0
  9 11  1  0  0  0  0
 11 20  2  0  0  0  0
 11 12  1  0  0  0  0
 12 13  2  0  0  0  0
 12 40  1  0  0  0  0
 13 14  1  0  0  0  0
 13 41  1  0  0  0  0
 14 15  2  0  0  0  0
 14 42  1  0  0  0  0
 15 20  1  0  0  0  0
 15 16  1  0  0  0  0
 16 17  2  0  0  0  0
 16 43  1  0  0  0  0
 17 18  1  0  0  0  0
 17 44  1  0  0  0  0
 18 19  2  0  0  0  0
 18 45  1  0  0  0  0
 19 20  1  0  0  0  0
 19 21  1  0  0  0  0
 22 27  2  0  0  0  0
 22 23  1  0  0  0  0
 23 24  2  0  0  0  0
 23 46  1  0  0  0  0
 24 25  1  0  0  0  0
 24 47  1  0  0  0  0
 25 26  2  0  0  0  0
 25 48  1  0  0  0  0
 26 27  1  0  0  0  0
 26 49  1  0  0  0  0
M  END
$$$$
CHEMBL2206839
 OpenBabel12022417453D

 52 55  0  0  0  0  0  0  0  0999 V2000
    4.7635   -2.4583    7.6237 C   0  0  0  0  0  0  0  0  0  0  0  0
    4.3757   -2.6137    6.1627 C   0  0  0  0  0  0  0  0  0  0  0  0
    5.1153   -1.6251    5.2530 C   0  0  0  0  0  0  0  0  0  0  0  0
    4.7072   -1.8419    3.7946 C   0  0  0  0  0  0  0  0  0  0  0  0
    5.4723   -0.9843    2.7724 C   0  0  0  0  0  0  0  0  0  0  0  0
    6.9428   -1.0424    2.7793 N   0  0  0  0  0  0  0  0  0  0  0  0
    7.7713   -2.1397    2.4814 C   0  0  0  0  0  0  0  0  0  0  0  0
    7.1083   -3.4320    2.1264 C   0  0  0  0  0  0  0  0  0  0  0  0
    9.1413   -1.7570    2.6130 C   0  0  0  0  0  0  0  0  0  0  0  0
   10.5410   -2.4869    2.4973 C   0  0  0  0  0  0  0  0  0  0  0  0
   11.5625   -1.8231    2.6883 O   0  0  0  0  0  0  0  0  0  0  0  0
   10.8380   -3.9744    2.1452 C   0  0  0  0  0  0  0  0  0  0  0  0
    9.9069   -4.5833    1.3203 C   0  0  0  0  0  0  0  0  0  0  0  0
    9.9140   -5.9456    1.0557 C   0  0  0  0  0  0  0  0  0  0  0  0
   10.9687   -6.7495    1.5005 C   0  0  0  0  0  0  0  0  0  0  0  0
   12.1001   -6.1777    2.1108 C   0  0  0  0  0  0  0  0  0  0  0  0
   13.2592   -6.9837    2.3352 C   0  0  0  0  0  0  0  0  0  0  0  0
   14.4441   -6.4570    2.8452 C   0  0  0  0  0  0  0  0  0  0  0  0
   14.4622   -5.1224    3.1814 C   0  0  0  0  0  0  0  0  0  0  0  0
   13.3138   -4.3091    3.0114 C   0  0  0  0  0  0  0  0  0  0  0  0
   12.0578   -4.7738    2.4524 C   0  0  0  0  0  0  0  0  0  0  0  0
   10.7235   -8.8209    1.0861 I   0  0  0  0  0  0  0  0  0  0  0  0
    9.0441   -0.3094    2.9511 C   0  0  0  0  0  0  0  0  0  0  0  0
    9.9952    0.7098    3.2120 C   0  0  0  0  0  0  0  0  0  0  0  0
    9.6128    2.0270    3.5211 C   0  0  0  0  0  0  0  0  0  0  0  0
    8.2688    2.3808    3.5771 C   0  0  0  0  0  0  0  0  0  0  0  0
    7.3057    1.4079    3.3301 C   0  0  0  0  0  0  0  0  0  0  0  0
    7.7030    0.0825    3.0302 C   0  0  0  0  0  0  0  0  0  0  0  0
    4.2267   -3.1916    8.2348 H   0  0  0  0  0  0  0  0  0  0  0  0
    4.5118   -1.4600    7.9943 H   0  0  0  0  0  0  0  0  0  0  0  0
    5.8362   -2.6219    7.7666 H   0  0  0  0  0  0  0  0  0  0  0  0
    3.2924   -2.4764    6.0627 H   0  0  0  0  0  0  0  0  0  0  0  0
    4.5984   -3.6408    5.8477 H   0  0  0  0  0  0  0  0  0  0  0  0
    6.1947   -1.7738    5.3641 H   0  0  0  0  0  0  0  0  0  0  0  0
    4.8892   -0.5958    5.5551 H   0  0  0  0  0  0  0  0  0  0  0  0
    3.6363   -1.6248    3.6899 H   0  0  0  0  0  0  0  0  0  0  0  0
    4.8081   -2.9029    3.5613 H   0  0  0  0  0  0  0  0  0  0  0  0
    5.1541    0.0521    2.9347 H   0  0  0  0  0  0  0  0  0  0  0  0
    5.1456   -1.2148    1.7500 H   0  0  0  0  0  0  0  0  0  0  0  0
    6.0215   -3.3693    2.0922 H   0  0  0  0  0  0  0  0  0  0  0  0
    7.3667   -4.2078    2.8498 H   0  0  0  0  0  0  0  0  0  0  0  0
    7.3374   -3.7408    1.1083 H   0  0  0  0  0  0  0  0  0  0  0  0
    9.1787   -3.9714    0.8040 H   0  0  0  0  0  0  0  0  0  0  0  0
    9.0983   -6.3772    0.4897 H   0  0  0  0  0  0  0  0  0  0  0  0
   13.2957   -8.0331    2.0702 H   0  0  0  0  0  0  0  0  0  0  0  0
   15.3192   -7.0981    2.9468 H   0  0  0  0  0  0  0  0  0  0  0  0
   15.3897   -4.7059    3.5649 H   0  0  0  0  0  0  0  0  0  0  0  0
   13.4270   -3.2581    3.2834 H   0  0  0  0  0  0  0  0  0  0  0  0
   11.0595    0.4830    3.1739 H   0  0  0  0  0  0  0  0  0  0  0  0
   10.3676    2.7800    3.7238 H   0  0  0  0  0  0  0  0  0  0  0  0
    7.9765    3.3948    3.8154 H   0  0  0  0  0  0  0  0  0  0  0  0
    6.2574    1.7084    3.3832 H   0  0  0  0  0  0  0  0  0  0  0  0
  1  2  1  0  0  0  0
  1 29  1  0  0  0  0
  1 30  1  0  0  0  0
  1 31  1  0  0  0  0
  2  3  1  0  0  0  0
  2 32  1  0  0  0  0
  2 33  1  0  0  0  0
  3  4  1  0  0  0  0
  3 34  1  0  0  0  0
  3 35  1  0  0  0  0
  4  5  1  0  0  0  0
  4 36  1  0  0  0  0
  4 37  1  0  0  0  0
  5  6  1  0  0  0  0
  5 38  1  0  0  0  0
  5 39  1  0  0  0  0
  6 28  1  0  0  0  0
  6  7  1  0  0  0  0
  7  8  1  0  0  0  0
  7  9  2  0  0  0  0
  8 40  1  0  0  0  0
  8 41  1  0  0  0  0
  8 42  1  0  0  0  0
  9 10  1  0  0  0  0
  9 23  1  0  0  0  0
 10 11  2  0  0  0  0
 10 12  1  0  0  0  0
 12 21  2  0  0  0  0
 12 13  1  0  0  0  0
 13 14  2  0  0  0  0
 13 43  1  0  0  0  0
 14 15  1  0  0  0  0
 14 44  1  0  0  0  0
 15 16  2  0  0  0  0
 15 22  1  0  0  0  0
 16 21  1  0  0  0  0
 16 17  1  0  0  0  0
 17 18  2  0  0  0  0
 17 45  1  0  0  0  0
 18 19  1  0  0  0  0
 18 46  1  0  0  0  0
 19 20  2  0  0  0  0
 19 47  1  0  0  0  0
 20 21  1  0  0  0  0
 20 48  1  0  0  0  0
 23 28  2  0  0  0  0
 23 24  1  0  0  0  0
 24 25  2  0  0  0  0
 24 49  1  0  0  0  0
 25 26  1  0  0  0  0
 25 50  1  0  0  0  0
 26 27  2  0  0  0  0
 26 51  1  0  0  0  0
 27 28  1  0  0  0  0
 27 52  1  0  0  0  0
M  END
$$$$
CHEMBL2206835
 OpenBabel12022417453D

 52 55  0  0  0  0  0  0  0  0999 V2000
    4.6839   -7.2066   -3.0683 C   0  0  0  0  0  0  0  0  0  0  0  0
    4.2557   -5.7474   -3.0716 C   0  0  0  0  0  0  0  0  0  0  0  0
    4.9583   -4.9537   -1.9638 C   0  0  0  0  0  0  0  0  0  0  0  0
    4.6181   -3.4639   -2.0514 C   0  0  0  0  0  0  0  0  0  0  0  0
    5.4366   -2.5566   -1.1140 C   0  0  0  0  0  0  0  0  0  0  0  0
    6.9094   -2.5771   -1.2067 N   0  0  0  0  0  0  0  0  0  0  0  0
    7.7294   -2.0253   -2.2133 C   0  0  0  0  0  0  0  0  0  0  0  0
    7.0617   -1.4034   -3.3929 C   0  0  0  0  0  0  0  0  0  0  0  0
    9.1125   -2.2214   -1.8715 C   0  0  0  0  0  0  0  0  0  0  0  0
   10.5345   -1.9510   -2.5682 C   0  0  0  0  0  0  0  0  0  0  0  0
   11.5069   -2.5640   -2.1185 O   0  0  0  0  0  0  0  0  0  0  0  0
   10.9130   -0.9966   -3.7581 C   0  0  0  0  0  0  0  0  0  0  0  0
    9.9558   -0.0530   -4.0879 C   0  0  0  0  0  0  0  0  0  0  0  0
   10.0284    0.7042   -5.2562 C   0  0  0  0  0  0  0  0  0  0  0  0
   11.1805    0.7176   -6.0367 C   0  0  0  0  0  0  0  0  0  0  0  0
   12.3281    0.0109   -5.6437 C   0  0  0  0  0  0  0  0  0  0  0  0
   13.5589    0.2419   -6.3435 C   0  0  0  0  0  0  0  0  0  0  0  0
   14.7413   -0.3776   -5.9898 C   0  0  0  0  0  0  0  0  0  0  0  0
   14.7042   -1.2780   -4.9415 C   0  0  0  0  0  0  0  0  0  0  0  0
   13.4869   -1.5419   -4.2370 C   0  0  0  0  0  0  0  0  0  0  0  0
   12.2290   -0.8954   -4.5127 C   0  0  0  0  0  0  0  0  0  0  0  0
   11.1111    1.8691   -7.5657 Br  0  0  0  0  0  0  0  0  0  0  0  0
    9.0237   -2.8959   -0.5284 C   0  0  0  0  0  0  0  0  0  0  0  0
    9.9677   -3.3534    0.4012 C   0  0  0  0  0  0  0  0  0  0  0  0
    9.5921   -3.9451    1.6220 C   0  0  0  0  0  0  0  0  0  0  0  0
    8.2662   -4.0967    1.9594 C   0  0  0  0  0  0  0  0  0  0  0  0
    7.2875   -3.6819    1.0485 C   0  0  0  0  0  0  0  0  0  0  0  0
    7.6779   -3.0787   -0.1743 C   0  0  0  0  0  0  0  0  0  0  0  0
    4.2044   -7.7471   -3.8909 H   0  0  0  0  0  0  0  0  0  0  0  0
    4.4052   -7.6963   -2.1301 H   0  0  0  0  0  0  0  0  0  0  0  0
    5.7679   -7.2942   -3.1941 H   0  0  0  0  0  0  0  0  0  0  0  0
    3.1670   -5.6874   -2.9530 H   0  0  0  0  0  0  0  0  0  0  0  0
    4.4974   -5.3124   -4.0487 H   0  0  0  0  0  0  0  0  0  0  0  0
    6.0395   -5.0924   -2.0556 H   0  0  0  0  0  0  0  0  0  0  0  0
    4.6578   -5.3493   -0.9851 H   0  0  0  0  0  0  0  0  0  0  0  0
    3.5529   -3.3471   -1.7973 H   0  0  0  0  0  0  0  0  0  0  0  0
    4.7174   -3.1211   -3.0846 H   0  0  0  0  0  0  0  0  0  0  0  0
    5.1442   -2.8298   -0.0911 H   0  0  0  0  0  0  0  0  0  0  0  0
    5.1184   -1.5148   -1.2111 H   0  0  0  0  0  0  0  0  0  0  0  0
    5.9744   -1.3549   -3.2861 H   0  0  0  0  0  0  0  0  0  0  0  0
    7.2732   -1.9701   -4.3007 H   0  0  0  0  0  0  0  0  0  0  0  0
    7.3426   -0.3607   -3.5136 H   0  0  0  0  0  0  0  0  0  0  0  0
    9.1672    0.1725   -3.3882 H   0  0  0  0  0  0  0  0  0  0  0  0
    9.1883    1.3357   -5.5310 H   0  0  0  0  0  0  0  0  0  0  0  0
   13.6416    0.9585   -7.1663 H   0  0  0  0  0  0  0  0  0  0  0  0
   15.6622   -0.1325   -6.5193 H   0  0  0  0  0  0  0  0  0  0  0  0
   15.6400   -1.7556   -4.6523 H   0  0  0  0  0  0  0  0  0  0  0  0
   13.5748   -2.2468   -3.4095 H   0  0  0  0  0  0  0  0  0  0  0  0
   11.0455   -3.2485    0.1992 H   0  0  0  0  0  0  0  0  0  0  0  0
   10.3550   -4.2764    2.3236 H   0  0  0  0  0  0  0  0  0  0  0  0
    7.9619   -4.5657    2.8990 H   0  0  0  0  0  0  0  0  0  0  0  0
    6.2388   -3.8211    1.3147 H   0  0  0  0  0  0  0  0  0  0  0  0
  1  2  1  0  0  0  0
  1 29  1  0  0  0  0
  1 30  1  0  0  0  0
  1 31  1  0  0  0  0
  2  3  1  0  0  0  0
  2 32  1  0  0  0  0
  2 33  1  0  0  0  0
  3  4  1  0  0  0  0
  3 34  1  0  0  0  0
  3 35  1  0  0  0  0
  4  5  1  0  0  0  0
  4 36  1  0  0  0  0
  4 37  1  0  0  0  0
  5  6  1  0  0  0  0
  5 38  1  0  0  0  0
  5 39  1  0  0  0  0
  6 28  1  0  0  0  0
  6  7  1  0  0  0  0
  7  8  1  0  0  0  0
  7  9  2  0  0  0  0
  8 40  1  0  0  0  0
  8 41  1  0  0  0  0
  8 42  1  0  0  0  0
  9 10  1  0  0  0  0
  9 23  1  0  0  0  0
 10 11  2  0  0  0  0
 10 12  1  0  0  0  0
 12 21  2  0  0  0  0
 12 13  1  0  0  0  0
 13 14  2  0  0  0  0
 13 43  1  0  0  0  0
 14 15  1  0  0  0  0
 14 44  1  0  0  0  0
 15 16  2  0  0  0  0
 15 22  1  0  0  0  0
 16 21  1  0  0  0  0
 16 17  1  0  0  0  0
 17 18  2  0  0  0  0
 17 45  1  0  0  0  0
 18 19  1  0  0  0  0
 18 46  1  0  0  0  0
 19 20  2  0  0  0  0
 19 47  1  0  0  0  0
 20 21  1  0  0  0  0
 20 48  1  0  0  0  0
 23 28  2  0  0  0  0
 23 24  1  0  0  0  0
 24 25  2  0  0  0  0
 24 49  1  0  0  0  0
 25 26  1  0  0  0  0
 25 50  1  0  0  0  0
 26 27  2  0  0  0  0
 26 51  1  0  0  0  0
 27 28  1  0  0  0  0
 27 52  1  0  0  0  0
M  END
$$$$
CHEMBL2206860
 OpenBabel12022417453D

 52 55  0  0  0  0  0  0  0  0999 V2000
    4.8125    7.8849   -1.4452 C   0  0  0  0  0  0  0  0  0  0  0  0
    4.4357    6.6820   -0.5983 C   0  0  0  0  0  0  0  0  0  0  0  0
    5.2143    5.4238   -0.9998 C   0  0  0  0  0  0  0  0  0  0  0  0
    4.8406    4.2642   -0.0772 C   0  0  0  0  0  0  0  0  0  0  0  0
    5.6335    2.9677   -0.2965 C   0  0  0  0  0  0  0  0  0  0  0  0
    7.0983    3.0474   -0.2796 N   0  0  0  0  0  0  0  0  0  0  0  0
    7.9216    3.2992    0.8257 C   0  0  0  0  0  0  0  0  0  0  0  0
    7.2674    3.5650    2.1445 C   0  0  0  0  0  0  0  0  0  0  0  0
    9.2780    3.2371    0.4116 C   0  0  0  0  0  0  0  0  0  0  0  0
   10.6429    3.4615    1.0956 C   0  0  0  0  0  0  0  0  0  0  0  0
   11.6674    3.3098    0.4293 O   0  0  0  0  0  0  0  0  0  0  0  0
   10.9017    3.8597    2.5547 C   0  0  0  0  0  0  0  0  0  0  0  0
   10.0020    3.3938    3.5031 C   0  0  0  0  0  0  0  0  0  0  0  0
   10.0222    3.8284    4.8252 C   0  0  0  0  0  0  0  0  0  0  0  0
   11.0492    4.6427    5.2780 C   0  0  0  0  0  0  0  0  0  0  0  0
   12.1415    4.9459    4.4448 C   0  0  0  0  0  0  0  0  0  0  0  0
   13.2931    5.5836    4.9821 C   0  0  0  0  0  0  0  0  0  0  0  0
   14.4357    5.8045    4.2274 C   0  0  0  0  0  0  0  0  0  0  0  0
   14.4308    5.4324    2.9045 C   0  0  0  0  0  0  0  0  0  0  0  0
   13.2827    4.8446    2.3270 C   0  0  0  0  0  0  0  0  0  0  0  0
   12.0876    4.5526    3.0618 C   0  0  0  0  0  0  0  0  0  0  0  0
   10.9369    5.1689    6.9291 Cl  0  0  0  0  0  0  0  0  0  0  0  0
    9.1946    2.8524   -1.0131 C   0  0  0  0  0  0  0  0  0  0  0  0
   10.1573    2.5784   -2.0227 C   0  0  0  0  0  0  0  0  0  0  0  0
    9.7728    2.2053   -3.3208 C   0  0  0  0  0  0  0  0  0  0  0  0
    8.4336    2.0985   -3.6538 C   0  0  0  0  0  0  0  0  0  0  0  0
    7.4597    2.3685   -2.6970 C   0  0  0  0  0  0  0  0  0  0  0  0
    7.8551    2.7409   -1.3901 C   0  0  0  0  0  0  0  0  0  0  0  0
    4.2603    8.7688   -1.1092 H   0  0  0  0  0  0  0  0  0  0  0  0
    4.5729    7.7143   -2.4989 H   0  0  0  0  0  0  0  0  0  0  0  0
    5.8817    8.1032   -1.3624 H   0  0  0  0  0  0  0  0  0  0  0  0
    3.3581    6.4999   -0.6877 H   0  0  0  0  0  0  0  0  0  0  0  0
    4.6342    6.9178    0.4544 H   0  0  0  0  0  0  0  0  0  0  0  0
    6.2882    5.6285   -0.9328 H   0  0  0  0  0  0  0  0  0  0  0  0
    4.9914    5.1609   -2.0405 H   0  0  0  0  0  0  0  0  0  0  0  0
    3.7758    4.0320   -0.2178 H   0  0  0  0  0  0  0  0  0  0  0  0
    4.9279    4.6001    0.9584 H   0  0  0  0  0  0  0  0  0  0  0  0
    5.3121    2.5475   -1.2539 H   0  0  0  0  0  0  0  0  0  0  0  0
    5.3496    2.2153    0.4495 H   0  0  0  0  0  0  0  0  0  0  0  0
    6.1797    3.5627    2.1057 H   0  0  0  0  0  0  0  0  0  0  0  0
    7.5701    4.5351    2.5428 H   0  0  0  0  0  0  0  0  0  0  0  0
    7.4626    2.7605    2.8530 H   0  0  0  0  0  0  0  0  0  0  0  0
    9.2985    2.6227    3.2322 H   0  0  0  0  0  0  0  0  0  0  0  0
    9.2409    3.5036    5.5081 H   0  0  0  0  0  0  0  0  0  0  0  0
   13.3350    5.8744    6.0325 H   0  0  0  0  0  0  0  0  0  0  0  0
   15.3202    6.2515    4.6878 H   0  0  0  0  0  0  0  0  0  0  0  0
   15.3311    5.5696    2.3071 H   0  0  0  0  0  0  0  0  0  0  0  0
   13.3695    4.5563    1.2810 H   0  0  0  0  0  0  0  0  0  0  0  0
   11.2187    2.6415   -1.7995 H   0  0  0  0  0  0  0  0  0  0  0  0
   10.5309    1.9939   -4.0701 H   0  0  0  0  0  0  0  0  0  0  0  0
    8.1390    1.8054   -4.6589 H   0  0  0  0  0  0  0  0  0  0  0  0
    6.4151    2.2814   -2.9817 H   0  0  0  0  0  0  0  0  0  0  0  0
  1  2  1  0  0  0  0
  1 29  1  0  0  0  0
  1 30  1  0  0  0  0
  1 31  1  0  0  0  0
  2  3  1  0  0  0  0
  2 32  1  0  0  0  0
  2 33  1  0  0  0  0
  3  4  1  0  0  0  0
  3 34  1  0  0  0  0
  3 35  1  0  0  0  0
  4  5  1  0  0  0  0
  4 36  1  0  0  0  0
  4 37  1  0  0  0  0
  5  6  1  0  0  0  0
  5 38  1  0  0  0  0
  5 39  1  0  0  0  0
  6 28  1  0  0  0  0
  6  7  1  0  0  0  0
  7  8  1  0  0  0  0
  7  9  2  0  0  0  0
  8 40  1  0  0  0  0
  8 41  1  0  0  0  0
  8 42  1  0  0  0  0
  9 10  1  0  0  0  0
  9 23  1  0  0  0  0
 10 11  2  0  0  0  0
 10 12  1  0  0  0  0
 12 21  2  0  0  0  0
 12 13  1  0  0  0  0
 13 14  2  0  0  0  0
 13 43  1  0  0  0  0
 14 15  1  0  0  0  0
 14 44  1  0  0  0  0
 15 16  2  0  0  0  0
 15 22  1  0  0  0  0
 16 21  1  0  0  0  0
 16 17  1  0  0  0  0
 17 18  2  0  0  0  0
 17 45  1  0  0  0  0
 18 19  1  0  0  0  0
 18 46  1  0  0  0  0
 19 20  2  0  0  0  0
 19 47  1  0  0  0  0
 20 21  1  0  0  0  0
 20 48  1  0  0  0  0
 23 28  2  0  0  0  0
 23 24  1  0  0  0  0
 24 25  2  0  0  0  0
 24 49  1  0  0  0  0
 25 26  1  0  0  0  0
 25 50  1  0  0  0  0
 26 27  2  0  0  0  0
 26 51  1  0  0  0  0
 27 28  1  0  0  0  0
 27 52  1  0  0  0  0
M  END
$$$$
CHEMBL2206838
 OpenBabel12022417453D

 49 52  0  0  0  0  0  0  0  0999 V2000
    4.7751    2.3818    7.4312 C   0  0  0  0  0  0  0  0  0  0  0  0
    4.5058    1.2157    6.4915 C   0  0  0  0  0  0  0  0  0  0  0  0
    5.2440    1.4083    5.1668 C   0  0  0  0  0  0  0  0  0  0  0  0
    5.0352    0.2372    4.2083 C   0  0  0  0  0  0  0  0  0  0  0  0
    5.7476    0.4544    2.8660 C   0  0  0  0  0  0  0  0  0  0  0  0
    7.2066    0.3787    2.9239 N   0  0  0  0  0  0  0  0  0  0  0  0
    8.0855    1.4503    3.0059 C   0  0  0  0  0  0  0  0  0  0  0  0
    9.4041    0.9954    2.9506 C   0  0  0  0  0  0  0  0  0  0  0  0
   10.7342    1.7216    2.9997 C   0  0  0  0  0  0  0  0  0  0  0  0
   11.7640    1.0488    2.9687 O   0  0  0  0  0  0  0  0  0  0  0  0
   10.9267    3.2427    3.0711 C   0  0  0  0  0  0  0  0  0  0  0  0
    9.9014    4.0507    2.5761 C   0  0  0  0  0  0  0  0  0  0  0  0
    9.9510    5.4376    2.6862 C   0  0  0  0  0  0  0  0  0  0  0  0
   11.0634    6.0689    3.2383 C   0  0  0  0  0  0  0  0  0  0  0  0
   12.2090    5.3338    3.6112 C   0  0  0  0  0  0  0  0  0  0  0  0
   13.4074    5.9872    4.0272 C   0  0  0  0  0  0  0  0  0  0  0  0
   14.5722    5.2963    4.3341 C   0  0  0  0  0  0  0  0  0  0  0  0
   14.5568    3.9199    4.2659 C   0  0  0  0  0  0  0  0  0  0  0  0
   13.3769    3.2448    3.8969 C   0  0  0  0  0  0  0  0  0  0  0  0
   12.1584    3.8987    3.5329 C   0  0  0  0  0  0  0  0  0  0  0  0
   10.8834    8.1760    3.4351 I   0  0  0  0  0  0  0  0  0  0  0  0
    9.2632   -0.4617    2.8455 C   0  0  0  0  0  0  0  0  0  0  0  0
   10.1906   -1.5312    2.7599 C   0  0  0  0  0  0  0  0  0  0  0  0
    9.7498   -2.8600    2.6705 C   0  0  0  0  0  0  0  0  0  0  0  0
    8.3942   -3.1540    2.6591 C   0  0  0  0  0  0  0  0  0  0  0  0
    7.4500   -2.1301    2.7396 C   0  0  0  0  0  0  0  0  0  0  0  0
    7.9102   -0.8040    2.8318 C   0  0  0  0  0  0  0  0  0  0  0  0
    4.2470    2.2406    8.3789 H   0  0  0  0  0  0  0  0  0  0  0  0
    4.4383    3.3258    6.9905 H   0  0  0  0  0  0  0  0  0  0  0  0
    5.8449    2.4686    7.6481 H   0  0  0  0  0  0  0  0  0  0  0  0
    3.4268    1.1338    6.3159 H   0  0  0  0  0  0  0  0  0  0  0  0
    4.8291    0.2846    6.9712 H   0  0  0  0  0  0  0  0  0  0  0  0
    6.3132    1.5285    5.3695 H   0  0  0  0  0  0  0  0  0  0  0  0
    4.8950    2.3314    4.6884 H   0  0  0  0  0  0  0  0  0  0  0  0
    3.9595    0.1223    4.0180 H   0  0  0  0  0  0  0  0  0  0  0  0
    5.3700   -0.6961    4.6778 H   0  0  0  0  0  0  0  0  0  0  0  0
    5.4706    1.4134    2.4171 H   0  0  0  0  0  0  0  0  0  0  0  0
    5.4137   -0.3215    2.1628 H   0  0  0  0  0  0  0  0  0  0  0  0
    7.6634    2.4397    3.0980 H   0  0  0  0  0  0  0  0  0  0  0  0
    9.0525    3.6279    2.0549 H   0  0  0  0  0  0  0  0  0  0  0  0
    9.1100    6.0211    2.3201 H   0  0  0  0  0  0  0  0  0  0  0  0
   13.4721    7.0717    4.0865 H   0  0  0  0  0  0  0  0  0  0  0  0
   15.4782    5.8360    4.6058 H   0  0  0  0  0  0  0  0  0  0  0  0
   15.4654    3.3633    4.4795 H   0  0  0  0  0  0  0  0  0  0  0  0
   13.4563    2.1617    3.8587 H   0  0  0  0  0  0  0  0  0  0  0  0
   11.2585   -1.3305    2.7661 H   0  0  0  0  0  0  0  0  0  0  0  0
   10.4788   -3.6641    2.6120 H   0  0  0  0  0  0  0  0  0  0  0  0
    8.0639   -4.1898    2.5910 H   0  0  0  0  0  0  0  0  0  0  0  0
    6.3928   -2.3734    2.7314 H   0  0  0  0  0  0  0  0  0  0  0  0
  1  2  1  0  0  0  0
  1 28  1  0  0  0  0
  1 29  1  0  0  0  0
  1 30  1  0  0  0  0
  2  3  1  0  0  0  0
  2 31  1  0  0  0  0
  2 32  1  0  0  0  0
  3  4  1  0  0  0  0
  3 33  1  0  0  0  0
  3 34  1  0  0  0  0
  4  5  1  0  0  0  0
  4 35  1  0  0  0  0
  4 36  1  0  0  0  0
  5  6  1  0  0  0  0
  5 37  1  0  0  0  0
  5 38  1  0  0  0  0
  6 27  1  0  0  0  0
  6  7  1  0  0  0  0
  7  8  2  0  0  0  0
  7 39  1  0  0  0  0
  8  9  1  0  0  0  0
  8 22  1  0  0  0  0
  9 10  2  0  0  0  0
  9 11  1  0  0  0  0
 11 20  2  0  0  0  0
 11 12  1  0  0  0  0
 12 13  2  0  0  0  0
 12 40  1  0  0  0  0
 13 14  1  0  0  0  0
 13 41  1  0  0  0  0
 14 15  2  0  0  0  0
 14 21  1  0  0  0  0
 15 20  1  0  0  0  0
 15 16  1  0  0  0  0
 16 17  2  0  0  0  0
 16 42  1  0  0  0  0
 17 18  1  0  0  0  0
 17 43  1  0  0  0  0
 18 19  2  0  0  0  0
 18 44  1  0  0  0  0
 19 20  1  0  0  0  0
 19 45  1  0  0  0  0
 22 27  2  0  0  0  0
 22 23  1  0  0  0  0
 23 24  2  0  0  0  0
 23 46  1  0  0  0  0
 24 25  1  0  0  0  0
 24 47  1  0  0  0  0
 25 26  2  0  0  0  0
 25 48  1  0  0  0  0
 26 27  1  0  0  0  0
 26 49  1  0  0  0  0
M  END
$$$$
CHEMBL3354949
 OpenBabel12022417453D

 49 53  0  0  1  0  0  0  0  0999 V2000
    4.3628    0.0293    1.7974 C   0  0  0  0  0  0  0  0  0  0  0  0
    3.1864    0.7714    1.1268 C   0  0  0  0  0  0  0  0  0  0  0  0
    2.3769   -0.1927    0.2319 C   0  0  0  0  0  0  0  0  0  0  0  0
    2.2556    1.2837    2.2574 C   0  0  0  0  0  0  0  0  0  0  0  0
    1.6238    0.3819    3.1279 C   0  0  0  0  0  0  0  0  0  0  0  0
    0.8093    0.8563    4.1484 C   0  0  0  0  0  0  0  0  0  0  0  0
    0.6421    2.2256    4.2944 C   0  0  0  0  0  0  0  0  0  0  0  0
    1.2968    3.0595    3.4024 C   0  0  0  0  0  0  0  0  0  0  0  0
    2.0923    2.6280    2.3937 N   0  0  0  0  0  0  0  0  0  0  0  0
    3.6948    1.8976    0.3096 N   0  0  0  0  0  0  0  0  0  0  0  0
    4.5502    1.7517   -0.7627 C   0  0  0  0  0  0  0  0  0  0  0  0
    4.9998    0.6596   -1.1092 O   0  0  0  0  0  0  0  0  0  0  0  0
    4.9053    2.9722   -1.5149 C   0  0  0  0  0  0  0  0  0  0  0  0
    5.7932    3.0090   -2.6085 C   0  0  0  0  0  0  0  0  0  0  0  0
    5.8422    4.3106   -2.9984 C   0  0  0  0  0  0  0  0  0  0  0  0
    6.9567    4.5576   -3.9849 C   0  0  1  0  0  0  0  0  0  0  0  0
    7.6088    3.1623   -4.1077 C   0  0  1  0  0  0  0  0  0  0  0  0
    6.7796    2.1390   -3.2980 C   0  0  0  0  0  0  0  0  0  0  0  0
    7.0220    3.8375   -5.3059 C   0  0  0  0  0  0  0  0  0  0  0  0
    5.0210    5.0331   -2.1970 N   0  0  0  0  0  0  0  0  0  0  0  0
    4.7662    6.4165   -2.3094 C   0  0  0  0  0  0  0  0  0  0  0  0
    4.5113    7.1842   -1.1699 C   0  0  0  0  0  0  0  0  0  0  0  0
    4.3863    8.5741   -1.3009 C   0  0  0  0  0  0  0  0  0  0  0  0
    4.4667    9.1709   -2.5604 C   0  0  0  0  0  0  0  0  0  0  0  0
    4.6636    8.4081   -3.7007 C   0  0  0  0  0  0  0  0  0  0  0  0
    4.8179    7.0351   -3.5687 C   0  0  0  0  0  0  0  0  0  0  0  0
    4.9488    6.3212   -4.6947 F   0  0  0  0  0  0  0  0  0  0  0  0
    4.3516   10.4984   -2.6717 F   0  0  0  0  0  0  0  0  0  0  0  0
    4.4706    4.2307   -1.2172 N   0  0  0  0  0  0  0  0  0  0  0  0
    4.0242   -0.8255    2.3942 H   0  0  0  0  0  0  0  0  0  0  0  0
    4.9163    0.6989    2.4672 H   0  0  0  0  0  0  0  0  0  0  0  0
    5.0768   -0.3669    1.0706 H   0  0  0  0  0  0  0  0  0  0  0  0
    1.9924   -1.0548    0.7888 H   0  0  0  0  0  0  0  0  0  0  0  0
    2.9755   -0.6008   -0.5874 H   0  0  0  0  0  0  0  0  0  0  0  0
    1.5165    0.3192   -0.2164 H   0  0  0  0  0  0  0  0  0  0  0  0
    1.7592   -0.6899    3.0228 H   0  0  0  0  0  0  0  0  0  0  0  0
    0.3164    0.1662    4.8283 H   0  0  0  0  0  0  0  0  0  0  0  0
    0.0185    2.6329    5.0840 H   0  0  0  0  0  0  0  0  0  0  0  0
    1.1938    4.1394    3.4811 H   0  0  0  0  0  0  0  0  0  0  0  0
    3.3634    2.8312    0.5405 H   0  0  0  0  0  0  0  0  0  0  0  0
    7.4970    5.4924   -3.9371 H   0  0  0  0  0  0  0  0  0  0  0  0
    8.6793    3.0769   -3.9924 H   0  0  0  0  0  0  0  0  0  0  0  0
    6.2947    1.4240   -3.9687 H   0  0  0  0  0  0  0  0  0  0  0  0
    7.4215    1.6115   -2.5874 H   0  0  0  0  0  0  0  0  0  0  0  0
    7.7022    4.2412   -6.0494 H   0  0  0  0  0  0  0  0  0  0  0  0
    6.0919    3.4746   -5.7289 H   0  0  0  0  0  0  0  0  0  0  0  0
    4.4728    6.7303   -0.1821 H   0  0  0  0  0  0  0  0  0  0  0  0
    4.2390    9.2020   -0.4256 H   0  0  0  0  0  0  0  0  0  0  0  0
    4.6973    8.8721   -4.6788 H   0  0  0  0  0  0  0  0  0  0  0  0
  1  2  1  0  0  0  0
  1 30  1  0  0  0  0
  1 31  1  0  0  0  0
  1 32  1  0  0  0  0
  2  3  1  0  0  0  0
  2  4  1  0  0  0  0
  2 10  1  0  0  0  0
  3 33  1  0  0  0  0
  3 34  1  0  0  0  0
  3 35  1  0  0  0  0
  4  9  2  0  0  0  0
  4  5  1  0  0  0  0
  5  6  2  0  0  0  0
  5 36  1  0  0  0  0
  6  7  1  0  0  0  0
  6 37  1  0  0  0  0
  7  8  2  0  0  0  0
  7 38  1  0  0  0  0
  8  9  1  0  0  0  0
  8 39  1  0  0  0  0
 10 11  1  0  0  0  0
 10 40  1  0  0  0  0
 11 12  2  0  0  0  0
 11 13  1  0  0  0  0
 13 29  2  0  0  0  0
 13 14  1  0  0  0  0
 14 18  1  0  0  0  0
 14 15  2  0  0  0  0
 15 16  1  0  0  0  0
 15 20  1  0  0  0  0
 16 17  1  0  0  0  0
 16 19  1  0  0  0  0
 16 41  1  1  0  0  0
 17 18  1  0  0  0  0
 17 19  1  0  0  0  0
 17 42  1  1  0  0  0
 18 43  1  0  0  0  0
 18 44  1  0  0  0  0
 19 45  1  0  0  0  0
 19 46  1  0  0  0  0
 20 21  1  0  0  0  0
 20 29  1  0  0  0  0
 21 26  2  0  0  0  0
 21 22  1  0  0  0  0
 22 23  2  0  0  0  0
 22 47  1  0  0  0  0
 23 24  1  0  0  0  0
 23 48  1  0  0  0  0
 24 25  2  0  0  0  0
 24 28  1  0  0  0  0
 25 26  1  0  0  0  0
 25 49  1  0  0  0  0
 26 27  1  0  0  0  0
M  END
$$$$
CHEMBL285259
 OpenBabel12022417453D

 56 58  0  0  0  0  0  0  0  0999 V2000
    0.9421    3.6048   -0.6273 C   0  0  0  0  0  0  0  0  0  0  0  0
    2.4621    3.5841   -0.6451 C   0  0  0  0  0  0  0  0  0  0  0  0
    3.0526    2.9213    0.6041 C   0  0  0  0  0  0  0  0  0  0  0  0
    4.5810    2.9337    0.5426 C   0  0  0  0  0  0  0  0  0  0  0  0
    5.2446    2.2904    1.7661 C   0  0  0  0  0  0  0  0  0  0  0  0
    6.7081    2.2718    1.7113 N   0  0  0  0  0  0  0  0  0  0  0  0
    7.6032    1.8210    2.6777 C   0  0  0  0  0  0  0  0  0  0  0  0
    8.8600    2.1092    2.1420 C   0  0  0  0  0  0  0  0  0  0  0  0
    8.6214    2.7283    0.8741 C   0  0  0  0  0  0  0  0  0  0  0  0
    9.6449    3.2288   -0.0819 C   0  0  0  0  0  0  0  0  0  0  0  0
   10.8462    3.1455    0.1759 O   0  0  0  0  0  0  0  0  0  0  0  0
    9.1424    3.7888   -1.2421 N   0  0  0  0  0  0  0  0  0  0  0  0
   10.0331    4.2824   -2.2347 N   0  0  0  0  0  0  0  0  0  0  0  0
    9.9871    3.4784   -3.4610 C   0  0  0  0  0  0  0  0  0  0  0  0
   11.0251    3.9532   -4.4833 C   0  0  0  0  0  0  0  0  0  0  0  0
   10.8718    5.4392   -4.7880 C   0  0  0  0  0  0  0  0  0  0  0  0
   10.8662    6.2479   -3.4955 C   0  0  0  0  0  0  0  0  0  0  0  0
    9.8326    5.7113   -2.4986 C   0  0  0  0  0  0  0  0  0  0  0  0
    7.3102    2.8114    0.6219 N   0  0  0  0  0  0  0  0  0  0  0  0
   10.2150    1.8469    2.7042 C   0  0  0  0  0  0  0  0  0  0  0  0
    7.2441    1.2196    3.9836 C   0  0  0  0  0  0  0  0  0  0  0  0
    8.0039    1.4778    5.1383 C   0  0  0  0  0  0  0  0  0  0  0  0
    7.6432    0.9542    6.3871 C   0  0  0  0  0  0  0  0  0  0  0  0
    6.4950    0.1815    6.5038 C   0  0  0  0  0  0  0  0  0  0  0  0
    5.7386   -0.1118    5.3777 C   0  0  0  0  0  0  0  0  0  0  0  0
    6.1315    0.3810    4.1296 C   0  0  0  0  0  0  0  0  0  0  0  0
    5.9375   -0.4409    8.1964 Br  0  0  0  0  0  0  0  0  0  0  0  0
    0.5619    4.0769   -1.5395 H   0  0  0  0  0  0  0  0  0  0  0  0
    0.5649    4.1732    0.2285 H   0  0  0  0  0  0  0  0  0  0  0  0
    0.5337    2.5907   -0.5773 H   0  0  0  0  0  0  0  0  0  0  0  0
    2.8305    4.6137   -0.7266 H   0  0  0  0  0  0  0  0  0  0  0  0
    2.7992    3.0509   -1.5422 H   0  0  0  0  0  0  0  0  0  0  0  0
    2.6898    1.8891    0.6806 H   0  0  0  0  0  0  0  0  0  0  0  0
    2.7161    3.4539    1.5009 H   0  0  0  0  0  0  0  0  0  0  0  0
    4.9303    3.9683    0.4505 H   0  0  0  0  0  0  0  0  0  0  0  0
    4.9030    2.3998   -0.3615 H   0  0  0  0  0  0  0  0  0  0  0  0
    4.9021    1.2550    1.8224 H   0  0  0  0  0  0  0  0  0  0  0  0
    4.9646    2.8187    2.6846 H   0  0  0  0  0  0  0  0  0  0  0  0
    8.1325    3.8122   -1.3612 H   0  0  0  0  0  0  0  0  0  0  0  0
    8.9859    3.5194   -3.9076 H   0  0  0  0  0  0  0  0  0  0  0  0
   10.1969    2.4281   -3.2245 H   0  0  0  0  0  0  0  0  0  0  0  0
   10.9243    3.3762   -5.4098 H   0  0  0  0  0  0  0  0  0  0  0  0
   12.0362    3.7643   -4.0999 H   0  0  0  0  0  0  0  0  0  0  0  0
    9.9347    5.6084   -5.3322 H   0  0  0  0  0  0  0  0  0  0  0  0
   11.6861    5.7762   -5.4401 H   0  0  0  0  0  0  0  0  0  0  0  0
   10.6530    7.2991   -3.7213 H   0  0  0  0  0  0  0  0  0  0  0  0
   11.8666    6.2164   -3.0445 H   0  0  0  0  0  0  0  0  0  0  0  0
    9.9318    6.2783   -1.5652 H   0  0  0  0  0  0  0  0  0  0  0  0
    8.8218    5.8910   -2.8851 H   0  0  0  0  0  0  0  0  0  0  0  0
   10.1940    1.3242    3.6598 H   0  0  0  0  0  0  0  0  0  0  0  0
   10.7539    2.7894    2.8520 H   0  0  0  0  0  0  0  0  0  0  0  0
   10.7891    1.2125    2.0227 H   0  0  0  0  0  0  0  0  0  0  0  0
    8.8849    2.1136    5.1013 H   0  0  0  0  0  0  0  0  0  0  0  0
    8.2490    1.1833    7.2598 H   0  0  0  0  0  0  0  0  0  0  0  0
    4.8362   -0.7123    5.4503 H   0  0  0  0  0  0  0  0  0  0  0  0
    5.5347    0.0842    3.2778 H   0  0  0  0  0  0  0  0  0  0  0  0
  1  2  1  0  0  0  0
  1 28  1  0  0  0  0
  1 29  1  0  0  0  0
  1 30  1  0  0  0  0
  2  3  1  0  0  0  0
  2 31  1  0  0  0  0
  2 32  1  0  0  0  0
  3  4  1  0  0  0  0
  3 33  1  0  0  0  0
  3 34  1  0  0  0  0
  4  5  1  0  0  0  0
  4 35  1  0  0  0  0
  4 36  1  0  0  0  0
  5  6  1  0  0  0  0
  5 37  1  0  0  0  0
  5 38  1  0  0  0  0
  6 19  1  0  0  0  0
  6  7  1  0  0  0  0
  7  8  2  0  0  0  0
  7 21  1  0  0  0  0
  8  9  1  0  0  0  0
  8 20  1  0  0  0  0
  9 10  1  0  0  0  0
  9 19  2  0  0  0  0
 10 11  2  0  0  0  0
 10 12  1  0  0  0  0
 12 13  1  0  0  0  0
 12 39  1  0  0  0  0
 13 18  1  0  0  0  0
 13 14  1  0  0  0  0
 14 15  1  0  0  0  0
 14 40  1  0  0  0  0
 14 41  1  0  0  0  0
 15 16  1  0  0  0  0
 15 42  1  0  0  0  0
 15 43  1  0  0  0  0
 16 17  1  0  0  0  0
 16 44  1  0  0  0  0
 16 45  1  0  0  0  0
 17 18  1  0  0  0  0
 17 46  1  0  0  0  0
 17 47  1  0  0  0  0
 18 48  1  0  0  0  0
 18 49  1  0  0  0  0
 20 50  1  0  0  0  0
 20 51  1  0  0  0  0
 20 52  1  0  0  0  0
 21 26  2  0  0  0  0
 21 22  1  0  0  0  0
 22 23  2  0  0  0  0
 22 53  1  0  0  0  0
 23 24  1  0  0  0  0
 23 54  1  0  0  0  0
 24 25  2  0  0  0  0
 24 27  1  0  0  0  0
 25 26  1  0  0  0  0
 25 55  1  0  0  0  0
 26 56  1  0  0  0  0
M  END
$$$$
CHEMBL1668395
 OpenBabel12022417453D

 67 70  0  0  0  0  0  0  0  0999 V2000
   12.4798   -0.0641   -6.2158 C   0  0  0  0  0  0  0  0  0  0  0  0
   11.9900    0.7245   -5.0118 C   0  0  0  0  0  0  0  0  0  0  0  0
   10.5311    0.3852   -4.6915 C   0  0  0  0  0  0  0  0  0  0  0  0
   10.0515    1.0871   -3.4252 C   0  0  0  0  0  0  0  0  0  0  0  0
    8.6381    0.6764   -2.9686 C   0  0  0  0  0  0  0  0  0  0  0  0
    8.3905   -0.7743   -2.8330 N   0  0  0  0  0  0  0  0  0  0  0  0
    8.9441   -1.6343   -1.9076 C   0  0  0  0  0  0  0  0  0  0  0  0
    9.8431   -1.0959   -0.8285 C   0  0  0  0  0  0  0  0  0  0  0  0
    8.5769   -2.9769   -2.2383 C   0  0  0  0  0  0  0  0  0  0  0  0
    9.3953   -4.1785   -1.8020 C   0  0  0  0  0  0  0  0  0  0  0  0
   10.5960   -3.8783   -1.6706 O   0  0  0  0  0  0  0  0  0  0  0  0
    9.1110   -5.6550   -1.2650 C   0  0  0  0  0  0  0  0  0  0  0  0
   10.0118   -5.8096   -0.1800 C   0  0  0  0  0  0  0  0  0  0  0  0
    9.8383   -6.8040    0.7368 C   0  0  0  0  0  0  0  0  0  0  0  0
    8.4963   -6.9914    0.9481 C   0  0  0  0  0  0  0  0  0  0  0  0
    7.9680   -6.8230    2.3306 C   0  0  0  0  0  0  0  0  0  0  0  0
    8.5563   -7.8686    3.2554 C   0  0  0  0  0  0  0  0  0  0  0  0
    7.9114   -7.7621    4.6245 C   0  0  0  0  0  0  0  0  0  0  0  0
    8.5901   -8.7173    5.5790 C   0  0  0  0  0  0  0  0  0  0  0  0
    7.7427   -7.3368   -0.1509 C   0  0  0  0  0  0  0  0  0  0  0  0
    6.8147   -8.3618    0.0782 C   0  0  0  0  0  0  0  0  0  0  0  0
    6.5788   -9.3160   -0.8822 C   0  0  0  0  0  0  0  0  0  0  0  0
    7.2542   -9.1952   -2.0828 C   0  0  0  0  0  0  0  0  0  0  0  0
    7.3081  -10.5273   -2.8726 C   0  0  0  0  0  0  0  0  0  0  0  0
    7.9614   -7.9658   -2.3985 C   0  0  0  0  0  0  0  0  0  0  0  0
    8.2051   -6.8676   -1.4084 C   0  0  0  0  0  0  0  0  0  0  0  0
    7.4938   -2.8156   -3.1789 C   0  0  0  0  0  0  0  0  0  0  0  0
    6.5717   -3.6945   -3.8085 C   0  0  0  0  0  0  0  0  0  0  0  0
    5.6722   -3.2037   -4.7698 C   0  0  0  0  0  0  0  0  0  0  0  0
    5.6872   -1.8769   -5.1546 C   0  0  0  0  0  0  0  0  0  0  0  0
    6.5709   -0.9805   -4.5613 C   0  0  0  0  0  0  0  0  0  0  0  0
    7.4343   -1.4572   -3.5621 C   0  0  0  0  0  0  0  0  0  0  0  0
   13.5273    0.1717   -6.4273 H   0  0  0  0  0  0  0  0  0  0  0  0
   11.8891    0.1702   -7.1071 H   0  0  0  0  0  0  0  0  0  0  0  0
   12.4068   -1.1406   -6.0292 H   0  0  0  0  0  0  0  0  0  0  0  0
   12.0944    1.8001   -5.2128 H   0  0  0  0  0  0  0  0  0  0  0  0
   12.6250    0.4929   -4.1498 H   0  0  0  0  0  0  0  0  0  0  0  0
   10.4432   -0.7073   -4.5811 H   0  0  0  0  0  0  0  0  0  0  0  0
    9.8880    0.6664   -5.5350 H   0  0  0  0  0  0  0  0  0  0  0  0
   10.0509    2.1796   -3.6066 H   0  0  0  0  0  0  0  0  0  0  0  0
   10.7778    0.9340   -2.6186 H   0  0  0  0  0  0  0  0  0  0  0  0
    7.9307    1.0920   -3.6888 H   0  0  0  0  0  0  0  0  0  0  0  0
    8.3973    1.1423   -2.0142 H   0  0  0  0  0  0  0  0  0  0  0  0
    9.8884   -0.0006   -0.8228 H   0  0  0  0  0  0  0  0  0  0  0  0
   10.8697   -1.4499   -0.9302 H   0  0  0  0  0  0  0  0  0  0  0  0
    9.4540   -1.3636    0.1579 H   0  0  0  0  0  0  0  0  0  0  0  0
   10.7469   -5.0611    0.1105 H   0  0  0  0  0  0  0  0  0  0  0  0
   10.3706   -7.7307    0.4178 H   0  0  0  0  0  0  0  0  0  0  0  0
    6.8746   -6.8484    2.3309 H   0  0  0  0  0  0  0  0  0  0  0  0
    8.2406   -5.8137    2.6640 H   0  0  0  0  0  0  0  0  0  0  0  0
    9.6423   -7.7282    3.3413 H   0  0  0  0  0  0  0  0  0  0  0  0
    8.4043   -8.8767    2.8466 H   0  0  0  0  0  0  0  0  0  0  0  0
    6.8437   -7.9962    4.5495 H   0  0  0  0  0  0  0  0  0  0  0  0
    7.9965   -6.7329    4.9964 H   0  0  0  0  0  0  0  0  0  0  0  0
    8.5130   -9.7463    5.2125 H   0  0  0  0  0  0  0  0  0  0  0  0
    8.1266   -8.6614    6.5663 H   0  0  0  0  0  0  0  0  0  0  0  0
    9.6516   -8.4681    5.6772 H   0  0  0  0  0  0  0  0  0  0  0  0
    6.4797   -8.6123    1.0819 H   0  0  0  0  0  0  0  0  0  0  0  0
    6.0356  -10.2130   -0.5941 H   0  0  0  0  0  0  0  0  0  0  0  0
    6.9354  -11.3553   -2.2236 H   0  0  0  0  0  0  0  0  0  0  0  0
    8.3228  -10.8116   -3.1336 H   0  0  0  0  0  0  0  0  0  0  0  0
    6.6436  -10.5150   -3.7338 H   0  0  0  0  0  0  0  0  0  0  0  0
    8.5094   -7.9457   -3.3425 H   0  0  0  0  0  0  0  0  0  0  0  0
    6.5666   -4.7510   -3.5382 H   0  0  0  0  0  0  0  0  0  0  0  0
    4.9778   -3.8845   -5.2248 H   0  0  0  0  0  0  0  0  0  0  0  0
    5.0035   -1.5221   -5.9247 H   0  0  0  0  0  0  0  0  0  0  0  0
    6.5622    0.0622   -4.8792 H   0  0  0  0  0  0  0  0  0  0  0  0
  1  2  1  0  0  0  0
  1 33  1  0  0  0  0
  1 34  1  0  0  0  0
  1 35  1  0  0  0  0
  2  3  1  0  0  0  0
  2 36  1  0  0  0  0
  2 37  1  0  0  0  0
  3  4  1  0  0  0  0
  3 38  1  0  0  0  0
  3 39  1  0  0  0  0
  4  5  1  0  0  0  0
  4 40  1  0  0  0  0
  4 41  1  0  0  0  0
  5  6  1  0  0  0  0
  5 42  1  0  0  0  0
  5 43  1  0  0  0  0
  6 32  1  0  0  0  0
  6  7  1  0  0  0  0
  7  8  1  0  0  0  0
  7  9  2  0  0  0  0
  8 44  1  0  0  0  0
  8 45  1  0  0  0  0
  8 46  1  0  0  0  0
  9 10  1  0  0  0  0
  9 27  1  0  0  0  0
 10 11  2  0  0  0  0
 10 12  1  0  0  0  0
 12 26  2  0  0  0  0
 12 13  1  0  0  0  0
 13 14  2  0  0  0  0
 13 47  1  0  0  0  0
 14 15  1  0  0  0  0
 14 48  1  0  0  0  0
 15 16  1  0  0  0  0
 15 20  2  0  0  0  0
 16 17  1  0  0  0  0
 16 49  1  0  0  0  0
 16 50  1  0  0  0  0
 17 18  1  0  0  0  0
 17 51  1  0  0  0  0
 17 52  1  0  0  0  0
 18 19  1  0  0  0  0
 18 53  1  0  0  0  0
 18 54  1  0  0  0  0
 19 55  1  0  0  0  0
 19 56  1  0  0  0  0
 19 57  1  0  0  0  0
 20 26  1  0  0  0  0
 20 21  1  0  0  0  0
 21 22  2  0  0  0  0
 21 58  1  0  0  0  0
 22 23  1  0  0  0  0
 22 59  1  0  0  0  0
 23 24  1  0  0  0  0
 23 25  2  0  0  0  0
 24 60  1  0  0  0  0
 24 61  1  0  0  0  0
 24 62  1  0  0  0  0
 25 26  1  0  0  0  0
 25 63  1  0  0  0  0
 27 32  2  0  0  0  0
 27 28  1  0  0  0  0
 28 29  2  0  0  0  0
 28 64  1  0  0  0  0
 29 30  1  0  0  0  0
 29 65  1  0  0  0  0
 30 31  2  0  0  0  0
 30 66  1  0  0  0  0
 31 32  1  0  0  0  0
 31 67  1  0  0  0  0
M  END
$$$$
CHEMBL218649
 OpenBabel12022418123D

 58 60  0  0  1  0  0  0  0  0999 V2000
    1.2350   -1.0370   -2.3990 C   0  0  0  0  0  0  0  0  0  0  0  0
    2.7220   -1.3440   -2.1240 C   0  0  2  0  0  0  0  0  0  0  0  0
    2.8850   -2.3850   -2.4280 H   0  0  0  0  0  0  0  0  0  0  0  0
    2.9890   -1.2430   -0.5740 C   0  0  2  0  0  0  0  0  0  0  0  0
    2.5270   -0.3070   -0.2250 H   0  0  0  0  0  0  0  0  0  0  0  0
    4.4490   -1.2500   -0.0660 C   0  0  0  0  0  0  0  0  0  0  0  0
    5.3960   -0.2260   -0.6040 C   0  0  0  0  0  0  0  0  0  0  0  0
    5.2990    1.1170   -0.2290 C   0  0  0  0  0  0  0  0  0  0  0  0
    6.2190    2.0400   -0.7300 C   0  0  0  0  0  0  0  0  0  0  0  0
    7.2340    1.6140   -1.5830 C   0  0  0  0  0  0  0  0  0  0  0  0
    7.3290    0.2760   -1.9650 C   0  0  0  0  0  0  0  0  0  0  0  0
    6.4080   -0.6410   -1.4810 C   0  0  0  0  0  0  0  0  0  0  0  0
    8.3870    2.7390   -2.1880 Cl  0  0  0  0  0  0  0  0  0  0  0  0
    2.3470   -2.4250    0.2040 C   0  0  0  0  0  0  0  0  0  0  0  0
    2.7730   -3.7520   -0.0190 C   0  0  0  0  0  0  0  0  0  0  0  0
    2.3880   -4.7900    0.8330 C   0  0  0  0  0  0  0  0  0  0  0  0
    1.5460   -4.5280    1.9080 C   0  0  0  0  0  0  0  0  0  0  0  0
    1.0760   -3.2320    2.1180 C   0  0  0  0  0  0  0  0  0  0  0  0
    1.4740   -2.1860    1.2750 C   0  0  0  0  0  0  0  0  0  0  0  0
    3.5710   -0.5840   -3.0810 N   0  0  0  0  0  0  0  0  0  0  0  0
    3.5790    0.8020   -3.2310 C   0  0  0  0  0  0  0  0  0  0  0  0
    3.0100    1.5150   -2.4010 O   0  0  0  0  0  0  0  0  0  0  0  0
    4.2190    1.3990   -4.5610 C   0  0  0  0  0  0  0  0  0  0  0  0
    5.6220    0.8460   -4.8600 C   0  0  0  0  0  0  0  0  0  0  0  0
    3.2850    1.0120   -5.7200 C   0  0  0  0  0  0  0  0  0  0  0  0
    4.1860    2.8470   -4.3950 O   0  0  0  0  0  0  0  0  0  0  0  0
    5.1090    3.6210   -5.0390 C   0  0  0  0  0  0  0  0  0  0  0  0
    5.1250    3.7770   -6.4220 C   0  0  0  0  0  0  0  0  0  0  0  0
    6.1100    4.5630   -7.0300 C   0  0  0  0  0  0  0  0  0  0  0  0
    7.0560    5.2220   -6.2460 C   0  0  0  0  0  0  0  0  0  0  0  0
    6.9950    5.1370   -4.8580 C   0  0  0  0  0  0  0  0  0  0  0  0
    6.0060    4.3510   -4.2560 C   0  0  0  0  0  0  0  0  0  0  0  0
    8.2950    6.1470   -7.0000 Cl  0  0  0  0  0  0  0  0  0  0  0  0
    0.9790   -0.0090   -2.1190 H   0  0  0  0  0  0  0  0  0  0  0  0
    0.5730   -1.7010   -1.8330 H   0  0  0  0  0  0  0  0  0  0  0  0
    0.9980   -1.1570   -3.4620 H   0  0  0  0  0  0  0  0  0  0  0  0
    4.9050   -2.2400   -0.2040 H   0  0  0  0  0  0  0  0  0  0  0  0
    4.4370   -1.1170    1.0280 H   0  0  0  0  0  0  0  0  0  0  0  0
    4.4980    1.4560    0.4230 H   0  0  0  0  0  0  0  0  0  0  0  0
    6.1210    3.0890   -0.4640 H   0  0  0  0  0  0  0  0  0  0  0  0
    8.0970   -0.0500   -2.6600 H   0  0  0  0  0  0  0  0  0  0  0  0
    6.4720   -1.6830   -1.7920 H   0  0  0  0  0  0  0  0  0  0  0  0
    3.4710   -3.9840   -0.8210 H   0  0  0  0  0  0  0  0  0  0  0  0
    2.7730   -5.7950    0.6770 H   0  0  0  0  0  0  0  0  0  0  0  0
    1.2680   -5.3290    2.5890 H   0  0  0  0  0  0  0  0  0  0  0  0
    0.4210   -3.0300    2.9630 H   0  0  0  0  0  0  0  0  0  0  0  0
    1.1290   -1.1780    1.4940 H   0  0  0  0  0  0  0  0  0  0  0  0
    3.9750   -1.1310   -3.8310 H   0  0  0  0  0  0  0  0  0  0  0  0
    5.6770   -0.2430   -4.7830 H   0  0  0  0  0  0  0  0  0  0  0  0
    6.3710    1.2830   -4.2030 H   0  0  0  0  0  0  0  0  0  0  0  0
    5.9440    1.1030   -5.8780 H   0  0  0  0  0  0  0  0  0  0  0  0
    3.1300   -0.0690   -5.7750 H   0  0  0  0  0  0  0  0  0  0  0  0
    3.6920    1.3210   -6.6880 H   0  0  0  0  0  0  0  0  0  0  0  0
    2.3110    1.5010   -5.6160 H   0  0  0  0  0  0  0  0  0  0  0  0
    4.3720    3.3100   -7.0450 H   0  0  0  0  0  0  0  0  0  0  0  0
    6.1310    4.6600   -8.1120 H   0  0  0  0  0  0  0  0  0  0  0  0
    7.7120    5.6720   -4.2400 H   0  0  0  0  0  0  0  0  0  0  0  0
    5.9480    4.2970   -3.1720 H   0  0  0  0  0  0  0  0  0  0  0  0
  1  2  1  0  0  0  0
  1 34  1  0  0  0  0
  1 35  1  0  0  0  0
  1 36  1  0  0  0  0
  2 20  1  0  0  0  0
  2  4  1  0  0  0  0
  2  3  1  6  0  0  0
  4  6  1  0  0  0  0
  4 14  1  0  0  0  0
  4  5  1  1  0  0  0
  6  7  1  0  0  0  0
  6 37  1  0  0  0  0
  6 38  1  0  0  0  0
  7  8  2  0  0  0  0
  7 12  1  0  0  0  0
  8  9  1  0  0  0  0
  8 39  1  0  0  0  0
  9 10  2  0  0  0  0
  9 40  1  0  0  0  0
 10 11  1  0  0  0  0
 10 13  1  0  0  0  0
 11 12  2  0  0  0  0
 11 41  1  0  0  0  0
 12 42  1  0  0  0  0
 14 15  2  0  0  0  0
 14 19  1  0  0  0  0
 15 16  1  0  0  0  0
 15 43  1  0  0  0  0
 16 17  2  0  0  0  0
 16 44  1  0  0  0  0
 17 18  1  0  0  0  0
 17 45  1  0  0  0  0
 18 19  2  0  0  0  0
 18 46  1  0  0  0  0
 19 47  1  0  0  0  0
 20 21  1  0  0  0  0
 20 48  1  0  0  0  0
 21 22  2  0  0  0  0
 21 23  1  0  0  0  0
 23 24  1  0  0  0  0
 23 25  1  0  0  0  0
 23 26  1  0  0  0  0
 24 49  1  0  0  0  0
 24 50  1  0  0  0  0
 24 51  1  0  0  0  0
 25 52  1  0  0  0  0
 25 53  1  0  0  0  0
 25 54  1  0  0  0  0
 26 27  1  0  0  0  0
 27 28  2  0  0  0  0
 27 32  1  0  0  0  0
 28 29  1  0  0  0  0
 28 55  1  0  0  0  0
 29 30  2  0  0  0  0
 29 56  1  0  0  0  0
 30 31  1  0  0  0  0
 30 33  1  0  0  0  0
 31 32  2  0  0  0  0
 31 57  1  0  0  0  0
 32 58  1  0  0  0  0
M  END
$$$$
CHEMBL258753
 OpenBabel12022418123D

 52 56  0  0  1  0  0  0  0  0999 V2000
    1.1860    0.0810    0.2750 O   0  0  0  0  0  0  0  0  0  0  0  0
    2.3640   -0.1780    0.1330 C   0  0  0  0  0  0  0  0  0  0  0  0
    3.1420   -0.8180    1.2390 C   0  0  2  0  0  0  0  0  0  0  0  0
    3.0110   -0.4010    2.5840 C   0  0  0  0  0  0  0  0  0  0  0  0
    4.1150   -0.5710    3.4360 C   0  0  2  0  0  0  0  0  0  0  0  0
    4.4180    0.0990    4.6030 O   0  0  0  0  0  0  0  0  0  0  0  0
    5.2410    1.1620    4.0440 C   0  0  1  0  0  0  0  0  0  0  0  0
    5.8560    0.5900    2.8160 O   0  0  0  0  0  0  0  0  0  0  0  0
    5.3100   -0.7430    2.7900 C   0  0  2  0  0  0  0  0  0  0  0  0
    5.3780   -1.5330    1.6610 C   0  0  0  0  0  0  0  0  0  0  0  0
    4.2410   -1.5880    0.8850 C   0  0  0  0  0  0  0  0  0  0  0  0
    4.2240   -2.3610   -0.2110 F   0  0  0  0  0  0  0  0  0  0  0  0
    4.1160    2.2750    3.9010 C   0  0  0  0  0  0  0  0  0  0  0  0
    2.9660    2.1880    4.7550 C   0  0  0  0  0  0  0  0  0  0  0  0
    1.9160    3.1030    4.7070 C   0  0  0  0  0  0  0  0  0  0  0  0
    2.0380    4.1960    3.8720 C   0  0  0  0  0  0  0  0  0  0  0  0
    3.1730    4.3570    3.0730 C   0  0  0  0  0  0  0  0  0  0  0  0
    4.1910    3.3850    3.0460 C   0  0  0  0  0  0  0  0  0  0  0  0
    1.0720    5.1250    3.8630 F   0  0  0  0  0  0  0  0  0  0  0  0
    6.4520    1.6980    4.8810 C   0  0  0  0  0  0  0  0  0  0  0  0
    6.5570    3.0840    5.1970 C   0  0  0  0  0  0  0  0  0  0  0  0
    7.7160    3.6640    5.7290 C   0  0  0  0  0  0  0  0  0  0  0  0
    8.8160    2.8710    5.9790 C   0  0  0  0  0  0  0  0  0  0  0  0
    8.7540    1.5070    5.7360 C   0  0  0  0  0  0  0  0  0  0  0  0
    7.5840    0.9180    5.1960 C   0  0  0  0  0  0  0  0  0  0  0  0
    7.6720   -0.7860    4.9500 Cl  0  0  0  0  0  0  0  0  0  0  0  0
   10.2600    3.5810    6.5940 Cl  0  0  0  0  0  0  0  0  0  0  0  0
    3.1590    0.3140   -0.9170 N   0  0  0  0  0  0  0  0  0  0  0  0
    3.3120   -0.4260   -2.1690 C   0  0  0  0  0  0  0  0  0  0  0  0
    2.7000    0.3070   -3.3620 C   0  0  0  0  0  0  0  0  0  0  0  0
    3.1890    1.7540   -3.4410 C   0  0  0  0  0  0  0  0  0  0  0  0
    2.9150    2.4730   -2.1230 C   0  0  0  0  0  0  0  0  0  0  0  0
    3.5260    1.7260   -0.9360 C   0  0  0  0  0  0  0  0  0  0  0  0
    2.1750    0.2320    2.8710 H   0  0  0  0  0  0  0  0  0  0  0  0
    6.2140   -2.1930    1.4760 H   0  0  0  0  0  0  0  0  0  0  0  0
    2.8480    1.3630    5.4600 H   0  0  0  0  0  0  0  0  0  0  0  0
    1.0320    2.9650    5.3200 H   0  0  0  0  0  0  0  0  0  0  0  0
    3.2540    5.2600    2.4790 H   0  0  0  0  0  0  0  0  0  0  0  0
    5.0630    3.5460    2.4170 H   0  0  0  0  0  0  0  0  0  0  0  0
    5.7430    3.7810    5.0070 H   0  0  0  0  0  0  0  0  0  0  0  0
    7.7460    4.7400    5.9060 H   0  0  0  0  0  0  0  0  0  0  0  0
    9.6300    0.8900    5.9390 H   0  0  0  0  0  0  0  0  0  0  0  0
    2.8600   -1.4220   -2.0690 H   0  0  0  0  0  0  0  0  0  0  0  0
    4.3890   -0.5550   -2.3350 H   0  0  0  0  0  0  0  0  0  0  0  0
    1.6080    0.3040   -3.2700 H   0  0  0  0  0  0  0  0  0  0  0  0
    2.9500   -0.2160   -4.2900 H   0  0  0  0  0  0  0  0  0  0  0  0
    2.6850    2.2740   -4.2630 H   0  0  0  0  0  0  0  0  0  0  0  0
    4.2630    1.7740   -3.6580 H   0  0  0  0  0  0  0  0  0  0  0  0
    1.8300    2.5480   -1.9730 H   0  0  0  0  0  0  0  0  0  0  0  0
    3.3080    3.4940   -2.1660 H   0  0  0  0  0  0  0  0  0  0  0  0
    3.2510    2.2000   -0.0020 H   0  0  0  0  0  0  0  0  0  0  0  0
    4.6330    1.7550   -1.0170 H   0  0  0  0  0  0  0  0  0  0  0  0
  1  2  2  0  0  0  0
  2 28  1  0  0  0  0
  3  2  1  6  0  0  0
  3  4  1  0  0  0  0
  3 11  1  0  0  0  0
  4 34  1  0  0  0  0
  5  4  1  6  0  0  0
  5  6  1  0  0  0  0
  5  9  1  0  0  0  0
  6  7  1  0  0  0  0
  7  8  1  0  0  0  0
  7 13  1  6  0  0  0
  7 20  1  0  0  0  0
  9  8  1  6  0  0  0
  9 10  1  0  0  0  0
 10 11  2  0  0  0  0
 10 35  1  0  0  0  0
 11 12  1  0  0  0  0
 13 14  2  0  0  0  0
 13 18  1  0  0  0  0
 14 15  1  0  0  0  0
 14 36  1  0  0  0  0
 15 16  2  0  0  0  0
 15 37  1  0  0  0  0
 16 17  1  0  0  0  0
 16 19  1  0  0  0  0
 17 18  2  0  0  0  0
 17 38  1  0  0  0  0
 18 39  1  0  0  0  0
 20 21  2  0  0  0  0
 20 25  1  0  0  0  0
 21 22  1  0  0  0  0
 21 40  1  0  0  0  0
 22 23  2  0  0  0  0
 22 41  1  0  0  0  0
 23 24  1  0  0  0  0
 23 27  1  0  0  0  0
 24 25  2  0  0  0  0
 24 42  1  0  0  0  0
 25 26  1  0  0  0  0
 28 29  1  0  0  0  0
 28 33  1  0  0  0  0
 29 30  1  0  0  0  0
 29 43  1  0  0  0  0
 29 44  1  0  0  0  0
 30 31  1  0  0  0  0
 30 45  1  0  0  0  0
 30 46  1  0  0  0  0
 31 32  1  0  0  0  0
 31 47  1  0  0  0  0
 31 48  1  0  0  0  0
 32 33  1  0  0  0  0
 32 49  1  0  0  0  0
 32 50  1  0  0  0  0
 33 51  1  0  0  0  0
 33 52  1  0  0  0  0
M  END
$$$$
CHEMBL2206855
 OpenBabel12022417453D

 49 52  0  0  0  0  0  0  0  0999 V2000
    4.5672    6.1558    5.0082 C   0  0  0  0  0  0  0  0  0  0  0  0
    4.3262    4.6732    4.7634 C   0  0  0  0  0  0  0  0  0  0  0  0
    5.0827    4.1982    3.5212 C   0  0  0  0  0  0  0  0  0  0  0  0
    4.8997    2.7022    3.2664 C   0  0  0  0  0  0  0  0  0  0  0  0
    5.6196    2.2320    1.9940 C   0  0  0  0  0  0  0  0  0  0  0  0
    7.0785    2.1990    2.0747 N   0  0  0  0  0  0  0  0  0  0  0  0
    7.9406    3.1388    1.5376 C   0  0  0  0  0  0  0  0  0  0  0  0
    9.2698    2.7400    1.6901 C   0  0  0  0  0  0  0  0  0  0  0  0
   10.5978    3.3647    1.2702 C   0  0  0  0  0  0  0  0  0  0  0  0
   11.6204    2.7221    1.4876 O   0  0  0  0  0  0  0  0  0  0  0  0
   10.8051    4.7479    0.6038 C   0  0  0  0  0  0  0  0  0  0  0  0
    9.6980    5.5755    0.3848 C   0  0  0  0  0  0  0  0  0  0  0  0
    9.8168    6.8899   -0.0621 C   0  0  0  0  0  0  0  0  0  0  0  0
   11.0585    7.4083   -0.3552 C   0  0  0  0  0  0  0  0  0  0  0  0
   12.2040    6.6230   -0.2858 C   0  0  0  0  0  0  0  0  0  0  0  0
   13.4078    7.2091   -0.7369 C   0  0  0  0  0  0  0  0  0  0  0  0
   14.5886    6.4927   -0.7558 C   0  0  0  0  0  0  0  0  0  0  0  0
   14.5809    5.1939   -0.2725 C   0  0  0  0  0  0  0  0  0  0  0  0
   13.3904    4.6113    0.2079 C   0  0  0  0  0  0  0  0  0  0  0  0
   12.1249    5.2771    0.2036 C   0  0  0  0  0  0  0  0  0  0  0  0
   11.1277    8.6918   -0.7461 F   0  0  0  0  0  0  0  0  0  0  0  0
    9.1558    1.4531    2.3928 C   0  0  0  0  0  0  0  0  0  0  0  0
   10.0818    0.4927    2.8690 C   0  0  0  0  0  0  0  0  0  0  0  0
    9.6445   -0.6901    3.4923 C   0  0  0  0  0  0  0  0  0  0  0  0
    8.2915   -0.9486    3.6616 C   0  0  0  0  0  0  0  0  0  0  0  0
    7.3451   -0.0309    3.2147 C   0  0  0  0  0  0  0  0  0  0  0  0
    7.7952    1.1564    2.5950 C   0  0  0  0  0  0  0  0  0  0  0  0
    4.0266    6.4915    5.8984 H   0  0  0  0  0  0  0  0  0  0  0  0
    4.2259    6.7537    4.1568 H   0  0  0  0  0  0  0  0  0  0  0  0
    5.6325    6.3569    5.1619 H   0  0  0  0  0  0  0  0  0  0  0  0
    3.2506    4.4974    4.6429 H   0  0  0  0  0  0  0  0  0  0  0  0
    4.6512    4.1059    5.6432 H   0  0  0  0  0  0  0  0  0  0  0  0
    6.1478    4.4213    3.6431 H   0  0  0  0  0  0  0  0  0  0  0  0
    4.7287    4.7590    2.6476 H   0  0  0  0  0  0  0  0  0  0  0  0
    3.8271    2.4934    3.1534 H   0  0  0  0  0  0  0  0  0  0  0  0
    5.2391    2.1294    4.1384 H   0  0  0  0  0  0  0  0  0  0  0  0
    5.3412    2.8505    1.1344 H   0  0  0  0  0  0  0  0  0  0  0  0
    5.2910    1.2113    1.7583 H   0  0  0  0  0  0  0  0  0  0  0  0
    7.4642    3.9902    1.0864 H   0  0  0  0  0  0  0  0  0  0  0  0
    8.6922    5.2479    0.5449 H   0  0  0  0  0  0  0  0  0  0  0  0
    8.9383    7.5139   -0.1867 H   0  0  0  0  0  0  0  0  0  0  0  0
   13.4179    8.2350   -1.1085 H   0  0  0  0  0  0  0  0  0  0  0  0
   15.4970    6.9443   -1.1502 H   0  0  0  0  0  0  0  0  0  0  0  0
   15.5093    4.6247   -0.2828 H   0  0  0  0  0  0  0  0  0  0  0  0
   13.4787    3.5885    0.5701 H   0  0  0  0  0  0  0  0  0  0  0  0
   11.1480    0.6629    2.7515 H   0  0  0  0  0  0  0  0  0  0  0  0
   10.3761   -1.4144    3.8405 H   0  0  0  0  0  0  0  0  0  0  0  0
    7.9646   -1.8755    4.1282 H   0  0  0  0  0  0  0  0  0  0  0  0
    6.2865   -0.2418    3.3428 H   0  0  0  0  0  0  0  0  0  0  0  0
  1  2  1  0  0  0  0
  1 28  1  0  0  0  0
  1 29  1  0  0  0  0
  1 30  1  0  0  0  0
  2  3  1  0  0  0  0
  2 31  1  0  0  0  0
  2 32  1  0  0  0  0
  3  4  1  0  0  0  0
  3 33  1  0  0  0  0
  3 34  1  0  0  0  0
  4  5  1  0  0  0  0
  4 35  1  0  0  0  0
  4 36  1  0  0  0  0
  5  6  1  0  0  0  0
  5 37  1  0  0  0  0
  5 38  1  0  0  0  0
  6 27  1  0  0  0  0
  6  7  1  0  0  0  0
  7  8  2  0  0  0  0
  7 39  1  0  0  0  0
  8  9  1  0  0  0  0
  8 22  1  0  0  0  0
  9 10  2  0  0  0  0
  9 11  1  0  0  0  0
 11 20  2  0  0  0  0
 11 12  1  0  0  0  0
 12 13  2  0  0  0  0
 12 40  1  0  0  0  0
 13 14  1  0  0  0  0
 13 41  1  0  0  0  0
 14 15  2  0  0  0  0
 14 21  1  0  0  0  0
 15 20  1  0  0  0  0
 15 16  1  0  0  0  0
 16 17  2  0  0  0  0
 16 42  1  0  0  0  0
 17 18  1  0  0  0  0
 17 43  1  0  0  0  0
 18 19  2  0  0  0  0
 18 44  1  0  0  0  0
 19 20  1  0  0  0  0
 19 45  1  0  0  0  0
 22 27  2  0  0  0  0
 22 23  1  0  0  0  0
 23 24  2  0  0  0  0
 23 46  1  0  0  0  0
 24 25  1  0  0  0  0
 24 47  1  0  0  0  0
 25 26  2  0  0  0  0
 25 48  1  0  0  0  0
 26 27  1  0  0  0  0
 26 49  1  0  0  0  0
M  END
$$$$
CHEMBL3931943
 OpenBabel12022417453D

 53 55  0  0  0  0  0  0  0  0999 V2000
    3.5656   -0.3898   -5.9909 C   0  0  0  0  0  0  0  0  0  0  0  0
    3.0102   -1.6334   -5.3067 C   0  0  0  0  0  0  0  0  0  0  0  0
    3.1802   -1.6867   -3.7562 C   0  0  0  0  0  0  0  0  0  0  0  0
    2.5081   -0.4573   -3.0780 C   0  0  0  0  0  0  0  0  0  0  0  0
    1.0063   -0.3185   -3.3017 C   0  0  0  0  0  0  0  0  0  0  0  0
    2.5093   -3.0196   -3.2787 C   0  0  0  0  0  0  0  0  0  0  0  0
    2.0071   -3.8499   -4.0280 O   0  0  0  0  0  0  0  0  0  0  0  0
    2.5076   -3.2135   -1.9370 O   0  0  0  0  0  0  0  0  0  0  0  0
    4.6315   -1.7489   -3.4379 N   0  0  0  0  0  0  0  0  0  0  0  0
    5.1588   -1.7492   -2.1645 C   0  0  0  0  0  0  0  0  0  0  0  0
    4.4496   -1.7734   -1.1601 O   0  0  0  0  0  0  0  0  0  0  0  0
    6.6544   -1.7538   -2.0567 C   0  0  0  0  0  0  0  0  0  0  0  0
    7.2359   -1.8319   -0.8044 C   0  0  0  0  0  0  0  0  0  0  0  0
    8.6224   -1.7861   -0.7244 C   0  0  0  0  0  0  0  0  0  0  0  0
    9.4186   -1.6737   -1.8768 C   0  0  0  0  0  0  0  0  0  0  0  0
    8.7249   -1.6181   -3.1070 C   0  0  0  0  0  0  0  0  0  0  0  0
    9.4634   -1.4713   -4.4259 C   0  0  0  0  0  0  0  0  0  0  0  0
    9.7308   -2.7403   -5.2207 C   0  0  0  0  0  0  0  0  0  0  0  0
   10.7083   -2.7037   -6.2338 C   0  0  0  0  0  0  0  0  0  0  0  0
   10.8886   -3.7896   -7.0938 C   0  0  0  0  0  0  0  0  0  0  0  0
   10.0960   -4.9192   -6.9450 C   0  0  0  0  0  0  0  0  0  0  0  0
    9.1443   -4.9927   -5.9372 C   0  0  0  0  0  0  0  0  0  0  0  0
    8.9608   -3.9063   -5.0779 C   0  0  0  0  0  0  0  0  0  0  0  0
   10.2391   -5.9438   -7.7959 F   0  0  0  0  0  0  0  0  0  0  0  0
    7.3587   -1.6595   -3.2098 N   0  0  0  0  0  0  0  0  0  0  0  0
   10.9201   -1.5274   -1.7372 C   0  0  0  0  0  0  0  0  0  0  0  0
   11.7073   -2.4415   -0.8210 C   0  0  0  0  0  0  0  0  0  0  0  0
   11.8540   -2.5672   -2.3064 C   0  0  0  0  0  0  0  0  0  0  0  0
    3.4659   -0.4925   -7.0765 H   0  0  0  0  0  0  0  0  0  0  0  0
    4.6262   -0.2443   -5.7675 H   0  0  0  0  0  0  0  0  0  0  0  0
    3.0192    0.5121   -5.6998 H   0  0  0  0  0  0  0  0  0  0  0  0
    3.5003   -2.5082   -5.7541 H   0  0  0  0  0  0  0  0  0  0  0  0
    1.9492   -1.7227   -5.5740 H   0  0  0  0  0  0  0  0  0  0  0  0
    3.0042    0.4619   -3.4116 H   0  0  0  0  0  0  0  0  0  0  0  0
    2.6559   -0.4760   -1.9926 H   0  0  0  0  0  0  0  0  0  0  0  0
    0.7537   -0.2209   -4.3598 H   0  0  0  0  0  0  0  0  0  0  0  0
    0.6412    0.5803   -2.7923 H   0  0  0  0  0  0  0  0  0  0  0  0
    0.4633   -1.1730   -2.8868 H   0  0  0  0  0  0  0  0  0  0  0  0
    3.0596   -2.5512   -1.4538 H   0  0  0  0  0  0  0  0  0  0  0  0
    5.3046   -1.8093   -4.1931 H   0  0  0  0  0  0  0  0  0  0  0  0
    6.6312   -1.9070    0.0939 H   0  0  0  0  0  0  0  0  0  0  0  0
    9.0921   -1.8188    0.2572 H   0  0  0  0  0  0  0  0  0  0  0  0
   10.4018   -0.9294   -4.2661 H   0  0  0  0  0  0  0  0  0  0  0  0
    8.8551   -0.8220   -5.0690 H   0  0  0  0  0  0  0  0  0  0  0  0
   11.3183   -1.8139   -6.3785 H   0  0  0  0  0  0  0  0  0  0  0  0
   11.6238   -3.7522   -7.8912 H   0  0  0  0  0  0  0  0  0  0  0  0
    8.5329   -5.8843   -5.8400 H   0  0  0  0  0  0  0  0  0  0  0  0
    8.1883   -3.9791   -4.3157 H   0  0  0  0  0  0  0  0  0  0  0  0
   11.2732   -0.4962   -1.7606 H   0  0  0  0  0  0  0  0  0  0  0  0
   11.2036   -3.2469   -0.3013 H   0  0  0  0  0  0  0  0  0  0  0  0
   12.5358   -2.0140   -0.2663 H   0  0  0  0  0  0  0  0  0  0  0  0
   12.7763   -2.2203   -2.7585 H   0  0  0  0  0  0  0  0  0  0  0  0
   11.4413   -3.4549   -2.7715 H   0  0  0  0  0  0  0  0  0  0  0  0
  1  2  1  0  0  0  0
  1 29  1  0  0  0  0
  1 30  1  0  0  0  0
  1 31  1  0  0  0  0
  2  3  1  0  0  0  0
  2 32  1  0  0  0  0
  2 33  1  0  0  0  0
  3  4  1  0  0  0  0
  3  6  1  0  0  0  0
  3  9  1  0  0  0  0
  4  5  1  0  0  0  0
  4 34  1  0  0  0  0
  4 35  1  0  0  0  0
  5 36  1  0  0  0  0
  5 37  1  0  0  0  0
  5 38  1  0  0  0  0
  6  7  2  0  0  0  0
  6  8  1  0  0  0  0
  8 39  1  0  0  0  0
  9 10  1  0  0  0  0
  9 40  1  0  0  0  0
 10 11  2  0  0  0  0
 10 12  1  0  0  0  0
 12 25  2  0  0  0  0
 12 13  1  0  0  0  0
 13 14  2  0  0  0  0
 13 41  1  0  0  0  0
 14 15  1  0  0  0  0
 14 42  1  0  0  0  0
 15 16  2  0  0  0  0
 15 26  1  0  0  0  0
 16 17  1  0  0  0  0
 16 25  1  0  0  0  0
 17 18  1  0  0  0  0
 17 43  1  0  0  0  0
 17 44  1  0  0  0  0
 18 23  2  0  0  0  0
 18 19  1  0  0  0  0
 19 20  2  0  0  0  0
 19 45  1  0  0  0  0
 20 21  1  0  0  0  0
 20 46  1  0  0  0  0
 21 22  2  0  0  0  0
 21 24  1  0  0  0  0
 22 23  1  0  0  0  0
 22 47  1  0  0  0  0
 23 48  1  0  0  0  0
 26 28  1  0  0  0  0
 26 27  1  0  0  0  0
 26 49  1  0  0  0  0
 27 28  1  0  0  0  0
 27 50  1  0  0  0  0
 27 51  1  0  0  0  0
 28 52  1  0  0  0  0
 28 53  1  0  0  0  0
M  END
$$$$
CHEMBL306529
 OpenBabel12022417453D

 52 55  0  0  0  0  0  0  0  0999 V2000
    4.7012    1.4010    2.7354 C   0  0  0  0  0  0  0  0  0  0  0  0
    4.4800    0.8542    1.3330 C   0  0  0  0  0  0  0  0  0  0  0  0
    5.0355    1.8143    0.2700 C   0  0  0  0  0  0  0  0  0  0  0  0
    4.8201    1.2818   -1.1431 C   0  0  0  0  0  0  0  0  0  0  0  0
    5.3353    2.2091   -2.2768 C   0  0  0  0  0  0  0  0  0  0  0  0
    6.7680    2.5302   -2.3675 N   0  0  0  0  0  0  0  0  0  0  0  0
    7.3750    3.7850   -2.5219 C   0  0  0  0  0  0  0  0  0  0  0  0
    6.6159    5.0614   -2.3861 C   0  0  0  0  0  0  0  0  0  0  0  0
    8.7407    3.6163   -2.8408 C   0  0  0  0  0  0  0  0  0  0  0  0
    9.6942    4.7273   -3.4581 C   0  0  0  0  0  0  0  0  0  0  0  0
    9.7993    5.8480   -2.9758 O   0  0  0  0  0  0  0  0  0  0  0  0
   10.4017    4.4008   -4.8328 C   0  0  0  0  0  0  0  0  0  0  0  0
   10.0584    3.1064   -5.2530 C   0  0  0  0  0  0  0  0  0  0  0  0
   10.6532    2.5678   -6.3456 C   0  0  0  0  0  0  0  0  0  0  0  0
   10.4135    3.3967   -7.3906 C   0  0  0  0  0  0  0  0  0  0  0  0
   10.8574    4.7108   -7.2134 C   0  0  0  0  0  0  0  0  0  0  0  0
   11.1553    5.3679   -8.4161 C   0  0  0  0  0  0  0  0  0  0  0  0
   12.0468    6.4153   -8.4430 C   0  0  0  0  0  0  0  0  0  0  0  0
   12.5435    6.8678   -7.2298 C   0  0  0  0  0  0  0  0  0  0  0  0
   12.0337    6.3646   -5.9818 C   0  0  0  0  0  0  0  0  0  0  0  0
   11.1054    5.2163   -5.8930 C   0  0  0  0  0  0  0  0  0  0  0  0
    8.9742    2.1765   -2.6144 C   0  0  0  0  0  0  0  0  0  0  0  0
   10.1071    1.3180   -2.6084 C   0  0  0  0  0  0  0  0  0  0  0  0
    9.9588   -0.0834   -2.5255 C   0  0  0  0  0  0  0  0  0  0  0  0
    8.7030   -0.6789   -2.5203 C   0  0  0  0  0  0  0  0  0  0  0  0
    7.5772    0.1428   -2.5378 C   0  0  0  0  0  0  0  0  0  0  0  0
    7.7257    1.5392   -2.4914 C   0  0  0  0  0  0  0  0  0  0  0  0
    4.3192    0.7029    3.4877 H   0  0  0  0  0  0  0  0  0  0  0  0
    4.1843    2.3570    2.8679 H   0  0  0  0  0  0  0  0  0  0  0  0
    5.7671    1.5576    2.9290 H   0  0  0  0  0  0  0  0  0  0  0  0
    3.4066    0.6912    1.1787 H   0  0  0  0  0  0  0  0  0  0  0  0
    4.9663   -0.1258    1.2516 H   0  0  0  0  0  0  0  0  0  0  0  0
    6.1041    1.9686    0.4463 H   0  0  0  0  0  0  0  0  0  0  0  0
    4.5399    2.7849    0.3673 H   0  0  0  0  0  0  0  0  0  0  0  0
    3.7415    1.1357   -1.3010 H   0  0  0  0  0  0  0  0  0  0  0  0
    5.2439    0.2770   -1.2045 H   0  0  0  0  0  0  0  0  0  0  0  0
    4.7562    3.1305   -2.2460 H   0  0  0  0  0  0  0  0  0  0  0  0
    5.0895    1.7290   -3.2354 H   0  0  0  0  0  0  0  0  0  0  0  0
    5.5320    4.9311   -2.3526 H   0  0  0  0  0  0  0  0  0  0  0  0
    6.8290    5.7318   -3.2213 H   0  0  0  0  0  0  0  0  0  0  0  0
    6.9030    5.5534   -1.4503 H   0  0  0  0  0  0  0  0  0  0  0  0
    9.0676    2.7527   -5.0180 H   0  0  0  0  0  0  0  0  0  0  0  0
   11.7407    2.4305   -6.1921 H   0  0  0  0  0  0  0  0  0  0  0  0
   10.2379    2.9983   -8.3674 H   0  0  0  0  0  0  0  0  0  0  0  0
   10.7888    4.9690   -9.3628 H   0  0  0  0  0  0  0  0  0  0  0  0
   12.3935    6.7908   -9.4058 H   0  0  0  0  0  0  0  0  0  0  0  0
   13.3504    7.6030   -7.2704 H   0  0  0  0  0  0  0  0  0  0  0  0
   12.4797    6.7920   -5.0837 H   0  0  0  0  0  0  0  0  0  0  0  0
   11.1070    1.7308   -2.6709 H   0  0  0  0  0  0  0  0  0  0  0  0
   10.8333   -0.7281   -2.4955 H   0  0  0  0  0  0  0  0  0  0  0  0
    8.5858   -1.7464   -2.4913 H   0  0  0  0  0  0  0  0  0  0  0  0
    6.5877   -0.3533   -2.5523 H   0  0  0  0  0  0  0  0  0  0  0  0
  1  2  1  0  0  0  0
  1 28  1  0  0  0  0
  1 29  1  0  0  0  0
  1 30  1  0  0  0  0
  2  3  1  0  0  0  0
  2 31  1  0  0  0  0
  2 32  1  0  0  0  0
  3  4  1  0  0  0  0
  3 33  1  0  0  0  0
  3 34  1  0  0  0  0
  4  5  1  0  0  0  0
  4 35  1  0  0  0  0
  4 36  1  0  0  0  0
  5  6  1  0  0  0  0
  5 37  1  0  0  0  0
  5 38  1  0  0  0  0
  6 27  1  0  0  0  0
  6  7  1  0  0  0  0
  7  8  1  0  0  0  0
  7  9  2  0  0  0  0
  8 39  1  0  0  0  0
  8 40  1  0  0  0  0
  8 41  1  0  0  0  0
  9 10  1  0  0  0  0
  9 22  1  0  0  0  0
 10 11  2  0  0  0  0
 10 12  1  0  0  0  0
 12 21  2  0  0  0  0
 12 13  1  0  0  0  0
 13 14  2  0  0  0  0
 13 42  1  0  0  0  0
 14 15  1  0  0  0  0
 14 43  1  0  0  0  0
 15 16  2  0  0  0  0
 15 44  1  0  0  0  0
 16 21  1  0  0  0  0
 16 17  1  0  0  0  0
 17 18  2  0  0  0  0
 17 45  1  0  0  0  0
 18 19  1  0  0  0  0
 18 46  1  0  0  0  0
 19 20  2  0  0  0  0
 19 47  1  0  0  0  0
 20 21  1  0  0  0  0
 20 48  1  0  0  0  0
 22 27  2  0  0  0  0
 22 23  1  0  0  0  0
 23 24  2  0  0  0  0
 23 49  1  0  0  0  0
 24 25  1  0  0  0  0
 24 50  1  0  0  0  0
 25 26  2  0  0  0  0
 25 51  1  0  0  0  0
 26 27  1  0  0  0  0
 26 52  1  0  0  0  0
M  END
$$$$
CHEMBL1760657
 OpenBabel12022417453D

 55 58  0  0  0  0  0  0  0  0999 V2000
   -3.4246   -3.2952    3.2389 C   0  0  0  0  0  0  0  0  0  0  0  0
   -2.3173   -2.7724    2.4984 O   0  0  0  0  0  0  0  0  0  0  0  0
   -1.1109   -2.8194    3.1511 C   0  0  0  0  0  0  0  0  0  0  0  0
   -0.9919   -3.3490    4.4581 C   0  0  0  0  0  0  0  0  0  0  0  0
    0.2168   -3.3896    5.1413 C   0  0  0  0  0  0  0  0  0  0  0  0
    1.3746   -2.9210    4.5355 C   0  0  0  0  0  0  0  0  0  0  0  0
    2.6626   -2.9815    5.3415 C   0  0  0  0  0  0  0  0  0  0  0  0
    2.4723   -3.4264    6.6223 F   0  0  0  0  0  0  0  0  0  0  0  0
    3.5907   -3.8189    4.8064 F   0  0  0  0  0  0  0  0  0  0  0  0
    3.2673   -1.7697    5.4724 F   0  0  0  0  0  0  0  0  0  0  0  0
    1.2683   -2.3905    3.2187 C   0  0  0  0  0  0  0  0  0  0  0  0
    0.0208   -2.3051    2.4951 C   0  0  0  0  0  0  0  0  0  0  0  0
   -0.0060   -1.4808    1.1811 C   0  0  0  0  0  0  0  0  0  0  0  0
   -0.8836   -1.8297    0.0317 N   0  0  0  0  0  0  0  0  0  0  0  0
   -0.3900   -2.5849   -1.0347 C   0  0  0  0  0  0  0  0  0  0  0  0
   -0.7978   -3.9739   -1.2549 C   0  0  0  0  0  0  0  0  0  0  0  0
   -0.2274   -4.7353   -2.0218 O   0  0  0  0  0  0  0  0  0  0  0  0
   -1.9887   -4.2360   -0.6103 N   0  0  0  0  0  0  0  0  0  0  0  0
   -2.9113   -5.3152   -0.8177 C   0  0  0  0  0  0  0  0  0  0  0  0
   -3.8826   -5.1220   -1.9812 C   0  0  0  0  0  0  0  0  0  0  0  0
   -5.2736   -5.6473   -1.7077 C   0  0  0  0  0  0  0  0  0  0  0  0
   -5.1988   -7.0114   -1.3280 O   0  0  0  0  0  0  0  0  0  0  0  0
   -3.7925   -3.9546   -2.9513 C   0  0  0  0  0  0  0  0  0  0  0  0
   -3.3276   -5.3121   -3.3815 C   0  0  0  0  0  0  0  0  0  0  0  0
   -0.2181   -1.6030   -2.0284 C   0  0  0  0  0  0  0  0  0  0  0  0
   -1.4881   -0.9212   -1.9268 C   0  0  0  0  0  0  0  0  0  0  0  0
   -2.3805   -0.4272   -2.9234 C   0  0  0  0  0  0  0  0  0  0  0  0
   -3.7599   -0.4085   -2.6553 C   0  0  0  0  0  0  0  0  0  0  0  0
   -4.7139   -0.2058   -3.7249 C   0  0  0  0  0  0  0  0  0  0  0  0
   -5.4822   -0.0914   -4.5972 N   0  0  0  0  0  0  0  0  0  0  0  0
   -4.2064   -0.7499   -1.3724 C   0  0  0  0  0  0  0  0  0  0  0  0
   -3.3124   -1.0431   -0.3121 C   0  0  0  0  0  0  0  0  0  0  0  0
   -1.9356   -1.1335   -0.6027 C   0  0  0  0  0  0  0  0  0  0  0  0
   -4.3200   -3.2309    2.6190 H   0  0  0  0  0  0  0  0  0  0  0  0
   -3.6002   -2.6985    4.1429 H   0  0  0  0  0  0  0  0  0  0  0  0
   -3.2740   -4.3531    3.4913 H   0  0  0  0  0  0  0  0  0  0  0  0
   -1.8429   -3.7308    5.0154 H   0  0  0  0  0  0  0  0  0  0  0  0
    0.2337   -3.7829    6.1591 H   0  0  0  0  0  0  0  0  0  0  0  0
    2.1821   -2.0084    2.7589 H   0  0  0  0  0  0  0  0  0  0  0  0
    1.0081   -1.5652    0.7583 H   0  0  0  0  0  0  0  0  0  0  0  0
   -0.1757   -0.4263    1.4059 H   0  0  0  0  0  0  0  0  0  0  0  0
   -2.3796   -3.4904   -0.0609 H   0  0  0  0  0  0  0  0  0  0  0  0
   -3.4973   -5.3319    0.1122 H   0  0  0  0  0  0  0  0  0  0  0  0
   -2.3656   -6.2536   -0.9096 H   0  0  0  0  0  0  0  0  0  0  0  0
   -5.9270   -5.5708   -2.5855 H   0  0  0  0  0  0  0  0  0  0  0  0
   -5.7439   -5.0809   -0.8971 H   0  0  0  0  0  0  0  0  0  0  0  0
   -4.8229   -7.4872   -2.0892 H   0  0  0  0  0  0  0  0  0  0  0  0
   -3.0311   -3.2025   -2.8292 H   0  0  0  0  0  0  0  0  0  0  0  0
   -4.7061   -3.5722   -3.4009 H   0  0  0  0  0  0  0  0  0  0  0  0
   -3.9184   -5.8348   -4.1261 H   0  0  0  0  0  0  0  0  0  0  0  0
   -2.2567   -5.4419   -3.5061 H   0  0  0  0  0  0  0  0  0  0  0  0
    0.2611   -1.7612   -2.9901 H   0  0  0  0  0  0  0  0  0  0  0  0
   -2.0305   -0.3000   -3.9477 H   0  0  0  0  0  0  0  0  0  0  0  0
   -5.2781   -0.8770   -1.2007 H   0  0  0  0  0  0  0  0  0  0  0  0
   -3.7084   -1.4121    0.6289 H   0  0  0  0  0  0  0  0  0  0  0  0
  1  2  1  0  0  0  0
  1 34  1  0  0  0  0
  1 35  1  0  0  0  0
  1 36  1  0  0  0  0
  2  3  1  0  0  0  0
  3 12  2  0  0  0  0
  3  4  1  0  0  0  0
  4  5  2  0  0  0  0
  4 37  1  0  0  0  0
  5  6  1  0  0  0  0
  5 38  1  0  0  0  0
  6  7  1  0  0  0  0
  6 11  2  0  0  0  0
  7  8  1  0  0  0  0
  7  9  1  0  0  0  0
  7 10  1  0  0  0  0
 11 12  1  0  0  0  0
 11 39  1  0  0  0  0
 12 13  1  0  0  0  0
 13 14  1  0  0  0  0
 13 40  1  0  0  0  0
 13 41  1  0  0  0  0
 14 33  1  0  0  0  0
 14 15  1  0  0  0  0
 15 16  1  0  0  0  0
 15 25  2  0  0  0  0
 16 17  2  0  0  0  0
 16 18  1  0  0  0  0
 18 19  1  0  0  0  0
 18 42  1  0  0  0  0
 19 20  1  0  0  0  0
 19 43  1  0  0  0  0
 19 44  1  0  0  0  0
 20 24  1  0  0  0  0
 20 21  1  0  0  0  0
 20 23  1  0  0  0  0
 21 22  1  0  0  0  0
 21 45  1  0  0  0  0
 21 46  1  0  0  0  0
 22 47  1  0  0  0  0
 23 24  1  0  0  0  0
 23 48  1  0  0  0  0
 23 49  1  0  0  0  0
 24 50  1  0  0  0  0
 24 51  1  0  0  0  0
 25 26  1  0  0  0  0
 25 52  1  0  0  0  0
 26 33  2  0  0  0  0
 26 27  1  0  0  0  0
 27 28  2  0  0  0  0
 27 53  1  0  0  0  0
 28 29  1  0  0  0  0
 28 31  1  0  0  0  0
 29 30  3  0  0  0  0
 31 32  2  0  0  0  0
 31 54  1  0  0  0  0
 32 33  1  0  0  0  0
 32 55  1  0  0  0  0
M  END
$$$$
CHEMBL1760668
 OpenBabel12022417453D

 58 61  0  0  0  0  0  0  0  0999 V2000
    3.7966    0.4481    4.0813 C   0  0  0  0  0  0  0  0  0  0  0  0
    2.9017    0.0851    3.0095 O   0  0  0  0  0  0  0  0  0  0  0  0
    2.0695    1.1091    2.5833 C   0  0  0  0  0  0  0  0  0  0  0  0
    2.5078    2.4339    2.7106 C   0  0  0  0  0  0  0  0  0  0  0  0
    1.6483    3.4715    2.4296 C   0  0  0  0  0  0  0  0  0  0  0  0
    0.3417    3.2018    2.0058 C   0  0  0  0  0  0  0  0  0  0  0  0
   -0.5796    4.3862    1.8175 C   0  0  0  0  0  0  0  0  0  0  0  0
    0.0288    5.5850    2.0687 F   0  0  0  0  0  0  0  0  0  0  0  0
   -1.0644    4.4804    0.5525 F   0  0  0  0  0  0  0  0  0  0  0  0
   -1.6560    4.3467    2.6472 F   0  0  0  0  0  0  0  0  0  0  0  0
   -0.0755    1.8565    1.7570 C   0  0  0  0  0  0  0  0  0  0  0  0
    0.7880    0.7812    2.0041 C   0  0  0  0  0  0  0  0  0  0  0  0
    0.5776   -0.6679    1.5722 C   0  0  0  0  0  0  0  0  0  0  0  0
   -0.6464   -1.5028    1.1948 N   0  0  0  0  0  0  0  0  0  0  0  0
   -0.2092   -2.8544    1.0133 C   0  0  0  0  0  0  0  0  0  0  0  0
   -0.6123   -3.8821    1.9549 C   0  0  0  0  0  0  0  0  0  0  0  0
   -0.9212   -3.6172    3.1097 O   0  0  0  0  0  0  0  0  0  0  0  0
   -0.7448   -5.1506    1.4334 N   0  0  0  0  0  0  0  0  0  0  0  0
   -1.2514   -6.2456    2.2433 C   0  0  0  0  0  0  0  0  0  0  0  0
   -2.7823   -6.3628    2.2322 C   0  0  0  0  0  0  0  0  0  0  0  0
   -3.2361   -7.5365    3.1124 C   0  0  0  0  0  0  0  0  0  0  0  0
   -3.0461   -8.9345    2.4524 C   0  0  0  0  0  0  0  0  0  0  0  0
   -4.4008   -9.3463    3.0531 C   0  0  0  0  0  0  0  0  0  0  0  0
   -4.7645   -7.8498    3.1188 C   0  0  0  0  0  0  0  0  0  0  0  0
   -2.6686   -7.4115    4.4375 O   0  0  0  0  0  0  0  0  0  0  0  0
    0.1481   -2.7572   -0.3462 C   0  0  0  0  0  0  0  0  0  0  0  0
   -1.1028   -2.3482   -0.8716 C   0  0  0  0  0  0  0  0  0  0  0  0
   -1.8806   -2.7604   -1.9971 C   0  0  0  0  0  0  0  0  0  0  0  0
   -3.2760   -2.7039   -1.8997 C   0  0  0  0  0  0  0  0  0  0  0  0
   -4.0730   -3.3899   -2.8879 C   0  0  0  0  0  0  0  0  0  0  0  0
   -4.7292   -3.9894   -3.6688 N   0  0  0  0  0  0  0  0  0  0  0  0
   -3.8513   -2.1457   -0.7487 C   0  0  0  0  0  0  0  0  0  0  0  0
   -3.0626   -1.5375    0.2705 C   0  0  0  0  0  0  0  0  0  0  0  0
   -1.6469   -1.5665    0.1743 C   0  0  0  0  0  0  0  0  0  0  0  0
    4.2093   -0.4611    4.5272 H   0  0  0  0  0  0  0  0  0  0  0  0
    3.2795    1.0004    4.8783 H   0  0  0  0  0  0  0  0  0  0  0  0
    4.6466    1.0327    3.7066 H   0  0  0  0  0  0  0  0  0  0  0  0
    3.5126    2.6896    3.0316 H   0  0  0  0  0  0  0  0  0  0  0  0
    2.0048    4.4941    2.5654 H   0  0  0  0  0  0  0  0  0  0  0  0
   -1.0756    1.6768    1.3720 H   0  0  0  0  0  0  0  0  0  0  0  0
    0.8992   -1.2353    2.4610 H   0  0  0  0  0  0  0  0  0  0  0  0
    1.3117   -0.8484    0.7748 H   0  0  0  0  0  0  0  0  0  0  0  0
   -0.5531   -5.3028    0.4544 H   0  0  0  0  0  0  0  0  0  0  0  0
   -0.8971   -6.0975    3.2693 H   0  0  0  0  0  0  0  0  0  0  0  0
   -0.7925   -7.1649    1.8663 H   0  0  0  0  0  0  0  0  0  0  0  0
   -3.1359   -6.4971    1.2014 H   0  0  0  0  0  0  0  0  0  0  0  0
   -3.2374   -5.4318    2.5921 H   0  0  0  0  0  0  0  0  0  0  0  0
   -2.1874   -9.5137    2.8026 H   0  0  0  0  0  0  0  0  0  0  0  0
   -3.0406   -8.9262    1.3560 H   0  0  0  0  0  0  0  0  0  0  0  0
   -4.3146   -9.8263    4.0351 H   0  0  0  0  0  0  0  0  0  0  0  0
   -5.0371   -9.9631    2.4133 H   0  0  0  0  0  0  0  0  0  0  0  0
   -5.3167   -7.4850    2.2463 H   0  0  0  0  0  0  0  0  0  0  0  0
   -5.3055   -7.5592    4.0250 H   0  0  0  0  0  0  0  0  0  0  0  0
   -3.0214   -6.5747    4.7909 H   0  0  0  0  0  0  0  0  0  0  0  0
    0.9740   -3.2187   -0.8662 H   0  0  0  0  0  0  0  0  0  0  0  0
   -1.4252   -3.3422   -2.7984 H   0  0  0  0  0  0  0  0  0  0  0  0
   -4.9243   -2.2508   -0.5881 H   0  0  0  0  0  0  0  0  0  0  0  0
   -3.5452   -1.2382    1.2006 H   0  0  0  0  0  0  0  0  0  0  0  0
  1  2  1  0  0  0  0
  1 35  1  0  0  0  0
  1 36  1  0  0  0  0
  1 37  1  0  0  0  0
  2  3  1  0  0  0  0
  3 12  2  0  0  0  0
  3  4  1  0  0  0  0
  4  5  2  0  0  0  0
  4 38  1  0  0  0  0
  5  6  1  0  0  0  0
  5 39  1  0  0  0  0
  6  7  1  0  0  0  0
  6 11  2  0  0  0  0
  7  8  1  0  0  0  0
  7  9  1  0  0  0  0
  7 10  1  0  0  0  0
 11 12  1  0  0  0  0
 11 40  1  0  0  0  0
 12 13  1  0  0  0  0
 13 14  1  0  0  0  0
 13 41  1  0  0  0  0
 13 42  1  0  0  0  0
 14 34  1  0  0  0  0
 14 15  1  0  0  0  0
 15 16  1  0  0  0  0
 15 26  2  0  0  0  0
 16 17  2  0  0  0  0
 16 18  1  0  0  0  0
 18 19  1  0  0  0  0
 18 43  1  0  0  0  0
 19 20  1  0  0  0  0
 19 44  1  0  0  0  0
 19 45  1  0  0  0  0
 20 21  1  0  0  0  0
 20 46  1  0  0  0  0
 20 47  1  0  0  0  0
 21 24  1  0  0  0  0
 21 22  1  0  0  0  0
 21 25  1  0  0  0  0
 22 23  1  0  0  0  0
 22 48  1  0  0  0  0
 22 49  1  0  0  0  0
 23 24  1  0  0  0  0
 23 50  1  0  0  0  0
 23 51  1  0  0  0  0
 24 52  1  0  0  0  0
 24 53  1  0  0  0  0
 25 54  1  0  0  0  0
 26 27  1  0  0  0  0
 26 55  1  0  0  0  0
 27 34  2  0  0  0  0
 27 28  1  0  0  0  0
 28 29  2  0  0  0  0
 28 56  1  0  0  0  0
 29 30  1  0  0  0  0
 29 32  1  0  0  0  0
 30 31  3  0  0  0  0
 32 33  2  0  0  0  0
 32 57  1  0  0  0  0
 33 34  1  0  0  0  0
 33 58  1  0  0  0  0
M  END
$$$$
CHEMBL2206856
 OpenBabel12022417453D

 52 55  0  0  0  0  0  0  0  0999 V2000
    0.9908   -0.7466    0.6050 C   0  0  0  0  0  0  0  0  0  0  0  0
    2.5150   -0.7540    0.5879 C   0  0  0  0  0  0  0  0  0  0  0  0
    3.0926   -1.5436   -0.6026 C   0  0  0  0  0  0  0  0  0  0  0  0
    4.6401   -1.5087   -0.6141 C   0  0  0  0  0  0  0  0  0  0  0  0
    5.2854   -2.3076   -1.7851 C   0  0  0  0  0  0  0  0  0  0  0  0
    6.7680   -2.2250   -1.9332 N   0  0  0  0  0  0  0  0  0  0  0  0
    7.5354   -1.7271   -3.0107 C   0  0  0  0  0  0  0  0  0  0  0  0
    6.8577   -1.1380   -4.1928 C   0  0  0  0  0  0  0  0  0  0  0  0
    8.9641   -1.8837   -2.7923 C   0  0  0  0  0  0  0  0  0  0  0  0
   10.1023   -1.3507   -3.9395 C   0  0  0  0  0  0  0  0  0  0  0  0
    9.6388   -0.8143   -4.9513 O   0  0  0  0  0  0  0  0  0  0  0  0
   11.7617   -1.3974   -3.9800 C   0  0  0  0  0  0  0  0  0  0  0  0
   12.3077   -1.7581   -2.7587 C   0  0  0  0  0  0  0  0  0  0  0  0
   13.6236   -2.2251   -2.6393 C   0  0  0  0  0  0  0  0  0  0  0  0
   14.5765   -1.7522   -3.5077 C   0  0  0  0  0  0  0  0  0  0  0  0
   14.2390   -1.0434   -4.6450 C   0  0  0  0  0  0  0  0  0  0  0  0
   15.3991   -0.5348   -5.3330 C   0  0  0  0  0  0  0  0  0  0  0  0
   15.2800    0.2336   -6.4677 C   0  0  0  0  0  0  0  0  0  0  0  0
   13.9956    0.4754   -6.9310 C   0  0  0  0  0  0  0  0  0  0  0  0
   12.8271   -0.0630   -6.2506 C   0  0  0  0  0  0  0  0  0  0  0  0
   12.8394   -0.8417   -4.9975 C   0  0  0  0  0  0  0  0  0  0  0  0
   15.8630   -1.9107   -3.1440 F   0  0  0  0  0  0  0  0  0  0  0  0
    8.9573   -2.5508   -1.4429 C   0  0  0  0  0  0  0  0  0  0  0  0
    9.9414   -3.0127   -0.5281 C   0  0  0  0  0  0  0  0  0  0  0  0
    9.6108   -3.6206    0.7017 C   0  0  0  0  0  0  0  0  0  0  0  0
    8.2982   -3.8419    1.0754 C   0  0  0  0  0  0  0  0  0  0  0  0
    7.2779   -3.4262    0.2172 C   0  0  0  0  0  0  0  0  0  0  0  0
    7.6210   -2.7667   -0.9892 C   0  0  0  0  0  0  0  0  0  0  0  0
    0.6211   -0.1684    1.4603 H   0  0  0  0  0  0  0  0  0  0  0  0
    0.5900   -1.7616    0.6905 H   0  0  0  0  0  0  0  0  0  0  0  0
    0.5874   -0.2912   -0.3048 H   0  0  0  0  0  0  0  0  0  0  0  0
    2.8731   -1.1846    1.5308 H   0  0  0  0  0  0  0  0  0  0  0  0
    2.8704    0.2824    0.5519 H   0  0  0  0  0  0  0  0  0  0  0  0
    2.7016   -1.1198   -1.5352 H   0  0  0  0  0  0  0  0  0  0  0  0
    2.7337   -2.5799   -0.5443 H   0  0  0  0  0  0  0  0  0  0  0  0
    4.9735   -1.8979    0.3531 H   0  0  0  0  0  0  0  0  0  0  0  0
    4.9712   -0.4663   -0.6611 H   0  0  0  0  0  0  0  0  0  0  0  0
    4.8099   -1.9937   -2.7114 H   0  0  0  0  0  0  0  0  0  0  0  0
    5.0386   -3.3734   -1.6725 H   0  0  0  0  0  0  0  0  0  0  0  0
    5.7704   -1.1522   -4.1419 H   0  0  0  0  0  0  0  0  0  0  0  0
    7.1329   -1.6964   -5.0891 H   0  0  0  0  0  0  0  0  0  0  0  0
    7.1493   -0.0913   -4.2805 H   0  0  0  0  0  0  0  0  0  0  0  0
   12.2967   -0.8067   -2.1679 H   0  0  0  0  0  0  0  0  0  0  0  0
   13.9649   -2.6831   -1.7062 H   0  0  0  0  0  0  0  0  0  0  0  0
   16.3913   -0.7144   -4.9636 H   0  0  0  0  0  0  0  0  0  0  0  0
   16.1560    0.6395   -6.9758 H   0  0  0  0  0  0  0  0  0  0  0  0
   13.8977    1.1034   -7.8236 H   0  0  0  0  0  0  0  0  0  0  0  0
   11.8777    0.2066   -6.7111 H   0  0  0  0  0  0  0  0  0  0  0  0
   10.9891   -2.8857   -0.7443 H   0  0  0  0  0  0  0  0  0  0  0  0
   10.4012   -3.9474    1.3700 H   0  0  0  0  0  0  0  0  0  0  0  0
    8.0511   -4.3111    2.0254 H   0  0  0  0  0  0  0  0  0  0  0  0
    6.2472   -3.5987    0.5151 H   0  0  0  0  0  0  0  0  0  0  0  0
  1  2  1  0  0  0  0
  1 29  1  0  0  0  0
  1 30  1  0  0  0  0
  1 31  1  0  0  0  0
  2  3  1  0  0  0  0
  2 32  1  0  0  0  0
  2 33  1  0  0  0  0
  3  4  1  0  0  0  0
  3 34  1  0  0  0  0
  3 35  1  0  0  0  0
  4  5  1  0  0  0  0
  4 36  1  0  0  0  0
  4 37  1  0  0  0  0
  5  6  1  0  0  0  0
  5 38  1  0  0  0  0
  5 39  1  0  0  0  0
  6 28  1  0  0  0  0
  6  7  1  0  0  0  0
  7  8  1  0  0  0  0
  7  9  2  0  0  0  0
  8 40  1  0  0  0  0
  8 41  1  0  0  0  0
  8 42  1  0  0  0  0
  9 10  1  0  0  0  0
  9 23  1  0  0  0  0
 10 11  2  0  0  0  0
 10 12  1  0  0  0  0
 12 21  2  0  0  0  0
 12 13  1  0  0  0  0
 13 14  2  0  0  0  0
 13 43  1  0  0  0  0
 14 15  1  0  0  0  0
 14 44  1  0  0  0  0
 15 16  2  0  0  0  0
 15 22  1  0  0  0  0
 16 21  1  0  0  0  0
 16 17  1  0  0  0  0
 17 18  2  0  0  0  0
 17 45  1  0  0  0  0
 18 19  1  0  0  0  0
 18 46  1  0  0  0  0
 19 20  2  0  0  0  0
 19 47  1  0  0  0  0
 20 21  1  0  0  0  0
 20 48  1  0  0  0  0
 23 28  2  0  0  0  0
 23 24  1  0  0  0  0
 24 25  2  0  0  0  0
 24 49  1  0  0  0  0
 25 26  1  0  0  0  0
 25 50  1  0  0  0  0
 26 27  2  0  0  0  0
 26 51  1  0  0  0  0
 27 28  1  0  0  0  0
 27 52  1  0  0  0  0
M  END
$$$$
CHEMBL466110
 OpenBabel12022417453D

 53 57  0  0  0  0  0  0  0  0999 V2000
    2.4645   -0.7549    0.0717 C   0  0  0  0  0  0  0  0  0  0  0  0
    2.3582    0.6428   -0.0807 C   0  0  0  0  0  0  0  0  0  0  0  0
    3.5143    1.5690   -0.2666 C   0  0  0  0  0  0  0  0  0  0  0  0
    4.5671    1.2166   -1.1436 C   0  0  0  0  0  0  0  0  0  0  0  0
    5.6896    2.0293   -1.3292 C   0  0  0  0  0  0  0  0  0  0  0  0
    5.7627    3.2622   -0.6978 C   0  0  0  0  0  0  0  0  0  0  0  0
    4.7287    3.6632    0.1432 C   0  0  0  0  0  0  0  0  0  0  0  0
    3.6282    2.8216    0.3785 C   0  0  0  0  0  0  0  0  0  0  0  0
    2.4847    3.3935    1.5504 Cl  0  0  0  0  0  0  0  0  0  0  0  0
    1.1466    1.2787   -0.1452 N   0  0  0  0  0  0  0  0  0  0  0  0
   -0.0042    0.6078   -0.0590 C   0  0  0  0  0  0  0  0  0  0  0  0
    0.0142   -0.7695    0.0305 C   0  0  0  0  0  0  0  0  0  0  0  0
    1.2463   -1.4429    0.1024 C   0  0  0  0  0  0  0  0  0  0  0  0
   -1.2255   -1.3925    0.0472 C   0  0  0  0  0  0  0  0  0  0  0  0
   -2.3995   -0.7485    0.0358 N   0  0  0  0  0  0  0  0  0  0  0  0
   -2.3116    0.5923    0.0004 C   0  0  0  0  0  0  0  0  0  0  0  0
   -3.6068    1.3773    0.0338 C   0  0  0  0  0  0  0  0  0  0  0  0
   -3.7035    2.2333    1.2983 C   0  0  0  0  0  0  0  0  0  0  0  0
   -3.7638    2.2395   -1.2178 C   0  0  0  0  0  0  0  0  0  0  0  0
   -1.1544    1.2791   -0.0644 N   0  0  0  0  0  0  0  0  0  0  0  0
   -1.2216   -2.7660   -0.0479 O   0  0  0  0  0  0  0  0  0  0  0  0
   -2.3030   -3.4058    0.6291 C   0  0  0  0  0  0  0  0  0  0  0  0
   -1.8392   -4.7226    1.1605 C   0  0  0  0  0  0  0  0  0  0  0  0
   -2.3230   -5.8994    0.7342 N   0  0  0  0  0  0  0  0  0  0  0  0
   -1.5774   -6.8322    1.4626 O   0  0  0  0  0  0  0  0  0  0  0  0
   -0.7278   -6.1182    2.2439 C   0  0  0  0  0  0  0  0  0  0  0  0
   -0.8396   -4.8210    2.1041 N   0  0  0  0  0  0  0  0  0  0  0  0
    3.7189   -1.5425    0.1939 C   0  0  0  0  0  0  0  0  0  0  0  0
    4.7982   -1.1152    0.9869 C   0  0  0  0  0  0  0  0  0  0  0  0
    5.9863   -1.8521    1.0609 C   0  0  0  0  0  0  0  0  0  0  0  0
    6.0949   -3.0649    0.3897 C   0  0  0  0  0  0  0  0  0  0  0  0
    5.0329   -3.5384   -0.3704 C   0  0  0  0  0  0  0  0  0  0  0  0
    3.8647   -2.7766   -0.4778 C   0  0  0  0  0  0  0  0  0  0  0  0
    7.5437   -3.9834    0.5038 Cl  0  0  0  0  0  0  0  0  0  0  0  0
    4.5361    0.2737   -1.6872 H   0  0  0  0  0  0  0  0  0  0  0  0
    6.4998    1.6947   -1.9725 H   0  0  0  0  0  0  0  0  0  0  0  0
    6.6207    3.9099   -0.8578 H   0  0  0  0  0  0  0  0  0  0  0  0
    4.7874    4.6347    0.6292 H   0  0  0  0  0  0  0  0  0  0  0  0
    1.2334   -2.5270    0.2191 H   0  0  0  0  0  0  0  0  0  0  0  0
   -4.4397    0.6624    0.0534 H   0  0  0  0  0  0  0  0  0  0  0  0
   -2.9047    2.9819    1.3450 H   0  0  0  0  0  0  0  0  0  0  0  0
   -3.6327    1.6137    2.1991 H   0  0  0  0  0  0  0  0  0  0  0  0
   -4.6613    2.7648    1.3330 H   0  0  0  0  0  0  0  0  0  0  0  0
   -2.9735    2.9948   -1.2918 H   0  0  0  0  0  0  0  0  0  0  0  0
   -4.7265    2.7626   -1.2089 H   0  0  0  0  0  0  0  0  0  0  0  0
   -3.7239    1.6243   -2.1233 H   0  0  0  0  0  0  0  0  0  0  0  0
   -3.1239   -3.5479   -0.0835 H   0  0  0  0  0  0  0  0  0  0  0  0
   -2.6675   -2.8140    1.4779 H   0  0  0  0  0  0  0  0  0  0  0  0
   -0.0614   -6.6783    2.8825 H   0  0  0  0  0  0  0  0  0  0  0  0
    4.7386   -0.1850    1.5492 H   0  0  0  0  0  0  0  0  0  0  0  0
    6.8180   -1.4701    1.6469 H   0  0  0  0  0  0  0  0  0  0  0  0
    5.1042   -4.4926   -0.8864 H   0  0  0  0  0  0  0  0  0  0  0  0
    3.0626   -3.1666   -1.1036 H   0  0  0  0  0  0  0  0  0  0  0  0
  1 13  2  0  0  0  0
  1  2  1  0  0  0  0
  1 28  1  0  0  0  0
  2  3  1  0  0  0  0
  2 10  2  0  0  0  0
  3  8  2  0  0  0  0
  3  4  1  0  0  0  0
  4  5  2  0  0  0  0
  4 35  1  0  0  0  0
  5  6  1  0  0  0  0
  5 36  1  0  0  0  0
  6  7  2  0  0  0  0
  6 37  1  0  0  0  0
  7  8  1  0  0  0  0
  7 38  1  0  0  0  0
  8  9  1  0  0  0  0
 10 11  1  0  0  0  0
 11 20  2  0  0  0  0
 11 12  1  0  0  0  0
 12 13  1  0  0  0  0
 12 14  2  0  0  0  0
 13 39  1  0  0  0  0
 14 15  1  0  0  0  0
 14 21  1  0  0  0  0
 15 16  2  0  0  0  0
 16 17  1  0  0  0  0
 16 20  1  0  0  0  0
 17 18  1  0  0  0  0
 17 19  1  0  0  0  0
 17 40  1  0  0  0  0
 18 41  1  0  0  0  0
 18 42  1  0  0  0  0
 18 43  1  0  0  0  0
 19 44  1  0  0  0  0
 19 45  1  0  0  0  0
 19 46  1  0  0  0  0
 21 22  1  0  0  0  0
 22 23  1  0  0  0  0
 22 47  1  0  0  0  0
 22 48  1  0  0  0  0
 23 27  1  0  0  0  0
 23 24  2  0  0  0  0
 24 25  1  0  0  0  0
 25 26  1  0  0  0  0
 26 27  2  0  0  0  0
 26 49  1  0  0  0  0
 28 33  2  0  0  0  0
 28 29  1  0  0  0  0
 29 30  2  0  0  0  0
 29 50  1  0  0  0  0
 30 31  1  0  0  0  0
 30 51  1  0  0  0  0
 31 32  2  0  0  0  0
 31 34  1  0  0  0  0
 32 33  1  0  0  0  0
 32 52  1  0  0  0  0
 33 53  1  0  0  0  0
M  END
$$$$
CHEMBL1801086
 OpenBabel12022417453D

 52 56  0  0  1  0  0  0  0  0999 V2000
    2.9208    0.9755   -1.3227 C   0  0  0  0  0  0  0  0  0  0  0  0
    2.4573    0.1559   -0.1062 C   0  0  2  0  0  0  0  0  0  0  0  0
    0.9389    0.0945   -0.0350 C   0  0  0  0  0  0  0  0  0  0  0  0
    0.1465    1.2122   -0.3403 C   0  0  0  0  0  0  0  0  0  0  0  0
   -1.2475    1.1288   -0.3426 C   0  0  0  0  0  0  0  0  0  0  0  0
   -1.8787   -0.0705   -0.0035 C   0  0  0  0  0  0  0  0  0  0  0  0
   -1.1069   -1.1677    0.3987 C   0  0  0  0  0  0  0  0  0  0  0  0
    0.2860   -1.0807    0.3569 C   0  0  0  0  0  0  0  0  0  0  0  0
    1.0054   -2.1643    0.6828 F   0  0  0  0  0  0  0  0  0  0  0  0
   -3.2942   -0.1881   -0.0643 N   0  0  0  0  0  0  0  0  0  0  0  0
   -4.1702    0.4334   -0.9553 C   0  0  0  0  0  0  0  0  0  0  0  0
   -5.4472    0.0135   -0.5801 C   0  0  0  0  0  0  0  0  0  0  0  0
   -5.2250   -0.8376    0.5202 C   0  0  0  0  0  0  0  0  0  0  0  0
   -3.9352   -1.0277    0.7872 N   0  0  0  0  0  0  0  0  0  0  0  0
   -6.4180   -1.6358    1.4243 Cl  0  0  0  0  0  0  0  0  0  0  0  0
   -6.5683    0.4508   -1.3149 C   0  0  0  0  0  0  0  0  0  0  0  0
   -6.3773    1.2699   -2.4322 C   0  0  0  0  0  0  0  0  0  0  0  0
   -5.0979    1.6627   -2.8100 C   0  0  0  0  0  0  0  0  0  0  0  0
   -3.9750    1.2528   -2.0845 C   0  0  0  0  0  0  0  0  0  0  0  0
    2.9819    0.6306    1.1692 N   0  0  0  0  0  0  0  0  0  0  0  0
    4.2640    1.0835    1.3569 C   0  0  0  0  0  0  0  0  0  0  0  0
    5.0572    1.3922    0.4791 O   0  0  0  0  0  0  0  0  0  0  0  0
    4.6778    1.2465    2.8008 C   0  0  0  0  0  0  0  0  0  0  0  0
    4.7109    0.0302    3.7072 C   0  0  0  0  0  0  0  0  0  0  0  0
    5.9979    0.5834    3.1848 C   0  0  0  0  0  0  0  0  0  0  0  0
    4.4521    2.5598    3.3460 N   0  0  0  0  0  0  0  0  0  0  0  0
    3.2424    2.9813    3.8564 C   0  0  0  0  0  0  0  0  0  0  0  0
    2.2913    2.2194    4.0043 O   0  0  0  0  0  0  0  0  0  0  0  0
    3.1961    4.3921    4.2092 C   0  0  0  0  0  0  0  0  0  0  0  0
    2.1840    5.0778    4.8512 C   0  0  0  0  0  0  0  0  0  0  0  0
    2.4057    6.4294    5.0607 N   0  0  0  0  0  0  0  0  0  0  0  0
    3.5804    6.7546    4.5729 C   0  0  0  0  0  0  0  0  0  0  0  0
    4.4728    5.4880    3.8469 S   0  0  0  0  0  0  0  0  0  0  0  0
    3.9824    0.8137   -1.5322 H   0  0  0  0  0  0  0  0  0  0  0  0
    2.7819    2.0513   -1.1637 H   0  0  0  0  0  0  0  0  0  0  0  0
    2.3788    0.6879   -2.2303 H   0  0  0  0  0  0  0  0  0  0  0  0
    2.8479   -0.8613   -0.2420 H   0  0  0  0  0  0  0  0  0  0  0  0
    0.6064    2.1657   -0.5906 H   0  0  0  0  0  0  0  0  0  0  0  0
   -1.8131    2.0294   -0.5650 H   0  0  0  0  0  0  0  0  0  0  0  0
   -1.5665   -2.1082    0.6934 H   0  0  0  0  0  0  0  0  0  0  0  0
   -7.5699    0.1276   -1.0429 H   0  0  0  0  0  0  0  0  0  0  0  0
   -7.2350    1.5852   -3.0225 H   0  0  0  0  0  0  0  0  0  0  0  0
   -4.9650    2.2843   -3.6936 H   0  0  0  0  0  0  0  0  0  0  0  0
   -2.9860    1.5399   -2.4267 H   0  0  0  0  0  0  0  0  0  0  0  0
    2.4753    0.3611    2.0068 H   0  0  0  0  0  0  0  0  0  0  0  0
    4.3765   -0.9220    3.3109 H   0  0  0  0  0  0  0  0  0  0  0  0
    4.4848    0.1700    4.7578 H   0  0  0  0  0  0  0  0  0  0  0  0
    6.6520    1.1052    3.8730 H   0  0  0  0  0  0  0  0  0  0  0  0
    6.5261    0.0307    2.4144 H   0  0  0  0  0  0  0  0  0  0  0  0
    5.1405    3.2677    3.1183 H   0  0  0  0  0  0  0  0  0  0  0  0
    1.2555    4.6360    5.1982 H   0  0  0  0  0  0  0  0  0  0  0  0
    3.9709    7.7630    4.6226 H   0  0  0  0  0  0  0  0  0  0  0  0
  1 34  1  0  0  0  0
  1 35  1  0  0  0  0
  1 36  1  0  0  0  0
  2 20  1  0  0  0  0
  2  3  1  0  0  0  0
  2  1  1  0  0  0  0
  2 37  1  6  0  0  0
  3  8  2  0  0  0  0
  3  4  1  0  0  0  0
  4  5  2  0  0  0  0
  4 38  1  0  0  0  0
  5  6  1  0  0  0  0
  5 39  1  0  0  0  0
  6  7  2  0  0  0  0
  6 10  1  0  0  0  0
  7  8  1  0  0  0  0
  7 40  1  0  0  0  0
  8  9  1  0  0  0  0
 10 14  1  0  0  0  0
 10 11  1  0  0  0  0
 11 19  2  0  0  0  0
 11 12  1  0  0  0  0
 12 13  1  0  0  0  0
 12 16  2  0  0  0  0
 13 14  2  0  0  0  0
 13 15  1  0  0  0  0
 16 17  1  0  0  0  0
 16 41  1  0  0  0  0
 17 18  2  0  0  0  0
 17 42  1  0  0  0  0
 18 19  1  0  0  0  0
 18 43  1  0  0  0  0
 19 44  1  0  0  0  0
 20 21  1  0  0  0  0
 20 45  1  0  0  0  0
 21 22  2  0  0  0  0
 21 23  1  0  0  0  0
 23 25  1  0  0  0  0
 23 24  1  0  0  0  0
 23 26  1  0  0  0  0
 24 25  1  0  0  0  0
 24 46  1  0  0  0  0
 24 47  1  0  0  0  0
 25 48  1  0  0  0  0
 25 49  1  0  0  0  0
 26 27  1  0  0  0  0
 26 50  1  0  0  0  0
 27 28  2  0  0  0  0
 27 29  1  0  0  0  0
 29 33  1  0  0  0  0
 29 30  2  0  0  0  0
 30 31  1  0  0  0  0
 30 51  1  0  0  0  0
 31 32  2  0  0  0  0
 32 33  1  0  0  0  0
 32 52  1  0  0  0  0
M  END
$$$$
CHEMBL4760014
 OpenBabel12022417453D

 51 53  0  0  0  0  0  0  0  0999 V2000
   -0.6939    1.1128   -0.0957 C   0  0  0  0  0  0  0  0  0  0  0  0
    0.6501    1.1552   -0.0474 C   0  0  0  0  0  0  0  0  0  0  0  0
    1.3778    2.4682   -0.0968 C   0  0  0  0  0  0  0  0  0  0  0  0
    1.3626   -0.0453    0.0962 N   0  0  0  0  0  0  0  0  0  0  0  0
    2.8292   -0.0784    0.0725 C   0  0  0  0  0  0  0  0  0  0  0  0
    3.4488   -0.2598   -1.3066 C   0  0  0  0  0  0  0  0  0  0  0  0
    2.8967   -1.1120   -2.2785 C   0  0  0  0  0  0  0  0  0  0  0  0
    3.5862   -1.3877   -3.4634 C   0  0  0  0  0  0  0  0  0  0  0  0
    4.8332   -0.8177   -3.6793 C   0  0  0  0  0  0  0  0  0  0  0  0
    5.3895    0.0484   -2.7501 C   0  0  0  0  0  0  0  0  0  0  0  0
    4.6995    0.3288   -1.5663 C   0  0  0  0  0  0  0  0  0  0  0  0
    5.5167   -1.1227   -4.7906 F   0  0  0  0  0  0  0  0  0  0  0  0
    0.7102   -1.2725    0.3073 C   0  0  0  0  0  0  0  0  0  0  0  0
    1.3002   -2.3096    0.6161 O   0  0  0  0  0  0  0  0  0  0  0  0
   -0.7707   -1.2975    0.0919 C   0  0  0  0  0  0  0  0  0  0  0  0
   -1.4060   -0.1312   -0.0896 C   0  0  0  0  0  0  0  0  0  0  0  0
   -1.5725   -2.5568    0.0293 C   0  0  0  0  0  0  0  0  0  0  0  0
   -2.7024   -2.5638   -0.4555 O   0  0  0  0  0  0  0  0  0  0  0  0
   -0.9706   -3.6835    0.5395 N   0  0  0  0  0  0  0  0  0  0  0  0
   -1.6041   -5.0030    0.5183 C   0  0  0  0  0  0  0  0  0  0  0  0
   -1.3299   -5.7285   -0.8123 C   0  0  0  0  0  0  0  0  0  0  0  0
   -0.3303   -6.8878   -0.7804 C   0  0  0  0  0  0  0  0  0  0  0  0
   -0.9255   -8.1905   -0.2430 C   0  0  0  0  0  0  0  0  0  0  0  0
   -1.0793   -8.2611    1.2716 C   0  0  0  0  0  0  0  0  0  0  0  0
   -1.8973   -7.1365    1.8961 C   0  0  0  0  0  0  0  0  0  0  0  0
   -1.2250   -5.7697    1.7898 C   0  0  0  0  0  0  0  0  0  0  0  0
   -1.4205    2.2445   -0.1896 F   0  0  0  0  0  0  0  0  0  0  0  0
    0.6922    3.3219   -0.1452 H   0  0  0  0  0  0  0  0  0  0  0  0
    2.0241    2.5224   -0.9797 H   0  0  0  0  0  0  0  0  0  0  0  0
    1.9863    2.6116    0.8016 H   0  0  0  0  0  0  0  0  0  0  0  0
    3.1856   -0.9116    0.6942 H   0  0  0  0  0  0  0  0  0  0  0  0
    3.2199    0.8247    0.5525 H   0  0  0  0  0  0  0  0  0  0  0  0
    1.9402   -1.6003   -2.1182 H   0  0  0  0  0  0  0  0  0  0  0  0
    3.1701   -2.0647   -4.2016 H   0  0  0  0  0  0  0  0  0  0  0  0
    6.3685    0.4798   -2.9372 H   0  0  0  0  0  0  0  0  0  0  0  0
    5.1649    0.9860   -0.8336 H   0  0  0  0  0  0  0  0  0  0  0  0
   -2.4791   -0.0808   -0.2611 H   0  0  0  0  0  0  0  0  0  0  0  0
    0.0081   -3.6170    0.8228 H   0  0  0  0  0  0  0  0  0  0  0  0
   -2.6857   -4.8186    0.5585 H   0  0  0  0  0  0  0  0  0  0  0  0
   -0.9856   -5.0040   -1.5620 H   0  0  0  0  0  0  0  0  0  0  0  0
   -2.2843   -6.1106   -1.1986 H   0  0  0  0  0  0  0  0  0  0  0  0
    0.5833   -6.6159   -0.2406 H   0  0  0  0  0  0  0  0  0  0  0  0
   -0.0248   -7.0819   -1.8171 H   0  0  0  0  0  0  0  0  0  0  0  0
   -0.2710   -9.0178   -0.5469 H   0  0  0  0  0  0  0  0  0  0  0  0
   -1.8946   -8.3827   -0.7199 H   0  0  0  0  0  0  0  0  0  0  0  0
   -0.0872   -8.2952    1.7375 H   0  0  0  0  0  0  0  0  0  0  0  0
   -1.5631   -9.2161    1.5193 H   0  0  0  0  0  0  0  0  0  0  0  0
   -2.0188   -7.3725    2.9609 H   0  0  0  0  0  0  0  0  0  0  0  0
   -2.9062   -7.1112    1.4677 H   0  0  0  0  0  0  0  0  0  0  0  0
   -1.5412   -5.1666    2.6518 H   0  0  0  0  0  0  0  0  0  0  0  0
   -0.1358   -5.8623    1.8858 H   0  0  0  0  0  0  0  0  0  0  0  0
  1 16  1  0  0  0  0
  1  2  2  0  0  0  0
  1 27  1  0  0  0  0
  2  3  1  0  0  0  0
  2  4  1  0  0  0  0
  3 28  1  0  0  0  0
  3 29  1  0  0  0  0
  3 30  1  0  0  0  0
  4  5  1  0  0  0  0
  4 13  1  0  0  0  0
  5  6  1  0  0  0  0
  5 31  1  0  0  0  0
  5 32  1  0  0  0  0
  6 11  2  0  0  0  0
  6  7  1  0  0  0  0
  7  8  2  0  0  0  0
  7 33  1  0  0  0  0
  8  9  1  0  0  0  0
  8 34  1  0  0  0  0
  9 10  2  0  0  0  0
  9 12  1  0  0  0  0
 10 11  1  0  0  0  0
 10 35  1  0  0  0  0
 11 36  1  0  0  0  0
 13 14  2  0  0  0  0
 13 15  1  0  0  0  0
 15 16  2  0  0  0  0
 15 17  1  0  0  0  0
 16 37  1  0  0  0  0
 17 18  2  0  0  0  0
 17 19  1  0  0  0  0
 19 20  1  0  0  0  0
 19 38  1  0  0  0  0
 20 26  1  0  0  0  0
 20 21  1  0  0  0  0
 20 39  1  0  0  0  0
 21 22  1  0  0  0  0
 21 40  1  0  0  0  0
 21 41  1  0  0  0  0
 22 23  1  0  0  0  0
 22 42  1  0  0  0  0
 22 43  1  0  0  0  0
 23 24  1  0  0  0  0
 23 44  1  0  0  0  0
 23 45  1  0  0  0  0
 24 25  1  0  0  0  0
 24 46  1  0  0  0  0
 24 47  1  0  0  0  0
 25 26  1  0  0  0  0
 25 48  1  0  0  0  0
 25 49  1  0  0  0  0
 26 50  1  0  0  0  0
 26 51  1  0  0  0  0
M  END
$$$$
CHEMBL1760662
 OpenBabel12022417453D

 54 56  0  0  0  0  0  0  0  0999 V2000
    4.3287    2.9054    0.2945 C   0  0  0  0  0  0  0  0  0  0  0  0
    3.2855    2.4741    1.1812 O   0  0  0  0  0  0  0  0  0  0  0  0
    3.6126    1.4723    2.0766 C   0  0  0  0  0  0  0  0  0  0  0  0
    4.9591    1.2083    2.3764 C   0  0  0  0  0  0  0  0  0  0  0  0
    5.2914    0.1983    3.2568 C   0  0  0  0  0  0  0  0  0  0  0  0
    4.2763   -0.5554    3.8746 C   0  0  0  0  0  0  0  0  0  0  0  0
    4.7175   -1.6517    4.8212 C   0  0  0  0  0  0  0  0  0  0  0  0
    6.0809   -1.8082    4.8759 F   0  0  0  0  0  0  0  0  0  0  0  0
    4.3283   -1.4180    6.1004 F   0  0  0  0  0  0  0  0  0  0  0  0
    4.2275   -2.8649    4.4771 F   0  0  0  0  0  0  0  0  0  0  0  0
    2.9041   -0.2744    3.5959 C   0  0  0  0  0  0  0  0  0  0  0  0
    2.5307    0.7371    2.6994 C   0  0  0  0  0  0  0  0  0  0  0  0
    1.1131    1.1329    2.2803 C   0  0  0  0  0  0  0  0  0  0  0  0
   -0.2592    0.6769    2.7130 N   0  0  0  0  0  0  0  0  0  0  0  0
   -1.3077    1.1026    1.8464 C   0  0  0  0  0  0  0  0  0  0  0  0
   -1.9163    2.3856    2.0059 C   0  0  0  0  0  0  0  0  0  0  0  0
   -1.2920    3.3396    2.4675 O   0  0  0  0  0  0  0  0  0  0  0  0
   -3.2817    2.4529    1.8031 N   0  0  0  0  0  0  0  0  0  0  0  0
   -4.0539    3.6385    2.1981 C   0  0  0  0  0  0  0  0  0  0  0  0
   -4.9142    3.4644    3.4856 C   0  0  0  0  0  0  0  0  0  0  0  0
   -4.0920    3.2489    4.7583 C   0  0  0  0  0  0  0  0  0  0  0  0
   -5.8114    4.6922    3.7014 C   0  0  0  0  0  0  0  0  0  0  0  0
   -5.7829    2.3389    3.3087 O   0  0  0  0  0  0  0  0  0  0  0  0
   -1.5418   -0.1192    1.1453 C   0  0  0  0  0  0  0  0  0  0  0  0
   -1.0798   -1.2204    2.0380 C   0  0  0  0  0  0  0  0  0  0  0  0
   -1.7032   -2.4983    2.2045 C   0  0  0  0  0  0  0  0  0  0  0  0
   -2.8076   -2.5749    3.0726 C   0  0  0  0  0  0  0  0  0  0  0  0
   -3.6721   -3.7245    3.0841 C   0  0  0  0  0  0  0  0  0  0  0  0
   -4.3766   -4.6623    3.1071 N   0  0  0  0  0  0  0  0  0  0  0  0
   -3.0633   -1.4901    3.9079 C   0  0  0  0  0  0  0  0  0  0  0  0
   -2.0762   -0.4849    4.0743 C   0  0  0  0  0  0  0  0  0  0  0  0
   -0.9168   -0.4547    3.2144 C   0  0  0  0  0  0  0  0  0  0  0  0
    3.9283    3.6788   -0.3671 H   0  0  0  0  0  0  0  0  0  0  0  0
    4.6748    2.0724   -0.3291 H   0  0  0  0  0  0  0  0  0  0  0  0
    5.1706    3.3653    0.8270 H   0  0  0  0  0  0  0  0  0  0  0  0
    5.7821    1.7658    1.9488 H   0  0  0  0  0  0  0  0  0  0  0  0
    6.3417    0.0053    3.4578 H   0  0  0  0  0  0  0  0  0  0  0  0
    2.1386   -0.8708    4.0952 H   0  0  0  0  0  0  0  0  0  0  0  0
    1.0878    1.0295    1.1861 H   0  0  0  0  0  0  0  0  0  0  0  0
    1.0515    2.2097    2.5205 H   0  0  0  0  0  0  0  0  0  0  0  0
   -3.7591    1.6662    1.3961 H   0  0  0  0  0  0  0  0  0  0  0  0
   -4.7171    3.8407    1.3496 H   0  0  0  0  0  0  0  0  0  0  0  0
   -3.3868    4.4984    2.3166 H   0  0  0  0  0  0  0  0  0  0  0  0
   -3.4352    4.0994    4.9688 H   0  0  0  0  0  0  0  0  0  0  0  0
   -3.4844    2.3442    4.6960 H   0  0  0  0  0  0  0  0  0  0  0  0
   -4.7528    3.1089    5.6243 H   0  0  0  0  0  0  0  0  0  0  0  0
   -5.2245    5.5860    3.9419 H   0  0  0  0  0  0  0  0  0  0  0  0
   -6.5194    4.5193    4.5221 H   0  0  0  0  0  0  0  0  0  0  0  0
   -6.4175    4.9036    2.8142 H   0  0  0  0  0  0  0  0  0  0  0  0
   -5.2165    1.5505    3.2669 H   0  0  0  0  0  0  0  0  0  0  0  0
   -2.2403   -0.2589    0.3280 H   0  0  0  0  0  0  0  0  0  0  0  0
   -1.4434   -3.3478    1.5679 H   0  0  0  0  0  0  0  0  0  0  0  0
   -4.0191   -1.4077    4.4253 H   0  0  0  0  0  0  0  0  0  0  0  0
   -2.3498    0.4117    4.6366 H   0  0  0  0  0  0  0  0  0  0  0  0
  1  2  1  0  0  0  0
  1 33  1  0  0  0  0
  1 34  1  0  0  0  0
  1 35  1  0  0  0  0
  2  3  1  0  0  0  0
  3 12  2  0  0  0  0
  3  4  1  0  0  0  0
  4  5  2  0  0  0  0
  4 36  1  0  0  0  0
  5  6  1  0  0  0  0
  5 37  1  0  0  0  0
  6  7  1  0  0  0  0
  6 11  2  0  0  0  0
  7  8  1  0  0  0  0
  7  9  1  0  0  0  0
  7 10  1  0  0  0  0
 11 12  1  0  0  0  0
 11 38  1  0  0  0  0
 12 13  1  0  0  0  0
 13 14  1  0  0  0  0
 13 39  1  0  0  0  0
 13 40  1  0  0  0  0
 14 32  1  0  0  0  0
 14 15  1  0  0  0  0
 15 16  1  0  0  0  0
 15 24  2  0  0  0  0
 16 17  2  0  0  0  0
 16 18  1  0  0  0  0
 18 19  1  0  0  0  0
 18 41  1  0  0  0  0
 19 20  1  0  0  0  0
 19 42  1  0  0  0  0
 19 43  1  0  0  0  0
 20 21  1  0  0  0  0
 20 22  1  0  0  0  0
 20 23  1  0  0  0  0
 21 44  1  0  0  0  0
 21 45  1  0  0  0  0
 21 46  1  0  0  0  0
 22 47  1  0  0  0  0
 22 48  1  0  0  0  0
 22 49  1  0  0  0  0
 23 50  1  0  0  0  0
 24 25  1  0  0  0  0
 24 51  1  0  0  0  0
 25 32  2  0  0  0  0
 25 26  1  0  0  0  0
 26 27  2  0  0  0  0
 26 52  1  0  0  0  0
 27 28  1  0  0  0  0
 27 30  1  0  0  0  0
 28 29  3  0  0  0  0
 30 31  2  0  0  0  0
 30 53  1  0  0  0  0
 31 32  1  0  0  0  0
 31 54  1  0  0  0  0
M  END
$$$$
CHEMBL2296777
 OpenBabel12022417453D

 68 72  0  0  1  0  0  0  0  0999 V2000
    1.1115    0.5093   -0.0149 C   0  0  0  0  0  0  0  0  0  0  0  0
    2.5835    0.2696   -0.0239 C   0  0  0  0  0  0  0  0  0  0  0  0
    3.5874    1.2929   -0.1278 C   0  0  0  0  0  0  0  0  0  0  0  0
    3.4016    2.7795   -0.2000 C   0  0  0  0  0  0  0  0  0  0  0  0
    2.2962    3.3184   -0.1690 O   0  0  0  0  0  0  0  0  0  0  0  0
    4.5879    3.4946   -0.2955 N   0  0  0  0  0  0  0  0  0  0  0  0
    4.6725    4.9430   -0.4917 C   0  0  0  0  0  0  0  0  0  0  0  0
    5.9555    5.5919    0.1092 C   0  0  1  0  0  0  0  0  0  0  0  0
    6.0159    5.3340    1.6359 C   0  0  0  0  0  0  0  0  0  0  0  0
    7.2891    5.9370    2.2502 C   0  0  2  0  0  0  0  0  0  0  0  0
    7.2972    7.4555    2.0315 C   0  0  0  0  0  0  0  0  0  0  0  0
    7.2532    7.7632    0.5259 C   0  0  1  0  0  0  0  0  0  0  0  0
    8.5019    7.1560   -0.1351 C   0  0  0  0  0  0  0  0  0  0  0  0
    8.5013    5.6326    0.0592 C   0  0  1  0  0  0  0  0  0  0  0  0
    8.5137    5.3177    1.5633 C   0  0  0  0  0  0  0  0  0  0  0  0
    7.2324    5.0343   -0.5721 C   0  0  0  0  0  0  0  0  0  0  0  0
    5.9774    7.1396   -0.0947 C   0  0  0  0  0  0  0  0  0  0  0  0
    4.8174    0.7478   -0.1696 N   0  0  0  0  0  0  0  0  0  0  0  0
    4.6103   -0.5780   -0.0261 N   0  0  0  0  0  0  0  0  0  0  0  0
    5.7678   -1.4555    0.0478 C   0  0  0  0  0  0  0  0  0  0  0  0
    7.1489   -0.8960   -0.2963 C   0  0  0  0  0  0  0  0  0  0  0  0
    7.7795    0.0547    0.7197 C   0  0  0  0  0  0  0  0  0  0  0  0
    9.1511    0.4873    0.1869 C   0  0  0  0  0  0  0  0  0  0  0  0
    9.8467    1.4731    1.1058 C   0  0  0  0  0  0  0  0  0  0  0  0
   11.4009    1.9771    0.4013 Cl  0  0  0  0  0  0  0  0  0  0  0  0
    3.2701   -0.9484    0.0677 C   0  0  0  0  0  0  0  0  0  0  0  0
    2.7638   -2.3390    0.2796 C   0  0  0  0  0  0  0  0  0  0  0  0
    1.6650   -2.5878    1.1195 C   0  0  0  0  0  0  0  0  0  0  0  0
    1.1813   -3.8886    1.3430 C   0  0  0  0  0  0  0  0  0  0  0  0
    1.8167   -4.9835    0.7692 C   0  0  0  0  0  0  0  0  0  0  0  0
    2.8992   -4.7705   -0.0709 C   0  0  0  0  0  0  0  0  0  0  0  0
    3.3352   -3.4636   -0.3408 C   0  0  0  0  0  0  0  0  0  0  0  0
    0.5379   -0.4152   -0.1239 H   0  0  0  0  0  0  0  0  0  0  0  0
    0.8224    1.1525   -0.8514 H   0  0  0  0  0  0  0  0  0  0  0  0
    0.8070    0.9913    0.9197 H   0  0  0  0  0  0  0  0  0  0  0  0
    5.4009    2.9045   -0.4422 H   0  0  0  0  0  0  0  0  0  0  0  0
    3.7780    5.4085   -0.0614 H   0  0  0  0  0  0  0  0  0  0  0  0
    4.6348    5.1167   -1.5741 H   0  0  0  0  0  0  0  0  0  0  0  0
    5.9921    4.2580    1.8442 H   0  0  0  0  0  0  0  0  0  0  0  0
    5.1338    5.7702    2.1230 H   0  0  0  0  0  0  0  0  0  0  0  0
    7.3181    5.7175    3.3232 H   0  0  0  0  0  0  0  0  0  0  0  0
    8.2004    7.8898    2.4799 H   0  0  0  0  0  0  0  0  0  0  0  0
    6.4402    7.9159    2.5368 H   0  0  0  0  0  0  0  0  0  0  0  0
    7.2528    8.8492    0.3758 H   0  0  0  0  0  0  0  0  0  0  0  0
    9.4103    7.5867    0.3065 H   0  0  0  0  0  0  0  0  0  0  0  0
    8.5221    7.4038   -1.2031 H   0  0  0  0  0  0  0  0  0  0  0  0
    9.3876    5.1994   -0.4180 H   0  0  0  0  0  0  0  0  0  0  0  0
    8.4982    4.2370    1.7209 H   0  0  0  0  0  0  0  0  0  0  0  0
    9.4370    5.6937    2.0191 H   0  0  0  0  0  0  0  0  0  0  0  0
    7.2132    5.2674   -1.6457 H   0  0  0  0  0  0  0  0  0  0  0  0
    7.2762    3.9433   -0.4881 H   0  0  0  0  0  0  0  0  0  0  0  0
    5.0930    7.5990    0.3647 H   0  0  0  0  0  0  0  0  0  0  0  0
    5.9410    7.3850   -1.1639 H   0  0  0  0  0  0  0  0  0  0  0  0
    5.6110   -2.2125   -0.7197 H   0  0  0  0  0  0  0  0  0  0  0  0
    5.7596   -1.9392    1.0296 H   0  0  0  0  0  0  0  0  0  0  0  0
    7.1089   -0.4136   -1.2804 H   0  0  0  0  0  0  0  0  0  0  0  0
    7.8228   -1.7577   -0.4032 H   0  0  0  0  0  0  0  0  0  0  0  0
    7.8896   -0.4447    1.6895 H   0  0  0  0  0  0  0  0  0  0  0  0
    7.1528    0.9379    0.8780 H   0  0  0  0  0  0  0  0  0  0  0  0
    9.0192    0.9436   -0.8030 H   0  0  0  0  0  0  0  0  0  0  0  0
    9.7835   -0.3985    0.0501 H   0  0  0  0  0  0  0  0  0  0  0  0
   10.0459    1.0387    2.0888 H   0  0  0  0  0  0  0  0  0  0  0  0
    9.2404    2.3680    1.2323 H   0  0  0  0  0  0  0  0  0  0  0  0
    1.1524   -1.7700    1.6195 H   0  0  0  0  0  0  0  0  0  0  0  0
    0.3081   -4.0443    1.9718 H   0  0  0  0  0  0  0  0  0  0  0  0
    1.4617   -5.9930    0.9625 H   0  0  0  0  0  0  0  0  0  0  0  0
    3.4027   -5.6168   -0.5332 H   0  0  0  0  0  0  0  0  0  0  0  0
    4.1217   -3.3699   -1.0781 H   0  0  0  0  0  0  0  0  0  0  0  0
  1  2  1  0  0  0  0
  1 33  1  0  0  0  0
  1 34  1  0  0  0  0
  1 35  1  0  0  0  0
  2 26  2  0  0  0  0
  2  3  1  0  0  0  0
  3  4  1  0  0  0  0
  3 18  2  0  0  0  0
  4  5  2  0  0  0  0
  4  6  1  0  0  0  0
  6  7  1  0  0  0  0
  6 36  1  0  0  0  0
  7 37  1  0  0  0  0
  7 38  1  0  0  0  0
  8  7  1  6  0  0  0
  8 16  1  0  0  0  0
  8 17  1  0  0  0  0
  8  9  1  0  0  0  0
  9 39  1  0  0  0  0
  9 40  1  0  0  0  0
 10  9  1  0  0  0  0
 10 11  1  0  0  0  0
 10 15  1  0  0  0  0
 10 41  1  1  0  0  0
 11 42  1  0  0  0  0
 11 43  1  0  0  0  0
 12 11  1  0  0  0  0
 12 13  1  0  0  0  0
 12 17  1  0  0  0  0
 12 44  1  6  0  0  0
 13 45  1  0  0  0  0
 13 46  1  0  0  0  0
 14 13  1  0  0  0  0
 14 15  1  0  0  0  0
 14 16  1  0  0  0  0
 14 47  1  6  0  0  0
 15 48  1  0  0  0  0
 15 49  1  0  0  0  0
 16 50  1  0  0  0  0
 16 51  1  0  0  0  0
 17 52  1  0  0  0  0
 17 53  1  0  0  0  0
 18 19  1  0  0  0  0
 19 20  1  0  0  0  0
 19 26  1  0  0  0  0
 20 21  1  0  0  0  0
 20 54  1  0  0  0  0
 20 55  1  0  0  0  0
 21 22  1  0  0  0  0
 21 56  1  0  0  0  0
 21 57  1  0  0  0  0
 22 23  1  0  0  0  0
 22 58  1  0  0  0  0
 22 59  1  0  0  0  0
 23 24  1  0  0  0  0
 23 60  1  0  0  0  0
 23 61  1  0  0  0  0
 24 25  1  0  0  0  0
 24 62  1  0  0  0  0
 24 63  1  0  0  0  0
 26 27  1  0  0  0  0
 27 32  2  0  0  0  0
 27 28  1  0  0  0  0
 28 29  2  0  0  0  0
 28 64  1  0  0  0  0
 29 30  1  0  0  0  0
 29 65  1  0  0  0  0
 30 31  2  0  0  0  0
 30 66  1  0  0  0  0
 31 32  1  0  0  0  0
 31 67  1  0  0  0  0
 32 68  1  0  0  0  0
M  END
$$$$
CHEMBL1224535
 OpenBabel12022417453D

 59 62  0  0  0  0  0  0  0  0999 V2000
   13.3429    3.9778    0.8958 C   0  0  0  0  0  0  0  0  0  0  0  0
   12.1469    3.2957    0.5503 O   0  0  0  0  0  0  0  0  0  0  0  0
   10.9470    3.8151    0.9697 C   0  0  0  0  0  0  0  0  0  0  0  0
   10.8420    4.9930    1.7187 C   0  0  0  0  0  0  0  0  0  0  0  0
    9.5898    5.4911    2.0557 C   0  0  0  0  0  0  0  0  0  0  0  0
    8.4305    4.8479    1.6544 C   0  0  0  0  0  0  0  0  0  0  0  0
    8.5259    3.6632    0.9225 C   0  0  0  0  0  0  0  0  0  0  0  0
    9.7793    3.1053    0.5815 C   0  0  0  0  0  0  0  0  0  0  0  0
    9.8287    1.8192   -0.1575 C   0  0  0  0  0  0  0  0  0  0  0  0
   10.7980    0.8464    0.0868 C   0  0  0  0  0  0  0  0  0  0  0  0
   10.8247   -0.3090   -0.6829 C   0  0  0  0  0  0  0  0  0  0  0  0
    9.8511   -0.4964   -1.6519 C   0  0  0  0  0  0  0  0  0  0  0  0
    8.8679    0.4783   -1.8178 C   0  0  0  0  0  0  0  0  0  0  0  0
    7.7062    0.2552   -2.7520 C   0  0  0  0  0  0  0  0  0  0  0  0
    8.1088    0.1061   -4.1461 N   0  0  0  0  0  0  0  0  0  0  0  0
    8.3287   -1.1190   -4.7366 C   0  0  0  0  0  0  0  0  0  0  0  0
    8.5504   -0.9147   -6.0748 C   0  0  0  0  0  0  0  0  0  0  0  0
    8.4368    0.4774   -6.3161 C   0  0  0  0  0  0  0  0  0  0  0  0
    8.5238    1.2490   -7.4813 C   0  0  0  0  0  0  0  0  0  0  0  0
    8.3400    2.6312   -7.4089 C   0  0  0  0  0  0  0  0  0  0  0  0
    8.0781    3.2790   -6.1997 C   0  0  0  0  0  0  0  0  0  0  0  0
    8.0032    2.5174   -5.0180 C   0  0  0  0  0  0  0  0  0  0  0  0
    8.1719    1.1119   -5.0979 C   0  0  0  0  0  0  0  0  0  0  0  0
    7.8694    4.6889   -6.1145 N   0  0  0  0  0  0  0  0  0  0  0  0
    7.8727    5.5826   -7.1826 C   0  0  0  0  0  0  0  0  0  0  0  0
    8.1052    5.2767   -8.3536 O   0  0  0  0  0  0  0  0  0  0  0  0
    7.5371    7.0522   -6.8501 C   0  0  0  0  0  0  0  0  0  0  0  0
    6.1412    7.1642   -6.2207 C   0  0  0  0  0  0  0  0  0  0  0  0
    8.5939    7.6388   -5.9057 C   0  0  0  0  0  0  0  0  0  0  0  0
    7.5722    7.8647   -8.1713 C   0  0  0  0  0  0  0  0  0  0  0  0
    6.6011    7.4054   -9.1081 O   0  0  0  0  0  0  0  0  0  0  0  0
    8.8493    1.6228   -1.0818 N   0  0  0  0  0  0  0  0  0  0  0  0
    9.5049    6.6182    2.7747 F   0  0  0  0  0  0  0  0  0  0  0  0
   14.1788    3.4103    0.4751 H   0  0  0  0  0  0  0  0  0  0  0  0
   13.4765    4.0104    1.9815 H   0  0  0  0  0  0  0  0  0  0  0  0
   13.3652    4.9802    0.4578 H   0  0  0  0  0  0  0  0  0  0  0  0
   11.7083    5.5515    2.0514 H   0  0  0  0  0  0  0  0  0  0  0  0
    7.4634    5.2652    1.9159 H   0  0  0  0  0  0  0  0  0  0  0  0
    7.6091    3.1600    0.6177 H   0  0  0  0  0  0  0  0  0  0  0  0
   11.5429    0.9806    0.8644 H   0  0  0  0  0  0  0  0  0  0  0  0
   11.5982   -1.0540   -0.5211 H   0  0  0  0  0  0  0  0  0  0  0  0
    9.8601   -1.4019   -2.2495 H   0  0  0  0  0  0  0  0  0  0  0  0
    6.9854    1.0769   -2.6954 H   0  0  0  0  0  0  0  0  0  0  0  0
    7.1747   -0.6594   -2.4593 H   0  0  0  0  0  0  0  0  0  0  0  0
    8.2970   -2.0367   -4.1641 H   0  0  0  0  0  0  0  0  0  0  0  0
    8.7453   -1.6825   -6.8123 H   0  0  0  0  0  0  0  0  0  0  0  0
    8.7174    0.7819   -8.4427 H   0  0  0  0  0  0  0  0  0  0  0  0
    8.4034    3.1637   -8.3499 H   0  0  0  0  0  0  0  0  0  0  0  0
    7.8153    2.9853   -4.0545 H   0  0  0  0  0  0  0  0  0  0  0  0
    7.6770    5.0540   -5.1903 H   0  0  0  0  0  0  0  0  0  0  0  0
    6.0947    6.6721   -5.2439 H   0  0  0  0  0  0  0  0  0  0  0  0
    5.3761    6.7014   -6.8543 H   0  0  0  0  0  0  0  0  0  0  0  0
    5.8628    8.2147   -6.0716 H   0  0  0  0  0  0  0  0  0  0  0  0
    8.5781    7.1568   -4.9232 H   0  0  0  0  0  0  0  0  0  0  0  0
    8.4299    8.7119   -5.7509 H   0  0  0  0  0  0  0  0  0  0  0  0
    9.6015    7.5118   -6.3184 H   0  0  0  0  0  0  0  0  0  0  0  0
    8.5565    7.8120   -8.6526 H   0  0  0  0  0  0  0  0  0  0  0  0
    7.3592    8.9227   -7.9837 H   0  0  0  0  0  0  0  0  0  0  0  0
    6.9033    6.5102   -9.3790 H   0  0  0  0  0  0  0  0  0  0  0  0
  1  2  1  0  0  0  0
  1 34  1  0  0  0  0
  1 35  1  0  0  0  0
  1 36  1  0  0  0  0
  2  3  1  0  0  0  0
  3  8  2  0  0  0  0
  3  4  1  0  0  0  0
  4  5  2  0  0  0  0
  4 37  1  0  0  0  0
  5  6  1  0  0  0  0
  5 33  1  0  0  0  0
  6  7  2  0  0  0  0
  6 38  1  0  0  0  0
  7  8  1  0  0  0  0
  7 39  1  0  0  0  0
  8  9  1  0  0  0  0
  9 32  2  0  0  0  0
  9 10  1  0  0  0  0
 10 11  2  0  0  0  0
 10 40  1  0  0  0  0
 11 12  1  0  0  0  0
 11 41  1  0  0  0  0
 12 13  2  0  0  0  0
 12 42  1  0  0  0  0
 13 14  1  0  0  0  0
 13 32  1  0  0  0  0
 14 15  1  0  0  0  0
 14 43  1  0  0  0  0
 14 44  1  0  0  0  0
 15 23  1  0  0  0  0
 15 16  1  0  0  0  0
 16 17  2  0  0  0  0
 16 45  1  0  0  0  0
 17 18  1  0  0  0  0
 17 46  1  0  0  0  0
 18 23  2  0  0  0  0
 18 19  1  0  0  0  0
 19 20  2  0  0  0  0
 19 47  1  0  0  0  0
 20 21  1  0  0  0  0
 20 48  1  0  0  0  0
 21 22  2  0  0  0  0
 21 24  1  0  0  0  0
 22 23  1  0  0  0  0
 22 49  1  0  0  0  0
 24 25  1  0  0  0  0
 24 50  1  0  0  0  0
 25 26  2  0  0  0  0
 25 27  1  0  0  0  0
 27 28  1  0  0  0  0
 27 29  1  0  0  0  0
 27 30  1  0  0  0  0
 28 51  1  0  0  0  0
 28 52  1  0  0  0  0
 28 53  1  0  0  0  0
 29 54  1  0  0  0  0
 29 55  1  0  0  0  0
 29 56  1  0  0  0  0
 30 31  1  0  0  0  0
 30 57  1  0  0  0  0
 30 58  1  0  0  0  0
 31 59  1  0  0  0  0
M  END
$$$$
CHEMBL1760654
 OpenBabel12022417453D

 56 58  0  0  0  0  0  0  0  0999 V2000
   -4.8669    5.7415   -2.0830 C   0  0  0  0  0  0  0  0  0  0  0  0
   -4.4170    4.3374   -1.8102 C   0  0  0  0  0  0  0  0  0  0  0  0
   -5.2738    3.2635   -2.0464 C   0  0  0  0  0  0  0  0  0  0  0  0
   -4.8589    1.9622   -1.7681 C   0  0  0  0  0  0  0  0  0  0  0  0
   -3.5917    1.7104   -1.2148 C   0  0  0  0  0  0  0  0  0  0  0  0
   -3.2005    0.2812   -0.9429 C   0  0  0  0  0  0  0  0  0  0  0  0
   -2.7245    2.7933   -0.9314 C   0  0  0  0  0  0  0  0  0  0  0  0
   -1.4137    2.5511   -0.2005 C   0  0  0  0  0  0  0  0  0  0  0  0
   -0.5184    3.7127   -0.1104 N   0  0  0  0  0  0  0  0  0  0  0  0
   -0.4614    4.6453    0.9286 C   0  0  0  0  0  0  0  0  0  0  0  0
   -1.3148    4.6818    2.1174 C   0  0  0  0  0  0  0  0  0  0  0  0
   -2.1550    3.8325    2.3925 O   0  0  0  0  0  0  0  0  0  0  0  0
   -1.0622    5.7512    2.9583 N   0  0  0  0  0  0  0  0  0  0  0  0
   -1.7454    5.9927    4.2211 C   0  0  0  0  0  0  0  0  0  0  0  0
   -0.8352    6.6540    5.2981 C   0  0  0  0  0  0  0  0  0  0  0  0
   -0.3048    8.0189    4.8131 C   0  0  0  0  0  0  0  0  0  0  0  0
   -1.6674    6.8964    6.5738 C   0  0  0  0  0  0  0  0  0  0  0  0
    0.3487    5.7350    5.6746 C   0  0  0  0  0  0  0  0  0  0  0  0
    1.2111    5.4859    4.5722 O   0  0  0  0  0  0  0  0  0  0  0  0
    0.5867    5.4999    0.6071 C   0  0  0  0  0  0  0  0  0  0  0  0
    1.1599    5.1088   -0.6253 C   0  0  0  0  0  0  0  0  0  0  0  0
    2.2266    5.6114   -1.3906 C   0  0  0  0  0  0  0  0  0  0  0  0
    2.5652    4.9773   -2.5948 C   0  0  0  0  0  0  0  0  0  0  0  0
    3.6651    5.4760   -3.3681 C   0  0  0  0  0  0  0  0  0  0  0  0
    4.5577    5.8819   -3.9915 N   0  0  0  0  0  0  0  0  0  0  0  0
    1.8431    3.8687   -3.0292 C   0  0  0  0  0  0  0  0  0  0  0  0
    0.7724    3.3606   -2.2820 C   0  0  0  0  0  0  0  0  0  0  0  0
    0.4539    3.9968   -1.0659 C   0  0  0  0  0  0  0  0  0  0  0  0
   -3.1485    4.0917   -1.2715 C   0  0  0  0  0  0  0  0  0  0  0  0
   -4.0761    6.4653   -1.8582 H   0  0  0  0  0  0  0  0  0  0  0  0
   -5.7287    5.9849   -1.4535 H   0  0  0  0  0  0  0  0  0  0  0  0
   -5.1394    5.8589   -3.1360 H   0  0  0  0  0  0  0  0  0  0  0  0
   -6.2727    3.4332   -2.4417 H   0  0  0  0  0  0  0  0  0  0  0  0
   -5.5457    1.1417   -1.9676 H   0  0  0  0  0  0  0  0  0  0  0  0
   -4.0151   -0.4119   -1.1822 H   0  0  0  0  0  0  0  0  0  0  0  0
   -2.9524    0.1418    0.1132 H   0  0  0  0  0  0  0  0  0  0  0  0
   -2.3431    0.0004   -1.5636 H   0  0  0  0  0  0  0  0  0  0  0  0
   -0.8454    1.7629   -0.7112 H   0  0  0  0  0  0  0  0  0  0  0  0
   -1.6016    2.1884    0.8121 H   0  0  0  0  0  0  0  0  0  0  0  0
   -0.5642    6.5358    2.5651 H   0  0  0  0  0  0  0  0  0  0  0  0
   -2.1521    5.0466    4.5962 H   0  0  0  0  0  0  0  0  0  0  0  0
   -2.5966    6.6460    3.9936 H   0  0  0  0  0  0  0  0  0  0  0  0
   -1.1291    8.6926    4.5534 H   0  0  0  0  0  0  0  0  0  0  0  0
    0.3426    7.9270    3.9357 H   0  0  0  0  0  0  0  0  0  0  0  0
    0.2861    8.5089    5.5965 H   0  0  0  0  0  0  0  0  0  0  0  0
   -2.5235    7.5501    6.3738 H   0  0  0  0  0  0  0  0  0  0  0  0
   -1.0625    7.3749    7.3538 H   0  0  0  0  0  0  0  0  0  0  0  0
   -2.0497    5.9555    6.9843 H   0  0  0  0  0  0  0  0  0  0  0  0
   -0.0043    4.7713    6.0585 H   0  0  0  0  0  0  0  0  0  0  0  0
    0.9583    6.1960    6.4599 H   0  0  0  0  0  0  0  0  0  0  0  0
    0.6838    4.9921    3.9169 H   0  0  0  0  0  0  0  0  0  0  0  0
    0.9415    6.3319    1.2017 H   0  0  0  0  0  0  0  0  0  0  0  0
    2.7829    6.4779   -1.0435 H   0  0  0  0  0  0  0  0  0  0  0  0
    2.1087    3.3787   -3.9679 H   0  0  0  0  0  0  0  0  0  0  0  0
    0.2192    2.5000   -2.6415 H   0  0  0  0  0  0  0  0  0  0  0  0
   -2.4975    4.9457   -1.0988 H   0  0  0  0  0  0  0  0  0  0  0  0
  1  2  1  0  0  0  0
  1 30  1  0  0  0  0
  1 31  1  0  0  0  0
  1 32  1  0  0  0  0
  2 29  2  0  0  0  0
  2  3  1  0  0  0  0
  3  4  2  0  0  0  0
  3 33  1  0  0  0  0
  4  5  1  0  0  0  0
  4 34  1  0  0  0  0
  5  6  1  0  0  0  0
  5  7  2  0  0  0  0
  6 35  1  0  0  0  0
  6 36  1  0  0  0  0
  6 37  1  0  0  0  0
  7  8  1  0  0  0  0
  7 29  1  0  0  0  0
  8  9  1  0  0  0  0
  8 38  1  0  0  0  0
  8 39  1  0  0  0  0
  9 28  1  0  0  0  0
  9 10  1  0  0  0  0
 10 11  1  0  0  0  0
 10 20  2  0  0  0  0
 11 12  2  0  0  0  0
 11 13  1  0  0  0  0
 13 14  1  0  0  0  0
 13 40  1  0  0  0  0
 14 15  1  0  0  0  0
 14 41  1  0  0  0  0
 14 42  1  0  0  0  0
 15 16  1  0  0  0  0
 15 17  1  0  0  0  0
 15 18  1  0  0  0  0
 16 43  1  0  0  0  0
 16 44  1  0  0  0  0
 16 45  1  0  0  0  0
 17 46  1  0  0  0  0
 17 47  1  0  0  0  0
 17 48  1  0  0  0  0
 18 19  1  0  0  0  0
 18 49  1  0  0  0  0
 18 50  1  0  0  0  0
 19 51  1  0  0  0  0
 20 21  1  0  0  0  0
 20 52  1  0  0  0  0
 21 28  2  0  0  0  0
 21 22  1  0  0  0  0
 22 23  2  0  0  0  0
 22 53  1  0  0  0  0
 23 24  1  0  0  0  0
 23 26  1  0  0  0  0
 24 25  3  0  0  0  0
 26 27  2  0  0  0  0
 26 54  1  0  0  0  0
 27 28  1  0  0  0  0
 27 55  1  0  0  0  0
 29 56  1  0  0  0  0
M  END
$$$$
CHEMBL497304
 OpenBabel12022417453D

 53 56  0  0  0  0  0  0  0  0999 V2000
    0.8676   -0.1487    0.0023 C   0  0  0  0  0  0  0  0  0  0  0  0
    2.3586   -0.0564    0.1069 C   0  0  0  0  0  0  0  0  0  0  0  0
    2.9655    1.1950    0.1304 C   0  0  0  0  0  0  0  0  0  0  0  0
    4.3431    1.2577    0.2518 C   0  0  0  0  0  0  0  0  0  0  0  0
    5.0711    0.0679    0.3060 C   0  0  0  0  0  0  0  0  0  0  0  0
    6.5404    0.1183    0.4098 C   0  0  0  0  0  0  0  0  0  0  0  0
    7.1046    1.1725    0.7051 O   0  0  0  0  0  0  0  0  0  0  0  0
    7.2988   -1.1192    0.1180 C   0  0  0  0  0  0  0  0  0  0  0  0
    8.7746   -1.1540   -0.1157 C   0  0  0  0  0  0  0  0  0  0  0  0
    9.3561   -2.2042   -0.3899 O   0  0  0  0  0  0  0  0  0  0  0  0
    9.4080    0.0623   -0.0363 N   0  0  0  0  0  0  0  0  0  0  0  0
   10.8410    0.2380   -0.2215 C   0  0  0  0  0  0  0  0  0  0  0  0
   11.1362    1.6351   -0.7897 C   0  0  0  0  0  0  0  0  0  0  0  0
   12.6336    1.8987   -0.9193 C   0  0  0  0  0  0  0  0  0  0  0  0
   13.3508    1.6852    0.4071 C   0  0  0  0  0  0  0  0  0  0  0  0
   13.0901    0.2838    0.9560 C   0  0  0  0  0  0  0  0  0  0  0  0
   11.5923    0.0080    1.0949 C   0  0  0  0  0  0  0  0  0  0  0  0
    6.5749   -2.2485    0.0347 C   0  0  0  0  0  0  0  0  0  0  0  0
    5.1937   -2.3470    0.1655 N   0  0  0  0  0  0  0  0  0  0  0  0
    4.4627   -3.6261    0.1832 C   0  0  0  0  0  0  0  0  0  0  0  0
    4.4256   -4.2000    1.5888 C   0  0  0  0  0  0  0  0  0  0  0  0
    5.4986   -4.9647    2.0784 C   0  0  0  0  0  0  0  0  0  0  0  0
    5.5277   -5.3682    3.4146 C   0  0  0  0  0  0  0  0  0  0  0  0
    4.4805   -5.0211    4.2589 C   0  0  0  0  0  0  0  0  0  0  0  0
    3.3846   -4.3116    3.7837 C   0  0  0  0  0  0  0  0  0  0  0  0
    3.3542   -3.9039    2.4485 C   0  0  0  0  0  0  0  0  0  0  0  0
    4.5360   -5.3616    5.5534 F   0  0  0  0  0  0  0  0  0  0  0  0
    4.4149   -1.1670    0.2293 C   0  0  0  0  0  0  0  0  0  0  0  0
    3.0623   -1.2194    0.1546 N   0  0  0  0  0  0  0  0  0  0  0  0
    0.5285   -1.1837    0.1214 H   0  0  0  0  0  0  0  0  0  0  0  0
    0.5357    0.2142   -0.9768 H   0  0  0  0  0  0  0  0  0  0  0  0
    0.3960    0.4558    0.7853 H   0  0  0  0  0  0  0  0  0  0  0  0
    2.3778    2.1034    0.0553 H   0  0  0  0  0  0  0  0  0  0  0  0
    4.8491    2.2187    0.2788 H   0  0  0  0  0  0  0  0  0  0  0  0
    8.8679    0.8532    0.3126 H   0  0  0  0  0  0  0  0  0  0  0  0
   11.1800   -0.5112   -0.9506 H   0  0  0  0  0  0  0  0  0  0  0  0
   10.6883    2.4042   -0.1433 H   0  0  0  0  0  0  0  0  0  0  0  0
   10.6594    1.7443   -1.7723 H   0  0  0  0  0  0  0  0  0  0  0  0
   12.8000    2.9237   -1.2689 H   0  0  0  0  0  0  0  0  0  0  0  0
   13.0586    1.2295   -1.6776 H   0  0  0  0  0  0  0  0  0  0  0  0
   13.0113    2.4343    1.1344 H   0  0  0  0  0  0  0  0  0  0  0  0
   14.4297    1.8357    0.2749 H   0  0  0  0  0  0  0  0  0  0  0  0
   13.5764    0.1762    1.9303 H   0  0  0  0  0  0  0  0  0  0  0  0
   13.5377   -0.4621    0.2888 H   0  0  0  0  0  0  0  0  0  0  0  0
   11.4470   -1.0255    1.4365 H   0  0  0  0  0  0  0  0  0  0  0  0
   11.1758    0.6536    1.8790 H   0  0  0  0  0  0  0  0  0  0  0  0
    7.0587   -3.2007   -0.1749 H   0  0  0  0  0  0  0  0  0  0  0  0
    4.9587   -4.3455   -0.4828 H   0  0  0  0  0  0  0  0  0  0  0  0
    3.4434   -3.5485   -0.2164 H   0  0  0  0  0  0  0  0  0  0  0  0
    6.3319   -5.2245    1.4293 H   0  0  0  0  0  0  0  0  0  0  0  0
    6.3705   -5.9283    3.8069 H   0  0  0  0  0  0  0  0  0  0  0  0
    2.5747   -4.0583    4.4602 H   0  0  0  0  0  0  0  0  0  0  0  0
    2.5049   -3.3270    2.0863 H   0  0  0  0  0  0  0  0  0  0  0  0
  1  2  1  0  0  0  0
  1 30  1  0  0  0  0
  1 31  1  0  0  0  0
  1 32  1  0  0  0  0
  2 29  2  0  0  0  0
  2  3  1  0  0  0  0
  3  4  2  0  0  0  0
  3 33  1  0  0  0  0
  4  5  1  0  0  0  0
  4 34  1  0  0  0  0
  5 28  2  0  0  0  0
  5  6  1  0  0  0  0
  6  7  2  0  0  0  0
  6  8  1  0  0  0  0
  8  9  1  0  0  0  0
  8 18  2  0  0  0  0
  9 10  2  0  0  0  0
  9 11  1  0  0  0  0
 11 12  1  0  0  0  0
 11 35  1  0  0  0  0
 12 17  1  0  0  0  0
 12 13  1  0  0  0  0
 12 36  1  0  0  0  0
 13 14  1  0  0  0  0
 13 37  1  0  0  0  0
 13 38  1  0  0  0  0
 14 15  1  0  0  0  0
 14 39  1  0  0  0  0
 14 40  1  0  0  0  0
 15 16  1  0  0  0  0
 15 41  1  0  0  0  0
 15 42  1  0  0  0  0
 16 17  1  0  0  0  0
 16 43  1  0  0  0  0
 16 44  1  0  0  0  0
 17 45  1  0  0  0  0
 17 46  1  0  0  0  0
 18 19  1  0  0  0  0
 18 47  1  0  0  0  0
 19 20  1  0  0  0  0
 19 28  1  0  0  0  0
 20 21  1  0  0  0  0
 20 48  1  0  0  0  0
 20 49  1  0  0  0  0
 21 26  2  0  0  0  0
 21 22  1  0  0  0  0
 22 23  2  0  0  0  0
 22 50  1  0  0  0  0
 23 24  1  0  0  0  0
 23 51  1  0  0  0  0
 24 25  2  0  0  0  0
 24 27  1  0  0  0  0
 25 26  1  0  0  0  0
 25 52  1  0  0  0  0
 26 53  1  0  0  0  0
 28 29  1  0  0  0  0
M  END
$$$$
CHEMBL1760661
 OpenBabel12022417453D

 55 57  0  0  0  0  0  0  0  0999 V2000
    3.3501   -1.9348    3.6236 C   0  0  0  0  0  0  0  0  0  0  0  0
    2.1317   -1.2436    3.2889 O   0  0  0  0  0  0  0  0  0  0  0  0
    2.0831    0.0901    3.6116 C   0  0  0  0  0  0  0  0  0  0  0  0
    3.0275    0.5839    4.5505 C   0  0  0  0  0  0  0  0  0  0  0  0
    3.1782    1.9225    4.8233 C   0  0  0  0  0  0  0  0  0  0  0  0
    2.3867    2.8524    4.1814 C   0  0  0  0  0  0  0  0  0  0  0  0
    1.3786    2.3882    3.3065 C   0  0  0  0  0  0  0  0  0  0  0  0
    1.1454    0.9814    3.0220 C   0  0  0  0  0  0  0  0  0  0  0  0
   -0.1434    0.7151    2.1318 C   0  0  0  0  0  0  0  0  0  0  0  0
   -0.6205   -0.6106    1.6481 N   0  0  0  0  0  0  0  0  0  0  0  0
   -0.2633   -1.8258    2.1878 C   0  0  0  0  0  0  0  0  0  0  0  0
   -0.7877   -2.1465    3.5134 C   0  0  0  0  0  0  0  0  0  0  0  0
   -1.0748   -1.2761    4.3297 O   0  0  0  0  0  0  0  0  0  0  0  0
   -1.1618   -3.4547    3.7020 N   0  0  0  0  0  0  0  0  0  0  0  0
   -1.8789   -3.8861    4.8989 C   0  0  0  0  0  0  0  0  0  0  0  0
   -3.4251   -3.9893    4.7548 C   0  0  0  0  0  0  0  0  0  0  0  0
   -3.8446   -4.9192    3.6162 C   0  0  0  0  0  0  0  0  0  0  0  0
   -4.0184   -4.5052    6.0739 C   0  0  0  0  0  0  0  0  0  0  0  0
   -4.0155   -2.7094    4.5106 O   0  0  0  0  0  0  0  0  0  0  0  0
   -0.1161   -2.5261    0.9945 C   0  0  0  0  0  0  0  0  0  0  0  0
   -1.3958   -2.2698    0.4063 C   0  0  0  0  0  0  0  0  0  0  0  0
   -2.2890   -3.0450   -0.3796 C   0  0  0  0  0  0  0  0  0  0  0  0
   -3.6518   -2.7394   -0.3531 C   0  0  0  0  0  0  0  0  0  0  0  0
   -4.6033   -3.6628   -0.9348 C   0  0  0  0  0  0  0  0  0  0  0  0
   -5.3654   -4.4172   -1.4021 N   0  0  0  0  0  0  0  0  0  0  0  0
   -4.0752   -1.5991    0.3323 C   0  0  0  0  0  0  0  0  0  0  0  0
   -3.1694   -0.6895    0.9650 C   0  0  0  0  0  0  0  0  0  0  0  0
   -1.8032   -1.0384    0.9799 C   0  0  0  0  0  0  0  0  0  0  0  0
    2.7582    4.0985    4.5567 O   0  0  0  0  0  0  0  0  0  0  0  0
    2.1696    5.3080    4.1507 C   0  0  0  0  0  0  0  0  0  0  0  0
    1.1917    5.1656    3.2411 F   0  0  0  0  0  0  0  0  0  0  0  0
    1.6717    5.9334    5.2402 F   0  0  0  0  0  0  0  0  0  0  0  0
    3.1364    6.0973    3.6296 F   0  0  0  0  0  0  0  0  0  0  0  0
    3.3073   -2.9507    3.2251 H   0  0  0  0  0  0  0  0  0  0  0  0
    3.4792   -2.0369    4.7096 H   0  0  0  0  0  0  0  0  0  0  0  0
    4.2230   -1.4369    3.1794 H   0  0  0  0  0  0  0  0  0  0  0  0
    3.6993   -0.0694    5.1047 H   0  0  0  0  0  0  0  0  0  0  0  0
    3.9427    2.2397    5.5355 H   0  0  0  0  0  0  0  0  0  0  0  0
    0.7336    3.1089    2.8115 H   0  0  0  0  0  0  0  0  0  0  0  0
    0.0262    1.2654    1.1957 H   0  0  0  0  0  0  0  0  0  0  0  0
   -1.0027    1.1591    2.6467 H   0  0  0  0  0  0  0  0  0  0  0  0
   -1.0143   -4.1087    2.9461 H   0  0  0  0  0  0  0  0  0  0  0  0
   -1.6453   -3.1813    5.7057 H   0  0  0  0  0  0  0  0  0  0  0  0
   -1.4603   -4.8605    5.1655 H   0  0  0  0  0  0  0  0  0  0  0  0
   -3.5065   -5.9453    3.7919 H   0  0  0  0  0  0  0  0  0  0  0  0
   -3.4466   -4.5775    2.6557 H   0  0  0  0  0  0  0  0  0  0  0  0
   -4.9363   -4.9301    3.5065 H   0  0  0  0  0  0  0  0  0  0  0  0
   -3.6453   -5.5056    6.3188 H   0  0  0  0  0  0  0  0  0  0  0  0
   -5.1132   -4.5481    6.0279 H   0  0  0  0  0  0  0  0  0  0  0  0
   -3.7719   -3.8335    6.9044 H   0  0  0  0  0  0  0  0  0  0  0  0
   -3.4309   -2.2245    3.9003 H   0  0  0  0  0  0  0  0  0  0  0  0
    0.4798   -3.4178    0.8220 H   0  0  0  0  0  0  0  0  0  0  0  0
   -1.9428   -3.9719   -0.8304 H   0  0  0  0  0  0  0  0  0  0  0  0
   -5.1544   -1.4216    0.4508 H   0  0  0  0  0  0  0  0  0  0  0  0
   -3.5576    0.1379    1.5482 H   0  0  0  0  0  0  0  0  0  0  0  0
  1  2  1  0  0  0  0
  1 34  1  0  0  0  0
  1 35  1  0  0  0  0
  1 36  1  0  0  0  0
  2  3  1  0  0  0  0
  3  8  2  0  0  0  0
  3  4  1  0  0  0  0
  4  5  2  0  0  0  0
  4 37  1  0  0  0  0
  5  6  1  0  0  0  0
  5 38  1  0  0  0  0
  6  7  2  0  0  0  0
  6 29  1  0  0  0  0
  7  8  1  0  0  0  0
  7 39  1  0  0  0  0
  8  9  1  0  0  0  0
  9 10  1  0  0  0  0
  9 40  1  0  0  0  0
  9 41  1  0  0  0  0
 10 28  1  0  0  0  0
 10 11  1  0  0  0  0
 11 12  1  0  0  0  0
 11 20  2  0  0  0  0
 12 13  2  0  0  0  0
 12 14  1  0  0  0  0
 14 15  1  0  0  0  0
 14 42  1  0  0  0  0
 15 16  1  0  0  0  0
 15 43  1  0  0  0  0
 15 44  1  0  0  0  0
 16 17  1  0  0  0  0
 16 18  1  0  0  0  0
 16 19  1  0  0  0  0
 17 45  1  0  0  0  0
 17 46  1  0  0  0  0
 17 47  1  0  0  0  0
 18 48  1  0  0  0  0
 18 49  1  0  0  0  0
 18 50  1  0  0  0  0
 19 51  1  0  0  0  0
 20 21  1  0  0  0  0
 20 52  1  0  0  0  0
 21 28  2  0  0  0  0
 21 22  1  0  0  0  0
 22 23  2  0  0  0  0
 22 53  1  0  0  0  0
 23 24  1  0  0  0  0
 23 26  1  0  0  0  0
 24 25  3  0  0  0  0
 26 27  2  0  0  0  0
 26 54  1  0  0  0  0
 27 28  1  0  0  0  0
 27 55  1  0  0  0  0
 29 30  1  0  0  0  0
 30 31  1  0  0  0  0
 30 32  1  0  0  0  0
 30 33  1  0  0  0  0
M  END
$$$$
CHEMBL1760658
 OpenBabel12022417453D

 64 67  0  0  0  0  0  0  0  0999 V2000
    0.7475   -1.5668    3.9665 C   0  0  0  0  0  0  0  0  0  0  0  0
    1.5397   -2.7202    3.8447 O   0  0  0  0  0  0  0  0  0  0  0  0
    1.8894   -3.2521    2.6357 C   0  0  0  0  0  0  0  0  0  0  0  0
    2.9913   -4.1129    2.8716 C   0  0  0  0  0  0  0  0  0  0  0  0
    3.5733   -4.8885    1.8841 C   0  0  0  0  0  0  0  0  0  0  0  0
    3.1016   -4.8195    0.5791 C   0  0  0  0  0  0  0  0  0  0  0  0
    3.7745   -5.7926   -0.4431 C   0  0  0  0  0  0  0  0  0  0  0  0
    3.5257   -7.2729   -0.0285 C   0  0  0  0  0  0  0  0  0  0  0  0
    3.2539   -5.6323   -1.8786 C   0  0  0  0  0  0  0  0  0  0  0  0
    5.3229   -5.6272   -0.4962 C   0  0  0  0  0  0  0  0  0  0  0  0
    1.9987   -3.9056    0.3295 C   0  0  0  0  0  0  0  0  0  0  0  0
    1.3110   -3.1185    1.3431 C   0  0  0  0  0  0  0  0  0  0  0  0
   -0.0391   -2.2565    1.1654 C   0  0  0  0  0  0  0  0  0  0  0  0
   -0.6758   -1.8997   -0.1416 N   0  0  0  0  0  0  0  0  0  0  0  0
   -0.2694   -2.5254   -1.2947 C   0  0  0  0  0  0  0  0  0  0  0  0
   -0.7239   -3.9135   -1.4162 C   0  0  0  0  0  0  0  0  0  0  0  0
   -1.2672   -4.5129   -0.4868 O   0  0  0  0  0  0  0  0  0  0  0  0
   -0.5965   -4.5730   -2.5778 N   0  0  0  0  0  0  0  0  0  0  0  0
    0.0964   -4.1537   -3.7464 C   0  0  0  0  0  0  0  0  0  0  0  0
   -0.8352   -4.2649   -4.9143 C   0  0  0  0  0  0  0  0  0  0  0  0
   -1.8337   -3.1292   -5.0157 C   0  0  0  0  0  0  0  0  0  0  0  0
   -2.6445   -3.2310   -6.1779 O   0  0  0  0  0  0  0  0  0  0  0  0
   -0.2510   -4.9268   -6.1410 C   0  0  0  0  0  0  0  0  0  0  0  0
   -1.2860   -5.6534   -5.3271 C   0  0  0  0  0  0  0  0  0  0  0  0
   -0.2783   -1.3781   -2.0969 C   0  0  0  0  0  0  0  0  0  0  0  0
   -1.6271   -0.9694   -1.9235 C   0  0  0  0  0  0  0  0  0  0  0  0
   -2.6128   -0.4024   -2.7752 C   0  0  0  0  0  0  0  0  0  0  0  0
   -3.9717   -0.4862   -2.4224 C   0  0  0  0  0  0  0  0  0  0  0  0
   -4.9892   -0.1108   -3.3644 C   0  0  0  0  0  0  0  0  0  0  0  0
   -5.8084    0.2164   -4.1181 N   0  0  0  0  0  0  0  0  0  0  0  0
   -4.2882   -1.0193   -1.1599 C   0  0  0  0  0  0  0  0  0  0  0  0
   -3.2916   -1.4286   -0.2131 C   0  0  0  0  0  0  0  0  0  0  0  0
   -1.9331   -1.4009   -0.6073 C   0  0  0  0  0  0  0  0  0  0  0  0
    0.8045   -1.2453    5.0108 H   0  0  0  0  0  0  0  0  0  0  0  0
   -0.2956   -1.8097    3.7625 H   0  0  0  0  0  0  0  0  0  0  0  0
    1.1248   -0.7451    3.3534 H   0  0  0  0  0  0  0  0  0  0  0  0
    3.3920   -4.2037    3.8822 H   0  0  0  0  0  0  0  0  0  0  0  0
    4.3816   -5.5602    2.1661 H   0  0  0  0  0  0  0  0  0  0  0  0
    2.4574   -7.5040    0.0250 H   0  0  0  0  0  0  0  0  0  0  0  0
    3.9677   -7.5134    0.9463 H   0  0  0  0  0  0  0  0  0  0  0  0
    3.9808   -7.9678   -0.7483 H   0  0  0  0  0  0  0  0  0  0  0  0
    2.1825   -5.8456   -1.9338 H   0  0  0  0  0  0  0  0  0  0  0  0
    3.7558   -6.3311   -2.5615 H   0  0  0  0  0  0  0  0  0  0  0  0
    3.4336   -4.6215   -2.2574 H   0  0  0  0  0  0  0  0  0  0  0  0
    5.8063   -5.8676    0.4585 H   0  0  0  0  0  0  0  0  0  0  0  0
    5.6169   -4.6107   -0.7734 H   0  0  0  0  0  0  0  0  0  0  0  0
    5.7663   -6.3126   -1.2336 H   0  0  0  0  0  0  0  0  0  0  0  0
    1.6847   -3.8410   -0.7030 H   0  0  0  0  0  0  0  0  0  0  0  0
    0.2095   -1.2529    1.5260 H   0  0  0  0  0  0  0  0  0  0  0  0
   -0.8322   -2.7075    1.7680 H   0  0  0  0  0  0  0  0  0  0  0  0
   -1.0118   -5.4945   -2.5388 H   0  0  0  0  0  0  0  0  0  0  0  0
    0.9539   -4.8260   -3.8310 H   0  0  0  0  0  0  0  0  0  0  0  0
    0.5062   -3.1498   -3.6667 H   0  0  0  0  0  0  0  0  0  0  0  0
   -1.3214   -2.1621   -5.0421 H   0  0  0  0  0  0  0  0  0  0  0  0
   -2.5060   -3.1365   -4.1506 H   0  0  0  0  0  0  0  0  0  0  0  0
   -2.0774   -3.0294   -6.9388 H   0  0  0  0  0  0  0  0  0  0  0  0
    0.7735   -5.2830   -6.0816 H   0  0  0  0  0  0  0  0  0  0  0  0
   -0.5233   -4.5612   -7.1193 H   0  0  0  0  0  0  0  0  0  0  0  0
   -2.2823   -5.7667   -5.7409 H   0  0  0  0  0  0  0  0  0  0  0  0
   -0.9760   -6.4966   -4.7186 H   0  0  0  0  0  0  0  0  0  0  0  0
    0.3489   -1.1546   -2.9470 H   0  0  0  0  0  0  0  0  0  0  0  0
   -2.3433   -0.0678   -3.7760 H   0  0  0  0  0  0  0  0  0  0  0  0
   -5.3442   -1.1787   -0.9224 H   0  0  0  0  0  0  0  0  0  0  0  0
   -3.6054   -1.8884    0.7170 H   0  0  0  0  0  0  0  0  0  0  0  0
  1  2  1  0  0  0  0
  1 34  1  0  0  0  0
  1 35  1  0  0  0  0
  1 36  1  0  0  0  0
  2  3  1  0  0  0  0
  3 12  2  0  0  0  0
  3  4  1  0  0  0  0
  4  5  2  0  0  0  0
  4 37  1  0  0  0  0
  5  6  1  0  0  0  0
  5 38  1  0  0  0  0
  6  7  1  0  0  0  0
  6 11  2  0  0  0  0
  7  8  1  0  0  0  0
  7  9  1  0  0  0  0
  7 10  1  0  0  0  0
  8 39  1  0  0  0  0
  8 40  1  0  0  0  0
  8 41  1  0  0  0  0
  9 42  1  0  0  0  0
  9 43  1  0  0  0  0
  9 44  1  0  0  0  0
 10 45  1  0  0  0  0
 10 46  1  0  0  0  0
 10 47  1  0  0  0  0
 11 12  1  0  0  0  0
 11 48  1  0  0  0  0
 12 13  1  0  0  0  0
 13 14  1  0  0  0  0
 13 49  1  0  0  0  0
 13 50  1  0  0  0  0
 14 33  1  0  0  0  0
 14 15  1  0  0  0  0
 15 16  1  0  0  0  0
 15 25  2  0  0  0  0
 16 17  2  0  0  0  0
 16 18  1  0  0  0  0
 18 19  1  0  0  0  0
 18 51  1  0  0  0  0
 19 20  1  0  0  0  0
 19 52  1  0  0  0  0
 19 53  1  0  0  0  0
 20 24  1  0  0  0  0
 20 21  1  0  0  0  0
 20 23  1  0  0  0  0
 21 22  1  0  0  0  0
 21 54  1  0  0  0  0
 21 55  1  0  0  0  0
 22 56  1  0  0  0  0
 23 24  1  0  0  0  0
 23 57  1  0  0  0  0
 23 58  1  0  0  0  0
 24 59  1  0  0  0  0
 24 60  1  0  0  0  0
 25 26  1  0  0  0  0
 25 61  1  0  0  0  0
 26 33  2  0  0  0  0
 26 27  1  0  0  0  0
 27 28  2  0  0  0  0
 27 62  1  0  0  0  0
 28 29  1  0  0  0  0
 28 31  1  0  0  0  0
 29 30  3  0  0  0  0
 31 32  2  0  0  0  0
 31 63  1  0  0  0  0
 32 33  1  0  0  0  0
 32 64  1  0  0  0  0
M  END
$$$$
CHEMBL250768
 OpenBabel12022417453D

 54 57  0  0  0  0  0  0  0  0999 V2000
    1.5877   -0.6908    0.6626 O   0  0  0  0  0  0  0  0  0  0  0  0
    2.1130   -0.1115   -0.2846 C   0  0  0  0  0  0  0  0  0  0  0  0
    2.6627    1.2733   -0.1354 C   0  0  0  0  0  0  0  0  0  0  0  0
    2.4273    1.9780    0.9858 C   0  0  0  0  0  0  0  0  0  0  0  0
    2.9866    3.2129    1.3381 N   0  0  0  0  0  0  0  0  0  0  0  0
    2.7319    3.8023    2.6758 C   0  0  0  0  0  0  0  0  0  0  0  0
    1.9988    5.1362    2.6758 C   0  0  0  0  0  0  0  0  0  0  0  0
    2.1827    6.0133    3.7635 C   0  0  0  0  0  0  0  0  0  0  0  0
    1.4229    7.1814    3.8848 C   0  0  0  0  0  0  0  0  0  0  0  0
    0.4688    7.4928    2.9231 C   0  0  0  0  0  0  0  0  0  0  0  0
    0.2802    6.6371    1.8315 C   0  0  0  0  0  0  0  0  0  0  0  0
    1.0378    5.4670    1.7109 C   0  0  0  0  0  0  0  0  0  0  0  0
    4.1154    3.6497    0.5960 C   0  0  0  0  0  0  0  0  0  0  0  0
    5.0029    4.6494    1.0279 C   0  0  0  0  0  0  0  0  0  0  0  0
    6.1773    4.9392    0.3185 C   0  0  0  0  0  0  0  0  0  0  0  0
    6.4681    4.2764   -0.8696 C   0  0  0  0  0  0  0  0  0  0  0  0
    5.5764    3.3313   -1.3618 C   0  0  0  0  0  0  0  0  0  0  0  0
    4.4235    3.0148   -0.6285 C   0  0  0  0  0  0  0  0  0  0  0  0
    3.5569    1.9182   -1.1232 C   0  0  0  0  0  0  0  0  0  0  0  0
    3.6268    1.5261   -2.2857 O   0  0  0  0  0  0  0  0  0  0  0  0
    2.2818   -0.6889   -1.5217 N   0  0  0  0  0  0  0  0  0  0  0  0
    1.9854   -2.0937   -1.8268 C   0  0  0  0  0  0  0  0  0  0  0  0
    1.2283   -2.1957   -3.1575 C   0  0  0  0  0  0  0  0  0  0  0  0
    2.1192   -2.0746   -4.3946 C   0  0  0  0  0  0  0  0  0  0  0  0
    2.6126   -3.4292   -4.8981 C   0  0  0  0  0  0  0  0  0  0  0  0
    3.6106   -4.1492   -3.9939 C   0  0  0  0  0  0  0  0  0  0  0  0
    3.2287   -4.2657   -2.5160 C   0  0  0  0  0  0  0  0  0  0  0  0
    3.2763   -2.9301   -1.7656 C   0  0  0  0  0  0  0  0  0  0  0  0
    1.7722    1.5671    1.7530 H   0  0  0  0  0  0  0  0  0  0  0  0
    3.6710    3.8788    3.2382 H   0  0  0  0  0  0  0  0  0  0  0  0
    2.1063    3.1207    3.2677 H   0  0  0  0  0  0  0  0  0  0  0  0
    2.9070    5.7816    4.5414 H   0  0  0  0  0  0  0  0  0  0  0  0
    1.5690    7.8402    4.7368 H   0  0  0  0  0  0  0  0  0  0  0  0
   -0.1407    8.3873    3.0249 H   0  0  0  0  0  0  0  0  0  0  0  0
   -0.4748    6.8773    1.0854 H   0  0  0  0  0  0  0  0  0  0  0  0
    0.8530    4.8076    0.8680 H   0  0  0  0  0  0  0  0  0  0  0  0
    4.8300    5.2105    1.9410 H   0  0  0  0  0  0  0  0  0  0  0  0
    6.8737    5.6784    0.7083 H   0  0  0  0  0  0  0  0  0  0  0  0
    7.3893    4.4891   -1.4061 H   0  0  0  0  0  0  0  0  0  0  0  0
    5.7962    2.8119   -2.2920 H   0  0  0  0  0  0  0  0  0  0  0  0
    2.7544   -0.1343   -2.2368 H   0  0  0  0  0  0  0  0  0  0  0  0
    1.3100   -2.4632   -1.0451 H   0  0  0  0  0  0  0  0  0  0  0  0
    0.4615   -1.4116   -3.1914 H   0  0  0  0  0  0  0  0  0  0  0  0
    0.6801   -3.1465   -3.1911 H   0  0  0  0  0  0  0  0  0  0  0  0
    2.9640   -1.3992   -4.2194 H   0  0  0  0  0  0  0  0  0  0  0  0
    1.5232   -1.6230   -5.1972 H   0  0  0  0  0  0  0  0  0  0  0  0
    3.0890   -3.2810   -5.8762 H   0  0  0  0  0  0  0  0  0  0  0  0
    1.7520   -4.0848   -5.0815 H   0  0  0  0  0  0  0  0  0  0  0  0
    4.5885   -3.6589   -4.0774 H   0  0  0  0  0  0  0  0  0  0  0  0
    3.7496   -5.1622   -4.3948 H   0  0  0  0  0  0  0  0  0  0  0  0
    3.9634   -4.9351   -2.0503 H   0  0  0  0  0  0  0  0  0  0  0  0
    2.2551   -4.7557   -2.4004 H   0  0  0  0  0  0  0  0  0  0  0  0
    3.4913   -3.1329   -0.7080 H   0  0  0  0  0  0  0  0  0  0  0  0
    4.1312   -2.3429   -2.1261 H   0  0  0  0  0  0  0  0  0  0  0  0
  1  2  2  0  0  0  0
  2  3  1  0  0  0  0
  2 21  1  0  0  0  0
  3 19  1  0  0  0  0
  3  4  2  0  0  0  0
  4  5  1  0  0  0  0
  4 29  1  0  0  0  0
  5  6  1  0  0  0  0
  5 13  1  0  0  0  0
  6  7  1  0  0  0  0
  6 30  1  0  0  0  0
  6 31  1  0  0  0  0
  7 12  2  0  0  0  0
  7  8  1  0  0  0  0
  8  9  2  0  0  0  0
  8 32  1  0  0  0  0
  9 10  1  0  0  0  0
  9 33  1  0  0  0  0
 10 11  2  0  0  0  0
 10 34  1  0  0  0  0
 11 12  1  0  0  0  0
 11 35  1  0  0  0  0
 12 36  1  0  0  0  0
 13 18  2  0  0  0  0
 13 14  1  0  0  0  0
 14 15  2  0  0  0  0
 14 37  1  0  0  0  0
 15 16  1  0  0  0  0
 15 38  1  0  0  0  0
 16 17  2  0  0  0  0
 16 39  1  0  0  0  0
 17 18  1  0  0  0  0
 17 40  1  0  0  0  0
 18 19  1  0  0  0  0
 19 20  2  0  0  0  0
 21 22  1  0  0  0  0
 21 41  1  0  0  0  0
 22 28  1  0  0  0  0
 22 23  1  0  0  0  0
 22 42  1  0  0  0  0
 23 24  1  0  0  0  0
 23 43  1  0  0  0  0
 23 44  1  0  0  0  0
 24 25  1  0  0  0  0
 24 45  1  0  0  0  0
 24 46  1  0  0  0  0
 25 26  1  0  0  0  0
 25 47  1  0  0  0  0
 25 48  1  0  0  0  0
 26 27  1  0  0  0  0
 26 49  1  0  0  0  0
 26 50  1  0  0  0  0
 27 28  1  0  0  0  0
 27 51  1  0  0  0  0
 27 52  1  0  0  0  0
 28 53  1  0  0  0  0
 28 54  1  0  0  0  0
M  END
$$$$
CHEMBL1760656
 OpenBabel12022417453D

 56 59  0  0  0  0  0  0  0  0999 V2000
   -2.1150    4.9174    1.0286 C   0  0  0  0  0  0  0  0  0  0  0  0
   -1.0438    3.9496    1.4786 C   0  0  0  0  0  0  0  0  0  0  0  0
   -1.1813    3.5373    2.8614 N   0  0  0  0  0  0  0  0  0  0  0  0
   -0.3128    2.5690    3.3388 C   0  0  0  0  0  0  0  0  0  0  0  0
    0.4506    1.9865    2.5679 O   0  0  0  0  0  0  0  0  0  0  0  0
   -0.3527    2.2889    4.7694 C   0  0  0  0  0  0  0  0  0  0  0  0
   -1.1649    2.8412    5.7510 C   0  0  0  0  0  0  0  0  0  0  0  0
   -0.8208    2.2898    7.0118 C   0  0  0  0  0  0  0  0  0  0  0  0
    0.2391    1.4111    6.8021 C   0  0  0  0  0  0  0  0  0  0  0  0
    0.8780    0.7600    7.8751 C   0  0  0  0  0  0  0  0  0  0  0  0
    0.3773    0.9677    9.1677 C   0  0  0  0  0  0  0  0  0  0  0  0
   -0.7179    1.7971    9.3951 C   0  0  0  0  0  0  0  0  0  0  0  0
   -1.3169    2.4774    8.3182 C   0  0  0  0  0  0  0  0  0  0  0  0
   -1.2418    1.9632   10.7191 C   0  0  0  0  0  0  0  0  0  0  0  0
   -1.6689    2.0905   11.7940 N   0  0  0  0  0  0  0  0  0  0  0  0
    0.4640    1.3622    5.4299 N   0  0  0  0  0  0  0  0  0  0  0  0
    1.4154    0.4269    4.7805 C   0  0  0  0  0  0  0  0  0  0  0  0
    2.7810    1.0015    4.4474 C   0  0  0  0  0  0  0  0  0  0  0  0
    3.0719    2.3234    4.8677 C   0  0  0  0  0  0  0  0  0  0  0  0
    4.1938    3.0220    4.4337 C   0  0  0  0  0  0  0  0  0  0  0  0
    5.1678    2.3458    3.7205 C   0  0  0  0  0  0  0  0  0  0  0  0
    4.9605    1.0123    3.3754 C   0  0  0  0  0  0  0  0  0  0  0  0
    3.7693    0.3324    3.7002 C   0  0  0  0  0  0  0  0  0  0  0  0
    3.8096   -0.9324    3.1899 O   0  0  0  0  0  0  0  0  0  0  0  0
    2.7473   -1.8503    3.3308 C   0  0  0  0  0  0  0  0  0  0  0  0
    4.4315    4.3328    4.7069 O   0  0  0  0  0  0  0  0  0  0  0  0
    3.3278    5.2368    4.6594 C   0  0  0  0  0  0  0  0  0  0  0  0
    2.1363    4.6735    4.3622 F   0  0  0  0  0  0  0  0  0  0  0  0
    3.2161    5.8523    5.8575 F   0  0  0  0  0  0  0  0  0  0  0  0
    3.5750    6.1814    3.7240 F   0  0  0  0  0  0  0  0  0  0  0  0
   -3.4103    4.2801    0.5788 C   0  0  0  0  0  0  0  0  0  0  0  0
   -4.2966    4.1649    1.6826 O   0  0  0  0  0  0  0  0  0  0  0  0
   -1.6354    6.1174    0.2228 C   0  0  0  0  0  0  0  0  0  0  0  0
   -2.1620    6.3219    1.6100 C   0  0  0  0  0  0  0  0  0  0  0  0
   -0.0451    4.3907    1.3729 H   0  0  0  0  0  0  0  0  0  0  0  0
   -1.0608    3.0527    0.8488 H   0  0  0  0  0  0  0  0  0  0  0  0
   -1.5974    4.1861    3.5142 H   0  0  0  0  0  0  0  0  0  0  0  0
   -1.9348    3.5845    5.5932 H   0  0  0  0  0  0  0  0  0  0  0  0
    1.7393    0.1170    7.7233 H   0  0  0  0  0  0  0  0  0  0  0  0
    0.8598    0.4644   10.0032 H   0  0  0  0  0  0  0  0  0  0  0  0
   -2.1574    3.1470    8.4893 H   0  0  0  0  0  0  0  0  0  0  0  0
    0.9021    0.0791    3.8840 H   0  0  0  0  0  0  0  0  0  0  0  0
    1.5230   -0.4282    5.4558 H   0  0  0  0  0  0  0  0  0  0  0  0
    2.3828    2.8391    5.5295 H   0  0  0  0  0  0  0  0  0  0  0  0
    6.0820    2.8474    3.4159 H   0  0  0  0  0  0  0  0  0  0  0  0
    5.7337    0.4915    2.8108 H   0  0  0  0  0  0  0  0  0  0  0  0
    3.0331   -2.7636    2.7970 H   0  0  0  0  0  0  0  0  0  0  0  0
    1.8348   -1.4861    2.8560 H   0  0  0  0  0  0  0  0  0  0  0  0
    2.5965   -2.1214    4.3783 H   0  0  0  0  0  0  0  0  0  0  0  0
   -3.2506    3.2881    0.1427 H   0  0  0  0  0  0  0  0  0  0  0  0
   -3.9101    4.8881   -0.1833 H   0  0  0  0  0  0  0  0  0  0  0  0
   -3.9521    3.4490    2.2406 H   0  0  0  0  0  0  0  0  0  0  0  0
   -2.2382    6.4717   -0.6071 H   0  0  0  0  0  0  0  0  0  0  0  0
   -0.5711    6.2558    0.0615 H   0  0  0  0  0  0  0  0  0  0  0  0
   -1.4519    6.6029    2.3788 H   0  0  0  0  0  0  0  0  0  0  0  0
   -3.1289    6.8062    1.7107 H   0  0  0  0  0  0  0  0  0  0  0  0
  1 34  1  0  0  0  0
  1  2  1  0  0  0  0
  1 31  1  0  0  0  0
  1 33  1  0  0  0  0
  2  3  1  0  0  0  0
  2 35  1  0  0  0  0
  2 36  1  0  0  0  0
  3  4  1  0  0  0  0
  3 37  1  0  0  0  0
  4  5  2  0  0  0  0
  4  6  1  0  0  0  0
  6 16  1  0  0  0  0
  6  7  2  0  0  0  0
  7  8  1  0  0  0  0
  7 38  1  0  0  0  0
  8 13  2  0  0  0  0
  8  9  1  0  0  0  0
  9 10  2  0  0  0  0
  9 16  1  0  0  0  0
 10 11  1  0  0  0  0
 10 39  1  0  0  0  0
 11 12  2  0  0  0  0
 11 40  1  0  0  0  0
 12 13  1  0  0  0  0
 12 14  1  0  0  0  0
 13 41  1  0  0  0  0
 14 15  3  0  0  0  0
 16 17  1  0  0  0  0
 17 18  1  0  0  0  0
 17 42  1  0  0  0  0
 17 43  1  0  0  0  0
 18 23  2  0  0  0  0
 18 19  1  0  0  0  0
 19 20  2  0  0  0  0
 19 44  1  0  0  0  0
 20 21  1  0  0  0  0
 20 26  1  0  0  0  0
 21 22  2  0  0  0  0
 21 45  1  0  0  0  0
 22 23  1  0  0  0  0
 22 46  1  0  0  0  0
 23 24  1  0  0  0  0
 24 25  1  0  0  0  0
 25 47  1  0  0  0  0
 25 48  1  0  0  0  0
 25 49  1  0  0  0  0
 26 27  1  0  0  0  0
 27 28  1  0  0  0  0
 27 29  1  0  0  0  0
 27 30  1  0  0  0  0
 31 32  1  0  0  0  0
 31 50  1  0  0  0  0
 31 51  1  0  0  0  0
 32 52  1  0  0  0  0
 33 34  1  0  0  0  0
 33 53  1  0  0  0  0
 33 54  1  0  0  0  0
 34 55  1  0  0  0  0
 34 56  1  0  0  0  0
M  END
$$$$
CHEMBL3234680
 OpenBabel12022417453D

 57 62  0  0  1  0  0  0  0  0999 V2000
    1.3740    0.1328   -0.5290 O   0  0  0  0  0  0  0  0  0  0  0  0
    2.5462    0.2940   -0.3059 C   0  0  0  0  0  0  0  0  0  0  0  0
    2.9931    1.1335    0.8761 C   0  0  0  0  0  0  0  0  0  0  0  0
    2.0982    1.7860    1.7938 C   0  0  0  0  0  0  0  0  0  0  0  0
    2.8559    2.1333    2.9019 C   0  0  0  0  0  0  0  0  0  0  0  0
    2.3553    2.8739    4.1016 C   0  0  0  0  0  0  0  0  0  0  0  0
    0.8180    3.0037    4.0562 C   0  0  0  0  0  0  0  0  0  0  0  0
    0.2864    3.2557    2.6349 C   0  0  0  0  0  0  0  0  0  0  0  0
    0.6424    2.0868    1.6939 C   0  0  0  0  0  0  0  0  0  0  0  0
    4.1514    1.7600    2.6049 N   0  0  0  0  0  0  0  0  0  0  0  0
    5.2846    1.6999    3.4812 C   0  0  0  0  0  0  0  0  0  0  0  0
    5.1619    1.3321    4.8339 C   0  0  0  0  0  0  0  0  0  0  0  0
    6.2971    1.2453    5.6591 C   0  0  0  0  0  0  0  0  0  0  0  0
    7.5613    1.5591    5.1556 C   0  0  0  0  0  0  0  0  0  0  0  0
    7.6906    1.9243    3.8101 C   0  0  0  0  0  0  0  0  0  0  0  0
    6.5649    1.9607    2.9736 C   0  0  0  0  0  0  0  0  0  0  0  0
    9.2131    2.3865    3.1317 Cl  0  0  0  0  0  0  0  0  0  0  0  0
    8.9074    1.4829    6.2375 Cl  0  0  0  0  0  0  0  0  0  0  0  0
    4.2650    1.3726    1.2777 N   0  0  0  0  0  0  0  0  0  0  0  0
    3.5154   -0.3165   -1.1446 N   0  0  0  0  0  0  0  0  0  0  0  0
    3.2736   -1.2753   -2.2628 C   0  0  1  0  0  0  0  0  0  0  0  0
    2.4907   -2.4882   -1.7284 C   0  0  0  0  0  0  0  0  0  0  0  0
    2.1971   -3.5565   -2.7743 C   0  0  2  0  0  0  0  0  0  0  0  0
    3.5340   -4.0725   -3.3065 C   0  0  0  0  0  0  0  0  0  0  0  0
    4.2965   -2.9119   -3.9652 C   0  0  1  0  0  0  0  0  0  0  0  0
    3.4176   -2.3207   -5.0851 C   0  0  0  0  0  0  0  0  0  0  0  0
    2.1272   -1.7272   -4.4947 C   0  0  1  0  0  0  0  0  0  0  0  0
    1.3378   -2.8809   -3.8519 C   0  0  0  0  0  0  0  0  0  0  0  0
    2.4806   -0.6490   -3.4350 C   0  0  0  0  0  0  0  0  0  0  0  0
    4.5991   -1.8155   -2.9009 C   0  0  0  0  0  0  0  0  0  0  0  0
    2.8037    3.8736    4.1029 H   0  0  0  0  0  0  0  0  0  0  0  0
    2.6269    2.3912    5.0431 H   0  0  0  0  0  0  0  0  0  0  0  0
    0.5020    3.8121    4.7252 H   0  0  0  0  0  0  0  0  0  0  0  0
    0.3657    2.0796    4.4395 H   0  0  0  0  0  0  0  0  0  0  0  0
    0.7262    4.1862    2.2507 H   0  0  0  0  0  0  0  0  0  0  0  0
   -0.7996    3.3960    2.6547 H   0  0  0  0  0  0  0  0  0  0  0  0
    0.0624    1.1977    1.9652 H   0  0  0  0  0  0  0  0  0  0  0  0
    0.3804    2.3635    0.6668 H   0  0  0  0  0  0  0  0  0  0  0  0
    4.2079    1.0335    5.2600 H   0  0  0  0  0  0  0  0  0  0  0  0
    6.1927    0.9270    6.6957 H   0  0  0  0  0  0  0  0  0  0  0  0
    6.6850    2.2378    1.9266 H   0  0  0  0  0  0  0  0  0  0  0  0
    4.4220    0.1132   -1.0830 H   0  0  0  0  0  0  0  0  0  0  0  0
    1.5095   -2.1400   -1.4006 H   0  0  0  0  0  0  0  0  0  0  0  0
    3.0326   -2.9429   -0.8927 H   0  0  0  0  0  0  0  0  0  0  0  0
    1.6369   -4.3712   -2.3019 H   0  0  0  0  0  0  0  0  0  0  0  0
    3.3642   -4.8947   -4.0122 H   0  0  0  0  0  0  0  0  0  0  0  0
    4.1268   -4.4828   -2.4772 H   0  0  0  0  0  0  0  0  0  0  0  0
    5.2311   -3.2945   -4.3912 H   0  0  0  0  0  0  0  0  0  0  0  0
    3.1598   -3.1052   -5.8104 H   0  0  0  0  0  0  0  0  0  0  0  0
    3.9711   -1.5505   -5.6315 H   0  0  0  0  0  0  0  0  0  0  0  0
    1.5241   -1.2718   -5.2884 H   0  0  0  0  0  0  0  0  0  0  0  0
    0.4177   -2.4860   -3.4002 H   0  0  0  0  0  0  0  0  0  0  0  0
    1.0276   -3.6155   -4.6036 H   0  0  0  0  0  0  0  0  0  0  0  0
    3.0740    0.1454   -3.9044 H   0  0  0  0  0  0  0  0  0  0  0  0
    1.5679   -0.1722   -3.0673 H   0  0  0  0  0  0  0  0  0  0  0  0
    5.2665   -2.2228   -2.1297 H   0  0  0  0  0  0  0  0  0  0  0  0
    5.1512   -0.9967   -3.3818 H   0  0  0  0  0  0  0  0  0  0  0  0
  1  2  2  0  0  0  0
  2  3  1  0  0  0  0
  2 20  1  0  0  0  0
  3 19  2  0  0  0  0
  3  4  1  0  0  0  0
  4  9  1  0  0  0  0
  4  5  2  0  0  0  0
  5  6  1  0  0  0  0
  5 10  1  0  0  0  0
  6  7  1  0  0  0  0
  6 31  1  0  0  0  0
  6 32  1  0  0  0  0
  7  8  1  0  0  0  0
  7 33  1  0  0  0  0
  7 34  1  0  0  0  0
  8  9  1  0  0  0  0
  8 35  1  0  0  0  0
  8 36  1  0  0  0  0
  9 37  1  0  0  0  0
  9 38  1  0  0  0  0
 10 11  1  0  0  0  0
 10 19  1  0  0  0  0
 11 16  2  0  0  0  0
 11 12  1  0  0  0  0
 12 13  2  0  0  0  0
 12 39  1  0  0  0  0
 13 14  1  0  0  0  0
 13 40  1  0  0  0  0
 14 15  2  0  0  0  0
 14 18  1  0  0  0  0
 15 16  1  0  0  0  0
 15 17  1  0  0  0  0
 16 41  1  0  0  0  0
 20 42  1  0  0  0  0
 21 20  1  1  0  0  0
 21 29  1  0  0  0  0
 21 30  1  0  0  0  0
 21 22  1  0  0  0  0
 22 43  1  0  0  0  0
 22 44  1  0  0  0  0
 23 22  1  0  0  0  0
 23 24  1  0  0  0  0
 23 28  1  0  0  0  0
 23 45  1  1  0  0  0
 24 46  1  0  0  0  0
 24 47  1  0  0  0  0
 25 24  1  0  0  0  0
 25 26  1  0  0  0  0
 25 30  1  0  0  0  0
 25 48  1  6  0  0  0
 26 49  1  0  0  0  0
 26 50  1  0  0  0  0
 27 26  1  0  0  0  0
 27 28  1  0  0  0  0
 27 29  1  0  0  0  0
 27 51  1  6  0  0  0
 28 52  1  0  0  0  0
 28 53  1  0  0  0  0
 29 54  1  0  0  0  0
 29 55  1  0  0  0  0
 30 56  1  0  0  0  0
 30 57  1  0  0  0  0
M  END
$$$$
CHEMBL1828800
 OpenBabel12022417453D

 53 56  0  0  0  0  0  0  0  0999 V2000
    0.8476    5.3008   -1.3884 C   0  0  0  0  0  0  0  0  0  0  0  0
    2.3672    5.3293   -1.3862 C   0  0  0  0  0  0  0  0  0  0  0  0
    2.9524    3.9194   -1.4556 C   0  0  0  0  0  0  0  0  0  0  0  0
    4.4797    3.9581   -1.4554 C   0  0  0  0  0  0  0  0  0  0  0  0
    5.0703    2.5494   -1.4913 C   0  0  0  0  0  0  0  0  0  0  0  0
    6.5262    2.5531   -1.5034 N   0  0  0  0  0  0  0  0  0  0  0  0
    7.2866    3.0494   -0.4782 C   0  0  0  0  0  0  0  0  0  0  0  0
    8.6250    2.8684   -0.7811 C   0  0  0  0  0  0  0  0  0  0  0  0
    9.7695    3.2625    0.0379 C   0  0  0  0  0  0  0  0  0  0  0  0
   10.8753    3.4958   -0.4475 O   0  0  0  0  0  0  0  0  0  0  0  0
    9.6067    3.4071    1.5102 C   0  0  0  0  0  0  0  0  0  0  0  0
    8.7968    2.5442    2.2532 C   0  0  0  0  0  0  0  0  0  0  0  0
    8.6709    2.7291    3.6266 C   0  0  0  0  0  0  0  0  0  0  0  0
    9.3680    3.7624    4.2605 C   0  0  0  0  0  0  0  0  0  0  0  0
   10.2018    4.6405    3.5426 C   0  0  0  0  0  0  0  0  0  0  0  0
   10.8958    5.7722    4.2007 C   0  0  0  0  0  0  0  0  0  0  0  0
   10.2926    6.4825    5.2552 C   0  0  0  0  0  0  0  0  0  0  0  0
   10.9106    7.5950    5.8351 C   0  0  0  0  0  0  0  0  0  0  0  0
   12.1475    8.0267    5.3693 C   0  0  0  0  0  0  0  0  0  0  0  0
   12.7755    7.3350    4.3389 C   0  0  0  0  0  0  0  0  0  0  0  0
   12.1602    6.2160    3.7691 C   0  0  0  0  0  0  0  0  0  0  0  0
   10.3154    4.4300    2.1567 C   0  0  0  0  0  0  0  0  0  0  0  0
    8.6621    2.2521   -2.0735 C   0  0  0  0  0  0  0  0  0  0  0  0
    9.7126    1.8323   -2.9167 C   0  0  0  0  0  0  0  0  0  0  0  0
    9.4249    1.2227   -4.1404 C   0  0  0  0  0  0  0  0  0  0  0  0
    8.1067    1.0250   -4.5334 C   0  0  0  0  0  0  0  0  0  0  0  0
    7.0437    1.4342   -3.7223 C   0  0  0  0  0  0  0  0  0  0  0  0
    7.3421    2.0484   -2.4946 C   0  0  0  0  0  0  0  0  0  0  0  0
    0.4492    6.3189   -1.3382 H   0  0  0  0  0  0  0  0  0  0  0  0
    0.4654    4.7428   -0.5279 H   0  0  0  0  0  0  0  0  0  0  0  0
    0.4668    4.8309   -2.3006 H   0  0  0  0  0  0  0  0  0  0  0  0
    2.7162    5.8334   -0.4774 H   0  0  0  0  0  0  0  0  0  0  0  0
    2.7181    5.9205   -2.2401 H   0  0  0  0  0  0  0  0  0  0  0  0
    2.5972    3.4150   -2.3622 H   0  0  0  0  0  0  0  0  0  0  0  0
    2.5993    3.3326   -0.5988 H   0  0  0  0  0  0  0  0  0  0  0  0
    4.8246    4.4877   -0.5589 H   0  0  0  0  0  0  0  0  0  0  0  0
    4.8398    4.5330   -2.3177 H   0  0  0  0  0  0  0  0  0  0  0  0
    4.7120    2.0097   -2.3733 H   0  0  0  0  0  0  0  0  0  0  0  0
    4.7671    1.9740   -0.6077 H   0  0  0  0  0  0  0  0  0  0  0  0
    6.8157    3.5006    0.3852 H   0  0  0  0  0  0  0  0  0  0  0  0
    8.2647    1.7244    1.7777 H   0  0  0  0  0  0  0  0  0  0  0  0
    8.0308    2.0696    4.2075 H   0  0  0  0  0  0  0  0  0  0  0  0
    9.2552    3.8685    5.3379 H   0  0  0  0  0  0  0  0  0  0  0  0
    9.3111    6.1947    5.6244 H   0  0  0  0  0  0  0  0  0  0  0  0
   10.4147    8.1302    6.6401 H   0  0  0  0  0  0  0  0  0  0  0  0
   12.6191    8.9032    5.8052 H   0  0  0  0  0  0  0  0  0  0  0  0
   13.7420    7.6677    3.9694 H   0  0  0  0  0  0  0  0  0  0  0  0
   12.6863    5.6948    2.9709 H   0  0  0  0  0  0  0  0  0  0  0  0
   10.9410    5.0858    1.5525 H   0  0  0  0  0  0  0  0  0  0  0  0
   10.7484    1.9829   -2.6162 H   0  0  0  0  0  0  0  0  0  0  0  0
   10.2401    0.9003   -4.7838 H   0  0  0  0  0  0  0  0  0  0  0  0
    7.8984    0.5481   -5.4881 H   0  0  0  0  0  0  0  0  0  0  0  0
    6.0222    1.2765   -4.0510 H   0  0  0  0  0  0  0  0  0  0  0  0
  1  2  1  0  0  0  0
  1 29  1  0  0  0  0
  1 30  1  0  0  0  0
  1 31  1  0  0  0  0
  2  3  1  0  0  0  0
  2 32  1  0  0  0  0
  2 33  1  0  0  0  0
  3  4  1  0  0  0  0
  3 34  1  0  0  0  0
  3 35  1  0  0  0  0
  4  5  1  0  0  0  0
  4 36  1  0  0  0  0
  4 37  1  0  0  0  0
  5  6  1  0  0  0  0
  5 38  1  0  0  0  0
  5 39  1  0  0  0  0
  6 28  1  0  0  0  0
  6  7  1  0  0  0  0
  7  8  2  0  0  0  0
  7 40  1  0  0  0  0
  8  9  1  0  0  0  0
  8 23  1  0  0  0  0
  9 10  2  0  0  0  0
  9 11  1  0  0  0  0
 11 22  2  0  0  0  0
 11 12  1  0  0  0  0
 12 13  2  0  0  0  0
 12 41  1  0  0  0  0
 13 14  1  0  0  0  0
 13 42  1  0  0  0  0
 14 15  2  0  0  0  0
 14 43  1  0  0  0  0
 15 16  1  0  0  0  0
 15 22  1  0  0  0  0
 16 21  2  0  0  0  0
 16 17  1  0  0  0  0
 17 18  2  0  0  0  0
 17 44  1  0  0  0  0
 18 19  1  0  0  0  0
 18 45  1  0  0  0  0
 19 20  2  0  0  0  0
 19 46  1  0  0  0  0
 20 21  1  0  0  0  0
 20 47  1  0  0  0  0
 21 48  1  0  0  0  0
 22 49  1  0  0  0  0
 23 28  2  0  0  0  0
 23 24  1  0  0  0  0
 24 25  2  0  0  0  0
 24 50  1  0  0  0  0
 25 26  1  0  0  0  0
 25 51  1  0  0  0  0
 26 27  2  0  0  0  0
 26 52  1  0  0  0  0
 27 28  1  0  0  0  0
 27 53  1  0  0  0  0
M  END
$$$$
CHEMBL3260741
 OpenBabel12022417453D

 55 59  0  0  0  0  0  0  0  0999 V2000
   -1.6363   -3.4179   -1.5392 C   0  0  0  0  0  0  0  0  0  0  0  0
   -0.9397   -4.2985   -0.5408 C   0  0  0  0  0  0  0  0  0  0  0  0
    0.2805   -3.9602    0.0666 C   0  0  0  0  0  0  0  0  0  0  0  0
    0.7544   -4.8338    1.0553 C   0  0  0  0  0  0  0  0  0  0  0  0
    0.0529   -5.9926    1.3811 C   0  0  0  0  0  0  0  0  0  0  0  0
   -1.1402   -6.2679    0.7252 C   0  0  0  0  0  0  0  0  0  0  0  0
   -1.9302   -7.5231    1.0674 C   0  0  0  0  0  0  0  0  0  0  0  0
   -1.3330   -8.2892    2.0313 F   0  0  0  0  0  0  0  0  0  0  0  0
   -3.1810   -7.2586    1.5447 F   0  0  0  0  0  0  0  0  0  0  0  0
   -2.1019   -8.3581    0.0021 F   0  0  0  0  0  0  0  0  0  0  0  0
   -1.6350   -5.4221   -0.2190 N   0  0  0  0  0  0  0  0  0  0  0  0
    0.9966   -2.6611   -0.2399 C   0  0  0  0  0  0  0  0  0  0  0  0
    2.4398   -2.6430    0.0238 N   0  0  0  0  0  0  0  0  0  0  0  0
    2.9562   -2.1064    1.1896 C   0  0  0  0  0  0  0  0  0  0  0  0
    2.2557   -1.8422    2.1644 O   0  0  0  0  0  0  0  0  0  0  0  0
    4.4348   -1.8046    1.2189 C   0  0  0  0  0  0  0  0  0  0  0  0
    4.9654   -0.9961    2.3391 C   0  0  0  0  0  0  0  0  0  0  0  0
    5.5636   -1.5875    3.4520 C   0  0  0  0  0  0  0  0  0  0  0  0
    6.0887   -0.7571    4.4317 C   0  0  0  0  0  0  0  0  0  0  0  0
    6.0559    0.5905    4.3721 N   0  0  0  0  0  0  0  0  0  0  0  0
    5.4607    1.1391    3.2941 C   0  0  0  0  0  0  0  0  0  0  0  0
    4.9055    0.3988    2.2642 C   0  0  0  0  0  0  0  0  0  0  0  0
    5.2438   -2.1859    0.2080 C   0  0  0  0  0  0  0  0  0  0  0  0
    6.6948   -1.9178    0.1497 C   0  0  0  0  0  0  0  0  0  0  0  0
    7.1746   -0.7699   -0.4967 C   0  0  0  0  0  0  0  0  0  0  0  0
    8.5491   -0.5741   -0.6553 C   0  0  0  0  0  0  0  0  0  0  0  0
    9.4452   -1.5227   -0.1665 C   0  0  0  0  0  0  0  0  0  0  0  0
    8.9805   -2.6566    0.4971 C   0  0  0  0  0  0  0  0  0  0  0  0
    7.6062   -2.8551    0.6556 C   0  0  0  0  0  0  0  0  0  0  0  0
   11.1347   -1.3057   -0.4073 Cl  0  0  0  0  0  0  0  0  0  0  0  0
    4.6398   -2.8819   -0.9445 C   0  0  0  0  0  0  0  0  0  0  0  0
    5.2785   -3.3792   -1.9612 N   0  0  0  0  0  0  0  0  0  0  0  0
    4.2908   -3.9006   -2.7580 N   0  0  0  0  0  0  0  0  0  0  0  0
    4.5800   -4.5895   -3.9839 C   0  0  0  0  0  0  0  0  0  0  0  0
    3.0268   -3.7143   -2.1701 C   0  0  0  0  0  0  0  0  0  0  0  0
    1.9551   -4.0874   -2.6157 O   0  0  0  0  0  0  0  0  0  0  0  0
    3.2993   -3.0193   -1.0047 N   0  0  0  0  0  0  0  0  0  0  0  0
   -2.4108   -3.9860   -2.0682 H   0  0  0  0  0  0  0  0  0  0  0  0
   -0.9512   -3.0349   -2.2985 H   0  0  0  0  0  0  0  0  0  0  0  0
   -2.1257   -2.5842   -1.0261 H   0  0  0  0  0  0  0  0  0  0  0  0
    1.6676   -4.6156    1.6032 H   0  0  0  0  0  0  0  0  0  0  0  0
    0.4357   -6.6596    2.1489 H   0  0  0  0  0  0  0  0  0  0  0  0
    0.5303   -1.8865    0.3834 H   0  0  0  0  0  0  0  0  0  0  0  0
    0.8429   -2.3388   -1.2738 H   0  0  0  0  0  0  0  0  0  0  0  0
    5.6285   -2.6636    3.5642 H   0  0  0  0  0  0  0  0  0  0  0  0
    6.5695   -1.1670    5.3148 H   0  0  0  0  0  0  0  0  0  0  0  0
    5.4447    2.2253    3.2744 H   0  0  0  0  0  0  0  0  0  0  0  0
    4.4445    0.9058    1.4238 H   0  0  0  0  0  0  0  0  0  0  0  0
    6.4865   -0.0355   -0.9087 H   0  0  0  0  0  0  0  0  0  0  0  0
    8.9126    0.3065   -1.1784 H   0  0  0  0  0  0  0  0  0  0  0  0
    9.6805   -3.3988    0.8718 H   0  0  0  0  0  0  0  0  0  0  0  0
    7.2569   -3.7607    1.1462 H   0  0  0  0  0  0  0  0  0  0  0  0
    5.6538   -4.5515   -4.1878 H   0  0  0  0  0  0  0  0  0  0  0  0
    4.0297   -4.1123   -4.7990 H   0  0  0  0  0  0  0  0  0  0  0  0
    4.2535   -5.6288   -3.8934 H   0  0  0  0  0  0  0  0  0  0  0  0
  1  2  1  0  0  0  0
  1 38  1  0  0  0  0
  1 39  1  0  0  0  0
  1 40  1  0  0  0  0
  2 11  2  0  0  0  0
  2  3  1  0  0  0  0
  3  4  2  0  0  0  0
  3 12  1  0  0  0  0
  4  5  1  0  0  0  0
  4 41  1  0  0  0  0
  5  6  2  0  0  0  0
  5 42  1  0  0  0  0
  6  7  1  0  0  0  0
  6 11  1  0  0  0  0
  7  8  1  0  0  0  0
  7  9  1  0  0  0  0
  7 10  1  0  0  0  0
 12 13  1  0  0  0  0
 12 43  1  0  0  0  0
 12 44  1  0  0  0  0
 13 37  1  0  0  0  0
 13 14  1  0  0  0  0
 14 15  2  0  0  0  0
 14 16  1  0  0  0  0
 16 17  1  0  0  0  0
 16 23  2  0  0  0  0
 17 22  2  0  0  0  0
 17 18  1  0  0  0  0
 18 19  2  0  0  0  0
 18 45  1  0  0  0  0
 19 20  1  0  0  0  0
 19 46  1  0  0  0  0
 20 21  2  0  0  0  0
 21 22  1  0  0  0  0
 21 47  1  0  0  0  0
 22 48  1  0  0  0  0
 23 24  1  0  0  0  0
 23 31  1  0  0  0  0
 24 29  2  0  0  0  0
 24 25  1  0  0  0  0
 25 26  2  0  0  0  0
 25 49  1  0  0  0  0
 26 27  1  0  0  0  0
 26 50  1  0  0  0  0
 27 28  2  0  0  0  0
 27 30  1  0  0  0  0
 28 29  1  0  0  0  0
 28 51  1  0  0  0  0
 29 52  1  0  0  0  0
 31 37  1  0  0  0  0
 31 32  2  0  0  0  0
 32 33  1  0  0  0  0
 33 34  1  0  0  0  0
 33 35  1  0  0  0  0
 34 53  1  0  0  0  0
 34 54  1  0  0  0  0
 34 55  1  0  0  0  0
 35 36  2  0  0  0  0
 35 37  1  0  0  0  0
M  END
$$$$
CHEMBL4519310
 OpenBabel12022417453D

 44 47  0  0  1  0  0  0  0  0999 V2000
    2.2167   -0.4345   -0.1475 C   0  0  0  0  0  0  0  0  0  0  0  0
    2.1188    0.9466   -0.0717 C   0  0  0  0  0  0  0  0  0  0  0  0
    0.8677    1.5406   -0.0076 C   0  0  0  0  0  0  0  0  0  0  0  0
   -0.2709    0.7335   -0.0345 C   0  0  0  0  0  0  0  0  0  0  0  0
   -0.2295   -0.6578   -0.0925 C   0  0  0  0  0  0  0  0  0  0  0  0
    1.0624   -1.2380   -0.1382 C   0  0  0  0  0  0  0  0  0  0  0  0
   -1.6082   -1.1325   -0.0816 C   0  0  0  0  0  0  0  0  0  0  0  0
   -2.4214    0.0199   -0.0466 C   0  0  0  0  0  0  0  0  0  0  0  0
   -3.8796    0.2453   -0.0182 C   0  0  0  0  0  0  0  0  0  0  0  0
   -4.7615   -0.5118   -0.7930 C   0  0  0  0  0  0  0  0  0  0  0  0
   -6.1232   -0.2146   -0.7981 C   0  0  0  0  0  0  0  0  0  0  0  0
   -6.6366    0.8440   -0.0602 C   0  0  0  0  0  0  0  0  0  0  0  0
   -5.7782    1.6026    0.7263 C   0  0  0  0  0  0  0  0  0  0  0  0
   -4.4140    1.2944    0.7576 C   0  0  0  0  0  0  0  0  0  0  0  0
   -6.9528   -0.9526   -1.5477 F   0  0  0  0  0  0  0  0  0  0  0  0
   -1.5807    1.1071   -0.0195 N   0  0  0  0  0  0  0  0  0  0  0  0
   -2.1266   -2.5785   -0.0916 C   0  0  1  0  0  0  0  0  0  0  0  0
   -1.1475   -3.7400   -0.1955 C   0  0  0  0  0  0  0  0  0  0  0  0
   -0.4767   -3.8042   -1.5336 N   0  3  0  0  0  0  0  0  0  0  0  0
   -1.0518   -3.3272   -2.5173 O   0  0  0  0  0  0  0  0  0  0  0  0
    0.6219   -4.3848   -1.5648 O   0  5  0  0  0  0  0  0  0  0  0  0
   -2.9479   -2.7594    1.1923 C   0  0  0  0  0  0  0  0  0  0  0  0
   -2.6307   -2.1539    2.4205 C   0  0  0  0  0  0  0  0  0  0  0  0
   -3.4639   -2.3090    3.5323 C   0  0  0  0  0  0  0  0  0  0  0  0
   -4.6005   -3.1110    3.4531 C   0  0  0  0  0  0  0  0  0  0  0  0
   -4.8982   -3.7703    2.2641 C   0  0  0  0  0  0  0  0  0  0  0  0
   -4.0771   -3.5917    1.1535 C   0  0  0  0  0  0  0  0  0  0  0  0
   -4.3761   -4.2477    0.0226 F   0  0  0  0  0  0  0  0  0  0  0  0
    0.7586    2.8729    0.0802 F   0  0  0  0  0  0  0  0  0  0  0  0
    3.1953   -0.9048   -0.2157 H   0  0  0  0  0  0  0  0  0  0  0  0
    3.0085    1.5681   -0.0661 H   0  0  0  0  0  0  0  0  0  0  0  0
    1.2199   -2.3082   -0.1800 H   0  0  0  0  0  0  0  0  0  0  0  0
   -4.4192   -1.3214   -1.4256 H   0  0  0  0  0  0  0  0  0  0  0  0
   -7.6968    1.0704   -0.1080 H   0  0  0  0  0  0  0  0  0  0  0  0
   -6.1634    2.4354    1.3094 H   0  0  0  0  0  0  0  0  0  0  0  0
   -3.7710    1.8947    1.3983 H   0  0  0  0  0  0  0  0  0  0  0  0
   -1.8838    2.0710   -0.0051 H   0  0  0  0  0  0  0  0  0  0  0  0
   -2.8182   -2.6445   -0.9402 H   0  0  0  0  0  0  0  0  0  0  0  0
   -1.6619   -4.7070   -0.1210 H   0  0  0  0  0  0  0  0  0  0  0  0
   -0.3717   -3.7148    0.5758 H   0  0  0  0  0  0  0  0  0  0  0  0
   -1.7538   -1.5173    2.5209 H   0  0  0  0  0  0  0  0  0  0  0  0
   -3.2281   -1.7900    4.4586 H   0  0  0  0  0  0  0  0  0  0  0  0
   -5.2501   -3.2220    4.3176 H   0  0  0  0  0  0  0  0  0  0  0  0
   -5.7692   -4.4142    2.1915 H   0  0  0  0  0  0  0  0  0  0  0  0
  1  6  2  0  0  0  0
  1  2  1  0  0  0  0
  1 30  1  0  0  0  0
  2  3  2  0  0  0  0
  2 31  1  0  0  0  0
  3  4  1  0  0  0  0
  3 29  1  0  0  0  0
  4 16  1  0  0  0  0
  4  5  2  0  0  0  0
  5  6  1  0  0  0  0
  5  7  1  0  0  0  0
  6 32  1  0  0  0  0
  7  8  2  0  0  0  0
  7 17  1  0  0  0  0
  8  9  1  0  0  0  0
  8 16  1  0  0  0  0
  9 14  2  0  0  0  0
  9 10  1  0  0  0  0
 10 11  2  0  0  0  0
 10 33  1  0  0  0  0
 11 12  1  0  0  0  0
 11 15  1  0  0  0  0
 12 13  2  0  0  0  0
 12 34  1  0  0  0  0
 13 14  1  0  0  0  0
 13 35  1  0  0  0  0
 14 36  1  0  0  0  0
 16 37  1  0  0  0  0
 17 18  1  0  0  0  0
 17 22  1  0  0  0  0
 17 38  1  6  0  0  0
 18 19  1  0  0  0  0
 18 39  1  0  0  0  0
 18 40  1  0  0  0  0
 19 20  2  0  0  0  0
 19 21  1  0  0  0  0
 22 27  2  0  0  0  0
 22 23  1  0  0  0  0
 23 24  2  0  0  0  0
 23 41  1  0  0  0  0
 24 25  1  0  0  0  0
 24 42  1  0  0  0  0
 25 26  2  0  0  0  0
 25 43  1  0  0  0  0
 26 27  1  0  0  0  0
 26 44  1  0  0  0  0
 27 28  1  0  0  0  0
M  CHG  2  19   1  21  -1
M  END
$$$$
CHEMBL2206846
 OpenBabel12022417453D

 49 52  0  0  0  0  0  0  0  0999 V2000
    5.0909    7.0356    3.6254 C   0  0  0  0  0  0  0  0  0  0  0  0
    4.5639    5.6145    3.7345 C   0  0  0  0  0  0  0  0  0  0  0  0
    5.0415    4.7518    2.5649 C   0  0  0  0  0  0  0  0  0  0  0  0
    4.5180    3.3160    2.6820 C   0  0  0  0  0  0  0  0  0  0  0  0
    5.0398    2.3800    1.5836 C   0  0  0  0  0  0  0  0  0  0  0  0
    6.4968    2.2978    1.5118 N   0  0  0  0  0  0  0  0  0  0  0  0
    7.2415    2.7966    0.4628 C   0  0  0  0  0  0  0  0  0  0  0  0
    8.5714    2.8346    0.8597 C   0  0  0  0  0  0  0  0  0  0  0  0
    9.7012    3.5226    0.2159 C   0  0  0  0  0  0  0  0  0  0  0  0
   10.8524    3.3919    0.5924 O   0  0  0  0  0  0  0  0  0  0  0  0
    9.3976    4.6212   -0.7560 C   0  0  0  0  0  0  0  0  0  0  0  0
    8.4608    5.5590   -0.2520 C   0  0  0  0  0  0  0  0  0  0  0  0
    7.9835    6.5855   -1.0394 C   0  0  0  0  0  0  0  0  0  0  0  0
    8.4187    6.6808   -2.3478 C   0  0  0  0  0  0  0  0  0  0  0  0
    9.3665    5.7902   -2.8742 C   0  0  0  0  0  0  0  0  0  0  0  0
    9.6887    5.9576   -4.2296 C   0  0  0  0  0  0  0  0  0  0  0  0
   10.6666    5.1936   -4.8424 C   0  0  0  0  0  0  0  0  0  0  0  0
   11.3653    4.2714   -4.0871 C   0  0  0  0  0  0  0  0  0  0  0  0
   11.0218    4.0352   -2.7422 C   0  0  0  0  0  0  0  0  0  0  0  0
    9.9642    4.7628   -2.0795 C   0  0  0  0  0  0  0  0  0  0  0  0
   12.1351    2.7178   -1.9373 Br  0  0  0  0  0  0  0  0  0  0  0  0
    8.6304    2.1289    2.1115 C   0  0  0  0  0  0  0  0  0  0  0  0
    9.6912    1.7964    2.9915 C   0  0  0  0  0  0  0  0  0  0  0  0
    9.4193    1.1880    4.2157 C   0  0  0  0  0  0  0  0  0  0  0  0
    8.1081    0.9128    4.5868 C   0  0  0  0  0  0  0  0  0  0  0  0
    7.0416    1.2120    3.7345 C   0  0  0  0  0  0  0  0  0  0  0  0
    7.3268    1.8258    2.5031 C   0  0  0  0  0  0  0  0  0  0  0  0
    4.7430    7.6359    4.4722 H   0  0  0  0  0  0  0  0  0  0  0  0
    4.7427    7.5130    2.7035 H   0  0  0  0  0  0  0  0  0  0  0  0
    6.1854    7.0505    3.6254 H   0  0  0  0  0  0  0  0  0  0  0  0
    3.4686    5.6332    3.7650 H   0  0  0  0  0  0  0  0  0  0  0  0
    4.9078    5.1786    4.6802 H   0  0  0  0  0  0  0  0  0  0  0  0
    6.1371    4.7574    2.5550 H   0  0  0  0  0  0  0  0  0  0  0  0
    4.7058    5.1881    1.6165 H   0  0  0  0  0  0  0  0  0  0  0  0
    3.4228    3.3268    2.6384 H   0  0  0  0  0  0  0  0  0  0  0  0
    4.7794    2.9206    3.6681 H   0  0  0  0  0  0  0  0  0  0  0  0
    4.6738    2.7132    0.6057 H   0  0  0  0  0  0  0  0  0  0  0  0
    4.6694    1.3598    1.7394 H   0  0  0  0  0  0  0  0  0  0  0  0
    6.7554    3.1841   -0.4177 H   0  0  0  0  0  0  0  0  0  0  0  0
    8.0909    5.4776    0.7693 H   0  0  0  0  0  0  0  0  0  0  0  0
    7.2592    7.2942   -0.6393 H   0  0  0  0  0  0  0  0  0  0  0  0
    8.0147    7.4870   -2.9607 H   0  0  0  0  0  0  0  0  0  0  0  0
    9.1652    6.6978   -4.8334 H   0  0  0  0  0  0  0  0  0  0  0  0
   10.8937    5.3311   -5.8956 H   0  0  0  0  0  0  0  0  0  0  0  0
   12.1820    3.7263   -4.5580 H   0  0  0  0  0  0  0  0  0  0  0  0
   10.7182    2.0183    2.7052 H   0  0  0  0  0  0  0  0  0  0  0  0
   10.2390    0.9500    4.8815 H   0  0  0  0  0  0  0  0  0  0  0  0
    7.9128    0.4621    5.5551 H   0  0  0  0  0  0  0  0  0  0  0  0
    6.0252    0.9903    4.0427 H   0  0  0  0  0  0  0  0  0  0  0  0
  1  2  1  0  0  0  0
  1 28  1  0  0  0  0
  1 29  1  0  0  0  0
  1 30  1  0  0  0  0
  2  3  1  0  0  0  0
  2 31  1  0  0  0  0
  2 32  1  0  0  0  0
  3  4  1  0  0  0  0
  3 33  1  0  0  0  0
  3 34  1  0  0  0  0
  4  5  1  0  0  0  0
  4 35  1  0  0  0  0
  4 36  1  0  0  0  0
  5  6  1  0  0  0  0
  5 37  1  0  0  0  0
  5 38  1  0  0  0  0
  6 27  1  0  0  0  0
  6  7  1  0  0  0  0
  7  8  2  0  0  0  0
  7 39  1  0  0  0  0
  8  9  1  0  0  0  0
  8 22  1  0  0  0  0
  9 10  2  0  0  0  0
  9 11  1  0  0  0  0
 11 20  2  0  0  0  0
 11 12  1  0  0  0  0
 12 13  2  0  0  0  0
 12 40  1  0  0  0  0
 13 14  1  0  0  0  0
 13 41  1  0  0  0  0
 14 15  2  0  0  0  0
 14 42  1  0  0  0  0
 15 20  1  0  0  0  0
 15 16  1  0  0  0  0
 16 17  2  0  0  0  0
 16 43  1  0  0  0  0
 17 18  1  0  0  0  0
 17 44  1  0  0  0  0
 18 19  2  0  0  0  0
 18 45  1  0  0  0  0
 19 20  1  0  0  0  0
 19 21  1  0  0  0  0
 22 27  2  0  0  0  0
 22 23  1  0  0  0  0
 23 24  2  0  0  0  0
 23 46  1  0  0  0  0
 24 25  1  0  0  0  0
 24 47  1  0  0  0  0
 25 26  2  0  0  0  0
 25 48  1  0  0  0  0
 26 27  1  0  0  0  0
 26 49  1  0  0  0  0
M  END
$$$$
CHEMBL3354941
 OpenBabel12022417453D

 53 57  0  0  1  0  0  0  0  0999 V2000
    4.3221   -1.4997   -1.1477 C   0  0  0  0  0  0  0  0  0  0  0  0
    3.1293   -1.3510   -0.1707 C   0  0  0  0  0  0  0  0  0  0  0  0
    2.4869    0.0338   -0.4257 C   0  0  0  0  0  0  0  0  0  0  0  0
    2.0496   -2.4345   -0.4137 C   0  0  0  0  0  0  0  0  0  0  0  0
    0.9065   -2.4906    0.4091 C   0  0  0  0  0  0  0  0  0  0  0  0
   -0.0926   -3.4489    0.2025 C   0  0  0  0  0  0  0  0  0  0  0  0
    0.0235   -4.3734   -0.8301 C   0  0  0  0  0  0  0  0  0  0  0  0
    1.1347   -4.3355   -1.6624 C   0  0  0  0  0  0  0  0  0  0  0  0
    2.1336   -3.3779   -1.4569 C   0  0  0  0  0  0  0  0  0  0  0  0
    3.6191   -1.4558    1.2198 N   0  0  0  0  0  0  0  0  0  0  0  0
    4.5658   -0.6099    1.7686 C   0  0  0  0  0  0  0  0  0  0  0  0
    5.0049    0.3757    1.1826 O   0  0  0  0  0  0  0  0  0  0  0  0
    5.0803   -0.9866    3.0971 C   0  0  0  0  0  0  0  0  0  0  0  0
    6.1818   -0.3817    3.7320 C   0  0  0  0  0  0  0  0  0  0  0  0
    6.4315   -1.1294    4.8449 C   0  0  0  0  0  0  0  0  0  0  0  0
    7.7519   -0.7694    5.4747 C   0  0  1  0  0  0  0  0  0  0  0  0
    8.2973    0.3077    4.4981 C   0  0  1  0  0  0  0  0  0  0  0  0
    7.2296    0.6241    3.4315 C   0  0  0  0  0  0  0  0  0  0  0  0
    8.0578    0.6348    5.9357 C   0  0  0  0  0  0  0  0  0  0  0  0
    5.4996   -2.1035    4.8956 N   0  0  0  0  0  0  0  0  0  0  0  0
    5.3297   -3.0772    5.9656 C   0  0  0  0  0  0  0  0  0  0  0  0
    6.1223   -4.3359    5.7067 C   0  0  0  0  0  0  0  0  0  0  0  0
    5.8469   -5.1218    4.5787 C   0  0  0  0  0  0  0  0  0  0  0  0
    6.5954   -6.2670    4.3115 C   0  0  0  0  0  0  0  0  0  0  0  0
    7.6129   -6.6350    5.1828 C   0  0  0  0  0  0  0  0  0  0  0  0
    7.8884   -5.8912    6.3192 C   0  0  0  0  0  0  0  0  0  0  0  0
    7.1409   -4.7374    6.5883 C   0  0  0  0  0  0  0  0  0  0  0  0
    8.3403   -7.7295    4.9186 F   0  0  0  0  0  0  0  0  0  0  0  0
    4.6162   -2.0234    3.8448 N   0  0  0  0  0  0  0  0  0  0  0  0
    4.0003   -1.4142   -2.1926 H   0  0  0  0  0  0  0  0  0  0  0  0
    4.8240   -2.4664   -1.0185 H   0  0  0  0  0  0  0  0  0  0  0  0
    5.0825   -0.7270   -0.9999 H   0  0  0  0  0  0  0  0  0  0  0  0
    2.0386    0.0870   -1.4248 H   0  0  0  0  0  0  0  0  0  0  0  0
    3.2201    0.8447   -0.3660 H   0  0  0  0  0  0  0  0  0  0  0  0
    1.7044    0.2629    0.3064 H   0  0  0  0  0  0  0  0  0  0  0  0
    0.7800   -1.7762    1.2209 H   0  0  0  0  0  0  0  0  0  0  0  0
   -0.9660   -3.4702    0.8499 H   0  0  0  0  0  0  0  0  0  0  0  0
   -0.7512   -5.1188   -0.9895 H   0  0  0  0  0  0  0  0  0  0  0  0
    1.2292   -5.0496   -2.4779 H   0  0  0  0  0  0  0  0  0  0  0  0
    2.9737   -3.3925   -2.1465 H   0  0  0  0  0  0  0  0  0  0  0  0
    3.3843   -2.2719    1.7761 H   0  0  0  0  0  0  0  0  0  0  0  0
    8.3554   -1.5533    5.9102 H   0  0  0  0  0  0  0  0  0  0  0  0
    9.3035    0.2211    4.1173 H   0  0  0  0  0  0  0  0  0  0  0  0
    6.8541    1.6459    3.5488 H   0  0  0  0  0  0  0  0  0  0  0  0
    7.6397    0.4908    2.4266 H   0  0  0  0  0  0  0  0  0  0  0  0
    8.9297    0.7747    6.5672 H   0  0  0  0  0  0  0  0  0  0  0  0
    7.2265    1.2758    6.2058 H   0  0  0  0  0  0  0  0  0  0  0  0
    4.2622   -3.3007    6.0653 H   0  0  0  0  0  0  0  0  0  0  0  0
    5.6513   -2.5900    6.8949 H   0  0  0  0  0  0  0  0  0  0  0  0
    5.0540   -4.8328    3.8898 H   0  0  0  0  0  0  0  0  0  0  0  0
    6.3954   -6.8646    3.4280 H   0  0  0  0  0  0  0  0  0  0  0  0
    8.6834   -6.2058    6.9878 H   0  0  0  0  0  0  0  0  0  0  0  0
    7.3677   -4.1640    7.4827 H   0  0  0  0  0  0  0  0  0  0  0  0
  1  2  1  0  0  0  0
  1 30  1  0  0  0  0
  1 31  1  0  0  0  0
  1 32  1  0  0  0  0
  2  3  1  0  0  0  0
  2  4  1  0  0  0  0
  2 10  1  0  0  0  0
  3 33  1  0  0  0  0
  3 34  1  0  0  0  0
  3 35  1  0  0  0  0
  4  9  2  0  0  0  0
  4  5  1  0  0  0  0
  5  6  2  0  0  0  0
  5 36  1  0  0  0  0
  6  7  1  0  0  0  0
  6 37  1  0  0  0  0
  7  8  2  0  0  0  0
  7 38  1  0  0  0  0
  8  9  1  0  0  0  0
  8 39  1  0  0  0  0
  9 40  1  0  0  0  0
 10 11  1  0  0  0  0
 10 41  1  0  0  0  0
 11 12  2  0  0  0  0
 11 13  1  0  0  0  0
 13 29  2  0  0  0  0
 13 14  1  0  0  0  0
 14 18  1  0  0  0  0
 14 15  2  0  0  0  0
 15 16  1  0  0  0  0
 15 20  1  0  0  0  0
 16 17  1  0  0  0  0
 16 19  1  0  0  0  0
 16 42  1  1  0  0  0
 17 18  1  0  0  0  0
 17 19  1  0  0  0  0
 17 43  1  6  0  0  0
 18 44  1  0  0  0  0
 18 45  1  0  0  0  0
 19 46  1  0  0  0  0
 19 47  1  0  0  0  0
 20 21  1  0  0  0  0
 20 29  1  0  0  0  0
 21 22  1  0  0  0  0
 21 48  1  0  0  0  0
 21 49  1  0  0  0  0
 22 27  2  0  0  0  0
 22 23  1  0  0  0  0
 23 24  2  0  0  0  0
 23 50  1  0  0  0  0
 24 25  1  0  0  0  0
 24 51  1  0  0  0  0
 25 26  2  0  0  0  0
 25 28  1  0  0  0  0
 26 27  1  0  0  0  0
 26 52  1  0  0  0  0
 27 53  1  0  0  0  0
M  END
$$$$
CHEMBL3109780
 OpenBabel12022417453D

 57 60  0  0  1  0  0  0  0  0999 V2000
    1.6956    4.1533   -2.2481 C   0  0  0  0  0  0  0  0  0  0  0  0
    1.7695    2.7836   -2.7329 N   0  0  0  0  0  0  0  0  0  0  0  0
    1.0567    1.7481   -1.9952 C   0  0  0  0  0  0  0  0  0  0  0  0
   -0.4313    1.8005   -2.1546 C   0  0  0  0  0  0  0  0  0  0  0  0
   -1.1389    0.8693   -3.1054 C   0  0  0  0  0  0  0  0  0  0  0  0
   -1.2383    0.6370   -1.6232 C   0  0  0  0  0  0  0  0  0  0  0  0
    2.3749    2.5755   -3.9614 C   0  0  0  0  0  0  0  0  0  0  0  0
    3.1804    1.4460   -4.2683 C   0  0  0  0  0  0  0  0  0  0  0  0
    3.6931    1.3522   -5.5828 C   0  0  0  0  0  0  0  0  0  0  0  0
    3.4767    2.3504   -6.5255 C   0  0  0  0  0  0  0  0  0  0  0  0
    2.7072    3.4221   -6.1328 C   0  0  0  0  0  0  0  0  0  0  0  0
    2.1796    3.5551   -4.8853 N   0  0  0  0  0  0  0  0  0  0  0  0
    4.0522    2.3046   -7.8936 C   0  0  0  0  0  0  0  0  0  0  0  0
    3.5579    2.9832   -8.7850 O   0  0  0  0  0  0  0  0  0  0  0  0
    5.1692    1.5058   -8.0626 N   0  0  0  0  0  0  0  0  0  0  0  0
    5.9730    1.5221   -9.2868 C   0  0  2  0  0  0  0  0  0  0  0  0
    5.2875    0.8227  -10.4671 C   0  0  0  0  0  0  0  0  0  0  0  0
    6.1700    0.8735  -11.7166 C   0  0  0  0  0  0  0  0  0  0  0  0
    7.5529    0.2734  -11.4717 C   0  0  0  0  0  0  0  0  0  0  0  0
    8.2369    0.8889  -10.2553 C   0  0  0  0  0  0  0  0  0  0  0  0
    7.3383    0.8452   -9.0205 C   0  0  1  0  0  0  0  0  0  0  0  0
    7.9938    1.4835   -7.9203 O   0  0  0  0  0  0  0  0  0  0  0  0
    3.5764    0.3905   -3.2966 C   0  0  0  0  0  0  0  0  0  0  0  0
    3.9155    0.6978   -1.9638 C   0  0  0  0  0  0  0  0  0  0  0  0
    4.1047   -0.3070   -1.0103 C   0  0  0  0  0  0  0  0  0  0  0  0
    4.0618   -1.6412   -1.3970 C   0  0  0  0  0  0  0  0  0  0  0  0
    3.8354   -1.9761   -2.7270 C   0  0  0  0  0  0  0  0  0  0  0  0
    3.5777   -0.9696   -3.6628 C   0  0  0  0  0  0  0  0  0  0  0  0
    4.2666   -2.8812   -0.2243 Cl  0  0  0  0  0  0  0  0  0  0  0  0
    1.1956    4.2063   -1.2735 H   0  0  0  0  0  0  0  0  0  0  0  0
    1.1512    4.8141   -2.9293 H   0  0  0  0  0  0  0  0  0  0  0  0
    2.7078    4.5494   -2.0999 H   0  0  0  0  0  0  0  0  0  0  0  0
    1.2974    1.8393   -0.9272 H   0  0  0  0  0  0  0  0  0  0  0  0
    1.3622    0.7372   -2.2834 H   0  0  0  0  0  0  0  0  0  0  0  0
   -0.8380    2.7912   -2.0010 H   0  0  0  0  0  0  0  0  0  0  0  0
   -0.5394    0.1781   -3.6896 H   0  0  0  0  0  0  0  0  0  0  0  0
   -2.0152    1.2386   -3.6204 H   0  0  0  0  0  0  0  0  0  0  0  0
   -2.1798    0.8476   -1.1308 H   0  0  0  0  0  0  0  0  0  0  0  0
   -0.7108   -0.2163   -1.2077 H   0  0  0  0  0  0  0  0  0  0  0  0
    4.2787    0.4828   -5.8640 H   0  0  0  0  0  0  0  0  0  0  0  0
    2.4902    4.2438   -6.8100 H   0  0  0  0  0  0  0  0  0  0  0  0
    5.6946    1.2678   -7.2285 H   0  0  0  0  0  0  0  0  0  0  0  0
    6.1355    2.5803   -9.5293 H   0  0  0  0  0  0  0  0  0  0  0  0
    4.3207    1.2868  -10.6890 H   0  0  0  0  0  0  0  0  0  0  0  0
    5.0779   -0.2244  -10.2106 H   0  0  0  0  0  0  0  0  0  0  0  0
    6.2815    1.9168  -12.0369 H   0  0  0  0  0  0  0  0  0  0  0  0
    5.6801    0.3389  -12.5381 H   0  0  0  0  0  0  0  0  0  0  0  0
    8.1810    0.4187  -12.3586 H   0  0  0  0  0  0  0  0  0  0  0  0
    7.4585   -0.8101  -11.3250 H   0  0  0  0  0  0  0  0  0  0  0  0
    8.5164    1.9275  -10.4736 H   0  0  0  0  0  0  0  0  0  0  0  0
    9.1793    0.3670  -10.0482 H   0  0  0  0  0  0  0  0  0  0  0  0
    7.1795   -0.1987   -8.7214 H   0  0  0  0  0  0  0  0  0  0  0  0
    8.2417    2.3817   -8.2027 H   0  0  0  0  0  0  0  0  0  0  0  0
    3.9472    1.7358   -1.6349 H   0  0  0  0  0  0  0  0  0  0  0  0
    4.2591   -0.0364    0.0308 H   0  0  0  0  0  0  0  0  0  0  0  0
    3.8271   -3.0165   -3.0406 H   0  0  0  0  0  0  0  0  0  0  0  0
    3.3439   -1.2713   -4.6825 H   0  0  0  0  0  0  0  0  0  0  0  0
  1  2  1  0  0  0  0
  1 30  1  0  0  0  0
  1 31  1  0  0  0  0
  1 32  1  0  0  0  0
  2  3  1  0  0  0  0
  2  7  1  0  0  0  0
  3  4  1  0  0  0  0
  3 33  1  0  0  0  0
  3 34  1  0  0  0  0
  4  6  1  0  0  0  0
  4  5  1  0  0  0  0
  4 35  1  0  0  0  0
  5  6  1  0  0  0  0
  5 36  1  0  0  0  0
  5 37  1  0  0  0  0
  6 38  1  0  0  0  0
  6 39  1  0  0  0  0
  7 12  2  0  0  0  0
  7  8  1  0  0  0  0
  8  9  2  0  0  0  0
  8 23  1  0  0  0  0
  9 10  1  0  0  0  0
  9 40  1  0  0  0  0
 10 11  2  0  0  0  0
 10 13  1  0  0  0  0
 11 12  1  0  0  0  0
 11 41  1  0  0  0  0
 13 14  2  0  0  0  0
 13 15  1  0  0  0  0
 15 42  1  0  0  0  0
 16 17  1  0  0  0  0
 16 21  1  0  0  0  0
 16 15  1  0  0  0  0
 16 43  1  6  0  0  0
 17 18  1  0  0  0  0
 17 44  1  0  0  0  0
 17 45  1  0  0  0  0
 18 19  1  0  0  0  0
 18 46  1  0  0  0  0
 18 47  1  0  0  0  0
 19 20  1  0  0  0  0
 19 48  1  0  0  0  0
 19 49  1  0  0  0  0
 20 21  1  0  0  0  0
 20 50  1  0  0  0  0
 20 51  1  0  0  0  0
 21 22  1  0  0  0  0
 21 52  1  1  0  0  0
 22 53  1  0  0  0  0
 23 28  2  0  0  0  0
 23 24  1  0  0  0  0
 24 25  2  0  0  0  0
 24 54  1  0  0  0  0
 25 26  1  0  0  0  0
 25 55  1  0  0  0  0
 26 27  2  0  0  0  0
 26 29  1  0  0  0  0
 27 28  1  0  0  0  0
 27 56  1  0  0  0  0
 28 57  1  0  0  0  0
M  END
$$$$
CHEMBL2022363
 OpenBabel12022417453D

 54 57  0  0  0  0  0  0  0  0999 V2000
    2.5142   -1.3283   -0.4371 O   0  0  0  0  0  0  0  0  0  0  0  0
    2.1338   -0.1668   -0.3029 C   0  0  0  0  0  0  0  0  0  0  0  0
    2.8509    0.9735   -0.9646 C   0  0  0  0  0  0  0  0  0  0  0  0
    3.9356    0.6645   -1.6920 C   0  0  0  0  0  0  0  0  0  0  0  0
    4.8377    1.7030   -2.1763 C   0  0  0  0  0  0  0  0  0  0  0  0
    6.0211    1.3354   -2.8331 C   0  0  0  0  0  0  0  0  0  0  0  0
    6.9555    2.3003   -3.1992 C   0  0  0  0  0  0  0  0  0  0  0  0
    6.7021    3.6385   -2.9210 C   0  0  0  0  0  0  0  0  0  0  0  0
    5.5158    4.0150   -2.2809 C   0  0  0  0  0  0  0  0  0  0  0  0
    4.5675    3.0537   -1.9009 C   0  0  0  0  0  0  0  0  0  0  0  0
    3.3442    3.3872   -1.2400 N   0  0  0  0  0  0  0  0  0  0  0  0
    2.9419    4.7831   -1.0606 C   0  0  0  0  0  0  0  0  0  0  0  0
    3.3866    5.4346    0.2384 C   0  0  0  0  0  0  0  0  0  0  0  0
    3.3368    4.7527    1.4665 C   0  0  0  0  0  0  0  0  0  0  0  0
    3.5616    5.4260    2.6694 C   0  0  0  0  0  0  0  0  0  0  0  0
    3.8408    6.7847    2.6526 C   0  0  0  0  0  0  0  0  0  0  0  0
    3.9288    7.4779    1.4526 C   0  0  0  0  0  0  0  0  0  0  0  0
    3.7026    6.8058    0.2482 C   0  0  0  0  0  0  0  0  0  0  0  0
    4.0051    7.4402    3.8090 F   0  0  0  0  0  0  0  0  0  0  0  0
    2.4572    2.4018   -0.8000 C   0  0  0  0  0  0  0  0  0  0  0  0
    1.3774    2.6698   -0.2664 O   0  0  0  0  0  0  0  0  0  0  0  0
    1.0736    0.1754    0.5018 N   0  0  0  0  0  0  0  0  0  0  0  0
    0.2948   -0.8046    1.2558 C   0  0  0  0  0  0  0  0  0  0  0  0
   -0.3170   -0.1554    2.5070 C   0  0  0  0  0  0  0  0  0  0  0  0
   -1.7095    0.4524    2.3234 C   0  0  0  0  0  0  0  0  0  0  0  0
   -2.8418   -0.5602    2.5116 C   0  0  0  0  0  0  0  0  0  0  0  0
   -2.9946   -1.6105    1.4151 C   0  0  0  0  0  0  0  0  0  0  0  0
   -1.7228   -2.3729    1.0532 C   0  0  0  0  0  0  0  0  0  0  0  0
   -0.7088   -1.4959    0.3240 C   0  0  0  0  0  0  0  0  0  0  0  0
    4.2255   -0.3697   -1.8573 H   0  0  0  0  0  0  0  0  0  0  0  0
    6.2377    0.2862   -3.0390 H   0  0  0  0  0  0  0  0  0  0  0  0
    7.8824    2.0054   -3.6826 H   0  0  0  0  0  0  0  0  0  0  0  0
    7.4356    4.3941   -3.1904 H   0  0  0  0  0  0  0  0  0  0  0  0
    5.3807    5.0710   -2.0718 H   0  0  0  0  0  0  0  0  0  0  0  0
    1.8463    4.8460   -1.0840 H   0  0  0  0  0  0  0  0  0  0  0  0
    3.2690    5.3696   -1.9267 H   0  0  0  0  0  0  0  0  0  0  0  0
    3.0822    3.6972    1.5105 H   0  0  0  0  0  0  0  0  0  0  0  0
    3.4897    4.9022    3.6174 H   0  0  0  0  0  0  0  0  0  0  0  0
    4.1435    8.5418    1.4651 H   0  0  0  0  0  0  0  0  0  0  0  0
    3.7393    7.3716   -0.6806 H   0  0  0  0  0  0  0  0  0  0  0  0
    0.7537    1.1445    0.4833 H   0  0  0  0  0  0  0  0  0  0  0  0
    1.0093   -1.5637    1.6040 H   0  0  0  0  0  0  0  0  0  0  0  0
    0.3610    0.6284    2.8711 H   0  0  0  0  0  0  0  0  0  0  0  0
   -0.3595   -0.9017    3.3114 H   0  0  0  0  0  0  0  0  0  0  0  0
   -1.7972    0.9673    1.3605 H   0  0  0  0  0  0  0  0  0  0  0  0
   -1.8388    1.2213    3.0964 H   0  0  0  0  0  0  0  0  0  0  0  0
   -3.7886   -0.0085    2.5780 H   0  0  0  0  0  0  0  0  0  0  0  0
   -2.7209   -1.0656    3.4779 H   0  0  0  0  0  0  0  0  0  0  0  0
   -3.4035   -1.1363    0.5142 H   0  0  0  0  0  0  0  0  0  0  0  0
   -3.7507   -2.3354    1.7430 H   0  0  0  0  0  0  0  0  0  0  0  0
   -2.0088   -3.1909    0.3804 H   0  0  0  0  0  0  0  0  0  0  0  0
   -1.2812   -2.8420    1.9402 H   0  0  0  0  0  0  0  0  0  0  0  0
   -0.1491   -2.1219   -0.3826 H   0  0  0  0  0  0  0  0  0  0  0  0
   -1.2268   -0.7531   -0.2970 H   0  0  0  0  0  0  0  0  0  0  0  0
  1  2  2  0  0  0  0
  2  3  1  0  0  0  0
  2 22  1  0  0  0  0
  3 20  1  0  0  0  0
  3  4  2  0  0  0  0
  4  5  1  0  0  0  0
  4 30  1  0  0  0  0
  5 10  2  0  0  0  0
  5  6  1  0  0  0  0
  6  7  2  0  0  0  0
  6 31  1  0  0  0  0
  7  8  1  0  0  0  0
  7 32  1  0  0  0  0
  8  9  2  0  0  0  0
  8 33  1  0  0  0  0
  9 10  1  0  0  0  0
  9 34  1  0  0  0  0
 10 11  1  0  0  0  0
 11 12  1  0  0  0  0
 11 20  1  0  0  0  0
 12 13  1  0  0  0  0
 12 35  1  0  0  0  0
 12 36  1  0  0  0  0
 13 18  2  0  0  0  0
 13 14  1  0  0  0  0
 14 15  2  0  0  0  0
 14 37  1  0  0  0  0
 15 16  1  0  0  0  0
 15 38  1  0  0  0  0
 16 17  2  0  0  0  0
 16 19  1  0  0  0  0
 17 18  1  0  0  0  0
 17 39  1  0  0  0  0
 18 40  1  0  0  0  0
 20 21  2  0  0  0  0
 22 23  1  0  0  0  0
 22 41  1  0  0  0  0
 23 29  1  0  0  0  0
 23 24  1  0  0  0  0
 23 42  1  0  0  0  0
 24 25  1  0  0  0  0
 24 43  1  0  0  0  0
 24 44  1  0  0  0  0
 25 26  1  0  0  0  0
 25 45  1  0  0  0  0
 25 46  1  0  0  0  0
 26 27  1  0  0  0  0
 26 47  1  0  0  0  0
 26 48  1  0  0  0  0
 27 28  1  0  0  0  0
 27 49  1  0  0  0  0
 27 50  1  0  0  0  0
 28 29  1  0  0  0  0
 28 51  1  0  0  0  0
 28 52  1  0  0  0  0
 29 53  1  0  0  0  0
 29 54  1  0  0  0  0
M  END
$$$$
CHEMBL498748
 OpenBabel12022417453D

 53 57  0  0  0  0  0  0  0  0999 V2000
    1.3321    0.4764    1.1654 C   0  0  0  0  0  0  0  0  0  0  0  0
    2.4158    0.2776    0.2230 N   0  0  0  0  0  0  0  0  0  0  0  0
    3.2917    1.2731   -0.1955 C   0  0  0  0  0  0  0  0  0  0  0  0
    4.5307    0.9083   -0.3815 N   0  0  0  0  0  0  0  0  0  0  0  0
    4.5817   -0.4537   -0.1322 C   0  0  0  0  0  0  0  0  0  0  0  0
    5.5945   -1.1412   -0.1937 O   0  0  0  0  0  0  0  0  0  0  0  0
    3.1671   -0.9868    0.1875 C   0  0  0  0  0  0  0  0  0  0  0  0
    3.1925   -1.7912    1.4863 C   0  0  0  0  0  0  0  0  0  0  0  0
    2.6657   -1.8324   -0.9827 C   0  0  0  0  0  0  0  0  0  0  0  0
    2.8370    2.6531   -0.4290 C   0  0  0  0  0  0  0  0  0  0  0  0
    3.3172    3.6698   -1.3050 C   0  0  0  0  0  0  0  0  0  0  0  0
    2.6058    4.8414   -1.0156 C   0  0  0  0  0  0  0  0  0  0  0  0
    2.7074    6.2048   -1.6063 C   0  0  0  0  0  0  0  0  0  0  0  0
    2.5305    7.3681   -0.8378 C   0  0  0  0  0  0  0  0  0  0  0  0
    2.3981    8.6284   -1.4388 C   0  0  0  0  0  0  0  0  0  0  0  0
    2.5698    8.7636   -2.8106 C   0  0  0  0  0  0  0  0  0  0  0  0
    2.8738    7.6494   -3.5805 C   0  0  0  0  0  0  0  0  0  0  0  0
    2.9138    6.3816   -2.9843 C   0  0  0  0  0  0  0  0  0  0  0  0
    2.3873   10.3015   -3.5560 Cl  0  0  0  0  0  0  0  0  0  0  0  0
    1.7135    4.4498   -0.0005 N   0  0  0  0  0  0  0  0  0  0  0  0
    0.7011    5.1975    0.6819 C   0  0  0  0  0  0  0  0  0  0  0  0
   -0.0616    6.1470   -0.0212 C   0  0  0  0  0  0  0  0  0  0  0  0
   -0.9369    7.0013    0.6563 C   0  0  0  0  0  0  0  0  0  0  0  0
   -1.1150    6.8631    2.0279 C   0  0  0  0  0  0  0  0  0  0  0  0
   -0.4400    5.8680    2.7263 C   0  0  0  0  0  0  0  0  0  0  0  0
    0.4730    5.0348    2.0646 C   0  0  0  0  0  0  0  0  0  0  0  0
    1.3523    3.9544    3.0961 Cl  0  0  0  0  0  0  0  0  0  0  0  0
   -2.1568    7.9409    2.8702 Cl  0  0  0  0  0  0  0  0  0  0  0  0
    1.8332    3.1454    0.3070 N   0  0  0  0  0  0  0  0  0  0  0  0
    4.4335    3.5869   -2.3430 C   0  0  0  0  0  0  0  0  0  0  0  0
    4.9852    2.3125   -2.9223 C   0  0  0  0  0  0  0  0  0  0  0  0
    4.0864    3.1657   -3.7556 C   0  0  0  0  0  0  0  0  0  0  0  0
    0.8699   -0.4742    1.4612 H   0  0  0  0  0  0  0  0  0  0  0  0
    0.5277    1.0680    0.7307 H   0  0  0  0  0  0  0  0  0  0  0  0
    1.6981    0.9583    2.0812 H   0  0  0  0  0  0  0  0  0  0  0  0
    3.5538   -1.1925    2.3285 H   0  0  0  0  0  0  0  0  0  0  0  0
    3.8582   -2.6585    1.3943 H   0  0  0  0  0  0  0  0  0  0  0  0
    2.2024   -2.1806    1.7457 H   0  0  0  0  0  0  0  0  0  0  0  0
    2.7113   -1.2709   -1.9242 H   0  0  0  0  0  0  0  0  0  0  0  0
    1.6239   -2.1350   -0.8316 H   0  0  0  0  0  0  0  0  0  0  0  0
    3.2714   -2.7357   -1.1142 H   0  0  0  0  0  0  0  0  0  0  0  0
    2.4202    7.3136    0.2430 H   0  0  0  0  0  0  0  0  0  0  0  0
    2.1425    9.4920   -0.8298 H   0  0  0  0  0  0  0  0  0  0  0  0
    3.0486    7.7484   -4.6489 H   0  0  0  0  0  0  0  0  0  0  0  0
    3.0823    5.5335   -3.6378 H   0  0  0  0  0  0  0  0  0  0  0  0
    0.0250    6.2559   -1.1006 H   0  0  0  0  0  0  0  0  0  0  0  0
   -1.4630    7.7802    0.1088 H   0  0  0  0  0  0  0  0  0  0  0  0
   -0.5936    5.7637    3.7982 H   0  0  0  0  0  0  0  0  0  0  0  0
    5.0740    4.4684   -2.3342 H   0  0  0  0  0  0  0  0  0  0  0  0
    4.5803    1.3351   -2.7022 H   0  0  0  0  0  0  0  0  0  0  0  0
    6.0440    2.2884   -3.1546 H   0  0  0  0  0  0  0  0  0  0  0  0
    4.5422    3.7073   -4.5773 H   0  0  0  0  0  0  0  0  0  0  0  0
    3.0864    2.8041   -3.9629 H   0  0  0  0  0  0  0  0  0  0  0  0
  1  2  1  0  0  0  0
  1 33  1  0  0  0  0
  1 34  1  0  0  0  0
  1 35  1  0  0  0  0
  2  7  1  0  0  0  0
  2  3  1  0  0  0  0
  3  4  2  0  0  0  0
  3 10  1  0  0  0  0
  4  5  1  0  0  0  0
  5  6  2  0  0  0  0
  5  7  1  0  0  0  0
  7  8  1  0  0  0  0
  7  9  1  0  0  0  0
  8 36  1  0  0  0  0
  8 37  1  0  0  0  0
  8 38  1  0  0  0  0
  9 39  1  0  0  0  0
  9 40  1  0  0  0  0
  9 41  1  0  0  0  0
 10 29  2  0  0  0  0
 10 11  1  0  0  0  0
 11 12  2  0  0  0  0
 11 30  1  0  0  0  0
 12 13  1  0  0  0  0
 12 20  1  0  0  0  0
 13 18  2  0  0  0  0
 13 14  1  0  0  0  0
 14 15  2  0  0  0  0
 14 42  1  0  0  0  0
 15 16  1  0  0  0  0
 15 43  1  0  0  0  0
 16 17  2  0  0  0  0
 16 19  1  0  0  0  0
 17 18  1  0  0  0  0
 17 44  1  0  0  0  0
 18 45  1  0  0  0  0
 20 21  1  0  0  0  0
 20 29  1  0  0  0  0
 21 26  2  0  0  0  0
 21 22  1  0  0  0  0
 22 23  2  0  0  0  0
 22 46  1  0  0  0  0
 23 24  1  0  0  0  0
 23 47  1  0  0  0  0
 24 25  2  0  0  0  0
 24 28  1  0  0  0  0
 25 26  1  0  0  0  0
 25 48  1  0  0  0  0
 26 27  1  0  0  0  0
 30 32  1  0  0  0  0
 30 31  1  0  0  0  0
 30 49  1  0  0  0  0
 31 32  1  0  0  0  0
 31 50  1  0  0  0  0
 31 51  1  0  0  0  0
 32 52  1  0  0  0  0
 32 53  1  0  0  0  0
M  END
$$$$
CHEMBL1420151
 OpenBabel12022417453D

 46 49  0  0  0  0  0  0  0  0999 V2000
    1.2195   -0.6508    0.0783 C   0  0  0  0  0  0  0  0  0  0  0  0
    1.2365    0.7042    0.0783 C   0  0  0  0  0  0  0  0  0  0  0  0
   -0.0516    1.4550    0.0850 C   0  0  0  0  0  0  0  0  0  0  0  0
   -0.0453    2.6841    0.1047 O   0  0  0  0  0  0  0  0  0  0  0  0
   -1.1997    0.6832    0.0550 N   0  0  0  0  0  0  0  0  0  0  0  0
   -1.0908   -0.6957    0.0631 C   0  0  0  0  0  0  0  0  0  0  0  0
   -2.3649   -1.4706    0.0365 C   0  0  0  0  0  0  0  0  0  0  0  0
   -3.5371   -0.8290    0.0057 C   0  0  0  0  0  0  0  0  0  0  0  0
   -3.5819    0.6085   -0.0017 C   0  0  0  0  0  0  0  0  0  0  0  0
   -2.4416    1.3090    0.0242 C   0  0  0  0  0  0  0  0  0  0  0  0
    0.0292   -1.3445    0.0866 N   0  0  0  0  0  0  0  0  0  0  0  0
    2.4851    1.4487    0.0708 C   0  0  0  0  0  0  0  0  0  0  0  0
    3.6862    0.8592   -0.0467 C   0  0  0  0  0  0  0  0  0  0  0  0
    4.9545    1.6228    0.0150 C   0  0  0  0  0  0  0  0  0  0  0  0
    6.0535    1.0961   -0.0920 O   0  0  0  0  0  0  0  0  0  0  0  0
    4.7339    2.9290    0.3088 O   0  0  0  0  0  0  0  0  0  0  0  0
    5.8478    3.6257    0.8830 C   0  0  0  0  0  0  0  0  0  0  0  0
    5.7539    3.4698    2.3906 C   0  0  0  0  0  0  0  0  0  0  0  0
    3.6657   -0.6448   -0.1660 C   0  0  0  0  0  0  0  0  0  0  0  0
    4.7604   -1.2916   -0.4560 N   0  0  0  0  0  0  0  0  0  0  0  0
    2.4599   -1.3375    0.0225 N   0  0  0  0  0  0  0  0  0  0  0  0
    2.4833   -2.8104   -0.0175 C   0  0  0  0  0  0  0  0  0  0  0  0
    2.6389   -3.4774    1.3400 C   0  0  0  0  0  0  0  0  0  0  0  0
    3.8479   -3.4114    2.0505 C   0  0  0  0  0  0  0  0  0  0  0  0
    4.0525   -4.1946    3.1906 C   0  0  0  0  0  0  0  0  0  0  0  0
    3.0486   -5.0481    3.6420 C   0  0  0  0  0  0  0  0  0  0  0  0
    1.8252   -5.0888    2.9767 C   0  0  0  0  0  0  0  0  0  0  0  0
    1.6181   -4.3018    1.8399 C   0  0  0  0  0  0  0  0  0  0  0  0
   -2.2884   -2.5505    0.0374 H   0  0  0  0  0  0  0  0  0  0  0  0
   -4.4759   -1.3761   -0.0196 H   0  0  0  0  0  0  0  0  0  0  0  0
   -4.5466    1.1055   -0.0255 H   0  0  0  0  0  0  0  0  0  0  0  0
   -2.4494    2.3958    0.0192 H   0  0  0  0  0  0  0  0  0  0  0  0
    2.3981    2.5271    0.1806 H   0  0  0  0  0  0  0  0  0  0  0  0
    5.7627    4.6811    0.6055 H   0  0  0  0  0  0  0  0  0  0  0  0
    6.8086    3.2618    0.5022 H   0  0  0  0  0  0  0  0  0  0  0  0
    4.8087    3.8882    2.7543 H   0  0  0  0  0  0  0  0  0  0  0  0
    6.5821    3.9710    2.8961 H   0  0  0  0  0  0  0  0  0  0  0  0
    5.7538    2.4110    2.6725 H   0  0  0  0  0  0  0  0  0  0  0  0
    5.5611   -0.6449   -0.5571 H   0  0  0  0  0  0  0  0  0  0  0  0
    3.2893   -3.1818   -0.6635 H   0  0  0  0  0  0  0  0  0  0  0  0
    1.5775   -3.1902   -0.5071 H   0  0  0  0  0  0  0  0  0  0  0  0
    4.6620   -2.7839    1.6921 H   0  0  0  0  0  0  0  0  0  0  0  0
    5.0088   -4.1604    3.7072 H   0  0  0  0  0  0  0  0  0  0  0  0
    3.2230   -5.6873    4.5035 H   0  0  0  0  0  0  0  0  0  0  0  0
    1.0406   -5.7544    3.3272 H   0  0  0  0  0  0  0  0  0  0  0  0
    0.6651   -4.3672    1.3197 H   0  0  0  0  0  0  0  0  0  0  0  0
  1 11  1  0  0  0  0
  1 21  1  0  0  0  0
  1  2  2  0  0  0  0
  2  3  1  0  0  0  0
  2 12  1  0  0  0  0
  3  4  2  0  0  0  0
  3  5  1  0  0  0  0
  5 10  1  0  0  0  0
  5  6  1  0  0  0  0
  6  7  1  0  0  0  0
  6 11  2  0  0  0  0
  7  8  2  0  0  0  0
  7 29  1  0  0  0  0
  8  9  1  0  0  0  0
  8 30  1  0  0  0  0
  9 10  2  0  0  0  0
  9 31  1  0  0  0  0
 10 32  1  0  0  0  0
 12 13  2  0  0  0  0
 12 33  1  0  0  0  0
 13 14  1  0  0  0  0
 13 19  1  0  0  0  0
 14 15  2  0  0  0  0
 14 16  1  0  0  0  0
 16 17  1  0  0  0  0
 17 18  1  0  0  0  0
 17 34  1  0  0  0  0
 17 35  1  0  0  0  0
 18 36  1  0  0  0  0
 18 37  1  0  0  0  0
 18 38  1  0  0  0  0
 19 20  2  0  0  0  0
 19 21  1  0  0  0  0
 20 39  1  0  0  0  0
 21 22  1  0  0  0  0
 22 23  1  0  0  0  0
 22 40  1  0  0  0  0
 22 41  1  0  0  0  0
 23 28  2  0  0  0  0
 23 24  1  0  0  0  0
 24 25  2  0  0  0  0
 24 42  1  0  0  0  0
 25 26  1  0  0  0  0
 25 43  1  0  0  0  0
 26 27  2  0  0  0  0
 26 44  1  0  0  0  0
 27 28  1  0  0  0  0
 27 45  1  0  0  0  0
 28 46  1  0  0  0  0
M  END
$$$$
CHEMBL2206834
 OpenBabel12022417453D

 49 52  0  0  0  0  0  0  0  0999 V2000
    4.6362   -7.2162    3.2777 C   0  0  0  0  0  0  0  0  0  0  0  0
    4.4059   -6.3302    2.0622 C   0  0  0  0  0  0  0  0  0  0  0  0
    5.1707   -5.0125    2.1951 C   0  0  0  0  0  0  0  0  0  0  0  0
    4.9924   -4.1143    0.9721 C   0  0  0  0  0  0  0  0  0  0  0  0
    5.7327   -2.7770    1.1160 C   0  0  0  0  0  0  0  0  0  0  0  0
    7.1904   -2.8658    1.0526 N   0  0  0  0  0  0  0  0  0  0  0  0
    8.0634   -2.9014    2.1304 C   0  0  0  0  0  0  0  0  0  0  0  0
    9.3873   -2.8853    1.6826 C   0  0  0  0  0  0  0  0  0  0  0  0
   10.7009   -2.8949    2.4042 C   0  0  0  0  0  0  0  0  0  0  0  0
   11.7451   -2.8348    1.7627 O   0  0  0  0  0  0  0  0  0  0  0  0
   10.8790   -2.9635    3.9314 C   0  0  0  0  0  0  0  0  0  0  0  0
    9.8673   -2.4210    4.7232 C   0  0  0  0  0  0  0  0  0  0  0  0
    9.8959   -2.5271    6.1099 C   0  0  0  0  0  0  0  0  0  0  0  0
   10.9742   -3.1316    6.7513 C   0  0  0  0  0  0  0  0  0  0  0  0
   12.1118   -3.5485    6.0296 C   0  0  0  0  0  0  0  0  0  0  0  0
   13.2749   -4.0100    6.7077 C   0  0  0  0  0  0  0  0  0  0  0  0
   14.4426   -4.3467    6.0382 C   0  0  0  0  0  0  0  0  0  0  0  0
   14.4622   -4.2649    4.6593 C   0  0  0  0  0  0  0  0  0  0  0  0
   13.3117   -3.8571    3.9607 C   0  0  0  0  0  0  0  0  0  0  0  0
   12.0926   -3.4631    4.5967 C   0  0  0  0  0  0  0  0  0  0  0  0
   10.8073   -3.3137    8.6478 Br  0  0  0  0  0  0  0  0  0  0  0  0
    9.2566   -2.8567    0.2222 C   0  0  0  0  0  0  0  0  0  0  0  0
   10.1895   -2.8381   -0.8448 C   0  0  0  0  0  0  0  0  0  0  0  0
    9.7586   -2.8146   -2.1790 C   0  0  0  0  0  0  0  0  0  0  0  0
    8.4066   -2.8032   -2.4825 C   0  0  0  0  0  0  0  0  0  0  0  0
    7.4562   -2.8159   -1.4621 C   0  0  0  0  0  0  0  0  0  0  0  0
    7.9013   -2.8462   -0.1249 C   0  0  0  0  0  0  0  0  0  0  0  0
    4.0860   -8.1566    3.1759 H   0  0  0  0  0  0  0  0  0  0  0  0
    4.2976   -6.7210    4.1936 H   0  0  0  0  0  0  0  0  0  0  0  0
    5.6987   -7.4551    3.3907 H   0  0  0  0  0  0  0  0  0  0  0  0
    3.3323   -6.1356    1.9551 H   0  0  0  0  0  0  0  0  0  0  0  0
    4.7308   -6.8643    1.1617 H   0  0  0  0  0  0  0  0  0  0  0  0
    6.2343   -5.2301    2.3375 H   0  0  0  0  0  0  0  0  0  0  0  0
    4.8224   -4.4792    3.0879 H   0  0  0  0  0  0  0  0  0  0  0  0
    3.9210   -3.9073    0.8395 H   0  0  0  0  0  0  0  0  0  0  0  0
    5.3208   -4.6421    0.0682 H   0  0  0  0  0  0  0  0  0  0  0  0
    5.4589   -2.2663    2.0445 H   0  0  0  0  0  0  0  0  0  0  0  0
    5.4152   -2.1150    0.2982 H   0  0  0  0  0  0  0  0  0  0  0  0
    7.6339   -2.9300    3.1207 H   0  0  0  0  0  0  0  0  0  0  0  0
    9.0463   -1.8671    4.2850 H   0  0  0  0  0  0  0  0  0  0  0  0
    9.0722   -2.1224    6.6916 H   0  0  0  0  0  0  0  0  0  0  0  0
   13.3071   -4.0770    7.7935 H   0  0  0  0  0  0  0  0  0  0  0  0
   15.3261   -4.6526    6.5960 H   0  0  0  0  0  0  0  0  0  0  0  0
   15.3802   -4.5023    4.1249 H   0  0  0  0  0  0  0  0  0  0  0  0
   13.4167   -3.8094    2.8779 H   0  0  0  0  0  0  0  0  0  0  0  0
   11.2561   -2.8445   -0.6344 H   0  0  0  0  0  0  0  0  0  0  0  0
   10.4914   -2.8053   -2.9793 H   0  0  0  0  0  0  0  0  0  0  0  0
    8.0813   -2.7837   -3.5206 H   0  0  0  0  0  0  0  0  0  0  0  0
    6.3981   -2.8061   -1.7125 H   0  0  0  0  0  0  0  0  0  0  0  0
  1  2  1  0  0  0  0
  1 28  1  0  0  0  0
  1 29  1  0  0  0  0
  1 30  1  0  0  0  0
  2  3  1  0  0  0  0
  2 31  1  0  0  0  0
  2 32  1  0  0  0  0
  3  4  1  0  0  0  0
  3 33  1  0  0  0  0
  3 34  1  0  0  0  0
  4  5  1  0  0  0  0
  4 35  1  0  0  0  0
  4 36  1  0  0  0  0
  5  6  1  0  0  0  0
  5 37  1  0  0  0  0
  5 38  1  0  0  0  0
  6 27  1  0  0  0  0
  6  7  1  0  0  0  0
  7  8  2  0  0  0  0
  7 39  1  0  0  0  0
  8  9  1  0  0  0  0
  8 22  1  0  0  0  0
  9 10  2  0  0  0  0
  9 11  1  0  0  0  0
 11 20  2  0  0  0  0
 11 12  1  0  0  0  0
 12 13  2  0  0  0  0
 12 40  1  0  0  0  0
 13 14  1  0  0  0  0
 13 41  1  0  0  0  0
 14 15  2  0  0  0  0
 14 21  1  0  0  0  0
 15 20  1  0  0  0  0
 15 16  1  0  0  0  0
 16 17  2  0  0  0  0
 16 42  1  0  0  0  0
 17 18  1  0  0  0  0
 17 43  1  0  0  0  0
 18 19  2  0  0  0  0
 18 44  1  0  0  0  0
 19 20  1  0  0  0  0
 19 45  1  0  0  0  0
 22 27  2  0  0  0  0
 22 23  1  0  0  0  0
 23 24  2  0  0  0  0
 23 46  1  0  0  0  0
 24 25  1  0  0  0  0
 24 47  1  0  0  0  0
 25 26  2  0  0  0  0
 25 48  1  0  0  0  0
 26 27  1  0  0  0  0
 26 49  1  0  0  0  0
M  END
$$$$
CHEMBL1224614
 OpenBabel12022417453D

 62 65  0  0  0  0  0  0  0  0999 V2000
   12.8831   -2.0843   -0.7578 C   0  0  0  0  0  0  0  0  0  0  0  0
   11.6712   -1.3494   -0.6310 O   0  0  0  0  0  0  0  0  0  0  0  0
   11.4195   -0.4083   -1.6018 C   0  0  0  0  0  0  0  0  0  0  0  0
   11.8032   -0.6045   -2.9344 C   0  0  0  0  0  0  0  0  0  0  0  0
   11.4274    0.3160   -3.9029 C   0  0  0  0  0  0  0  0  0  0  0  0
   10.6492    1.4162   -3.5804 C   0  0  0  0  0  0  0  0  0  0  0  0
   10.2695    1.6208   -2.2519 C   0  0  0  0  0  0  0  0  0  0  0  0
   10.6674    0.7362   -1.2251 C   0  0  0  0  0  0  0  0  0  0  0  0
   10.3274    1.0542    0.1854 C   0  0  0  0  0  0  0  0  0  0  0  0
   11.1893    0.7629    1.2428 C   0  0  0  0  0  0  0  0  0  0  0  0
   10.7984    1.0335    2.5470 C   0  0  0  0  0  0  0  0  0  0  0  0
    9.5689    1.6321    2.7701 C   0  0  0  0  0  0  0  0  0  0  0  0
    8.7791    1.9882    1.6773 C   0  0  0  0  0  0  0  0  0  0  0  0
    7.4206    2.6215    1.8691 C   0  0  0  0  0  0  0  0  0  0  0  0
    7.5854    3.9138    2.6142 C   0  0  0  0  0  0  0  0  0  0  0  0
    7.4505    4.0625    3.9880 C   0  0  0  0  0  0  0  0  0  0  0  0
    7.5507    5.3860    4.2968 N   0  0  0  0  0  0  0  0  0  0  0  0
    7.4089    5.9541    5.6195 C   0  0  0  0  0  0  0  0  0  0  0  0
    7.7597    6.1197    3.1540 C   0  0  0  0  0  0  0  0  0  0  0  0
    7.8926    7.4993    2.9950 C   0  0  0  0  0  0  0  0  0  0  0  0
    8.0966    7.9964    1.7118 C   0  0  0  0  0  0  0  0  0  0  0  0
    8.1835    7.1625    0.5960 C   0  0  0  0  0  0  0  0  0  0  0  0
    8.0331    5.7704    0.7771 C   0  0  0  0  0  0  0  0  0  0  0  0
    7.8124    5.2321    2.0763 C   0  0  0  0  0  0  0  0  0  0  0  0
    8.4260    7.6648   -0.7104 N   0  0  0  0  0  0  0  0  0  0  0  0
    8.6001    9.0012   -1.0581 C   0  0  0  0  0  0  0  0  0  0  0  0
    8.5088    9.9478   -0.2730 O   0  0  0  0  0  0  0  0  0  0  0  0
    8.9418    9.2974   -2.5300 C   0  0  0  0  0  0  0  0  0  0  0  0
   10.2401    8.5930   -2.9406 C   0  0  0  0  0  0  0  0  0  0  0  0
    7.7861    8.8633   -3.4398 C   0  0  0  0  0  0  0  0  0  0  0  0
    9.1192   10.8339   -2.6825 C   0  0  0  0  0  0  0  0  0  0  0  0
   10.1889   11.3290   -1.8819 O   0  0  0  0  0  0  0  0  0  0  0  0
    9.1423    1.6908    0.3974 N   0  0  0  0  0  0  0  0  0  0  0  0
   11.8111    0.1268   -5.1723 F   0  0  0  0  0  0  0  0  0  0  0  0
   13.0435   -2.6187    0.1839 H   0  0  0  0  0  0  0  0  0  0  0  0
   13.7370   -1.4166   -0.9134 H   0  0  0  0  0  0  0  0  0  0  0  0
   12.8122   -2.8318   -1.5529 H   0  0  0  0  0  0  0  0  0  0  0  0
   12.3697   -1.4712   -3.2525 H   0  0  0  0  0  0  0  0  0  0  0  0
   10.3467    2.1089   -4.3587 H   0  0  0  0  0  0  0  0  0  0  0  0
    9.6629    2.4916   -2.0069 H   0  0  0  0  0  0  0  0  0  0  0  0
   12.1624    0.3194    1.0662 H   0  0  0  0  0  0  0  0  0  0  0  0
   11.4480    0.7725    3.3764 H   0  0  0  0  0  0  0  0  0  0  0  0
    9.2434    1.8221    3.7870 H   0  0  0  0  0  0  0  0  0  0  0  0
    6.7794    1.9313    2.4322 H   0  0  0  0  0  0  0  0  0  0  0  0
    6.9356    2.7989    0.9038 H   0  0  0  0  0  0  0  0  0  0  0  0
    7.2723    3.3246    4.7607 H   0  0  0  0  0  0  0  0  0  0  0  0
    7.2044    5.1616    6.3420 H   0  0  0  0  0  0  0  0  0  0  0  0
    6.5749    6.6623    5.6015 H   0  0  0  0  0  0  0  0  0  0  0  0
    8.3399    6.4662    5.8780 H   0  0  0  0  0  0  0  0  0  0  0  0
    7.8370    8.1829    3.8360 H   0  0  0  0  0  0  0  0  0  0  0  0
    8.1886    9.0730    1.6367 H   0  0  0  0  0  0  0  0  0  0  0  0
    8.0885    5.0869   -0.0671 H   0  0  0  0  0  0  0  0  0  0  0  0
    8.5018    6.9713   -1.4491 H   0  0  0  0  0  0  0  0  0  0  0  0
   10.1332    7.5042   -2.9309 H   0  0  0  0  0  0  0  0  0  0  0  0
   11.0649    8.8457   -2.2655 H   0  0  0  0  0  0  0  0  0  0  0  0
   10.5375    8.8835   -3.9562 H   0  0  0  0  0  0  0  0  0  0  0  0
    7.6474    7.7781   -3.4346 H   0  0  0  0  0  0  0  0  0  0  0  0
    7.9666    9.1686   -4.4779 H   0  0  0  0  0  0  0  0  0  0  0  0
    6.8411    9.3172   -3.1194 H   0  0  0  0  0  0  0  0  0  0  0  0
    8.2080   11.3764   -2.4000 H   0  0  0  0  0  0  0  0  0  0  0  0
    9.3460   11.0995   -3.7198 H   0  0  0  0  0  0  0  0  0  0  0  0
    9.8928   11.2171   -0.9530 H   0  0  0  0  0  0  0  0  0  0  0  0
  1  2  1  0  0  0  0
  1 35  1  0  0  0  0
  1 36  1  0  0  0  0
  1 37  1  0  0  0  0
  2  3  1  0  0  0  0
  3  8  2  0  0  0  0
  3  4  1  0  0  0  0
  4  5  2  0  0  0  0
  4 38  1  0  0  0  0
  5  6  1  0  0  0  0
  5 34  1  0  0  0  0
  6  7  2  0  0  0  0
  6 39  1  0  0  0  0
  7  8  1  0  0  0  0
  7 40  1  0  0  0  0
  8  9  1  0  0  0  0
  9 33  2  0  0  0  0
  9 10  1  0  0  0  0
 10 11  2  0  0  0  0
 10 41  1  0  0  0  0
 11 12  1  0  0  0  0
 11 42  1  0  0  0  0
 12 13  2  0  0  0  0
 12 43  1  0  0  0  0
 13 14  1  0  0  0  0
 13 33  1  0  0  0  0
 14 15  1  0  0  0  0
 14 44  1  0  0  0  0
 14 45  1  0  0  0  0
 15 24  1  0  0  0  0
 15 16  2  0  0  0  0
 16 17  1  0  0  0  0
 16 46  1  0  0  0  0
 17 18  1  0  0  0  0
 17 19  1  0  0  0  0
 18 47  1  0  0  0  0
 18 48  1  0  0  0  0
 18 49  1  0  0  0  0
 19 24  2  0  0  0  0
 19 20  1  0  0  0  0
 20 21  2  0  0  0  0
 20 50  1  0  0  0  0
 21 22  1  0  0  0  0
 21 51  1  0  0  0  0
 22 23  2  0  0  0  0
 22 25  1  0  0  0  0
 23 24  1  0  0  0  0
 23 52  1  0  0  0  0
 25 26  1  0  0  0  0
 25 53  1  0  0  0  0
 26 27  2  0  0  0  0
 26 28  1  0  0  0  0
 28 29  1  0  0  0  0
 28 30  1  0  0  0  0
 28 31  1  0  0  0  0
 29 54  1  0  0  0  0
 29 55  1  0  0  0  0
 29 56  1  0  0  0  0
 30 57  1  0  0  0  0
 30 58  1  0  0  0  0
 30 59  1  0  0  0  0
 31 32  1  0  0  0  0
 31 60  1  0  0  0  0
 31 61  1  0  0  0  0
 32 62  1  0  0  0  0
M  END
$$$$
CHEMBL2206850
 OpenBabel12022417453D

 49 52  0  0  0  0  0  0  0  0999 V2000
   -2.0725   -0.9465    0.0476 C   0  0  0  0  0  0  0  0  0  0  0  0
   -2.1186    0.4289   -0.1353 C   0  0  0  0  0  0  0  0  0  0  0  0
   -0.9472    1.1924   -0.1374 C   0  0  0  0  0  0  0  0  0  0  0  0
    0.2822    0.5337    0.0605 C   0  0  0  0  0  0  0  0  0  0  0  0
    0.3506   -0.8451    0.2977 C   0  0  0  0  0  0  0  0  0  0  0  0
   -0.8526   -1.5916    0.2724 C   0  0  0  0  0  0  0  0  0  0  0  0
    1.7185   -1.1817    0.5950 C   0  0  0  0  0  0  0  0  0  0  0  0
    2.4479   -0.0281    0.3571 C   0  0  0  0  0  0  0  0  0  0  0  0
    1.5774    1.0068    0.0947 N   0  0  0  0  0  0  0  0  0  0  0  0
    1.9799    2.3994   -0.0199 C   0  0  0  0  0  0  0  0  0  0  0  0
    3.0137    2.6917   -1.1070 C   0  0  0  0  0  0  0  0  0  0  0  0
    2.5000    2.4269   -2.5254 C   0  0  0  0  0  0  0  0  0  0  0  0
    3.5793    2.7619   -3.5569 C   0  0  0  0  0  0  0  0  0  0  0  0
    3.1097    2.5012   -4.9782 C   0  0  0  0  0  0  0  0  0  0  0  0
    2.2093   -2.4898    1.0646 C   0  0  0  0  0  0  0  0  0  0  0  0
    1.5037   -3.4996    1.0219 O   0  0  0  0  0  0  0  0  0  0  0  0
    3.6133   -2.6669    1.5409 C   0  0  0  0  0  0  0  0  0  0  0  0
    4.2963   -3.7430    0.9506 C   0  0  0  0  0  0  0  0  0  0  0  0
    5.6631   -3.9035    1.1134 C   0  0  0  0  0  0  0  0  0  0  0  0
    6.3646   -2.9406    1.8222 C   0  0  0  0  0  0  0  0  0  0  0  0
    5.6972   -1.8456    2.3982 C   0  0  0  0  0  0  0  0  0  0  0  0
    4.2839   -1.7711    2.4402 C   0  0  0  0  0  0  0  0  0  0  0  0
    3.7447   -0.8000    3.3406 C   0  0  0  0  0  0  0  0  0  0  0  0
    4.5450    0.2213    3.8659 C   0  0  0  0  0  0  0  0  0  0  0  0
    5.8786    0.3025    3.5097 C   0  0  0  0  0  0  0  0  0  0  0  0
    6.4731   -0.7859    2.8834 C   0  0  0  0  0  0  0  0  0  0  0  0
    1.7779   -0.8653    4.1133 I   0  0  0  0  0  0  0  0  0  0  0  0
   -2.9896   -1.5293    0.0336 H   0  0  0  0  0  0  0  0  0  0  0  0
   -3.0783    0.9193   -0.2811 H   0  0  0  0  0  0  0  0  0  0  0  0
   -1.0055    2.2661   -0.2885 H   0  0  0  0  0  0  0  0  0  0  0  0
   -0.8294   -2.6650    0.4319 H   0  0  0  0  0  0  0  0  0  0  0  0
    3.5115    0.1616    0.4144 H   0  0  0  0  0  0  0  0  0  0  0  0
    2.3886    2.6735    0.9597 H   0  0  0  0  0  0  0  0  0  0  0  0
    1.0927    3.0183   -0.1821 H   0  0  0  0  0  0  0  0  0  0  0  0
    3.9231    2.1068   -0.9298 H   0  0  0  0  0  0  0  0  0  0  0  0
    3.3001    3.7472   -1.0266 H   0  0  0  0  0  0  0  0  0  0  0  0
    1.6054    3.0325   -2.7144 H   0  0  0  0  0  0  0  0  0  0  0  0
    2.2089    1.3752   -2.6312 H   0  0  0  0  0  0  0  0  0  0  0  0
    4.4759    2.1614   -3.3616 H   0  0  0  0  0  0  0  0  0  0  0  0
    3.8694    3.8151   -3.4627 H   0  0  0  0  0  0  0  0  0  0  0  0
    2.8463    1.4483   -5.1180 H   0  0  0  0  0  0  0  0  0  0  0  0
    3.9047    2.7491   -5.6890 H   0  0  0  0  0  0  0  0  0  0  0  0
    2.2346    3.1119   -5.2214 H   0  0  0  0  0  0  0  0  0  0  0  0
    3.7564   -4.4392    0.3057 H   0  0  0  0  0  0  0  0  0  0  0  0
    6.1756   -4.7559    0.6875 H   0  0  0  0  0  0  0  0  0  0  0  0
    7.4433   -3.0327    1.8979 H   0  0  0  0  0  0  0  0  0  0  0  0
    4.1414    0.9598    4.5557 H   0  0  0  0  0  0  0  0  0  0  0  0
    6.4687    1.1819    3.7636 H   0  0  0  0  0  0  0  0  0  0  0  0
    7.5481   -0.7729    2.7340 H   0  0  0  0  0  0  0  0  0  0  0  0
  1  6  2  0  0  0  0
  1  2  1  0  0  0  0
  1 28  1  0  0  0  0
  2  3  2  0  0  0  0
  2 29  1  0  0  0  0
  3  4  1  0  0  0  0
  3 30  1  0  0  0  0
  4  9  1  0  0  0  0
  4  5  2  0  0  0  0
  5  6  1  0  0  0  0
  5  7  1  0  0  0  0
  6 31  1  0  0  0  0
  7  8  2  0  0  0  0
  7 15  1  0  0  0  0
  8  9  1  0  0  0  0
  8 32  1  0  0  0  0
  9 10  1  0  0  0  0
 10 11  1  0  0  0  0
 10 33  1  0  0  0  0
 10 34  1  0  0  0  0
 11 12  1  0  0  0  0
 11 35  1  0  0  0  0
 11 36  1  0  0  0  0
 12 13  1  0  0  0  0
 12 37  1  0  0  0  0
 12 38  1  0  0  0  0
 13 14  1  0  0  0  0
 13 39  1  0  0  0  0
 13 40  1  0  0  0  0
 14 41  1  0  0  0  0
 14 42  1  0  0  0  0
 14 43  1  0  0  0  0
 15 16  2  0  0  0  0
 15 17  1  0  0  0  0
 17 22  2  0  0  0  0
 17 18  1  0  0  0  0
 18 19  2  0  0  0  0
 18 44  1  0  0  0  0
 19 20  1  0  0  0  0
 19 45  1  0  0  0  0
 20 21  2  0  0  0  0
 20 46  1  0  0  0  0
 21 26  1  0  0  0  0
 21 22  1  0  0  0  0
 22 23  1  0  0  0  0
 23 24  2  0  0  0  0
 23 27  1  0  0  0  0
 24 25  1  0  0  0  0
 24 47  1  0  0  0  0
 25 26  2  0  0  0  0
 25 48  1  0  0  0  0
 26 49  1  0  0  0  0
M  END
$$$$
CHEMBL1760660
 OpenBabel12022417453D

 54 57  0  0  0  0  0  0  0  0999 V2000
    2.5553   -5.4876    0.7778 C   0  0  0  0  0  0  0  0  0  0  0  0
    1.2426   -4.8720    1.1714 C   0  0  0  0  0  0  0  0  0  0  0  0
    0.2858   -5.7747    1.6975 C   0  0  0  0  0  0  0  0  0  0  0  0
   -0.9507   -5.3426    2.1662 C   0  0  0  0  0  0  0  0  0  0  0  0
   -1.2453   -3.9957    2.1146 C   0  0  0  0  0  0  0  0  0  0  0  0
   -0.3510   -3.0945    1.5443 C   0  0  0  0  0  0  0  0  0  0  0  0
    0.9035   -3.5081    1.0268 C   0  0  0  0  0  0  0  0  0  0  0  0
    1.6464   -2.4434    0.2328 C   0  0  0  0  0  0  0  0  0  0  0  0
    3.1137   -2.4525    0.2218 N   0  0  0  0  0  0  0  0  0  0  0  0
    3.9361   -2.8518   -0.8414 C   0  0  0  0  0  0  0  0  0  0  0  0
    3.5054   -3.5270   -2.0684 C   0  0  0  0  0  0  0  0  0  0  0  0
    2.3378   -3.8171   -2.3134 O   0  0  0  0  0  0  0  0  0  0  0  0
    4.5179   -3.8430   -2.9618 N   0  0  0  0  0  0  0  0  0  0  0  0
    4.2712   -4.3932   -4.2861 C   0  0  0  0  0  0  0  0  0  0  0  0
    4.8230   -5.8241   -4.3697 C   0  0  0  0  0  0  0  0  0  0  0  0
    4.0543   -6.8168   -3.4885 C   0  0  0  0  0  0  0  0  0  0  0  0
    2.6812   -6.8461   -3.8613 O   0  0  0  0  0  0  0  0  0  0  0  0
    4.9685   -6.2837   -5.8603 C   0  0  0  0  0  0  0  0  0  0  0  0
    6.3297   -6.9046   -5.5144 C   0  0  0  0  0  0  0  0  0  0  0  0
    6.3751   -6.0063   -4.2636 C   0  0  0  0  0  0  0  0  0  0  0  0
    5.2242   -2.4794   -0.4734 C   0  0  0  0  0  0  0  0  0  0  0  0
    5.1837   -1.7740    0.7529 C   0  0  0  0  0  0  0  0  0  0  0  0
    6.1609   -1.0960    1.5078 C   0  0  0  0  0  0  0  0  0  0  0  0
    5.7876   -0.4349    2.6860 C   0  0  0  0  0  0  0  0  0  0  0  0
    6.7598    0.3298    3.4061 C   0  0  0  0  0  0  0  0  0  0  0  0
    7.5567    0.9634    3.9758 N   0  0  0  0  0  0  0  0  0  0  0  0
    4.4689   -0.5039    3.1383 C   0  0  0  0  0  0  0  0  0  0  0  0
    3.4918   -1.1969    2.4132 C   0  0  0  0  0  0  0  0  0  0  0  0
    3.8663   -1.7998    1.1984 C   0  0  0  0  0  0  0  0  0  0  0  0
   -2.4176   -3.5554    2.5876 F   0  0  0  0  0  0  0  0  0  0  0  0
    3.3958   -4.8195    0.9563 H   0  0  0  0  0  0  0  0  0  0  0  0
    2.5353   -5.8187   -0.2630 H   0  0  0  0  0  0  0  0  0  0  0  0
    2.7653   -6.3590    1.4114 H   0  0  0  0  0  0  0  0  0  0  0  0
    0.5110   -6.8394    1.7438 H   0  0  0  0  0  0  0  0  0  0  0  0
   -1.6727   -6.0446    2.5698 H   0  0  0  0  0  0  0  0  0  0  0  0
   -0.6669   -2.0548    1.4828 H   0  0  0  0  0  0  0  0  0  0  0  0
    1.3816   -1.4576    0.6442 H   0  0  0  0  0  0  0  0  0  0  0  0
    1.2800   -2.4176   -0.7954 H   0  0  0  0  0  0  0  0  0  0  0  0
    5.4473   -3.4972   -2.7828 H   0  0  0  0  0  0  0  0  0  0  0  0
    4.7784   -3.7308   -4.9960 H   0  0  0  0  0  0  0  0  0  0  0  0
    3.2031   -4.3662   -4.5228 H   0  0  0  0  0  0  0  0  0  0  0  0
    4.1277   -6.5576   -2.4271 H   0  0  0  0  0  0  0  0  0  0  0  0
    4.4435   -7.8348   -3.5993 H   0  0  0  0  0  0  0  0  0  0  0  0
    2.2553   -6.0619   -3.4627 H   0  0  0  0  0  0  0  0  0  0  0  0
    5.0564   -5.4671   -6.5879 H   0  0  0  0  0  0  0  0  0  0  0  0
    4.2198   -6.9893   -6.2323 H   0  0  0  0  0  0  0  0  0  0  0  0
    7.1238   -6.7332   -6.2477 H   0  0  0  0  0  0  0  0  0  0  0  0
    6.2826   -7.9783   -5.2996 H   0  0  0  0  0  0  0  0  0  0  0  0
    6.7452   -6.5128   -3.3660 H   0  0  0  0  0  0  0  0  0  0  0  0
    6.9609   -5.0927   -4.4127 H   0  0  0  0  0  0  0  0  0  0  0  0
    6.1250   -2.6409   -1.0488 H   0  0  0  0  0  0  0  0  0  0  0  0
    7.1872   -1.0550    1.1509 H   0  0  0  0  0  0  0  0  0  0  0  0
    4.1808    0.0011    4.0603 H   0  0  0  0  0  0  0  0  0  0  0  0
    2.4696   -1.2346    2.7799 H   0  0  0  0  0  0  0  0  0  0  0  0
  1  2  1  0  0  0  0
  1 31  1  0  0  0  0
  1 32  1  0  0  0  0
  1 33  1  0  0  0  0
  2  7  2  0  0  0  0
  2  3  1  0  0  0  0
  3  4  2  0  0  0  0
  3 34  1  0  0  0  0
  4  5  1  0  0  0  0
  4 35  1  0  0  0  0
  5  6  2  0  0  0  0
  5 30  1  0  0  0  0
  6  7  1  0  0  0  0
  6 36  1  0  0  0  0
  7  8  1  0  0  0  0
  8  9  1  0  0  0  0
  8 37  1  0  0  0  0
  8 38  1  0  0  0  0
  9 29  1  0  0  0  0
  9 10  1  0  0  0  0
 10 11  1  0  0  0  0
 10 21  2  0  0  0  0
 11 12  2  0  0  0  0
 11 13  1  0  0  0  0
 13 14  1  0  0  0  0
 13 39  1  0  0  0  0
 14 15  1  0  0  0  0
 14 40  1  0  0  0  0
 14 41  1  0  0  0  0
 15 20  1  0  0  0  0
 15 16  1  0  0  0  0
 15 18  1  0  0  0  0
 16 17  1  0  0  0  0
 16 42  1  0  0  0  0
 16 43  1  0  0  0  0
 17 44  1  0  0  0  0
 18 19  1  0  0  0  0
 18 45  1  0  0  0  0
 18 46  1  0  0  0  0
 19 20  1  0  0  0  0
 19 47  1  0  0  0  0
 19 48  1  0  0  0  0
 20 49  1  0  0  0  0
 20 50  1  0  0  0  0
 21 22  1  0  0  0  0
 21 51  1  0  0  0  0
 22 29  2  0  0  0  0
 22 23  1  0  0  0  0
 23 24  2  0  0  0  0
 23 52  1  0  0  0  0
 24 25  1  0  0  0  0
 24 27  1  0  0  0  0
 25 26  3  0  0  0  0
 27 28  2  0  0  0  0
 27 53  1  0  0  0  0
 28 29  1  0  0  0  0
 28 54  1  0  0  0  0
M  END
$$$$
CHEMBL1760648
 OpenBabel12022417453D

 50 52  0  0  0  0  0  0  0  0999 V2000
    2.8126   -1.6327    2.6331 C   0  0  0  0  0  0  0  0  0  0  0  0
    2.4868   -0.5982    3.7274 C   0  0  0  0  0  0  0  0  0  0  0  0
    0.9545   -0.4600    3.8161 C   0  0  0  0  0  0  0  0  0  0  0  0
    3.0180   -1.0767    5.0964 C   0  0  0  0  0  0  0  0  0  0  0  0
    4.4360   -1.2364    5.0934 O   0  0  0  0  0  0  0  0  0  0  0  0
    3.0733    0.7854    3.3517 C   0  0  0  0  0  0  0  0  0  0  0  0
    4.5173    0.7913    3.2411 N   0  0  0  0  0  0  0  0  0  0  0  0
    5.1933    1.5696    2.3308 C   0  0  0  0  0  0  0  0  0  0  0  0
    4.6056    2.2319    1.4821 O   0  0  0  0  0  0  0  0  0  0  0  0
    6.6428    1.5124    2.4372 C   0  0  0  0  0  0  0  0  0  0  0  0
    7.4208    1.2070    3.5440 C   0  0  0  0  0  0  0  0  0  0  0  0
    8.7894    1.3146    3.1934 C   0  0  0  0  0  0  0  0  0  0  0  0
    9.9876    1.1302    3.9134 C   0  0  0  0  0  0  0  0  0  0  0  0
   11.2172    1.3461    3.2793 C   0  0  0  0  0  0  0  0  0  0  0  0
   12.4346    1.1538    4.0125 C   0  0  0  0  0  0  0  0  0  0  0  0
   13.4255    0.9871    4.5997 N   0  0  0  0  0  0  0  0  0  0  0  0
   11.2528    1.7507    1.9436 C   0  0  0  0  0  0  0  0  0  0  0  0
   10.0720    1.9300    1.2083 C   0  0  0  0  0  0  0  0  0  0  0  0
    8.8436    1.6968    1.8536 C   0  0  0  0  0  0  0  0  0  0  0  0
    7.5311    1.7843    1.4019 N   0  0  0  0  0  0  0  0  0  0  0  0
    7.1464    2.0216    0.0032 C   0  0  0  0  0  0  0  0  0  0  0  0
    6.8223    3.4659   -0.3074 C   0  0  0  0  0  0  0  0  0  0  0  0
    5.8102    3.7637   -1.2380 C   0  0  0  0  0  0  0  0  0  0  0  0
    5.4573    5.0895   -1.5045 C   0  0  0  0  0  0  0  0  0  0  0  0
    6.1095    6.1394   -0.8667 C   0  0  0  0  0  0  0  0  0  0  0  0
    7.1394    5.8539    0.0224 C   0  0  0  0  0  0  0  0  0  0  0  0
    7.5094    4.5343    0.2874 C   0  0  0  0  0  0  0  0  0  0  0  0
    7.9582    7.1371    0.8250 Cl  0  0  0  0  0  0  0  0  0  0  0  0
    4.1939    5.4294   -2.6234 Cl  0  0  0  0  0  0  0  0  0  0  0  0
    2.3702   -2.6065    2.8738 H   0  0  0  0  0  0  0  0  0  0  0  0
    3.8900   -1.7821    2.5104 H   0  0  0  0  0  0  0  0  0  0  0  0
    2.4119   -1.3183    1.6629 H   0  0  0  0  0  0  0  0  0  0  0  0
    0.4805   -1.4217    4.0422 H   0  0  0  0  0  0  0  0  0  0  0  0
    0.5360   -0.0990    2.8693 H   0  0  0  0  0  0  0  0  0  0  0  0
    0.6640    0.2488    4.5995 H   0  0  0  0  0  0  0  0  0  0  0  0
    2.5681   -2.0334    5.3871 H   0  0  0  0  0  0  0  0  0  0  0  0
    2.7731   -0.3504    5.8794 H   0  0  0  0  0  0  0  0  0  0  0  0
    4.6308   -2.0450    4.5857 H   0  0  0  0  0  0  0  0  0  0  0  0
    2.8212    1.5250    4.1213 H   0  0  0  0  0  0  0  0  0  0  0  0
    2.6356    1.1380    2.4109 H   0  0  0  0  0  0  0  0  0  0  0  0
    5.0281    0.3035    3.9703 H   0  0  0  0  0  0  0  0  0  0  0  0
    7.0468    0.9587    4.5294 H   0  0  0  0  0  0  0  0  0  0  0  0
    9.9477    0.8274    4.9574 H   0  0  0  0  0  0  0  0  0  0  0  0
   12.2092    1.9354    1.4553 H   0  0  0  0  0  0  0  0  0  0  0  0
   10.1215    2.2583    0.1735 H   0  0  0  0  0  0  0  0  0  0  0  0
    6.2877    1.3701   -0.2007 H   0  0  0  0  0  0  0  0  0  0  0  0
    7.9603    1.6715   -0.6407 H   0  0  0  0  0  0  0  0  0  0  0  0
    5.2678    2.9602   -1.7336 H   0  0  0  0  0  0  0  0  0  0  0  0
    5.8162    7.1675   -1.0557 H   0  0  0  0  0  0  0  0  0  0  0  0
    8.3193    4.3514    0.9888 H   0  0  0  0  0  0  0  0  0  0  0  0
  1  2  1  0  0  0  0
  1 30  1  0  0  0  0
  1 31  1  0  0  0  0
  1 32  1  0  0  0  0
  2  3  1  0  0  0  0
  2  4  1  0  0  0  0
  2  6  1  0  0  0  0
  3 33  1  0  0  0  0
  3 34  1  0  0  0  0
  3 35  1  0  0  0  0
  4  5  1  0  0  0  0
  4 36  1  0  0  0  0
  4 37  1  0  0  0  0
  5 38  1  0  0  0  0
  6  7  1  0  0  0  0
  6 39  1  0  0  0  0
  6 40  1  0  0  0  0
  7  8  1  0  0  0  0
  7 41  1  0  0  0  0
  8  9  2  0  0  0  0
  8 10  1  0  0  0  0
 10 20  1  0  0  0  0
 10 11  2  0  0  0  0
 11 12  1  0  0  0  0
 11 42  1  0  0  0  0
 12 19  2  0  0  0  0
 12 13  1  0  0  0  0
 13 14  2  0  0  0  0
 13 43  1  0  0  0  0
 14 15  1  0  0  0  0
 14 17  1  0  0  0  0
 15 16  3  0  0  0  0
 17 18  2  0  0  0  0
 17 44  1  0  0  0  0
 18 19  1  0  0  0  0
 18 45  1  0  0  0  0
 19 20  1  0  0  0  0
 20 21  1  0  0  0  0
 21 22  1  0  0  0  0
 21 46  1  0  0  0  0
 21 47  1  0  0  0  0
 22 27  2  0  0  0  0
 22 23  1  0  0  0  0
 23 24  2  0  0  0  0
 23 48  1  0  0  0  0
 24 25  1  0  0  0  0
 24 29  1  0  0  0  0
 25 26  2  0  0  0  0
 25 49  1  0  0  0  0
 26 27  1  0  0  0  0
 26 28  1  0  0  0  0
 27 50  1  0  0  0  0
M  END
$$$$
CHEMBL1760649
 OpenBabel12022417453D

 54 56  0  0  0  0  0  0  0  0999 V2000
    3.1842   -5.3164    2.2317 C   0  0  0  0  0  0  0  0  0  0  0  0
    3.8132   -4.2068    1.5825 O   0  0  0  0  0  0  0  0  0  0  0  0
    5.0391   -3.8268    2.0608 C   0  0  0  0  0  0  0  0  0  0  0  0
    5.8772   -4.7301    2.7355 C   0  0  0  0  0  0  0  0  0  0  0  0
    7.1691   -4.3625    3.1081 C   0  0  0  0  0  0  0  0  0  0  0  0
    7.6398   -3.0998    2.7836 C   0  0  0  0  0  0  0  0  0  0  0  0
    6.8156   -2.1897    2.1254 C   0  0  0  0  0  0  0  0  0  0  0  0
    5.4927   -2.5179    1.7749 C   0  0  0  0  0  0  0  0  0  0  0  0
    4.6696   -1.4554    1.0651 C   0  0  0  0  0  0  0  0  0  0  0  0
    3.8835   -0.5742    1.9521 N   0  0  0  0  0  0  0  0  0  0  0  0
    4.2255    0.7121    2.4079 C   0  0  0  0  0  0  0  0  0  0  0  0
    5.4994    1.4255    2.2444 C   0  0  0  0  0  0  0  0  0  0  0  0
    6.4683    0.9747    1.6448 O   0  0  0  0  0  0  0  0  0  0  0  0
    5.5230    2.6916    2.8095 N   0  0  0  0  0  0  0  0  0  0  0  0
    6.6699    3.5919    2.8185 C   0  0  0  0  0  0  0  0  0  0  0  0
    6.2657    5.0981    2.8539 C   0  0  0  0  0  0  0  0  0  0  0  0
    5.3980    5.4358    1.6260 C   0  0  0  0  0  0  0  0  0  0  0  0
    5.4681    5.4366    4.1323 C   0  0  0  0  0  0  0  0  0  0  0  0
    7.5538    5.9580    2.8363 C   0  0  0  0  0  0  0  0  0  0  0  0
    7.2696    7.3538    2.8770 O   0  0  0  0  0  0  0  0  0  0  0  0
    3.0745    1.2141    3.0100 C   0  0  0  0  0  0  0  0  0  0  0  0
    2.0237    0.2858    2.8903 C   0  0  0  0  0  0  0  0  0  0  0  0
    0.6603    0.3273    3.2454 C   0  0  0  0  0  0  0  0  0  0  0  0
   -0.1601   -0.7662    2.9504 C   0  0  0  0  0  0  0  0  0  0  0  0
   -1.5523   -0.7146    3.2605 C   0  0  0  0  0  0  0  0  0  0  0  0
   -2.6917   -0.6709    3.5036 N   0  0  0  0  0  0  0  0  0  0  0  0
    0.3696   -1.8894    2.3247 C   0  0  0  0  0  0  0  0  0  0  0  0
    1.7135   -1.9276    1.9508 C   0  0  0  0  0  0  0  0  0  0  0  0
    2.5397   -0.8304    2.2431 C   0  0  0  0  0  0  0  0  0  0  0  0
    9.2551   -2.6632    3.1764 Cl  0  0  0  0  0  0  0  0  0  0  0  0
    2.1579   -5.3911    1.8570 H   0  0  0  0  0  0  0  0  0  0  0  0
    3.1315   -5.1595    3.3150 H   0  0  0  0  0  0  0  0  0  0  0  0
    3.6844   -6.2592    1.9915 H   0  0  0  0  0  0  0  0  0  0  0  0
    5.5664   -5.7445    2.9609 H   0  0  0  0  0  0  0  0  0  0  0  0
    7.8052   -5.0759    3.6237 H   0  0  0  0  0  0  0  0  0  0  0  0
    7.2240   -1.2189    1.8587 H   0  0  0  0  0  0  0  0  0  0  0  0
    3.9725   -1.9186    0.3561 H   0  0  0  0  0  0  0  0  0  0  0  0
    5.3048   -0.8156    0.4434 H   0  0  0  0  0  0  0  0  0  0  0  0
    4.7629    2.9424    3.4171 H   0  0  0  0  0  0  0  0  0  0  0  0
    7.2932    3.3815    1.9418 H   0  0  0  0  0  0  0  0  0  0  0  0
    7.2602    3.3394    3.7078 H   0  0  0  0  0  0  0  0  0  0  0  0
    4.4872    4.8282    1.5976 H   0  0  0  0  0  0  0  0  0  0  0  0
    5.9510    5.2561    0.6976 H   0  0  0  0  0  0  0  0  0  0  0  0
    5.0790    6.4837    1.6289 H   0  0  0  0  0  0  0  0  0  0  0  0
    4.5303    4.8762    4.1943 H   0  0  0  0  0  0  0  0  0  0  0  0
    5.2004    6.4993    4.1679 H   0  0  0  0  0  0  0  0  0  0  0  0
    6.0536    5.2142    5.0314 H   0  0  0  0  0  0  0  0  0  0  0  0
    8.1591    5.7612    1.9449 H   0  0  0  0  0  0  0  0  0  0  0  0
    8.1738    5.7361    3.7119 H   0  0  0  0  0  0  0  0  0  0  0  0
    6.9054    7.6139    2.0135 H   0  0  0  0  0  0  0  0  0  0  0  0
    2.9527    2.1936    3.4510 H   0  0  0  0  0  0  0  0  0  0  0  0
    0.2515    1.2155    3.7195 H   0  0  0  0  0  0  0  0  0  0  0  0
   -0.2640   -2.7442    2.0926 H   0  0  0  0  0  0  0  0  0  0  0  0
    2.0802   -2.7887    1.4123 H   0  0  0  0  0  0  0  0  0  0  0  0
  1  2  1  0  0  0  0
  1 31  1  0  0  0  0
  1 32  1  0  0  0  0
  1 33  1  0  0  0  0
  2  3  1  0  0  0  0
  3  8  2  0  0  0  0
  3  4  1  0  0  0  0
  4  5  2  0  0  0  0
  4 34  1  0  0  0  0
  5  6  1  0  0  0  0
  5 35  1  0  0  0  0
  6  7  2  0  0  0  0
  6 30  1  0  0  0  0
  7  8  1  0  0  0  0
  7 36  1  0  0  0  0
  8  9  1  0  0  0  0
  9 10  1  0  0  0  0
  9 37  1  0  0  0  0
  9 38  1  0  0  0  0
 10 29  1  0  0  0  0
 10 11  1  0  0  0  0
 11 12  1  0  0  0  0
 11 21  2  0  0  0  0
 12 13  2  0  0  0  0
 12 14  1  0  0  0  0
 14 15  1  0  0  0  0
 14 39  1  0  0  0  0
 15 16  1  0  0  0  0
 15 40  1  0  0  0  0
 15 41  1  0  0  0  0
 16 17  1  0  0  0  0
 16 18  1  0  0  0  0
 16 19  1  0  0  0  0
 17 42  1  0  0  0  0
 17 43  1  0  0  0  0
 17 44  1  0  0  0  0
 18 45  1  0  0  0  0
 18 46  1  0  0  0  0
 18 47  1  0  0  0  0
 19 20  1  0  0  0  0
 19 48  1  0  0  0  0
 19 49  1  0  0  0  0
 20 50  1  0  0  0  0
 21 22  1  0  0  0  0
 21 51  1  0  0  0  0
 22 29  2  0  0  0  0
 22 23  1  0  0  0  0
 23 24  2  0  0  0  0
 23 52  1  0  0  0  0
 24 25  1  0  0  0  0
 24 27  1  0  0  0  0
 25 26  3  0  0  0  0
 27 28  2  0  0  0  0
 27 53  1  0  0  0  0
 28 29  1  0  0  0  0
 28 54  1  0  0  0  0
M  END
$$$$
CHEMBL1760647
 OpenBabel12022417453D

 61 63  0  0  0  0  0  0  0  0999 V2000
    7.6488   -0.0244    0.8246 C   0  0  0  0  0  0  0  0  0  0  0  0
    6.2768   -0.0396    1.4716 C   0  0  0  0  0  0  0  0  0  0  0  0
    6.1914   -1.0394    2.4838 O   0  0  0  0  0  0  0  0  0  0  0  0
    5.0052   -1.7233    2.6563 C   0  0  0  0  0  0  0  0  0  0  0  0
    5.2528   -3.0957    2.8022 C   0  0  0  0  0  0  0  0  0  0  0  0
    4.2054   -3.9810    2.9966 C   0  0  0  0  0  0  0  0  0  0  0  0
    2.8926   -3.4875    3.0564 C   0  0  0  0  0  0  0  0  0  0  0  0
    2.6306   -2.1129    2.9603 C   0  0  0  0  0  0  0  0  0  0  0  0
    3.6733   -1.1819    2.7537 C   0  0  0  0  0  0  0  0  0  0  0  0
    3.4696    0.2682    2.3617 C   0  0  0  0  0  0  0  0  0  0  0  0
    2.5585    1.3968    2.7189 N   0  0  0  0  0  0  0  0  0  0  0  0
    2.6574    2.4791    1.8061 C   0  0  0  0  0  0  0  0  0  0  0  0
    3.7347    3.4380    1.9023 C   0  0  0  0  0  0  0  0  0  0  0  0
    4.8292    3.1491    2.3752 O   0  0  0  0  0  0  0  0  0  0  0  0
    3.3929    4.7361    1.5874 N   0  0  0  0  0  0  0  0  0  0  0  0
    4.2033    5.8571    2.0699 C   0  0  0  0  0  0  0  0  0  0  0  0
    4.3353    7.0043    1.0431 C   0  0  0  0  0  0  0  0  0  0  0  0
    2.9591    7.6384    0.7727 C   0  0  0  0  0  0  0  0  0  0  0  0
    5.2517    8.1120    1.6104 C   0  0  0  0  0  0  0  0  0  0  0  0
    4.9669    6.4326   -0.2433 C   0  0  0  0  0  0  0  0  0  0  0  0
    5.1085    7.4206   -1.2551 O   0  0  0  0  0  0  0  0  0  0  0  0
    1.4749    2.2944    1.0682 C   0  0  0  0  0  0  0  0  0  0  0  0
    0.5430    1.4967    1.9284 C   0  0  0  0  0  0  0  0  0  0  0  0
   -0.8707    1.6232    2.0205 C   0  0  0  0  0  0  0  0  0  0  0  0
   -1.3691    2.6620    2.8205 C   0  0  0  0  0  0  0  0  0  0  0  0
   -2.7586    3.0726    2.7432 C   0  0  0  0  0  0  0  0  0  0  0  0
   -3.8525    3.4080    2.6896 N   0  0  0  0  0  0  0  0  0  0  0  0
   -0.4798    3.3156    3.6808 C   0  0  0  0  0  0  0  0  0  0  0  0
    0.7985    2.7547    3.9417 C   0  0  0  0  0  0  0  0  0  0  0  0
    1.2532    1.6483    3.1403 C   0  0  0  0  0  0  0  0  0  0  0  0
    1.9953   -4.4912    3.3134 O   0  0  0  0  0  0  0  0  0  0  0  0
    0.7188   -4.4696    2.7025 C   0  0  0  0  0  0  0  0  0  0  0  0
    0.5016   -3.4004    1.9153 F   0  0  0  0  0  0  0  0  0  0  0  0
    0.5781   -5.5859    1.9467 F   0  0  0  0  0  0  0  0  0  0  0  0
   -0.2220   -4.5027    3.6695 F   0  0  0  0  0  0  0  0  0  0  0  0
    7.6672    0.7176    0.0186 H   0  0  0  0  0  0  0  0  0  0  0  0
    7.9085   -1.0034    0.4144 H   0  0  0  0  0  0  0  0  0  0  0  0
    8.4188    0.2455    1.5546 H   0  0  0  0  0  0  0  0  0  0  0  0
    5.5263   -0.1860    0.6898 H   0  0  0  0  0  0  0  0  0  0  0  0
    6.1567    0.9356    1.9485 H   0  0  0  0  0  0  0  0  0  0  0  0
    6.2697   -3.4799    2.7400 H   0  0  0  0  0  0  0  0  0  0  0  0
    4.4120   -5.0439    3.0869 H   0  0  0  0  0  0  0  0  0  0  0  0
    1.6074   -1.7446    3.0237 H   0  0  0  0  0  0  0  0  0  0  0  0
    3.4566    0.2514    1.2636 H   0  0  0  0  0  0  0  0  0  0  0  0
    4.3794    0.7364    2.7366 H   0  0  0  0  0  0  0  0  0  0  0  0
    2.4166    4.9065    1.3930 H   0  0  0  0  0  0  0  0  0  0  0  0
    5.1996    5.4991    2.3568 H   0  0  0  0  0  0  0  0  0  0  0  0
    3.7250    6.2154    2.9902 H   0  0  0  0  0  0  0  0  0  0  0  0
    2.5137    8.0127    1.7028 H   0  0  0  0  0  0  0  0  0  0  0  0
    2.2606    6.9194    0.3345 H   0  0  0  0  0  0  0  0  0  0  0  0
    3.0350    8.4893    0.0875 H   0  0  0  0  0  0  0  0  0  0  0  0
    4.8095    8.5856    2.4946 H   0  0  0  0  0  0  0  0  0  0  0  0
    5.4237    8.9038    0.8711 H   0  0  0  0  0  0  0  0  0  0  0  0
    6.2309    7.7149    1.8998 H   0  0  0  0  0  0  0  0  0  0  0  0
    4.3713    5.6127   -0.6584 H   0  0  0  0  0  0  0  0  0  0  0  0
    5.9654    6.0339   -0.0287 H   0  0  0  0  0  0  0  0  0  0  0  0
    4.2231    7.6029   -1.6112 H   0  0  0  0  0  0  0  0  0  0  0  0
    1.1609    2.8707    0.2072 H   0  0  0  0  0  0  0  0  0  0  0  0
   -1.5297    1.0309    1.3938 H   0  0  0  0  0  0  0  0  0  0  0  0
   -0.7558    4.2648    4.1401 H   0  0  0  0  0  0  0  0  0  0  0  0
    1.5188    3.3467    4.5054 H   0  0  0  0  0  0  0  0  0  0  0  0
  1  2  1  0  0  0  0
  1 36  1  0  0  0  0
  1 37  1  0  0  0  0
  1 38  1  0  0  0  0
  2  3  1  0  0  0  0
  2 39  1  0  0  0  0
  2 40  1  0  0  0  0
  3  4  1  0  0  0  0
  4  9  2  0  0  0  0
  4  5  1  0  0  0  0
  5  6  2  0  0  0  0
  5 41  1  0  0  0  0
  6  7  1  0  0  0  0
  6 42  1  0  0  0  0
  7  8  2  0  0  0  0
  7 31  1  0  0  0  0
  8  9  1  0  0  0  0
  8 43  1  0  0  0  0
  9 10  1  0  0  0  0
 10 11  1  0  0  0  0
 10 44  1  0  0  0  0
 10 45  1  0  0  0  0
 11 30  1  0  0  0  0
 11 12  1  0  0  0  0
 12 13  1  0  0  0  0
 12 22  2  0  0  0  0
 13 14  2  0  0  0  0
 13 15  1  0  0  0  0
 15 16  1  0  0  0  0
 15 46  1  0  0  0  0
 16 17  1  0  0  0  0
 16 47  1  0  0  0  0
 16 48  1  0  0  0  0
 17 18  1  0  0  0  0
 17 19  1  0  0  0  0
 17 20  1  0  0  0  0
 18 49  1  0  0  0  0
 18 50  1  0  0  0  0
 18 51  1  0  0  0  0
 19 52  1  0  0  0  0
 19 53  1  0  0  0  0
 19 54  1  0  0  0  0
 20 21  1  0  0  0  0
 20 55  1  0  0  0  0
 20 56  1  0  0  0  0
 21 57  1  0  0  0  0
 22 23  1  0  0  0  0
 22 58  1  0  0  0  0
 23 30  2  0  0  0  0
 23 24  1  0  0  0  0
 24 25  2  0  0  0  0
 24 59  1  0  0  0  0
 25 26  1  0  0  0  0
 25 28  1  0  0  0  0
 26 27  3  0  0  0  0
 28 29  2  0  0  0  0
 28 60  1  0  0  0  0
 29 30  1  0  0  0  0
 29 61  1  0  0  0  0
 31 32  1  0  0  0  0
 32 33  1  0  0  0  0
 32 34  1  0  0  0  0
 32 35  1  0  0  0  0
M  END
$$$$
CHEMBL3900016
 OpenBabel12022417453D

 59 63  0  0  0  0  0  0  0  0999 V2000
   -5.7319   -0.4067    5.4262 C   0  0  0  0  0  0  0  0  0  0  0  0
   -5.0257    0.1886    4.3724 C   0  0  0  0  0  0  0  0  0  0  0  0
   -5.2213    1.5490    4.0664 C   0  0  0  0  0  0  0  0  0  0  0  0
   -6.1192    2.2794    4.8449 C   0  0  0  0  0  0  0  0  0  0  0  0
   -6.8443    1.7075    5.8909 C   0  0  0  0  0  0  0  0  0  0  0  0
   -6.6487    0.3514    6.1753 C   0  0  0  0  0  0  0  0  0  0  0  0
   -7.8081    2.5824    6.6412 C   0  0  0  0  0  0  0  0  0  0  0  0
   -7.8379    3.8735    6.1923 F   0  0  0  0  0  0  0  0  0  0  0  0
   -9.0895    2.1362    6.5517 F   0  0  0  0  0  0  0  0  0  0  0  0
   -7.5202    2.6607    7.9662 F   0  0  0  0  0  0  0  0  0  0  0  0
   -4.5157    2.2643    2.9300 C   0  0  0  0  0  0  0  0  0  0  0  0
   -4.9898    3.7017    2.8150 N   0  0  0  0  0  0  0  0  0  0  0  0
   -5.5098    4.2679    1.6336 C   0  0  0  0  0  0  0  0  0  0  0  0
   -5.0024    3.8081    0.4602 C   0  0  0  0  0  0  0  0  0  0  0  0
   -5.2773    4.4664   -0.8290 C   0  0  0  0  0  0  0  0  0  0  0  0
   -4.5050    4.4141   -1.7701 O   0  0  0  0  0  0  0  0  0  0  0  0
   -6.4818    5.1084   -0.8181 N   0  0  0  0  0  0  0  0  0  0  0  0
   -6.5874    6.0155    0.2613 C   0  0  0  0  0  0  0  0  0  0  0  0
   -6.4234    5.5580    1.5851 C   0  0  0  0  0  0  0  0  0  0  0  0
   -7.1494    6.3648    2.5494 C   0  0  0  0  0  0  0  0  0  0  0  0
   -7.7831    7.6367    2.1620 C   0  0  0  0  0  0  0  0  0  0  0  0
   -7.4886    8.1247    0.8732 C   0  0  0  0  0  0  0  0  0  0  0  0
   -6.9734    7.2954   -0.0897 C   0  0  0  0  0  0  0  0  0  0  0  0
   -8.9151    8.5256    2.8236 C   0  0  0  0  0  0  0  0  0  0  0  0
  -10.3566    8.0396    2.5879 C   0  0  0  0  0  0  0  0  0  0  0  0
  -11.2816    8.8375    1.8360 C   0  0  0  0  0  0  0  0  0  0  0  0
  -12.6416    8.5035    1.7530 C   0  0  0  0  0  0  0  0  0  0  0  0
  -13.1039    7.3730    2.4148 C   0  0  0  0  0  0  0  0  0  0  0  0
  -12.2213    6.5679    3.1364 C   0  0  0  0  0  0  0  0  0  0  0  0
  -10.8685    6.9068    3.2273 C   0  0  0  0  0  0  0  0  0  0  0  0
  -14.7802    6.9761    2.3715 Cl  0  0  0  0  0  0  0  0  0  0  0  0
   -8.7779    9.2743    4.1531 C   0  0  0  0  0  0  0  0  0  0  0  0
   -8.1513    8.7359    5.2682 C   0  0  0  0  0  0  0  0  0  0  0  0
   -8.0810    9.4710    6.4575 C   0  0  0  0  0  0  0  0  0  0  0  0
   -8.6448   10.7464    6.5516 C   0  0  0  0  0  0  0  0  0  0  0  0
   -9.3168   11.2914    5.4695 C   0  0  0  0  0  0  0  0  0  0  0  0
   -9.3873   10.5639    4.2805 C   0  0  0  0  0  0  0  0  0  0  0  0
   -8.4979   11.6442    8.0119 Cl  0  0  0  0  0  0  0  0  0  0  0  0
   -5.6011   -1.4631    5.6608 H   0  0  0  0  0  0  0  0  0  0  0  0
   -4.3356   -0.4299    3.8029 H   0  0  0  0  0  0  0  0  0  0  0  0
   -6.2834    3.3281    4.6222 H   0  0  0  0  0  0  0  0  0  0  0  0
   -7.2124   -0.1176    6.9819 H   0  0  0  0  0  0  0  0  0  0  0  0
   -4.6911    1.6887    2.0120 H   0  0  0  0  0  0  0  0  0  0  0  0
   -3.4339    2.2469    3.1277 H   0  0  0  0  0  0  0  0  0  0  0  0
   -4.1998    4.2859    3.1070 H   0  0  0  0  0  0  0  0  0  0  0  0
   -4.2709    3.0138    0.3748 H   0  0  0  0  0  0  0  0  0  0  0  0
   -7.1606    4.3787   -0.5855 H   0  0  0  0  0  0  0  0  0  0  0  0
   -7.2613    5.9977    3.5635 H   0  0  0  0  0  0  0  0  0  0  0  0
   -7.7963    9.1164    0.5461 H   0  0  0  0  0  0  0  0  0  0  0  0
   -6.9388    7.6157   -1.1259 H   0  0  0  0  0  0  0  0  0  0  0  0
   -8.8832    9.4109    2.1663 H   0  0  0  0  0  0  0  0  0  0  0  0
  -10.9507    9.7506    1.3390 H   0  0  0  0  0  0  0  0  0  0  0  0
  -13.3358    9.1371    1.2007 H   0  0  0  0  0  0  0  0  0  0  0  0
  -12.5922    5.6966    3.6697 H   0  0  0  0  0  0  0  0  0  0  0  0
  -10.2030    6.2913    3.8328 H   0  0  0  0  0  0  0  0  0  0  0  0
   -7.7295    7.7382    5.2299 H   0  0  0  0  0  0  0  0  0  0  0  0
   -7.5764    9.0397    7.3165 H   0  0  0  0  0  0  0  0  0  0  0  0
   -9.7819   12.2723    5.5389 H   0  0  0  0  0  0  0  0  0  0  0  0
   -9.9404   11.0043    3.4546 H   0  0  0  0  0  0  0  0  0  0  0  0
  1  6  2  0  0  0  0
  1  2  1  0  0  0  0
  1 39  1  0  0  0  0
  2  3  2  0  0  0  0
  2 40  1  0  0  0  0
  3  4  1  0  0  0  0
  3 11  1  0  0  0  0
  4  5  2  0  0  0  0
  4 41  1  0  0  0  0
  5  6  1  0  0  0  0
  5  7  1  0  0  0  0
  6 42  1  0  0  0  0
  7  8  1  0  0  0  0
  7  9  1  0  0  0  0
  7 10  1  0  0  0  0
 11 12  1  0  0  0  0
 11 43  1  0  0  0  0
 11 44  1  0  0  0  0
 12 13  1  0  0  0  0
 12 45  1  0  0  0  0
 13 19  1  0  0  0  0
 13 14  2  0  0  0  0
 14 15  1  0  0  0  0
 14 46  1  0  0  0  0
 15 16  2  0  0  0  0
 15 17  1  0  0  0  0
 17 18  1  0  0  0  0
 17 47  1  0  0  0  0
 18 23  2  0  0  0  0
 18 19  1  0  0  0  0
 19 20  2  0  0  0  0
 20 21  1  0  0  0  0
 20 48  1  0  0  0  0
 21 22  2  0  0  0  0
 21 24  1  0  0  0  0
 22 23  1  0  0  0  0
 22 49  1  0  0  0  0
 23 50  1  0  0  0  0
 24 25  1  0  0  0  0
 24 32  1  0  0  0  0
 24 51  1  0  0  0  0
 25 30  2  0  0  0  0
 25 26  1  0  0  0  0
 26 27  2  0  0  0  0
 26 52  1  0  0  0  0
 27 28  1  0  0  0  0
 27 53  1  0  0  0  0
 28 29  2  0  0  0  0
 28 31  1  0  0  0  0
 29 30  1  0  0  0  0
 29 54  1  0  0  0  0
 30 55  1  0  0  0  0
 32 37  2  0  0  0  0
 32 33  1  0  0  0  0
 33 34  2  0  0  0  0
 33 56  1  0  0  0  0
 34 35  1  0  0  0  0
 34 57  1  0  0  0  0
 35 36  2  0  0  0  0
 35 38  1  0  0  0  0
 36 37  1  0  0  0  0
 36 58  1  0  0  0  0
 37 59  1  0  0  0  0
M  END
$$$$
CHEMBL427236
 OpenBabel12022417453D

 58 60  0  0  1  0  0  0  0  0999 V2000
    1.0491   -0.2117   -0.2365 C   0  0  0  0  0  0  0  0  0  0  0  0
    2.5717   -0.1996   -0.0309 C   0  0  1  0  0  0  0  0  0  0  0  0
    2.9874    0.7738    1.1446 C   0  0  1  0  0  0  0  0  0  0  0  0
    2.3886    0.3837    2.5314 C   0  0  0  0  0  0  0  0  0  0  0  0
    2.7856   -0.9753    3.0541 C   0  0  0  0  0  0  0  0  0  0  0  0
    1.8189   -1.9782    3.2165 C   0  0  0  0  0  0  0  0  0  0  0  0
    2.1987   -3.2710    3.5809 C   0  0  0  0  0  0  0  0  0  0  0  0
    3.5420   -3.5649    3.7979 C   0  0  0  0  0  0  0  0  0  0  0  0
    4.5041   -2.5625    3.6994 C   0  0  0  0  0  0  0  0  0  0  0  0
    4.1249   -1.2726    3.3370 C   0  0  0  0  0  0  0  0  0  0  0  0
    4.0205   -5.1692    4.1815 Cl  0  0  0  0  0  0  0  0  0  0  0  0
    4.4626    1.2068    1.2151 C   0  0  0  0  0  0  0  0  0  0  0  0
    4.8643    2.1982    2.1343 C   0  0  0  0  0  0  0  0  0  0  0  0
    6.2018    2.5997    2.2380 C   0  0  0  0  0  0  0  0  0  0  0  0
    7.1613    2.0332    1.4055 C   0  0  0  0  0  0  0  0  0  0  0  0
    6.7878    1.0803    0.4687 C   0  0  0  0  0  0  0  0  0  0  0  0
    5.4505    0.6799    0.3744 C   0  0  0  0  0  0  0  0  0  0  0  0
    8.8066    2.5166    1.5275 Cl  0  0  0  0  0  0  0  0  0  0  0  0
    3.0674   -1.5939    0.0541 N   0  0  0  0  0  0  0  0  0  0  0  0
    3.7725   -2.1873   -0.9778 C   0  0  0  0  0  0  0  0  0  0  0  0
    4.1148   -1.5099   -1.9534 O   0  0  0  0  0  0  0  0  0  0  0  0
    4.1791   -3.7102   -0.8704 C   0  0  0  0  0  0  0  0  0  0  0  0
    3.0537   -4.5606   -0.2687 C   0  0  0  0  0  0  0  0  0  0  0  0
    4.4316   -4.1208   -2.3364 C   0  0  0  0  0  0  0  0  0  0  0  0
    5.3717   -3.7400   -0.0572 O   0  0  0  0  0  0  0  0  0  0  0  0
    6.0025   -4.8917    0.3266 C   0  0  0  0  0  0  0  0  0  0  0  0
    6.0315   -6.1050   -0.3607 C   0  0  0  0  0  0  0  0  0  0  0  0
    6.7339   -7.2083    0.1449 C   0  0  0  0  0  0  0  0  0  0  0  0
    7.4203   -7.1079    1.3489 C   0  0  0  0  0  0  0  0  0  0  0  0
    7.4344   -5.9004    2.0343 C   0  0  0  0  0  0  0  0  0  0  0  0
    6.7415   -4.8008    1.5175 C   0  0  0  0  0  0  0  0  0  0  0  0
    8.2533   -8.4754    1.9775 Cl  0  0  0  0  0  0  0  0  0  0  0  0
    0.6735    0.8026   -0.4136 H   0  0  0  0  0  0  0  0  0  0  0  0
    0.5188   -0.6250    0.6262 H   0  0  0  0  0  0  0  0  0  0  0  0
    0.7772   -0.8225   -1.1042 H   0  0  0  0  0  0  0  0  0  0  0  0
    2.9755    0.2416   -0.9506 H   0  0  0  0  0  0  0  0  0  0  0  0
    2.4853    1.7221    0.8881 H   0  0  0  0  0  0  0  0  0  0  0  0
    1.2939    0.4391    2.4647 H   0  0  0  0  0  0  0  0  0  0  0  0
    2.6429    1.1241    3.2993 H   0  0  0  0  0  0  0  0  0  0  0  0
    0.7667   -1.7687    3.0331 H   0  0  0  0  0  0  0  0  0  0  0  0
    1.4464   -4.0477    3.6779 H   0  0  0  0  0  0  0  0  0  0  0  0
    5.5547   -2.7786    3.8729 H   0  0  0  0  0  0  0  0  0  0  0  0
    4.8975   -0.5122    3.2488 H   0  0  0  0  0  0  0  0  0  0  0  0
    4.1414    2.6759    2.7928 H   0  0  0  0  0  0  0  0  0  0  0  0
    6.4886    3.3526    2.9680 H   0  0  0  0  0  0  0  0  0  0  0  0
    7.5227    0.6389   -0.1997 H   0  0  0  0  0  0  0  0  0  0  0  0
    5.2184   -0.0549   -0.3859 H   0  0  0  0  0  0  0  0  0  0  0  0
    2.7392   -2.1796    0.8103 H   0  0  0  0  0  0  0  0  0  0  0  0
    2.0742   -4.2851   -0.6713 H   0  0  0  0  0  0  0  0  0  0  0  0
    3.0212   -4.4753    0.8216 H   0  0  0  0  0  0  0  0  0  0  0  0
    3.2055   -5.6254   -0.4841 H   0  0  0  0  0  0  0  0  0  0  0  0
    3.6303   -3.7532   -2.9896 H   0  0  0  0  0  0  0  0  0  0  0  0
    4.4423   -5.1993   -2.4911 H   0  0  0  0  0  0  0  0  0  0  0  0
    5.3860   -3.7218   -2.6970 H   0  0  0  0  0  0  0  0  0  0  0  0
    5.5477   -6.2475   -1.3125 H   0  0  0  0  0  0  0  0  0  0  0  0
    6.7435   -8.1402   -0.4148 H   0  0  0  0  0  0  0  0  0  0  0  0
    7.9787   -5.8072    2.9697 H   0  0  0  0  0  0  0  0  0  0  0  0
    6.7758   -3.8551    2.0507 H   0  0  0  0  0  0  0  0  0  0  0  0
  1 33  1  0  0  0  0
  1 34  1  0  0  0  0
  1 35  1  0  0  0  0
  2  1  1  0  0  0  0
  2  3  1  0  0  0  0
  2 19  1  0  0  0  0
  2 36  1  6  0  0  0
  3  4  1  0  0  0  0
  3 12  1  0  0  0  0
  3 37  1  6  0  0  0
  4  5  1  0  0  0  0
  4 38  1  0  0  0  0
  4 39  1  0  0  0  0
  5 10  2  0  0  0  0
  5  6  1  0  0  0  0
  6  7  2  0  0  0  0
  6 40  1  0  0  0  0
  7  8  1  0  0  0  0
  7 41  1  0  0  0  0
  8  9  2  0  0  0  0
  8 11  1  0  0  0  0
  9 10  1  0  0  0  0
  9 42  1  0  0  0  0
 10 43  1  0  0  0  0
 12 17  2  0  0  0  0
 12 13  1  0  0  0  0
 13 14  2  0  0  0  0
 13 44  1  0  0  0  0
 14 15  1  0  0  0  0
 14 45  1  0  0  0  0
 15 16  2  0  0  0  0
 15 18  1  0  0  0  0
 16 17  1  0  0  0  0
 16 46  1  0  0  0  0
 17 47  1  0  0  0  0
 19 20  1  0  0  0  0
 19 48  1  0  0  0  0
 20 21  2  0  0  0  0
 20 22  1  0  0  0  0
 22 23  1  0  0  0  0
 22 24  1  0  0  0  0
 22 25  1  0  0  0  0
 23 49  1  0  0  0  0
 23 50  1  0  0  0  0
 23 51  1  0  0  0  0
 24 52  1  0  0  0  0
 24 53  1  0  0  0  0
 24 54  1  0  0  0  0
 25 26  1  0  0  0  0
 26 31  2  0  0  0  0
 26 27  1  0  0  0  0
 27 28  2  0  0  0  0
 27 55  1  0  0  0  0
 28 29  1  0  0  0  0
 28 56  1  0  0  0  0
 29 30  2  0  0  0  0
 29 32  1  0  0  0  0
 30 31  1  0  0  0  0
 30 57  1  0  0  0  0
 31 58  1  0  0  0  0
M  END
$$$$
CHEMBL561013
 OpenBabel12022417453D

 49 52  0  0  0  0  0  0  0  0999 V2000
    4.1648   -2.8576   -5.1904 C   0  0  0  0  0  0  0  0  0  0  0  0
    3.9927   -2.2227   -3.8175 C   0  0  0  0  0  0  0  0  0  0  0  0
    4.6851   -3.0541   -2.7259 C   0  0  0  0  0  0  0  0  0  0  0  0
    4.5458   -2.4127   -1.3468 C   0  0  0  0  0  0  0  0  0  0  0  0
    5.1602   -3.2309   -0.1837 C   0  0  0  0  0  0  0  0  0  0  0  0
    6.6057   -3.4898   -0.1642 N   0  0  0  0  0  0  0  0  0  0  0  0
    7.1983   -4.7301    0.0746 C   0  0  0  0  0  0  0  0  0  0  0  0
    8.5699   -4.5870    0.3136 C   0  0  0  0  0  0  0  0  0  0  0  0
    9.5165   -5.7011    0.9394 C   0  0  0  0  0  0  0  0  0  0  0  0
    9.4796   -6.8499    0.4868 O   0  0  0  0  0  0  0  0  0  0  0  0
   10.3102   -5.3602    2.2219 C   0  0  0  0  0  0  0  0  0  0  0  0
   10.0620   -4.0548    2.5982 C   0  0  0  0  0  0  0  0  0  0  0  0
   10.7596   -3.4966    3.6323 C   0  0  0  0  0  0  0  0  0  0  0  0
   10.5539   -4.2864    4.7095 C   0  0  0  0  0  0  0  0  0  0  0  0
   10.9176   -5.5948    4.5776 C   0  0  0  0  0  0  0  0  0  0  0  0
   11.2600   -6.1753    5.7902 C   0  0  0  0  0  0  0  0  0  0  0  0
   12.0844   -7.2812    5.8160 C   0  0  0  0  0  0  0  0  0  0  0  0
   12.4598   -7.8394    4.5998 C   0  0  0  0  0  0  0  0  0  0  0  0
   11.8931   -7.3637    3.3586 C   0  0  0  0  0  0  0  0  0  0  0  0
   11.0560   -6.1877    3.2678 C   0  0  0  0  0  0  0  0  0  0  0  0
    8.8113   -3.1487    0.0419 C   0  0  0  0  0  0  0  0  0  0  0  0
    9.9568   -2.2989    0.0279 C   0  0  0  0  0  0  0  0  0  0  0  0
    9.8237   -0.9009   -0.0651 C   0  0  0  0  0  0  0  0  0  0  0  0
    8.5736   -0.3110   -0.1396 C   0  0  0  0  0  0  0  0  0  0  0  0
    7.4328   -1.1032   -0.1616 C   0  0  0  0  0  0  0  0  0  0  0  0
    7.5670   -2.5067   -0.1161 C   0  0  0  0  0  0  0  0  0  0  0  0
    3.6705   -2.2541   -5.9589 H   0  0  0  0  0  0  0  0  0  0  0  0
    3.7274   -3.8607   -5.2152 H   0  0  0  0  0  0  0  0  0  0  0  0
    5.2244   -2.9372   -5.4535 H   0  0  0  0  0  0  0  0  0  0  0  0
    2.9215   -2.1276   -3.6007 H   0  0  0  0  0  0  0  0  0  0  0  0
    4.4051   -1.2066   -3.8413 H   0  0  0  0  0  0  0  0  0  0  0  0
    5.7467   -3.1591   -2.9727 H   0  0  0  0  0  0  0  0  0  0  0  0
    4.2446   -4.0567   -2.7041 H   0  0  0  0  0  0  0  0  0  0  0  0
    3.4758   -2.2814   -1.1308 H   0  0  0  0  0  0  0  0  0  0  0  0
    4.9514   -1.3977   -1.3876 H   0  0  0  0  0  0  0  0  0  0  0  0
    4.6444   -4.1932   -0.1055 H   0  0  0  0  0  0  0  0  0  0  0  0
    4.9541   -2.6848    0.7488 H   0  0  0  0  0  0  0  0  0  0  0  0
    6.5804   -5.6113    0.1465 H   0  0  0  0  0  0  0  0  0  0  0  0
    9.0544   -3.6737    2.4507 H   0  0  0  0  0  0  0  0  0  0  0  0
   11.8466   -3.4460    3.3820 H   0  0  0  0  0  0  0  0  0  0  0  0
   10.4030   -3.8033    5.6742 H   0  0  0  0  0  0  0  0  0  0  0  0
   10.9932   -5.7093    6.7326 H   0  0  0  0  0  0  0  0  0  0  0  0
   12.4769   -7.6292    6.7722 H   0  0  0  0  0  0  0  0  0  0  0  0
   13.2133   -8.6277    4.6289 H   0  0  0  0  0  0  0  0  0  0  0  0
   12.2442   -7.8743    2.4635 H   0  0  0  0  0  0  0  0  0  0  0  0
   10.9500   -2.7233    0.1349 H   0  0  0  0  0  0  0  0  0  0  0  0
   10.7067   -0.2692   -0.0519 H   0  0  0  0  0  0  0  0  0  0  0  0
    8.4745    0.7733   -0.1817 H   0  0  0  0  0  0  0  0  0  0  0  0
    6.4629   -0.6212   -0.1974 H   0  0  0  0  0  0  0  0  0  0  0  0
  1  2  1  0  0  0  0
  1 27  1  0  0  0  0
  1 28  1  0  0  0  0
  1 29  1  0  0  0  0
  2  3  1  0  0  0  0
  2 30  1  0  0  0  0
  2 31  1  0  0  0  0
  3  4  1  0  0  0  0
  3 32  1  0  0  0  0
  3 33  1  0  0  0  0
  4  5  1  0  0  0  0
  4 34  1  0  0  0  0
  4 35  1  0  0  0  0
  5  6  1  0  0  0  0
  5 36  1  0  0  0  0
  5 37  1  0  0  0  0
  6 26  1  0  0  0  0
  6  7  1  0  0  0  0
  7  8  2  0  0  0  0
  7 38  1  0  0  0  0
  8  9  1  0  0  0  0
  8 21  1  0  0  0  0
  9 10  2  0  0  0  0
  9 11  1  0  0  0  0
 11 20  2  0  0  0  0
 11 12  1  0  0  0  0
 12 13  2  0  0  0  0
 12 39  1  0  0  0  0
 13 14  1  0  0  0  0
 13 40  1  0  0  0  0
 14 15  2  0  0  0  0
 14 41  1  0  0  0  0
 15 20  1  0  0  0  0
 15 16  1  0  0  0  0
 16 17  2  0  0  0  0
 16 42  1  0  0  0  0
 17 18  1  0  0  0  0
 17 43  1  0  0  0  0
 18 19  2  0  0  0  0
 18 44  1  0  0  0  0
 19 20  1  0  0  0  0
 19 45  1  0  0  0  0
 21 26  2  0  0  0  0
 21 22  1  0  0  0  0
 22 23  2  0  0  0  0
 22 46  1  0  0  0  0
 23 24  1  0  0  0  0
 23 47  1  0  0  0  0
 24 25  2  0  0  0  0
 24 48  1  0  0  0  0
 25 26  1  0  0  0  0
 25 49  1  0  0  0  0
M  END
$$$$
CHEMBL1760670
 OpenBabel12022417453D

 48 50  0  0  0  0  0  0  0  0999 V2000
    2.9294    5.7450   -0.5395 C   0  0  0  0  0  0  0  0  0  0  0  0
    3.6148    4.5111   -0.3273 O   0  0  0  0  0  0  0  0  0  0  0  0
    4.8292    4.3637   -0.9443 C   0  0  0  0  0  0  0  0  0  0  0  0
    5.5953    5.4576   -1.3767 C   0  0  0  0  0  0  0  0  0  0  0  0
    6.8694    5.2716   -1.9123 C   0  0  0  0  0  0  0  0  0  0  0  0
    7.4000    3.9930   -1.9824 C   0  0  0  0  0  0  0  0  0  0  0  0
    6.6511    2.8988   -1.5585 C   0  0  0  0  0  0  0  0  0  0  0  0
    5.3406    3.0540   -1.0688 C   0  0  0  0  0  0  0  0  0  0  0  0
    4.5604    1.8089   -0.6906 C   0  0  0  0  0  0  0  0  0  0  0  0
    3.7940    1.2203   -1.8049 N   0  0  0  0  0  0  0  0  0  0  0  0
    4.2203    0.2199   -2.6879 C   0  0  0  0  0  0  0  0  0  0  0  0
    5.5366   -0.4048   -2.7448 C   0  0  0  0  0  0  0  0  0  0  0  0
    6.4087   -0.2481   -1.8959 O   0  0  0  0  0  0  0  0  0  0  0  0
    5.7581   -1.2069   -3.8499 N   0  0  0  0  0  0  0  0  0  0  0  0
    7.0347   -1.8372   -4.1231 C   0  0  0  0  0  0  0  0  0  0  0  0
    7.8378   -1.0755   -5.1721 C   0  0  0  0  0  0  0  0  0  0  0  0
    8.1551    0.3548   -4.7579 C   0  0  0  0  0  0  0  0  0  0  0  0
    8.9106    0.9865   -5.7847 O   0  0  0  0  0  0  0  0  0  0  0  0
    3.1208   -0.0873   -3.4776 C   0  0  0  0  0  0  0  0  0  0  0  0
    2.0070    0.6632   -3.0537 C   0  0  0  0  0  0  0  0  0  0  0  0
    0.6563    0.6844   -3.4504 C   0  0  0  0  0  0  0  0  0  0  0  0
   -0.2364    1.5400   -2.7967 C   0  0  0  0  0  0  0  0  0  0  0  0
   -1.6195    1.5351   -3.1600 C   0  0  0  0  0  0  0  0  0  0  0  0
   -2.7463    1.5204   -3.4452 N   0  0  0  0  0  0  0  0  0  0  0  0
    0.2104    2.3712   -1.7732 C   0  0  0  0  0  0  0  0  0  0  0  0
    1.5458    2.3465   -1.3630 C   0  0  0  0  0  0  0  0  0  0  0  0
    2.4397    1.4821   -2.0149 C   0  0  0  0  0  0  0  0  0  0  0  0
    9.1492    3.7318   -2.6454 Br  0  0  0  0  0  0  0  0  0  0  0  0
    1.9343    5.6595   -0.0918 H   0  0  0  0  0  0  0  0  0  0  0  0
    2.7985    5.9405   -1.6092 H   0  0  0  0  0  0  0  0  0  0  0  0
    3.4373    6.5783   -0.0426 H   0  0  0  0  0  0  0  0  0  0  0  0
    5.2362    6.4783   -1.2925 H   0  0  0  0  0  0  0  0  0  0  0  0
    7.4425    6.1309   -2.2483 H   0  0  0  0  0  0  0  0  0  0  0  0
    7.1039    1.9131   -1.5955 H   0  0  0  0  0  0  0  0  0  0  0  0
    3.8583    2.0160    0.1246 H   0  0  0  0  0  0  0  0  0  0  0  0
    5.2209    1.0342   -0.2891 H   0  0  0  0  0  0  0  0  0  0  0  0
    5.0646   -1.2394   -4.5816 H   0  0  0  0  0  0  0  0  0  0  0  0
    6.8146   -2.8432   -4.4981 H   0  0  0  0  0  0  0  0  0  0  0  0
    7.6116   -1.9458   -3.1989 H   0  0  0  0  0  0  0  0  0  0  0  0
    7.2926   -1.0602   -6.1247 H   0  0  0  0  0  0  0  0  0  0  0  0
    8.7730   -1.6122   -5.3753 H   0  0  0  0  0  0  0  0  0  0  0  0
    8.7261    0.3864   -3.8247 H   0  0  0  0  0  0  0  0  0  0  0  0
    7.2405    0.9391   -4.6240 H   0  0  0  0  0  0  0  0  0  0  0  0
    9.8028    0.6028   -5.7665 H   0  0  0  0  0  0  0  0  0  0  0  0
    3.0817   -0.8415   -4.2521 H   0  0  0  0  0  0  0  0  0  0  0  0
    0.3133    0.0221   -4.2418 H   0  0  0  0  0  0  0  0  0  0  0  0
   -0.4823    3.0392   -1.2645 H   0  0  0  0  0  0  0  0  0  0  0  0
    1.8589    2.9746   -0.5396 H   0  0  0  0  0  0  0  0  0  0  0  0
  1  2  1  0  0  0  0
  1 29  1  0  0  0  0
  1 30  1  0  0  0  0
  1 31  1  0  0  0  0
  2  3  1  0  0  0  0
  3  8  2  0  0  0  0
  3  4  1  0  0  0  0
  4  5  2  0  0  0  0
  4 32  1  0  0  0  0
  5  6  1  0  0  0  0
  5 33  1  0  0  0  0
  6  7  2  0  0  0  0
  6 28  1  0  0  0  0
  7  8  1  0  0  0  0
  7 34  1  0  0  0  0
  8  9  1  0  0  0  0
  9 10  1  0  0  0  0
  9 35  1  0  0  0  0
  9 36  1  0  0  0  0
 10 27  1  0  0  0  0
 10 11  1  0  0  0  0
 11 12  1  0  0  0  0
 11 19  2  0  0  0  0
 12 13  2  0  0  0  0
 12 14  1  0  0  0  0
 14 15  1  0  0  0  0
 14 37  1  0  0  0  0
 15 16  1  0  0  0  0
 15 38  1  0  0  0  0
 15 39  1  0  0  0  0
 16 17  1  0  0  0  0
 16 40  1  0  0  0  0
 16 41  1  0  0  0  0
 17 18  1  0  0  0  0
 17 42  1  0  0  0  0
 17 43  1  0  0  0  0
 18 44  1  0  0  0  0
 19 20  1  0  0  0  0
 19 45  1  0  0  0  0
 20 27  2  0  0  0  0
 20 21  1  0  0  0  0
 21 22  2  0  0  0  0
 21 46  1  0  0  0  0
 22 23  1  0  0  0  0
 22 25  1  0  0  0  0
 23 24  3  0  0  0  0
 25 26  2  0  0  0  0
 25 47  1  0  0  0  0
 26 27  1  0  0  0  0
 26 48  1  0  0  0  0
M  END
$$$$
CHEMBL2022361
 OpenBabel12022417453D

 51 54  0  0  0  0  0  0  0  0999 V2000
    2.2972   -1.2791    1.1225 O   0  0  0  0  0  0  0  0  0  0  0  0
    2.0188   -0.5241    0.1976 C   0  0  0  0  0  0  0  0  0  0  0  0
    2.6274   -0.7002   -1.1653 C   0  0  0  0  0  0  0  0  0  0  0  0
    3.6523   -1.5563   -1.2756 C   0  0  0  0  0  0  0  0  0  0  0  0
    4.4772   -1.5951   -2.4824 C   0  0  0  0  0  0  0  0  0  0  0  0
    5.6264   -2.3986   -2.5094 C   0  0  0  0  0  0  0  0  0  0  0  0
    6.5037   -2.3366   -3.5902 C   0  0  0  0  0  0  0  0  0  0  0  0
    6.2253   -1.4897   -4.6571 C   0  0  0  0  0  0  0  0  0  0  0  0
    5.0662   -0.7078   -4.6490 C   0  0  0  0  0  0  0  0  0  0  0  0
    4.1811   -0.7449   -3.5608 C   0  0  0  0  0  0  0  0  0  0  0  0
    3.0038    0.0606   -3.4946 N   0  0  0  0  0  0  0  0  0  0  0  0
    2.5929    0.8890   -4.6273 C   0  0  0  0  0  0  0  0  0  0  0  0
    3.1454    2.3046   -4.6262 C   0  0  0  0  0  0  0  0  0  0  0  0
    3.2157    3.0708   -3.4490 C   0  0  0  0  0  0  0  0  0  0  0  0
    3.5465    4.4260   -3.4931 C   0  0  0  0  0  0  0  0  0  0  0  0
    3.8141    5.0239   -4.7149 C   0  0  0  0  0  0  0  0  0  0  0  0
    3.7861    4.2850   -5.8907 C   0  0  0  0  0  0  0  0  0  0  0  0
    3.4524    2.9283   -5.8482 C   0  0  0  0  0  0  0  0  0  0  0  0
    4.0817    6.3353   -4.7629 F   0  0  0  0  0  0  0  0  0  0  0  0
    2.1964    0.0884   -2.3567 C   0  0  0  0  0  0  0  0  0  0  0  0
    1.1690    0.7675   -2.2876 O   0  0  0  0  0  0  0  0  0  0  0  0
    1.1961    0.5739    0.3397 N   0  0  0  0  0  0  0  0  0  0  0  0
    0.5462    0.9991    1.5753 C   0  0  0  0  0  0  0  0  0  0  0  0
   -0.4652   -0.0436    2.0726 C   0  0  0  0  0  0  0  0  0  0  0  0
   -1.0916    0.3345    3.4111 C   0  0  0  0  0  0  0  0  0  0  0  0
   -0.0253    0.6491    4.4534 C   0  0  0  0  0  0  0  0  0  0  0  0
    0.8677    1.7886    3.9773 C   0  0  0  0  0  0  0  0  0  0  0  0
    1.5494    1.4389    2.6540 C   0  0  0  0  0  0  0  0  0  0  0  0
    3.9674   -2.1677   -0.4334 H   0  0  0  0  0  0  0  0  0  0  0  0
    5.8672   -3.0521   -1.6734 H   0  0  0  0  0  0  0  0  0  0  0  0
    7.4145   -2.9306   -3.5887 H   0  0  0  0  0  0  0  0  0  0  0  0
    6.9181   -1.4232   -5.4930 H   0  0  0  0  0  0  0  0  0  0  0  0
    4.9073   -0.0529   -5.4992 H   0  0  0  0  0  0  0  0  0  0  0  0
    1.4985    0.9776   -4.6283 H   0  0  0  0  0  0  0  0  0  0  0  0
    2.8270    0.3712   -5.5645 H   0  0  0  0  0  0  0  0  0  0  0  0
    2.9768    2.6373   -2.4823 H   0  0  0  0  0  0  0  0  0  0  0  0
    3.5662    5.0187   -2.5841 H   0  0  0  0  0  0  0  0  0  0  0  0
    3.9965    4.7768   -6.8349 H   0  0  0  0  0  0  0  0  0  0  0  0
    3.4011    2.3721   -6.7819 H   0  0  0  0  0  0  0  0  0  0  0  0
    0.9356    1.0714   -0.5124 H   0  0  0  0  0  0  0  0  0  0  0  0
   -0.0258    1.8943    1.2931 H   0  0  0  0  0  0  0  0  0  0  0  0
    0.0134   -1.0235    2.1766 H   0  0  0  0  0  0  0  0  0  0  0  0
   -1.2570   -0.1671    1.3231 H   0  0  0  0  0  0  0  0  0  0  0  0
   -1.7230   -0.4881    3.7642 H   0  0  0  0  0  0  0  0  0  0  0  0
   -1.7449    1.2061    3.2803 H   0  0  0  0  0  0  0  0  0  0  0  0
    0.5841   -0.2435    4.6419 H   0  0  0  0  0  0  0  0  0  0  0  0
   -0.5017    0.9192    5.4023 H   0  0  0  0  0  0  0  0  0  0  0  0
    1.6252    2.0080    4.7383 H   0  0  0  0  0  0  0  0  0  0  0  0
    0.2666    2.6984    3.8560 H   0  0  0  0  0  0  0  0  0  0  0  0
    2.1111    2.3128    2.2993 H   0  0  0  0  0  0  0  0  0  0  0  0
    2.2910    0.6538    2.8383 H   0  0  0  0  0  0  0  0  0  0  0  0
  1  2  2  0  0  0  0
  2  3  1  0  0  0  0
  2 22  1  0  0  0  0
  3 20  1  0  0  0  0
  3  4  2  0  0  0  0
  4  5  1  0  0  0  0
  4 29  1  0  0  0  0
  5 10  2  0  0  0  0
  5  6  1  0  0  0  0
  6  7  2  0  0  0  0
  6 30  1  0  0  0  0
  7  8  1  0  0  0  0
  7 31  1  0  0  0  0
  8  9  2  0  0  0  0
  8 32  1  0  0  0  0
  9 10  1  0  0  0  0
  9 33  1  0  0  0  0
 10 11  1  0  0  0  0
 11 12  1  0  0  0  0
 11 20  1  0  0  0  0
 12 13  1  0  0  0  0
 12 34  1  0  0  0  0
 12 35  1  0  0  0  0
 13 18  2  0  0  0  0
 13 14  1  0  0  0  0
 14 15  2  0  0  0  0
 14 36  1  0  0  0  0
 15 16  1  0  0  0  0
 15 37  1  0  0  0  0
 16 17  2  0  0  0  0
 16 19  1  0  0  0  0
 17 18  1  0  0  0  0
 17 38  1  0  0  0  0
 18 39  1  0  0  0  0
 20 21  2  0  0  0  0
 22 23  1  0  0  0  0
 22 40  1  0  0  0  0
 23 28  1  0  0  0  0
 23 24  1  0  0  0  0
 23 41  1  0  0  0  0
 24 25  1  0  0  0  0
 24 42  1  0  0  0  0
 24 43  1  0  0  0  0
 25 26  1  0  0  0  0
 25 44  1  0  0  0  0
 25 45  1  0  0  0  0
 26 27  1  0  0  0  0
 26 46  1  0  0  0  0
 26 47  1  0  0  0  0
 27 28  1  0  0  0  0
 27 48  1  0  0  0  0
 27 49  1  0  0  0  0
 28 50  1  0  0  0  0
 28 51  1  0  0  0  0
M  END
$$$$
CHEMBL3354943
 OpenBabel12022417453D

 50 54  0  0  1  0  0  0  0  0999 V2000
    4.4704    0.2548    1.9157 C   0  0  0  0  0  0  0  0  0  0  0  0
    3.2479    0.9243    1.2429 C   0  0  0  0  0  0  0  0  0  0  0  0
    2.4025   -0.1873    0.5779 C   0  0  0  0  0  0  0  0  0  0  0  0
    2.3535    1.6513    2.2823 C   0  0  0  0  0  0  0  0  0  0  0  0
    1.2089    2.3616    1.8678 C   0  0  0  0  0  0  0  0  0  0  0  0
    0.3705    2.9992    2.7915 C   0  0  0  0  0  0  0  0  0  0  0  0
    0.6546    2.9462    4.1531 C   0  0  0  0  0  0  0  0  0  0  0  0
    1.7739    2.2506    4.5910 C   0  0  0  0  0  0  0  0  0  0  0  0
    2.6089    1.6104    3.6687 C   0  0  0  0  0  0  0  0  0  0  0  0
    3.7146    1.8882    0.2280 N   0  0  0  0  0  0  0  0  0  0  0  0
    4.5183    1.5691   -0.8534 C   0  0  0  0  0  0  0  0  0  0  0  0
    4.9257    0.4387   -1.0960 O   0  0  0  0  0  0  0  0  0  0  0  0
    4.8763    2.7078   -1.7170 C   0  0  0  0  0  0  0  0  0  0  0  0
    5.7739    2.6921   -2.7987 C   0  0  0  0  0  0  0  0  0  0  0  0
    5.8170    3.9774   -3.2564 C   0  0  0  0  0  0  0  0  0  0  0  0
    6.9257    4.1683   -4.2669 C   0  0  1  0  0  0  0  0  0  0  0  0
    7.5910    2.7701   -4.2981 C   0  0  1  0  0  0  0  0  0  0  0  0
    6.7742    1.7922   -3.4251 C   0  0  0  0  0  0  0  0  0  0  0  0
    6.9973    3.3573   -5.5374 C   0  0  0  0  0  0  0  0  0  0  0  0
    5.0065    4.7400   -2.4726 N   0  0  0  0  0  0  0  0  0  0  0  0
    4.6943    6.1092   -2.6572 C   0  0  0  0  0  0  0  0  0  0  0  0
    4.7257    6.6255   -3.9699 C   0  0  0  0  0  0  0  0  0  0  0  0
    4.3847    7.9565   -4.2180 C   0  0  0  0  0  0  0  0  0  0  0  0
    4.0313    8.7839   -3.1585 C   0  0  0  0  0  0  0  0  0  0  0  0
    4.0065    8.2913   -1.8552 C   0  0  0  0  0  0  0  0  0  0  0  0
    4.3331    6.9528   -1.5967 C   0  0  0  0  0  0  0  0  0  0  0  0
    4.3906    6.5004    0.0727 Cl  0  0  0  0  0  0  0  0  0  0  0  0
    3.6224   10.4273   -3.4604 Cl  0  0  0  0  0  0  0  0  0  0  0  0
    4.3978    3.9621   -1.5229 N   0  0  0  0  0  0  0  0  0  0  0  0
    4.1613   -0.5099    2.6388 H   0  0  0  0  0  0  0  0  0  0  0  0
    5.0900    0.9942    2.4378 H   0  0  0  0  0  0  0  0  0  0  0  0
    5.1230   -0.2502    1.1986 H   0  0  0  0  0  0  0  0  0  0  0  0
    2.0063   -0.8864    1.3238 H   0  0  0  0  0  0  0  0  0  0  0  0
    2.9891   -0.7760   -0.1352 H   0  0  0  0  0  0  0  0  0  0  0  0
    1.5518    0.2225    0.0212 H   0  0  0  0  0  0  0  0  0  0  0  0
    0.9499    2.4181    0.8120 H   0  0  0  0  0  0  0  0  0  0  0  0
   -0.5100    3.5358    2.4470 H   0  0  0  0  0  0  0  0  0  0  0  0
    0.0062    3.4423    4.8701 H   0  0  0  0  0  0  0  0  0  0  0  0
    2.0012    2.1987    5.6535 H   0  0  0  0  0  0  0  0  0  0  0  0
    3.4606    1.0724    4.0758 H   0  0  0  0  0  0  0  0  0  0  0  0
    3.4893    2.8745    0.3286 H   0  0  0  0  0  0  0  0  0  0  0  0
    7.4700    5.1026   -4.2748 H   0  0  0  0  0  0  0  0  0  0  0  0
    8.6622    2.6955   -4.1852 H   0  0  0  0  0  0  0  0  0  0  0  0
    6.3027    1.0248   -4.0462 H   0  0  0  0  0  0  0  0  0  0  0  0
    7.4197    1.3240   -2.6770 H   0  0  0  0  0  0  0  0  0  0  0  0
    7.6812    3.6997   -6.3083 H   0  0  0  0  0  0  0  0  0  0  0  0
    6.0791    2.9409   -5.9354 H   0  0  0  0  0  0  0  0  0  0  0  0
    4.9614    5.9942   -4.8244 H   0  0  0  0  0  0  0  0  0  0  0  0
    4.3910    8.3360   -5.2380 H   0  0  0  0  0  0  0  0  0  0  0  0
    3.7533    8.9578   -1.0340 H   0  0  0  0  0  0  0  0  0  0  0  0
  1  2  1  0  0  0  0
  1 30  1  0  0  0  0
  1 31  1  0  0  0  0
  1 32  1  0  0  0  0
  2  3  1  0  0  0  0
  2  4  1  0  0  0  0
  2 10  1  0  0  0  0
  3 33  1  0  0  0  0
  3 34  1  0  0  0  0
  3 35  1  0  0  0  0
  4  9  2  0  0  0  0
  4  5  1  0  0  0  0
  5  6  2  0  0  0  0
  5 36  1  0  0  0  0
  6  7  1  0  0  0  0
  6 37  1  0  0  0  0
  7  8  2  0  0  0  0
  7 38  1  0  0  0  0
  8  9  1  0  0  0  0
  8 39  1  0  0  0  0
  9 40  1  0  0  0  0
 10 11  1  0  0  0  0
 10 41  1  0  0  0  0
 11 12  2  0  0  0  0
 11 13  1  0  0  0  0
 13 29  2  0  0  0  0
 13 14  1  0  0  0  0
 14 18  1  0  0  0  0
 14 15  2  0  0  0  0
 15 16  1  0  0  0  0
 15 20  1  0  0  0  0
 16 17  1  0  0  0  0
 16 19  1  0  0  0  0
 16 42  1  1  0  0  0
 17 18  1  0  0  0  0
 17 19  1  0  0  0  0
 17 43  1  1  0  0  0
 18 44  1  0  0  0  0
 18 45  1  0  0  0  0
 19 46  1  0  0  0  0
 19 47  1  0  0  0  0
 20 21  1  0  0  0  0
 20 29  1  0  0  0  0
 21 26  2  0  0  0  0
 21 22  1  0  0  0  0
 22 23  2  0  0  0  0
 22 48  1  0  0  0  0
 23 24  1  0  0  0  0
 23 49  1  0  0  0  0
 24 25  2  0  0  0  0
 24 28  1  0  0  0  0
 25 26  1  0  0  0  0
 25 50  1  0  0  0  0
 26 27  1  0  0  0  0
M  END
$$$$
CHEMBL244402
 OpenBabel12022417453D

 49 52  0  0  0  0  0  0  0  0999 V2000
    2.2117   -0.0560    0.6952 C   0  0  0  0  0  0  0  0  0  0  0  0
    2.0158    1.0328    1.5291 C   0  0  0  0  0  0  0  0  0  0  0  0
    0.7338    1.3293    1.9819 C   0  0  0  0  0  0  0  0  0  0  0  0
   -0.3585    0.5017    1.6622 C   0  0  0  0  0  0  0  0  0  0  0  0
   -0.1727   -0.6722    0.8819 C   0  0  0  0  0  0  0  0  0  0  0  0
    1.1297   -0.8724    0.3498 C   0  0  0  0  0  0  0  0  0  0  0  0
   -1.3007   -1.5359    0.7065 C   0  0  0  0  0  0  0  0  0  0  0  0
   -2.5696   -1.1388    1.1753 C   0  0  0  0  0  0  0  0  0  0  0  0
   -2.7391    0.0548    1.8634 C   0  0  0  0  0  0  0  0  0  0  0  0
   -1.6341    0.8526    2.1275 C   0  0  0  0  0  0  0  0  0  0  0  0
   -1.2828   -2.9104    0.0973 C   0  0  0  0  0  0  0  0  0  0  0  0
   -2.3291   -3.3246   -0.3997 O   0  0  0  0  0  0  0  0  0  0  0  0
   -0.0950   -3.8196    0.1546 C   0  0  0  0  0  0  0  0  0  0  0  0
    0.7148   -3.7721    1.3000 C   0  0  0  0  0  0  0  0  0  0  0  0
    1.9350   -4.4408    1.3329 C   0  0  0  0  0  0  0  0  0  0  0  0
    2.3309   -5.2289    0.2539 C   0  0  0  0  0  0  0  0  0  0  0  0
    1.4733   -5.4000   -0.8613 C   0  0  0  0  0  0  0  0  0  0  0  0
    0.2351   -4.6977   -0.9201 C   0  0  0  0  0  0  0  0  0  0  0  0
   -0.5844   -4.9190   -2.0600 C   0  0  0  0  0  0  0  0  0  0  0  0
   -0.2307   -5.8040   -3.0786 C   0  0  0  0  0  0  0  0  0  0  0  0
    0.9755   -6.4764   -3.0139 C   0  0  0  0  0  0  0  0  0  0  0  0
    1.8184   -6.2656   -1.9242 C   0  0  0  0  0  0  0  0  0  0  0  0
    3.5696   -5.8283    0.1766 O   0  0  0  0  0  0  0  0  0  0  0  0
    4.2218   -6.1392    1.4079 C   0  0  0  0  0  0  0  0  0  0  0  0
    5.5631   -6.7972    1.0878 C   0  0  0  0  0  0  0  0  0  0  0  0
    6.3000   -7.1901    2.3661 C   0  0  0  0  0  0  0  0  0  0  0  0
    7.6484   -7.8306    2.0711 C   0  0  0  0  0  0  0  0  0  0  0  0
    3.2040   -0.2774    0.3101 H   0  0  0  0  0  0  0  0  0  0  0  0
    2.8528    1.6669    1.8111 H   0  0  0  0  0  0  0  0  0  0  0  0
    0.5919    2.2087    2.6030 H   0  0  0  0  0  0  0  0  0  0  0  0
    1.3323   -1.6820   -0.3467 H   0  0  0  0  0  0  0  0  0  0  0  0
   -3.4394   -1.7754    1.0145 H   0  0  0  0  0  0  0  0  0  0  0  0
   -3.7268    0.3468    2.2126 H   0  0  0  0  0  0  0  0  0  0  0  0
   -1.7797    1.7669    2.6992 H   0  0  0  0  0  0  0  0  0  0  0  0
    0.4407   -3.1575    2.1550 H   0  0  0  0  0  0  0  0  0  0  0  0
    2.5688   -4.2835    2.1988 H   0  0  0  0  0  0  0  0  0  0  0  0
   -1.5468   -4.4243   -2.1634 H   0  0  0  0  0  0  0  0  0  0  0  0
   -0.9084   -5.9650   -3.9132 H   0  0  0  0  0  0  0  0  0  0  0  0
    1.2607   -7.1679   -3.8009 H   0  0  0  0  0  0  0  0  0  0  0  0
    2.7613   -6.8102   -1.8973 H   0  0  0  0  0  0  0  0  0  0  0  0
    3.5948   -6.8272    1.9871 H   0  0  0  0  0  0  0  0  0  0  0  0
    4.4192   -5.2318    1.9878 H   0  0  0  0  0  0  0  0  0  0  0  0
    6.1741   -6.1021    0.4959 H   0  0  0  0  0  0  0  0  0  0  0  0
    5.4031   -7.6743    0.4487 H   0  0  0  0  0  0  0  0  0  0  0  0
    5.6891   -7.8939    2.9424 H   0  0  0  0  0  0  0  0  0  0  0  0
    6.4557   -6.3056    2.9929 H   0  0  0  0  0  0  0  0  0  0  0  0
    7.5305   -8.7347    1.4669 H   0  0  0  0  0  0  0  0  0  0  0  0
    8.1478   -8.1092    3.0057 H   0  0  0  0  0  0  0  0  0  0  0  0
    8.3024   -7.1378    1.5324 H   0  0  0  0  0  0  0  0  0  0  0  0
  1  6  2  0  0  0  0
  1  2  1  0  0  0  0
  1 28  1  0  0  0  0
  2  3  2  0  0  0  0
  2 29  1  0  0  0  0
  3  4  1  0  0  0  0
  3 30  1  0  0  0  0
  4 10  2  0  0  0  0
  4  5  1  0  0  0  0
  5  6  1  0  0  0  0
  5  7  2  0  0  0  0
  6 31  1  0  0  0  0
  7  8  1  0  0  0  0
  7 11  1  0  0  0  0
  8  9  2  0  0  0  0
  8 32  1  0  0  0  0
  9 10  1  0  0  0  0
  9 33  1  0  0  0  0
 10 34  1  0  0  0  0
 11 12  2  0  0  0  0
 11 13  1  0  0  0  0
 13 18  2  0  0  0  0
 13 14  1  0  0  0  0
 14 15  2  0  0  0  0
 14 35  1  0  0  0  0
 15 16  1  0  0  0  0
 15 36  1  0  0  0  0
 16 17  2  0  0  0  0
 16 23  1  0  0  0  0
 17 22  1  0  0  0  0
 17 18  1  0  0  0  0
 18 19  1  0  0  0  0
 19 20  2  0  0  0  0
 19 37  1  0  0  0  0
 20 21  1  0  0  0  0
 20 38  1  0  0  0  0
 21 22  2  0  0  0  0
 21 39  1  0  0  0  0
 22 40  1  0  0  0  0
 23 24  1  0  0  0  0
 24 25  1  0  0  0  0
 24 41  1  0  0  0  0
 24 42  1  0  0  0  0
 25 26  1  0  0  0  0
 25 43  1  0  0  0  0
 25 44  1  0  0  0  0
 26 27  1  0  0  0  0
 26 45  1  0  0  0  0
 26 46  1  0  0  0  0
 27 47  1  0  0  0  0
 27 48  1  0  0  0  0
 27 49  1  0  0  0  0
M  END
$$$$
CHEMBL2206859
 OpenBabel12022417453D

 49 52  0  0  0  0  0  0  0  0999 V2000
    4.5486    2.0963    7.5141 C   0  0  0  0  0  0  0  0  0  0  0  0
    4.3298    0.9698    6.5138 C   0  0  0  0  0  0  0  0  0  0  0  0
    5.1087    1.2154    5.2196 C   0  0  0  0  0  0  0  0  0  0  0  0
    4.9353    0.0633    4.2256 C   0  0  0  0  0  0  0  0  0  0  0  0
    5.6188    0.3216    2.8736 C   0  0  0  0  0  0  0  0  0  0  0  0
    7.0803    0.2850    2.9108 N   0  0  0  0  0  0  0  0  0  0  0  0
    7.8896    1.3748    3.1033 C   0  0  0  0  0  0  0  0  0  0  0  0
    9.2249    0.9806    3.1411 C   0  0  0  0  0  0  0  0  0  0  0  0
    9.2057   -0.4363    2.8880 C   0  0  0  0  0  0  0  0  0  0  0  0
    7.8618   -0.8454    2.7487 C   0  0  0  0  0  0  0  0  0  0  0  0
    7.4901   -2.1771    2.5417 C   0  0  0  0  0  0  0  0  0  0  0  0
    8.4869   -3.1446    2.4494 C   0  0  0  0  0  0  0  0  0  0  0  0
    9.8230   -2.7882    2.5843 C   0  0  0  0  0  0  0  0  0  0  0  0
   10.1844   -1.4548    2.8036 C   0  0  0  0  0  0  0  0  0  0  0  0
   10.2826    1.9336    3.5673 C   0  0  0  0  0  0  0  0  0  0  0  0
    9.9940    2.7451    4.4571 O   0  0  0  0  0  0  0  0  0  0  0  0
   11.6606    2.1029    2.9170 C   0  0  0  0  0  0  0  0  0  0  0  0
   11.8874    1.5877    1.6729 C   0  0  0  0  0  0  0  0  0  0  0  0
   12.2376    2.4329    0.6259 C   0  0  0  0  0  0  0  0  0  0  0  0
   12.1208    3.8247    0.7824 C   0  0  0  0  0  0  0  0  0  0  0  0
   11.9774    4.3268    2.1014 C   0  0  0  0  0  0  0  0  0  0  0  0
   12.1744    3.4357    3.1210 C   0  0  0  0  0  0  0  0  0  0  0  0
   13.0218    3.8674    4.1533 C   0  0  0  0  0  0  0  0  0  0  0  0
   13.1672    5.2346    4.4026 C   0  0  0  0  0  0  0  0  0  0  0  0
   12.3906    6.1260    3.6732 C   0  0  0  0  0  0  0  0  0  0  0  0
   11.8420    5.7032    2.4727 C   0  0  0  0  0  0  0  0  0  0  0  0
   12.4892    4.8559   -0.5285 Cl  0  0  0  0  0  0  0  0  0  0  0  0
    3.9884    1.9050    8.4312 H   0  0  0  0  0  0  0  0  0  0  0  0
    4.2169    3.0569    7.1057 H   0  0  0  0  0  0  0  0  0  0  0  0
    5.6074    2.1852    7.7750 H   0  0  0  0  0  0  0  0  0  0  0  0
    3.2594    0.8887    6.2945 H   0  0  0  0  0  0  0  0  0  0  0  0
    4.6458    0.0217    6.9687 H   0  0  0  0  0  0  0  0  0  0  0  0
    6.1710    1.3331    5.4604 H   0  0  0  0  0  0  0  0  0  0  0  0
    4.7702    2.1510    4.7568 H   0  0  0  0  0  0  0  0  0  0  0  0
    3.8630   -0.0815    4.0374 H   0  0  0  0  0  0  0  0  0  0  0  0
    5.3053   -0.8690    4.6669 H   0  0  0  0  0  0  0  0  0  0  0  0
    5.3233    1.2946    2.4650 H   0  0  0  0  0  0  0  0  0  0  0  0
    5.2990   -0.4364    2.1547 H   0  0  0  0  0  0  0  0  0  0  0  0
    7.4574    2.3554    3.2723 H   0  0  0  0  0  0  0  0  0  0  0  0
    6.4435   -2.4716    2.4815 H   0  0  0  0  0  0  0  0  0  0  0  0
    8.2147   -4.1820    2.3023 H   0  0  0  0  0  0  0  0  0  0  0  0
   10.5848   -3.5501    2.5291 H   0  0  0  0  0  0  0  0  0  0  0  0
   11.2495   -1.2093    2.9832 H   0  0  0  0  0  0  0  0  0  0  0  0
   11.7574    0.5147    1.4713 H   0  0  0  0  0  0  0  0  0  0  0  0
   12.5394    2.0212   -0.3347 H   0  0  0  0  0  0  0  0  0  0  0  0
   13.6211    3.1500    4.7163 H   0  0  0  0  0  0  0  0  0  0  0  0
   13.8371    5.5914    5.1786 H   0  0  0  0  0  0  0  0  0  0  0  0
   12.3162    7.1673    3.9686 H   0  0  0  0  0  0  0  0  0  0  0  0
   11.3541    6.4045    1.8069 H   0  0  0  0  0  0  0  0  0  0  0  0
  1  2  1  0  0  0  0
  1 28  1  0  0  0  0
  1 29  1  0  0  0  0
  1 30  1  0  0  0  0
  2  3  1  0  0  0  0
  2 31  1  0  0  0  0
  2 32  1  0  0  0  0
  3  4  1  0  0  0  0
  3 33  1  0  0  0  0
  3 34  1  0  0  0  0
  4  5  1  0  0  0  0
  4 35  1  0  0  0  0
  4 36  1  0  0  0  0
  5  6  1  0  0  0  0
  5 37  1  0  0  0  0
  5 38  1  0  0  0  0
  6 10  1  0  0  0  0
  6  7  1  0  0  0  0
  7  8  2  0  0  0  0
  7 39  1  0  0  0  0
  8  9  1  0  0  0  0
  8 15  1  0  0  0  0
  9 14  2  0  0  0  0
  9 10  1  0  0  0  0
 10 11  2  0  0  0  0
 11 12  1  0  0  0  0
 11 40  1  0  0  0  0
 12 13  2  0  0  0  0
 12 41  1  0  0  0  0
 13 14  1  0  0  0  0
 13 42  1  0  0  0  0
 14 43  1  0  0  0  0
 15 16  2  0  0  0  0
 15 17  1  0  0  0  0
 17 22  2  0  0  0  0
 17 18  1  0  0  0  0
 18 19  2  0  0  0  0
 18 44  1  0  0  0  0
 19 20  1  0  0  0  0
 19 45  1  0  0  0  0
 20 21  2  0  0  0  0
 20 27  1  0  0  0  0
 21 26  1  0  0  0  0
 21 22  1  0  0  0  0
 22 23  1  0  0  0  0
 23 24  2  0  0  0  0
 23 46  1  0  0  0  0
 24 25  1  0  0  0  0
 24 47  1  0  0  0  0
 25 26  2  0  0  0  0
 25 48  1  0  0  0  0
 26 49  1  0  0  0  0
M  END
$$$$
CHEMBL467328
 OpenBabel12022417453D

 51 55  0  0  0  0  0  0  0  0999 V2000
   -2.6474   -1.5476   -0.0850 C   0  0  0  0  0  0  0  0  0  0  0  0
   -3.1971   -0.2430    0.0692 C   0  0  0  0  0  0  0  0  0  0  0  0
   -4.6498    0.0598    0.2463 C   0  0  0  0  0  0  0  0  0  0  0  0
   -5.4392   -0.7360    1.1102 C   0  0  0  0  0  0  0  0  0  0  0  0
   -6.8127   -0.5264    1.2753 C   0  0  0  0  0  0  0  0  0  0  0  0
   -7.4320    0.5396    0.6398 C   0  0  0  0  0  0  0  0  0  0  0  0
   -6.6819    1.3719   -0.1857 C   0  0  0  0  0  0  0  0  0  0  0  0
   -5.3143    1.1268   -0.4012 C   0  0  0  0  0  0  0  0  0  0  0  0
   -4.5435    2.1657   -1.5568 Cl  0  0  0  0  0  0  0  0  0  0  0  0
   -2.4067    0.8765    0.1444 N   0  0  0  0  0  0  0  0  0  0  0  0
   -1.0688    0.7536    0.0646 C   0  0  0  0  0  0  0  0  0  0  0  0
   -0.4666   -0.4727   -0.0298 C   0  0  0  0  0  0  0  0  0  0  0  0
   -1.2398   -1.6254   -0.1076 C   0  0  0  0  0  0  0  0  0  0  0  0
    0.9815   -0.4886   -0.0427 C   0  0  0  0  0  0  0  0  0  0  0  0
    1.6484    0.6971   -0.0337 N   0  0  0  0  0  0  0  0  0  0  0  0
    0.9648    1.9168    0.0232 C   0  0  0  0  0  0  0  0  0  0  0  0
    1.7366    3.2655    0.0364 C   0  0  0  0  0  0  0  0  0  0  0  0
    2.5374    3.4609   -1.2614 C   0  0  0  0  0  0  0  0  0  0  0  0
    0.7390    4.4503    0.1177 C   0  0  0  0  0  0  0  0  0  0  0  0
    2.6282    3.3774    1.2827 C   0  0  0  0  0  0  0  0  0  0  0  0
   -0.3385    1.9500    0.0777 N   0  0  0  0  0  0  0  0  0  0  0  0
    2.9933    0.3156   -0.0608 C   0  0  0  0  0  0  0  0  0  0  0  0
    4.0177    0.9753   -0.0977 O   0  0  0  0  0  0  0  0  0  0  0  0
    2.9838   -1.0792   -0.0562 N   0  0  0  0  0  0  0  0  0  0  0  0
    1.7148   -1.5686   -0.0549 N   0  0  0  0  0  0  0  0  0  0  0  0
   -3.4216   -2.8163   -0.2346 C   0  0  0  0  0  0  0  0  0  0  0  0
   -2.9758   -4.0192    0.3550 C   0  0  0  0  0  0  0  0  0  0  0  0
   -3.6908   -5.2123    0.2090 C   0  0  0  0  0  0  0  0  0  0  0  0
   -4.8892   -5.2363   -0.4927 C   0  0  0  0  0  0  0  0  0  0  0  0
   -5.3563   -4.0661   -1.0804 C   0  0  0  0  0  0  0  0  0  0  0  0
   -4.6120   -2.8847   -0.9824 C   0  0  0  0  0  0  0  0  0  0  0  0
   -3.0808   -6.6643    0.9038 Cl  0  0  0  0  0  0  0  0  0  0  0  0
   -4.9918   -1.5673    1.6528 H   0  0  0  0  0  0  0  0  0  0  0  0
   -7.3916   -1.1987    1.9043 H   0  0  0  0  0  0  0  0  0  0  0  0
   -8.4937    0.7232    0.7841 H   0  0  0  0  0  0  0  0  0  0  0  0
   -7.1712    2.2107   -0.6764 H   0  0  0  0  0  0  0  0  0  0  0  0
   -0.7314   -2.5817   -0.2054 H   0  0  0  0  0  0  0  0  0  0  0  0
    1.8752    3.4421   -2.1350 H   0  0  0  0  0  0  0  0  0  0  0  0
    3.2906    2.6930   -1.4309 H   0  0  0  0  0  0  0  0  0  0  0  0
    3.0615    4.4238   -1.2604 H   0  0  0  0  0  0  0  0  0  0  0  0
    0.0604    4.4669   -0.7428 H   0  0  0  0  0  0  0  0  0  0  0  0
    1.2661    5.4119    0.1398 H   0  0  0  0  0  0  0  0  0  0  0  0
    0.1248    4.3933    1.0242 H   0  0  0  0  0  0  0  0  0  0  0  0
    3.4051    2.6178    1.3375 H   0  0  0  0  0  0  0  0  0  0  0  0
    2.0305    3.2757    2.1959 H   0  0  0  0  0  0  0  0  0  0  0  0
    3.1353    4.3485    1.3189 H   0  0  0  0  0  0  0  0  0  0  0  0
    3.8012   -1.6739   -0.0704 H   0  0  0  0  0  0  0  0  0  0  0  0
   -2.0586   -4.0437    0.9404 H   0  0  0  0  0  0  0  0  0  0  0  0
   -5.4567   -6.1576   -0.5904 H   0  0  0  0  0  0  0  0  0  0  0  0
   -6.2994   -4.0666   -1.6217 H   0  0  0  0  0  0  0  0  0  0  0  0
   -5.0004   -2.0037   -1.4908 H   0  0  0  0  0  0  0  0  0  0  0  0
  1 13  2  0  0  0  0
  1  2  1  0  0  0  0
  1 26  1  0  0  0  0
  2  3  1  0  0  0  0
  2 10  2  0  0  0  0
  3  8  2  0  0  0  0
  3  4  1  0  0  0  0
  4  5  2  0  0  0  0
  4 33  1  0  0  0  0
  5  6  1  0  0  0  0
  5 34  1  0  0  0  0
  6  7  2  0  0  0  0
  6 35  1  0  0  0  0
  7  8  1  0  0  0  0
  7 36  1  0  0  0  0
  8  9  1  0  0  0  0
 10 11  1  0  0  0  0
 11 21  1  0  0  0  0
 11 12  2  0  0  0  0
 12 13  1  0  0  0  0
 12 14  1  0  0  0  0
 13 37  1  0  0  0  0
 14 25  2  0  0  0  0
 14 15  1  0  0  0  0
 15 16  1  0  0  0  0
 15 22  1  0  0  0  0
 16 17  1  0  0  0  0
 16 21  2  0  0  0  0
 17 18  1  0  0  0  0
 17 19  1  0  0  0  0
 17 20  1  0  0  0  0
 18 38  1  0  0  0  0
 18 39  1  0  0  0  0
 18 40  1  0  0  0  0
 19 41  1  0  0  0  0
 19 42  1  0  0  0  0
 19 43  1  0  0  0  0
 20 44  1  0  0  0  0
 20 45  1  0  0  0  0
 20 46  1  0  0  0  0
 22 23  2  0  0  0  0
 22 24  1  0  0  0  0
 24 25  1  0  0  0  0
 24 47  1  0  0  0  0
 26 31  2  0  0  0  0
 26 27  1  0  0  0  0
 27 28  2  0  0  0  0
 27 48  1  0  0  0  0
 28 29  1  0  0  0  0
 28 32  1  0  0  0  0
 29 30  2  0  0  0  0
 29 49  1  0  0  0  0
 30 31  1  0  0  0  0
 30 50  1  0  0  0  0
 31 51  1  0  0  0  0
M  END
$$$$
CHEMBL2206847
 OpenBabel12022417453D

 52 55  0  0  0  0  0  0  0  0999 V2000
   -2.0271   -0.9452    0.1690 C   0  0  0  0  0  0  0  0  0  0  0  0
   -2.1001    0.4276   -0.0411 C   0  0  0  0  0  0  0  0  0  0  0  0
   -0.9437    1.2059   -0.0653 C   0  0  0  0  0  0  0  0  0  0  0  0
    0.3003    0.5746    0.1433 C   0  0  0  0  0  0  0  0  0  0  0  0
    0.3966   -0.7898    0.4056 C   0  0  0  0  0  0  0  0  0  0  0  0
   -0.7933   -1.5542    0.4079 C   0  0  0  0  0  0  0  0  0  0  0  0
    1.7860   -1.1035    0.6365 C   0  0  0  0  0  0  0  0  0  0  0  0
    2.4983    0.0376    0.2558 C   0  0  0  0  0  0  0  0  0  0  0  0
    3.9478    0.2452   -0.0269 C   0  0  0  0  0  0  0  0  0  0  0  0
    1.5863    1.0744    0.1532 N   0  0  0  0  0  0  0  0  0  0  0  0
    1.9162    2.4888   -0.0311 C   0  0  0  0  0  0  0  0  0  0  0  0
    1.4796    3.3777    1.1381 C   0  0  0  0  0  0  0  0  0  0  0  0
    1.9611    4.8220    0.9612 C   0  0  0  0  0  0  0  0  0  0  0  0
    1.4401    5.7174    2.0887 C   0  0  0  0  0  0  0  0  0  0  0  0
    1.9083    7.1561    1.9384 C   0  0  0  0  0  0  0  0  0  0  0  0
    2.2651   -2.4360    1.0854 C   0  0  0  0  0  0  0  0  0  0  0  0
    1.5218   -3.4186    1.1001 O   0  0  0  0  0  0  0  0  0  0  0  0
    3.6745   -2.6932    1.4919 C   0  0  0  0  0  0  0  0  0  0  0  0
    4.2532   -3.8128    0.8585 C   0  0  0  0  0  0  0  0  0  0  0  0
    5.6151   -4.0545    0.9488 C   0  0  0  0  0  0  0  0  0  0  0  0
    6.4224   -3.1128    1.5744 C   0  0  0  0  0  0  0  0  0  0  0  0
    5.8646   -1.9881    2.2007 C   0  0  0  0  0  0  0  0  0  0  0  0
    4.4595   -1.8372    2.3229 C   0  0  0  0  0  0  0  0  0  0  0  0
    4.0171   -0.8276    3.2318 C   0  0  0  0  0  0  0  0  0  0  0  0
    4.8975    0.1441    3.7252 C   0  0  0  0  0  0  0  0  0  0  0  0
    6.2324    0.1213    3.3521 C   0  0  0  0  0  0  0  0  0  0  0  0
    6.7273   -0.9826    2.6679 C   0  0  0  0  0  0  0  0  0  0  0  0
    2.2580   -0.7918    3.9635 Br  0  0  0  0  0  0  0  0  0  0  0  0
   -2.9316   -1.5456    0.1584 H   0  0  0  0  0  0  0  0  0  0  0  0
   -3.0660    0.8950   -0.2110 H   0  0  0  0  0  0  0  0  0  0  0  0
   -1.0152    2.2744   -0.2432 H   0  0  0  0  0  0  0  0  0  0  0  0
   -0.7534   -2.6304    0.5647 H   0  0  0  0  0  0  0  0  0  0  0  0
    4.4663   -0.6961   -0.2196 H   0  0  0  0  0  0  0  0  0  0  0  0
    4.4372    0.7703    0.7974 H   0  0  0  0  0  0  0  0  0  0  0  0
    4.0814    0.8425   -0.9350 H   0  0  0  0  0  0  0  0  0  0  0  0
    1.4501    2.8046   -0.9705 H   0  0  0  0  0  0  0  0  0  0  0  0
    2.9978    2.5823   -0.1594 H   0  0  0  0  0  0  0  0  0  0  0  0
    1.8707    2.9734    2.0798 H   0  0  0  0  0  0  0  0  0  0  0  0
    0.3881    3.3770    1.2283 H   0  0  0  0  0  0  0  0  0  0  0  0
    1.6185    5.2129   -0.0048 H   0  0  0  0  0  0  0  0  0  0  0  0
    3.0576    4.8450    0.9488 H   0  0  0  0  0  0  0  0  0  0  0  0
    1.7795    5.3293    3.0561 H   0  0  0  0  0  0  0  0  0  0  0  0
    0.3441    5.6983    2.0985 H   0  0  0  0  0  0  0  0  0  0  0  0
    2.9989    7.2204    1.9603 H   0  0  0  0  0  0  0  0  0  0  0  0
    1.5189    7.7701    2.7575 H   0  0  0  0  0  0  0  0  0  0  0  0
    1.5544    7.5888    0.9962 H   0  0  0  0  0  0  0  0  0  0  0  0
    3.6361   -4.4872    0.2654 H   0  0  0  0  0  0  0  0  0  0  0  0
    6.0538   -4.9282    0.4743 H   0  0  0  0  0  0  0  0  0  0  0  0
    7.4987   -3.2713    1.5756 H   0  0  0  0  0  0  0  0  0  0  0  0
    4.5463    0.9267    4.3931 H   0  0  0  0  0  0  0  0  0  0  0  0
    6.8969    0.9353    3.6270 H   0  0  0  0  0  0  0  0  0  0  0  0
    7.7938   -1.0364    2.4628 H   0  0  0  0  0  0  0  0  0  0  0  0
  1  6  2  0  0  0  0
  1  2  1  0  0  0  0
  1 29  1  0  0  0  0
  2  3  2  0  0  0  0
  2 30  1  0  0  0  0
  3  4  1  0  0  0  0
  3 31  1  0  0  0  0
  4 10  1  0  0  0  0
  4  5  2  0  0  0  0
  5  6  1  0  0  0  0
  5  7  1  0  0  0  0
  6 32  1  0  0  0  0
  7  8  2  0  0  0  0
  7 16  1  0  0  0  0
  8  9  1  0  0  0  0
  8 10  1  0  0  0  0
  9 33  1  0  0  0  0
  9 34  1  0  0  0  0
  9 35  1  0  0  0  0
 10 11  1  0  0  0  0
 11 12  1  0  0  0  0
 11 36  1  0  0  0  0
 11 37  1  0  0  0  0
 12 13  1  0  0  0  0
 12 38  1  0  0  0  0
 12 39  1  0  0  0  0
 13 14  1  0  0  0  0
 13 40  1  0  0  0  0
 13 41  1  0  0  0  0
 14 15  1  0  0  0  0
 14 42  1  0  0  0  0
 14 43  1  0  0  0  0
 15 44  1  0  0  0  0
 15 45  1  0  0  0  0
 15 46  1  0  0  0  0
 16 17  2  0  0  0  0
 16 18  1  0  0  0  0
 18 23  2  0  0  0  0
 18 19  1  0  0  0  0
 19 20  2  0  0  0  0
 19 47  1  0  0  0  0
 20 21  1  0  0  0  0
 20 48  1  0  0  0  0
 21 22  2  0  0  0  0
 21 49  1  0  0  0  0
 22 27  1  0  0  0  0
 22 23  1  0  0  0  0
 23 24  1  0  0  0  0
 24 25  2  0  0  0  0
 24 28  1  0  0  0  0
 25 26  1  0  0  0  0
 25 50  1  0  0  0  0
 26 27  2  0  0  0  0
 26 51  1  0  0  0  0
 27 52  1  0  0  0  0
M  END
$$$$
CHEMBL1760646
 OpenBabel12022417453D

 58 60  0  0  0  0  0  0  0  0999 V2000
    4.3598    3.6469    1.4480 C   0  0  0  0  0  0  0  0  0  0  0  0
    3.3855    2.5913    1.4701 O   0  0  0  0  0  0  0  0  0  0  0  0
    3.7042    1.5110    2.2726 C   0  0  0  0  0  0  0  0  0  0  0  0
    5.0431    1.1768    2.4995 C   0  0  0  0  0  0  0  0  0  0  0  0
    5.3570    0.1594    3.3742 C   0  0  0  0  0  0  0  0  0  0  0  0
    4.3351   -0.5433    4.0164 C   0  0  0  0  0  0  0  0  0  0  0  0
    2.9739   -0.2749    3.7407 C   0  0  0  0  0  0  0  0  0  0  0  0
    2.6254    0.7417    2.8414 C   0  0  0  0  0  0  0  0  0  0  0  0
    1.2249    1.0885    2.3524 C   0  0  0  0  0  0  0  0  0  0  0  0
   -0.1424    0.6504    2.8059 N   0  0  0  0  0  0  0  0  0  0  0  0
   -1.1698    1.0627    1.9195 C   0  0  0  0  0  0  0  0  0  0  0  0
   -1.7319    2.3801    2.0230 C   0  0  0  0  0  0  0  0  0  0  0  0
   -1.0979    3.3207    2.5028 O   0  0  0  0  0  0  0  0  0  0  0  0
   -3.0738    2.4895    1.7505 N   0  0  0  0  0  0  0  0  0  0  0  0
   -3.8465    3.6083    2.2985 C   0  0  0  0  0  0  0  0  0  0  0  0
   -4.9229    4.1734    1.3448 C   0  0  0  0  0  0  0  0  0  0  0  0
   -6.0169    3.1196    1.1046 C   0  0  0  0  0  0  0  0  0  0  0  0
   -5.5836    5.4072    1.9981 C   0  0  0  0  0  0  0  0  0  0  0  0
   -4.2862    4.6325    0.0155 C   0  0  0  0  0  0  0  0  0  0  0  0
   -3.6447    3.5723   -0.6802 O   0  0  0  0  0  0  0  0  0  0  0  0
   -1.4172   -0.1297    1.2187 C   0  0  0  0  0  0  0  0  0  0  0  0
   -0.9745   -1.2450    2.1047 C   0  0  0  0  0  0  0  0  0  0  0  0
   -1.5875   -2.5206    2.2449 C   0  0  0  0  0  0  0  0  0  0  0  0
   -2.6597   -2.6113    3.1473 C   0  0  0  0  0  0  0  0  0  0  0  0
   -3.5379   -3.7496    3.1312 C   0  0  0  0  0  0  0  0  0  0  0  0
   -4.2530   -4.6685    3.1164 N   0  0  0  0  0  0  0  0  0  0  0  0
   -2.9122   -1.5411    4.0063 C   0  0  0  0  0  0  0  0  0  0  0  0
   -1.9462   -0.5248    4.1622 C   0  0  0  0  0  0  0  0  0  0  0  0
   -0.7995   -0.4906    3.2873 C   0  0  0  0  0  0  0  0  0  0  0  0
    4.7973   -1.3475    5.0134 O   0  0  0  0  0  0  0  0  0  0  0  0
    4.3100   -2.6700    5.1088 C   0  0  0  0  0  0  0  0  0  0  0  0
    3.1659   -2.8813    4.4322 F   0  0  0  0  0  0  0  0  0  0  0  0
    5.2510   -3.5268    4.6533 F   0  0  0  0  0  0  0  0  0  0  0  0
    4.0940   -2.9400    6.4150 F   0  0  0  0  0  0  0  0  0  0  0  0
    3.9337    4.5043    0.9206 H   0  0  0  0  0  0  0  0  0  0  0  0
    5.2600    3.3555    0.8947 H   0  0  0  0  0  0  0  0  0  0  0  0
    4.6207    3.9731    2.4625 H   0  0  0  0  0  0  0  0  0  0  0  0
    5.8645    1.6970    2.0170 H   0  0  0  0  0  0  0  0  0  0  0  0
    6.4035   -0.0628    3.5785 H   0  0  0  0  0  0  0  0  0  0  0  0
    2.1922   -0.8266    4.2532 H   0  0  0  0  0  0  0  0  0  0  0  0
    1.2281    0.8914    1.2706 H   0  0  0  0  0  0  0  0  0  0  0  0
    1.1473    2.1734    2.4998 H   0  0  0  0  0  0  0  0  0  0  0  0
   -3.5734    1.6359    1.5348 H   0  0  0  0  0  0  0  0  0  0  0  0
   -3.1647    4.4153    2.5933 H   0  0  0  0  0  0  0  0  0  0  0  0
   -4.3077    3.2440    3.2274 H   0  0  0  0  0  0  0  0  0  0  0  0
   -6.5109    2.8495    2.0463 H   0  0  0  0  0  0  0  0  0  0  0  0
   -5.6170    2.2009    0.6659 H   0  0  0  0  0  0  0  0  0  0  0  0
   -6.7889    3.5041    0.4291 H   0  0  0  0  0  0  0  0  0  0  0  0
   -6.1242    5.1398    2.9128 H   0  0  0  0  0  0  0  0  0  0  0  0
   -6.3024    5.8736    1.3138 H   0  0  0  0  0  0  0  0  0  0  0  0
   -4.8395    6.1678    2.2606 H   0  0  0  0  0  0  0  0  0  0  0  0
   -3.5433    5.4195    0.1920 H   0  0  0  0  0  0  0  0  0  0  0  0
   -5.0474    5.0419   -0.6555 H   0  0  0  0  0  0  0  0  0  0  0  0
   -2.9217    3.2702   -0.0975 H   0  0  0  0  0  0  0  0  0  0  0  0
   -2.1041   -0.2551    0.3910 H   0  0  0  0  0  0  0  0  0  0  0  0
   -1.3789   -3.3329    1.5540 H   0  0  0  0  0  0  0  0  0  0  0  0
   -3.8695   -1.4698    4.5266 H   0  0  0  0  0  0  0  0  0  0  0  0
   -2.2204    0.3672    4.7301 H   0  0  0  0  0  0  0  0  0  0  0  0
  1  2  1  0  0  0  0
  1 35  1  0  0  0  0
  1 36  1  0  0  0  0
  1 37  1  0  0  0  0
  2  3  1  0  0  0  0
  3  8  2  0  0  0  0
  3  4  1  0  0  0  0
  4  5  2  0  0  0  0
  4 38  1  0  0  0  0
  5  6  1  0  0  0  0
  5 39  1  0  0  0  0
  6  7  2  0  0  0  0
  6 30  1  0  0  0  0
  7  8  1  0  0  0  0
  7 40  1  0  0  0  0
  8  9  1  0  0  0  0
  9 10  1  0  0  0  0
  9 41  1  0  0  0  0
  9 42  1  0  0  0  0
 10 29  1  0  0  0  0
 10 11  1  0  0  0  0
 11 12  1  0  0  0  0
 11 21  2  0  0  0  0
 12 13  2  0  0  0  0
 12 14  1  0  0  0  0
 14 15  1  0  0  0  0
 14 43  1  0  0  0  0
 15 16  1  0  0  0  0
 15 44  1  0  0  0  0
 15 45  1  0  0  0  0
 16 17  1  0  0  0  0
 16 18  1  0  0  0  0
 16 19  1  0  0  0  0
 17 46  1  0  0  0  0
 17 47  1  0  0  0  0
 17 48  1  0  0  0  0
 18 49  1  0  0  0  0
 18 50  1  0  0  0  0
 18 51  1  0  0  0  0
 19 20  1  0  0  0  0
 19 52  1  0  0  0  0
 19 53  1  0  0  0  0
 20 54  1  0  0  0  0
 21 22  1  0  0  0  0
 21 55  1  0  0  0  0
 22 29  2  0  0  0  0
 22 23  1  0  0  0  0
 23 24  2  0  0  0  0
 23 56  1  0  0  0  0
 24 25  1  0  0  0  0
 24 27  1  0  0  0  0
 25 26  3  0  0  0  0
 27 28  2  0  0  0  0
 27 57  1  0  0  0  0
 28 29  1  0  0  0  0
 28 58  1  0  0  0  0
 30 31  1  0  0  0  0
 31 32  1  0  0  0  0
 31 33  1  0  0  0  0
 31 34  1  0  0  0  0
M  END
$$$$
CHEMBL1760664
 OpenBabel12022417453D

 56 58  0  0  0  0  0  0  0  0999 V2000
   -0.2953    3.0898   -2.4432 C   0  0  0  0  0  0  0  0  0  0  0  0
    0.8720    2.4461   -3.1590 C   0  0  0  0  0  0  0  0  0  0  0  0
    0.5252    1.8999   -4.4148 C   0  0  0  0  0  0  0  0  0  0  0  0
    1.4564    1.2253   -5.1839 C   0  0  0  0  0  0  0  0  0  0  0  0
    2.7679    1.0870   -4.7211 C   0  0  0  0  0  0  0  0  0  0  0  0
    3.7734    0.3586   -5.5799 C   0  0  0  0  0  0  0  0  0  0  0  0
    3.2614   -0.0828   -6.7654 F   0  0  0  0  0  0  0  0  0  0  0  0
    4.8363    1.1427   -5.9058 F   0  0  0  0  0  0  0  0  0  0  0  0
    4.2869   -0.7435   -4.9678 F   0  0  0  0  0  0  0  0  0  0  0  0
    3.1244    1.6009   -3.4466 C   0  0  0  0  0  0  0  0  0  0  0  0
    2.1944    2.2749   -2.6278 C   0  0  0  0  0  0  0  0  0  0  0  0
    2.4614    2.3969   -1.1364 C   0  0  0  0  0  0  0  0  0  0  0  0
    3.4575    3.1969   -0.3730 N   0  0  0  0  0  0  0  0  0  0  0  0
    2.9429    3.7482    0.8344 C   0  0  0  0  0  0  0  0  0  0  0  0
    2.3084    5.0480    0.7484 C   0  0  0  0  0  0  0  0  0  0  0  0
    1.6059    5.3877   -0.2105 O   0  0  0  0  0  0  0  0  0  0  0  0
    2.6616    5.9088    1.7572 N   0  0  0  0  0  0  0  0  0  0  0  0
    2.3470    7.3069    1.6790 C   0  0  0  0  0  0  0  0  0  0  0  0
    0.9023    7.5044    2.1035 C   0  0  0  0  0  0  0  0  0  0  0  0
    0.3973    8.9394    1.9688 C   0  0  0  0  0  0  0  0  0  0  0  0
    1.2204    9.9084    2.8155 C   0  0  0  0  0  0  0  0  0  0  0  0
    0.3562    9.3848    0.5064 C   0  0  0  0  0  0  0  0  0  0  0  0
   -0.9495    8.9641    2.4545 O   0  0  0  0  0  0  0  0  0  0  0  0
    3.9528    3.2977    1.6928 C   0  0  0  0  0  0  0  0  0  0  0  0
    4.9970    4.0012    1.0081 C   0  0  0  0  0  0  0  0  0  0  0  0
    5.8798    4.9981    1.4570 C   0  0  0  0  0  0  0  0  0  0  0  0
    6.5316    5.8123    0.5324 C   0  0  0  0  0  0  0  0  0  0  0  0
    7.1779    7.0215    0.9724 C   0  0  0  0  0  0  0  0  0  0  0  0
    7.6543    8.0029    1.3550 N   0  0  0  0  0  0  0  0  0  0  0  0
    6.4135    5.4659   -0.8327 C   0  0  0  0  0  0  0  0  0  0  0  0
    5.5517    4.4498   -1.3160 C   0  0  0  0  0  0  0  0  0  0  0  0
    4.7155    3.8159   -0.3808 C   0  0  0  0  0  0  0  0  0  0  0  0
   -0.0006    3.7409   -1.6220 H   0  0  0  0  0  0  0  0  0  0  0  0
   -0.9829    2.3202   -2.0723 H   0  0  0  0  0  0  0  0  0  0  0  0
   -0.8523    3.7214   -3.1491 H   0  0  0  0  0  0  0  0  0  0  0  0
   -0.4989    1.9759   -4.7845 H   0  0  0  0  0  0  0  0  0  0  0  0
    1.1466    0.8005   -6.1389 H   0  0  0  0  0  0  0  0  0  0  0  0
    4.1219    1.3892   -3.0627 H   0  0  0  0  0  0  0  0  0  0  0  0
    2.6196    1.3768   -0.7615 H   0  0  0  0  0  0  0  0  0  0  0  0
    1.5101    2.6888   -0.6840 H   0  0  0  0  0  0  0  0  0  0  0  0
    3.2826    5.5818    2.4851 H   0  0  0  0  0  0  0  0  0  0  0  0
    2.5306    7.6476    0.6547 H   0  0  0  0  0  0  0  0  0  0  0  0
    3.0439    7.8319    2.3402 H   0  0  0  0  0  0  0  0  0  0  0  0
    0.7916    7.1599    3.1408 H   0  0  0  0  0  0  0  0  0  0  0  0
    0.2459    6.8390    1.5269 H   0  0  0  0  0  0  0  0  0  0  0  0
    2.2381   10.0293    2.4311 H   0  0  0  0  0  0  0  0  0  0  0  0
    1.2849    9.5552    3.8515 H   0  0  0  0  0  0  0  0  0  0  0  0
    0.7449   10.8936    2.8498 H   0  0  0  0  0  0  0  0  0  0  0  0
    1.3558    9.4700    0.0688 H   0  0  0  0  0  0  0  0  0  0  0  0
   -0.1413   10.3553    0.4101 H   0  0  0  0  0  0  0  0  0  0  0  0
   -0.2228    8.6767   -0.0988 H   0  0  0  0  0  0  0  0  0  0  0  0
   -0.9458    8.6305    3.3681 H   0  0  0  0  0  0  0  0  0  0  0  0
    4.0735    2.2329    1.8893 H   0  0  0  0  0  0  0  0  0  0  0  0
    5.9073    5.2497    2.5255 H   0  0  0  0  0  0  0  0  0  0  0  0
    6.9602    6.0761   -1.5542 H   0  0  0  0  0  0  0  0  0  0  0  0
    5.4140    4.3114   -2.3980 H   0  0  0  0  0  0  0  0  0  0  0  0
  1  2  1  0  0  0  0
  1 33  1  0  0  0  0
  1 34  1  0  0  0  0
  1 35  1  0  0  0  0
  2 11  2  0  0  0  0
  2  3  1  0  0  0  0
  3  4  2  0  0  0  0
  3 36  1  0  0  0  0
  4  5  1  0  0  0  0
  4 37  1  0  0  0  0
  5  6  1  0  0  0  0
  5 10  2  0  0  0  0
  6  7  1  0  0  0  0
  6  8  1  0  0  0  0
  6  9  1  0  0  0  0
 10 11  1  0  0  0  0
 10 38  1  0  0  0  0
 11 12  1  0  0  0  0
 12 13  1  0  0  0  0
 12 39  1  0  0  0  0
 12 40  1  0  0  0  0
 13 32  1  0  0  0  0
 13 14  1  0  0  0  0
 14 15  1  0  0  0  0
 14 24  2  0  0  0  0
 15 16  2  0  0  0  0
 15 17  1  0  0  0  0
 17 18  1  0  0  0  0
 17 41  1  0  0  0  0
 18 19  1  0  0  0  0
 18 42  1  0  0  0  0
 18 43  1  0  0  0  0
 19 20  1  0  0  0  0
 19 44  1  0  0  0  0
 19 45  1  0  0  0  0
 20 21  1  0  0  0  0
 20 22  1  0  0  0  0
 20 23  1  0  0  0  0
 21 46  1  0  0  0  0
 21 47  1  0  0  0  0
 21 48  1  0  0  0  0
 22 49  1  0  0  0  0
 22 50  1  0  0  0  0
 22 51  1  0  0  0  0
 23 52  1  0  0  0  0
 24 25  1  0  0  0  0
 24 53  1  0  0  0  0
 25 32  2  0  0  0  0
 25 26  1  0  0  0  0
 26 27  2  0  0  0  0
 26 54  1  0  0  0  0
 27 28  1  0  0  0  0
 27 30  1  0  0  0  0
 28 29  3  0  0  0  0
 30 31  2  0  0  0  0
 30 55  1  0  0  0  0
 31 32  1  0  0  0  0
 31 56  1  0  0  0  0
M  END
$$$$
CHEMBL1760659
 OpenBabel12022417453D

 55 58  0  0  0  0  0  0  0  0999 V2000
    6.3411    2.6587    4.3957 C   0  0  0  0  0  0  0  0  0  0  0  0
    5.3913    1.7569    3.8442 O   0  0  0  0  0  0  0  0  0  0  0  0
    5.5650    0.4288    4.1121 C   0  0  0  0  0  0  0  0  0  0  0  0
    6.2599   -0.0329    5.2420 C   0  0  0  0  0  0  0  0  0  0  0  0
    6.3919   -1.3989    5.4957 C   0  0  0  0  0  0  0  0  0  0  0  0
    5.8058   -2.3130    4.6332 C   0  0  0  0  0  0  0  0  0  0  0  0
    5.1103   -1.8694    3.5088 C   0  0  0  0  0  0  0  0  0  0  0  0
    4.9797   -0.4898    3.2215 C   0  0  0  0  0  0  0  0  0  0  0  0
    4.3712   -0.1310    1.8768 C   0  0  0  0  0  0  0  0  0  0  0  0
    3.6154    1.1225    1.7703 N   0  0  0  0  0  0  0  0  0  0  0  0
    4.0772    2.3139    1.1997 C   0  0  0  0  0  0  0  0  0  0  0  0
    5.4459    2.5995    0.7949 C   0  0  0  0  0  0  0  0  0  0  0  0
    6.3420    1.7592    0.7552 O   0  0  0  0  0  0  0  0  0  0  0  0
    5.6895    3.9178    0.4331 N   0  0  0  0  0  0  0  0  0  0  0  0
    7.0074    4.3273   -0.0095 C   0  0  0  0  0  0  0  0  0  0  0  0
    6.9992    5.7402   -0.6120 C   0  0  0  0  0  0  0  0  0  0  0  0
    8.3660    6.0160   -1.2742 C   0  0  0  0  0  0  0  0  0  0  0  0
    9.4094    5.8870   -0.3133 O   0  0  0  0  0  0  0  0  0  0  0  0
    5.8100    6.1091   -1.5635 C   0  0  0  0  0  0  0  0  0  0  0  0
    5.8102    7.5210   -0.9464 C   0  0  0  0  0  0  0  0  0  0  0  0
    6.5278    6.9316    0.2858 C   0  0  0  0  0  0  0  0  0  0  0  0
    2.9564    3.1267    1.0687 C   0  0  0  0  0  0  0  0  0  0  0  0
    1.8175    2.4419    1.5531 C   0  0  0  0  0  0  0  0  0  0  0  0
    0.4497    2.7722    1.6114 C   0  0  0  0  0  0  0  0  0  0  0  0
   -0.4601    1.8433    2.1326 C   0  0  0  0  0  0  0  0  0  0  0  0
   -1.8595    2.1575    2.1492 C   0  0  0  0  0  0  0  0  0  0  0  0
   -2.9903    2.4148    2.1489 N   0  0  0  0  0  0  0  0  0  0  0  0
   -0.0098    0.6151    2.6170 C   0  0  0  0  0  0  0  0  0  0  0  0
    1.3489    0.2744    2.5747 C   0  0  0  0  0  0  0  0  0  0  0  0
    2.2476    1.2042    2.0182 C   0  0  0  0  0  0  0  0  0  0  0  0
    5.9575   -3.9986    4.9417 Cl  0  0  0  0  0  0  0  0  0  0  0  0
    6.1768    3.6366    3.9334 H   0  0  0  0  0  0  0  0  0  0  0  0
    7.3656    2.3469    4.1676 H   0  0  0  0  0  0  0  0  0  0  0  0
    6.1911    2.7744    5.4736 H   0  0  0  0  0  0  0  0  0  0  0  0
    6.7146    0.6548    5.9482 H   0  0  0  0  0  0  0  0  0  0  0  0
    6.9520   -1.7358    6.3639 H   0  0  0  0  0  0  0  0  0  0  0  0
    4.6874   -2.6092    2.8310 H   0  0  0  0  0  0  0  0  0  0  0  0
    3.6612   -0.9191    1.5865 H   0  0  0  0  0  0  0  0  0  0  0  0
    5.1407   -0.1541    1.1028 H   0  0  0  0  0  0  0  0  0  0  0  0
    5.0162    4.6126    0.7147 H   0  0  0  0  0  0  0  0  0  0  0  0
    7.3480    3.5974   -0.7527 H   0  0  0  0  0  0  0  0  0  0  0  0
    7.6778    4.2682    0.8553 H   0  0  0  0  0  0  0  0  0  0  0  0
    8.4309    7.0165   -1.7147 H   0  0  0  0  0  0  0  0  0  0  0  0
    8.5564    5.2926   -2.0740 H   0  0  0  0  0  0  0  0  0  0  0  0
    9.4087    6.6866    0.2400 H   0  0  0  0  0  0  0  0  0  0  0  0
    4.8695    5.5775   -1.3806 H   0  0  0  0  0  0  0  0  0  0  0  0
    6.0156    6.0688   -2.6373 H   0  0  0  0  0  0  0  0  0  0  0  0
    4.8259    7.9572   -0.7563 H   0  0  0  0  0  0  0  0  0  0  0  0
    6.4081    8.2478   -1.5086 H   0  0  0  0  0  0  0  0  0  0  0  0
    7.3124    7.5717    0.7017 H   0  0  0  0  0  0  0  0  0  0  0  0
    5.8428    6.6637    1.0969 H   0  0  0  0  0  0  0  0  0  0  0  0
    2.9414    4.1130    0.6264 H   0  0  0  0  0  0  0  0  0  0  0  0
    0.1073    3.7315    1.2321 H   0  0  0  0  0  0  0  0  0  0  0  0
   -0.7179   -0.1028    3.0282 H   0  0  0  0  0  0  0  0  0  0  0  0
    1.6833   -0.6860    2.9513 H   0  0  0  0  0  0  0  0  0  0  0  0
  1  2  1  0  0  0  0
  1 32  1  0  0  0  0
  1 33  1  0  0  0  0
  1 34  1  0  0  0  0
  2  3  1  0  0  0  0
  3  8  2  0  0  0  0
  3  4  1  0  0  0  0
  4  5  2  0  0  0  0
  4 35  1  0  0  0  0
  5  6  1  0  0  0  0
  5 36  1  0  0  0  0
  6  7  2  0  0  0  0
  6 31  1  0  0  0  0
  7  8  1  0  0  0  0
  7 37  1  0  0  0  0
  8  9  1  0  0  0  0
  9 10  1  0  0  0  0
  9 38  1  0  0  0  0
  9 39  1  0  0  0  0
 10 30  1  0  0  0  0
 10 11  1  0  0  0  0
 11 12  1  0  0  0  0
 11 22  2  0  0  0  0
 12 13  2  0  0  0  0
 12 14  1  0  0  0  0
 14 15  1  0  0  0  0
 14 40  1  0  0  0  0
 15 16  1  0  0  0  0
 15 41  1  0  0  0  0
 15 42  1  0  0  0  0
 16 21  1  0  0  0  0
 16 17  1  0  0  0  0
 16 19  1  0  0  0  0
 17 18  1  0  0  0  0
 17 43  1  0  0  0  0
 17 44  1  0  0  0  0
 18 45  1  0  0  0  0
 19 20  1  0  0  0  0
 19 46  1  0  0  0  0
 19 47  1  0  0  0  0
 20 21  1  0  0  0  0
 20 48  1  0  0  0  0
 20 49  1  0  0  0  0
 21 50  1  0  0  0  0
 21 51  1  0  0  0  0
 22 23  1  0  0  0  0
 22 52  1  0  0  0  0
 23 30  2  0  0  0  0
 23 24  1  0  0  0  0
 24 25  2  0  0  0  0
 24 53  1  0  0  0  0
 25 26  1  0  0  0  0
 25 28  1  0  0  0  0
 26 27  3  0  0  0  0
 28 29  2  0  0  0  0
 28 54  1  0  0  0  0
 29 30  1  0  0  0  0
 29 55  1  0  0  0  0
M  END
$$$$
CHEMBL4549096
 OpenBabel12022417453D

 57 60  0  0  0  0  0  0  0  0999 V2000
    4.5076    2.5129    1.2307 C   0  0  0  0  0  0  0  0  0  0  0  0
    4.2983    1.1813    0.5244 C   0  0  0  0  0  0  0  0  0  0  0  0
    5.1045    1.1005   -0.7775 C   0  0  0  0  0  0  0  0  0  0  0  0
    4.9235   -0.2503   -1.4721 C   0  0  0  0  0  0  0  0  0  0  0  0
    5.6643   -0.3561   -2.8160 C   0  0  0  0  0  0  0  0  0  0  0  0
    7.1258   -0.4060   -2.7543 N   0  0  0  0  0  0  0  0  0  0  0  0
    7.9907    0.6205   -3.0916 C   0  0  0  0  0  0  0  0  0  0  0  0
    9.3182    0.1907   -3.0531 C   0  0  0  0  0  0  0  0  0  0  0  0
    9.1921   -1.2296   -2.6605 C   0  0  0  0  0  0  0  0  0  0  0  0
   10.1213   -2.2792   -2.4421 C   0  0  0  0  0  0  0  0  0  0  0  0
    9.6859   -3.5753   -2.1152 C   0  0  0  0  0  0  0  0  0  0  0  0
    8.3329   -3.8598   -1.9997 C   0  0  0  0  0  0  0  0  0  0  0  0
    7.3897   -2.8534   -2.1914 C   0  0  0  0  0  0  0  0  0  0  0  0
    7.8416   -1.5544   -2.5119 C   0  0  0  0  0  0  0  0  0  0  0  0
   10.6506    0.8750   -3.3526 C   0  0  0  0  0  0  0  0  0  0  0  0
   11.6609    0.1744   -3.2917 O   0  0  0  0  0  0  0  0  0  0  0  0
   10.8982    2.3728   -3.6969 C   0  0  0  0  0  0  0  0  0  0  0  0
    9.8101    3.2414   -3.7250 C   0  0  0  0  0  0  0  0  0  0  0  0
    9.9423    4.6174   -3.9218 C   0  0  0  0  0  0  0  0  0  0  0  0
   11.1886    5.2166   -4.1097 C   0  0  0  0  0  0  0  0  0  0  0  0
   12.3395    4.3917   -4.1940 C   0  0  0  0  0  0  0  0  0  0  0  0
   13.6130    4.9505   -4.4855 C   0  0  0  0  0  0  0  0  0  0  0  0
   14.7648    4.1860   -4.6502 C   0  0  0  0  0  0  0  0  0  0  0  0
   14.6753    2.8301   -4.4654 C   0  0  0  0  0  0  0  0  0  0  0  0
   13.4440    2.2348   -4.1246 C   0  0  0  0  0  0  0  0  0  0  0  0
   12.2168    2.9587   -3.9900 C   0  0  0  0  0  0  0  0  0  0  0  0
   11.1960    6.7290   -4.2590 C   0  0  0  0  0  0  0  0  0  0  0  0
   12.0326    7.3018   -4.9551 O   0  0  0  0  0  0  0  0  0  0  0  0
   10.0861    7.5295   -3.5813 C   0  0  0  0  0  0  0  0  0  0  0  0
   10.4784    8.9672   -3.2720 C   0  0  0  0  0  0  0  0  0  0  0  0
    3.9465    2.5385    2.1707 H   0  0  0  0  0  0  0  0  0  0  0  0
    4.1639    3.3459    0.6091 H   0  0  0  0  0  0  0  0  0  0  0  0
    5.5652    2.6711    1.4643 H   0  0  0  0  0  0  0  0  0  0  0  0
    3.2293    1.0525    0.3155 H   0  0  0  0  0  0  0  0  0  0  0  0
    4.5946    0.3696    1.1991 H   0  0  0  0  0  0  0  0  0  0  0  0
    6.1650    1.2600   -0.5574 H   0  0  0  0  0  0  0  0  0  0  0  0
    4.7827    1.9032   -1.4518 H   0  0  0  0  0  0  0  0  0  0  0  0
    3.8515   -0.3999   -1.6637 H   0  0  0  0  0  0  0  0  0  0  0  0
    5.2314   -1.0582   -0.7976 H   0  0  0  0  0  0  0  0  0  0  0  0
    5.3792    0.4629   -3.4852 H   0  0  0  0  0  0  0  0  0  0  0  0
    5.3412   -1.2812   -3.3121 H   0  0  0  0  0  0  0  0  0  0  0  0
    7.5239    1.5574   -3.3396 H   0  0  0  0  0  0  0  0  0  0  0  0
   11.1865   -2.0953   -2.5360 H   0  0  0  0  0  0  0  0  0  0  0  0
   10.4154   -4.3655   -1.9589 H   0  0  0  0  0  0  0  0  0  0  0  0
    8.0048   -4.8670   -1.7590 H   0  0  0  0  0  0  0  0  0  0  0  0
    6.3320   -3.0828   -2.0988 H   0  0  0  0  0  0  0  0  0  0  0  0
    8.8032    2.8964   -3.6013 H   0  0  0  0  0  0  0  0  0  0  0  0
    9.0294    5.2053   -3.9409 H   0  0  0  0  0  0  0  0  0  0  0  0
   13.7536    6.0209   -4.6303 H   0  0  0  0  0  0  0  0  0  0  0  0
   15.7012    4.6586   -4.9240 H   0  0  0  0  0  0  0  0  0  0  0  0
   15.5644    2.2103   -4.5919 H   0  0  0  0  0  0  0  0  0  0  0  0
   13.4755    1.1551   -3.9938 H   0  0  0  0  0  0  0  0  0  0  0  0
    9.7941    7.0460   -2.6433 H   0  0  0  0  0  0  0  0  0  0  0  0
    9.2282    7.5376   -4.2619 H   0  0  0  0  0  0  0  0  0  0  0  0
   11.2966    9.0053   -2.5456 H   0  0  0  0  0  0  0  0  0  0  0  0
    9.6241    9.5072   -2.8494 H   0  0  0  0  0  0  0  0  0  0  0  0
   10.8009    9.5025   -4.1710 H   0  0  0  0  0  0  0  0  0  0  0  0
  1  2  1  0  0  0  0
  1 31  1  0  0  0  0
  1 32  1  0  0  0  0
  1 33  1  0  0  0  0
  2  3  1  0  0  0  0
  2 34  1  0  0  0  0
  2 35  1  0  0  0  0
  3  4  1  0  0  0  0
  3 36  1  0  0  0  0
  3 37  1  0  0  0  0
  4  5  1  0  0  0  0
  4 38  1  0  0  0  0
  4 39  1  0  0  0  0
  5  6  1  0  0  0  0
  5 40  1  0  0  0  0
  5 41  1  0  0  0  0
  6 14  1  0  0  0  0
  6  7  1  0  0  0  0
  7  8  2  0  0  0  0
  7 42  1  0  0  0  0
  8  9  1  0  0  0  0
  8 15  1  0  0  0  0
  9 14  2  0  0  0  0
  9 10  1  0  0  0  0
 10 11  2  0  0  0  0
 10 43  1  0  0  0  0
 11 12  1  0  0  0  0
 11 44  1  0  0  0  0
 12 13  2  0  0  0  0
 12 45  1  0  0  0  0
 13 14  1  0  0  0  0
 13 46  1  0  0  0  0
 15 16  2  0  0  0  0
 15 17  1  0  0  0  0
 17 26  2  0  0  0  0
 17 18  1  0  0  0  0
 18 19  2  0  0  0  0
 18 47  1  0  0  0  0
 19 20  1  0  0  0  0
 19 48  1  0  0  0  0
 20 21  2  0  0  0  0
 20 27  1  0  0  0  0
 21 26  1  0  0  0  0
 21 22  1  0  0  0  0
 22 23  2  0  0  0  0
 22 49  1  0  0  0  0
 23 24  1  0  0  0  0
 23 50  1  0  0  0  0
 24 25  2  0  0  0  0
 24 51  1  0  0  0  0
 25 26  1  0  0  0  0
 25 52  1  0  0  0  0
 27 28  2  0  0  0  0
 27 29  1  0  0  0  0
 29 30  1  0  0  0  0
 29 53  1  0  0  0  0
 29 54  1  0  0  0  0
 30 55  1  0  0  0  0
 30 56  1  0  0  0  0
 30 57  1  0  0  0  0
M  END
$$$$
CHEMBL4069848
 OpenBabel12022417453D

 47 49  0  0  0  0  0  0  0  0999 V2000
    0.9060    0.5081   -0.5074 C   0  0  0  0  0  0  0  0  0  0  0  0
    2.4253    0.5155   -0.4864 C   0  0  0  0  0  0  0  0  0  0  0  0
    2.9630    1.2987    0.7112 C   0  0  0  0  0  0  0  0  0  0  0  0
    4.4914    1.3023    0.7218 C   0  0  0  0  0  0  0  0  0  0  0  0
    5.0448    2.1170    1.8926 C   0  0  0  0  0  0  0  0  0  0  0  0
    6.5023    2.1238    1.9320 N   0  0  0  0  0  0  0  0  0  0  0  0
    7.2937    2.6216    0.9285 C   0  0  0  0  0  0  0  0  0  0  0  0
    8.6232    2.3935    1.2390 C   0  0  0  0  0  0  0  0  0  0  0  0
    8.6222    1.8559    2.5801 C   0  0  0  0  0  0  0  0  0  0  0  0
    7.2888    1.6281    2.9515 C   0  0  0  0  0  0  0  0  0  0  0  0
    6.9535    0.9973    4.1648 C   0  0  0  0  0  0  0  0  0  0  0  0
    7.9862    0.5826    5.0111 C   0  0  0  0  0  0  0  0  0  0  0  0
    9.3121    0.8264    4.6842 C   0  0  0  0  0  0  0  0  0  0  0  0
    9.6352    1.4831    3.4940 C   0  0  0  0  0  0  0  0  0  0  0  0
    9.7383    2.6322    0.2962 C   0  0  0  0  0  0  0  0  0  0  0  0
    9.6409    3.4656   -0.6098 O   0  0  0  0  0  0  0  0  0  0  0  0
   10.9522    1.7459    0.3824 C   0  0  0  0  0  0  0  0  0  0  0  0
   10.7624    0.4093    0.8031 C   0  0  0  0  0  0  0  0  0  0  0  0
   11.8413   -0.4189    1.0989 C   0  0  0  0  0  0  0  0  0  0  0  0
   13.1289    0.0313    0.8679 C   0  0  0  0  0  0  0  0  0  0  0  0
   13.3329    1.2999    0.3233 C   0  0  0  0  0  0  0  0  0  0  0  0
   12.2597    2.1729    0.0765 C   0  0  0  0  0  0  0  0  0  0  0  0
   12.4616    3.4514   -0.3806 O   0  0  0  0  0  0  0  0  0  0  0  0
   13.6427    3.6620   -1.1603 C   0  0  0  0  0  0  0  0  0  0  0  0
    0.5413   -0.0570   -1.3708 H   0  0  0  0  0  0  0  0  0  0  0  0
    0.5108    1.5266   -0.5756 H   0  0  0  0  0  0  0  0  0  0  0  0
    0.5048    0.0429    0.3985 H   0  0  0  0  0  0  0  0  0  0  0  0
    2.7955    0.9591   -1.4183 H   0  0  0  0  0  0  0  0  0  0  0  0
    2.7911   -0.5173   -0.4517 H   0  0  0  0  0  0  0  0  0  0  0  0
    2.5873    0.8559    1.6415 H   0  0  0  0  0  0  0  0  0  0  0  0
    2.5928    2.3304    0.6705 H   0  0  0  0  0  0  0  0  0  0  0  0
    4.8540    1.7167   -0.2263 H   0  0  0  0  0  0  0  0  0  0  0  0
    4.8648    0.2722    0.7789 H   0  0  0  0  0  0  0  0  0  0  0  0
    4.6673    1.7125    2.8367 H   0  0  0  0  0  0  0  0  0  0  0  0
    4.7245    3.1638    1.8340 H   0  0  0  0  0  0  0  0  0  0  0  0
    6.8561    3.0409    0.0302 H   0  0  0  0  0  0  0  0  0  0  0  0
    5.9221    0.8133    4.4486 H   0  0  0  0  0  0  0  0  0  0  0  0
    7.7478    0.0707    5.9410 H   0  0  0  0  0  0  0  0  0  0  0  0
   10.1084    0.4984    5.3483 H   0  0  0  0  0  0  0  0  0  0  0  0
   10.6818    1.6701    3.2663 H   0  0  0  0  0  0  0  0  0  0  0  0
    9.7618    0.0149    0.9672 H   0  0  0  0  0  0  0  0  0  0  0  0
   11.6680   -1.4018    1.5296 H   0  0  0  0  0  0  0  0  0  0  0  0
   13.9810   -0.6005    1.1059 H   0  0  0  0  0  0  0  0  0  0  0  0
   14.3620    1.5885    0.1393 H   0  0  0  0  0  0  0  0  0  0  0  0
   13.6618    4.7059   -1.4855 H   0  0  0  0  0  0  0  0  0  0  0  0
   13.6408    3.0265   -2.0533 H   0  0  0  0  0  0  0  0  0  0  0  0
   14.5554    3.5055   -0.5756 H   0  0  0  0  0  0  0  0  0  0  0  0
  1  2  1  0  0  0  0
  1 25  1  0  0  0  0
  1 26  1  0  0  0  0
  1 27  1  0  0  0  0
  2  3  1  0  0  0  0
  2 28  1  0  0  0  0
  2 29  1  0  0  0  0
  3  4  1  0  0  0  0
  3 30  1  0  0  0  0
  3 31  1  0  0  0  0
  4  5  1  0  0  0  0
  4 32  1  0  0  0  0
  4 33  1  0  0  0  0
  5  6  1  0  0  0  0
  5 34  1  0  0  0  0
  5 35  1  0  0  0  0
  6 10  1  0  0  0  0
  6  7  1  0  0  0  0
  7  8  2  0  0  0  0
  7 36  1  0  0  0  0
  8  9  1  0  0  0  0
  8 15  1  0  0  0  0
  9 14  2  0  0  0  0
  9 10  1  0  0  0  0
 10 11  2  0  0  0  0
 11 12  1  0  0  0  0
 11 37  1  0  0  0  0
 12 13  2  0  0  0  0
 12 38  1  0  0  0  0
 13 14  1  0  0  0  0
 13 39  1  0  0  0  0
 14 40  1  0  0  0  0
 15 16  2  0  0  0  0
 15 17  1  0  0  0  0
 17 22  2  0  0  0  0
 17 18  1  0  0  0  0
 18 19  2  0  0  0  0
 18 41  1  0  0  0  0
 19 20  1  0  0  0  0
 19 42  1  0  0  0  0
 20 21  2  0  0  0  0
 20 43  1  0  0  0  0
 21 22  1  0  0  0  0
 21 44  1  0  0  0  0
 22 23  1  0  0  0  0
 23 24  1  0  0  0  0
 24 45  1  0  0  0  0
 24 46  1  0  0  0  0
 24 47  1  0  0  0  0
M  END
$$$$
CHEMBL1760651
 OpenBabel12022417453D

 57 59  0  0  0  0  0  0  0  0999 V2000
    3.7378   -0.6703   -3.1887 C   0  0  0  0  0  0  0  0  0  0  0  0
    3.6378   -1.4424   -1.9867 O   0  0  0  0  0  0  0  0  0  0  0  0
    2.3610   -1.7848   -1.5757 C   0  0  0  0  0  0  0  0  0  0  0  0
    1.2920   -1.7537   -2.4806 C   0  0  0  0  0  0  0  0  0  0  0  0
    0.0316   -2.1382   -2.0702 C   0  0  0  0  0  0  0  0  0  0  0  0
   -0.1715   -2.5816   -0.7596 C   0  0  0  0  0  0  0  0  0  0  0  0
   -1.5559   -3.0334   -0.3923 C   0  0  0  0  0  0  0  0  0  0  0  0
    0.9069   -2.6426    0.1638 C   0  0  0  0  0  0  0  0  0  0  0  0
    2.1868   -2.2181   -0.2074 C   0  0  0  0  0  0  0  0  0  0  0  0
    3.4447   -2.3314    0.6433 C   0  0  0  0  0  0  0  0  0  0  0  0
    3.7579   -2.1406    2.0938 N   0  0  0  0  0  0  0  0  0  0  0  0
    5.1731   -1.9197    2.2643 C   0  0  0  0  0  0  0  0  0  0  0  0
    6.0973   -3.0678    2.2067 C   0  0  0  0  0  0  0  0  0  0  0  0
    5.9333   -4.0463    1.4867 O   0  0  0  0  0  0  0  0  0  0  0  0
    7.1065   -2.9811    3.1280 N   0  0  0  0  0  0  0  0  0  0  0  0
    8.0327   -4.0491    3.4193 C   0  0  0  0  0  0  0  0  0  0  0  0
    9.4293   -3.4810    3.7464 C   0  0  0  0  0  0  0  0  0  0  0  0
    9.8846   -2.5587    2.5962 C   0  0  0  0  0  0  0  0  0  0  0  0
    9.3924   -2.6624    5.0550 C   0  0  0  0  0  0  0  0  0  0  0  0
   10.3929   -4.6730    3.9057 C   0  0  0  0  0  0  0  0  0  0  0  0
   11.7211   -4.2502    4.1850 O   0  0  0  0  0  0  0  0  0  0  0  0
    5.0490   -0.8952    3.2109 C   0  0  0  0  0  0  0  0  0  0  0  0
    4.4347   -1.7449    4.1818 C   0  0  0  0  0  0  0  0  0  0  0  0
    4.8953   -2.1253    5.4648 C   0  0  0  0  0  0  0  0  0  0  0  0
    4.4189   -3.2984    6.0402 C   0  0  0  0  0  0  0  0  0  0  0  0
    5.1085   -3.8421    7.1982 C   0  0  0  0  0  0  0  0  0  0  0  0
    5.7010   -4.2736    8.1093 N   0  0  0  0  0  0  0  0  0  0  0  0
    3.3724   -3.9760    5.3999 C   0  0  0  0  0  0  0  0  0  0  0  0
    2.8708   -3.6138    4.1023 C   0  0  0  0  0  0  0  0  0  0  0  0
    3.5169   -2.5594    3.4276 C   0  0  0  0  0  0  0  0  0  0  0  0
    4.7810   -0.3676   -3.3213 H   0  0  0  0  0  0  0  0  0  0  0  0
    3.1330    0.2417   -3.1207 H   0  0  0  0  0  0  0  0  0  0  0  0
    3.4618   -1.2563   -4.0734 H   0  0  0  0  0  0  0  0  0  0  0  0
    1.4062   -1.4540   -3.5187 H   0  0  0  0  0  0  0  0  0  0  0  0
   -0.7861   -2.1011   -2.7883 H   0  0  0  0  0  0  0  0  0  0  0  0
   -2.2857   -2.7087   -1.1456 H   0  0  0  0  0  0  0  0  0  0  0  0
   -1.8589   -2.5938    0.5603 H   0  0  0  0  0  0  0  0  0  0  0  0
   -1.5954   -4.1246   -0.3399 H   0  0  0  0  0  0  0  0  0  0  0  0
    0.7324   -3.0404    1.1596 H   0  0  0  0  0  0  0  0  0  0  0  0
    3.9388   -1.3984    0.3127 H   0  0  0  0  0  0  0  0  0  0  0  0
    4.0569   -3.1553    0.2706 H   0  0  0  0  0  0  0  0  0  0  0  0
    7.0527   -2.2186    3.7854 H   0  0  0  0  0  0  0  0  0  0  0  0
    8.0758   -4.7338    2.5647 H   0  0  0  0  0  0  0  0  0  0  0  0
    7.6269   -4.6146    4.2683 H   0  0  0  0  0  0  0  0  0  0  0  0
    9.2009   -1.7113    2.4640 H   0  0  0  0  0  0  0  0  0  0  0  0
    9.9145   -3.1065    1.6478 H   0  0  0  0  0  0  0  0  0  0  0  0
   10.8744   -2.1326    2.7806 H   0  0  0  0  0  0  0  0  0  0  0  0
    8.7606   -1.7720    4.9637 H   0  0  0  0  0  0  0  0  0  0  0  0
   10.3912   -2.3130    5.3367 H   0  0  0  0  0  0  0  0  0  0  0  0
    8.9999   -3.2612    5.8849 H   0  0  0  0  0  0  0  0  0  0  0  0
   10.4144   -5.2914    3.0013 H   0  0  0  0  0  0  0  0  0  0  0  0
   10.0729   -5.3152    4.7341 H   0  0  0  0  0  0  0  0  0  0  0  0
   12.0779   -3.8451    3.3764 H   0  0  0  0  0  0  0  0  0  0  0  0
    4.5535    0.0372    2.9363 H   0  0  0  0  0  0  0  0  0  0  0  0
    5.7469   -1.5974    5.8980 H   0  0  0  0  0  0  0  0  0  0  0  0
    2.9758   -4.8722    5.8812 H   0  0  0  0  0  0  0  0  0  0  0  0
    2.1428   -4.2543    3.6184 H   0  0  0  0  0  0  0  0  0  0  0  0
  1  2  1  0  0  0  0
  1 31  1  0  0  0  0
  1 32  1  0  0  0  0
  1 33  1  0  0  0  0
  2  3  1  0  0  0  0
  3  9  2  0  0  0  0
  3  4  1  0  0  0  0
  4  5  2  0  0  0  0
  4 34  1  0  0  0  0
  5  6  1  0  0  0  0
  5 35  1  0  0  0  0
  6  7  1  0  0  0  0
  6  8  2  0  0  0  0
  7 36  1  0  0  0  0
  7 37  1  0  0  0  0
  7 38  1  0  0  0  0
  8  9  1  0  0  0  0
  8 39  1  0  0  0  0
  9 10  1  0  0  0  0
 10 11  1  0  0  0  0
 10 40  1  0  0  0  0
 10 41  1  0  0  0  0
 11 30  1  0  0  0  0
 11 12  1  0  0  0  0
 12 13  1  0  0  0  0
 12 22  2  0  0  0  0
 13 14  2  0  0  0  0
 13 15  1  0  0  0  0
 15 16  1  0  0  0  0
 15 42  1  0  0  0  0
 16 17  1  0  0  0  0
 16 43  1  0  0  0  0
 16 44  1  0  0  0  0
 17 18  1  0  0  0  0
 17 19  1  0  0  0  0
 17 20  1  0  0  0  0
 18 45  1  0  0  0  0
 18 46  1  0  0  0  0
 18 47  1  0  0  0  0
 19 48  1  0  0  0  0
 19 49  1  0  0  0  0
 19 50  1  0  0  0  0
 20 21  1  0  0  0  0
 20 51  1  0  0  0  0
 20 52  1  0  0  0  0
 21 53  1  0  0  0  0
 22 23  1  0  0  0  0
 22 54  1  0  0  0  0
 23 30  2  0  0  0  0
 23 24  1  0  0  0  0
 24 25  2  0  0  0  0
 24 55  1  0  0  0  0
 25 26  1  0  0  0  0
 25 28  1  0  0  0  0
 26 27  3  0  0  0  0
 28 29  2  0  0  0  0
 28 56  1  0  0  0  0
 29 30  1  0  0  0  0
 29 57  1  0  0  0  0
M  END
$$$$
CHEMBL1760653
 OpenBabel12022417453D

 53 55  0  0  0  0  0  0  0  0999 V2000
    3.5007    5.0519   -1.7623 C   0  0  0  0  0  0  0  0  0  0  0  0
    2.0393    4.8226   -1.4932 C   0  0  0  0  0  0  0  0  0  0  0  0
    1.2148    5.9125   -1.8509 C   0  0  0  0  0  0  0  0  0  0  0  0
   -0.1708    5.8453   -1.7720 C   0  0  0  0  0  0  0  0  0  0  0  0
   -0.7626    4.6732   -1.3375 C   0  0  0  0  0  0  0  0  0  0  0  0
    0.0294    3.6096   -0.9025 C   0  0  0  0  0  0  0  0  0  0  0  0
    1.4479    3.6787   -0.9119 C   0  0  0  0  0  0  0  0  0  0  0  0
    2.1225    2.5032   -0.2226 C   0  0  0  0  0  0  0  0  0  0  0  0
    3.5851    2.4955   -0.1518 N   0  0  0  0  0  0  0  0  0  0  0  0
    4.3901    2.9275    0.9079 C   0  0  0  0  0  0  0  0  0  0  0  0
    3.9751    3.6184    2.1336 C   0  0  0  0  0  0  0  0  0  0  0  0
    2.8108    3.8734    2.4255 O   0  0  0  0  0  0  0  0  0  0  0  0
    5.0211    3.9658    2.9756 N   0  0  0  0  0  0  0  0  0  0  0  0
    4.8394    4.6626    4.2469 C   0  0  0  0  0  0  0  0  0  0  0  0
    6.1638    4.8834    5.0359 C   0  0  0  0  0  0  0  0  0  0  0  0
    7.1411    5.7406    4.2045 C   0  0  0  0  0  0  0  0  0  0  0  0
    5.8612    5.6356    6.3523 C   0  0  0  0  0  0  0  0  0  0  0  0
    6.8258    3.5329    5.3918 C   0  0  0  0  0  0  0  0  0  0  0  0
    7.1481    2.7763    4.2286 O   0  0  0  0  0  0  0  0  0  0  0  0
    5.6758    2.5125    0.5797 C   0  0  0  0  0  0  0  0  0  0  0  0
    5.6631    1.8308   -0.6600 C   0  0  0  0  0  0  0  0  0  0  0  0
    6.6521    1.1693   -1.4136 C   0  0  0  0  0  0  0  0  0  0  0  0
    6.2988    0.5398   -2.6146 C   0  0  0  0  0  0  0  0  0  0  0  0
    7.2820   -0.2215   -3.3413 C   0  0  0  0  0  0  0  0  0  0  0  0
    8.0605   -0.8478   -3.9156 N   0  0  0  0  0  0  0  0  0  0  0  0
    4.9880    0.6124   -3.0864 C   0  0  0  0  0  0  0  0  0  0  0  0
    3.9994    1.2846   -2.3613 C   0  0  0  0  0  0  0  0  0  0  0  0
    4.3552    1.8517   -1.1229 C   0  0  0  0  0  0  0  0  0  0  0  0
   -2.4768    4.5458   -1.3060 Cl  0  0  0  0  0  0  0  0  0  0  0  0
    4.0365    4.1476   -2.0270 H   0  0  0  0  0  0  0  0  0  0  0  0
    3.9781    5.5572   -0.9203 H   0  0  0  0  0  0  0  0  0  0  0  0
    3.6186    5.6842   -2.6541 H   0  0  0  0  0  0  0  0  0  0  0  0
    1.6698    6.8373   -2.2039 H   0  0  0  0  0  0  0  0  0  0  0  0
   -0.7681    6.7027   -2.0630 H   0  0  0  0  0  0  0  0  0  0  0  0
   -0.4692    2.7182   -0.5219 H   0  0  0  0  0  0  0  0  0  0  0  0
    1.8254    1.5692   -0.7270 H   0  0  0  0  0  0  0  0  0  0  0  0
    1.7462    2.4039    0.7997 H   0  0  0  0  0  0  0  0  0  0  0  0
    5.9194    4.0939    2.5258 H   0  0  0  0  0  0  0  0  0  0  0  0
    4.1348    4.0766    4.8500 H   0  0  0  0  0  0  0  0  0  0  0  0
    4.3592    5.6205    4.0209 H   0  0  0  0  0  0  0  0  0  0  0  0
    6.6886    6.6990    3.9263 H   0  0  0  0  0  0  0  0  0  0  0  0
    7.4440    5.2375    3.2819 H   0  0  0  0  0  0  0  0  0  0  0  0
    8.0586    5.9546    4.7645 H   0  0  0  0  0  0  0  0  0  0  0  0
    5.4197    6.6210    6.1624 H   0  0  0  0  0  0  0  0  0  0  0  0
    6.7750    5.7971    6.9390 H   0  0  0  0  0  0  0  0  0  0  0  0
    5.1639    5.0737    6.9826 H   0  0  0  0  0  0  0  0  0  0  0  0
    6.1698    2.9229    6.0233 H   0  0  0  0  0  0  0  0  0  0  0  0
    7.7592    3.6910    5.9429 H   0  0  0  0  0  0  0  0  0  0  0  0
    6.2960    2.4993    3.8397 H   0  0  0  0  0  0  0  0  0  0  0  0
    6.5540    2.6445    1.1960 H   0  0  0  0  0  0  0  0  0  0  0  0
    7.6698    1.1118   -1.0324 H   0  0  0  0  0  0  0  0  0  0  0  0
    4.7106    0.1149   -4.0156 H   0  0  0  0  0  0  0  0  0  0  0  0
    2.9840    1.3365   -2.7454 H   0  0  0  0  0  0  0  0  0  0  0  0
  1  2  1  0  0  0  0
  1 30  1  0  0  0  0
  1 31  1  0  0  0  0
  1 32  1  0  0  0  0
  2  7  2  0  0  0  0
  2  3  1  0  0  0  0
  3  4  2  0  0  0  0
  3 33  1  0  0  0  0
  4  5  1  0  0  0  0
  4 34  1  0  0  0  0
  5  6  2  0  0  0  0
  5 29  1  0  0  0  0
  6  7  1  0  0  0  0
  6 35  1  0  0  0  0
  7  8  1  0  0  0  0
  8  9  1  0  0  0  0
  8 36  1  0  0  0  0
  8 37  1  0  0  0  0
  9 28  1  0  0  0  0
  9 10  1  0  0  0  0
 10 11  1  0  0  0  0
 10 20  2  0  0  0  0
 11 12  2  0  0  0  0
 11 13  1  0  0  0  0
 13 14  1  0  0  0  0
 13 38  1  0  0  0  0
 14 15  1  0  0  0  0
 14 39  1  0  0  0  0
 14 40  1  0  0  0  0
 15 16  1  0  0  0  0
 15 17  1  0  0  0  0
 15 18  1  0  0  0  0
 16 41  1  0  0  0  0
 16 42  1  0  0  0  0
 16 43  1  0  0  0  0
 17 44  1  0  0  0  0
 17 45  1  0  0  0  0
 17 46  1  0  0  0  0
 18 19  1  0  0  0  0
 18 47  1  0  0  0  0
 18 48  1  0  0  0  0
 19 49  1  0  0  0  0
 20 21  1  0  0  0  0
 20 50  1  0  0  0  0
 21 28  2  0  0  0  0
 21 22  1  0  0  0  0
 22 23  2  0  0  0  0
 22 51  1  0  0  0  0
 23 24  1  0  0  0  0
 23 26  1  0  0  0  0
 24 25  3  0  0  0  0
 26 27  2  0  0  0  0
 26 52  1  0  0  0  0
 27 28  1  0  0  0  0
 27 53  1  0  0  0  0
M  END
$$$$
CHEMBL1760655
 OpenBabel12022417453D

 60 62  0  0  0  0  0  0  0  0999 V2000
    7.6727    1.6117    6.9591 C   0  0  0  0  0  0  0  0  0  0  0  0
    6.4894    1.0788    7.7559 C   0  0  0  0  0  0  0  0  0  0  0  0
    5.7392   -0.0254    6.9950 C   0  0  0  0  0  0  0  0  0  0  0  0
    4.6507   -0.4936    7.7999 O   0  0  0  0  0  0  0  0  0  0  0  0
    3.8245   -1.4479    7.2617 C   0  0  0  0  0  0  0  0  0  0  0  0
    2.5025   -1.3907    7.6935 C   0  0  0  0  0  0  0  0  0  0  0  0
    1.5598   -2.3203    7.2364 C   0  0  0  0  0  0  0  0  0  0  0  0
    1.9239   -3.3358    6.3458 C   0  0  0  0  0  0  0  0  0  0  0  0
    3.2416   -3.4378    5.9082 C   0  0  0  0  0  0  0  0  0  0  0  0
    3.6572   -4.3534    4.7824 C   0  0  0  0  0  0  0  0  0  0  0  0
    3.2460   -5.7741    4.6426 N   0  0  0  0  0  0  0  0  0  0  0  0
    4.0476   -6.5132    3.7458 C   0  0  0  0  0  0  0  0  0  0  0  0
    4.9638   -7.4802    4.3091 C   0  0  0  0  0  0  0  0  0  0  0  0
    5.5102   -7.3042    5.3895 O   0  0  0  0  0  0  0  0  0  0  0  0
    5.0280   -8.6769    3.6378 N   0  0  0  0  0  0  0  0  0  0  0  0
    5.6815   -9.8295    4.2392 C   0  0  0  0  0  0  0  0  0  0  0  0
    5.2525  -11.1966    3.6513 C   0  0  0  0  0  0  0  0  0  0  0  0
    3.7590  -11.4550    3.9316 C   0  0  0  0  0  0  0  0  0  0  0  0
    5.4961  -11.2260    2.1326 C   0  0  0  0  0  0  0  0  0  0  0  0
    6.1103  -12.2945    4.3287 C   0  0  0  0  0  0  0  0  0  0  0  0
    5.8404  -13.5893    3.8032 O   0  0  0  0  0  0  0  0  0  0  0  0
    3.2661   -6.4111    2.5900 C   0  0  0  0  0  0  0  0  0  0  0  0
    2.0173   -6.8677    3.1335 C   0  0  0  0  0  0  0  0  0  0  0  0
    1.0247   -7.7697    2.6546 C   0  0  0  0  0  0  0  0  0  0  0  0
    0.2473   -8.4871    3.5827 C   0  0  0  0  0  0  0  0  0  0  0  0
   -0.6149   -9.5655    3.1393 C   0  0  0  0  0  0  0  0  0  0  0  0
   -1.2691  -10.4598    2.7771 N   0  0  0  0  0  0  0  0  0  0  0  0
    0.4061   -8.2089    4.9459 C   0  0  0  0  0  0  0  0  0  0  0  0
    1.2602   -7.1775    5.4258 C   0  0  0  0  0  0  0  0  0  0  0  0
    2.0484   -6.4799    4.4944 C   0  0  0  0  0  0  0  0  0  0  0  0
    4.1889   -2.4688    6.3768 C   0  0  0  0  0  0  0  0  0  0  0  0
    8.2244    2.3619    7.5363 H   0  0  0  0  0  0  0  0  0  0  0  0
    7.3388    2.0826    6.0289 H   0  0  0  0  0  0  0  0  0  0  0  0
    8.3689    0.8060    6.7050 H   0  0  0  0  0  0  0  0  0  0  0  0
    5.8083    1.9043    7.9984 H   0  0  0  0  0  0  0  0  0  0  0  0
    6.8430    0.6918    8.7196 H   0  0  0  0  0  0  0  0  0  0  0  0
    6.4377   -0.8408    6.7860 H   0  0  0  0  0  0  0  0  0  0  0  0
    5.3502    0.3847    6.0560 H   0  0  0  0  0  0  0  0  0  0  0  0
    2.1942   -0.6022    8.3757 H   0  0  0  0  0  0  0  0  0  0  0  0
    0.5259   -2.2334    7.5628 H   0  0  0  0  0  0  0  0  0  0  0  0
    1.1586   -4.0139    5.9748 H   0  0  0  0  0  0  0  0  0  0  0  0
    4.7542   -4.4340    4.8622 H   0  0  0  0  0  0  0  0  0  0  0  0
    3.4450   -3.8575    3.8275 H   0  0  0  0  0  0  0  0  0  0  0  0
    4.5658   -8.7553    2.7441 H   0  0  0  0  0  0  0  0  0  0  0  0
    5.4887   -9.8188    5.3214 H   0  0  0  0  0  0  0  0  0  0  0  0
    6.7574   -9.6715    4.1088 H   0  0  0  0  0  0  0  0  0  0  0  0
    3.1247  -10.6883    3.4745 H   0  0  0  0  0  0  0  0  0  0  0  0
    3.5544  -11.4582    5.0086 H   0  0  0  0  0  0  0  0  0  0  0  0
    3.4341  -12.4214    3.5304 H   0  0  0  0  0  0  0  0  0  0  0  0
    4.8944  -10.4769    1.6085 H   0  0  0  0  0  0  0  0  0  0  0  0
    5.2357  -12.1982    1.7020 H   0  0  0  0  0  0  0  0  0  0  0  0
    6.5494  -11.0272    1.9056 H   0  0  0  0  0  0  0  0  0  0  0  0
    5.9479  -12.3251    5.4123 H   0  0  0  0  0  0  0  0  0  0  0  0
    7.1761  -12.1004    4.1641 H   0  0  0  0  0  0  0  0  0  0  0  0
    4.9705  -13.8731    4.1319 H   0  0  0  0  0  0  0  0  0  0  0  0
    3.5900   -6.5751    1.5684 H   0  0  0  0  0  0  0  0  0  0  0  0
    1.0127   -8.0528    1.6034 H   0  0  0  0  0  0  0  0  0  0  0  0
   -0.0891   -8.8421    5.6861 H   0  0  0  0  0  0  0  0  0  0  0  0
    1.4435   -7.0684    6.4945 H   0  0  0  0  0  0  0  0  0  0  0  0
    5.2164   -2.5289    6.0262 H   0  0  0  0  0  0  0  0  0  0  0  0
  1  2  1  0  0  0  0
  1 32  1  0  0  0  0
  1 33  1  0  0  0  0
  1 34  1  0  0  0  0
  2  3  1  0  0  0  0
  2 35  1  0  0  0  0
  2 36  1  0  0  0  0
  3  4  1  0  0  0  0
  3 37  1  0  0  0  0
  3 38  1  0  0  0  0
  4  5  1  0  0  0  0
  5 31  2  0  0  0  0
  5  6  1  0  0  0  0
  6  7  2  0  0  0  0
  6 39  1  0  0  0  0
  7  8  1  0  0  0  0
  7 40  1  0  0  0  0
  8  9  2  0  0  0  0
  8 41  1  0  0  0  0
  9 10  1  0  0  0  0
  9 31  1  0  0  0  0
 10 11  1  0  0  0  0
 10 42  1  0  0  0  0
 10 43  1  0  0  0  0
 11 30  1  0  0  0  0
 11 12  1  0  0  0  0
 12 13  1  0  0  0  0
 12 22  2  0  0  0  0
 13 14  2  0  0  0  0
 13 15  1  0  0  0  0
 15 16  1  0  0  0  0
 15 44  1  0  0  0  0
 16 17  1  0  0  0  0
 16 45  1  0  0  0  0
 16 46  1  0  0  0  0
 17 18  1  0  0  0  0
 17 19  1  0  0  0  0
 17 20  1  0  0  0  0
 18 47  1  0  0  0  0
 18 48  1  0  0  0  0
 18 49  1  0  0  0  0
 19 50  1  0  0  0  0
 19 51  1  0  0  0  0
 19 52  1  0  0  0  0
 20 21  1  0  0  0  0
 20 53  1  0  0  0  0
 20 54  1  0  0  0  0
 21 55  1  0  0  0  0
 22 23  1  0  0  0  0
 22 56  1  0  0  0  0
 23 30  2  0  0  0  0
 23 24  1  0  0  0  0
 24 25  2  0  0  0  0
 24 57  1  0  0  0  0
 25 26  1  0  0  0  0
 25 28  1  0  0  0  0
 26 27  3  0  0  0  0
 28 29  2  0  0  0  0
 28 58  1  0  0  0  0
 29 30  1  0  0  0  0
 29 59  1  0  0  0  0
 31 60  1  0  0  0  0
M  END
$$$$
CHEMBL1760652
 OpenBabel12022417453D

 56 58  0  0  0  0  0  0  0  0999 V2000
    0.0840    2.7437   -3.1008 C   0  0  0  0  0  0  0  0  0  0  0  0
    1.1167    1.6353   -3.1112 C   0  0  0  0  0  0  0  0  0  0  0  0
    0.7859    0.5736   -3.9783 C   0  0  0  0  0  0  0  0  0  0  0  0
    1.5784   -0.5555   -4.0552 C   0  0  0  0  0  0  0  0  0  0  0  0
    2.7277   -0.6537   -3.2630 C   0  0  0  0  0  0  0  0  0  0  0  0
    3.5694   -1.9061   -3.3803 C   0  0  0  0  0  0  0  0  0  0  0  0
    3.0982   -2.7947   -4.3051 F   0  0  0  0  0  0  0  0  0  0  0  0
    4.8502   -1.6380   -3.7516 F   0  0  0  0  0  0  0  0  0  0  0  0
    3.6469   -2.6016   -2.2132 F   0  0  0  0  0  0  0  0  0  0  0  0
    3.0580    0.3963   -2.3555 C   0  0  0  0  0  0  0  0  0  0  0  0
    2.2724    1.5638   -2.2564 C   0  0  0  0  0  0  0  0  0  0  0  0
    2.3470    2.5279   -1.0779 C   0  0  0  0  0  0  0  0  0  0  0  0
    3.4689    3.0517   -0.2509 N   0  0  0  0  0  0  0  0  0  0  0  0
    2.9727    3.7310    0.9254 C   0  0  0  0  0  0  0  0  0  0  0  0
    2.3566    5.0718    0.7915 C   0  0  0  0  0  0  0  0  0  0  0  0
    1.6917    5.4302   -0.1745 O   0  0  0  0  0  0  0  0  0  0  0  0
    2.6947    5.9194    1.8158 N   0  0  0  0  0  0  0  0  0  0  0  0
    2.4325    7.3429    1.8158 C   0  0  0  0  0  0  0  0  0  0  0  0
    2.1049    7.8434    3.2398 C   0  0  0  0  0  0  0  0  0  0  0  0
    0.9528    6.9989    3.8213 C   0  0  0  0  0  0  0  0  0  0  0  0
    3.3364    7.7106    4.1610 C   0  0  0  0  0  0  0  0  0  0  0  0
    1.6939    9.3269    3.1411 C   0  0  0  0  0  0  0  0  0  0  0  0
    1.3478    9.8689    4.4096 O   0  0  0  0  0  0  0  0  0  0  0  0
    3.9860    3.2974    1.7899 C   0  0  0  0  0  0  0  0  0  0  0  0
    5.0318    3.9548    1.0565 C   0  0  0  0  0  0  0  0  0  0  0  0
    5.9092    4.9773    1.4661 C   0  0  0  0  0  0  0  0  0  0  0  0
    6.5214    5.7855    0.4871 C   0  0  0  0  0  0  0  0  0  0  0  0
    7.1837    7.0053    0.8798 C   0  0  0  0  0  0  0  0  0  0  0  0
    7.6362    8.0097    1.2599 N   0  0  0  0  0  0  0  0  0  0  0  0
    6.3571    5.4369   -0.8643 C   0  0  0  0  0  0  0  0  0  0  0  0
    5.4785    4.4026   -1.2981 C   0  0  0  0  0  0  0  0  0  0  0  0
    4.7022    3.7417   -0.3239 C   0  0  0  0  0  0  0  0  0  0  0  0
    0.4293    3.6776   -2.6615 H   0  0  0  0  0  0  0  0  0  0  0  0
   -0.8170    2.4097   -2.5733 H   0  0  0  0  0  0  0  0  0  0  0  0
   -0.1958    2.9913   -4.1326 H   0  0  0  0  0  0  0  0  0  0  0  0
   -0.1246    0.6159   -4.5780 H   0  0  0  0  0  0  0  0  0  0  0  0
    1.2812   -1.3627   -4.7258 H   0  0  0  0  0  0  0  0  0  0  0  0
    3.9022    0.2500   -1.6828 H   0  0  0  0  0  0  0  0  0  0  0  0
    1.8161    1.9290   -0.3143 H   0  0  0  0  0  0  0  0  0  0  0  0
    1.7168    3.3890   -1.2619 H   0  0  0  0  0  0  0  0  0  0  0  0
    3.3677    5.5736    2.4825 H   0  0  0  0  0  0  0  0  0  0  0  0
    1.6121    7.5617    1.1227 H   0  0  0  0  0  0  0  0  0  0  0  0
    3.3289    7.8401    1.4223 H   0  0  0  0  0  0  0  0  0  0  0  0
    1.2215    5.9376    3.8821 H   0  0  0  0  0  0  0  0  0  0  0  0
    0.0596    7.0764    3.1914 H   0  0  0  0  0  0  0  0  0  0  0  0
    0.6879    7.3108    4.8352 H   0  0  0  0  0  0  0  0  0  0  0  0
    3.6320    6.6653    4.3017 H   0  0  0  0  0  0  0  0  0  0  0  0
    3.1372    8.1203    5.1570 H   0  0  0  0  0  0  0  0  0  0  0  0
    4.1990    8.2451    3.7466 H   0  0  0  0  0  0  0  0  0  0  0  0
    0.8392    9.4608    2.4687 H   0  0  0  0  0  0  0  0  0  0  0  0
    2.5202    9.9279    2.7449 H   0  0  0  0  0  0  0  0  0  0  0  0
    0.5022    9.4731    4.6809 H   0  0  0  0  0  0  0  0  0  0  0  0
    4.0758    2.2330    2.0157 H   0  0  0  0  0  0  0  0  0  0  0  0
    5.9646    5.2537    2.5204 H   0  0  0  0  0  0  0  0  0  0  0  0
    6.8573    6.0463   -1.6132 H   0  0  0  0  0  0  0  0  0  0  0  0
    5.3068    4.2462   -2.3634 H   0  0  0  0  0  0  0  0  0  0  0  0
  1  2  1  0  0  0  0
  1 33  1  0  0  0  0
  1 34  1  0  0  0  0
  1 35  1  0  0  0  0
  2 11  2  0  0  0  0
  2  3  1  0  0  0  0
  3  4  2  0  0  0  0
  3 36  1  0  0  0  0
  4  5  1  0  0  0  0
  4 37  1  0  0  0  0
  5  6  1  0  0  0  0
  5 10  2  0  0  0  0
  6  7  1  0  0  0  0
  6  8  1  0  0  0  0
  6  9  1  0  0  0  0
 10 11  1  0  0  0  0
 10 38  1  0  0  0  0
 11 12  1  0  0  0  0
 12 13  1  0  0  0  0
 12 39  1  0  0  0  0
 12 40  1  0  0  0  0
 13 32  1  0  0  0  0
 13 14  1  0  0  0  0
 14 15  1  0  0  0  0
 14 24  2  0  0  0  0
 15 16  2  0  0  0  0
 15 17  1  0  0  0  0
 17 18  1  0  0  0  0
 17 41  1  0  0  0  0
 18 19  1  0  0  0  0
 18 42  1  0  0  0  0
 18 43  1  0  0  0  0
 19 20  1  0  0  0  0
 19 21  1  0  0  0  0
 19 22  1  0  0  0  0
 20 44  1  0  0  0  0
 20 45  1  0  0  0  0
 20 46  1  0  0  0  0
 21 47  1  0  0  0  0
 21 48  1  0  0  0  0
 21 49  1  0  0  0  0
 22 23  1  0  0  0  0
 22 50  1  0  0  0  0
 22 51  1  0  0  0  0
 23 52  1  0  0  0  0
 24 25  1  0  0  0  0
 24 53  1  0  0  0  0
 25 32  2  0  0  0  0
 25 26  1  0  0  0  0
 26 27  2  0  0  0  0
 26 54  1  0  0  0  0
 27 28  1  0  0  0  0
 27 30  1  0  0  0  0
 28 29  3  0  0  0  0
 30 31  2  0  0  0  0
 30 55  1  0  0  0  0
 31 32  1  0  0  0  0
 31 56  1  0  0  0  0
M  END
$$$$
CHEMBL2022360
 OpenBabel12022417453D

 51 54  0  0  0  0  0  0  0  0999 V2000
   -2.4561   -0.7275   -0.0462 C   0  0  0  0  0  0  0  0  0  0  0  0
   -2.4663    0.6707   -0.1017 C   0  0  0  0  0  0  0  0  0  0  0  0
   -1.2770    1.3895   -0.0670 C   0  0  0  0  0  0  0  0  0  0  0  0
   -0.0392    0.7269    0.0054 C   0  0  0  0  0  0  0  0  0  0  0  0
   -0.0401   -0.6772    0.0471 C   0  0  0  0  0  0  0  0  0  0  0  0
   -1.2392   -1.3938    0.0358 C   0  0  0  0  0  0  0  0  0  0  0  0
    1.2237   -1.4010   -0.0118 C   0  0  0  0  0  0  0  0  0  0  0  0
    2.3894   -0.7478    0.0751 C   0  0  0  0  0  0  0  0  0  0  0  0
    2.3867    0.7181    0.3742 C   0  0  0  0  0  0  0  0  0  0  0  0
    3.4115    1.2420    0.8225 O   0  0  0  0  0  0  0  0  0  0  0  0
    1.2047    1.4189    0.0958 N   0  0  0  0  0  0  0  0  0  0  0  0
    1.2404    2.8820    0.0416 C   0  0  0  0  0  0  0  0  0  0  0  0
    1.3829    3.4889   -1.3474 C   0  0  0  0  0  0  0  0  0  0  0  0
    2.2342    2.9281   -2.3063 C   0  0  0  0  0  0  0  0  0  0  0  0
    2.5885    3.6436   -3.4515 C   0  0  0  0  0  0  0  0  0  0  0  0
    2.0610    4.9159   -3.6730 C   0  0  0  0  0  0  0  0  0  0  0  0
    1.1432    5.4520   -2.7762 C   0  0  0  0  0  0  0  0  0  0  0  0
    0.8035    4.7461   -1.6192 C   0  0  0  0  0  0  0  0  0  0  0  0
    3.6379   -1.5457   -0.1801 C   0  0  0  0  0  0  0  0  0  0  0  0
    3.6068   -2.6018   -0.7949 O   0  0  0  0  0  0  0  0  0  0  0  0
    4.8030   -0.9909    0.3034 N   0  0  0  0  0  0  0  0  0  0  0  0
    6.1384   -1.5488    0.0891 C   0  0  0  0  0  0  0  0  0  0  0  0
    6.7093   -1.0808   -1.2580 C   0  0  0  0  0  0  0  0  0  0  0  0
    8.1812   -1.4499   -1.4547 C   0  0  0  0  0  0  0  0  0  0  0  0
    9.0426   -0.9743   -0.2896 C   0  0  0  0  0  0  0  0  0  0  0  0
    8.5261   -1.5436    1.0239 C   0  0  0  0  0  0  0  0  0  0  0  0
    7.0661   -1.1618    1.2582 C   0  0  0  0  0  0  0  0  0  0  0  0
   -3.3822   -1.2783   -0.0839 H   0  0  0  0  0  0  0  0  0  0  0  0
   -3.4177    1.1983   -0.1726 H   0  0  0  0  0  0  0  0  0  0  0  0
   -1.3567    2.4712   -0.0902 H   0  0  0  0  0  0  0  0  0  0  0  0
   -1.2365   -2.4829    0.0676 H   0  0  0  0  0  0  0  0  0  0  0  0
    1.1861   -2.4714   -0.2063 H   0  0  0  0  0  0  0  0  0  0  0  0
    2.0781    3.2531    0.6443 H   0  0  0  0  0  0  0  0  0  0  0  0
    0.3475    3.2901    0.5140 H   0  0  0  0  0  0  0  0  0  0  0  0
    2.6876    1.9539   -2.1406 H   0  0  0  0  0  0  0  0  0  0  0  0
    3.3208    3.2302   -4.1407 H   0  0  0  0  0  0  0  0  0  0  0  0
    2.3921    5.4972   -4.5312 H   0  0  0  0  0  0  0  0  0  0  0  0
    0.7331    6.4456   -2.9506 H   0  0  0  0  0  0  0  0  0  0  0  0
    0.1323    5.2138   -0.9035 H   0  0  0  0  0  0  0  0  0  0  0  0
    4.7320   -0.0671    0.7261 H   0  0  0  0  0  0  0  0  0  0  0  0
    6.0383   -2.6410    0.0698 H   0  0  0  0  0  0  0  0  0  0  0  0
    6.6078    0.0096   -1.3414 H   0  0  0  0  0  0  0  0  0  0  0  0
    6.1207   -1.5069   -2.0797 H   0  0  0  0  0  0  0  0  0  0  0  0
    8.5507   -1.0042   -2.3844 H   0  0  0  0  0  0  0  0  0  0  0  0
    8.2772   -2.5368   -1.5585 H   0  0  0  0  0  0  0  0  0  0  0  0
    9.0347    0.1221   -0.2447 H   0  0  0  0  0  0  0  0  0  0  0  0
   10.0835   -1.2807   -0.4433 H   0  0  0  0  0  0  0  0  0  0  0  0
    9.1399   -1.1739    1.8530 H   0  0  0  0  0  0  0  0  0  0  0  0
    8.6246   -2.6359    1.0156 H   0  0  0  0  0  0  0  0  0  0  0  0
    6.7293   -1.6483    2.1797 H   0  0  0  0  0  0  0  0  0  0  0  0
    7.0092   -0.0805    1.4359 H   0  0  0  0  0  0  0  0  0  0  0  0
  1  6  2  0  0  0  0
  1  2  1  0  0  0  0
  1 28  1  0  0  0  0
  2  3  2  0  0  0  0
  2 29  1  0  0  0  0
  3  4  1  0  0  0  0
  3 30  1  0  0  0  0
  4 11  1  0  0  0  0
  4  5  2  0  0  0  0
  5  6  1  0  0  0  0
  5  7  1  0  0  0  0
  6 31  1  0  0  0  0
  7  8  2  0  0  0  0
  7 32  1  0  0  0  0
  8  9  1  0  0  0  0
  8 19  1  0  0  0  0
  9 10  2  0  0  0  0
  9 11  1  0  0  0  0
 11 12  1  0  0  0  0
 12 13  1  0  0  0  0
 12 33  1  0  0  0  0
 12 34  1  0  0  0  0
 13 18  2  0  0  0  0
 13 14  1  0  0  0  0
 14 15  2  0  0  0  0
 14 35  1  0  0  0  0
 15 16  1  0  0  0  0
 15 36  1  0  0  0  0
 16 17  2  0  0  0  0
 16 37  1  0  0  0  0
 17 18  1  0  0  0  0
 17 38  1  0  0  0  0
 18 39  1  0  0  0  0
 19 20  2  0  0  0  0
 19 21  1  0  0  0  0
 21 22  1  0  0  0  0
 21 40  1  0  0  0  0
 22 27  1  0  0  0  0
 22 23  1  0  0  0  0
 22 41  1  0  0  0  0
 23 24  1  0  0  0  0
 23 42  1  0  0  0  0
 23 43  1  0  0  0  0
 24 25  1  0  0  0  0
 24 44  1  0  0  0  0
 24 45  1  0  0  0  0
 25 26  1  0  0  0  0
 25 46  1  0  0  0  0
 25 47  1  0  0  0  0
 26 27  1  0  0  0  0
 26 48  1  0  0  0  0
 26 49  1  0  0  0  0
 27 50  1  0  0  0  0
 27 51  1  0  0  0  0
M  END
$$$$
CHEMBL1760665
 OpenBabel12022417453D

 51 53  0  0  1  0  0  0  0  0999 V2000
    3.2416    2.6434    3.3286 C   0  0  0  0  0  0  0  0  0  0  0  0
    2.4793    1.4133    3.8016 C   0  0  2  0  0  0  0  0  0  0  0  0
    0.9700    1.5409    3.5868 C   0  0  0  0  0  0  0  0  0  0  0  0
    0.2518    0.2594    4.0129 C   0  0  0  0  0  0  0  0  0  0  0  0
   -1.1742    0.3410    3.7867 N   0  0  0  0  0  0  0  0  0  0  0  0
   -1.7432   -0.0124    2.5852 C   0  0  0  0  0  0  0  0  0  0  0  0
   -1.0734   -0.4062    1.6330 O   0  0  0  0  0  0  0  0  0  0  0  0
   -3.1906    0.0829    2.5648 C   0  0  0  0  0  0  0  0  0  0  0  0
   -4.0012    0.9561    3.2729 C   0  0  0  0  0  0  0  0  0  0  0  0
   -5.3521    0.7105    2.9320 C   0  0  0  0  0  0  0  0  0  0  0  0
   -6.5655    1.3164    3.3166 C   0  0  0  0  0  0  0  0  0  0  0  0
   -7.7749    0.8269    2.8078 C   0  0  0  0  0  0  0  0  0  0  0  0
   -9.0078    1.4734    3.1666 C   0  0  0  0  0  0  0  0  0  0  0  0
   -9.9989    2.0034    3.4530 N   0  0  0  0  0  0  0  0  0  0  0  0
   -7.7760   -0.2773    1.9564 C   0  0  0  0  0  0  0  0  0  0  0  0
   -6.5780   -0.8972    1.5653 C   0  0  0  0  0  0  0  0  0  0  0  0
   -5.3655   -0.3653    2.0424 C   0  0  0  0  0  0  0  0  0  0  0  0
   -4.0370   -0.6911    1.7794 N   0  0  0  0  0  0  0  0  0  0  0  0
   -3.5887   -1.7895    0.9145 C   0  0  0  0  0  0  0  0  0  0  0  0
   -3.2890   -1.4086   -0.5224 C   0  0  0  0  0  0  0  0  0  0  0  0
   -4.0735   -0.4953   -1.2398 C   0  0  0  0  0  0  0  0  0  0  0  0
   -3.8805   -0.3186   -2.6103 C   0  0  0  0  0  0  0  0  0  0  0  0
   -2.8916   -1.0371   -3.2772 C   0  0  0  0  0  0  0  0  0  0  0  0
   -2.0524   -1.9022   -2.5766 C   0  0  0  0  0  0  0  0  0  0  0  0
   -2.2694   -2.1041   -1.2113 C   0  0  0  0  0  0  0  0  0  0  0  0
   -1.1395   -2.5554   -3.3478 O   0  0  0  0  0  0  0  0  0  0  0  0
    0.1268   -2.9036   -2.8064 C   0  0  0  0  0  0  0  0  0  0  0  0
    0.3394   -2.4707   -1.5486 F   0  0  0  0  0  0  0  0  0  0  0  0
    0.2599   -4.2488   -2.8289 F   0  0  0  0  0  0  0  0  0  0  0  0
    1.0905   -2.3778   -3.5972 F   0  0  0  0  0  0  0  0  0  0  0  0
    2.7449    1.2129    5.1890 O   0  0  0  0  0  0  0  0  0  0  0  0
    4.3052    2.5463    3.5735 H   0  0  0  0  0  0  0  0  0  0  0  0
    2.8855    3.5486    3.8323 H   0  0  0  0  0  0  0  0  0  0  0  0
    3.1439    2.7824    2.2478 H   0  0  0  0  0  0  0  0  0  0  0  0
    2.8562    0.5349    3.2662 H   0  0  0  0  0  0  0  0  0  0  0  0
    0.5747    2.3786    4.1762 H   0  0  0  0  0  0  0  0  0  0  0  0
    0.7563    1.7604    2.5337 H   0  0  0  0  0  0  0  0  0  0  0  0
    0.3906    0.0722    5.0829 H   0  0  0  0  0  0  0  0  0  0  0  0
    0.6490   -0.6013    3.4639 H   0  0  0  0  0  0  0  0  0  0  0  0
   -1.7795    0.4869    4.5819 H   0  0  0  0  0  0  0  0  0  0  0  0
   -3.6539    1.7216    3.9550 H   0  0  0  0  0  0  0  0  0  0  0  0
   -6.5508    2.1670    3.9940 H   0  0  0  0  0  0  0  0  0  0  0  0
   -8.7195   -0.6648    1.5730 H   0  0  0  0  0  0  0  0  0  0  0  0
   -6.6038   -1.7520    0.8950 H   0  0  0  0  0  0  0  0  0  0  0  0
   -4.3660   -2.5612    0.9213 H   0  0  0  0  0  0  0  0  0  0  0  0
   -2.7115   -2.2393    1.3934 H   0  0  0  0  0  0  0  0  0  0  0  0
   -4.8614    0.0734   -0.7526 H   0  0  0  0  0  0  0  0  0  0  0  0
   -4.5170    0.3685   -3.1639 H   0  0  0  0  0  0  0  0  0  0  0  0
   -2.7758   -0.9182   -4.3523 H   0  0  0  0  0  0  0  0  0  0  0  0
   -1.6697   -2.8231   -0.6577 H   0  0  0  0  0  0  0  0  0  0  0  0
    2.5416    2.0418    5.6561 H   0  0  0  0  0  0  0  0  0  0  0  0
  1 32  1  0  0  0  0
  1 33  1  0  0  0  0
  1 34  1  0  0  0  0
  2 31  1  0  0  0  0
  2  3  1  0  0  0  0
  2  1  1  0  0  0  0
  2 35  1  6  0  0  0
  3  4  1  0  0  0  0
  3 36  1  0  0  0  0
  3 37  1  0  0  0  0
  4  5  1  0  0  0  0
  4 38  1  0  0  0  0
  4 39  1  0  0  0  0
  5  6  1  0  0  0  0
  5 40  1  0  0  0  0
  6  7  2  0  0  0  0
  6  8  1  0  0  0  0
  8 18  1  0  0  0  0
  8  9  2  0  0  0  0
  9 10  1  0  0  0  0
  9 41  1  0  0  0  0
 10 17  2  0  0  0  0
 10 11  1  0  0  0  0
 11 12  2  0  0  0  0
 11 42  1  0  0  0  0
 12 13  1  0  0  0  0
 12 15  1  0  0  0  0
 13 14  3  0  0  0  0
 15 16  2  0  0  0  0
 15 43  1  0  0  0  0
 16 17  1  0  0  0  0
 16 44  1  0  0  0  0
 17 18  1  0  0  0  0
 18 19  1  0  0  0  0
 19 20  1  0  0  0  0
 19 45  1  0  0  0  0
 19 46  1  0  0  0  0
 20 25  2  0  0  0  0
 20 21  1  0  0  0  0
 21 22  2  0  0  0  0
 21 47  1  0  0  0  0
 22 23  1  0  0  0  0
 22 48  1  0  0  0  0
 23 24  2  0  0  0  0
 23 49  1  0  0  0  0
 24 25  1  0  0  0  0
 24 26  1  0  0  0  0
 25 50  1  0  0  0  0
 26 27  1  0  0  0  0
 27 28  1  0  0  0  0
 27 29  1  0  0  0  0
 27 30  1  0  0  0  0
 31 51  1  0  0  0  0
M  END
$$$$
CHEMBL3928040
 OpenBabel12022417453D

 62 66  0  0  1  0  0  0  0  0999 V2000
    1.1032   -0.9051   -0.3354 C   0  0  1  0  0  0  0  0  0  0  0  0
    0.5826   -2.2762    0.0627 C   0  0  0  0  0  0  0  0  0  0  0  0
   -0.6460   -2.7178   -0.4354 C   0  0  0  0  0  0  0  0  0  0  0  0
   -1.1468   -3.9433   -0.0083 C   0  0  0  0  0  0  0  0  0  0  0  0
   -0.4142   -4.6943    0.9011 C   0  0  0  0  0  0  0  0  0  0  0  0
    0.7973   -4.1887    1.3450 C   0  0  0  0  0  0  0  0  0  0  0  0
    1.3102   -3.0016    0.9523 N   0  0  0  0  0  0  0  0  0  0  0  0
    0.5744    0.1522    0.6356 C   0  0  0  0  0  0  0  0  0  0  0  0
    2.5561   -0.8627   -0.4016 N   0  0  0  0  0  0  0  0  0  0  0  0
    3.1973    0.0604   -1.1930 C   0  0  0  0  0  0  0  0  0  0  0  0
    2.5655    0.8245   -1.9217 O   0  0  0  0  0  0  0  0  0  0  0  0
    4.6761    0.0586   -1.1456 C   0  0  0  0  0  0  0  0  0  0  0  0
    5.5284    0.8067   -2.0050 C   0  0  0  0  0  0  0  0  0  0  0  0
    6.8211    0.4319   -1.6672 C   0  0  0  0  0  0  0  0  0  0  0  0
    8.0221    0.8794   -2.3223 C   0  0  0  0  0  0  0  0  0  0  0  0
    9.0426    1.3802   -1.5910 C   0  0  0  0  0  0  0  0  0  0  0  0
   10.2797    1.9382   -2.1578 C   0  0  0  0  0  0  0  0  0  0  0  0
   11.3877    1.1114   -2.3936 C   0  0  0  0  0  0  0  0  0  0  0  0
   12.5614    1.6425   -2.9327 C   0  0  0  0  0  0  0  0  0  0  0  0
   12.6235    2.9989   -3.2404 C   0  0  0  0  0  0  0  0  0  0  0  0
   11.5318    3.8297   -3.0215 C   0  0  0  0  0  0  0  0  0  0  0  0
   10.3579    3.2996   -2.4797 C   0  0  0  0  0  0  0  0  0  0  0  0
   13.7506    3.5080   -3.7544 F   0  0  0  0  0  0  0  0  0  0  0  0
    8.0064    0.9485   -3.8439 C   0  0  0  0  0  0  0  0  0  0  0  0
    7.2998    2.2061   -4.3708 C   0  0  0  0  0  0  0  0  0  0  0  0
    6.1786    2.7810   -3.4932 C   0  0  0  0  0  0  0  0  0  0  0  0
    5.1094    1.7670   -3.0812 C   0  0  0  0  0  0  0  0  0  0  0  0
    6.7034   -0.5007   -0.6386 N   0  0  0  0  0  0  0  0  0  0  0  0
    7.7057   -1.2715    0.0315 C   0  0  0  0  0  0  0  0  0  0  0  0
    8.9207   -1.5974   -0.5823 C   0  0  0  0  0  0  0  0  0  0  0  0
    9.9221   -2.2600    0.1344 C   0  0  0  0  0  0  0  0  0  0  0  0
    9.7106   -2.6274    1.4644 C   0  0  0  0  0  0  0  0  0  0  0  0
    8.4769   -2.3616    2.0678 C   0  0  0  0  0  0  0  0  0  0  0  0
    7.4717   -1.7008    1.3482 C   0  0  0  0  0  0  0  0  0  0  0  0
    8.1440   -2.7960    3.7074 Cl  0  0  0  0  0  0  0  0  0  0  0  0
   11.0112   -3.4006    2.2979 Cl  0  0  0  0  0  0  0  0  0  0  0  0
    5.3942   -0.6659   -0.2677 N   0  0  0  0  0  0  0  0  0  0  0  0
    0.7245   -0.6747   -1.3399 H   0  0  0  0  0  0  0  0  0  0  0  0
   -1.2135   -2.1136   -1.1368 H   0  0  0  0  0  0  0  0  0  0  0  0
   -2.1033   -4.3041   -0.3767 H   0  0  0  0  0  0  0  0  0  0  0  0
   -0.7793   -5.6499    1.2595 H   0  0  0  0  0  0  0  0  0  0  0  0
    1.4041   -4.7411    2.0561 H   0  0  0  0  0  0  0  0  0  0  0  0
    0.9230   -0.0357    1.6575 H   0  0  0  0  0  0  0  0  0  0  0  0
   -0.5215    0.1607    0.6525 H   0  0  0  0  0  0  0  0  0  0  0  0
    0.9110    1.1546    0.3507 H   0  0  0  0  0  0  0  0  0  0  0  0
    3.1006   -1.4741    0.1995 H   0  0  0  0  0  0  0  0  0  0  0  0
    9.0019    1.4200   -0.5046 H   0  0  0  0  0  0  0  0  0  0  0  0
   11.3469    0.0505   -2.1613 H   0  0  0  0  0  0  0  0  0  0  0  0
   13.4240    1.0132   -3.1155 H   0  0  0  0  0  0  0  0  0  0  0  0
   11.6021    4.8832   -3.2732 H   0  0  0  0  0  0  0  0  0  0  0  0
    9.5052    3.9541   -2.3139 H   0  0  0  0  0  0  0  0  0  0  0  0
    7.4780    0.0609   -4.2213 H   0  0  0  0  0  0  0  0  0  0  0  0
    9.0093    0.8773   -4.2776 H   0  0  0  0  0  0  0  0  0  0  0  0
    6.8947    1.9842   -5.3664 H   0  0  0  0  0  0  0  0  0  0  0  0
    8.0453    2.9962   -4.5205 H   0  0  0  0  0  0  0  0  0  0  0  0
    5.6927    3.5872   -4.0570 H   0  0  0  0  0  0  0  0  0  0  0  0
    6.6073    3.2593   -2.6023 H   0  0  0  0  0  0  0  0  0  0  0  0
    4.2559    2.3486   -2.7151 H   0  0  0  0  0  0  0  0  0  0  0  0
    4.7675    1.2013   -3.9561 H   0  0  0  0  0  0  0  0  0  0  0  0
    9.1114   -1.3709   -1.6271 H   0  0  0  0  0  0  0  0  0  0  0  0
   10.8686   -2.4836   -0.3531 H   0  0  0  0  0  0  0  0  0  0  0  0
    6.5240   -1.4837    1.8398 H   0  0  0  0  0  0  0  0  0  0  0  0
  1  2  1  0  0  0  0
  1  8  1  0  0  0  0
  1  9  1  0  0  0  0
  1 38  1  6  0  0  0
  2  7  2  0  0  0  0
  2  3  1  0  0  0  0
  3  4  2  0  0  0  0
  3 39  1  0  0  0  0
  4  5  1  0  0  0  0
  4 40  1  0  0  0  0
  5  6  2  0  0  0  0
  5 41  1  0  0  0  0
  6  7  1  0  0  0  0
  6 42  1  0  0  0  0
  8 43  1  0  0  0  0
  8 44  1  0  0  0  0
  8 45  1  0  0  0  0
  9 10  1  0  0  0  0
  9 46  1  0  0  0  0
 10 11  2  0  0  0  0
 10 12  1  0  0  0  0
 12 37  2  0  0  0  0
 12 13  1  0  0  0  0
 13 27  1  0  0  0  0
 13 14  2  0  0  0  0
 14 15  1  0  0  0  0
 14 28  1  0  0  0  0
 15 16  2  0  0  0  0
 15 24  1  0  0  0  0
 16 17  1  0  0  0  0
 16 47  1  0  0  0  0
 17 22  2  0  0  0  0
 17 18  1  0  0  0  0
 18 19  2  0  0  0  0
 18 48  1  0  0  0  0
 19 20  1  0  0  0  0
 19 49  1  0  0  0  0
 20 21  2  0  0  0  0
 20 23  1  0  0  0  0
 21 22  1  0  0  0  0
 21 50  1  0  0  0  0
 22 51  1  0  0  0  0
 24 25  1  0  0  0  0
 24 52  1  0  0  0  0
 24 53  1  0  0  0  0
 25 26  1  0  0  0  0
 25 54  1  0  0  0  0
 25 55  1  0  0  0  0
 26 27  1  0  0  0  0
 26 56  1  0  0  0  0
 26 57  1  0  0  0  0
 27 58  1  0  0  0  0
 27 59  1  0  0  0  0
 28 29  1  0  0  0  0
 28 37  1  0  0  0  0
 29 34  2  0  0  0  0
 29 30  1  0  0  0  0
 30 31  2  0  0  0  0
 30 60  1  0  0  0  0
 31 32  1  0  0  0  0
 31 61  1  0  0  0  0
 32 33  2  0  0  0  0
 32 36  1  0  0  0  0
 33 34  1  0  0  0  0
 33 35  1  0  0  0  0
 34 62  1  0  0  0  0
M  END
$$$$
CHEMBL1760644
 OpenBabel12022417453D

 61 64  0  0  1  0  0  0  0  0999 V2000
    3.7116    1.0917    4.4646 C   0  0  0  0  0  0  0  0  0  0  0  0
    3.2137    1.5528    3.0959 C   0  0  2  0  0  0  0  0  0  0  0  0
    1.6745    1.7964    2.9987 C   0  0  0  0  0  0  0  0  0  0  0  0
    0.9367    0.4804    3.3664 C   0  0  0  0  0  0  0  0  0  0  0  0
   -0.5047    0.5105    3.3762 N   0  0  0  0  0  0  0  0  0  0  0  0
   -1.2376   -0.6200    3.0764 C   0  0  0  0  0  0  0  0  0  0  0  0
   -0.7109   -1.6447    2.6555 O   0  0  0  0  0  0  0  0  0  0  0  0
   -2.6629   -0.4878    3.3145 C   0  0  0  0  0  0  0  0  0  0  0  0
   -3.3062    0.3413    4.2193 C   0  0  0  0  0  0  0  0  0  0  0  0
   -4.7018    0.1576    4.1037 C   0  0  0  0  0  0  0  0  0  0  0  0
   -5.8014    0.7582    4.7469 C   0  0  0  0  0  0  0  0  0  0  0  0
   -7.1002    0.3526    4.4140 C   0  0  0  0  0  0  0  0  0  0  0  0
   -8.2197    0.9871    5.0431 C   0  0  0  0  0  0  0  0  0  0  0  0
   -9.1222    1.5139    5.5594 N   0  0  0  0  0  0  0  0  0  0  0  0
   -7.2952   -0.6598    3.4748 C   0  0  0  0  0  0  0  0  0  0  0  0
   -6.2093   -1.2796    2.8372 C   0  0  0  0  0  0  0  0  0  0  0  0
   -4.9094   -0.8397    3.1507 C   0  0  0  0  0  0  0  0  0  0  0  0
   -3.6587   -1.2014    2.6549 N   0  0  0  0  0  0  0  0  0  0  0  0
   -3.4299   -2.1663    1.5691 C   0  0  0  0  0  0  0  0  0  0  0  0
   -3.3214   -1.4972    0.2142 C   0  0  0  0  0  0  0  0  0  0  0  0
   -2.1129   -1.5048   -0.4992 C   0  0  0  0  0  0  0  0  0  0  0  0
   -2.0044   -0.8286   -1.7161 C   0  0  0  0  0  0  0  0  0  0  0  0
   -3.1081   -0.1603   -2.2432 C   0  0  0  0  0  0  0  0  0  0  0  0
   -4.3386   -0.2027   -1.5876 C   0  0  0  0  0  0  0  0  0  0  0  0
   -4.4332   -0.8507   -0.3559 C   0  0  0  0  0  0  0  0  0  0  0  0
   -5.3410    0.4806   -2.2041 O   0  0  0  0  0  0  0  0  0  0  0  0
   -6.6811    0.0283   -2.0713 C   0  0  0  0  0  0  0  0  0  0  0  0
   -6.8127   -1.1564   -1.4374 F   0  0  0  0  0  0  0  0  0  0  0  0
   -7.4025    0.9568   -1.4065 F   0  0  0  0  0  0  0  0  0  0  0  0
   -7.2099   -0.1078   -3.3085 F   0  0  0  0  0  0  0  0  0  0  0  0
    1.2485    2.9995    3.8631 C   0  0  0  0  0  0  0  0  0  0  0  0
    0.0216    3.6051    3.1851 C   0  0  0  0  0  0  0  0  0  0  0  0
    0.0922    3.1899    1.7203 C   0  0  0  0  0  0  0  0  0  0  0  0
    1.3180    2.2921    1.5794 C   0  0  0  0  0  0  0  0  0  0  0  0
    3.6404    0.6083    2.1118 O   0  0  0  0  0  0  0  0  0  0  0  0
    4.8049    1.0232    4.4603 H   0  0  0  0  0  0  0  0  0  0  0  0
    3.3549    0.0870    4.7135 H   0  0  0  0  0  0  0  0  0  0  0  0
    3.4132    1.7823    5.2581 H   0  0  0  0  0  0  0  0  0  0  0  0
    3.7357    2.4867    2.8552 H   0  0  0  0  0  0  0  0  0  0  0  0
    1.2083    0.1650    4.3791 H   0  0  0  0  0  0  0  0  0  0  0  0
    1.2552   -0.3158    2.6868 H   0  0  0  0  0  0  0  0  0  0  0  0
   -0.9635    1.2273    3.9135 H   0  0  0  0  0  0  0  0  0  0  0  0
   -2.8281    1.0173    4.9153 H   0  0  0  0  0  0  0  0  0  0  0  0
   -5.6373    1.5360    5.4889 H   0  0  0  0  0  0  0  0  0  0  0  0
   -8.3063   -0.9781    3.2234 H   0  0  0  0  0  0  0  0  0  0  0  0
   -6.3889   -2.0633    2.1091 H   0  0  0  0  0  0  0  0  0  0  0  0
   -4.2504   -2.8916    1.5708 H   0  0  0  0  0  0  0  0  0  0  0  0
   -2.5334   -2.7457    1.8054 H   0  0  0  0  0  0  0  0  0  0  0  0
   -1.2371   -2.0190   -0.1048 H   0  0  0  0  0  0  0  0  0  0  0  0
   -1.0572   -0.8111   -2.2506 H   0  0  0  0  0  0  0  0  0  0  0  0
   -3.0080    0.3922   -3.1751 H   0  0  0  0  0  0  0  0  0  0  0  0
   -5.3676   -0.8448    0.1940 H   0  0  0  0  0  0  0  0  0  0  0  0
    2.0407    3.7598    3.8714 H   0  0  0  0  0  0  0  0  0  0  0  0
    1.0469    2.7311    4.9048 H   0  0  0  0  0  0  0  0  0  0  0  0
    0.0047    4.6945    3.2954 H   0  0  0  0  0  0  0  0  0  0  0  0
   -0.9050    3.2393    3.6382 H   0  0  0  0  0  0  0  0  0  0  0  0
    0.1770    4.0655    1.0664 H   0  0  0  0  0  0  0  0  0  0  0  0
   -0.8187    2.6578    1.4257 H   0  0  0  0  0  0  0  0  0  0  0  0
    1.1458    1.4768    0.8691 H   0  0  0  0  0  0  0  0  0  0  0  0
    2.1373    2.9007    1.1733 H   0  0  0  0  0  0  0  0  0  0  0  0
    3.3173   -0.2766    2.3524 H   0  0  0  0  0  0  0  0  0  0  0  0
  1 36  1  0  0  0  0
  1 37  1  0  0  0  0
  1 38  1  0  0  0  0
  2 35  1  0  0  0  0
  2  3  1  0  0  0  0
  2  1  1  0  0  0  0
  2 39  1  6  0  0  0
  3 34  1  0  0  0  0
  3  4  1  0  0  0  0
  3 31  1  0  0  0  0
  4  5  1  0  0  0  0
  4 40  1  0  0  0  0
  4 41  1  0  0  0  0
  5  6  1  0  0  0  0
  5 42  1  0  0  0  0
  6  7  2  0  0  0  0
  6  8  1  0  0  0  0
  8 18  1  0  0  0  0
  8  9  2  0  0  0  0
  9 10  1  0  0  0  0
  9 43  1  0  0  0  0
 10 17  2  0  0  0  0
 10 11  1  0  0  0  0
 11 12  2  0  0  0  0
 11 44  1  0  0  0  0
 12 13  1  0  0  0  0
 12 15  1  0  0  0  0
 13 14  3  0  0  0  0
 15 16  2  0  0  0  0
 15 45  1  0  0  0  0
 16 17  1  0  0  0  0
 16 46  1  0  0  0  0
 17 18  1  0  0  0  0
 18 19  1  0  0  0  0
 19 20  1  0  0  0  0
 19 47  1  0  0  0  0
 19 48  1  0  0  0  0
 20 25  2  0  0  0  0
 20 21  1  0  0  0  0
 21 22  2  0  0  0  0
 21 49  1  0  0  0  0
 22 23  1  0  0  0  0
 22 50  1  0  0  0  0
 23 24  2  0  0  0  0
 23 51  1  0  0  0  0
 24 25  1  0  0  0  0
 24 26  1  0  0  0  0
 25 52  1  0  0  0  0
 26 27  1  0  0  0  0
 27 28  1  0  0  0  0
 27 29  1  0  0  0  0
 27 30  1  0  0  0  0
 31 32  1  0  0  0  0
 31 53  1  0  0  0  0
 31 54  1  0  0  0  0
 32 33  1  0  0  0  0
 32 55  1  0  0  0  0
 32 56  1  0  0  0  0
 33 34  1  0  0  0  0
 33 57  1  0  0  0  0
 33 58  1  0  0  0  0
 34 59  1  0  0  0  0
 34 60  1  0  0  0  0
 35 61  1  0  0  0  0
M  END
$$$$
CHEMBL524727
 OpenBabel12022417453D

 53 57  0  0  0  0  0  0  0  0999 V2000
   -0.2776   -1.1960   -0.0078 C   0  0  0  0  0  0  0  0  0  0  0  0
   -1.1982   -0.0989   -0.0294 C   0  0  0  0  0  0  0  0  0  0  0  0
   -0.4130    1.0657   -0.0521 C   0  0  0  0  0  0  0  0  0  0  0  0
   -0.8272    2.4931   -0.1218 C   0  0  0  0  0  0  0  0  0  0  0  0
   -0.0785    3.4545   -0.8266 C   0  0  0  0  0  0  0  0  0  0  0  0
   -0.3314    4.8264   -0.6912 C   0  0  0  0  0  0  0  0  0  0  0  0
   -1.4255    5.2559    0.0475 C   0  0  0  0  0  0  0  0  0  0  0  0
   -2.2664    4.3233    0.6417 C   0  0  0  0  0  0  0  0  0  0  0  0
   -1.9552    2.9572    0.5749 C   0  0  0  0  0  0  0  0  0  0  0  0
   -1.7293    6.9368    0.2386 Cl  0  0  0  0  0  0  0  0  0  0  0  0
    0.9144    0.6015   -0.0437 N   0  0  0  0  0  0  0  0  0  0  0  0
    2.1443    1.3281    0.0159 C   0  0  0  0  0  0  0  0  0  0  0  0
    2.2183    2.4958    0.7986 C   0  0  0  0  0  0  0  0  0  0  0  0
    3.3392    3.3249    0.7381 C   0  0  0  0  0  0  0  0  0  0  0  0
    4.4265    2.9602   -0.0469 C   0  0  0  0  0  0  0  0  0  0  0  0
    4.4150    1.7578   -0.7471 C   0  0  0  0  0  0  0  0  0  0  0  0
    3.2784    0.9365   -0.7256 C   0  0  0  0  0  0  0  0  0  0  0  0
    3.3542   -0.4483   -1.7628 Cl  0  0  0  0  0  0  0  0  0  0  0  0
    5.7810    4.0102   -0.1726 Cl  0  0  0  0  0  0  0  0  0  0  0  0
    0.9768   -0.7407   -0.0312 N   0  0  0  0  0  0  0  0  0  0  0  0
   -2.6866   -0.1971   -0.0447 C   0  0  0  0  0  0  0  0  0  0  0  0
   -0.5393   -2.6454   -0.0390 C   0  0  0  0  0  0  0  0  0  0  0  0
   -1.6168   -3.1388   -0.5812 N   0  0  0  0  0  0  0  0  0  0  0  0
   -1.4980   -4.5136   -0.4772 C   0  0  0  0  0  0  0  0  0  0  0  0
   -2.3425   -5.3196   -0.8480 O   0  0  0  0  0  0  0  0  0  0  0  0
   -0.1434   -4.8934    0.1687 C   0  0  0  0  0  0  0  0  0  0  0  0
   -0.3840   -5.7984    1.3744 C   0  0  0  0  0  0  0  0  0  0  0  0
    0.7377   -5.5716   -0.8757 C   0  0  0  0  0  0  0  0  0  0  0  0
    0.3838   -3.5545    0.4705 N   0  0  0  0  0  0  0  0  0  0  0  0
    1.1121   -3.2468    1.7108 C   0  0  0  0  0  0  0  0  0  0  0  0
    2.2843   -4.0339    2.2355 C   0  0  0  0  0  0  0  0  0  0  0  0
    2.5087   -2.6953    1.6169 C   0  0  0  0  0  0  0  0  0  0  0  0
    0.7683    3.1624   -1.4445 H   0  0  0  0  0  0  0  0  0  0  0  0
    0.3419    5.5470   -1.1495 H   0  0  0  0  0  0  0  0  0  0  0  0
   -3.1492    4.6488    1.1867 H   0  0  0  0  0  0  0  0  0  0  0  0
   -2.6052    2.2739    1.1102 H   0  0  0  0  0  0  0  0  0  0  0  0
    1.3925    2.7945    1.4449 H   0  0  0  0  0  0  0  0  0  0  0  0
    3.3409    4.2697    1.2795 H   0  0  0  0  0  0  0  0  0  0  0  0
    5.2784    1.4746   -1.3459 H   0  0  0  0  0  0  0  0  0  0  0  0
   -3.0476   -1.2236   -0.1227 H   0  0  0  0  0  0  0  0  0  0  0  0
   -3.1013    0.3611   -0.8892 H   0  0  0  0  0  0  0  0  0  0  0  0
   -3.1055    0.1986    0.8850 H   0  0  0  0  0  0  0  0  0  0  0  0
   -0.9820   -6.6715    1.0966 H   0  0  0  0  0  0  0  0  0  0  0  0
   -0.9290   -5.2856    2.1746 H   0  0  0  0  0  0  0  0  0  0  0  0
    0.5531   -6.1800    1.7913 H   0  0  0  0  0  0  0  0  0  0  0  0
    0.3296   -6.5455   -1.1688 H   0  0  0  0  0  0  0  0  0  0  0  0
    1.7534   -5.7275   -0.4977 H   0  0  0  0  0  0  0  0  0  0  0  0
    0.8139   -4.9647   -1.7855 H   0  0  0  0  0  0  0  0  0  0  0  0
    0.4600   -2.8235    2.4758 H   0  0  0  0  0  0  0  0  0  0  0  0
    2.6450   -4.8943    1.6917 H   0  0  0  0  0  0  0  0  0  0  0  0
    2.4136   -4.1011    3.3114 H   0  0  0  0  0  0  0  0  0  0  0  0
    2.7454   -1.8441    2.2443 H   0  0  0  0  0  0  0  0  0  0  0  0
    2.9714   -2.6590    0.6364 H   0  0  0  0  0  0  0  0  0  0  0  0
  1 20  2  0  0  0  0
  1  2  1  0  0  0  0
  1 22  1  0  0  0  0
  2  3  2  0  0  0  0
  2 21  1  0  0  0  0
  3  4  1  0  0  0  0
  3 11  1  0  0  0  0
  4  9  2  0  0  0  0
  4  5  1  0  0  0  0
  5  6  2  0  0  0  0
  5 33  1  0  0  0  0
  6  7  1  0  0  0  0
  6 34  1  0  0  0  0
  7  8  2  0  0  0  0
  7 10  1  0  0  0  0
  8  9  1  0  0  0  0
  8 35  1  0  0  0  0
  9 36  1  0  0  0  0
 11 12  1  0  0  0  0
 11 20  1  0  0  0  0
 12 17  2  0  0  0  0
 12 13  1  0  0  0  0
 13 14  2  0  0  0  0
 13 37  1  0  0  0  0
 14 15  1  0  0  0  0
 14 38  1  0  0  0  0
 15 16  2  0  0  0  0
 15 19  1  0  0  0  0
 16 17  1  0  0  0  0
 16 39  1  0  0  0  0
 17 18  1  0  0  0  0
 21 40  1  0  0  0  0
 21 41  1  0  0  0  0
 21 42  1  0  0  0  0
 22 29  1  0  0  0  0
 22 23  2  0  0  0  0
 23 24  1  0  0  0  0
 24 25  2  0  0  0  0
 24 26  1  0  0  0  0
 26 27  1  0  0  0  0
 26 28  1  0  0  0  0
 26 29  1  0  0  0  0
 27 43  1  0  0  0  0
 27 44  1  0  0  0  0
 27 45  1  0  0  0  0
 28 46  1  0  0  0  0
 28 47  1  0  0  0  0
 28 48  1  0  0  0  0
 29 30  1  0  0  0  0
 30 32  1  0  0  0  0
 30 31  1  0  0  0  0
 30 49  1  0  0  0  0
 31 32  1  0  0  0  0
 31 50  1  0  0  0  0
 31 51  1  0  0  0  0
 32 52  1  0  0  0  0
 32 53  1  0  0  0  0
M  END
$$$$
CHEMBL4516360
 OpenBabel12022417453D

 49 52  0  0  0  0  0  0  0  0999 V2000
    0.8023    5.0343    2.2374 C   0  0  0  0  0  0  0  0  0  0  0  0
    2.3201    5.0710    2.2971 C   0  0  0  0  0  0  0  0  0  0  0  0
    2.9289    3.8049    1.6984 C   0  0  0  0  0  0  0  0  0  0  0  0
    4.4543    3.8452    1.7598 C   0  0  0  0  0  0  0  0  0  0  0  0
    5.0611    2.5789    1.1610 C   0  0  0  0  0  0  0  0  0  0  0  0
    6.5113    2.6002    1.2072 N   0  0  0  0  0  0  0  0  0  0  0  0
    7.3099    3.0696    0.1957 C   0  0  0  0  0  0  0  0  0  0  0  0
    8.6272    2.9168    0.5624 C   0  0  0  0  0  0  0  0  0  0  0  0
    8.6103    2.3836    1.9111 C   0  0  0  0  0  0  0  0  0  0  0  0
    7.2876    2.1230    2.2302 C   0  0  0  0  0  0  0  0  0  0  0  0
    6.9336    1.4732    3.4399 C   0  0  0  0  0  0  0  0  0  0  0  0
    7.9648    1.0709    4.3020 C   0  0  0  0  0  0  0  0  0  0  0  0
    9.2847    1.3589    4.0186 C   0  0  0  0  0  0  0  0  0  0  0  0
    9.6164    2.0496    2.8523 C   0  0  0  0  0  0  0  0  0  0  0  0
    5.6689    1.2133    3.7491 F   0  0  0  0  0  0  0  0  0  0  0  0
    9.7758    3.2076   -0.2981 C   0  0  0  0  0  0  0  0  0  0  0  0
    9.6684    4.0420   -1.2198 O   0  0  0  0  0  0  0  0  0  0  0  0
   11.0169    2.4194   -0.1423 C   0  0  0  0  0  0  0  0  0  0  0  0
   10.8771    1.0874    0.2859 C   0  0  0  0  0  0  0  0  0  0  0  0
   11.9676    0.2779    0.4843 C   0  0  0  0  0  0  0  0  0  0  0  0
   13.2470    0.8233    0.3430 C   0  0  0  0  0  0  0  0  0  0  0  0
   13.4238    2.1679   -0.0025 C   0  0  0  0  0  0  0  0  0  0  0  0
   14.6866    2.7397    0.1141 C   0  0  0  0  0  0  0  0  0  0  0  0
   14.8190    4.0814   -0.1580 C   0  0  0  0  0  0  0  0  0  0  0  0
   13.9175    4.7265   -0.9740 C   0  0  0  0  0  0  0  0  0  0  0  0
   12.6282    4.2056   -0.9938 C   0  0  0  0  0  0  0  0  0  0  0  0
   12.3237    2.9622   -0.3893 C   0  0  0  0  0  0  0  0  0  0  0  0
    0.3839    5.9446    2.6771 H   0  0  0  0  0  0  0  0  0  0  0  0
    0.4110    4.1761    2.7929 H   0  0  0  0  0  0  0  0  0  0  0  0
    0.4519    4.9632    1.2026 H   0  0  0  0  0  0  0  0  0  0  0  0
    2.6366    5.1780    3.3412 H   0  0  0  0  0  0  0  0  0  0  0  0
    2.6831    5.9525    1.7561 H   0  0  0  0  0  0  0  0  0  0  0  0
    2.6056    3.6966    0.6558 H   0  0  0  0  0  0  0  0  0  0  0  0
    2.5622    2.9266    2.2437 H   0  0  0  0  0  0  0  0  0  0  0  0
    4.7790    3.9530    2.8026 H   0  0  0  0  0  0  0  0  0  0  0  0
    4.8231    4.7284    1.2234 H   0  0  0  0  0  0  0  0  0  0  0  0
    4.7628    2.4533    0.1140 H   0  0  0  0  0  0  0  0  0  0  0  0
    4.7178    1.6873    1.6970 H   0  0  0  0  0  0  0  0  0  0  0  0
    6.8805    3.4617   -0.7209 H   0  0  0  0  0  0  0  0  0  0  0  0
    7.6990    0.5366    5.2094 H   0  0  0  0  0  0  0  0  0  0  0  0
   10.0796    1.0399    4.6928 H   0  0  0  0  0  0  0  0  0  0  0  0
   10.6662    2.2680    2.6713 H   0  0  0  0  0  0  0  0  0  0  0  0
    9.8828    0.6846    0.4961 H   0  0  0  0  0  0  0  0  0  0  0  0
   11.8364   -0.7593    0.7486 H   0  0  0  0  0  0  0  0  0  0  0  0
   14.1033    0.1791    0.5068 H   0  0  0  0  0  0  0  0  0  0  0  0
   15.5163    2.1871    0.5462 H   0  0  0  0  0  0  0  0  0  0  0  0
   15.4526    4.6931    0.4947 H   0  0  0  0  0  0  0  0  0  0  0  0
   14.1634    5.6529   -1.4710 H   0  0  0  0  0  0  0  0  0  0  0  0
   11.8613    4.8079   -1.4833 H   0  0  0  0  0  0  0  0  0  0  0  0
  1  2  1  0  0  0  0
  1 28  1  0  0  0  0
  1 29  1  0  0  0  0
  1 30  1  0  0  0  0
  2  3  1  0  0  0  0
  2 31  1  0  0  0  0
  2 32  1  0  0  0  0
  3  4  1  0  0  0  0
  3 33  1  0  0  0  0
  3 34  1  0  0  0  0
  4  5  1  0  0  0  0
  4 35  1  0  0  0  0
  4 36  1  0  0  0  0
  5  6  1  0  0  0  0
  5 37  1  0  0  0  0
  5 38  1  0  0  0  0
  6 10  1  0  0  0  0
  6  7  1  0  0  0  0
  7  8  2  0  0  0  0
  7 39  1  0  0  0  0
  8  9  1  0  0  0  0
  8 16  1  0  0  0  0
  9 14  2  0  0  0  0
  9 10  1  0  0  0  0
 10 11  2  0  0  0  0
 11 12  1  0  0  0  0
 11 15  1  0  0  0  0
 12 13  2  0  0  0  0
 12 40  1  0  0  0  0
 13 14  1  0  0  0  0
 13 41  1  0  0  0  0
 14 42  1  0  0  0  0
 16 17  2  0  0  0  0
 16 18  1  0  0  0  0
 18 27  2  0  0  0  0
 18 19  1  0  0  0  0
 19 20  2  0  0  0  0
 19 43  1  0  0  0  0
 20 21  1  0  0  0  0
 20 44  1  0  0  0  0
 21 22  2  0  0  0  0
 21 45  1  0  0  0  0
 22 27  1  0  0  0  0
 22 23  1  0  0  0  0
 23 24  2  0  0  0  0
 23 46  1  0  0  0  0
 24 25  1  0  0  0  0
 24 47  1  0  0  0  0
 25 26  2  0  0  0  0
 25 48  1  0  0  0  0
 26 27  1  0  0  0  0
 26 49  1  0  0  0  0
M  END
$$$$
CHEMBL4469157
 OpenBabel12022417453D

 55 58  0  0  0  0  0  0  0  0999 V2000
    4.7178   -6.5142    4.3344 C   0  0  0  0  0  0  0  0  0  0  0  0
    4.4590   -5.9568    2.9422 C   0  0  0  0  0  0  0  0  0  0  0  0
    5.2063   -4.6388    2.7346 C   0  0  0  0  0  0  0  0  0  0  0  0
    4.9998   -4.0693    1.3318 C   0  0  0  0  0  0  0  0  0  0  0  0
    5.7197   -2.7267    1.1353 C   0  0  0  0  0  0  0  0  0  0  0  0
    7.1792   -2.8060    1.0990 N   0  0  0  0  0  0  0  0  0  0  0  0
    8.0470   -2.5628    2.1542 C   0  0  0  0  0  0  0  0  0  0  0  0
    9.3700   -2.6618    1.7237 C   0  0  0  0  0  0  0  0  0  0  0  0
    9.2481   -2.9985    0.2997 C   0  0  0  0  0  0  0  0  0  0  0  0
   10.1795   -3.2491   -0.7407 C   0  0  0  0  0  0  0  0  0  0  0  0
    9.7497   -3.5545   -2.0442 C   0  0  0  0  0  0  0  0  0  0  0  0
    8.3963   -3.6071   -2.3453 C   0  0  0  0  0  0  0  0  0  0  0  0
    7.4489   -3.3679   -1.3532 C   0  0  0  0  0  0  0  0  0  0  0  0
    7.8936   -3.0723   -0.0458 C   0  0  0  0  0  0  0  0  0  0  0  0
   10.6893   -2.4941    2.4491 C   0  0  0  0  0  0  0  0  0  0  0  0
   11.7255   -2.6142    1.7958 O   0  0  0  0  0  0  0  0  0  0  0  0
   10.8740   -2.1660    3.9432 C   0  0  0  0  0  0  0  0  0  0  0  0
    9.8683   -1.4410    4.5866 C   0  0  0  0  0  0  0  0  0  0  0  0
    9.9447   -1.1454    5.9535 C   0  0  0  0  0  0  0  0  0  0  0  0
   11.0525   -1.5177    6.7266 C   0  0  0  0  0  0  0  0  0  0  0  0
   12.1737   -2.1038    6.1035 C   0  0  0  0  0  0  0  0  0  0  0  0
   13.3848   -2.3186    6.8278 C   0  0  0  0  0  0  0  0  0  0  0  0
   14.5308   -2.8357    6.2303 C   0  0  0  0  0  0  0  0  0  0  0  0
   14.4919   -3.1717    4.8929 C   0  0  0  0  0  0  0  0  0  0  0  0
   13.3054   -2.9964    4.1559 C   0  0  0  0  0  0  0  0  0  0  0  0
   12.1016   -2.4519    4.6971 C   0  0  0  0  0  0  0  0  0  0  0  0
   10.9687   -1.1335    8.1755 C   0  0  0  0  0  0  0  0  0  0  0  0
   10.4111   -0.1110    8.5434 O   0  0  0  0  0  0  0  0  0  0  0  0
   11.4855   -2.0780    9.0060 O   0  0  0  0  0  0  0  0  0  0  0  0
   11.4256   -1.7354   10.3990 C   0  0  0  0  0  0  0  0  0  0  0  0
    4.1788   -7.4559    4.4760 H   0  0  0  0  0  0  0  0  0  0  0  0
    4.3853   -5.8122    5.1060 H   0  0  0  0  0  0  0  0  0  0  0  0
    5.7849   -6.7080    4.4853 H   0  0  0  0  0  0  0  0  0  0  0  0
    3.3815   -5.8059    2.8080 H   0  0  0  0  0  0  0  0  0  0  0  0
    4.7799   -6.6925    2.1956 H   0  0  0  0  0  0  0  0  0  0  0  0
    6.2746   -4.8043    2.9085 H   0  0  0  0  0  0  0  0  0  0  0  0
    4.8628   -3.9061    3.4748 H   0  0  0  0  0  0  0  0  0  0  0  0
    3.9243   -3.9158    1.1664 H   0  0  0  0  0  0  0  0  0  0  0  0
    5.3286   -4.7973    0.5798 H   0  0  0  0  0  0  0  0  0  0  0  0
    5.4350   -2.0039    1.9065 H   0  0  0  0  0  0  0  0  0  0  0  0
    5.3955   -2.2959    0.1782 H   0  0  0  0  0  0  0  0  0  0  0  0
    7.6158   -2.3405    3.1185 H   0  0  0  0  0  0  0  0  0  0  0  0
   11.2460   -3.2128   -0.5358 H   0  0  0  0  0  0  0  0  0  0  0  0
   10.4819   -3.7456   -2.8225 H   0  0  0  0  0  0  0  0  0  0  0  0
    8.0745   -3.8400   -3.3579 H   0  0  0  0  0  0  0  0  0  0  0  0
    6.3925   -3.4145   -1.6001 H   0  0  0  0  0  0  0  0  0  0  0  0
    9.0304   -1.0331    4.0376 H   0  0  0  0  0  0  0  0  0  0  0  0
    9.1380   -0.5785    6.4136 H   0  0  0  0  0  0  0  0  0  0  0  0
   13.4813   -2.0430    7.8721 H   0  0  0  0  0  0  0  0  0  0  0  0
   15.4441   -2.9536    6.8105 H   0  0  0  0  0  0  0  0  0  0  0  0
   15.3912   -3.5482    4.4079 H   0  0  0  0  0  0  0  0  0  0  0  0
   13.3716   -3.2662    3.1061 H   0  0  0  0  0  0  0  0  0  0  0  0
   11.8816   -2.5456   10.9779 H   0  0  0  0  0  0  0  0  0  0  0  0
   10.3869   -1.6235   10.7260 H   0  0  0  0  0  0  0  0  0  0  0  0
   11.9916   -0.8182   10.5990 H   0  0  0  0  0  0  0  0  0  0  0  0
  1  2  1  0  0  0  0
  1 31  1  0  0  0  0
  1 32  1  0  0  0  0
  1 33  1  0  0  0  0
  2  3  1  0  0  0  0
  2 34  1  0  0  0  0
  2 35  1  0  0  0  0
  3  4  1  0  0  0  0
  3 36  1  0  0  0  0
  3 37  1  0  0  0  0
  4  5  1  0  0  0  0
  4 38  1  0  0  0  0
  4 39  1  0  0  0  0
  5  6  1  0  0  0  0
  5 40  1  0  0  0  0
  5 41  1  0  0  0  0
  6 14  1  0  0  0  0
  6  7  1  0  0  0  0
  7  8  2  0  0  0  0
  7 42  1  0  0  0  0
  8  9  1  0  0  0  0
  8 15  1  0  0  0  0
  9 14  2  0  0  0  0
  9 10  1  0  0  0  0
 10 11  2  0  0  0  0
 10 43  1  0  0  0  0
 11 12  1  0  0  0  0
 11 44  1  0  0  0  0
 12 13  2  0  0  0  0
 12 45  1  0  0  0  0
 13 14  1  0  0  0  0
 13 46  1  0  0  0  0
 15 16  2  0  0  0  0
 15 17  1  0  0  0  0
 17 26  2  0  0  0  0
 17 18  1  0  0  0  0
 18 19  2  0  0  0  0
 18 47  1  0  0  0  0
 19 20  1  0  0  0  0
 19 48  1  0  0  0  0
 20 21  2  0  0  0  0
 20 27  1  0  0  0  0
 21 26  1  0  0  0  0
 21 22  1  0  0  0  0
 22 23  2  0  0  0  0
 22 49  1  0  0  0  0
 23 24  1  0  0  0  0
 23 50  1  0  0  0  0
 24 25  2  0  0  0  0
 24 51  1  0  0  0  0
 25 26  1  0  0  0  0
 25 52  1  0  0  0  0
 27 28  2  0  0  0  0
 27 29  1  0  0  0  0
 29 30  1  0  0  0  0
 30 53  1  0  0  0  0
 30 54  1  0  0  0  0
 30 55  1  0  0  0  0
M  END
$$$$
CHEMBL4474739
 OpenBabel12022417453D

 49 52  0  0  0  0  0  0  0  0999 V2000
    2.0696   -0.9898   -1.5884 C   0  0  0  0  0  0  0  0  0  0  0  0
    2.2502    0.0771   -0.7247 C   0  0  0  0  0  0  0  0  0  0  0  0
    1.1586    0.8749   -0.3700 C   0  0  0  0  0  0  0  0  0  0  0  0
   -0.1358    0.6869   -0.9273 C   0  0  0  0  0  0  0  0  0  0  0  0
   -0.3078   -0.4737   -1.7283 C   0  0  0  0  0  0  0  0  0  0  0  0
    0.7914   -1.2837   -2.0536 C   0  0  0  0  0  0  0  0  0  0  0  0
   -1.5794   -0.8242   -2.2049 C   0  0  0  0  0  0  0  0  0  0  0  0
   -2.6900   -0.0319   -1.9429 C   0  0  0  0  0  0  0  0  0  0  0  0
   -2.5320    1.1530   -1.2387 C   0  0  0  0  0  0  0  0  0  0  0  0
   -1.2699    1.5434   -0.7473 C   0  0  0  0  0  0  0  0  0  0  0  0
   -1.2597    2.8888   -0.0734 C   0  0  0  0  0  0  0  0  0  0  0  0
   -2.2897    3.2368    0.4948 O   0  0  0  0  0  0  0  0  0  0  0  0
   -0.0897    3.7554   -0.1332 C   0  0  0  0  0  0  0  0  0  0  0  0
    0.8409    3.8303   -1.1552 C   0  0  0  0  0  0  0  0  0  0  0  0
    1.8855    4.6221   -0.7430 N   0  0  0  0  0  0  0  0  0  0  0  0
    1.5850    5.1952    0.4772 C   0  0  0  0  0  0  0  0  0  0  0  0
    0.3306    4.6949    0.8629 C   0  0  0  0  0  0  0  0  0  0  0  0
   -0.2046    5.1190    2.0982 C   0  0  0  0  0  0  0  0  0  0  0  0
    0.4894    6.0143    2.9083 C   0  0  0  0  0  0  0  0  0  0  0  0
    1.7347    6.4824    2.5167 C   0  0  0  0  0  0  0  0  0  0  0  0
    2.3050    6.0821    1.3011 C   0  0  0  0  0  0  0  0  0  0  0  0
   -1.3858    4.6626    2.5346 F   0  0  0  0  0  0  0  0  0  0  0  0
    3.1663    4.6743   -1.4337 C   0  0  0  0  0  0  0  0  0  0  0  0
    3.1001    5.0666   -2.9107 C   0  0  0  0  0  0  0  0  0  0  0  0
    2.5950    6.4892   -3.1538 C   0  0  0  0  0  0  0  0  0  0  0  0
    2.5788    6.7877   -4.6561 C   0  0  0  0  0  0  0  0  0  0  0  0
    2.0839    8.1901   -4.9568 C   0  0  0  0  0  0  0  0  0  0  0  0
    2.9186    9.0922   -4.3763 F   0  0  0  0  0  0  0  0  0  0  0  0
    2.9136   -1.6096   -1.8803 H   0  0  0  0  0  0  0  0  0  0  0  0
    3.2363    0.2959   -0.3232 H   0  0  0  0  0  0  0  0  0  0  0  0
    1.3442    1.6619    0.3566 H   0  0  0  0  0  0  0  0  0  0  0  0
    0.6599   -2.1564   -2.6909 H   0  0  0  0  0  0  0  0  0  0  0  0
   -1.7179   -1.7369   -2.7810 H   0  0  0  0  0  0  0  0  0  0  0  0
   -3.6726   -0.3264   -2.3017 H   0  0  0  0  0  0  0  0  0  0  0  0
   -3.4042    1.7841   -1.0708 H   0  0  0  0  0  0  0  0  0  0  0  0
    0.8875    3.3019   -2.0987 H   0  0  0  0  0  0  0  0  0  0  0  0
    0.0431    6.3228    3.8490 H   0  0  0  0  0  0  0  0  0  0  0  0
    2.2742    7.1671    3.1665 H   0  0  0  0  0  0  0  0  0  0  0  0
    3.2850    6.4552    1.0193 H   0  0  0  0  0  0  0  0  0  0  0  0
    3.5853    3.6622   -1.3543 H   0  0  0  0  0  0  0  0  0  0  0  0
    3.8401    5.3441   -0.8914 H   0  0  0  0  0  0  0  0  0  0  0  0
    2.4700    4.3580   -3.4612 H   0  0  0  0  0  0  0  0  0  0  0  0
    4.1091    4.9716   -3.3320 H   0  0  0  0  0  0  0  0  0  0  0  0
    3.2443    7.2052   -2.6365 H   0  0  0  0  0  0  0  0  0  0  0  0
    1.5851    6.6094   -2.7453 H   0  0  0  0  0  0  0  0  0  0  0  0
    1.9407    6.0612   -5.1719 H   0  0  0  0  0  0  0  0  0  0  0  0
    3.5946    6.6766   -5.0533 H   0  0  0  0  0  0  0  0  0  0  0  0
    1.0735    8.3562   -4.5733 H   0  0  0  0  0  0  0  0  0  0  0  0
    2.0882    8.3753   -6.0352 H   0  0  0  0  0  0  0  0  0  0  0  0
  1  6  2  0  0  0  0
  1  2  1  0  0  0  0
  1 29  1  0  0  0  0
  2  3  2  0  0  0  0
  2 30  1  0  0  0  0
  3  4  1  0  0  0  0
  3 31  1  0  0  0  0
  4 10  2  0  0  0  0
  4  5  1  0  0  0  0
  5  6  1  0  0  0  0
  5  7  2  0  0  0  0
  6 32  1  0  0  0  0
  7  8  1  0  0  0  0
  7 33  1  0  0  0  0
  8  9  2  0  0  0  0
  8 34  1  0  0  0  0
  9 10  1  0  0  0  0
  9 35  1  0  0  0  0
 10 11  1  0  0  0  0
 11 12  2  0  0  0  0
 11 13  1  0  0  0  0
 13 17  1  0  0  0  0
 13 14  2  0  0  0  0
 14 15  1  0  0  0  0
 14 36  1  0  0  0  0
 15 16  1  0  0  0  0
 15 23  1  0  0  0  0
 16 21  2  0  0  0  0
 16 17  1  0  0  0  0
 17 18  2  0  0  0  0
 18 19  1  0  0  0  0
 18 22  1  0  0  0  0
 19 20  2  0  0  0  0
 19 37  1  0  0  0  0
 20 21  1  0  0  0  0
 20 38  1  0  0  0  0
 21 39  1  0  0  0  0
 23 24  1  0  0  0  0
 23 40  1  0  0  0  0
 23 41  1  0  0  0  0
 24 25  1  0  0  0  0
 24 42  1  0  0  0  0
 24 43  1  0  0  0  0
 25 26  1  0  0  0  0
 25 44  1  0  0  0  0
 25 45  1  0  0  0  0
 26 27  1  0  0  0  0
 26 46  1  0  0  0  0
 26 47  1  0  0  0  0
 27 28  1  0  0  0  0
 27 48  1  0  0  0  0
 27 49  1  0  0  0  0
M  END
$$$$
CHEMBL4444832
 OpenBabel12022417453D

 58 61  0  0  0  0  0  0  0  0999 V2000
    2.6643    1.0203   -3.9538 C   0  0  0  0  0  0  0  0  0  0  0  0
    4.0270    1.0065   -3.2762 C   0  0  0  0  0  0  0  0  0  0  0  0
    3.8944    1.2778   -1.7766 C   0  0  0  0  0  0  0  0  0  0  0  0
    5.2306    1.2679   -1.0558 C   0  0  0  0  0  0  0  0  0  0  0  0
    5.6270    0.0521   -0.4852 C   0  0  0  0  0  0  0  0  0  0  0  0
    6.8058   -0.0391    0.2407 C   0  0  0  0  0  0  0  0  0  0  0  0
    7.6602    1.0665    0.3682 C   0  0  0  0  0  0  0  0  0  0  0  0
    7.2960    2.3215   -0.2135 C   0  0  0  0  0  0  0  0  0  0  0  0
    8.0897    3.4976   -0.1232 C   0  0  0  0  0  0  0  0  0  0  0  0
    7.6849    4.7243   -0.6487 C   0  0  0  0  0  0  0  0  0  0  0  0
    6.4794    4.8137   -1.3159 C   0  0  0  0  0  0  0  0  0  0  0  0
    5.6894    3.6740   -1.4624 C   0  0  0  0  0  0  0  0  0  0  0  0
    6.0600    2.4177   -0.9233 C   0  0  0  0  0  0  0  0  0  0  0  0
    8.8942    0.9052    1.2164 C   0  0  0  0  0  0  0  0  0  0  0  0
    9.2877    1.8553    1.8849 O   0  0  0  0  0  0  0  0  0  0  0  0
    9.5885   -0.3883    1.2776 C   0  0  0  0  0  0  0  0  0  0  0  0
    9.6345   -1.3605    0.2927 C   0  0  0  0  0  0  0  0  0  0  0  0
   10.3660   -2.4297    0.7487 N   0  0  0  0  0  0  0  0  0  0  0  0
   10.8882   -2.1414    1.9929 C   0  0  0  0  0  0  0  0  0  0  0  0
   10.4009   -0.8764    2.3585 C   0  0  0  0  0  0  0  0  0  0  0  0
   10.7684   -0.3672    3.6244 C   0  0  0  0  0  0  0  0  0  0  0  0
   11.6077   -1.0871    4.4697 C   0  0  0  0  0  0  0  0  0  0  0  0
   12.0914   -2.3270    4.0805 C   0  0  0  0  0  0  0  0  0  0  0  0
   11.7416   -2.8736    2.8376 C   0  0  0  0  0  0  0  0  0  0  0  0
   10.3110    0.8153    4.0586 F   0  0  0  0  0  0  0  0  0  0  0  0
   10.5984   -3.6289   -0.0391 C   0  0  0  0  0  0  0  0  0  0  0  0
   10.1070   -4.9445    0.5712 C   0  0  0  0  0  0  0  0  0  0  0  0
    8.6077   -4.9875    0.8797 C   0  0  0  0  0  0  0  0  0  0  0  0
    8.2335   -6.3507    1.4738 C   0  0  0  0  0  0  0  0  0  0  0  0
    6.7597   -6.4439    1.8250 C   0  0  0  0  0  0  0  0  0  0  0  0
    6.0217   -6.2904    0.6942 F   0  0  0  0  0  0  0  0  0  0  0  0
    2.7670    0.8189   -5.0246 H   0  0  0  0  0  0  0  0  0  0  0  0
    2.1789    1.9945   -3.8360 H   0  0  0  0  0  0  0  0  0  0  0  0
    2.0063    0.2563   -3.5268 H   0  0  0  0  0  0  0  0  0  0  0  0
    4.6720    1.7565   -3.7482 H   0  0  0  0  0  0  0  0  0  0  0  0
    4.5000    0.0309   -3.4431 H   0  0  0  0  0  0  0  0  0  0  0  0
    3.2440    0.5135   -1.3296 H   0  0  0  0  0  0  0  0  0  0  0  0
    3.3680    2.2210   -1.5940 H   0  0  0  0  0  0  0  0  0  0  0  0
    4.9978   -0.8314   -0.5777 H   0  0  0  0  0  0  0  0  0  0  0  0
    7.0296   -0.9862    0.7250 H   0  0  0  0  0  0  0  0  0  0  0  0
    9.0524    3.4888    0.3842 H   0  0  0  0  0  0  0  0  0  0  0  0
    8.3142    5.6015   -0.5237 H   0  0  0  0  0  0  0  0  0  0  0  0
    6.1487    5.7652   -1.7229 H   0  0  0  0  0  0  0  0  0  0  0  0
    4.7567    3.7949   -2.0068 H   0  0  0  0  0  0  0  0  0  0  0  0
    9.1983   -1.3791   -0.6986 H   0  0  0  0  0  0  0  0  0  0  0  0
   11.8747   -0.6621    5.4341 H   0  0  0  0  0  0  0  0  0  0  0  0
   12.7468   -2.8826    4.7476 H   0  0  0  0  0  0  0  0  0  0  0  0
   12.1340   -3.8439    2.5535 H   0  0  0  0  0  0  0  0  0  0  0  0
   11.6787   -3.6799   -0.2181 H   0  0  0  0  0  0  0  0  0  0  0  0
   10.1189   -3.4844   -1.0150 H   0  0  0  0  0  0  0  0  0  0  0  0
   10.6656   -5.1698    1.4848 H   0  0  0  0  0  0  0  0  0  0  0  0
   10.3439   -5.7496   -0.1363 H   0  0  0  0  0  0  0  0  0  0  0  0
    8.0336   -4.8093   -0.0374 H   0  0  0  0  0  0  0  0  0  0  0  0
    8.3430   -4.1964    1.5905 H   0  0  0  0  0  0  0  0  0  0  0  0
    8.8291   -6.5388    2.3747 H   0  0  0  0  0  0  0  0  0  0  0  0
    8.4754   -7.1353    0.7471 H   0  0  0  0  0  0  0  0  0  0  0  0
    6.4611   -5.6716    2.5394 H   0  0  0  0  0  0  0  0  0  0  0  0
    6.5259   -7.4256    2.2481 H   0  0  0  0  0  0  0  0  0  0  0  0
  1  2  1  0  0  0  0
  1 32  1  0  0  0  0
  1 33  1  0  0  0  0
  1 34  1  0  0  0  0
  2  3  1  0  0  0  0
  2 35  1  0  0  0  0
  2 36  1  0  0  0  0
  3  4  1  0  0  0  0
  3 37  1  0  0  0  0
  3 38  1  0  0  0  0
  4 13  2  0  0  0  0
  4  5  1  0  0  0  0
  5  6  2  0  0  0  0
  5 39  1  0  0  0  0
  6  7  1  0  0  0  0
  6 40  1  0  0  0  0
  7  8  2  0  0  0  0
  7 14  1  0  0  0  0
  8 13  1  0  0  0  0
  8  9  1  0  0  0  0
  9 10  2  0  0  0  0
  9 41  1  0  0  0  0
 10 11  1  0  0  0  0
 10 42  1  0  0  0  0
 11 12  2  0  0  0  0
 11 43  1  0  0  0  0
 12 13  1  0  0  0  0
 12 44  1  0  0  0  0
 14 15  2  0  0  0  0
 14 16  1  0  0  0  0
 16 20  1  0  0  0  0
 16 17  2  0  0  0  0
 17 18  1  0  0  0  0
 17 45  1  0  0  0  0
 18 19  1  0  0  0  0
 18 26  1  0  0  0  0
 19 24  2  0  0  0  0
 19 20  1  0  0  0  0
 20 21  2  0  0  0  0
 21 22  1  0  0  0  0
 21 25  1  0  0  0  0
 22 23  2  0  0  0  0
 22 46  1  0  0  0  0
 23 24  1  0  0  0  0
 23 47  1  0  0  0  0
 24 48  1  0  0  0  0
 26 27  1  0  0  0  0
 26 49  1  0  0  0  0
 26 50  1  0  0  0  0
 27 28  1  0  0  0  0
 27 51  1  0  0  0  0
 27 52  1  0  0  0  0
 28 29  1  0  0  0  0
 28 53  1  0  0  0  0
 28 54  1  0  0  0  0
 29 30  1  0  0  0  0
 29 55  1  0  0  0  0
 29 56  1  0  0  0  0
 30 31  1  0  0  0  0
 30 57  1  0  0  0  0
 30 58  1  0  0  0  0
M  END
$$$$
CHEMBL3938215
 OpenBabel12022417453D

 62 66  0  0  1  0  0  0  0  0999 V2000
    1.1893    0.2831    0.7079 C   0  0  1  0  0  0  0  0  0  0  0  0
    0.6746    1.4840    1.4808 C   0  0  0  0  0  0  0  0  0  0  0  0
   -0.4980    1.3718    2.2291 C   0  0  0  0  0  0  0  0  0  0  0  0
   -0.9257    2.4620    2.9792 C   0  0  0  0  0  0  0  0  0  0  0  0
   -0.1827    3.6352    2.9552 C   0  0  0  0  0  0  0  0  0  0  0  0
    0.9580    3.6733    2.1705 C   0  0  0  0  0  0  0  0  0  0  0  0
    1.4009    2.6318    1.4331 N   0  0  0  0  0  0  0  0  0  0  0  0
    0.6768    0.2810   -0.7327 C   0  0  0  0  0  0  0  0  0  0  0  0
    2.6401    0.2063    0.7544 N   0  0  0  0  0  0  0  0  0  0  0  0
    3.2872   -0.9999    0.6521 C   0  0  0  0  0  0  0  0  0  0  0  0
    2.6575   -2.0542    0.5782 O   0  0  0  0  0  0  0  0  0  0  0  0
    4.7623   -0.9545    0.6584 C   0  0  0  0  0  0  0  0  0  0  0  0
    5.6275   -2.0839    0.6362 C   0  0  0  0  0  0  0  0  0  0  0  0
    6.9194   -1.5755    0.6926 C   0  0  0  0  0  0  0  0  0  0  0  0
    8.1264   -2.3684    0.7942 C   0  0  0  0  0  0  0  0  0  0  0  0
    9.1878   -2.1303   -0.0111 C   0  0  0  0  0  0  0  0  0  0  0  0
   10.3807   -2.9147    0.0065 C   0  0  0  0  0  0  0  0  0  0  0  0
   10.7334   -3.9813   -0.8090 C   0  0  0  0  0  0  0  0  0  0  0  0
   12.0327   -4.5045   -0.5143 C   0  0  0  0  0  0  0  0  0  0  0  0
   12.6313   -3.7929    0.4906 C   0  0  0  0  0  0  0  0  0  0  0  0
   14.2008   -4.0595    1.1373 Cl  0  0  0  0  0  0  0  0  0  0  0  0
   11.6727   -2.5336    1.0887 S   0  0  0  0  0  0  0  0  0  0  0  0
    8.0672   -3.5844    1.7209 C   0  0  0  0  0  0  0  0  0  0  0  0
    7.3820   -4.7889    1.0578 C   0  0  0  0  0  0  0  0  0  0  0  0
    6.2697   -4.4632    0.0521 C   0  0  0  0  0  0  0  0  0  0  0  0
    5.2083   -3.5197    0.6093 C   0  0  0  0  0  0  0  0  0  0  0  0
    6.7800   -0.1835    0.6927 N   0  0  0  0  0  0  0  0  0  0  0  0
    7.7797    0.8391    0.7376 C   0  0  0  0  0  0  0  0  0  0  0  0
    8.9933    0.5825    1.3984 C   0  0  0  0  0  0  0  0  0  0  0  0
   10.0462    1.4978    1.3557 C   0  0  0  0  0  0  0  0  0  0  0  0
    9.9156    2.6900    0.6434 C   0  0  0  0  0  0  0  0  0  0  0  0
    8.6868    2.9778    0.0356 C   0  0  0  0  0  0  0  0  0  0  0  0
    7.6026    2.0922    0.1239 C   0  0  0  0  0  0  0  0  0  0  0  0
    6.1376    2.6811   -0.5859 Cl  0  0  0  0  0  0  0  0  0  0  0  0
   11.0476    3.6797    0.5496 C   0  0  0  0  0  0  0  0  0  0  0  0
   12.1565    3.3019    1.2424 F   0  0  0  0  0  0  0  0  0  0  0  0
   11.4563    3.8825   -0.7324 F   0  0  0  0  0  0  0  0  0  0  0  0
   10.7003    4.9028    1.0337 F   0  0  0  0  0  0  0  0  0  0  0  0
    5.4663    0.1725    0.6820 N   0  0  0  0  0  0  0  0  0  0  0  0
    0.8050   -0.6203    1.1997 H   0  0  0  0  0  0  0  0  0  0  0  0
   -1.0621    0.4440    2.2463 H   0  0  0  0  0  0  0  0  0  0  0  0
   -1.8240    2.3910    3.5858 H   0  0  0  0  0  0  0  0  0  0  0  0
   -0.4821    4.4983    3.5385 H   0  0  0  0  0  0  0  0  0  0  0  0
    1.5709    4.5685    2.1188 H   0  0  0  0  0  0  0  0  0  0  0  0
    1.0520    1.1406   -1.2990 H   0  0  0  0  0  0  0  0  0  0  0  0
   -0.4184    0.3104   -0.7625 H   0  0  0  0  0  0  0  0  0  0  0  0
    0.9961   -0.6252   -1.2607 H   0  0  0  0  0  0  0  0  0  0  0  0
    3.1847    1.0599    0.8594 H   0  0  0  0  0  0  0  0  0  0  0  0
    9.1761   -1.3217   -0.7368 H   0  0  0  0  0  0  0  0  0  0  0  0
   10.0866   -4.3759   -1.5801 H   0  0  0  0  0  0  0  0  0  0  0  0
   12.4957   -5.3392   -1.0261 H   0  0  0  0  0  0  0  0  0  0  0  0
    7.5001   -3.2997    2.6193 H   0  0  0  0  0  0  0  0  0  0  0  0
    9.0491   -3.8813    2.1016 H   0  0  0  0  0  0  0  0  0  0  0  0
    6.9665   -5.4269    1.8480 H   0  0  0  0  0  0  0  0  0  0  0  0
    8.1372   -5.3918    0.5412 H   0  0  0  0  0  0  0  0  0  0  0  0
    5.7860   -5.4010   -0.2427 H   0  0  0  0  0  0  0  0  0  0  0  0
    6.7015   -4.0464   -0.8686 H   0  0  0  0  0  0  0  0  0  0  0  0
    4.3277   -3.6208   -0.0331 H   0  0  0  0  0  0  0  0  0  0  0  0
    4.9133   -3.8233    1.6208 H   0  0  0  0  0  0  0  0  0  0  0  0
    9.1418   -0.3219    1.9842 H   0  0  0  0  0  0  0  0  0  0  0  0
   10.9738    1.2615    1.8765 H   0  0  0  0  0  0  0  0  0  0  0  0
    8.5700    3.9140   -0.5114 H   0  0  0  0  0  0  0  0  0  0  0  0
  1  2  1  0  0  0  0
  1  8  1  0  0  0  0
  1  9  1  0  0  0  0
  1 40  1  1  0  0  0
  2  7  2  0  0  0  0
  2  3  1  0  0  0  0
  3  4  2  0  0  0  0
  3 41  1  0  0  0  0
  4  5  1  0  0  0  0
  4 42  1  0  0  0  0
  5  6  2  0  0  0  0
  5 43  1  0  0  0  0
  6  7  1  0  0  0  0
  6 44  1  0  0  0  0
  8 45  1  0  0  0  0
  8 46  1  0  0  0  0
  8 47  1  0  0  0  0
  9 10  1  0  0  0  0
  9 48  1  0  0  0  0
 10 11  2  0  0  0  0
 10 12  1  0  0  0  0
 12 39  2  0  0  0  0
 12 13  1  0  0  0  0
 13 26  1  0  0  0  0
 13 14  2  0  0  0  0
 14 15  1  0  0  0  0
 14 27  1  0  0  0  0
 15 16  2  0  0  0  0
 15 23  1  0  0  0  0
 16 17  1  0  0  0  0
 16 49  1  0  0  0  0
 17 22  1  0  0  0  0
 17 18  2  0  0  0  0
 18 19  1  0  0  0  0
 18 50  1  0  0  0  0
 19 20  2  0  0  0  0
 19 51  1  0  0  0  0
 20 21  1  0  0  0  0
 20 22  1  0  0  0  0
 23 24  1  0  0  0  0
 23 52  1  0  0  0  0
 23 53  1  0  0  0  0
 24 25  1  0  0  0  0
 24 54  1  0  0  0  0
 24 55  1  0  0  0  0
 25 26  1  0  0  0  0
 25 56  1  0  0  0  0
 25 57  1  0  0  0  0
 26 58  1  0  0  0  0
 26 59  1  0  0  0  0
 27 28  1  0  0  0  0
 27 39  1  0  0  0  0
 28 33  2  0  0  0  0
 28 29  1  0  0  0  0
 29 30  2  0  0  0  0
 29 60  1  0  0  0  0
 30 31  1  0  0  0  0
 30 61  1  0  0  0  0
 31 32  2  0  0  0  0
 31 35  1  0  0  0  0
 32 33  1  0  0  0  0
 32 62  1  0  0  0  0
 33 34  1  0  0  0  0
 35 36  1  0  0  0  0
 35 37  1  0  0  0  0
 35 38  1  0  0  0  0
M  END
$$$$
CHEMBL4435655
 OpenBabel12022417453D

 49 52  0  0  0  0  0  0  0  0999 V2000
    5.0993   -2.4545   -0.1871 C   0  0  0  0  0  0  0  0  0  0  0  0
    4.8608   -1.3326    0.8080 C   0  0  0  0  0  0  0  0  0  0  0  0
    5.1939    0.0346    0.2113 C   0  0  0  0  0  0  0  0  0  0  0  0
    4.9527    1.1863    1.1879 C   0  0  0  0  0  0  0  0  0  0  0  0
    5.7248    1.0900    2.5052 C   0  0  0  0  0  0  0  0  0  0  0  0
    7.1766    1.1847    2.3875 N   0  0  0  0  0  0  0  0  0  0  0  0
    8.0734    0.1347    2.5559 C   0  0  0  0  0  0  0  0  0  0  0  0
    9.3508    0.6513    2.7168 C   0  0  0  0  0  0  0  0  0  0  0  0
    9.1948    2.1154    2.5191 C   0  0  0  0  0  0  0  0  0  0  0  0
    7.8351    2.4002    2.3572 C   0  0  0  0  0  0  0  0  0  0  0  0
    7.3315    3.7270    2.2760 C   0  0  0  0  0  0  0  0  0  0  0  0
    8.2369    4.7953    2.3392 C   0  0  0  0  0  0  0  0  0  0  0  0
    9.5921    4.5600    2.4812 C   0  0  0  0  0  0  0  0  0  0  0  0
   10.0768    3.2371    2.5792 C   0  0  0  0  0  0  0  0  0  0  0  0
    7.7755    6.0571    2.2704 F   0  0  0  0  0  0  0  0  0  0  0  0
   10.5541    0.0402    3.3290 C   0  0  0  0  0  0  0  0  0  0  0  0
   11.0927    0.7730    4.1726 O   0  0  0  0  0  0  0  0  0  0  0  0
   11.3623   -1.2561    3.0471 C   0  0  0  0  0  0  0  0  0  0  0  0
   12.7066   -0.9762    3.4027 C   0  0  0  0  0  0  0  0  0  0  0  0
   13.6704   -1.9558    3.5224 C   0  0  0  0  0  0  0  0  0  0  0  0
   13.5876   -2.9462    2.6013 C   0  0  0  0  0  0  0  0  0  0  0  0
   12.3338   -3.3774    2.2473 C   0  0  0  0  0  0  0  0  0  0  0  0
   12.3243   -4.6487    1.6678 C   0  0  0  0  0  0  0  0  0  0  0  0
   11.1953   -5.4215    1.6549 C   0  0  0  0  0  0  0  0  0  0  0  0
   10.0525   -4.8709    2.2294 C   0  0  0  0  0  0  0  0  0  0  0  0
    9.9946   -3.5065    2.6544 C   0  0  0  0  0  0  0  0  0  0  0  0
   11.1434   -2.6486    2.6440 C   0  0  0  0  0  0  0  0  0  0  0  0
    4.8820   -3.4201    0.2797 H   0  0  0  0  0  0  0  0  0  0  0  0
    6.1420   -2.4659   -0.5197 H   0  0  0  0  0  0  0  0  0  0  0  0
    4.4554   -2.3463   -1.0650 H   0  0  0  0  0  0  0  0  0  0  0  0
    5.4788   -1.5271    1.6895 H   0  0  0  0  0  0  0  0  0  0  0  0
    3.8148   -1.3502    1.1345 H   0  0  0  0  0  0  0  0  0  0  0  0
    4.5672    0.2005   -0.6750 H   0  0  0  0  0  0  0  0  0  0  0  0
    6.2335    0.0544   -0.1342 H   0  0  0  0  0  0  0  0  0  0  0  0
    3.8808    1.2287    1.4219 H   0  0  0  0  0  0  0  0  0  0  0  0
    5.1895    2.1292    0.6780 H   0  0  0  0  0  0  0  0  0  0  0  0
    5.4877    0.1774    3.0603 H   0  0  0  0  0  0  0  0  0  0  0  0
    5.4054    1.9162    3.1579 H   0  0  0  0  0  0  0  0  0  0  0  0
    7.7007   -0.8715    2.6925 H   0  0  0  0  0  0  0  0  0  0  0  0
    6.2675    3.9224    2.1840 H   0  0  0  0  0  0  0  0  0  0  0  0
   10.2782    5.4001    2.5409 H   0  0  0  0  0  0  0  0  0  0  0  0
   11.1421    3.0830    2.7339 H   0  0  0  0  0  0  0  0  0  0  0  0
   13.0436    0.0312    3.6420 H   0  0  0  0  0  0  0  0  0  0  0  0
   13.7800   -2.3438    4.5566 H   0  0  0  0  0  0  0  0  0  0  0  0
   14.4801   -3.5542    2.4253 H   0  0  0  0  0  0  0  0  0  0  0  0
   13.2725   -5.0868    1.2863 H   0  0  0  0  0  0  0  0  0  0  0  0
   11.2531   -6.4350    1.3078 H   0  0  0  0  0  0  0  0  0  0  0  0
    9.1976   -5.5326    2.3594 H   0  0  0  0  0  0  0  0  0  0  0  0
    9.0679   -3.1736    3.1108 H   0  0  0  0  0  0  0  0  0  0  0  0
  1  2  1  0  0  0  0
  1 28  1  0  0  0  0
  1 29  1  0  0  0  0
  1 30  1  0  0  0  0
  2  3  1  0  0  0  0
  2 31  1  0  0  0  0
  2 32  1  0  0  0  0
  3  4  1  0  0  0  0
  3 33  1  0  0  0  0
  3 34  1  0  0  0  0
  4  5  1  0  0  0  0
  4 35  1  0  0  0  0
  4 36  1  0  0  0  0
  5  6  1  0  0  0  0
  5 37  1  0  0  0  0
  5 38  1  0  0  0  0
  6 10  1  0  0  0  0
  6  7  1  0  0  0  0
  7  8  2  0  0  0  0
  7 39  1  0  0  0  0
  8  9  1  0  0  0  0
  8 16  1  0  0  0  0
  9 14  2  0  0  0  0
  9 10  1  0  0  0  0
 10 11  2  0  0  0  0
 11 12  1  0  0  0  0
 11 40  1  0  0  0  0
 12 13  2  0  0  0  0
 12 15  1  0  0  0  0
 13 14  1  0  0  0  0
 13 41  1  0  0  0  0
 14 42  1  0  0  0  0
 16 17  2  0  0  0  0
 16 18  1  0  0  0  0
 18 27  2  0  0  0  0
 18 19  1  0  0  0  0
 19 20  2  0  0  0  0
 19 43  1  0  0  0  0
 20 21  1  0  0  0  0
 20 44  1  0  0  0  0
 21 22  2  0  0  0  0
 21 45  1  0  0  0  0
 22 27  1  0  0  0  0
 22 23  1  0  0  0  0
 23 24  2  0  0  0  0
 23 46  1  0  0  0  0
 24 25  1  0  0  0  0
 24 47  1  0  0  0  0
 25 26  2  0  0  0  0
 25 48  1  0  0  0  0
 26 27  1  0  0  0  0
 26 49  1  0  0  0  0
M  END
$$$$
CHEMBL4475213
 OpenBabel12022417453D

 53 56  0  0  0  0  0  0  0  0999 V2000
    1.0655   -0.4085    5.4334 C   0  0  0  0  0  0  0  0  0  0  0  0
    2.5909   -0.3168    5.4710 C   0  0  0  0  0  0  0  0  0  0  0  0
    3.2459   -0.1513    4.0828 C   0  0  0  0  0  0  0  0  0  0  0  0
    4.7923   -0.0199    4.1849 C   0  0  0  0  0  0  0  0  0  0  0  0
    5.5114    0.2821    2.8439 C   0  0  0  0  0  0  0  0  0  0  0  0
    6.9915    0.2686    2.8828 N   0  0  0  0  0  0  0  0  0  0  0  0
    7.8581    1.3686    2.8746 C   0  0  0  0  0  0  0  0  0  0  0  0
    9.2016    0.9636    2.7653 C   0  0  0  0  0  0  0  0  0  0  0  0
    9.0822   -0.5151    2.7165 C   0  0  0  0  0  0  0  0  0  0  0  0
   10.0170   -1.5787    2.6182 C   0  0  0  0  0  0  0  0  0  0  0  0
    9.5933   -2.9207    2.5424 C   0  0  0  0  0  0  0  0  0  0  0  0
    8.2433   -3.2492    2.5684 C   0  0  0  0  0  0  0  0  0  0  0  0
    7.3009   -2.2328    2.6791 C   0  0  0  0  0  0  0  0  0  0  0  0
    7.7282   -0.8880    2.7640 C   0  0  0  0  0  0  0  0  0  0  0  0
   10.5622    1.7320    2.6922 C   0  0  0  0  0  0  0  0  0  0  0  0
   11.5897    1.0534    2.6189 O   0  0  0  0  0  0  0  0  0  0  0  0
   10.8190    3.2798    2.7562 C   0  0  0  0  0  0  0  0  0  0  0  0
    9.7332    4.1040    3.0261 C   0  0  0  0  0  0  0  0  0  0  0  0
    9.8804    5.4657    3.3054 C   0  0  0  0  0  0  0  0  0  0  0  0
   11.1208    6.1054    3.2567 C   0  0  0  0  0  0  0  0  0  0  0  0
   12.2664    5.3850    2.8665 C   0  0  0  0  0  0  0  0  0  0  0  0
   13.5188    6.0547    2.7531 C   0  0  0  0  0  0  0  0  0  0  0  0
   14.6503    5.4443    2.2324 C   0  0  0  0  0  0  0  0  0  0  0  0
   14.5691    4.0976    1.9362 C   0  0  0  0  0  0  0  0  0  0  0  0
   13.3740    3.3689    2.1609 C   0  0  0  0  0  0  0  0  0  0  0  0
   12.1442    3.9590    2.6030 C   0  0  0  0  0  0  0  0  0  0  0  0
   11.0704    7.5605    3.5993 C   0  0  0  0  0  0  0  0  0  0  0  0
   10.4410    7.9524    4.5731 O   0  0  0  0  0  0  0  0  0  0  0  0
   11.6709    8.4566    2.7551 N   0  0  0  0  0  0  0  0  0  0  0  0
    0.6694   -0.5100    6.4516 H   0  0  0  0  0  0  0  0  0  0  0  0
    0.7260   -1.2783    4.8617 H   0  0  0  0  0  0  0  0  0  0  0  0
    0.6187    0.4900    4.9960 H   0  0  0  0  0  0  0  0  0  0  0  0
    2.9756   -1.2217    5.9558 H   0  0  0  0  0  0  0  0  0  0  0  0
    2.8665    0.5318    6.1084 H   0  0  0  0  0  0  0  0  0  0  0  0
    2.8253    0.7337    3.5917 H   0  0  0  0  0  0  0  0  0  0  0  0
    2.9838   -1.0179    3.4620 H   0  0  0  0  0  0  0  0  0  0  0  0
    5.1802   -0.9525    4.6128 H   0  0  0  0  0  0  0  0  0  0  0  0
    5.0324    0.7782    4.8952 H   0  0  0  0  0  0  0  0  0  0  0  0
    5.2010    1.2502    2.4413 H   0  0  0  0  0  0  0  0  0  0  0  0
    5.2130   -0.4733    2.1019 H   0  0  0  0  0  0  0  0  0  0  0  0
    7.3891    2.3325    2.9407 H   0  0  0  0  0  0  0  0  0  0  0  0
   11.0816   -1.3689    2.5959 H   0  0  0  0  0  0  0  0  0  0  0  0
   10.3301   -3.7162    2.4613 H   0  0  0  0  0  0  0  0  0  0  0  0
    7.9271   -4.2819    2.4984 H   0  0  0  0  0  0  0  0  0  0  0  0
    6.2375   -2.4920    2.6987 H   0  0  0  0  0  0  0  0  0  0  0  0
    8.7272    3.7297    3.0294 H   0  0  0  0  0  0  0  0  0  0  0  0
    8.9946    6.0453    3.5624 H   0  0  0  0  0  0  0  0  0  0  0  0
   13.6425    7.0976    3.0458 H   0  0  0  0  0  0  0  0  0  0  0  0
   15.5563    6.0151    2.0605 H   0  0  0  0  0  0  0  0  0  0  0  0
   15.4517    3.6030    1.5291 H   0  0  0  0  0  0  0  0  0  0  0  0
   13.4233    2.3062    1.9362 H   0  0  0  0  0  0  0  0  0  0  0  0
   12.1141    8.2016    1.8876 H   0  0  0  0  0  0  0  0  0  0  0  0
   11.5573    9.4357    2.9726 H   0  0  0  0  0  0  0  0  0  0  0  0
  1  2  1  0  0  0  0
  1 30  1  0  0  0  0
  1 31  1  0  0  0  0
  1 32  1  0  0  0  0
  2  3  1  0  0  0  0
  2 33  1  0  0  0  0
  2 34  1  0  0  0  0
  3  4  1  0  0  0  0
  3 35  1  0  0  0  0
  3 36  1  0  0  0  0
  4  5  1  0  0  0  0
  4 37  1  0  0  0  0
  4 38  1  0  0  0  0
  5  6  1  0  0  0  0
  5 39  1  0  0  0  0
  5 40  1  0  0  0  0
  6 14  1  0  0  0  0
  6  7  1  0  0  0  0
  7  8  2  0  0  0  0
  7 41  1  0  0  0  0
  8  9  1  0  0  0  0
  8 15  1  0  0  0  0
  9 14  2  0  0  0  0
  9 10  1  0  0  0  0
 10 11  2  0  0  0  0
 10 42  1  0  0  0  0
 11 12  1  0  0  0  0
 11 43  1  0  0  0  0
 12 13  2  0  0  0  0
 12 44  1  0  0  0  0
 13 14  1  0  0  0  0
 13 45  1  0  0  0  0
 15 16  2  0  0  0  0
 15 17  1  0  0  0  0
 17 26  2  0  0  0  0
 17 18  1  0  0  0  0
 18 19  2  0  0  0  0
 18 46  1  0  0  0  0
 19 20  1  0  0  0  0
 19 47  1  0  0  0  0
 20 21  2  0  0  0  0
 20 27  1  0  0  0  0
 21 26  1  0  0  0  0
 21 22  1  0  0  0  0
 22 23  2  0  0  0  0
 22 48  1  0  0  0  0
 23 24  1  0  0  0  0
 23 49  1  0  0  0  0
 24 25  2  0  0  0  0
 24 50  1  0  0  0  0
 25 26  1  0  0  0  0
 25 51  1  0  0  0  0
 27 28  2  0  0  0  0
 27 29  1  0  0  0  0
 29 52  1  0  0  0  0
 29 53  1  0  0  0  0
M  END
$$$$
CHEMBL3914978
 OpenBabel12022417453D

 56 60  0  0  1  0  0  0  0  0999 V2000
    8.7545    3.8634   -3.1167 C   0  0  0  0  0  0  0  0  0  0  0  0
    7.6732    3.1622   -2.4039 C   0  0  0  0  0  0  0  0  0  0  0  0
    6.5422    3.6263   -1.9172 N   0  0  0  0  0  0  0  0  0  0  0  0
    5.9904    2.4969   -1.3455 C   0  0  0  0  0  0  0  0  0  0  0  0
    4.6742    2.4880   -0.6122 C   0  0  2  0  0  0  0  0  0  0  0  0
    3.6802    1.4734   -1.2246 C   0  0  0  0  0  0  0  0  0  0  0  0
    3.2095    1.8280   -2.6131 C   0  0  0  0  0  0  0  0  0  0  0  0
    3.6606    1.0363   -3.8147 C   0  0  0  0  0  0  0  0  0  0  0  0
    2.2520    0.8964   -3.3117 C   0  0  0  0  0  0  0  0  0  0  0  0
    4.1203    3.8425   -0.5270 N   0  0  0  0  0  0  0  0  0  0  0  0
    3.0352    4.1447    0.2680 C   0  0  0  0  0  0  0  0  0  0  0  0
    2.4982    3.3232    1.0054 O   0  0  0  0  0  0  0  0  0  0  0  0
    2.5080    5.5476    0.1756 C   0  0  0  0  0  0  0  0  0  0  0  0
    1.3753    5.8935    0.8943 C   0  0  0  0  0  0  0  0  0  0  0  0
    0.8701    7.1867    0.7611 C   0  0  0  0  0  0  0  0  0  0  0  0
    1.4976    8.1335   -0.0652 C   0  0  0  0  0  0  0  0  0  0  0  0
    2.6672    7.6881   -0.7298 C   0  0  0  0  0  0  0  0  0  0  0  0
    3.5133    8.6523   -1.5447 C   0  0  0  0  0  0  0  0  0  0  0  0
    3.3020    8.7200   -3.0443 C   0  0  0  0  0  0  0  0  0  0  0  0
    2.9813    7.5925   -3.8164 C   0  0  0  0  0  0  0  0  0  0  0  0
    2.9948    7.6578   -5.2105 C   0  0  0  0  0  0  0  0  0  0  0  0
    3.3297    8.8488   -5.8444 C   0  0  0  0  0  0  0  0  0  0  0  0
    3.6248    9.9860   -5.1055 C   0  0  0  0  0  0  0  0  0  0  0  0
    3.6081    9.9233   -3.7113 C   0  0  0  0  0  0  0  0  0  0  0  0
    3.4017    8.8936   -7.1806 F   0  0  0  0  0  0  0  0  0  0  0  0
    3.1666    6.4153   -0.6328 N   0  0  0  0  0  0  0  0  0  0  0  0
    0.9613    9.5454   -0.2328 C   0  0  0  0  0  0  0  0  0  0  0  0
   -0.0534   10.2038    0.6729 C   0  0  0  0  0  0  0  0  0  0  0  0
    1.3895   10.5847    0.7864 C   0  0  0  0  0  0  0  0  0  0  0  0
    6.7427    1.3912   -1.4662 N   0  0  0  0  0  0  0  0  0  0  0  0
    7.8562    1.8302   -2.1771 O   0  0  0  0  0  0  0  0  0  0  0  0
    9.3964    3.1599   -3.6567 H   0  0  0  0  0  0  0  0  0  0  0  0
    9.3766    4.4163   -2.4066 H   0  0  0  0  0  0  0  0  0  0  0  0
    8.3412    4.5716   -3.8405 H   0  0  0  0  0  0  0  0  0  0  0  0
    4.8765    2.1744    0.4210 H   0  0  0  0  0  0  0  0  0  0  0  0
    4.1319    0.4717   -1.2270 H   0  0  0  0  0  0  0  0  0  0  0  0
    2.7949    1.3965   -0.5829 H   0  0  0  0  0  0  0  0  0  0  0  0
    3.0212    2.8880   -2.7379 H   0  0  0  0  0  0  0  0  0  0  0  0
    4.3333    0.1979   -3.6713 H   0  0  0  0  0  0  0  0  0  0  0  0
    3.8147    1.5702   -4.7456 H   0  0  0  0  0  0  0  0  0  0  0  0
    1.4518    1.3430   -3.8910 H   0  0  0  0  0  0  0  0  0  0  0  0
    1.9770   -0.0307   -2.8210 H   0  0  0  0  0  0  0  0  0  0  0  0
    4.5506    4.5871   -1.0713 H   0  0  0  0  0  0  0  0  0  0  0  0
    0.8857    5.1728    1.5423 H   0  0  0  0  0  0  0  0  0  0  0  0
   -0.0229    7.4512    1.3218 H   0  0  0  0  0  0  0  0  0  0  0  0
    4.5630    8.3784   -1.3856 H   0  0  0  0  0  0  0  0  0  0  0  0
    3.4201    9.6573   -1.1155 H   0  0  0  0  0  0  0  0  0  0  0  0
    2.7541    6.6402   -3.3416 H   0  0  0  0  0  0  0  0  0  0  0  0
    2.7735    6.7796   -5.8109 H   0  0  0  0  0  0  0  0  0  0  0  0
    3.8971   10.9042   -5.6181 H   0  0  0  0  0  0  0  0  0  0  0  0
    3.8760   10.8136   -3.1451 H   0  0  0  0  0  0  0  0  0  0  0  0
    0.8932    9.8790   -1.2685 H   0  0  0  0  0  0  0  0  0  0  0  0
   -0.4984    9.6587    1.4950 H   0  0  0  0  0  0  0  0  0  0  0  0
   -0.7269   10.9308    0.2287 H   0  0  0  0  0  0  0  0  0  0  0  0
    1.6984   11.5560    0.4184 H   0  0  0  0  0  0  0  0  0  0  0  0
    1.9125   10.2655    1.6821 H   0  0  0  0  0  0  0  0  0  0  0  0
  1  2  1  0  0  0  0
  1 32  1  0  0  0  0
  1 33  1  0  0  0  0
  1 34  1  0  0  0  0
  2 31  1  0  0  0  0
  2  3  2  0  0  0  0
  3  4  1  0  0  0  0
  4 30  2  0  0  0  0
  5 10  1  0  0  0  0
  5  6  1  0  0  0  0
  5  4  1  0  0  0  0
  5 35  1  1  0  0  0
  6  7  1  0  0  0  0
  6 36  1  0  0  0  0
  6 37  1  0  0  0  0
  7  9  1  0  0  0  0
  7  8  1  0  0  0  0
  7 38  1  0  0  0  0
  8  9  1  0  0  0  0
  8 39  1  0  0  0  0
  8 40  1  0  0  0  0
  9 41  1  0  0  0  0
  9 42  1  0  0  0  0
 10 11  1  0  0  0  0
 10 43  1  0  0  0  0
 11 12  2  0  0  0  0
 11 13  1  0  0  0  0
 13 26  2  0  0  0  0
 13 14  1  0  0  0  0
 14 15  2  0  0  0  0
 14 44  1  0  0  0  0
 15 16  1  0  0  0  0
 15 45  1  0  0  0  0
 16 17  2  0  0  0  0
 16 27  1  0  0  0  0
 17 18  1  0  0  0  0
 17 26  1  0  0  0  0
 18 19  1  0  0  0  0
 18 46  1  0  0  0  0
 18 47  1  0  0  0  0
 19 24  2  0  0  0  0
 19 20  1  0  0  0  0
 20 21  2  0  0  0  0
 20 48  1  0  0  0  0
 21 22  1  0  0  0  0
 21 49  1  0  0  0  0
 22 23  2  0  0  0  0
 22 25  1  0  0  0  0
 23 24  1  0  0  0  0
 23 50  1  0  0  0  0
 24 51  1  0  0  0  0
 27 29  1  0  0  0  0
 27 28  1  0  0  0  0
 27 52  1  0  0  0  0
 28 29  1  0  0  0  0
 28 53  1  0  0  0  0
 28 54  1  0  0  0  0
 29 55  1  0  0  0  0
 29 56  1  0  0  0  0
 30 31  1  0  0  0  0
M  END
$$$$
CHEMBL4459965
 OpenBabel12022417453D

 59 63  0  0  0  0  0  0  0  0999 V2000
    1.3635    2.2615    0.4814 C   0  0  0  0  0  0  0  0  0  0  0  0
    2.7271    1.8339    0.4746 O   0  0  0  0  0  0  0  0  0  0  0  0
    3.4610    2.3355    1.5035 C   0  0  0  0  0  0  0  0  0  0  0  0
    3.0352    3.0904    2.3632 O   0  0  0  0  0  0  0  0  0  0  0  0
    4.8645    1.8222    1.4282 C   0  0  0  0  0  0  0  0  0  0  0  0
    5.4003    1.5921    0.1553 C   0  0  0  0  0  0  0  0  0  0  0  0
    6.7033    1.1315    0.0126 C   0  0  0  0  0  0  0  0  0  0  0  0
    7.5340    0.9536    1.1306 C   0  0  0  0  0  0  0  0  0  0  0  0
    7.0162    1.1913    2.4462 C   0  0  0  0  0  0  0  0  0  0  0  0
    7.7806    1.0365    3.6359 C   0  0  0  0  0  0  0  0  0  0  0  0
    7.2433    1.2108    4.9113 C   0  0  0  0  0  0  0  0  0  0  0  0
    5.9164    1.5634    5.0488 C   0  0  0  0  0  0  0  0  0  0  0  0
    5.1406    1.7602    3.9091 C   0  0  0  0  0  0  0  0  0  0  0  0
    5.6543    1.6048    2.5945 C   0  0  0  0  0  0  0  0  0  0  0  0
    8.9161    0.3934    0.8981 C   0  0  0  0  0  0  0  0  0  0  0  0
    9.4190   -0.3458    1.7409 O   0  0  0  0  0  0  0  0  0  0  0  0
    9.6137    0.6154   -0.3742 C   0  0  0  0  0  0  0  0  0  0  0  0
   10.4459   -0.3441   -0.9296 C   0  0  0  0  0  0  0  0  0  0  0  0
   10.9141    0.1143   -2.1303 N   0  0  0  0  0  0  0  0  0  0  0  0
   10.4376    1.3850   -2.3661 C   0  0  0  0  0  0  0  0  0  0  0  0
   10.6492    2.2523   -3.4521 C   0  0  0  0  0  0  0  0  0  0  0  0
   10.0413    3.5078   -3.4164 C   0  0  0  0  0  0  0  0  0  0  0  0
    9.2655    3.8973   -2.3327 C   0  0  0  0  0  0  0  0  0  0  0  0
    9.0750    3.0323   -1.2503 C   0  0  0  0  0  0  0  0  0  0  0  0
    9.6480    1.7410   -1.2663 C   0  0  0  0  0  0  0  0  0  0  0  0
   11.7960   -0.6517   -3.0047 C   0  0  0  0  0  0  0  0  0  0  0  0
   13.2714   -0.3900   -2.6727 C   0  0  0  0  0  0  0  0  0  0  0  0
   14.2448   -1.1183   -3.5154 N   0  0  0  0  0  0  0  0  0  0  0  0
   14.1354   -2.5924   -3.4206 C   0  0  0  0  0  0  0  0  0  0  0  0
   14.5845   -3.1668   -2.0663 C   0  0  0  0  0  0  0  0  0  0  0  0
   15.9254   -2.7730   -1.7503 O   0  0  0  0  0  0  0  0  0  0  0  0
   16.0631   -1.3466   -1.7656 C   0  0  0  0  0  0  0  0  0  0  0  0
   15.6334   -0.7584   -3.1235 C   0  0  0  0  0  0  0  0  0  0  0  0
    0.8835    1.8893   -0.4276 H   0  0  0  0  0  0  0  0  0  0  0  0
    1.2959    3.3548    0.4828 H   0  0  0  0  0  0  0  0  0  0  0  0
    0.8439    1.8411    1.3480 H   0  0  0  0  0  0  0  0  0  0  0  0
    4.8066    1.7619   -0.7410 H   0  0  0  0  0  0  0  0  0  0  0  0
    7.0512    0.9139   -0.9950 H   0  0  0  0  0  0  0  0  0  0  0  0
    8.8327    0.7614    3.5963 H   0  0  0  0  0  0  0  0  0  0  0  0
    7.8650    1.0571    5.7902 H   0  0  0  0  0  0  0  0  0  0  0  0
    5.4780    1.6902    6.0349 H   0  0  0  0  0  0  0  0  0  0  0  0
    4.1007    2.0329    4.0793 H   0  0  0  0  0  0  0  0  0  0  0  0
   10.7139   -1.3244   -0.5561 H   0  0  0  0  0  0  0  0  0  0  0  0
   11.2658    1.9675   -4.2987 H   0  0  0  0  0  0  0  0  0  0  0  0
   10.1855    4.1958   -4.2485 H   0  0  0  0  0  0  0  0  0  0  0  0
    8.8052    4.8823   -2.3214 H   0  0  0  0  0  0  0  0  0  0  0  0
    8.4738    3.3663   -0.4088 H   0  0  0  0  0  0  0  0  0  0  0  0
   11.5629   -0.3907   -4.0422 H   0  0  0  0  0  0  0  0  0  0  0  0
   11.5300   -1.7044   -2.8612 H   0  0  0  0  0  0  0  0  0  0  0  0
   13.4313   -0.5939   -1.6083 H   0  0  0  0  0  0  0  0  0  0  0  0
   13.4551    0.6851   -2.8048 H   0  0  0  0  0  0  0  0  0  0  0  0
   14.7794   -3.0163   -4.2033 H   0  0  0  0  0  0  0  0  0  0  0  0
   13.1245   -2.9329   -3.6643 H   0  0  0  0  0  0  0  0  0  0  0  0
   14.5673   -4.2606   -2.1099 H   0  0  0  0  0  0  0  0  0  0  0  0
   13.9142   -2.8606   -1.2554 H   0  0  0  0  0  0  0  0  0  0  0  0
   17.1163   -1.1145   -1.5789 H   0  0  0  0  0  0  0  0  0  0  0  0
   15.4890   -0.9210   -0.9350 H   0  0  0  0  0  0  0  0  0  0  0  0
   15.7635    0.3300   -3.1261 H   0  0  0  0  0  0  0  0  0  0  0  0
   16.3073   -1.1483   -3.8980 H   0  0  0  0  0  0  0  0  0  0  0  0
  1  2  1  0  0  0  0
  1 34  1  0  0  0  0
  1 35  1  0  0  0  0
  1 36  1  0  0  0  0
  2  3  1  0  0  0  0
  3  4  2  0  0  0  0
  3  5  1  0  0  0  0
  5 14  2  0  0  0  0
  5  6  1  0  0  0  0
  6  7  2  0  0  0  0
  6 37  1  0  0  0  0
  7  8  1  0  0  0  0
  7 38  1  0  0  0  0
  8  9  2  0  0  0  0
  8 15  1  0  0  0  0
  9 14  1  0  0  0  0
  9 10  1  0  0  0  0
 10 11  2  0  0  0  0
 10 39  1  0  0  0  0
 11 12  1  0  0  0  0
 11 40  1  0  0  0  0
 12 13  2  0  0  0  0
 12 41  1  0  0  0  0
 13 14  1  0  0  0  0
 13 42  1  0  0  0  0
 15 16  2  0  0  0  0
 15 17  1  0  0  0  0
 17 25  1  0  0  0  0
 17 18  2  0  0  0  0
 18 19  1  0  0  0  0
 18 43  1  0  0  0  0
 19 20  1  0  0  0  0
 19 26  1  0  0  0  0
 20 25  2  0  0  0  0
 20 21  1  0  0  0  0
 21 22  2  0  0  0  0
 21 44  1  0  0  0  0
 22 23  1  0  0  0  0
 22 45  1  0  0  0  0
 23 24  2  0  0  0  0
 23 46  1  0  0  0  0
 24 25  1  0  0  0  0
 24 47  1  0  0  0  0
 26 27  1  0  0  0  0
 26 48  1  0  0  0  0
 26 49  1  0  0  0  0
 27 28  1  0  0  0  0
 27 50  1  0  0  0  0
 27 51  1  0  0  0  0
 28 33  1  0  0  0  0
 28 29  1  0  0  0  0
 29 30  1  0  0  0  0
 29 52  1  0  0  0  0
 29 53  1  0  0  0  0
 30 31  1  0  0  0  0
 30 54  1  0  0  0  0
 30 55  1  0  0  0  0
 31 32  1  0  0  0  0
 32 33  1  0  0  0  0
 32 56  1  0  0  0  0
 32 57  1  0  0  0  0
 33 58  1  0  0  0  0
 33 59  1  0  0  0  0
M  END
$$$$
CHEMBL3932852
 OpenBabel12022417453D

 65 69  0  0  1  0  0  0  0  0999 V2000
    1.1786    0.5212   -0.0652 C   0  0  1  0  0  0  0  0  0  0  0  0
    0.5018    1.8376    0.2948 C   0  0  0  0  0  0  0  0  0  0  0  0
   -0.2947    1.9216    1.4395 C   0  0  0  0  0  0  0  0  0  0  0  0
   -0.9208    3.1283    1.7463 C   0  0  0  0  0  0  0  0  0  0  0  0
   -0.7343    4.2210    0.9114 C   0  0  0  0  0  0  0  0  0  0  0  0
    0.0759    4.0598   -0.2001 C   0  0  0  0  0  0  0  0  0  0  0  0
    0.6980    2.9037   -0.5260 N   0  0  0  0  0  0  0  0  0  0  0  0
    0.7537    0.0290   -1.4459 C   0  0  0  0  0  0  0  0  0  0  0  0
    2.6291    0.6007    0.0201 N   0  0  0  0  0  0  0  0  0  0  0  0
    3.2805    0.3214    1.1982 C   0  0  0  0  0  0  0  0  0  0  0  0
    2.6641    0.0146    2.2180 O   0  0  0  0  0  0  0  0  0  0  0  0
    4.7590    0.3938    1.1567 C   0  0  0  0  0  0  0  0  0  0  0  0
    5.6310    0.2129    2.2655 C   0  0  0  0  0  0  0  0  0  0  0  0
    6.9153    0.3700    1.7643 C   0  0  0  0  0  0  0  0  0  0  0  0
    8.1298    0.3026    2.5346 C   0  0  0  0  0  0  0  0  0  0  0  0
    9.1337   -0.5141    2.1426 C   0  0  0  0  0  0  0  0  0  0  0  0
   10.3686   -0.7435    2.9107 C   0  0  0  0  0  0  0  0  0  0  0  0
   11.4952    0.0593    2.7114 C   0  0  0  0  0  0  0  0  0  0  0  0
   12.6543   -0.1418    3.4749 C   0  0  0  0  0  0  0  0  0  0  0  0
   12.7015   -1.1491    4.4506 C   0  0  0  0  0  0  0  0  0  0  0  0
   11.5715   -1.9583    4.6345 C   0  0  0  0  0  0  0  0  0  0  0  0
   10.4168   -1.7586    3.8696 C   0  0  0  0  0  0  0  0  0  0  0  0
   13.9323   -1.3639    5.3003 C   0  0  0  0  0  0  0  0  0  0  0  0
   14.9560   -0.5143    5.0058 F   0  0  0  0  0  0  0  0  0  0  0  0
   13.6808   -1.1952    6.6286 F   0  0  0  0  0  0  0  0  0  0  0  0
   14.4430   -2.6201    5.1743 F   0  0  0  0  0  0  0  0  0  0  0  0
    8.1423    1.0059    3.8875 C   0  0  0  0  0  0  0  0  0  0  0  0
    7.4384    0.1968    4.9874 C   0  0  0  0  0  0  0  0  0  0  0  0
    6.3176   -0.7487    4.5340 C   0  0  0  0  0  0  0  0  0  0  0  0
    5.2333   -0.0863    3.6824 C   0  0  0  0  0  0  0  0  0  0  0  0
    6.7761    0.6345    0.4022 N   0  0  0  0  0  0  0  0  0  0  0  0
    7.7620    0.9075   -0.6002 C   0  0  0  0  0  0  0  0  0  0  0  0
    9.0128    1.4511   -0.2870 C   0  0  0  0  0  0  0  0  0  0  0  0
    9.9944    1.5881   -1.2745 C   0  0  0  0  0  0  0  0  0  0  0  0
    9.7269    1.2122   -2.5920 C   0  0  0  0  0  0  0  0  0  0  0  0
    8.4584    0.7291   -2.9289 C   0  0  0  0  0  0  0  0  0  0  0  0
    7.4750    0.5922   -1.9399 C   0  0  0  0  0  0  0  0  0  0  0  0
    8.0538    0.2519   -4.5399 Cl  0  0  0  0  0  0  0  0  0  0  0  0
   11.0036    1.3658   -3.7455 Cl  0  0  0  0  0  0  0  0  0  0  0  0
    5.4577    0.5988    0.0251 N   0  0  0  0  0  0  0  0  0  0  0  0
    0.8470   -0.2416    0.6515 H   0  0  0  0  0  0  0  0  0  0  0  0
   -0.4282    1.0625    2.0907 H   0  0  0  0  0  0  0  0  0  0  0  0
   -1.5461    3.2114    2.6315 H   0  0  0  0  0  0  0  0  0  0  0  0
   -1.2083    5.1737    1.1208 H   0  0  0  0  0  0  0  0  0  0  0  0
    0.2517    4.8864   -0.8830 H   0  0  0  0  0  0  0  0  0  0  0  0
    1.0254    0.7375   -2.2355 H   0  0  0  0  0  0  0  0  0  0  0  0
   -0.3299   -0.1280   -1.4882 H   0  0  0  0  0  0  0  0  0  0  0  0
    1.2412   -0.9252   -1.6764 H   0  0  0  0  0  0  0  0  0  0  0  0
    3.1574    1.0779   -0.7020 H   0  0  0  0  0  0  0  0  0  0  0  0
    9.0736   -1.0966    1.2257 H   0  0  0  0  0  0  0  0  0  0  0  0
   11.4839    0.8546    1.9710 H   0  0  0  0  0  0  0  0  0  0  0  0
   13.5190    0.4991    3.3067 H   0  0  0  0  0  0  0  0  0  0  0  0
   11.5832   -2.7492    5.3859 H   0  0  0  0  0  0  0  0  0  0  0  0
    9.5489   -2.3960    4.0399 H   0  0  0  0  0  0  0  0  0  0  0  0
    7.6278    1.9708    3.7740 H   0  0  0  0  0  0  0  0  0  0  0  0
    9.1543    1.2703    4.2128 H   0  0  0  0  0  0  0  0  0  0  0  0
    7.0343    0.8984    5.7278 H   0  0  0  0  0  0  0  0  0  0  0  0
    8.1858   -0.4032    5.5205 H   0  0  0  0  0  0  0  0  0  0  0  0
    5.8454   -1.1633    5.4334 H   0  0  0  0  0  0  0  0  0  0  0  0
    6.7438   -1.6084    3.9998 H   0  0  0  0  0  0  0  0  0  0  0  0
    4.3893   -0.7847    3.6666 H   0  0  0  0  0  0  0  0  0  0  0  0
    4.8839    0.8353    4.1621 H   0  0  0  0  0  0  0  0  0  0  0  0
    9.2514    1.7964    0.7148 H   0  0  0  0  0  0  0  0  0  0  0  0
   10.9708    1.9859   -1.0059 H   0  0  0  0  0  0  0  0  0  0  0  0
    6.5010    0.1908   -2.2161 H   0  0  0  0  0  0  0  0  0  0  0  0
  1  2  1  0  0  0  0
  1  8  1  0  0  0  0
  1  9  1  0  0  0  0
  1 41  1  1  0  0  0
  2  7  2  0  0  0  0
  2  3  1  0  0  0  0
  3  4  2  0  0  0  0
  3 42  1  0  0  0  0
  4  5  1  0  0  0  0
  4 43  1  0  0  0  0
  5  6  2  0  0  0  0
  5 44  1  0  0  0  0
  6  7  1  0  0  0  0
  6 45  1  0  0  0  0
  8 46  1  0  0  0  0
  8 47  1  0  0  0  0
  8 48  1  0  0  0  0
  9 10  1  0  0  0  0
  9 49  1  0  0  0  0
 10 11  2  0  0  0  0
 10 12  1  0  0  0  0
 12 40  2  0  0  0  0
 12 13  1  0  0  0  0
 13 30  1  0  0  0  0
 13 14  2  0  0  0  0
 14 15  1  0  0  0  0
 14 31  1  0  0  0  0
 15 16  2  0  0  0  0
 15 27  1  0  0  0  0
 16 17  1  0  0  0  0
 16 50  1  0  0  0  0
 17 22  2  0  0  0  0
 17 18  1  0  0  0  0
 18 19  2  0  0  0  0
 18 51  1  0  0  0  0
 19 20  1  0  0  0  0
 19 52  1  0  0  0  0
 20 21  2  0  0  0  0
 20 23  1  0  0  0  0
 21 22  1  0  0  0  0
 21 53  1  0  0  0  0
 22 54  1  0  0  0  0
 23 24  1  0  0  0  0
 23 25  1  0  0  0  0
 23 26  1  0  0  0  0
 27 28  1  0  0  0  0
 27 55  1  0  0  0  0
 27 56  1  0  0  0  0
 28 29  1  0  0  0  0
 28 57  1  0  0  0  0
 28 58  1  0  0  0  0
 29 30  1  0  0  0  0
 29 59  1  0  0  0  0
 29 60  1  0  0  0  0
 30 61  1  0  0  0  0
 30 62  1  0  0  0  0
 31 32  1  0  0  0  0
 31 40  1  0  0  0  0
 32 37  2  0  0  0  0
 32 33  1  0  0  0  0
 33 34  2  0  0  0  0
 33 63  1  0  0  0  0
 34 35  1  0  0  0  0
 34 64  1  0  0  0  0
 35 36  2  0  0  0  0
 35 39  1  0  0  0  0
 36 37  1  0  0  0  0
 36 38  1  0  0  0  0
 37 65  1  0  0  0  0
M  END
$$$$
CHEMBL3900808
 OpenBabel12022417453D

 53 57  0  0  0  0  0  0  0  0999 V2000
    1.6861   -0.3267   -1.3091 C   0  0  0  0  0  0  0  0  0  0  0  0
    0.9886   -0.5344   -2.5086 C   0  0  0  0  0  0  0  0  0  0  0  0
    1.6720   -0.5340   -3.7206 C   0  0  0  0  0  0  0  0  0  0  0  0
    3.0484   -0.3583   -3.7491 C   0  0  0  0  0  0  0  0  0  0  0  0
    3.7420   -0.1802   -2.5559 C   0  0  0  0  0  0  0  0  0  0  0  0
    3.0806   -0.1366   -1.3114 C   0  0  0  0  0  0  0  0  0  0  0  0
    3.8985    0.0364   -0.0079 C   0  0  0  0  0  0  0  0  0  0  0  0
    4.9199   -1.1038    0.1667 C   0  0  0  0  0  0  0  0  0  0  0  0
    4.6859   -2.3640   -0.4253 C   0  0  0  0  0  0  0  0  0  0  0  0
    5.6752   -3.3391   -0.4452 C   0  0  0  0  0  0  0  0  0  0  0  0
    6.8938   -3.0944    0.1840 C   0  0  0  0  0  0  0  0  0  0  0  0
    7.1161   -1.8874    0.8431 C   0  0  0  0  0  0  0  0  0  0  0  0
    6.1352   -0.9010    0.8417 C   0  0  0  0  0  0  0  0  0  0  0  0
    8.1320   -4.2823    0.1208 Cl  0  0  0  0  0  0  0  0  0  0  0  0
    4.5350    1.4401    0.1019 C   0  0  0  0  0  0  0  0  0  0  0  0
    5.4441    1.9188   -0.8641 C   0  0  0  0  0  0  0  0  0  0  0  0
    5.8841    3.2501   -0.8927 C   0  0  0  0  0  0  0  0  0  0  0  0
    5.4592    4.0853    0.1423 C   0  0  0  0  0  0  0  0  0  0  0  0
    4.6645    3.6105    1.1853 C   0  0  0  0  0  0  0  0  0  0  0  0
    4.2155    2.2851    1.1720 C   0  0  0  0  0  0  0  0  0  0  0  0
    5.8383    5.4309    0.1439 N   0  0  0  0  0  0  0  0  0  0  0  0
    6.6203    5.9897   -0.8317 C   0  0  0  0  0  0  0  0  0  0  0  0
    6.9454    7.1604   -0.8066 O   0  0  0  0  0  0  0  0  0  0  0  0
    7.0435    5.1038   -1.9342 C   0  0  0  0  0  0  0  0  0  0  0  0
    6.7065    3.7926   -2.0051 C   0  0  0  0  0  0  0  0  0  0  0  0
    7.0701    2.9581   -3.0601 N   0  0  0  0  0  0  0  0  0  0  0  0
    6.6811    3.1361   -4.4110 C   0  0  0  0  0  0  0  0  0  0  0  0
    7.1761    2.2682   -5.4006 C   0  0  0  0  0  0  0  0  0  0  0  0
    6.9010    2.5087   -6.7517 C   0  0  0  0  0  0  0  0  0  0  0  0
    6.1333    3.6003   -7.1373 C   0  0  0  0  0  0  0  0  0  0  0  0
    5.6258    4.4626   -6.1650 C   0  0  0  0  0  0  0  0  0  0  0  0
    5.9078    4.2268   -4.8212 C   0  0  0  0  0  0  0  0  0  0  0  0
    5.8138    3.9188   -8.7966 Cl  0  0  0  0  0  0  0  0  0  0  0  0
    7.4055    1.6682   -7.6727 F   0  0  0  0  0  0  0  0  0  0  0  0
    0.8090   -0.7501   -5.1916 Cl  0  0  0  0  0  0  0  0  0  0  0  0
    1.1100   -0.3022   -0.3866 H   0  0  0  0  0  0  0  0  0  0  0  0
   -0.0904   -0.6715   -2.4884 H   0  0  0  0  0  0  0  0  0  0  0  0
    3.5889   -0.3376   -4.6901 H   0  0  0  0  0  0  0  0  0  0  0  0
    4.8198   -0.0864   -2.6095 H   0  0  0  0  0  0  0  0  0  0  0  0
    3.1798   -0.0448    0.8266 H   0  0  0  0  0  0  0  0  0  0  0  0
    3.7549   -2.5667   -0.9496 H   0  0  0  0  0  0  0  0  0  0  0  0
    5.5009   -4.2722   -0.9770 H   0  0  0  0  0  0  0  0  0  0  0  0
    8.0690   -1.7006    1.3382 H   0  0  0  0  0  0  0  0  0  0  0  0
    6.3513    0.0508    1.3231 H   0  0  0  0  0  0  0  0  0  0  0  0
    5.8074    1.2470   -1.6247 H   0  0  0  0  0  0  0  0  0  0  0  0
    4.3530    4.2670    1.9912 H   0  0  0  0  0  0  0  0  0  0  0  0
    3.5888    1.9354    1.9907 H   0  0  0  0  0  0  0  0  0  0  0  0
    5.5515    6.0494    0.8836 H   0  0  0  0  0  0  0  0  0  0  0  0
    7.6295    5.5920   -2.7011 H   0  0  0  0  0  0  0  0  0  0  0  0
    7.2012    1.9820   -2.8172 H   0  0  0  0  0  0  0  0  0  0  0  0
    7.7931    1.4140   -5.1465 H   0  0  0  0  0  0  0  0  0  0  0  0
    5.0309    5.3262   -6.4447 H   0  0  0  0  0  0  0  0  0  0  0  0
    5.5123    4.9230   -4.0823 H   0  0  0  0  0  0  0  0  0  0  0  0
  1  6  2  0  0  0  0
  1  2  1  0  0  0  0
  1 36  1  0  0  0  0
  2  3  2  0  0  0  0
  2 37  1  0  0  0  0
  3  4  1  0  0  0  0
  3 35  1  0  0  0  0
  4  5  2  0  0  0  0
  4 38  1  0  0  0  0
  5  6  1  0  0  0  0
  5 39  1  0  0  0  0
  6  7  1  0  0  0  0
  7  8  1  0  0  0  0
  7 15  1  0  0  0  0
  7 40  1  0  0  0  0
  8 13  2  0  0  0  0
  8  9  1  0  0  0  0
  9 10  2  0  0  0  0
  9 41  1  0  0  0  0
 10 11  1  0  0  0  0
 10 42  1  0  0  0  0
 11 12  2  0  0  0  0
 11 14  1  0  0  0  0
 12 13  1  0  0  0  0
 12 43  1  0  0  0  0
 13 44  1  0  0  0  0
 15 20  2  0  0  0  0
 15 16  1  0  0  0  0
 16 17  2  0  0  0  0
 16 45  1  0  0  0  0
 17 25  1  0  0  0  0
 17 18  1  0  0  0  0
 18 19  2  0  0  0  0
 18 21  1  0  0  0  0
 19 20  1  0  0  0  0
 19 46  1  0  0  0  0
 20 47  1  0  0  0  0
 21 22  1  0  0  0  0
 21 48  1  0  0  0  0
 22 23  2  0  0  0  0
 22 24  1  0  0  0  0
 24 25  2  0  0  0  0
 24 49  1  0  0  0  0
 25 26  1  0  0  0  0
 26 27  1  0  0  0  0
 26 50  1  0  0  0  0
 27 32  2  0  0  0  0
 27 28  1  0  0  0  0
 28 29  2  0  0  0  0
 28 51  1  0  0  0  0
 29 30  1  0  0  0  0
 29 34  1  0  0  0  0
 30 31  2  0  0  0  0
 30 33  1  0  0  0  0
 31 32  1  0  0  0  0
 31 52  1  0  0  0  0
 32 53  1  0  0  0  0
M  END
$$$$
CHEMBL3260743
 OpenBabel12022417453D

 58 62  0  0  0  0  0  0  0  0999 V2000
    1.0470    0.0550   -0.2624 C   0  0  0  0  0  0  0  0  0  0  0  0
    2.4813    0.5602   -0.2696 C   0  0  0  0  0  0  0  0  0  0  0  0
    2.9681    0.8156   -1.6046 N   0  0  0  0  0  0  0  0  0  0  0  0
    3.4301   -0.1748   -2.4788 C   0  0  0  0  0  0  0  0  0  0  0  0
    3.5256   -1.3659   -2.2313 O   0  0  0  0  0  0  0  0  0  0  0  0
    3.7077    0.5034   -3.6458 N   0  0  0  0  0  0  0  0  0  0  0  0
    3.3327    1.7925   -3.4519 C   0  0  0  0  0  0  0  0  0  0  0  0
    3.4953    2.7473   -4.5875 C   0  0  0  0  0  0  0  0  0  0  0  0
    3.2550    4.1844   -4.3464 C   0  0  0  0  0  0  0  0  0  0  0  0
    4.2564    5.0013   -3.8076 C   0  0  0  0  0  0  0  0  0  0  0  0
    3.9934    6.3465   -3.5258 C   0  0  0  0  0  0  0  0  0  0  0  0
    2.7292    6.8753   -3.7834 C   0  0  0  0  0  0  0  0  0  0  0  0
    1.7300    6.0807   -4.3394 C   0  0  0  0  0  0  0  0  0  0  0  0
    1.9937    4.7359   -4.6219 C   0  0  0  0  0  0  0  0  0  0  0  0
    2.3942    8.5176   -3.3894 Cl  0  0  0  0  0  0  0  0  0  0  0  0
    3.8703    2.2525   -5.7900 C   0  0  0  0  0  0  0  0  0  0  0  0
    4.2315    3.0989   -6.9502 C   0  0  0  0  0  0  0  0  0  0  0  0
    3.3119    3.3652   -7.9645 C   0  0  0  0  0  0  0  0  0  0  0  0
    3.7654    4.0130   -9.1047 C   0  0  0  0  0  0  0  0  0  0  0  0
    5.0410    4.4146   -9.2884 N   0  0  0  0  0  0  0  0  0  0  0  0
    5.9121    4.1463   -8.2953 C   0  0  0  0  0  0  0  0  0  0  0  0
    5.5612    3.5027   -7.1191 C   0  0  0  0  0  0  0  0  0  0  0  0
    3.9915    0.7674   -6.0069 C   0  0  0  0  0  0  0  0  0  0  0  0
    4.1207    0.3166   -7.1406 O   0  0  0  0  0  0  0  0  0  0  0  0
    4.0105   -0.0286   -4.8875 N   0  0  0  0  0  0  0  0  0  0  0  0
    4.4185   -1.4308   -4.9549 C   0  0  0  0  0  0  0  0  0  0  0  0
    5.8236   -1.6877   -4.4457 C   0  0  0  0  0  0  0  0  0  0  0  0
    6.8328   -0.7266   -4.6232 C   0  0  0  0  0  0  0  0  0  0  0  0
    8.1241   -0.9506   -4.1551 C   0  0  0  0  0  0  0  0  0  0  0  0
    8.4135   -2.1580   -3.5338 C   0  0  0  0  0  0  0  0  0  0  0  0
    9.8058   -2.4044   -2.9680 C   0  0  0  0  0  0  0  0  0  0  0  0
   10.6376   -1.3258   -3.1045 F   0  0  0  0  0  0  0  0  0  0  0  0
    9.7993   -2.6815   -1.6322 F   0  0  0  0  0  0  0  0  0  0  0  0
   10.4597   -3.4398   -3.5676 F   0  0  0  0  0  0  0  0  0  0  0  0
    7.4657   -3.1272   -3.4021 N   0  0  0  0  0  0  0  0  0  0  0  0
    6.2001   -2.8970   -3.8493 C   0  0  0  0  0  0  0  0  0  0  0  0
    5.2555   -4.0369   -3.5969 C   0  0  0  0  0  0  0  0  0  0  0  0
    2.8847    2.0378   -2.2530 N   0  0  0  0  0  0  0  0  0  0  0  0
    0.7701   -0.2891    0.7396 H   0  0  0  0  0  0  0  0  0  0  0  0
    0.9116   -0.7823   -0.9558 H   0  0  0  0  0  0  0  0  0  0  0  0
    0.3529    0.8480   -0.5562 H   0  0  0  0  0  0  0  0  0  0  0  0
    3.1220   -0.2146    0.1703 H   0  0  0  0  0  0  0  0  0  0  0  0
    2.5830    1.4661    0.3347 H   0  0  0  0  0  0  0  0  0  0  0  0
    5.2438    4.6006   -3.5897 H   0  0  0  0  0  0  0  0  0  0  0  0
    4.7717    6.9712   -3.0962 H   0  0  0  0  0  0  0  0  0  0  0  0
    0.7462    6.4956   -4.5442 H   0  0  0  0  0  0  0  0  0  0  0  0
    1.1989    4.1246   -5.0433 H   0  0  0  0  0  0  0  0  0  0  0  0
    2.2832    3.0327   -7.9052 H   0  0  0  0  0  0  0  0  0  0  0  0
    3.0967    4.2117   -9.9377 H   0  0  0  0  0  0  0  0  0  0  0  0
    6.9373    4.4514   -8.4851 H   0  0  0  0  0  0  0  0  0  0  0  0
    6.3238    3.2862   -6.3801 H   0  0  0  0  0  0  0  0  0  0  0  0
    4.3881   -1.7667   -5.9982 H   0  0  0  0  0  0  0  0  0  0  0  0
    3.6550   -2.0143   -4.4388 H   0  0  0  0  0  0  0  0  0  0  0  0
    6.6266    0.2166   -5.1224 H   0  0  0  0  0  0  0  0  0  0  0  0
    8.8850   -0.1837   -4.2709 H   0  0  0  0  0  0  0  0  0  0  0  0
    4.2963   -3.9392   -4.1069 H   0  0  0  0  0  0  0  0  0  0  0  0
    5.0699   -4.1217   -2.5216 H   0  0  0  0  0  0  0  0  0  0  0  0
    5.7051   -4.9721   -3.9477 H   0  0  0  0  0  0  0  0  0  0  0  0
  1  2  1  0  0  0  0
  1 39  1  0  0  0  0
  1 40  1  0  0  0  0
  1 41  1  0  0  0  0
  2  3  1  0  0  0  0
  2 42  1  0  0  0  0
  2 43  1  0  0  0  0
  3 38  1  0  0  0  0
  3  4  1  0  0  0  0
  4  5  2  0  0  0  0
  4  6  1  0  0  0  0
  6 25  1  0  0  0  0
  6  7  1  0  0  0  0
  7  8  1  0  0  0  0
  7 38  2  0  0  0  0
  8  9  1  0  0  0  0
  8 16  2  0  0  0  0
  9 14  2  0  0  0  0
  9 10  1  0  0  0  0
 10 11  2  0  0  0  0
 10 44  1  0  0  0  0
 11 12  1  0  0  0  0
 11 45  1  0  0  0  0
 12 13  2  0  0  0  0
 12 15  1  0  0  0  0
 13 14  1  0  0  0  0
 13 46  1  0  0  0  0
 14 47  1  0  0  0  0
 16 17  1  0  0  0  0
 16 23  1  0  0  0  0
 17 22  2  0  0  0  0
 17 18  1  0  0  0  0
 18 19  2  0  0  0  0
 18 48  1  0  0  0  0
 19 20  1  0  0  0  0
 19 49  1  0  0  0  0
 20 21  2  0  0  0  0
 21 22  1  0  0  0  0
 21 50  1  0  0  0  0
 22 51  1  0  0  0  0
 23 24  2  0  0  0  0
 23 25  1  0  0  0  0
 25 26  1  0  0  0  0
 26 27  1  0  0  0  0
 26 52  1  0  0  0  0
 26 53  1  0  0  0  0
 27 36  2  0  0  0  0
 27 28  1  0  0  0  0
 28 29  2  0  0  0  0
 28 54  1  0  0  0  0
 29 30  1  0  0  0  0
 29 55  1  0  0  0  0
 30 31  1  0  0  0  0
 30 35  2  0  0  0  0
 31 32  1  0  0  0  0
 31 33  1  0  0  0  0
 31 34  1  0  0  0  0
 35 36  1  0  0  0  0
 36 37  1  0  0  0  0
 37 56  1  0  0  0  0
 37 57  1  0  0  0  0
 37 58  1  0  0  0  0
M  END
$$$$
CHEMBL5266788
 OpenBabel12022417453D

 66 70  0  0  1  0  0  0  0  0999 V2000
    1.2992    0.1077   -0.1522 C   0  0  0  0  0  0  0  0  0  0  0  0
    2.7853   -0.0274   -0.1472 C   0  0  0  0  0  0  0  0  0  0  0  0
    3.7296    1.0125   -0.1362 C   0  0  0  0  0  0  0  0  0  0  0  0
    3.5289    2.4887   -0.0910 C   0  0  0  0  0  0  0  0  0  0  0  0
    4.3490    3.3794   -0.8054 C   0  0  0  0  0  0  0  0  0  0  0  0
    4.2002    4.7701   -0.6936 C   0  0  0  0  0  0  0  0  0  0  0  0
    3.1776    5.3053    0.0803 C   0  0  0  0  0  0  0  0  0  0  0  0
    2.3184    4.4488    0.7577 C   0  0  0  0  0  0  0  0  0  0  0  0
    2.5066    3.0600    0.6879 C   0  0  0  0  0  0  0  0  0  0  0  0
    4.9481    0.3574   -0.1193 N   0  0  0  0  0  0  0  0  0  0  0  0
    6.2907    0.9059   -0.0352 C   0  0  0  0  0  0  0  0  0  0  0  0
    6.5962    1.7254    1.2186 C   0  0  0  0  0  0  0  0  0  0  0  0
    6.4675    0.9189    2.5106 C   0  0  0  0  0  0  0  0  0  0  0  0
    6.7910    1.7962    3.7175 C   0  0  0  0  0  0  0  0  0  0  0  0
    6.6742    1.0271    5.0238 C   0  0  0  0  0  0  0  0  0  0  0  0
    6.9818    1.8871    6.1137 O   0  0  0  0  0  0  0  0  0  0  0  0
    4.8562   -0.9879   -0.1868 N   0  0  0  0  0  0  0  0  0  0  0  0
    3.5390   -1.2527   -0.1710 C   0  0  0  0  0  0  0  0  0  0  0  0
    3.0545   -2.6624   -0.1863 C   0  0  0  0  0  0  0  0  0  0  0  0
    1.8647   -2.9481   -0.1033 O   0  0  0  0  0  0  0  0  0  0  0  0
    4.0582   -3.6191   -0.3088 N   0  0  0  0  0  0  0  0  0  0  0  0
    3.8396   -5.0745   -0.4183 C   0  0  1  0  0  0  0  0  0  0  0  0
    3.1237   -5.6387    0.8375 C   0  0  0  0  0  0  0  0  0  0  0  0
    2.8726   -7.1520    0.7000 C   0  0  1  0  0  0  0  0  0  0  0  0
    2.0251   -7.4113   -0.5555 C   0  0  0  0  0  0  0  0  0  0  0  0
    2.7741   -6.9244   -1.8076 C   0  0  1  0  0  0  0  0  0  0  0  0
    3.0192   -5.4115   -1.6900 C   0  0  0  0  0  0  0  0  0  0  0  0
    4.1225   -7.6516   -1.9145 C   0  0  0  0  0  0  0  0  0  0  0  0
    4.9716   -7.3584   -0.6664 C   0  0  2  0  0  0  0  0  0  0  0  0
    4.2167   -7.8837    0.5657 C   0  0  0  0  0  0  0  0  0  0  0  0
    5.1958   -5.8346   -0.5332 C   0  0  0  0  0  0  0  0  0  0  0  0
    0.7832   -0.8461   -0.2684 H   0  0  0  0  0  0  0  0  0  0  0  0
    0.9772    0.7527   -0.9763 H   0  0  0  0  0  0  0  0  0  0  0  0
    0.9460    0.5402    0.7883 H   0  0  0  0  0  0  0  0  0  0  0  0
    5.1312    3.0169   -1.4620 H   0  0  0  0  0  0  0  0  0  0  0  0
    4.8829    5.4333   -1.2180 H   0  0  0  0  0  0  0  0  0  0  0  0
    3.0498    6.3820    0.1543 H   0  0  0  0  0  0  0  0  0  0  0  0
    1.5057    4.8573    1.3524 H   0  0  0  0  0  0  0  0  0  0  0  0
    1.8367    2.4374    1.2717 H   0  0  0  0  0  0  0  0  0  0  0  0
    6.4666    1.4871   -0.9439 H   0  0  0  0  0  0  0  0  0  0  0  0
    6.9926    0.0632   -0.0855 H   0  0  0  0  0  0  0  0  0  0  0  0
    5.9494    2.6051    1.2805 H   0  0  0  0  0  0  0  0  0  0  0  0
    7.6222    2.1055    1.1369 H   0  0  0  0  0  0  0  0  0  0  0  0
    7.1494    0.0612    2.4784 H   0  0  0  0  0  0  0  0  0  0  0  0
    5.4504    0.5248    2.6107 H   0  0  0  0  0  0  0  0  0  0  0  0
    6.1179    2.6622    3.7469 H   0  0  0  0  0  0  0  0  0  0  0  0
    7.8038    2.2082    3.6247 H   0  0  0  0  0  0  0  0  0  0  0  0
    7.3615    0.1748    5.0503 H   0  0  0  0  0  0  0  0  0  0  0  0
    5.6549    0.6496    5.1710 H   0  0  0  0  0  0  0  0  0  0  0  0
    7.8943    2.2017    5.9894 H   0  0  0  0  0  0  0  0  0  0  0  0
    4.9893   -3.2290   -0.4261 H   0  0  0  0  0  0  0  0  0  0  0  0
    2.1651   -5.1366    1.0053 H   0  0  0  0  0  0  0  0  0  0  0  0
    3.7322   -5.4454    1.7313 H   0  0  0  0  0  0  0  0  0  0  0  0
    2.3429   -7.5202    1.5855 H   0  0  0  0  0  0  0  0  0  0  0  0
    1.0613   -6.8946   -0.4702 H   0  0  0  0  0  0  0  0  0  0  0  0
    1.8056   -8.4821   -0.6439 H   0  0  0  0  0  0  0  0  0  0  0  0
    2.1737   -7.1326   -2.7004 H   0  0  0  0  0  0  0  0  0  0  0  0
    3.5500   -5.0529   -2.5821 H   0  0  0  0  0  0  0  0  0  0  0  0
    2.0512   -4.8944   -1.6815 H   0  0  0  0  0  0  0  0  0  0  0  0
    4.6564   -7.3259   -2.8148 H   0  0  0  0  0  0  0  0  0  0  0  0
    3.9594   -8.7293   -2.0141 H   0  0  0  0  0  0  0  0  0  0  0  0
    5.9356   -7.8747   -0.7516 H   0  0  0  0  0  0  0  0  0  0  0  0
    4.0440   -8.9662    0.4701 H   0  0  0  0  0  0  0  0  0  0  0  0
    4.8197   -7.7394    1.4669 H   0  0  0  0  0  0  0  0  0  0  0  0
    5.8190   -5.6345    0.3482 H   0  0  0  0  0  0  0  0  0  0  0  0
    5.7631   -5.4724   -1.4006 H   0  0  0  0  0  0  0  0  0  0  0  0
  1  2  1  0  0  0  0
  1 32  1  0  0  0  0
  1 33  1  0  0  0  0
  1 34  1  0  0  0  0
  2 18  1  0  0  0  0
  2  3  2  0  0  0  0
  3  4  1  0  0  0  0
  3 10  1  0  0  0  0
  4  9  2  0  0  0  0
  4  5  1  0  0  0  0
  5  6  2  0  0  0  0
  5 35  1  0  0  0  0
  6  7  1  0  0  0  0
  6 36  1  0  0  0  0
  7  8  2  0  0  0  0
  7 37  1  0  0  0  0
  8  9  1  0  0  0  0
  8 38  1  0  0  0  0
  9 39  1  0  0  0  0
 10 11  1  0  0  0  0
 10 17  1  0  0  0  0
 11 12  1  0  0  0  0
 11 40  1  0  0  0  0
 11 41  1  0  0  0  0
 12 13  1  0  0  0  0
 12 42  1  0  0  0  0
 12 43  1  0  0  0  0
 13 14  1  0  0  0  0
 13 44  1  0  0  0  0
 13 45  1  0  0  0  0
 14 15  1  0  0  0  0
 14 46  1  0  0  0  0
 14 47  1  0  0  0  0
 15 16  1  0  0  0  0
 15 48  1  0  0  0  0
 15 49  1  0  0  0  0
 16 50  1  0  0  0  0
 17 18  2  0  0  0  0
 18 19  1  0  0  0  0
 19 20  2  0  0  0  0
 19 21  1  0  0  0  0
 21 51  1  0  0  0  0
 22 21  1  1  0  0  0
 22 27  1  0  0  0  0
 22 31  1  0  0  0  0
 22 23  1  0  0  0  0
 23 52  1  0  0  0  0
 23 53  1  0  0  0  0
 24 23  1  0  0  0  0
 24 25  1  0  0  0  0
 24 30  1  0  0  0  0
 24 54  1  1  0  0  0
 25 55  1  0  0  0  0
 25 56  1  0  0  0  0
 26 25  1  0  0  0  0
 26 27  1  0  0  0  0
 26 28  1  0  0  0  0
 26 57  1  6  0  0  0
 27 58  1  0  0  0  0
 27 59  1  0  0  0  0
 28 60  1  0  0  0  0
 28 61  1  0  0  0  0
 29 28  1  0  0  0  0
 29 30  1  0  0  0  0
 29 31  1  0  0  0  0
 29 62  1  6  0  0  0
 30 63  1  0  0  0  0
 30 64  1  0  0  0  0
 31 65  1  0  0  0  0
 31 66  1  0  0  0  0
M  END
$$$$
CHEMBL4519883
 OpenBabel12022417453D

 49 52  0  0  0  0  0  0  0  0999 V2000
    1.1168   -3.2349    4.7886 C   0  0  0  0  0  0  0  0  0  0  0  0
    2.6101   -2.9448    4.8956 C   0  0  0  0  0  0  0  0  0  0  0  0
    3.1478   -2.1697    3.6837 C   0  0  0  0  0  0  0  0  0  0  0  0
    4.6489   -1.8410    3.8211 C   0  0  0  0  0  0  0  0  0  0  0  0
    5.1676   -0.9754    2.6557 C   0  0  0  0  0  0  0  0  0  0  0  0
    6.6081   -0.6985    2.6820 N   0  0  0  0  0  0  0  0  0  0  0  0
    7.1948    0.5100    2.9865 C   0  0  0  0  0  0  0  0  0  0  0  0
    8.5988    0.4575    2.9067 C   0  0  0  0  0  0  0  0  0  0  0  0
    8.8172   -0.9254    2.3876 C   0  0  0  0  0  0  0  0  0  0  0  0
    7.5710   -1.5787    2.2577 C   0  0  0  0  0  0  0  0  0  0  0  0
    7.3983   -2.8907    1.7637 C   0  0  0  0  0  0  0  0  0  0  0  0
    8.5270   -3.6134    1.3886 C   0  0  0  0  0  0  0  0  0  0  0  0
    9.7710   -3.0250    1.5230 C   0  0  0  0  0  0  0  0  0  0  0  0
    9.9408   -1.7073    2.0156 C   0  0  0  0  0  0  0  0  0  0  0  0
   10.8474   -3.7414    1.1615 F   0  0  0  0  0  0  0  0  0  0  0  0
    9.6341    1.6337    3.2633 C   0  0  0  0  0  0  0  0  0  0  0  0
   10.7989    1.6036    2.8441 O   0  0  0  0  0  0  0  0  0  0  0  0
    9.1990    2.8403    4.2152 C   0  0  0  0  0  0  0  0  0  0  0  0
    7.9741    2.5683    4.7852 C   0  0  0  0  0  0  0  0  0  0  0  0
    7.2312    3.5782    5.3353 C   0  0  0  0  0  0  0  0  0  0  0  0
    7.9622    4.2131    6.2910 C   0  0  0  0  0  0  0  0  0  0  0  0
    9.2399    4.6540    5.9095 C   0  0  0  0  0  0  0  0  0  0  0  0
    9.7034    5.6705    6.7428 C   0  0  0  0  0  0  0  0  0  0  0  0
   10.7755    6.4378    6.3625 C   0  0  0  0  0  0  0  0  0  0  0  0
   11.3910    6.1202    5.1600 C   0  0  0  0  0  0  0  0  0  0  0  0
   10.9904    4.9556    4.3947 C   0  0  0  0  0  0  0  0  0  0  0  0
    9.8645    4.1040    4.7418 C   0  0  0  0  0  0  0  0  0  0  0  0
    0.7708   -3.7771    5.6760 H   0  0  0  0  0  0  0  0  0  0  0  0
    0.8922   -3.8508    3.9120 H   0  0  0  0  0  0  0  0  0  0  0  0
    0.5370   -2.3090    4.7170 H   0  0  0  0  0  0  0  0  0  0  0  0
    3.1470   -3.8949    4.9993 H   0  0  0  0  0  0  0  0  0  0  0  0
    2.7891   -2.3699    5.8114 H   0  0  0  0  0  0  0  0  0  0  0  0
    2.5764   -1.2412    3.5676 H   0  0  0  0  0  0  0  0  0  0  0  0
    2.9827   -2.7644    2.7762 H   0  0  0  0  0  0  0  0  0  0  0  0
    5.2093   -2.7822    3.8762 H   0  0  0  0  0  0  0  0  0  0  0  0
    4.8234   -1.3167    4.7677 H   0  0  0  0  0  0  0  0  0  0  0  0
    4.6493   -0.0106    2.6383 H   0  0  0  0  0  0  0  0  0  0  0  0
    4.9558   -1.4667    1.6984 H   0  0  0  0  0  0  0  0  0  0  0  0
    6.5320    1.3156    3.2658 H   0  0  0  0  0  0  0  0  0  0  0  0
    6.4167   -3.3464    1.6671 H   0  0  0  0  0  0  0  0  0  0  0  0
    8.4261   -4.6212    0.9924 H   0  0  0  0  0  0  0  0  0  0  0  0
   10.9515   -1.3140    2.0809 H   0  0  0  0  0  0  0  0  0  0  0  0
    7.7724    1.5556    5.1328 H   0  0  0  0  0  0  0  0  0  0  0  0
    6.9330    4.3300    4.5581 H   0  0  0  0  0  0  0  0  0  0  0  0
    7.4448    4.6076    7.1564 H   0  0  0  0  0  0  0  0  0  0  0  0
    9.1719    5.9565    7.6548 H   0  0  0  0  0  0  0  0  0  0  0  0
   11.0622    7.2982    6.9636 H   0  0  0  0  0  0  0  0  0  0  0  0
   12.1800    6.7841    4.8093 H   0  0  0  0  0  0  0  0  0  0  0  0
   11.5536    4.7888    3.4718 H   0  0  0  0  0  0  0  0  0  0  0  0
  1  2  1  0  0  0  0
  1 28  1  0  0  0  0
  1 29  1  0  0  0  0
  1 30  1  0  0  0  0
  2  3  1  0  0  0  0
  2 31  1  0  0  0  0
  2 32  1  0  0  0  0
  3  4  1  0  0  0  0
  3 33  1  0  0  0  0
  3 34  1  0  0  0  0
  4  5  1  0  0  0  0
  4 35  1  0  0  0  0
  4 36  1  0  0  0  0
  5  6  1  0  0  0  0
  5 37  1  0  0  0  0
  5 38  1  0  0  0  0
  6 10  1  0  0  0  0
  6  7  1  0  0  0  0
  7  8  2  0  0  0  0
  7 39  1  0  0  0  0
  8  9  1  0  0  0  0
  8 16  1  0  0  0  0
  9 14  2  0  0  0  0
  9 10  1  0  0  0  0
 10 11  2  0  0  0  0
 11 12  1  0  0  0  0
 11 40  1  0  0  0  0
 12 13  2  0  0  0  0
 12 41  1  0  0  0  0
 13 14  1  0  0  0  0
 13 15  1  0  0  0  0
 14 42  1  0  0  0  0
 16 17  2  0  0  0  0
 16 18  1  0  0  0  0
 18 27  2  0  0  0  0
 18 19  1  0  0  0  0
 19 20  2  0  0  0  0
 19 43  1  0  0  0  0
 20 21  1  0  0  0  0
 20 44  1  0  0  0  0
 21 22  2  0  0  0  0
 21 45  1  0  0  0  0
 22 27  1  0  0  0  0
 22 23  1  0  0  0  0
 23 24  2  0  0  0  0
 23 46  1  0  0  0  0
 24 25  1  0  0  0  0
 24 47  1  0  0  0  0
 25 26  2  0  0  0  0
 25 48  1  0  0  0  0
 26 27  1  0  0  0  0
 26 49  1  0  0  0  0
M  END
$$$$
CHEMBL4856192
 OpenBabel12022417453D

 56 59  0  0  0  0  0  0  0  0999 V2000
    0.8116    1.3772    0.5533 C   0  0  0  0  0  0  0  0  0  0  0  0
    2.3292    1.4597    0.6070 C   0  0  0  0  0  0  0  0  0  0  0  0
    2.9408    1.6282   -0.7896 C   0  0  0  0  0  0  0  0  0  0  0  0
    4.4690    1.7150   -0.6923 C   0  0  0  0  0  0  0  0  0  0  0  0
    5.1252    1.9389   -2.0503 C   0  0  0  0  0  0  0  0  0  0  0  0
    6.5862    1.9695   -1.9345 N   0  0  0  0  0  0  0  0  0  0  0  0
    7.3272    3.1128   -1.7187 C   0  0  0  0  0  0  0  0  0  0  0  0
    8.6644    2.7673   -1.5852 C   0  0  0  0  0  0  0  0  0  0  0  0
    8.7154    1.3479   -1.8153 C   0  0  0  0  0  0  0  0  0  0  0  0
    9.7771    0.4083   -1.8698 C   0  0  0  0  0  0  0  0  0  0  0  0
    9.5085   -0.9435   -2.1096 C   0  0  0  0  0  0  0  0  0  0  0  0
    8.2057   -1.3867   -2.2736 C   0  0  0  0  0  0  0  0  0  0  0  0
    7.1332   -0.4887   -2.2311 C   0  0  0  0  0  0  0  0  0  0  0  0
    7.4132    0.8712   -2.0099 C   0  0  0  0  0  0  0  0  0  0  0  0
    9.8082    3.6438   -1.3021 C   0  0  0  0  0  0  0  0  0  0  0  0
   10.9791    3.2543   -1.3041 O   0  0  0  0  0  0  0  0  0  0  0  0
    9.5472    5.1016   -1.1039 C   0  0  0  0  0  0  0  0  0  0  0  0
    8.9030    5.6178    0.0345 C   0  0  0  0  0  0  0  0  0  0  0  0
    8.6816    6.9860    0.0475 C   0  0  0  0  0  0  0  0  0  0  0  0
    8.7471    7.7125   -1.1297 C   0  0  0  0  0  0  0  0  0  0  0  0
    8.0568    9.0261   -0.9382 C   0  0  0  0  0  0  0  0  0  0  0  0
    8.6419    9.3947    0.4303 C   0  0  0  0  0  0  0  0  0  0  0  0
    8.7104    7.9953    1.1825 C   0  0  0  0  0  0  0  0  0  0  0  0
   10.0003   10.0808    0.1247 C   0  0  0  0  0  0  0  0  0  0  0  0
    7.7863   10.4006    1.2058 C   0  0  0  0  0  0  0  0  0  0  0  0
    9.6622    7.3060   -2.0734 C   0  0  0  0  0  0  0  0  0  0  0  0
   10.1254    5.9988   -2.0216 C   0  0  0  0  0  0  0  0  0  0  0  0
    0.4021    1.2588    1.5621 H   0  0  0  0  0  0  0  0  0  0  0  0
    0.4865    0.5209   -0.0456 H   0  0  0  0  0  0  0  0  0  0  0  0
    0.3835    2.2857    0.1184 H   0  0  0  0  0  0  0  0  0  0  0  0
    2.7192    0.5520    1.0771 H   0  0  0  0  0  0  0  0  0  0  0  0
    2.6155    2.3026    1.2485 H   0  0  0  0  0  0  0  0  0  0  0  0
    2.5526    2.5483   -1.2482 H   0  0  0  0  0  0  0  0  0  0  0  0
    2.6487    0.7771   -1.4239 H   0  0  0  0  0  0  0  0  0  0  0  0
    4.8516    0.7915   -0.2412 H   0  0  0  0  0  0  0  0  0  0  0  0
    4.7508    2.5328   -0.0183 H   0  0  0  0  0  0  0  0  0  0  0  0
    4.8073    2.8844   -2.4980 H   0  0  0  0  0  0  0  0  0  0  0  0
    4.8624    1.1429   -2.7556 H   0  0  0  0  0  0  0  0  0  0  0  0
    6.8339    4.0727   -1.6709 H   0  0  0  0  0  0  0  0  0  0  0  0
   10.8019    0.7453   -1.7418 H   0  0  0  0  0  0  0  0  0  0  0  0
   10.3366   -1.6498   -2.1502 H   0  0  0  0  0  0  0  0  0  0  0  0
    8.0095   -2.4435   -2.4466 H   0  0  0  0  0  0  0  0  0  0  0  0
    6.1199   -0.8480   -2.3725 H   0  0  0  0  0  0  0  0  0  0  0  0
    8.6225    4.9852    0.8731 H   0  0  0  0  0  0  0  0  0  0  0  0
    6.9702    8.8580   -0.8652 H   0  0  0  0  0  0  0  0  0  0  0  0
    8.2357    9.7356   -1.7458 H   0  0  0  0  0  0  0  0  0  0  0  0
    9.6713    7.9098    1.7024 H   0  0  0  0  0  0  0  0  0  0  0  0
    7.8882    7.8355    1.8861 H   0  0  0  0  0  0  0  0  0  0  0  0
   10.7130    9.4164   -0.3758 H   0  0  0  0  0  0  0  0  0  0  0  0
   10.4820   10.4831    1.0168 H   0  0  0  0  0  0  0  0  0  0  0  0
    9.8336   10.9269   -0.5627 H   0  0  0  0  0  0  0  0  0  0  0  0
    6.9279    9.9235    1.6860 H   0  0  0  0  0  0  0  0  0  0  0  0
    7.4098   11.1900    0.5470 H   0  0  0  0  0  0  0  0  0  0  0  0
    8.3760   10.8828    1.9957 H   0  0  0  0  0  0  0  0  0  0  0  0
   10.0879    8.0133   -2.7749 H   0  0  0  0  0  0  0  0  0  0  0  0
   10.9127    5.6526   -2.6861 H   0  0  0  0  0  0  0  0  0  0  0  0
  1  2  1  0  0  0  0
  1 28  1  0  0  0  0
  1 29  1  0  0  0  0
  1 30  1  0  0  0  0
  2  3  1  0  0  0  0
  2 31  1  0  0  0  0
  2 32  1  0  0  0  0
  3  4  1  0  0  0  0
  3 33  1  0  0  0  0
  3 34  1  0  0  0  0
  4  5  1  0  0  0  0
  4 35  1  0  0  0  0
  4 36  1  0  0  0  0
  5  6  1  0  0  0  0
  5 37  1  0  0  0  0
  5 38  1  0  0  0  0
  6 14  1  0  0  0  0
  6  7  1  0  0  0  0
  7  8  2  0  0  0  0
  7 39  1  0  0  0  0
  8  9  1  0  0  0  0
  8 15  1  0  0  0  0
  9 14  2  0  0  0  0
  9 10  1  0  0  0  0
 10 11  2  0  0  0  0
 10 40  1  0  0  0  0
 11 12  1  0  0  0  0
 11 41  1  0  0  0  0
 12 13  2  0  0  0  0
 12 42  1  0  0  0  0
 13 14  1  0  0  0  0
 13 43  1  0  0  0  0
 15 16  2  0  0  0  0
 15 17  1  0  0  0  0
 17 27  2  0  0  0  0
 17 18  1  0  0  0  0
 18 19  2  0  0  0  0
 18 44  1  0  0  0  0
 19 23  1  0  0  0  0
 19 20  1  0  0  0  0
 20 21  1  0  0  0  0
 20 26  2  0  0  0  0
 21 22  1  0  0  0  0
 21 45  1  0  0  0  0
 21 46  1  0  0  0  0
 22 23  1  0  0  0  0
 22 24  1  0  0  0  0
 22 25  1  0  0  0  0
 23 47  1  0  0  0  0
 23 48  1  0  0  0  0
 24 49  1  0  0  0  0
 24 50  1  0  0  0  0
 24 51  1  0  0  0  0
 25 52  1  0  0  0  0
 25 53  1  0  0  0  0
 25 54  1  0  0  0  0
 26 27  1  0  0  0  0
 26 55  1  0  0  0  0
 27 56  1  0  0  0  0
M  END
$$$$
CHEMBL3260746
 OpenBabel12022417453D

 63 67  0  0  0  0  0  0  0  0999 V2000
   -0.3750    0.5451   -0.1181 C   0  0  0  0  0  0  0  0  0  0  0  0
    0.7268    1.5574   -0.1476 C   0  0  0  0  0  0  0  0  0  0  0  0
    2.0084    1.1300   -0.2190 C   0  0  0  0  0  0  0  0  0  0  0  0
    2.3152   -0.3505   -0.3425 C   0  0  0  0  0  0  0  0  0  0  0  0
    3.4664   -0.7279   -0.5522 O   0  0  0  0  0  0  0  0  0  0  0  0
    1.2736   -1.2263   -0.1672 N   0  0  0  0  0  0  0  0  0  0  0  0
    1.4873   -2.6664   -0.0493 C   0  0  0  0  0  0  0  0  0  0  0  0
    1.1413   -3.2615    1.3037 C   0  0  0  0  0  0  0  0  0  0  0  0
    1.0068   -4.6463    1.4686 C   0  0  0  0  0  0  0  0  0  0  0  0
    1.2166   -5.6341    0.3562 C   0  0  0  0  0  0  0  0  0  0  0  0
    0.6078   -5.2081    2.6408 N   0  0  0  0  0  0  0  0  0  0  0  0
    0.3031   -4.4012    3.6938 C   0  0  0  0  0  0  0  0  0  0  0  0
    0.4513   -3.0217    3.6181 C   0  0  0  0  0  0  0  0  0  0  0  0
    0.9009   -2.4576    2.4296 C   0  0  0  0  0  0  0  0  0  0  0  0
   -0.2524   -5.0047    4.9755 C   0  0  0  0  0  0  0  0  0  0  0  0
   -0.3203   -6.3652    4.9831 F   0  0  0  0  0  0  0  0  0  0  0  0
    0.4854   -4.6628    6.0737 F   0  0  0  0  0  0  0  0  0  0  0  0
   -1.5192   -4.5676    5.2452 F   0  0  0  0  0  0  0  0  0  0  0  0
   -0.0292   -0.7626   -0.1356 N   0  0  0  0  0  0  0  0  0  0  0  0
   -1.1982   -1.4963   -0.1214 C   0  0  0  0  0  0  0  0  0  0  0  0
   -1.3612   -2.7045   -0.1780 O   0  0  0  0  0  0  0  0  0  0  0  0
   -2.2063   -0.5326   -0.0395 N   0  0  0  0  0  0  0  0  0  0  0  0
   -3.6160   -0.8413   -0.0017 C   0  0  0  0  0  0  0  0  0  0  0  0
   -4.1856   -1.0921   -1.3876 C   0  0  0  0  0  0  0  0  0  0  0  0
   -1.6638    0.7447   -0.0639 N   0  0  0  0  0  0  0  0  0  0  0  0
    3.2018    2.0130   -0.1687 C   0  0  0  0  0  0  0  0  0  0  0  0
    3.8911    2.3466   -1.3433 C   0  0  0  0  0  0  0  0  0  0  0  0
    5.1477    2.9913   -1.3032 C   0  0  0  0  0  0  0  0  0  0  0  0
    5.7085    3.3380   -0.0522 C   0  0  0  0  0  0  0  0  0  0  0  0
    5.0070    3.0217    1.1168 C   0  0  0  0  0  0  0  0  0  0  0  0
    3.7704    2.3614    1.0644 C   0  0  0  0  0  0  0  0  0  0  0  0
    6.9928    3.9767    0.0539 C   0  0  0  0  0  0  0  0  0  0  0  0
    8.0298    4.4953    0.1337 N   0  0  0  0  0  0  0  0  0  0  0  0
    5.8918    3.2276   -2.5872 C   0  0  0  0  0  0  0  0  0  0  0  0
    0.3638    2.9891   -0.1135 C   0  0  0  0  0  0  0  0  0  0  0  0
    0.1151    3.6392    1.1030 C   0  0  0  0  0  0  0  0  0  0  0  0
   -0.3081    4.9756    1.1123 C   0  0  0  0  0  0  0  0  0  0  0  0
   -0.4808    5.6602   -0.0853 C   0  0  0  0  0  0  0  0  0  0  0  0
   -0.2085    5.0347   -1.2997 C   0  0  0  0  0  0  0  0  0  0  0  0
    0.2148    3.7004   -1.3144 C   0  0  0  0  0  0  0  0  0  0  0  0
   -1.0520    7.2828   -0.0721 Cl  0  0  0  0  0  0  0  0  0  0  0  0
    2.5401   -2.8932   -0.2520 H   0  0  0  0  0  0  0  0  0  0  0  0
    0.9072   -3.1366   -0.8509 H   0  0  0  0  0  0  0  0  0  0  0  0
    1.6548   -5.1953   -0.5427 H   0  0  0  0  0  0  0  0  0  0  0  0
    0.2554   -6.0823    0.0849 H   0  0  0  0  0  0  0  0  0  0  0  0
    1.8928   -6.4283    0.6893 H   0  0  0  0  0  0  0  0  0  0  0  0
    0.1952   -2.3883    4.4631 H   0  0  0  0  0  0  0  0  0  0  0  0
    1.0076   -1.3773    2.3870 H   0  0  0  0  0  0  0  0  0  0  0  0
   -4.1508   -0.0361    0.5094 H   0  0  0  0  0  0  0  0  0  0  0  0
   -3.7391   -1.7571    0.5906 H   0  0  0  0  0  0  0  0  0  0  0  0
   -4.1344   -0.1873   -2.0002 H   0  0  0  0  0  0  0  0  0  0  0  0
   -5.2325   -1.4049   -1.3185 H   0  0  0  0  0  0  0  0  0  0  0  0
   -3.6327   -1.8815   -1.9091 H   0  0  0  0  0  0  0  0  0  0  0  0
    3.4799    2.0411   -2.3053 H   0  0  0  0  0  0  0  0  0  0  0  0
    5.4411    3.2532    2.0917 H   0  0  0  0  0  0  0  0  0  0  0  0
    3.2887    2.0745    1.9974 H   0  0  0  0  0  0  0  0  0  0  0  0
    5.3082    2.9007   -3.4547 H   0  0  0  0  0  0  0  0  0  0  0  0
    6.8272    2.6577   -2.5892 H   0  0  0  0  0  0  0  0  0  0  0  0
    6.1097    4.2919   -2.7160 H   0  0  0  0  0  0  0  0  0  0  0  0
    0.2261    3.1153    2.0475 H   0  0  0  0  0  0  0  0  0  0  0  0
   -0.5186    5.4669    2.0608 H   0  0  0  0  0  0  0  0  0  0  0  0
   -0.3396    5.5685   -2.2367 H   0  0  0  0  0  0  0  0  0  0  0  0
    0.4027    3.2195   -2.2716 H   0  0  0  0  0  0  0  0  0  0  0  0
  1 19  1  0  0  0  0
  1 25  2  0  0  0  0
  1  2  1  0  0  0  0
  2  3  2  0  0  0  0
  2 35  1  0  0  0  0
  3  4  1  0  0  0  0
  3 26  1  0  0  0  0
  4  5  2  0  0  0  0
  4  6  1  0  0  0  0
  6  7  1  0  0  0  0
  6 19  1  0  0  0  0
  7  8  1  0  0  0  0
  7 42  1  0  0  0  0
  7 43  1  0  0  0  0
  8 14  2  0  0  0  0
  8  9  1  0  0  0  0
  9 10  1  0  0  0  0
  9 11  2  0  0  0  0
 10 44  1  0  0  0  0
 10 45  1  0  0  0  0
 10 46  1  0  0  0  0
 11 12  1  0  0  0  0
 12 13  2  0  0  0  0
 12 15  1  0  0  0  0
 13 14  1  0  0  0  0
 13 47  1  0  0  0  0
 14 48  1  0  0  0  0
 15 16  1  0  0  0  0
 15 17  1  0  0  0  0
 15 18  1  0  0  0  0
 19 20  1  0  0  0  0
 20 21  2  0  0  0  0
 20 22  1  0  0  0  0
 22 23  1  0  0  0  0
 22 25  1  0  0  0  0
 23 24  1  0  0  0  0
 23 49  1  0  0  0  0
 23 50  1  0  0  0  0
 24 51  1  0  0  0  0
 24 52  1  0  0  0  0
 24 53  1  0  0  0  0
 26 31  2  0  0  0  0
 26 27  1  0  0  0  0
 27 28  2  0  0  0  0
 27 54  1  0  0  0  0
 28 29  1  0  0  0  0
 28 34  1  0  0  0  0
 29 30  2  0  0  0  0
 29 32  1  0  0  0  0
 30 31  1  0  0  0  0
 30 55  1  0  0  0  0
 31 56  1  0  0  0  0
 32 33  3  0  0  0  0
 34 57  1  0  0  0  0
 34 58  1  0  0  0  0
 34 59  1  0  0  0  0
 35 40  2  0  0  0  0
 35 36  1  0  0  0  0
 36 37  2  0  0  0  0
 36 60  1  0  0  0  0
 37 38  1  0  0  0  0
 37 61  1  0  0  0  0
 38 39  2  0  0  0  0
 38 41  1  0  0  0  0
 39 40  1  0  0  0  0
 39 62  1  0  0  0  0
 40 63  1  0  0  0  0
M  END
$$$$
CHEMBL5173419
 OpenBabel12022417453D

 60 64  0  0  1  0  0  0  0  0999 V2000
   -4.2397   -1.6038   -0.0045 N   0  0  0  0  0  0  0  0  0  0  0  0
   -3.9553   -1.2087   -1.3357 C   0  0  0  0  0  0  0  0  0  0  0  0
   -3.7791   -2.1395   -2.3031 N   0  0  0  0  0  0  0  0  0  0  0  0
   -3.5327   -1.7036   -3.5687 C   0  0  0  0  0  0  0  0  0  0  0  0
   -3.4897   -0.3660   -3.9488 C   0  0  0  0  0  0  0  0  0  0  0  0
   -3.6336    0.5696   -2.9214 C   0  0  0  0  0  0  0  0  0  0  0  0
   -3.8307    0.1558   -1.6010 C   0  0  0  0  0  0  0  0  0  0  0  0
   -4.0269    1.1577   -0.5518 C   0  0  0  0  0  0  0  0  0  0  0  0
   -4.4960    0.7824    0.6611 C   0  0  0  0  0  0  0  0  0  0  0  0
   -4.3372   -0.6568    1.0076 C   0  0  0  0  0  0  0  0  0  0  0  0
   -4.2503   -0.9563    2.2158 O   0  0  0  0  0  0  0  0  0  0  0  0
   -5.0952    1.8312    1.5918 C   0  0  0  0  0  0  0  0  0  0  0  0
   -5.1847    2.9908    1.2609 O   0  0  0  0  0  0  0  0  0  0  0  0
   -5.5797    1.3470    2.8036 N   0  0  0  0  0  0  0  0  0  0  0  0
   -6.0904    2.1794    3.9062 C   0  0  1  0  0  0  0  0  0  0  0  0
   -7.1083    1.4159    4.7933 C   0  0  0  0  0  0  0  0  0  0  0  0
   -7.6030    2.3071    5.9440 C   0  0  0  0  0  0  0  0  0  0  0  0
   -6.4420    2.7683    6.8342 C   0  0  2  0  0  0  0  0  0  0  0  0
   -5.3994    3.5001    5.9767 C   0  0  0  0  0  0  0  0  0  0  0  0
   -4.9253    2.6742    4.7757 C   0  0  0  0  0  0  0  0  0  0  0  0
   -5.8371    1.5823    7.5939 C   0  0  0  0  0  0  0  0  0  0  0  0
   -3.3353    0.0582   -5.3329 C   0  0  0  0  0  0  0  0  0  0  0  0
   -3.2556    1.2867   -5.9603 C   0  0  0  0  0  0  0  0  0  0  0  0
   -3.1384    1.0304   -7.3479 C   0  0  0  0  0  0  0  0  0  0  0  0
   -3.1507   -0.3360   -7.4829 C   0  0  0  0  0  0  0  0  0  0  0  0
   -3.2684   -0.9340   -6.2700 O   0  0  0  0  0  0  0  0  0  0  0  0
   -4.2356   -3.0427    0.3065 C   0  0  0  0  0  0  0  0  0  0  0  0
   -5.6337   -3.6321    0.3911 C   0  0  0  0  0  0  0  0  0  0  0  0
   -6.3362   -3.9775   -0.7748 C   0  0  0  0  0  0  0  0  0  0  0  0
   -7.7005   -4.2461   -0.7081 C   0  0  0  0  0  0  0  0  0  0  0  0
   -8.3760   -4.2403    0.5057 C   0  0  0  0  0  0  0  0  0  0  0  0
   -7.6650   -4.0138    1.6828 C   0  0  0  0  0  0  0  0  0  0  0  0
   -6.2999   -3.7162    1.6261 C   0  0  0  0  0  0  0  0  0  0  0  0
   -8.3918   -4.4268   -1.8419 F   0  0  0  0  0  0  0  0  0  0  0  0
   -3.3658   -2.4947   -4.2971 H   0  0  0  0  0  0  0  0  0  0  0  0
   -3.6324    1.6326   -3.1564 H   0  0  0  0  0  0  0  0  0  0  0  0
   -3.8748    2.1915   -0.8249 H   0  0  0  0  0  0  0  0  0  0  0  0
   -5.2371    0.4244    3.0676 H   0  0  0  0  0  0  0  0  0  0  0  0
   -6.5980    3.0574    3.4776 H   0  0  0  0  0  0  0  0  0  0  0  0
   -6.6413    0.5080    5.1994 H   0  0  0  0  0  0  0  0  0  0  0  0
   -7.9726    1.0619    4.2214 H   0  0  0  0  0  0  0  0  0  0  0  0
   -8.3552    1.7825    6.5467 H   0  0  0  0  0  0  0  0  0  0  0  0
   -8.1064    3.1877    5.5227 H   0  0  0  0  0  0  0  0  0  0  0  0
   -6.8300    3.4742    7.5807 H   0  0  0  0  0  0  0  0  0  0  0  0
   -4.5386    3.7907    6.5923 H   0  0  0  0  0  0  0  0  0  0  0  0
   -5.8424    4.4328    5.6031 H   0  0  0  0  0  0  0  0  0  0  0  0
   -4.2429    3.2805    4.1700 H   0  0  0  0  0  0  0  0  0  0  0  0
   -4.3376    1.8182    5.1310 H   0  0  0  0  0  0  0  0  0  0  0  0
   -5.4365    0.8149    6.9258 H   0  0  0  0  0  0  0  0  0  0  0  0
   -6.5983    1.1027    8.2192 H   0  0  0  0  0  0  0  0  0  0  0  0
   -5.0165    1.9064    8.2401 H   0  0  0  0  0  0  0  0  0  0  0  0
   -3.2815    2.2554   -5.4796 H   0  0  0  0  0  0  0  0  0  0  0  0
   -3.0549    1.7530   -8.1473 H   0  0  0  0  0  0  0  0  0  0  0  0
   -3.0860   -1.0058   -8.3301 H   0  0  0  0  0  0  0  0  0  0  0  0
   -3.7234   -3.1886    1.2658 H   0  0  0  0  0  0  0  0  0  0  0  0
   -3.6469   -3.6015   -0.4296 H   0  0  0  0  0  0  0  0  0  0  0  0
   -5.8517   -3.9650   -1.7471 H   0  0  0  0  0  0  0  0  0  0  0  0
   -9.4519   -4.3741    0.5237 H   0  0  0  0  0  0  0  0  0  0  0  0
   -8.1842   -4.0043    2.6373 H   0  0  0  0  0  0  0  0  0  0  0  0
   -5.7721   -3.4825    2.5492 H   0  0  0  0  0  0  0  0  0  0  0  0
  1 10  1  0  0  0  0
  1  2  1  0  0  0  0
  1 27  1  0  0  0  0
  2  7  2  0  0  0  0
  2  3  1  0  0  0  0
  3  4  2  0  0  0  0
  4  5  1  0  0  0  0
  4 35  1  0  0  0  0
  5  6  2  0  0  0  0
  5 22  1  0  0  0  0
  6  7  1  0  0  0  0
  6 36  1  0  0  0  0
  7  8  1  0  0  0  0
  8  9  2  0  0  0  0
  8 37  1  0  0  0  0
  9 10  1  0  0  0  0
  9 12  1  0  0  0  0
 10 11  2  0  0  0  0
 12 13  2  0  0  0  0
 12 14  1  0  0  0  0
 14 38  1  0  0  0  0
 15 16  1  0  0  0  0
 15 20  1  0  0  0  0
 15 14  1  0  0  0  0
 15 39  1  6  0  0  0
 16 17  1  0  0  0  0
 16 40  1  0  0  0  0
 16 41  1  0  0  0  0
 17 18  1  0  0  0  0
 17 42  1  0  0  0  0
 17 43  1  0  0  0  0
 18 19  1  0  0  0  0
 18 21  1  0  0  0  0
 18 44  1  1  0  0  0
 19 20  1  0  0  0  0
 19 45  1  0  0  0  0
 19 46  1  0  0  0  0
 20 47  1  0  0  0  0
 20 48  1  0  0  0  0
 21 49  1  0  0  0  0
 21 50  1  0  0  0  0
 21 51  1  0  0  0  0
 22 26  1  0  0  0  0
 22 23  2  0  0  0  0
 23 24  1  0  0  0  0
 23 52  1  0  0  0  0
 24 25  2  0  0  0  0
 24 53  1  0  0  0  0
 25 26  1  0  0  0  0
 25 54  1  0  0  0  0
 27 28  1  0  0  0  0
 27 55  1  0  0  0  0
 27 56  1  0  0  0  0
 28 33  2  0  0  0  0
 28 29  1  0  0  0  0
 29 30  2  0  0  0  0
 29 57  1  0  0  0  0
 30 31  1  0  0  0  0
 30 34  1  0  0  0  0
 31 32  2  0  0  0  0
 31 58  1  0  0  0  0
 32 33  1  0  0  0  0
 32 59  1  0  0  0  0
 33 60  1  0  0  0  0
M  END
$$$$
CHEMBL4860950
 OpenBabel12022417453D

 56 59  0  0  0  0  0  0  0  0999 V2000
    4.5359   -1.4008   -7.4489 C   0  0  0  0  0  0  0  0  0  0  0  0
    4.1355   -0.6882   -6.1674 C   0  0  0  0  0  0  0  0  0  0  0  0
    4.7303   -1.3787   -4.9393 C   0  0  0  0  0  0  0  0  0  0  0  0
    4.3405   -0.6484   -3.6520 C   0  0  0  0  0  0  0  0  0  0  0  0
    4.9517   -1.2667   -2.3886 C   0  0  0  0  0  0  0  0  0  0  0  0
    6.4032   -1.3557   -2.3948 N   0  0  0  0  0  0  0  0  0  0  0  0
    7.0929   -2.5377   -2.4131 C   0  0  0  0  0  0  0  0  0  0  0  0
    8.4495   -2.2674   -2.5831 C   0  0  0  0  0  0  0  0  0  0  0  0
    8.5788   -0.8412   -2.5040 C   0  0  0  0  0  0  0  0  0  0  0  0
    9.6711    0.0480   -2.5426 C   0  0  0  0  0  0  0  0  0  0  0  0
    9.4553    1.4290   -2.5025 C   0  0  0  0  0  0  0  0  0  0  0  0
    8.1646    1.9430   -2.4371 C   0  0  0  0  0  0  0  0  0  0  0  0
    7.0612    1.0917   -2.3839 C   0  0  0  0  0  0  0  0  0  0  0  0
    7.2849   -0.2944   -2.4160 C   0  0  0  0  0  0  0  0  0  0  0  0
    9.5111   -3.2689   -2.7895 C   0  0  0  0  0  0  0  0  0  0  0  0
   10.6926   -3.0632   -2.5237 O   0  0  0  0  0  0  0  0  0  0  0  0
    9.0999   -4.5958   -3.3400 C   0  0  0  0  0  0  0  0  0  0  0  0
    8.1661   -4.6395   -4.3956 C   0  0  0  0  0  0  0  0  0  0  0  0
    7.5313   -5.8359   -4.7517 C   0  0  0  0  0  0  0  0  0  0  0  0
    7.7804   -6.9984   -4.0317 C   0  0  0  0  0  0  0  0  0  0  0  0
    8.7154   -6.9486   -3.0097 C   0  0  0  0  0  0  0  0  0  0  0  0
    9.4617   -5.7920   -2.7349 C   0  0  0  0  0  0  0  0  0  0  0  0
   10.5090   -6.1120   -1.6999 C   0  0  0  0  0  0  0  0  0  0  0  0
    9.7891   -7.2363   -0.9122 C   0  0  0  0  0  0  0  0  0  0  0  0
    9.0043   -8.0203   -2.0037 C   0  0  0  0  0  0  0  0  0  0  0  0
    8.8674   -6.5571    0.1273 C   0  0  0  0  0  0  0  0  0  0  0  0
   10.7248   -8.1966   -0.1732 C   0  0  0  0  0  0  0  0  0  0  0  0
    4.1061   -0.8914   -8.3169 H   0  0  0  0  0  0  0  0  0  0  0  0
    4.1791   -2.4355   -7.4489 H   0  0  0  0  0  0  0  0  0  0  0  0
    5.6244   -1.4125   -7.5666 H   0  0  0  0  0  0  0  0  0  0  0  0
    3.0425   -0.6631   -6.0915 H   0  0  0  0  0  0  0  0  0  0  0  0
    4.4817    0.3514   -6.2135 H   0  0  0  0  0  0  0  0  0  0  0  0
    5.8208   -1.4031   -5.0445 H   0  0  0  0  0  0  0  0  0  0  0  0
    4.3846   -2.4179   -4.8916 H   0  0  0  0  0  0  0  0  0  0  0  0
    3.2478   -0.6602   -3.5474 H   0  0  0  0  0  0  0  0  0  0  0  0
    4.6266    0.4054   -3.7355 H   0  0  0  0  0  0  0  0  0  0  0  0
    4.5568   -2.2784   -2.2488 H   0  0  0  0  0  0  0  0  0  0  0  0
    4.6710   -0.6841   -1.5034 H   0  0  0  0  0  0  0  0  0  0  0  0
    6.5677   -3.4802   -2.3506 H   0  0  0  0  0  0  0  0  0  0  0  0
   10.6850   -0.3429   -2.5978 H   0  0  0  0  0  0  0  0  0  0  0  0
   10.3050    2.1068   -2.5286 H   0  0  0  0  0  0  0  0  0  0  0  0
    8.0108    3.0186   -2.4271 H   0  0  0  0  0  0  0  0  0  0  0  0
    6.0584    1.5058   -2.3298 H   0  0  0  0  0  0  0  0  0  0  0  0
    7.8819   -3.7233   -4.9104 H   0  0  0  0  0  0  0  0  0  0  0  0
    6.7944   -5.8376   -5.5514 H   0  0  0  0  0  0  0  0  0  0  0  0
    7.2366   -7.9129   -4.2489 H   0  0  0  0  0  0  0  0  0  0  0  0
   10.7922   -5.2650   -1.0728 H   0  0  0  0  0  0  0  0  0  0  0  0
   11.4045   -6.4987   -2.2074 H   0  0  0  0  0  0  0  0  0  0  0  0
    9.6099   -8.8050   -2.4716 H   0  0  0  0  0  0  0  0  0  0  0  0
    8.0831   -8.4554   -1.6018 H   0  0  0  0  0  0  0  0  0  0  0  0
    8.2763   -5.7436   -0.3087 H   0  0  0  0  0  0  0  0  0  0  0  0
    9.4684   -6.1116    0.9300 H   0  0  0  0  0  0  0  0  0  0  0  0
    8.1725   -7.2702    0.5787 H   0  0  0  0  0  0  0  0  0  0  0  0
   11.3616   -8.7580   -0.8647 H   0  0  0  0  0  0  0  0  0  0  0  0
   10.1386   -8.9293    0.3970 H   0  0  0  0  0  0  0  0  0  0  0  0
   11.3732   -7.6679    0.5319 H   0  0  0  0  0  0  0  0  0  0  0  0
  1  2  1  0  0  0  0
  1 28  1  0  0  0  0
  1 29  1  0  0  0  0
  1 30  1  0  0  0  0
  2  3  1  0  0  0  0
  2 31  1  0  0  0  0
  2 32  1  0  0  0  0
  3  4  1  0  0  0  0
  3 33  1  0  0  0  0
  3 34  1  0  0  0  0
  4  5  1  0  0  0  0
  4 35  1  0  0  0  0
  4 36  1  0  0  0  0
  5  6  1  0  0  0  0
  5 37  1  0  0  0  0
  5 38  1  0  0  0  0
  6 14  1  0  0  0  0
  6  7  1  0  0  0  0
  7  8  2  0  0  0  0
  7 39  1  0  0  0  0
  8  9  1  0  0  0  0
  8 15  1  0  0  0  0
  9 14  2  0  0  0  0
  9 10  1  0  0  0  0
 10 11  2  0  0  0  0
 10 40  1  0  0  0  0
 11 12  1  0  0  0  0
 11 41  1  0  0  0  0
 12 13  2  0  0  0  0
 12 42  1  0  0  0  0
 13 14  1  0  0  0  0
 13 43  1  0  0  0  0
 15 16  2  0  0  0  0
 15 17  1  0  0  0  0
 17 22  2  0  0  0  0
 17 18  1  0  0  0  0
 18 19  2  0  0  0  0
 18 44  1  0  0  0  0
 19 20  1  0  0  0  0
 19 45  1  0  0  0  0
 20 21  2  0  0  0  0
 20 46  1  0  0  0  0
 21 25  1  0  0  0  0
 21 22  1  0  0  0  0
 22 23  1  0  0  0  0
 23 24  1  0  0  0  0
 23 47  1  0  0  0  0
 23 48  1  0  0  0  0
 24 25  1  0  0  0  0
 24 26  1  0  0  0  0
 24 27  1  0  0  0  0
 25 49  1  0  0  0  0
 25 50  1  0  0  0  0
 26 51  1  0  0  0  0
 26 52  1  0  0  0  0
 26 53  1  0  0  0  0
 27 54  1  0  0  0  0
 27 55  1  0  0  0  0
 27 56  1  0  0  0  0
M  END
$$$$
CHEMBL5186632
 OpenBabel12022417453D

 58 63  0  0  1  0  0  0  0  0999 V2000
   -2.3094    0.6138    0.0331 C   0  0  0  0  0  0  0  0  0  0  0  0
   -1.1406    1.3666   -0.0059 C   0  0  0  0  0  0  0  0  0  0  0  0
    0.0951    0.7144   -0.0437 C   0  0  0  0  0  0  0  0  0  0  0  0
    0.1222   -0.6807   -0.0177 C   0  0  0  0  0  0  0  0  0  0  0  0
   -1.0111   -1.4206    0.0524 N   0  0  0  0  0  0  0  0  0  0  0  0
   -2.1927   -0.7632    0.0619 C   0  0  0  0  0  0  0  0  0  0  0  0
    1.3710   -1.3394   -0.1464 N   0  0  0  0  0  0  0  0  0  0  0  0
    2.5455   -0.6467   -0.4185 C   0  0  0  0  0  0  0  0  0  0  0  0
    3.6065   -1.2106   -0.6975 O   0  0  0  0  0  0  0  0  0  0  0  0
    2.5042    0.8449   -0.3578 C   0  0  0  0  0  0  0  0  0  0  0  0
    1.3339    1.4701   -0.1500 C   0  0  0  0  0  0  0  0  0  0  0  0
    3.7107    1.7285   -0.5215 C   0  0  0  0  0  0  0  0  0  0  0  0
    3.6054    2.9441   -0.3794 O   0  0  0  0  0  0  0  0  0  0  0  0
    4.8951    1.1075   -0.8362 N   0  0  0  0  0  0  0  0  0  0  0  0
    6.1822    1.8071   -0.9862 C   0  0  2  0  0  0  0  0  0  0  0  0
    7.3062    0.7869   -1.3197 C   0  0  0  0  0  0  0  0  0  0  0  0
    8.6687    1.4966   -1.4633 C   0  0  2  0  0  0  0  0  0  0  0  0
    9.0137    2.2157   -0.1492 C   0  0  0  0  0  0  0  0  0  0  0  0
    7.9211    3.2410    0.1870 C   0  0  2  0  0  0  0  0  0  0  0  0
    6.5761    2.5155    0.3349 C   0  0  0  0  0  0  0  0  0  0  0  0
    7.8142    4.2717   -0.9499 C   0  0  0  0  0  0  0  0  0  0  0  0
    7.4895    3.5645   -2.2766 C   0  0  2  0  0  0  0  0  0  0  0  0
    6.1400    2.8381   -2.1438 C   0  0  0  0  0  0  0  0  0  0  0  0
    8.5880    2.5379   -2.5911 C   0  0  0  0  0  0  0  0  0  0  0  0
    1.3840   -2.7974   -0.1445 C   0  0  0  0  0  0  0  0  0  0  0  0
    1.5755   -3.4369    1.2191 C   0  0  0  0  0  0  0  0  0  0  0  0
    2.8135   -3.3713    1.8809 C   0  0  0  0  0  0  0  0  0  0  0  0
    3.0383   -4.1157    3.0423 C   0  0  0  0  0  0  0  0  0  0  0  0
    2.0236   -4.9168    3.5522 C   0  0  0  0  0  0  0  0  0  0  0  0
    0.7733   -4.9556    2.9444 C   0  0  0  0  0  0  0  0  0  0  0  0
    0.5476   -4.2088    1.7860 C   0  0  0  0  0  0  0  0  0  0  0  0
    2.2602   -5.6783    4.6298 F   0  0  0  0  0  0  0  0  0  0  0  0
   -3.2834    1.0904    0.0274 H   0  0  0  0  0  0  0  0  0  0  0  0
   -1.2029    2.4509   -0.0334 H   0  0  0  0  0  0  0  0  0  0  0  0
   -3.0750   -1.3975    0.0787 H   0  0  0  0  0  0  0  0  0  0  0  0
    1.2714    2.5525   -0.0818 H   0  0  0  0  0  0  0  0  0  0  0  0
    4.8831    0.0903   -0.9347 H   0  0  0  0  0  0  0  0  0  0  0  0
    7.0702    0.2513   -2.2489 H   0  0  0  0  0  0  0  0  0  0  0  0
    7.3706    0.0224   -0.5333 H   0  0  0  0  0  0  0  0  0  0  0  0
    9.4482    0.7623   -1.6959 H   0  0  0  0  0  0  0  0  0  0  0  0
    9.9839    2.7201   -0.2395 H   0  0  0  0  0  0  0  0  0  0  0  0
    9.1093    1.4865    0.6642 H   0  0  0  0  0  0  0  0  0  0  0  0
    8.1688    3.7506    1.1259 H   0  0  0  0  0  0  0  0  0  0  0  0
    6.6353    1.7802    1.1491 H   0  0  0  0  0  0  0  0  0  0  0  0
    5.8154    3.2432    0.6381 H   0  0  0  0  0  0  0  0  0  0  0  0
    8.7550    4.8266   -1.0406 H   0  0  0  0  0  0  0  0  0  0  0  0
    7.0322    5.0056   -0.7164 H   0  0  0  0  0  0  0  0  0  0  0  0
    7.4334    4.3028   -3.0844 H   0  0  0  0  0  0  0  0  0  0  0  0
    5.3530    3.5835   -1.9847 H   0  0  0  0  0  0  0  0  0  0  0  0
    5.8946    2.3327   -3.0884 H   0  0  0  0  0  0  0  0  0  0  0  0
    8.3779    2.0424   -3.5464 H   0  0  0  0  0  0  0  0  0  0  0  0
    9.5537    3.0472   -2.7030 H   0  0  0  0  0  0  0  0  0  0  0  0
    2.2012   -3.1537   -0.7847 H   0  0  0  0  0  0  0  0  0  0  0  0
    0.4765   -3.1840   -0.6258 H   0  0  0  0  0  0  0  0  0  0  0  0
    3.6262   -2.7736    1.4731 H   0  0  0  0  0  0  0  0  0  0  0  0
    4.0052   -4.0986    3.5349 H   0  0  0  0  0  0  0  0  0  0  0  0
   -0.0045   -5.5851    3.3643 H   0  0  0  0  0  0  0  0  0  0  0  0
   -0.4288   -4.2577    1.3093 H   0  0  0  0  0  0  0  0  0  0  0  0
  1  6  2  0  0  0  0
  1  2  1  0  0  0  0
  1 33  1  0  0  0  0
  2  3  2  0  0  0  0
  2 34  1  0  0  0  0
  3 11  1  0  0  0  0
  3  4  1  0  0  0  0
  4  5  2  0  0  0  0
  4  7  1  0  0  0  0
  5  6  1  0  0  0  0
  6 35  1  0  0  0  0
  7  8  1  0  0  0  0
  7 25  1  0  0  0  0
  8  9  2  0  0  0  0
  8 10  1  0  0  0  0
 10 11  2  0  0  0  0
 10 12  1  0  0  0  0
 11 36  1  0  0  0  0
 12 13  2  0  0  0  0
 12 14  1  0  0  0  0
 14 37  1  0  0  0  0
 15 14  1  1  0  0  0
 15 20  1  0  0  0  0
 15 23  1  0  0  0  0
 15 16  1  0  0  0  0
 16 38  1  0  0  0  0
 16 39  1  0  0  0  0
 17 16  1  0  0  0  0
 17 18  1  0  0  0  0
 17 24  1  0  0  0  0
 17 40  1  6  0  0  0
 18 41  1  0  0  0  0
 18 42  1  0  0  0  0
 19 18  1  0  0  0  0
 19 20  1  0  0  0  0
 19 21  1  0  0  0  0
 19 43  1  1  0  0  0
 20 44  1  0  0  0  0
 20 45  1  0  0  0  0
 21 46  1  0  0  0  0
 21 47  1  0  0  0  0
 22 21  1  0  0  0  0
 22 23  1  0  0  0  0
 22 24  1  0  0  0  0
 22 48  1  6  0  0  0
 23 49  1  0  0  0  0
 23 50  1  0  0  0  0
 24 51  1  0  0  0  0
 24 52  1  0  0  0  0
 25 26  1  0  0  0  0
 25 53  1  0  0  0  0
 25 54  1  0  0  0  0
 26 31  2  0  0  0  0
 26 27  1  0  0  0  0
 27 28  2  0  0  0  0
 27 55  1  0  0  0  0
 28 29  1  0  0  0  0
 28 56  1  0  0  0  0
 29 30  2  0  0  0  0
 29 32  1  0  0  0  0
 30 31  1  0  0  0  0
 30 57  1  0  0  0  0
 31 58  1  0  0  0  0
M  END
$$$$
CHEMBL5268104
 OpenBabel12022417453D

 64 68  0  0  1  0  0  0  0  0999 V2000
    4.3576    4.9247   -0.2278 C   0  0  2  0  0  0  0  0  0  0  0  0
    2.9866    4.4112   -0.6845 C   0  0  0  0  0  0  0  0  0  0  0  0
    3.1196    3.0905   -1.4968 C   0  0  1  0  0  0  0  0  0  0  0  0
    3.9414    3.4357   -2.7684 C   0  0  0  0  0  0  0  0  0  0  0  0
    5.3341    4.0231   -2.3678 C   0  0  1  0  0  0  0  0  0  0  0  0
    5.1818    5.2715   -1.4765 C   0  0  0  0  0  0  0  0  0  0  0  0
    6.1181    2.9839   -1.5468 C   0  0  0  0  0  0  0  0  0  0  0  0
    5.3167    2.5994   -0.2945 C   0  0  1  0  0  0  0  0  0  0  0  0
    5.0694    3.8333    0.5857 C   0  0  0  0  0  0  0  0  0  0  0  0
    3.9546    2.0435   -0.7091 C   0  0  0  0  0  0  0  0  0  0  0  0
    1.7937    2.4781   -1.7035 N   0  0  0  0  0  0  0  0  0  0  0  0
    0.6575    3.1773   -2.0747 C   0  0  0  0  0  0  0  0  0  0  0  0
    0.6879    4.1509   -2.8286 O   0  0  0  0  0  0  0  0  0  0  0  0
   -0.5709    2.7485   -1.3625 C   0  0  0  0  0  0  0  0  0  0  0  0
   -1.8850    3.3208   -1.4552 C   0  0  0  0  0  0  0  0  0  0  0  0
   -2.5106    2.9392   -0.2660 C   0  0  0  0  0  0  0  0  0  0  0  0
   -3.7264    3.3557    0.4666 C   0  0  0  0  0  0  0  0  0  0  0  0
   -3.9857    2.8656    1.7642 C   0  0  0  0  0  0  0  0  0  0  0  0
   -5.1793    3.1671    2.4362 C   0  0  0  0  0  0  0  0  0  0  0  0
   -6.1178    3.9995    1.8408 C   0  0  0  0  0  0  0  0  0  0  0  0
   -5.8365    4.5740    0.6065 C   0  0  0  0  0  0  0  0  0  0  0  0
   -4.6431    4.2692   -0.0620 C   0  0  0  0  0  0  0  0  0  0  0  0
   -1.8878    1.7037   -0.0712 N   0  0  0  0  0  0  0  0  0  0  0  0
   -2.6536    0.4627   -0.1962 C   0  0  0  0  0  0  0  0  0  0  0  0
   -1.9534   -0.8222    0.2230 C   0  0  0  0  0  0  0  0  0  0  0  0
   -2.8185   -2.0329   -0.1555 C   0  0  0  0  0  0  0  0  0  0  0  0
   -2.1164   -3.3336    0.2170 C   0  0  0  0  0  0  0  0  0  0  0  0
   -3.1356   -4.7607   -0.2549 S   0  0  0  0  0  0  0  0  0  0  0  0
   -2.0849   -5.9636    0.2957 C   0  0  0  0  0  0  0  0  0  0  0  0
   -1.3424   -6.7640    0.6866 N   0  0  0  0  0  0  0  0  0  0  0  0
   -0.5859    1.7318   -0.4688 N   0  0  0  0  0  0  0  0  0  0  0  0
   -2.3789    4.1371   -2.5849 C   0  0  0  0  0  0  0  0  0  0  0  0
    4.2276    5.8195    0.3915 H   0  0  0  0  0  0  0  0  0  0  0  0
    2.5222    5.1865   -1.3117 H   0  0  0  0  0  0  0  0  0  0  0  0
    2.3245    4.2744    0.1756 H   0  0  0  0  0  0  0  0  0  0  0  0
    4.0960    2.5327   -3.3764 H   0  0  0  0  0  0  0  0  0  0  0  0
    3.4094    4.1502   -3.4060 H   0  0  0  0  0  0  0  0  0  0  0  0
    5.9004    4.2851   -3.2671 H   0  0  0  0  0  0  0  0  0  0  0  0
    6.1703    5.6398   -1.1706 H   0  0  0  0  0  0  0  0  0  0  0  0
    4.7048    6.0837   -2.0371 H   0  0  0  0  0  0  0  0  0  0  0  0
    6.3229    2.0986   -2.1598 H   0  0  0  0  0  0  0  0  0  0  0  0
    7.0914    3.3949   -1.2510 H   0  0  0  0  0  0  0  0  0  0  0  0
    5.8654    1.8410    0.2767 H   0  0  0  0  0  0  0  0  0  0  0  0
    4.4508    3.5535    1.4497 H   0  0  0  0  0  0  0  0  0  0  0  0
    6.0175    4.2099    0.9824 H   0  0  0  0  0  0  0  0  0  0  0  0
    4.0913    1.1418   -1.3233 H   0  0  0  0  0  0  0  0  0  0  0  0
    3.4064    1.7221    0.1856 H   0  0  0  0  0  0  0  0  0  0  0  0
    1.5319    1.7604   -1.0210 H   0  0  0  0  0  0  0  0  0  0  0  0
   -3.2608    2.2343    2.2748 H   0  0  0  0  0  0  0  0  0  0  0  0
   -5.3699    2.7501    3.4214 H   0  0  0  0  0  0  0  0  0  0  0  0
   -7.0554    4.2175    2.3439 H   0  0  0  0  0  0  0  0  0  0  0  0
   -6.5457    5.2628    0.1537 H   0  0  0  0  0  0  0  0  0  0  0  0
   -4.4593    4.7677   -1.0059 H   0  0  0  0  0  0  0  0  0  0  0  0
   -2.9320    0.4055   -1.2572 H   0  0  0  0  0  0  0  0  0  0  0  0
   -3.5797    0.5740    0.3760 H   0  0  0  0  0  0  0  0  0  0  0  0
   -1.7721   -0.8098    1.3039 H   0  0  0  0  0  0  0  0  0  0  0  0
   -0.9792   -0.9058   -0.2706 H   0  0  0  0  0  0  0  0  0  0  0  0
   -3.7892   -1.9626    0.3529 H   0  0  0  0  0  0  0  0  0  0  0  0
   -3.0171   -2.0107   -1.2357 H   0  0  0  0  0  0  0  0  0  0  0  0
   -1.1522   -3.3970   -0.2986 H   0  0  0  0  0  0  0  0  0  0  0  0
   -1.9347   -3.3627    1.2962 H   0  0  0  0  0  0  0  0  0  0  0  0
   -2.1322    5.1935   -2.4722 H   0  0  0  0  0  0  0  0  0  0  0  0
   -3.4607    4.0176   -2.7080 H   0  0  0  0  0  0  0  0  0  0  0  0
   -1.9451    3.7657   -3.5195 H   0  0  0  0  0  0  0  0  0  0  0  0
  1  2  1  0  0  0  0
  1  6  1  0  0  0  0
  1  9  1  0  0  0  0
  1 33  1  1  0  0  0
  2  3  1  0  0  0  0
  2 34  1  0  0  0  0
  2 35  1  0  0  0  0
  3 10  1  0  0  0  0
  3  4  1  0  0  0  0
  3 11  1  6  0  0  0
  4 36  1  0  0  0  0
  4 37  1  0  0  0  0
  5  4  1  0  0  0  0
  5  6  1  0  0  0  0
  5  7  1  0  0  0  0
  5 38  1  6  0  0  0
  6 39  1  0  0  0  0
  6 40  1  0  0  0  0
  7 41  1  0  0  0  0
  7 42  1  0  0  0  0
  8  7  1  0  0  0  0
  8  9  1  0  0  0  0
  8 10  1  0  0  0  0
  8 43  1  1  0  0  0
  9 44  1  0  0  0  0
  9 45  1  0  0  0  0
 10 46  1  0  0  0  0
 10 47  1  0  0  0  0
 11 12  1  0  0  0  0
 11 48  1  0  0  0  0
 12 13  2  0  0  0  0
 12 14  1  0  0  0  0
 14 31  2  0  0  0  0
 14 15  1  0  0  0  0
 15 16  2  0  0  0  0
 15 32  1  0  0  0  0
 16 17  1  0  0  0  0
 16 23  1  0  0  0  0
 17 22  2  0  0  0  0
 17 18  1  0  0  0  0
 18 19  2  0  0  0  0
 18 49  1  0  0  0  0
 19 20  1  0  0  0  0
 19 50  1  0  0  0  0
 20 21  2  0  0  0  0
 20 51  1  0  0  0  0
 21 22  1  0  0  0  0
 21 52  1  0  0  0  0
 22 53  1  0  0  0  0
 23 24  1  0  0  0  0
 23 31  1  0  0  0  0
 24 25  1  0  0  0  0
 24 54  1  0  0  0  0
 24 55  1  0  0  0  0
 25 26  1  0  0  0  0
 25 56  1  0  0  0  0
 25 57  1  0  0  0  0
 26 27  1  0  0  0  0
 26 58  1  0  0  0  0
 26 59  1  0  0  0  0
 27 28  1  0  0  0  0
 27 60  1  0  0  0  0
 27 61  1  0  0  0  0
 28 29  1  0  0  0  0
 29 30  3  0  0  0  0
 32 62  1  0  0  0  0
 32 63  1  0  0  0  0
 32 64  1  0  0  0  0
M  END
$$$$
CHEMBL4083220	6N4B	best_smi
 OpenBabel12022417453D

 48 50  0  0  1  0  0  0  0  0999 V2000
   -0.1473   -0.8578   -3.4053 C   0  0  0  0  0  0  0  0  0  0  0  0
    1.3786   -0.7774   -3.5414 C   0  0  0  0  0  0  0  0  0  0  0  0
    1.9146   -2.1408   -3.9993 C   0  0  0  0  0  0  0  0  0  0  0  0
    2.0922   -0.2554   -2.2685 C   0  0  2  0  0  0  0  0  0  0  0  0
    1.9531   -1.1761   -1.1424 N   0  0  0  0  0  0  0  0  0  0  0  0
    2.9564   -1.3721   -0.2154 C   0  0  0  0  0  0  0  0  0  0  0  0
    4.0514   -0.8181   -0.3240 O   0  0  0  0  0  0  0  0  0  0  0  0
    2.6086   -2.2609    0.9109 C   0  0  0  0  0  0  0  0  0  0  0  0
    3.5307   -3.0088    1.5465 N   0  0  0  0  0  0  0  0  0  0  0  0
    2.8473   -3.6216    2.5423 N   0  0  0  0  0  0  0  0  0  0  0  0
    3.5401   -4.5377    3.4444 C   0  0  0  0  0  0  0  0  0  0  0  0
    4.0753   -3.8679    4.6923 C   0  0  0  0  0  0  0  0  0  0  0  0
    5.0767   -2.8862    4.6027 C   0  0  0  0  0  0  0  0  0  0  0  0
    5.6623   -2.3580    5.7560 C   0  0  0  0  0  0  0  0  0  0  0  0
    5.2398   -2.7984    7.0039 C   0  0  0  0  0  0  0  0  0  0  0  0
    5.8267   -2.3190    8.1082 F   0  0  0  0  0  0  0  0  0  0  0  0
    4.2262   -3.7427    7.1213 C   0  0  0  0  0  0  0  0  0  0  0  0
    3.6456   -4.2785    5.9683 C   0  0  0  0  0  0  0  0  0  0  0  0
    1.4978   -3.3537    2.5290 C   0  0  0  0  0  0  0  0  0  0  0  0
    0.4408   -3.7992    3.3273 C   0  0  0  0  0  0  0  0  0  0  0  0
   -0.8350   -3.2980    3.0560 C   0  0  0  0  0  0  0  0  0  0  0  0
   -1.0431   -2.3750    2.0395 C   0  0  0  0  0  0  0  0  0  0  0  0
    0.0195   -1.9293    1.2608 C   0  0  0  0  0  0  0  0  0  0  0  0
    1.3140   -2.4472    1.4890 C   0  0  0  0  0  0  0  0  0  0  0  0
    1.6243    1.1732   -1.8732 C   0  0  0  0  0  0  0  0  0  0  0  0
    2.3056    1.7815   -0.8590 N   0  0  0  0  0  0  0  0  0  0  0  0
    0.7334    1.8030   -2.4352 O   0  0  0  0  0  0  0  0  0  0  0  0
   -0.5914   -1.3428   -4.2799 H   0  0  0  0  0  0  0  0  0  0  0  0
   -0.5970    0.1353   -3.3428 H   0  0  0  0  0  0  0  0  0  0  0  0
   -0.4524   -1.4180   -2.5169 H   0  0  0  0  0  0  0  0  0  0  0  0
    1.6004   -0.0625   -4.3454 H   0  0  0  0  0  0  0  0  0  0  0  0
    1.5090   -2.9613   -3.3972 H   0  0  0  0  0  0  0  0  0  0  0  0
    3.0071   -2.1869   -3.9545 H   0  0  0  0  0  0  0  0  0  0  0  0
    1.6207   -2.3243   -5.0401 H   0  0  0  0  0  0  0  0  0  0  0  0
    3.1617   -0.1668   -2.4940 H   0  0  0  0  0  0  0  0  0  0  0  0
    1.0793   -1.6501   -1.0275 H   0  0  0  0  0  0  0  0  0  0  0  0
    4.3603   -5.0101    2.8903 H   0  0  0  0  0  0  0  0  0  0  0  0
    2.8356   -5.3365    3.7051 H   0  0  0  0  0  0  0  0  0  0  0  0
    5.4221   -2.5405    3.6284 H   0  0  0  0  0  0  0  0  0  0  0  0
    6.4541   -1.6200    5.6858 H   0  0  0  0  0  0  0  0  0  0  0  0
    3.9094   -4.0635    8.1081 H   0  0  0  0  0  0  0  0  0  0  0  0
    2.8720   -5.0354    6.0790 H   0  0  0  0  0  0  0  0  0  0  0  0
    0.5909   -4.5093    4.1359 H   0  0  0  0  0  0  0  0  0  0  0  0
   -1.6786   -3.6226    3.6592 H   0  0  0  0  0  0  0  0  0  0  0  0
   -2.0418   -1.9845    1.8481 H   0  0  0  0  0  0  0  0  0  0  0  0
   -0.1735   -1.1898    0.4898 H   0  0  0  0  0  0  0  0  0  0  0  0
    3.2318    1.4593   -0.5966 H   0  0  0  0  0  0  0  0  0  0  0  0
    2.0915    2.7617   -0.7246 H   0  0  0  0  0  0  0  0  0  0  0  0
  1  2  1  0  0  0  0
  1 28  1  0  0  0  0
  1 29  1  0  0  0  0
  1 30  1  0  0  0  0
  2  3  1  0  0  0  0
  2 31  1  0  0  0  0
  3 32  1  0  0  0  0
  3 33  1  0  0  0  0
  3 34  1  0  0  0  0
  4 25  1  0  0  0  0
  4  5  1  0  0  0  0
  4  2  1  0  0  0  0
  4 35  1  6  0  0  0
  5  6  1  0  0  0  0
  5 36  1  0  0  0  0
  6  7  2  0  0  0  0
  6  8  1  0  0  0  0
  8 24  1  0  0  0  0
  8  9  2  0  0  0  0
  9 10  1  0  0  0  0
 10 11  1  0  0  0  0
 10 19  1  0  0  0  0
 11 12  1  0  0  0  0
 11 37  1  0  0  0  0
 11 38  1  0  0  0  0
 12 18  2  0  0  0  0
 12 13  1  0  0  0  0
 13 14  2  0  0  0  0
 13 39  1  0  0  0  0
 14 15  1  0  0  0  0
 14 40  1  0  0  0  0
 15 16  1  0  0  0  0
 15 17  2  0  0  0  0
 17 18  1  0  0  0  0
 17 41  1  0  0  0  0
 18 42  1  0  0  0  0
 19 24  2  0  0  0  0
 19 20  1  0  0  0  0
 20 21  2  0  0  0  0
 20 43  1  0  0  0  0
 21 22  1  0  0  0  0
 21 44  1  0  0  0  0
 22 23  2  0  0  0  0
 22 45  1  0  0  0  0
 23 24  1  0  0  0  0
 23 46  1  0  0  0  0
 25 26  1  0  0  0  0
 25 27  2  0  0  0  0
 26 47  1  0  0  0  0
 26 48  1  0  0  0  0
M  END
$$$$
