CHEMBL2381801	6PT0	best_smi
 OpenBabel12022418093D

 58 63  0  0  1  0  0  0  0  0999 V2000
    0.9675    0.1638   -0.1136 C   0  0  0  0  0  0  0  0  0  0  0  0
    2.4247   -0.0990   -0.2983 C   0  0  0  0  0  0  0  0  0  0  0  0
    3.1573   -1.3053   -0.3473 C   0  0  0  0  0  0  0  0  0  0  0  0
    2.6861   -2.6991   -0.2343 C   0  0  0  0  0  0  0  0  0  0  0  0
    3.4325   -3.6073    0.1362 O   0  0  0  0  0  0  0  0  0  0  0  0
    1.2835   -3.0777   -0.5154 C   0  0  0  0  0  0  0  0  0  0  0  0
    0.6422   -3.9455    0.3714 C   0  0  0  0  0  0  0  0  0  0  0  0
   -0.7103   -4.2537    0.2003 C   0  0  0  0  0  0  0  0  0  0  0  0
   -1.4365   -3.6906   -0.8616 C   0  0  0  0  0  0  0  0  0  0  0  0
   -2.8188   -3.9081   -0.9885 C   0  0  0  0  0  0  0  0  0  0  0  0
   -3.5354   -3.3309   -2.0416 C   0  0  0  0  0  0  0  0  0  0  0  0
   -2.8748   -2.5586   -2.9908 C   0  0  0  0  0  0  0  0  0  0  0  0
   -1.4976   -2.3421   -2.8780 C   0  0  0  0  0  0  0  0  0  0  0  0
   -0.7672   -2.8832   -1.8121 C   0  0  0  0  0  0  0  0  0  0  0  0
    0.6006   -2.6118   -1.6443 C   0  0  0  0  0  0  0  0  0  0  0  0
    4.5553   -0.9438   -0.3876 C   0  0  0  0  0  0  0  0  0  0  0  0
    5.7929   -1.6279   -0.3322 C   0  0  0  0  0  0  0  0  0  0  0  0
    6.9953   -0.8940   -0.3213 C   0  0  0  0  0  0  0  0  0  0  0  0
    6.9924    0.5022   -0.3584 C   0  0  0  0  0  0  0  0  0  0  0  0
    5.7812    1.1783   -0.3707 C   0  0  0  0  0  0  0  0  0  0  0  0
    4.6092    0.4334   -0.4153 C   0  0  0  0  0  0  0  0  0  0  0  0
    3.3365    0.9330   -0.3539 N   0  0  0  0  0  0  0  0  0  0  0  0
    3.1956    2.3812   -0.1002 C   0  0  2  0  0  0  0  0  0  0  0  0
    2.7683    3.1629   -1.3669 C   0  0  0  0  0  0  0  0  0  0  0  0
    2.6916    4.6380   -1.2448 N   0  0  0  0  0  0  0  0  0  0  0  0
    1.7803    5.1683   -0.2053 C   0  0  0  0  0  0  0  0  0  0  0  0
    0.2854    5.2140   -0.5746 C   0  0  0  0  0  0  0  0  0  0  0  0
    0.0499    5.7972   -1.8606 O   0  0  0  0  0  0  0  0  0  0  0  0
    0.8320    5.1449   -2.8661 C   0  0  0  0  0  0  0  0  0  0  0  0
    2.3287    5.2699   -2.5361 C   0  0  0  0  0  0  0  0  0  0  0  0
    4.5346    2.8886    0.5085 C   0  0  0  0  0  0  0  0  0  0  0  0
    5.7108    2.5469   -0.2677 O   0  0  0  0  0  0  0  0  0  0  0  0
    0.7499    1.2142    0.0912 H   0  0  0  0  0  0  0  0  0  0  0  0
    0.5811   -0.4168    0.7291 H   0  0  0  0  0  0  0  0  0  0  0  0
    0.4069   -0.0873   -1.0163 H   0  0  0  0  0  0  0  0  0  0  0  0
    1.1852   -4.3761    1.2096 H   0  0  0  0  0  0  0  0  0  0  0  0
   -1.1960   -4.9154    0.9119 H   0  0  0  0  0  0  0  0  0  0  0  0
   -3.3534   -4.5118   -0.2614 H   0  0  0  0  0  0  0  0  0  0  0  0
   -4.6088   -3.4877   -2.1165 H   0  0  0  0  0  0  0  0  0  0  0  0
   -3.4285   -2.1189   -3.8130 H   0  0  0  0  0  0  0  0  0  0  0  0
   -1.0070   -1.7287   -3.6203 H   0  0  0  0  0  0  0  0  0  0  0  0
    1.1271   -1.9958   -2.3709 H   0  0  0  0  0  0  0  0  0  0  0  0
    5.8199   -2.7122   -0.2535 H   0  0  0  0  0  0  0  0  0  0  0  0
    7.9417   -1.4257   -0.2430 H   0  0  0  0  0  0  0  0  0  0  0  0
    7.9243    1.0566   -0.3156 H   0  0  0  0  0  0  0  0  0  0  0  0
    2.4231    2.4771    0.6697 H   0  0  0  0  0  0  0  0  0  0  0  0
    1.8098    2.7607   -1.7143 H   0  0  0  0  0  0  0  0  0  0  0  0
    3.4961    2.9382   -2.1590 H   0  0  0  0  0  0  0  0  0  0  0  0
    2.1006    6.2007   -0.0176 H   0  0  0  0  0  0  0  0  0  0  0  0
    1.9121    4.6513    0.7483 H   0  0  0  0  0  0  0  0  0  0  0  0
   -0.2463    5.8349    0.1552 H   0  0  0  0  0  0  0  0  0  0  0  0
   -0.1623    4.2154   -0.5505 H   0  0  0  0  0  0  0  0  0  0  0  0
    0.6161    5.6276   -3.8240 H   0  0  0  0  0  0  0  0  0  0  0  0
    0.5131    4.1000   -2.9488 H   0  0  0  0  0  0  0  0  0  0  0  0
    2.9386    4.8697   -3.3523 H   0  0  0  0  0  0  0  0  0  0  0  0
    2.5749    6.3389   -2.4622 H   0  0  0  0  0  0  0  0  0  0  0  0
    4.6624    2.4619    1.5158 H   0  0  0  0  0  0  0  0  0  0  0  0
    4.5280    3.9739    0.6423 H   0  0  0  0  0  0  0  0  0  0  0  0
  1  2  1  0  0  0  0
  1 33  1  0  0  0  0
  1 34  1  0  0  0  0
  1 35  1  0  0  0  0
  2 22  1  0  0  0  0
  2  3  2  0  0  0  0
  3  4  1  0  0  0  0
  3 16  1  0  0  0  0
  4  5  2  0  0  0  0
  4  6  1  0  0  0  0
  6 15  2  0  0  0  0
  6  7  1  0  0  0  0
  7  8  2  0  0  0  0
  7 36  1  0  0  0  0
  8  9  1  0  0  0  0
  8 37  1  0  0  0  0
  9 14  2  0  0  0  0
  9 10  1  0  0  0  0
 10 11  2  0  0  0  0
 10 38  1  0  0  0  0
 11 12  1  0  0  0  0
 11 39  1  0  0  0  0
 12 13  2  0  0  0  0
 12 40  1  0  0  0  0
 13 14  1  0  0  0  0
 13 41  1  0  0  0  0
 14 15  1  0  0  0  0
 15 42  1  0  0  0  0
 16 21  2  0  0  0  0
 16 17  1  0  0  0  0
 17 18  2  0  0  0  0
 17 43  1  0  0  0  0
 18 19  1  0  0  0  0
 18 44  1  0  0  0  0
 19 20  2  0  0  0  0
 19 45  1  0  0  0  0
 20 32  1  0  0  0  0
 20 21  1  0  0  0  0
 21 22  1  0  0  0  0
 22 23  1  0  0  0  0
 23 24  1  0  0  0  0
 23 31  1  0  0  0  0
 23 46  1  1  0  0  0
 24 25  1  0  0  0  0
 24 47  1  0  0  0  0
 24 48  1  0  0  0  0
 25 30  1  0  0  0  0
 25 26  1  0  0  0  0
 26 27  1  0  0  0  0
 26 49  1  0  0  0  0
 26 50  1  0  0  0  0
 27 28  1  0  0  0  0
 27 51  1  0  0  0  0
 27 52  1  0  0  0  0
 28 29  1  0  0  0  0
 29 30  1  0  0  0  0
 29 53  1  0  0  0  0
 29 54  1  0  0  0  0
 30 55  1  0  0  0  0
 30 56  1  0  0  0  0
 31 32  1  0  0  0  0
 31 57  1  0  0  0  0
 31 58  1  0  0  0  0
M  END
$$$$
CHEMBL188	6PT0	best_smi
 OpenBabel12022418093D

 58 63  0  0  1  0  0  0  0  0999 V2000
    1.0019   -0.1101   -0.0281 C   0  0  0  0  0  0  0  0  0  0  0  0
    2.4936   -0.2357   -0.0873 C   0  0  0  0  0  0  0  0  0  0  0  0
    3.2915   -1.3970   -0.1053 C   0  0  0  0  0  0  0  0  0  0  0  0
    2.7263   -2.7775   -0.0428 C   0  0  0  0  0  0  0  0  0  0  0  0
    1.6371   -3.0325   -0.5412 O   0  0  0  0  0  0  0  0  0  0  0  0
    3.4920   -3.8631    0.6730 C   0  0  0  0  0  0  0  0  0  0  0  0
    4.2829   -3.4959    1.7773 C   0  0  0  0  0  0  0  0  0  0  0  0
    5.1497   -4.3990    2.3858 C   0  0  0  0  0  0  0  0  0  0  0  0
    5.3068   -5.6659    1.8414 C   0  0  0  0  0  0  0  0  0  0  0  0
    4.5388   -6.0593    0.7388 C   0  0  0  0  0  0  0  0  0  0  0  0
    4.8338   -7.2652    0.0995 C   0  0  0  0  0  0  0  0  0  0  0  0
    4.0698   -7.7022   -0.9726 C   0  0  0  0  0  0  0  0  0  0  0  0
    2.8673   -7.0676   -1.2527 C   0  0  0  0  0  0  0  0  0  0  0  0
    2.6043   -5.8229   -0.6786 C   0  0  0  0  0  0  0  0  0  0  0  0
    3.5108   -5.2166    0.2312 C   0  0  0  0  0  0  0  0  0  0  0  0
    4.6718   -0.9525   -0.1713 C   0  0  0  0  0  0  0  0  0  0  0  0
    5.9520   -1.5431   -0.2353 C   0  0  0  0  0  0  0  0  0  0  0  0
    7.0981   -0.7157   -0.2013 C   0  0  0  0  0  0  0  0  0  0  0  0
    7.0016    0.6750   -0.1257 C   0  0  0  0  0  0  0  0  0  0  0  0
    5.7478    1.2599   -0.0639 C   0  0  0  0  0  0  0  0  0  0  0  0
    4.6317    0.4277   -0.1234 C   0  0  0  0  0  0  0  0  0  0  0  0
    3.3294    0.8527   -0.0764 N   0  0  0  0  0  0  0  0  0  0  0  0
    3.0911    2.3206    0.0444 C   0  0  2  0  0  0  0  0  0  0  0  0
    2.7958    2.9208   -1.3585 C   0  0  0  0  0  0  0  0  0  0  0  0
    2.8111    4.3767   -1.6635 N   0  0  0  0  0  0  0  0  0  0  0  0
    1.8423    5.2649   -0.9814 C   0  0  0  0  0  0  0  0  0  0  0  0
    0.3865    5.2423   -1.5046 C   0  0  0  0  0  0  0  0  0  0  0  0
    0.2949    5.3139   -2.9329 O   0  0  0  0  0  0  0  0  0  0  0  0
    1.1280    4.3237   -3.5428 C   0  0  0  0  0  0  0  0  0  0  0  0
    2.5923    4.5566   -3.1309 C   0  0  0  0  0  0  0  0  0  0  0  0
    4.3441    2.8883    0.7622 C   0  0  0  0  0  0  0  0  0  0  0  0
    5.6024    2.6158    0.0746 O   0  0  0  0  0  0  0  0  0  0  0  0
    0.6834    0.9345   -0.0055 H   0  0  0  0  0  0  0  0  0  0  0  0
    0.6317   -0.5953    0.8762 H   0  0  0  0  0  0  0  0  0  0  0  0
    0.5496   -0.5745   -0.9005 H   0  0  0  0  0  0  0  0  0  0  0  0
    4.2459   -2.4837    2.1660 H   0  0  0  0  0  0  0  0  0  0  0  0
    5.7492   -4.0978    3.2380 H   0  0  0  0  0  0  0  0  0  0  0  0
    6.0344   -6.3450    2.2870 H   0  0  0  0  0  0  0  0  0  0  0  0
    5.6977   -7.8561    0.4013 H   0  0  0  0  0  0  0  0  0  0  0  0
    4.4116   -8.5256   -1.5949 H   0  0  0  0  0  0  0  0  0  0  0  0
    2.1627   -7.5166   -1.9449 H   0  0  0  0  0  0  0  0  0  0  0  0
    1.6755   -5.3270   -0.9564 H   0  0  0  0  0  0  0  0  0  0  0  0
    6.0892   -2.6183   -0.2697 H   0  0  0  0  0  0  0  0  0  0  0  0
    8.0881   -1.1723   -0.1955 H   0  0  0  0  0  0  0  0  0  0  0  0
    7.8944    1.2926   -0.0763 H   0  0  0  0  0  0  0  0  0  0  0  0
    2.2251    2.4457    0.7026 H   0  0  0  0  0  0  0  0  0  0  0  0
    1.8341    2.4978   -1.6666 H   0  0  0  0  0  0  0  0  0  0  0  0
    3.5435    2.4799   -2.0330 H   0  0  0  0  0  0  0  0  0  0  0  0
    2.2085    6.2912   -1.1446 H   0  0  0  0  0  0  0  0  0  0  0  0
    1.8594    5.1188    0.1022 H   0  0  0  0  0  0  0  0  0  0  0  0
   -0.1536    6.1136   -1.1145 H   0  0  0  0  0  0  0  0  0  0  0  0
   -0.1396    4.3458   -1.1615 H   0  0  0  0  0  0  0  0  0  0  0  0
    1.0211    4.4087   -4.6284 H   0  0  0  0  0  0  0  0  0  0  0  0
    0.7616    3.3277   -3.2666 H   0  0  0  0  0  0  0  0  0  0  0  0
    3.2599    3.9043   -3.7039 H   0  0  0  0  0  0  0  0  0  0  0  0
    2.8674    5.5882   -3.3912 H   0  0  0  0  0  0  0  0  0  0  0  0
    4.2609    3.9668    0.9201 H   0  0  0  0  0  0  0  0  0  0  0  0
    4.4202    2.4408    1.7691 H   0  0  0  0  0  0  0  0  0  0  0  0
  1  2  1  0  0  0  0
  1 33  1  0  0  0  0
  1 34  1  0  0  0  0
  1 35  1  0  0  0  0
  2 22  1  0  0  0  0
  2  3  2  0  0  0  0
  3  4  1  0  0  0  0
  3 16  1  0  0  0  0
  4  5  2  0  0  0  0
  4  6  1  0  0  0  0
  6 15  2  0  0  0  0
  6  7  1  0  0  0  0
  7  8  2  0  0  0  0
  7 36  1  0  0  0  0
  8  9  1  0  0  0  0
  8 37  1  0  0  0  0
  9 10  2  0  0  0  0
  9 38  1  0  0  0  0
 10 15  1  0  0  0  0
 10 11  1  0  0  0  0
 11 12  2  0  0  0  0
 11 39  1  0  0  0  0
 12 13  1  0  0  0  0
 12 40  1  0  0  0  0
 13 14  2  0  0  0  0
 13 41  1  0  0  0  0
 14 15  1  0  0  0  0
 14 42  1  0  0  0  0
 16 21  2  0  0  0  0
 16 17  1  0  0  0  0
 17 18  2  0  0  0  0
 17 43  1  0  0  0  0
 18 19  1  0  0  0  0
 18 44  1  0  0  0  0
 19 20  2  0  0  0  0
 19 45  1  0  0  0  0
 20 32  1  0  0  0  0
 20 21  1  0  0  0  0
 21 22  1  0  0  0  0
 22 23  1  0  0  0  0
 23 24  1  0  0  0  0
 23 31  1  0  0  0  0
 23 46  1  1  0  0  0
 24 25  1  0  0  0  0
 24 47  1  0  0  0  0
 24 48  1  0  0  0  0
 25 30  1  0  0  0  0
 25 26  1  0  0  0  0
 26 27  1  0  0  0  0
 26 49  1  0  0  0  0
 26 50  1  0  0  0  0
 27 28  1  0  0  0  0
 27 51  1  0  0  0  0
 27 52  1  0  0  0  0
 28 29  1  0  0  0  0
 29 30  1  0  0  0  0
 29 53  1  0  0  0  0
 29 54  1  0  0  0  0
 30 55  1  0  0  0  0
 30 56  1  0  0  0  0
 31 32  1  0  0  0  0
 31 57  1  0  0  0  0
 31 58  1  0  0  0  0
M  END
$$$$
CHEMBL1592888	6PT0	best_smi
 OpenBabel12022418093D

 58 63  0  0  1  0  0  0  0  0999 V2000
    0.9811   -0.2879   -0.0158 C   0  0  0  0  0  0  0  0  0  0  0  0
    2.4731   -0.2230   -0.0518 C   0  0  0  0  0  0  0  0  0  0  0  0
    3.3248   -1.3463    0.0044 C   0  0  0  0  0  0  0  0  0  0  0  0
    2.8240   -2.7476    0.0876 C   0  0  0  0  0  0  0  0  0  0  0  0
    1.7519   -3.0743   -0.4171 O   0  0  0  0  0  0  0  0  0  0  0  0
    3.6212   -3.7856    0.8379 C   0  0  0  0  0  0  0  0  0  0  0  0
    4.3667   -3.3781    1.9489 C   0  0  0  0  0  0  0  0  0  0  0  0
    5.2657   -4.2441    2.5625 C   0  0  0  0  0  0  0  0  0  0  0  0
    5.4834   -5.5035    2.0244 C   0  0  0  0  0  0  0  0  0  0  0  0
    4.7598   -5.9282    0.9017 C   0  0  0  0  0  0  0  0  0  0  0  0
    5.1347   -7.1062    0.2557 C   0  0  0  0  0  0  0  0  0  0  0  0
    4.4336   -7.5430   -0.8616 C   0  0  0  0  0  0  0  0  0  0  0  0
    3.1961   -6.9903   -1.1388 C   0  0  0  0  0  0  0  0  0  0  0  0
    2.8519   -5.7720   -0.5611 C   0  0  0  0  0  0  0  0  0  0  0  0
    3.6981   -5.1450    0.3832 C   0  0  0  0  0  0  0  0  0  0  0  0
    4.6757   -0.8579   -0.0574 C   0  0  0  0  0  0  0  0  0  0  0  0
    5.9739   -1.4139   -0.0959 C   0  0  0  0  0  0  0  0  0  0  0  0
    7.1067   -0.5757   -0.0957 C   0  0  0  0  0  0  0  0  0  0  0  0
    6.9703    0.8086   -0.0966 C   0  0  0  0  0  0  0  0  0  0  0  0
    5.7031    1.3639   -0.0870 C   0  0  0  0  0  0  0  0  0  0  0  0
    4.5939    0.5206   -0.0615 C   0  0  0  0  0  0  0  0  0  0  0  0
    3.2595    0.9257   -0.0687 N   0  0  0  0  0  0  0  0  0  0  0  0
    3.0294    2.3930   -0.1405 C   0  0  1  0  0  0  0  0  0  0  0  0
    1.7707    2.8527    0.6302 C   0  0  0  0  0  0  0  0  0  0  0  0
    1.1699    4.2023    0.5964 N   0  0  0  0  0  0  0  0  0  0  0  0
    1.9666    5.4167    0.8160 C   0  0  0  0  0  0  0  0  0  0  0  0
    2.3380    5.7291    2.2784 C   0  0  0  0  0  0  0  0  0  0  0  0
    1.2022    5.6699    3.1523 O   0  0  0  0  0  0  0  0  0  0  0  0
    0.5189    4.4208    3.0133 C   0  0  0  0  0  0  0  0  0  0  0  0
    0.0371    4.2358    1.5633 C   0  0  0  0  0  0  0  0  0  0  0  0
    4.2904    3.1025    0.4320 C   0  0  0  0  0  0  0  0  0  0  0  0
    5.5467    2.7223   -0.1388 O   0  0  0  0  0  0  0  0  0  0  0  0
    0.4522    0.6287   -0.2401 H   0  0  0  0  0  0  0  0  0  0  0  0
    0.6513   -0.6433    0.9686 H   0  0  0  0  0  0  0  0  0  0  0  0
    0.6181   -0.9931   -0.7695 H   0  0  0  0  0  0  0  0  0  0  0  0
    4.2858   -2.3655    2.3290 H   0  0  0  0  0  0  0  0  0  0  0  0
    5.8462   -3.9138    3.4185 H   0  0  0  0  0  0  0  0  0  0  0  0
    6.2345   -6.1515    2.4719 H   0  0  0  0  0  0  0  0  0  0  0  0
    6.0243   -7.6522    0.5639 H   0  0  0  0  0  0  0  0  0  0  0  0
    4.8586   -8.2966   -1.5155 H   0  0  0  0  0  0  0  0  0  0  0  0
    2.5328   -7.4678   -1.8583 H   0  0  0  0  0  0  0  0  0  0  0  0
    1.9057   -5.3253   -0.8525 H   0  0  0  0  0  0  0  0  0  0  0  0
    6.1190   -2.4886   -0.1191 H   0  0  0  0  0  0  0  0  0  0  0  0
    8.1025   -1.0126   -0.0980 H   0  0  0  0  0  0  0  0  0  0  0  0
    7.8453    1.4532   -0.1011 H   0  0  0  0  0  0  0  0  0  0  0  0
    2.9372    2.5995   -1.2148 H   0  0  0  0  0  0  0  0  0  0  0  0
    0.9609    2.2939    0.1780 H   0  0  0  0  0  0  0  0  0  0  0  0
    1.8653    2.4829    1.6566 H   0  0  0  0  0  0  0  0  0  0  0  0
    1.3404    6.2514    0.4689 H   0  0  0  0  0  0  0  0  0  0  0  0
    2.8356    5.4713    0.1610 H   0  0  0  0  0  0  0  0  0  0  0  0
    2.7268    6.7518    2.3402 H   0  0  0  0  0  0  0  0  0  0  0  0
    3.1133    5.0539    2.6539 H   0  0  0  0  0  0  0  0  0  0  0  0
   -0.3367    4.4221    3.6946 H   0  0  0  0  0  0  0  0  0  0  0  0
    1.1873    3.6150    3.3395 H   0  0  0  0  0  0  0  0  0  0  0  0
   -0.5720    3.3280    1.4777 H   0  0  0  0  0  0  0  0  0  0  0  0
   -0.6160    5.0739    1.2909 H   0  0  0  0  0  0  0  0  0  0  0  0
    4.3411    2.9617    1.5256 H   0  0  0  0  0  0  0  0  0  0  0  0
    4.2390    4.1752    0.2569 H   0  0  0  0  0  0  0  0  0  0  0  0
  1  2  1  0  0  0  0
  1 33  1  0  0  0  0
  1 34  1  0  0  0  0
  1 35  1  0  0  0  0
  2 22  1  0  0  0  0
  2  3  2  0  0  0  0
  3  4  1  0  0  0  0
  3 16  1  0  0  0  0
  4  5  2  0  0  0  0
  4  6  1  0  0  0  0
  6 15  2  0  0  0  0
  6  7  1  0  0  0  0
  7  8  2  0  0  0  0
  7 36  1  0  0  0  0
  8  9  1  0  0  0  0
  8 37  1  0  0  0  0
  9 10  2  0  0  0  0
  9 38  1  0  0  0  0
 10 15  1  0  0  0  0
 10 11  1  0  0  0  0
 11 12  2  0  0  0  0
 11 39  1  0  0  0  0
 12 13  1  0  0  0  0
 12 40  1  0  0  0  0
 13 14  2  0  0  0  0
 13 41  1  0  0  0  0
 14 15  1  0  0  0  0
 14 42  1  0  0  0  0
 16 21  2  0  0  0  0
 16 17  1  0  0  0  0
 17 18  2  0  0  0  0
 17 43  1  0  0  0  0
 18 19  1  0  0  0  0
 18 44  1  0  0  0  0
 19 20  2  0  0  0  0
 19 45  1  0  0  0  0
 20 32  1  0  0  0  0
 20 21  1  0  0  0  0
 21 22  1  0  0  0  0
 22 23  1  0  0  0  0
 23 31  1  0  0  0  0
 23 24  1  0  0  0  0
 23 46  1  6  0  0  0
 24 25  1  0  0  0  0
 24 47  1  0  0  0  0
 24 48  1  0  0  0  0
 25 30  1  0  0  0  0
 25 26  1  0  0  0  0
 26 27  1  0  0  0  0
 26 49  1  0  0  0  0
 26 50  1  0  0  0  0
 27 28  1  0  0  0  0
 27 51  1  0  0  0  0
 27 52  1  0  0  0  0
 28 29  1  0  0  0  0
 29 30  1  0  0  0  0
 29 53  1  0  0  0  0
 29 54  1  0  0  0  0
 30 55  1  0  0  0  0
 30 56  1  0  0  0  0
 31 32  1  0  0  0  0
 31 57  1  0  0  0  0
 31 58  1  0  0  0  0
M  END
$$$$
CHEMBL385994
 OpenBabel12022418093D

 57 60  0  0  0  0  0  0  0  0999 V2000
    0.9247   -1.0710   -1.4172 C   0  0  0  0  0  0  0  0  0  0  0  0
    2.1565   -0.5426   -1.0489 C   0  0  0  0  0  0  0  0  0  0  0  0
    2.2297    0.7546   -0.5518 C   0  0  0  0  0  0  0  0  0  0  0  0
    1.0779    1.5596   -0.4555 C   0  0  0  0  0  0  0  0  0  0  0  0
   -0.1895    1.0306   -0.8472 C   0  0  0  0  0  0  0  0  0  0  0  0
   -0.2486   -0.3110   -1.3114 C   0  0  0  0  0  0  0  0  0  0  0  0
   -1.4804   -0.8951   -1.6540 C   0  0  0  0  0  0  0  0  0  0  0  0
   -2.6695   -0.1773   -1.5647 C   0  0  0  0  0  0  0  0  0  0  0  0
   -2.6390    1.1432   -1.1469 C   0  0  0  0  0  0  0  0  0  0  0  0
   -1.4223    1.7380   -0.8042 C   0  0  0  0  0  0  0  0  0  0  0  0
    1.1970    2.9091    0.2013 C   0  0  0  0  0  0  0  0  0  0  0  0
    0.2716    3.3270    0.8939 O   0  0  0  0  0  0  0  0  0  0  0  0
    2.4403    3.6762    0.1258 C   0  0  0  0  0  0  0  0  0  0  0  0
    3.4054    3.6907   -0.8582 C   0  0  0  0  0  0  0  0  0  0  0  0
    4.4503    4.4961   -0.4576 N   0  0  0  0  0  0  0  0  0  0  0  0
    4.1595    5.0638    0.7798 C   0  0  0  0  0  0  0  0  0  0  0  0
    2.8888    4.6018    1.1054 C   0  0  0  0  0  0  0  0  0  0  0  0
    5.0540    5.8851    1.6295 C   0  0  0  0  0  0  0  0  0  0  0  0
    6.0417    6.7408    1.1283 C   0  0  0  0  0  0  0  0  0  0  0  0
    6.9197    7.4136    1.9823 C   0  0  0  0  0  0  0  0  0  0  0  0
    6.7848    7.2854    3.3604 C   0  0  0  0  0  0  0  0  0  0  0  0
    5.7699    6.4953    3.8930 C   0  0  0  0  0  0  0  0  0  0  0  0
    4.9210    5.7978    3.0286 C   0  0  0  0  0  0  0  0  0  0  0  0
    5.7142    6.4705    5.2598 O   0  0  0  0  0  0  0  0  0  0  0  0
    4.6469    5.7276    5.8382 C   0  0  0  0  0  0  0  0  0  0  0  0
    5.6883    4.6804   -1.2023 C   0  0  0  0  0  0  0  0  0  0  0  0
    5.8559    3.8641   -2.4803 C   0  0  0  0  0  0  0  0  0  0  0  0
    7.1945    4.1729   -3.1496 C   0  0  0  0  0  0  0  0  0  0  0  0
    7.3246    3.3898   -4.4537 C   0  0  0  0  0  0  0  0  0  0  0  0
    8.6455    3.6662   -5.1448 C   0  0  0  0  0  0  0  0  0  0  0  0
    0.8847   -2.0979   -1.7762 H   0  0  0  0  0  0  0  0  0  0  0  0
    3.0540   -1.1519   -1.1215 H   0  0  0  0  0  0  0  0  0  0  0  0
    3.1979    1.1103   -0.2090 H   0  0  0  0  0  0  0  0  0  0  0  0
   -1.5249   -1.9319   -1.9843 H   0  0  0  0  0  0  0  0  0  0  0  0
   -3.6157   -0.6502   -1.8199 H   0  0  0  0  0  0  0  0  0  0  0  0
   -3.5592    1.7183   -1.0782 H   0  0  0  0  0  0  0  0  0  0  0  0
   -1.4559    2.7799   -0.4876 H   0  0  0  0  0  0  0  0  0  0  0  0
    3.4367    3.1615   -1.8011 H   0  0  0  0  0  0  0  0  0  0  0  0
    2.3426    4.8443    2.0097 H   0  0  0  0  0  0  0  0  0  0  0  0
    6.1582    6.9226    0.0687 H   0  0  0  0  0  0  0  0  0  0  0  0
    7.7053    8.0404    1.5685 H   0  0  0  0  0  0  0  0  0  0  0  0
    7.4660    7.8125    4.0228 H   0  0  0  0  0  0  0  0  0  0  0  0
    4.1448    5.1583    3.4346 H   0  0  0  0  0  0  0  0  0  0  0  0
    4.7398    5.8056    6.9267 H   0  0  0  0  0  0  0  0  0  0  0  0
    4.7142    4.6674    5.5726 H   0  0  0  0  0  0  0  0  0  0  0  0
    3.6755    6.1465    5.5550 H   0  0  0  0  0  0  0  0  0  0  0  0
    6.5107    4.4567   -0.5137 H   0  0  0  0  0  0  0  0  0  0  0  0
    5.7139    5.7357   -1.4872 H   0  0  0  0  0  0  0  0  0  0  0  0
    5.0449    4.1064   -3.1777 H   0  0  0  0  0  0  0  0  0  0  0  0
    5.7916    2.7927   -2.2572 H   0  0  0  0  0  0  0  0  0  0  0  0
    8.0171    3.9139   -2.4720 H   0  0  0  0  0  0  0  0  0  0  0  0
    7.2704    5.2483   -3.3534 H   0  0  0  0  0  0  0  0  0  0  0  0
    6.5003    3.6578   -5.1257 H   0  0  0  0  0  0  0  0  0  0  0  0
    7.2383    2.3163   -4.2470 H   0  0  0  0  0  0  0  0  0  0  0  0
    8.7423    4.7272   -5.3946 H   0  0  0  0  0  0  0  0  0  0  0  0
    8.7107    3.0897   -6.0726 H   0  0  0  0  0  0  0  0  0  0  0  0
    9.4881    3.3830   -4.5066 H   0  0  0  0  0  0  0  0  0  0  0  0
  1  6  2  0  0  0  0
  1  2  1  0  0  0  0
  1 31  1  0  0  0  0
  2  3  2  0  0  0  0
  2 32  1  0  0  0  0
  3  4  1  0  0  0  0
  3 33  1  0  0  0  0
  4  5  2  0  0  0  0
  4 11  1  0  0  0  0
  5 10  1  0  0  0  0
  5  6  1  0  0  0  0
  6  7  1  0  0  0  0
  7  8  2  0  0  0  0
  7 34  1  0  0  0  0
  8  9  1  0  0  0  0
  8 35  1  0  0  0  0
  9 10  2  0  0  0  0
  9 36  1  0  0  0  0
 10 37  1  0  0  0  0
 11 12  2  0  0  0  0
 11 13  1  0  0  0  0
 13 17  1  0  0  0  0
 13 14  2  0  0  0  0
 14 15  1  0  0  0  0
 14 38  1  0  0  0  0
 15 16  1  0  0  0  0
 15 26  1  0  0  0  0
 16 17  2  0  0  0  0
 16 18  1  0  0  0  0
 17 39  1  0  0  0  0
 18 23  2  0  0  0  0
 18 19  1  0  0  0  0
 19 20  2  0  0  0  0
 19 40  1  0  0  0  0
 20 21  1  0  0  0  0
 20 41  1  0  0  0  0
 21 22  2  0  0  0  0
 21 42  1  0  0  0  0
 22 23  1  0  0  0  0
 22 24  1  0  0  0  0
 23 43  1  0  0  0  0
 24 25  1  0  0  0  0
 25 44  1  0  0  0  0
 25 45  1  0  0  0  0
 25 46  1  0  0  0  0
 26 27  1  0  0  0  0
 26 47  1  0  0  0  0
 26 48  1  0  0  0  0
 27 28  1  0  0  0  0
 27 49  1  0  0  0  0
 27 50  1  0  0  0  0
 28 29  1  0  0  0  0
 28 51  1  0  0  0  0
 28 52  1  0  0  0  0
 29 30  1  0  0  0  0
 29 53  1  0  0  0  0
 29 54  1  0  0  0  0
 30 55  1  0  0  0  0
 30 56  1  0  0  0  0
 30 57  1  0  0  0  0
M  END
$$$$
CHEMBL232410
 OpenBabel12022418093D

 56 57  0  0  0  0  0  0  0  0999 V2000
    6.9501    4.4047    0.6575 C   0  0  0  0  0  0  0  0  0  0  0  0
    6.4788    2.9790    0.4113 C   0  0  0  0  0  0  0  0  0  0  0  0
    6.9560    2.0510    1.5227 C   0  0  0  0  0  0  0  0  0  0  0  0
    6.4850    0.6092    1.3176 C   0  0  0  0  0  0  0  0  0  0  0  0
    6.9745   -0.2578    2.4776 C   0  0  0  0  0  0  0  0  0  0  0  0
    6.5291   -1.7248    2.3621 C   0  0  0  0  0  0  0  0  0  0  0  0
    7.0714   -2.6423    3.5044 C   0  0  0  0  0  0  0  0  0  0  0  0
    6.4642   -2.1949    4.8572 C   0  0  0  0  0  0  0  0  0  0  0  0
    6.5628   -4.0871    3.2730 C   0  0  0  0  0  0  0  0  0  0  0  0
    8.6166   -2.6211    3.4828 C   0  0  0  0  0  0  0  0  0  0  0  0
    9.3622   -1.9512    4.4546 C   0  0  0  0  0  0  0  0  0  0  0  0
   10.7565   -1.8262    4.3376 C   0  0  0  0  0  0  0  0  0  0  0  0
   11.4922   -2.4645    3.3227 C   0  0  0  0  0  0  0  0  0  0  0  0
   12.9857   -2.3323    3.2823 C   0  0  0  0  0  0  0  0  0  0  0  0
   13.6821   -1.9794    2.0838 C   0  0  0  0  0  0  0  0  0  0  0  0
   13.0215   -1.6526    0.7623 C   0  0  0  0  0  0  0  0  0  0  0  0
   15.0919   -1.9160    2.0625 C   0  0  0  0  0  0  0  0  0  0  0  0
   15.8393   -2.1152    3.2110 C   0  0  0  0  0  0  0  0  0  0  0  0
   15.1862   -2.3945    4.3984 C   0  0  0  0  0  0  0  0  0  0  0  0
   13.7843   -2.5304    4.4545 C   0  0  0  0  0  0  0  0  0  0  0  0
   13.2485   -2.8324    5.8376 C   0  0  0  0  0  0  0  0  0  0  0  0
   10.7276   -3.1982    2.3964 C   0  0  0  0  0  0  0  0  0  0  0  0
    9.3252   -3.2233    2.4380 C   0  0  0  0  0  0  0  0  0  0  0  0
   11.2789   -3.9448    1.3884 O   0  0  0  0  0  0  0  0  0  0  0  0
    6.6088    5.0614   -0.1490 H   0  0  0  0  0  0  0  0  0  0  0  0
    8.0426    4.4548    0.6999 H   0  0  0  0  0  0  0  0  0  0  0  0
    6.5530    4.7899    1.6023 H   0  0  0  0  0  0  0  0  0  0  0  0
    6.8605    2.6323   -0.5550 H   0  0  0  0  0  0  0  0  0  0  0  0
    5.3842    2.9643    0.3551 H   0  0  0  0  0  0  0  0  0  0  0  0
    6.5884    2.4205    2.4883 H   0  0  0  0  0  0  0  0  0  0  0  0
    8.0524    2.0725    1.5701 H   0  0  0  0  0  0  0  0  0  0  0  0
    6.8746    0.2196    0.3699 H   0  0  0  0  0  0  0  0  0  0  0  0
    5.3907    0.5760    1.2631 H   0  0  0  0  0  0  0  0  0  0  0  0
    6.6015    0.1716    3.4132 H   0  0  0  0  0  0  0  0  0  0  0  0
    8.0677   -0.1979    2.5077 H   0  0  0  0  0  0  0  0  0  0  0  0
    6.8550   -2.1121    1.3860 H   0  0  0  0  0  0  0  0  0  0  0  0
    5.4367   -1.7595    2.3540 H   0  0  0  0  0  0  0  0  0  0  0  0
    5.3693   -2.2514    4.8349 H   0  0  0  0  0  0  0  0  0  0  0  0
    6.7215   -1.1647    5.1195 H   0  0  0  0  0  0  0  0  0  0  0  0
    6.8101   -2.8352    5.6779 H   0  0  0  0  0  0  0  0  0  0  0  0
    5.4721   -4.1444    3.3717 H   0  0  0  0  0  0  0  0  0  0  0  0
    6.9989   -4.7793    4.0043 H   0  0  0  0  0  0  0  0  0  0  0  0
    6.8084   -4.4641    2.2747 H   0  0  0  0  0  0  0  0  0  0  0  0
    8.8913   -1.4752    5.3109 H   0  0  0  0  0  0  0  0  0  0  0  0
   11.2638   -1.2247    5.0881 H   0  0  0  0  0  0  0  0  0  0  0  0
   11.9684   -1.3822    0.8614 H   0  0  0  0  0  0  0  0  0  0  0  0
   13.1175   -2.4984    0.0766 H   0  0  0  0  0  0  0  0  0  0  0  0
   13.5109   -0.7854    0.3045 H   0  0  0  0  0  0  0  0  0  0  0  0
   15.6128   -1.6826    1.1364 H   0  0  0  0  0  0  0  0  0  0  0  0
   16.9190   -2.0295    3.1874 H   0  0  0  0  0  0  0  0  0  0  0  0
   15.7824   -2.5128    5.3044 H   0  0  0  0  0  0  0  0  0  0  0  0
   12.2491   -3.2671    5.8385 H   0  0  0  0  0  0  0  0  0  0  0  0
   13.2426   -1.9076    6.4305 H   0  0  0  0  0  0  0  0  0  0  0  0
   13.8927   -3.5592    6.3444 H   0  0  0  0  0  0  0  0  0  0  0  0
    8.8040   -3.7292    1.6298 H   0  0  0  0  0  0  0  0  0  0  0  0
   12.2240   -4.0500    1.5836 H   0  0  0  0  0  0  0  0  0  0  0  0
  1  2  1  0  0  0  0
  1 25  1  0  0  0  0
  1 26  1  0  0  0  0
  1 27  1  0  0  0  0
  2  3  1  0  0  0  0
  2 28  1  0  0  0  0
  2 29  1  0  0  0  0
  3  4  1  0  0  0  0
  3 30  1  0  0  0  0
  3 31  1  0  0  0  0
  4  5  1  0  0  0  0
  4 32  1  0  0  0  0
  4 33  1  0  0  0  0
  5  6  1  0  0  0  0
  5 34  1  0  0  0  0
  5 35  1  0  0  0  0
  6  7  1  0  0  0  0
  6 36  1  0  0  0  0
  6 37  1  0  0  0  0
  7  8  1  0  0  0  0
  7  9  1  0  0  0  0
  7 10  1  0  0  0  0
  8 38  1  0  0  0  0
  8 39  1  0  0  0  0
  8 40  1  0  0  0  0
  9 41  1  0  0  0  0
  9 42  1  0  0  0  0
  9 43  1  0  0  0  0
 10 23  2  0  0  0  0
 10 11  1  0  0  0  0
 11 12  2  0  0  0  0
 11 44  1  0  0  0  0
 12 13  1  0  0  0  0
 12 45  1  0  0  0  0
 13 14  1  0  0  0  0
 13 22  2  0  0  0  0
 14 20  2  0  0  0  0
 14 15  1  0  0  0  0
 15 16  1  0  0  0  0
 15 17  2  0  0  0  0
 16 46  1  0  0  0  0
 16 47  1  0  0  0  0
 16 48  1  0  0  0  0
 17 18  1  0  0  0  0
 17 49  1  0  0  0  0
 18 19  2  0  0  0  0
 18 50  1  0  0  0  0
 19 20  1  0  0  0  0
 19 51  1  0  0  0  0
 20 21  1  0  0  0  0
 21 52  1  0  0  0  0
 21 53  1  0  0  0  0
 21 54  1  0  0  0  0
 22 23  1  0  0  0  0
 22 24  1  0  0  0  0
 23 55  1  0  0  0  0
 24 56  1  0  0  0  0
M  END
$$$$
CHEMBL409669
 OpenBabel12022418093D

 54 57  0  0  0  0  0  0  0  0999 V2000
   -2.4101    1.2900   -0.0620 C   0  0  0  0  0  0  0  0  0  0  0  0
   -2.5952   -0.0800   -0.0441 C   0  0  0  0  0  0  0  0  0  0  0  0
   -1.4923   -0.9538   -0.0171 C   0  0  0  0  0  0  0  0  0  0  0  0
   -0.1846   -0.4168   -0.0171 C   0  0  0  0  0  0  0  0  0  0  0  0
    0.0277    0.9764   -0.0667 C   0  0  0  0  0  0  0  0  0  0  0  0
   -1.1327    1.8244   -0.0640 C   0  0  0  0  0  0  0  0  0  0  0  0
   -0.9934    3.1550   -0.0059 F   0  0  0  0  0  0  0  0  0  0  0  0
    1.4376    1.2351   -0.0648 C   0  0  0  0  0  0  0  0  0  0  0  0
    2.0183   -0.0106    0.1476 C   0  0  0  0  0  0  0  0  0  0  0  0
    1.0778   -1.0049    0.0359 N   0  0  0  0  0  0  0  0  0  0  0  0
    1.4814   -2.4067   -0.1128 C   0  0  0  0  0  0  0  0  0  0  0  0
    2.3203   -2.9997    1.0458 C   0  0  0  0  0  0  0  0  0  0  0  0
    2.9699   -4.3194    0.5977 C   0  0  0  0  0  0  0  0  0  0  0  0
    3.3801   -5.2421    1.7341 C   0  0  0  0  0  0  0  0  0  0  0  0
    2.3654   -5.3507    2.7216 O   0  0  0  0  0  0  0  0  0  0  0  0
    2.0110   -4.1152    3.3280 C   0  0  0  0  0  0  0  0  0  0  0  0
    1.4709   -3.1195    2.3142 C   0  0  0  0  0  0  0  0  0  0  0  0
    2.2502    2.4844   -0.1545 C   0  0  0  0  0  0  0  0  0  0  0  0
    3.3368    2.5677    0.4125 O   0  0  0  0  0  0  0  0  0  0  0  0
    1.7691    3.5918   -1.0708 C   0  0  0  0  0  0  0  0  0  0  0  0
    2.3712    5.0164   -1.1933 C   0  0  0  0  0  0  0  0  0  0  0  0
    2.5271    3.9971   -2.3388 C   0  0  0  0  0  0  0  0  0  0  0  0
    3.8587    3.3227   -2.6203 C   0  0  0  0  0  0  0  0  0  0  0  0
    1.7878    4.2827   -3.6266 C   0  0  0  0  0  0  0  0  0  0  0  0
    1.3349    6.1389   -1.2231 C   0  0  0  0  0  0  0  0  0  0  0  0
    3.6434    5.5446   -0.5675 C   0  0  0  0  0  0  0  0  0  0  0  0
   -1.7140   -2.2725    0.0305 F   0  0  0  0  0  0  0  0  0  0  0  0
   -3.8416   -0.5711   -0.0241 F   0  0  0  0  0  0  0  0  0  0  0  0
   -3.4674    2.1184   -0.0714 F   0  0  0  0  0  0  0  0  0  0  0  0
    3.0566   -0.2716    0.3108 H   0  0  0  0  0  0  0  0  0  0  0  0
    2.1032   -2.4173   -1.0309 H   0  0  0  0  0  0  0  0  0  0  0  0
    0.6032   -3.0259   -0.3299 H   0  0  0  0  0  0  0  0  0  0  0  0
    3.1559   -2.3256    1.2922 H   0  0  0  0  0  0  0  0  0  0  0  0
    3.8557   -4.0992   -0.0141 H   0  0  0  0  0  0  0  0  0  0  0  0
    2.2807   -4.8638   -0.0590 H   0  0  0  0  0  0  0  0  0  0  0  0
    4.3317   -4.9370    2.1854 H   0  0  0  0  0  0  0  0  0  0  0  0
    3.5341   -6.2489    1.3268 H   0  0  0  0  0  0  0  0  0  0  0  0
    2.8547   -3.7043    3.8946 H   0  0  0  0  0  0  0  0  0  0  0  0
    1.2169   -4.3348    4.0504 H   0  0  0  0  0  0  0  0  0  0  0  0
    0.4529   -3.4188    2.0420 H   0  0  0  0  0  0  0  0  0  0  0  0
    1.3882   -2.1345    2.7921 H   0  0  0  0  0  0  0  0  0  0  0  0
    0.6949    3.5671   -1.1962 H   0  0  0  0  0  0  0  0  0  0  0  0
    4.3797    2.9691   -1.7287 H   0  0  0  0  0  0  0  0  0  0  0  0
    4.5294    4.0137   -3.1409 H   0  0  0  0  0  0  0  0  0  0  0  0
    3.7056    2.4482   -3.2629 H   0  0  0  0  0  0  0  0  0  0  0  0
    0.7772    4.6663   -3.4762 H   0  0  0  0  0  0  0  0  0  0  0  0
    1.6995    3.3737   -4.2295 H   0  0  0  0  0  0  0  0  0  0  0  0
    2.3495    5.0231   -4.2084 H   0  0  0  0  0  0  0  0  0  0  0  0
    0.4726    5.9403   -1.8625 H   0  0  0  0  0  0  0  0  0  0  0  0
    1.7845    7.0801   -1.5625 H   0  0  0  0  0  0  0  0  0  0  0  0
    0.9563    6.3037   -0.2079 H   0  0  0  0  0  0  0  0  0  0  0  0
    4.4967    4.8684   -0.6051 H   0  0  0  0  0  0  0  0  0  0  0  0
    3.4627    5.8362    0.4711 H   0  0  0  0  0  0  0  0  0  0  0  0
    3.9481    6.4572   -1.1030 H   0  0  0  0  0  0  0  0  0  0  0  0
  1  6  2  0  0  0  0
  1  2  1  0  0  0  0
  1 29  1  0  0  0  0
  2  3  2  0  0  0  0
  2 28  1  0  0  0  0
  3  4  1  0  0  0  0
  3 27  1  0  0  0  0
  4 10  1  0  0  0  0
  4  5  2  0  0  0  0
  5  6  1  0  0  0  0
  5  8  1  0  0  0  0
  6  7  1  0  0  0  0
  8  9  2  0  0  0  0
  8 18  1  0  0  0  0
  9 10  1  0  0  0  0
  9 30  1  0  0  0  0
 10 11  1  0  0  0  0
 11 12  1  0  0  0  0
 11 31  1  0  0  0  0
 11 32  1  0  0  0  0
 12 17  1  0  0  0  0
 12 13  1  0  0  0  0
 12 33  1  0  0  0  0
 13 14  1  0  0  0  0
 13 34  1  0  0  0  0
 13 35  1  0  0  0  0
 14 15  1  0  0  0  0
 14 36  1  0  0  0  0
 14 37  1  0  0  0  0
 15 16  1  0  0  0  0
 16 17  1  0  0  0  0
 16 38  1  0  0  0  0
 16 39  1  0  0  0  0
 17 40  1  0  0  0  0
 17 41  1  0  0  0  0
 18 19  2  0  0  0  0
 18 20  1  0  0  0  0
 20 22  1  0  0  0  0
 20 21  1  0  0  0  0
 20 42  1  0  0  0  0
 21 22  1  0  0  0  0
 21 25  1  0  0  0  0
 21 26  1  0  0  0  0
 22 23  1  0  0  0  0
 22 24  1  0  0  0  0
 23 43  1  0  0  0  0
 23 44  1  0  0  0  0
 23 45  1  0  0  0  0
 24 46  1  0  0  0  0
 24 47  1  0  0  0  0
 24 48  1  0  0  0  0
 25 49  1  0  0  0  0
 25 50  1  0  0  0  0
 25 51  1  0  0  0  0
 26 52  1  0  0  0  0
 26 53  1  0  0  0  0
 26 54  1  0  0  0  0
M  END
$$$$
CHEMBL562350
 OpenBabel12022418093D

 52 55  0  0  0  0  0  0  0  0999 V2000
    1.1747   -0.3812   -0.0917 C   0  0  0  0  0  0  0  0  0  0  0  0
    2.6597   -0.0174   -0.1086 C   0  0  0  0  0  0  0  0  0  0  0  0
    3.1931    0.1834   -1.5358 C   0  0  0  0  0  0  0  0  0  0  0  0
    4.6390    0.4858   -1.6290 N   0  0  0  0  0  0  0  0  0  0  0  0
    5.2476    1.7364   -1.7831 C   0  0  0  0  0  0  0  0  0  0  0  0
    4.4660    2.9846   -1.6024 C   0  0  0  0  0  0  0  0  0  0  0  0
    6.6147    1.5431   -2.1118 C   0  0  0  0  0  0  0  0  0  0  0  0
    7.5853    2.7072   -2.6209 C   0  0  0  0  0  0  0  0  0  0  0  0
    7.5298    3.8279   -2.1164 O   0  0  0  0  0  0  0  0  0  0  0  0
    8.5123    2.5221   -3.8981 C   0  0  0  0  0  0  0  0  0  0  0  0
    8.2914    1.2790   -4.4646 C   0  0  0  0  0  0  0  0  0  0  0  0
    8.4269    1.1468   -5.8251 C   0  0  0  0  0  0  0  0  0  0  0  0
    7.8636    2.2414   -6.4380 C   0  0  0  0  0  0  0  0  0  0  0  0
    6.5036    2.2041   -7.0786 C   0  0  0  0  0  0  0  0  0  0  0  0
    5.5426    1.2731   -6.3491 C   0  0  0  0  0  0  0  0  0  0  0  0
    8.5082    3.4070   -6.1892 C   0  0  0  0  0  0  0  0  0  0  0  0
    8.7862    4.1689   -7.3502 C   0  0  0  0  0  0  0  0  0  0  0  0
    9.8839    4.9858   -7.3637 C   0  0  0  0  0  0  0  0  0  0  0  0
   10.6068    5.1098   -6.1884 C   0  0  0  0  0  0  0  0  0  0  0  0
   10.1713    4.4774   -4.9644 C   0  0  0  0  0  0  0  0  0  0  0  0
    9.0394    3.5542   -4.8875 C   0  0  0  0  0  0  0  0  0  0  0  0
    6.8319    0.0980   -1.8631 C   0  0  0  0  0  0  0  0  0  0  0  0
    7.9380   -0.7994   -1.8371 C   0  0  0  0  0  0  0  0  0  0  0  0
    7.7639   -2.1926   -1.6701 C   0  0  0  0  0  0  0  0  0  0  0  0
    6.4983   -2.7607   -1.5200 C   0  0  0  0  0  0  0  0  0  0  0  0
    5.3970   -1.9120   -1.4909 C   0  0  0  0  0  0  0  0  0  0  0  0
    5.5743   -0.5123   -1.6527 C   0  0  0  0  0  0  0  0  0  0  0  0
    0.8009   -0.4165    0.9380 H   0  0  0  0  0  0  0  0  0  0  0  0
    0.9986   -1.3658   -0.5391 H   0  0  0  0  0  0  0  0  0  0  0  0
    0.5768    0.3545   -0.6390 H   0  0  0  0  0  0  0  0  0  0  0  0
    3.2119   -0.8134    0.4066 H   0  0  0  0  0  0  0  0  0  0  0  0
    2.8095    0.8981    0.4712 H   0  0  0  0  0  0  0  0  0  0  0  0
    2.6366    0.9506   -2.0703 H   0  0  0  0  0  0  0  0  0  0  0  0
    3.0237   -0.7427   -2.1135 H   0  0  0  0  0  0  0  0  0  0  0  0
    3.3920    2.8078   -1.5023 H   0  0  0  0  0  0  0  0  0  0  0  0
    4.6124    3.6547   -2.4489 H   0  0  0  0  0  0  0  0  0  0  0  0
    4.7843    3.4771   -0.6791 H   0  0  0  0  0  0  0  0  0  0  0  0
    7.6499    0.5272   -4.0322 H   0  0  0  0  0  0  0  0  0  0  0  0
    9.5089    1.0630   -6.0666 H   0  0  0  0  0  0  0  0  0  0  0  0
    6.6167    1.9048   -8.1248 H   0  0  0  0  0  0  0  0  0  0  0  0
    6.0621    3.2103   -7.0632 H   0  0  0  0  0  0  0  0  0  0  0  0
    5.9399    0.2543   -6.2857 H   0  0  0  0  0  0  0  0  0  0  0  0
    4.5846    1.2335   -6.8705 H   0  0  0  0  0  0  0  0  0  0  0  0
    5.3620    1.6254   -5.3257 H   0  0  0  0  0  0  0  0  0  0  0  0
    8.2614    3.9744   -8.2783 H   0  0  0  0  0  0  0  0  0  0  0  0
   10.2115    5.4245   -8.3092 H   0  0  0  0  0  0  0  0  0  0  0  0
   11.5538    5.6461   -6.2442 H   0  0  0  0  0  0  0  0  0  0  0  0
   10.8431    4.5892   -4.1156 H   0  0  0  0  0  0  0  0  0  0  0  0
    8.9501   -0.4175   -1.9619 H   0  0  0  0  0  0  0  0  0  0  0  0
    8.6268   -2.8561   -1.6678 H   0  0  0  0  0  0  0  0  0  0  0  0
    6.3714   -3.8313   -1.4024 H   0  0  0  0  0  0  0  0  0  0  0  0
    4.4107   -2.3487   -1.3443 H   0  0  0  0  0  0  0  0  0  0  0  0
  1  2  1  0  0  0  0
  1 28  1  0  0  0  0
  1 29  1  0  0  0  0
  1 30  1  0  0  0  0
  2  3  1  0  0  0  0
  2 31  1  0  0  0  0
  2 32  1  0  0  0  0
  3  4  1  0  0  0  0
  3 33  1  0  0  0  0
  3 34  1  0  0  0  0
  4 27  1  0  0  0  0
  4  5  1  0  0  0  0
  5  6  1  0  0  0  0
  5  7  2  0  0  0  0
  6 35  1  0  0  0  0
  6 36  1  0  0  0  0
  6 37  1  0  0  0  0
  7  8  1  0  0  0  0
  7 22  1  0  0  0  0
  8  9  2  0  0  0  0
  8 10  1  0  0  0  0
 10 21  2  0  0  0  0
 10 11  1  0  0  0  0
 11 12  2  0  0  0  0
 11 38  1  0  0  0  0
 12 13  1  0  0  0  0
 12 39  1  0  0  0  0
 13 14  1  0  0  0  0
 13 16  2  0  0  0  0
 14 15  1  0  0  0  0
 14 40  1  0  0  0  0
 14 41  1  0  0  0  0
 15 42  1  0  0  0  0
 15 43  1  0  0  0  0
 15 44  1  0  0  0  0
 16 21  1  0  0  0  0
 16 17  1  0  0  0  0
 17 18  2  0  0  0  0
 17 45  1  0  0  0  0
 18 19  1  0  0  0  0
 18 46  1  0  0  0  0
 19 20  2  0  0  0  0
 19 47  1  0  0  0  0
 20 21  1  0  0  0  0
 20 48  1  0  0  0  0
 22 27  2  0  0  0  0
 22 23  1  0  0  0  0
 23 24  2  0  0  0  0
 23 49  1  0  0  0  0
 24 25  1  0  0  0  0
 24 50  1  0  0  0  0
 25 26  2  0  0  0  0
 25 51  1  0  0  0  0
 26 27  1  0  0  0  0
 26 52  1  0  0  0  0
M  END
$$$$
CHEMBL2380408
 OpenBabel12022418093D

 48 51  0  0  0  0  0  0  0  0999 V2000
    6.2232    0.6025    1.9988 C   0  0  0  0  0  0  0  0  0  0  0  0
    5.1472    0.2333    0.9897 C   0  0  0  0  0  0  0  0  0  0  0  0
    5.5298   -1.0288    0.2223 C   0  0  0  0  0  0  0  0  0  0  0  0
    4.4757   -1.3996   -0.8167 C   0  0  0  0  0  0  0  0  0  0  0  0
    4.8218   -2.6251   -1.5090 N   0  0  0  0  0  0  0  0  0  0  0  0
    5.5630   -2.6564   -2.6700 C   0  0  0  0  0  0  0  0  0  0  0  0
    5.7048   -3.9712   -3.0579 C   0  0  0  0  0  0  0  0  0  0  0  0
    6.4716   -4.3744   -4.2269 C   0  0  0  0  0  0  0  0  0  0  0  0
    5.9249   -5.2732   -5.1431 C   0  0  0  0  0  0  0  0  0  0  0  0
    6.6709   -5.6989   -6.2413 C   0  0  0  0  0  0  0  0  0  0  0  0
    8.0042   -5.3047   -6.3900 C   0  0  0  0  0  0  0  0  0  0  0  0
    8.7842   -5.7986   -7.4447 C   0  0  0  0  0  0  0  0  0  0  0  0
   10.1651   -5.6056   -7.4491 C   0  0  0  0  0  0  0  0  0  0  0  0
   10.7617   -4.8390   -6.4524 C   0  0  0  0  0  0  0  0  0  0  0  0
    9.9735   -4.2129   -5.4842 C   0  0  0  0  0  0  0  0  0  0  0  0
    8.5917   -4.4576   -5.4252 C   0  0  0  0  0  0  0  0  0  0  0  0
    7.7963   -3.9405   -4.3910 C   0  0  0  0  0  0  0  0  0  0  0  0
    5.0076   -4.7734   -2.1010 C   0  0  0  0  0  0  0  0  0  0  0  0
    4.8016   -6.1605   -1.9636 C   0  0  0  0  0  0  0  0  0  0  0  0
    4.0965   -6.6533   -0.8670 C   0  0  0  0  0  0  0  0  0  0  0  0
    3.6181   -5.7827    0.1109 C   0  0  0  0  0  0  0  0  0  0  0  0
    3.8028   -4.4012    0.0148 C   0  0  0  0  0  0  0  0  0  0  0  0
    4.4969   -3.9176   -1.1140 C   0  0  0  0  0  0  0  0  0  0  0  0
    3.4183   -3.5061    0.9768 O   0  0  0  0  0  0  0  0  0  0  0  0
    2.3533   -3.9037    1.8290 C   0  0  0  0  0  0  0  0  0  0  0  0
    5.9293    1.4938    2.5607 H   0  0  0  0  0  0  0  0  0  0  0  0
    7.1726    0.8139    1.4963 H   0  0  0  0  0  0  0  0  0  0  0  0
    6.3875   -0.2118    2.7119 H   0  0  0  0  0  0  0  0  0  0  0  0
    5.0034    1.0669    0.2930 H   0  0  0  0  0  0  0  0  0  0  0  0
    4.1971    0.0777    1.5137 H   0  0  0  0  0  0  0  0  0  0  0  0
    5.6706   -1.8573    0.9277 H   0  0  0  0  0  0  0  0  0  0  0  0
    6.4961   -0.8789   -0.2759 H   0  0  0  0  0  0  0  0  0  0  0  0
    4.3879   -0.6113   -1.5744 H   0  0  0  0  0  0  0  0  0  0  0  0
    3.4811   -1.5155   -0.3783 H   0  0  0  0  0  0  0  0  0  0  0  0
    5.9277   -1.7414   -3.1150 H   0  0  0  0  0  0  0  0  0  0  0  0
    4.9188   -5.6581   -5.0022 H   0  0  0  0  0  0  0  0  0  0  0  0
    6.2223   -6.4042   -6.9371 H   0  0  0  0  0  0  0  0  0  0  0  0
    8.3277   -6.3776   -8.2439 H   0  0  0  0  0  0  0  0  0  0  0  0
   10.7736   -6.0788   -8.2142 H   0  0  0  0  0  0  0  0  0  0  0  0
   11.8439   -4.7366   -6.4216 H   0  0  0  0  0  0  0  0  0  0  0  0
   10.4559   -3.5906   -4.7345 H   0  0  0  0  0  0  0  0  0  0  0  0
    8.2284   -3.2523   -3.6650 H   0  0  0  0  0  0  0  0  0  0  0  0
    5.2018   -6.8531   -2.7041 H   0  0  0  0  0  0  0  0  0  0  0  0
    3.9467   -7.7242   -0.7590 H   0  0  0  0  0  0  0  0  0  0  0  0
    3.1047   -6.2321    0.9642 H   0  0  0  0  0  0  0  0  0  0  0  0
    2.0578   -3.0282    2.4161 H   0  0  0  0  0  0  0  0  0  0  0  0
    2.6772   -4.6769    2.5326 H   0  0  0  0  0  0  0  0  0  0  0  0
    1.4824   -4.2304    1.2521 H   0  0  0  0  0  0  0  0  0  0  0  0
  1  2  1  0  0  0  0
  1 26  1  0  0  0  0
  1 27  1  0  0  0  0
  1 28  1  0  0  0  0
  2  3  1  0  0  0  0
  2 29  1  0  0  0  0
  2 30  1  0  0  0  0
  3  4  1  0  0  0  0
  3 31  1  0  0  0  0
  3 32  1  0  0  0  0
  4  5  1  0  0  0  0
  4 33  1  0  0  0  0
  4 34  1  0  0  0  0
  5 23  1  0  0  0  0
  5  6  1  0  0  0  0
  6  7  2  0  0  0  0
  6 35  1  0  0  0  0
  7  8  1  0  0  0  0
  7 18  1  0  0  0  0
  8 17  2  0  0  0  0
  8  9  1  0  0  0  0
  9 10  2  0  0  0  0
  9 36  1  0  0  0  0
 10 11  1  0  0  0  0
 10 37  1  0  0  0  0
 11 16  2  0  0  0  0
 11 12  1  0  0  0  0
 12 13  2  0  0  0  0
 12 38  1  0  0  0  0
 13 14  1  0  0  0  0
 13 39  1  0  0  0  0
 14 15  2  0  0  0  0
 14 40  1  0  0  0  0
 15 16  1  0  0  0  0
 15 41  1  0  0  0  0
 16 17  1  0  0  0  0
 17 42  1  0  0  0  0
 18 23  2  0  0  0  0
 18 19  1  0  0  0  0
 19 20  2  0  0  0  0
 19 43  1  0  0  0  0
 20 21  1  0  0  0  0
 20 44  1  0  0  0  0
 21 22  2  0  0  0  0
 21 45  1  0  0  0  0
 22 23  1  0  0  0  0
 22 24  1  0  0  0  0
 24 25  1  0  0  0  0
 25 46  1  0  0  0  0
 25 47  1  0  0  0  0
 25 48  1  0  0  0  0
M  END
$$$$
CHEMBL563929
 OpenBabel12022418093D

 53 56  0  0  0  0  0  0  0  0999 V2000
    1.0241    0.4413    0.0770 C   0  0  0  0  0  0  0  0  0  0  0  0
    2.5167    0.1176    0.1100 C   0  0  0  0  0  0  0  0  0  0  0  0
    3.1281    0.1699    1.5231 C   0  0  0  0  0  0  0  0  0  0  0  0
    4.6423   -0.1742    1.5210 C   0  0  0  0  0  0  0  0  0  0  0  0
    5.2888   -0.2052    2.9308 C   0  0  0  0  0  0  0  0  0  0  0  0
    6.7561   -0.3338    2.9642 N   0  0  0  0  0  0  0  0  0  0  0  0
    7.4960   -1.4992    3.0655 C   0  0  0  0  0  0  0  0  0  0  0  0
    8.8829   -1.2461    2.9849 C   0  0  0  0  0  0  0  0  0  0  0  0
    9.8479   -2.2726    2.5042 C   0  0  0  0  0  0  0  0  0  0  0  0
    9.4198   -2.8693    1.4920 O   0  0  0  0  0  0  0  0  0  0  0  0
   11.1451   -2.9459    3.0934 C   0  0  0  0  0  0  0  0  0  0  0  0
   11.0571   -4.2965    2.6922 C   0  0  0  0  0  0  0  0  0  0  0  0
   12.1376   -5.1459    2.6544 C   0  0  0  0  0  0  0  0  0  0  0  0
   12.8669   -5.0734    3.7964 C   0  0  0  0  0  0  0  0  0  0  0  0
   13.1150   -3.8116    4.2944 C   0  0  0  0  0  0  0  0  0  0  0  0
   14.2014   -3.8281    5.1773 C   0  0  0  0  0  0  0  0  0  0  0  0
   14.9398   -2.6992    5.4129 C   0  0  0  0  0  0  0  0  0  0  0  0
   14.5283   -1.5378    4.7461 C   0  0  0  0  0  0  0  0  0  0  0  0
   13.2771   -1.4787    4.0116 C   0  0  0  0  0  0  0  0  0  0  0  0
   12.4412   -2.6396    3.7811 C   0  0  0  0  0  0  0  0  0  0  0  0
   16.0947   -2.6954    6.1549 O   0  0  0  0  0  0  0  0  0  0  0  0
   16.2691   -3.7865    7.0798 C   0  0  0  0  0  0  0  0  0  0  0  0
    8.9576    0.1949    2.8961 C   0  0  0  0  0  0  0  0  0  0  0  0
   10.0128    1.1000    2.7117 C   0  0  0  0  0  0  0  0  0  0  0  0
    9.7636    2.4608    2.5861 C   0  0  0  0  0  0  0  0  0  0  0  0
    8.4630    2.9698    2.6353 C   0  0  0  0  0  0  0  0  0  0  0  0
    7.3899    2.1064    2.7827 C   0  0  0  0  0  0  0  0  0  0  0  0
    7.6444    0.7266    2.9024 C   0  0  0  0  0  0  0  0  0  0  0  0
    0.6469    0.3688   -0.9498 H   0  0  0  0  0  0  0  0  0  0  0  0
    0.8254    1.4586    0.4296 H   0  0  0  0  0  0  0  0  0  0  0  0
    0.4469   -0.2588    0.6897 H   0  0  0  0  0  0  0  0  0  0  0  0
    3.0367    0.8254   -0.5454 H   0  0  0  0  0  0  0  0  0  0  0  0
    2.6601   -0.8820   -0.3155 H   0  0  0  0  0  0  0  0  0  0  0  0
    2.5854   -0.5274    2.1734 H   0  0  0  0  0  0  0  0  0  0  0  0
    2.9764    1.1757    1.9374 H   0  0  0  0  0  0  0  0  0  0  0  0
    5.1581    0.5600    0.8908 H   0  0  0  0  0  0  0  0  0  0  0  0
    4.7783   -1.1521    1.0442 H   0  0  0  0  0  0  0  0  0  0  0  0
    4.8713   -1.0343    3.5189 H   0  0  0  0  0  0  0  0  0  0  0  0
    5.0321    0.7186    3.4667 H   0  0  0  0  0  0  0  0  0  0  0  0
    6.9706   -2.4492    3.0178 H   0  0  0  0  0  0  0  0  0  0  0  0
   10.1023   -4.7529    2.4343 H   0  0  0  0  0  0  0  0  0  0  0  0
   12.8015   -4.9830    1.7715 H   0  0  0  0  0  0  0  0  0  0  0  0
   13.4892   -5.9259    4.0583 H   0  0  0  0  0  0  0  0  0  0  0  0
   14.5375   -4.7823    5.5681 H   0  0  0  0  0  0  0  0  0  0  0  0
   15.1941   -0.6791    4.7807 H   0  0  0  0  0  0  0  0  0  0  0  0
   13.0687   -0.5379    3.5008 H   0  0  0  0  0  0  0  0  0  0  0  0
   17.1980   -3.6318    7.6408 H   0  0  0  0  0  0  0  0  0  0  0  0
   16.3747   -4.7568    6.5763 H   0  0  0  0  0  0  0  0  0  0  0  0
   15.4466   -3.8197    7.8044 H   0  0  0  0  0  0  0  0  0  0  0  0
   11.0304    0.7244    2.6411 H   0  0  0  0  0  0  0  0  0  0  0  0
   10.5782    3.1661    2.4565 H   0  0  0  0  0  0  0  0  0  0  0  0
    8.2970    4.0319    2.5098 H   0  0  0  0  0  0  0  0  0  0  0  0
    6.3791    2.5183    2.7737 H   0  0  0  0  0  0  0  0  0  0  0  0
  1  2  1  0  0  0  0
  1 29  1  0  0  0  0
  1 30  1  0  0  0  0
  1 31  1  0  0  0  0
  2  3  1  0  0  0  0
  2 32  1  0  0  0  0
  2 33  1  0  0  0  0
  3  4  1  0  0  0  0
  3 34  1  0  0  0  0
  3 35  1  0  0  0  0
  4  5  1  0  0  0  0
  4 36  1  0  0  0  0
  4 37  1  0  0  0  0
  5  6  1  0  0  0  0
  5 38  1  0  0  0  0
  5 39  1  0  0  0  0
  6 28  1  0  0  0  0
  6  7  1  0  0  0  0
  7  8  2  0  0  0  0
  7 40  1  0  0  0  0
  8  9  1  0  0  0  0
  8 23  1  0  0  0  0
  9 10  2  0  0  0  0
  9 11  1  0  0  0  0
 11 20  2  0  0  0  0
 11 12  1  0  0  0  0
 12 13  2  0  0  0  0
 12 41  1  0  0  0  0
 13 14  1  0  0  0  0
 13 42  1  0  0  0  0
 14 15  2  0  0  0  0
 14 43  1  0  0  0  0
 15 20  1  0  0  0  0
 15 16  1  0  0  0  0
 16 17  2  0  0  0  0
 16 44  1  0  0  0  0
 17 18  1  0  0  0  0
 17 21  1  0  0  0  0
 18 19  2  0  0  0  0
 18 45  1  0  0  0  0
 19 20  1  0  0  0  0
 19 46  1  0  0  0  0
 21 22  1  0  0  0  0
 22 47  1  0  0  0  0
 22 48  1  0  0  0  0
 22 49  1  0  0  0  0
 23 28  2  0  0  0  0
 23 24  1  0  0  0  0
 24 25  2  0  0  0  0
 24 50  1  0  0  0  0
 25 26  1  0  0  0  0
 25 51  1  0  0  0  0
 26 27  2  0  0  0  0
 26 52  1  0  0  0  0
 27 28  1  0  0  0  0
 27 53  1  0  0  0  0
M  END
$$$$
CHEMBL2380417
 OpenBabel12022418093D

 47 50  0  0  0  0  0  0  0  0999 V2000
    5.7019   -0.1659   -3.5219 C   0  0  0  0  0  0  0  0  0  0  0  0
    4.9716   -1.0789   -2.5472 C   0  0  0  0  0  0  0  0  0  0  0  0
    5.2556   -0.6381   -1.1533 C   0  0  0  0  0  0  0  0  0  0  0  0
    4.6352   -1.3996   -0.0302 C   0  0  0  0  0  0  0  0  0  0  0  0
    5.0425   -2.8064   -0.0271 N   0  0  0  0  0  0  0  0  0  0  0  0
    6.3630   -3.1506    0.1490 C   0  0  0  0  0  0  0  0  0  0  0  0
    6.4926   -4.5271    0.2093 C   0  0  0  0  0  0  0  0  0  0  0  0
    7.7386   -5.2884    0.4566 C   0  0  0  0  0  0  0  0  0  0  0  0
    7.9542   -6.4171    0.0037 O   0  0  0  0  0  0  0  0  0  0  0  0
    8.8259   -4.5818    1.2156 C   0  0  0  0  0  0  0  0  0  0  0  0
   10.1301   -4.9458    0.7807 C   0  0  0  0  0  0  0  0  0  0  0  0
   11.1945   -4.1528    1.1595 C   0  0  0  0  0  0  0  0  0  0  0  0
   11.0325   -3.3679    2.2836 C   0  0  0  0  0  0  0  0  0  0  0  0
    9.7739   -3.1900    2.8801 C   0  0  0  0  0  0  0  0  0  0  0  0
    9.6723   -2.6308    4.1404 C   0  0  0  0  0  0  0  0  0  0  0  0
    8.4239   -2.5477    4.7737 C   0  0  0  0  0  0  0  0  0  0  0  0
    7.3987   -1.9749    4.0581 C   0  0  0  0  0  0  0  0  0  0  0  0
    7.4295   -2.7973    2.9173 C   0  0  0  0  0  0  0  0  0  0  0  0
    8.5967   -3.5556    2.2716 C   0  0  0  0  0  0  0  0  0  0  0  0
    5.1687   -5.0435   -0.0036 C   0  0  0  0  0  0  0  0  0  0  0  0
    4.6517   -6.3610   -0.0446 C   0  0  0  0  0  0  0  0  0  0  0  0
    3.3009   -6.6281   -0.2054 C   0  0  0  0  0  0  0  0  0  0  0  0
    2.4324   -5.5690   -0.3276 C   0  0  0  0  0  0  0  0  0  0  0  0
    2.8835   -4.2523   -0.2652 C   0  0  0  0  0  0  0  0  0  0  0  0
    4.2727   -3.9618   -0.1316 C   0  0  0  0  0  0  0  0  0  0  0  0
    1.8873   -3.3035   -0.2062 O   0  0  0  0  0  0  0  0  0  0  0  0
    5.4829   -0.4795   -4.5401 H   0  0  0  0  0  0  0  0  0  0  0  0
    6.7869   -0.2348   -3.3867 H   0  0  0  0  0  0  0  0  0  0  0  0
    5.3984    0.8847   -3.4158 H   0  0  0  0  0  0  0  0  0  0  0  0
    5.3058   -2.1073   -2.6692 H   0  0  0  0  0  0  0  0  0  0  0  0
    3.8949   -1.0094   -2.7054 H   0  0  0  0  0  0  0  0  0  0  0  0
    4.7906    0.3534   -1.0983 H   0  0  0  0  0  0  0  0  0  0  0  0
    6.3468   -0.6716   -1.0086 H   0  0  0  0  0  0  0  0  0  0  0  0
    3.5420   -1.3526   -0.1050 H   0  0  0  0  0  0  0  0  0  0  0  0
    4.9617   -0.9738    0.9234 H   0  0  0  0  0  0  0  0  0  0  0  0
    7.0992   -2.3669    0.2464 H   0  0  0  0  0  0  0  0  0  0  0  0
   10.3284   -5.8002    0.1280 H   0  0  0  0  0  0  0  0  0  0  0  0
   12.1520   -4.1730    0.6465 H   0  0  0  0  0  0  0  0  0  0  0  0
   11.9077   -2.9195    2.7418 H   0  0  0  0  0  0  0  0  0  0  0  0
   10.5542   -2.1676    4.5729 H   0  0  0  0  0  0  0  0  0  0  0  0
    7.9046   -3.5034    5.0639 H   0  0  0  0  0  0  0  0  0  0  0  0
    7.4106   -1.3313    4.9614 H   0  0  0  0  0  0  0  0  0  0  0  0
    6.4754   -3.0068    2.4397 H   0  0  0  0  0  0  0  0  0  0  0  0
    5.3193   -7.2067    0.0493 H   0  0  0  0  0  0  0  0  0  0  0  0
    2.9645   -7.6591   -0.2055 H   0  0  0  0  0  0  0  0  0  0  0  0
    1.3718   -5.7405   -0.4192 H   0  0  0  0  0  0  0  0  0  0  0  0
    1.0164   -3.5979   -0.5010 H   0  0  0  0  0  0  0  0  0  0  0  0
  1  2  1  0  0  0  0
  1 27  1  0  0  0  0
  1 28  1  0  0  0  0
  1 29  1  0  0  0  0
  2  3  1  0  0  0  0
  2 30  1  0  0  0  0
  2 31  1  0  0  0  0
  3  4  1  0  0  0  0
  3 32  1  0  0  0  0
  3 33  1  0  0  0  0
  4  5  1  0  0  0  0
  4 34  1  0  0  0  0
  4 35  1  0  0  0  0
  5 25  1  0  0  0  0
  5  6  1  0  0  0  0
  6  7  2  0  0  0  0
  6 36  1  0  0  0  0
  7  8  1  0  0  0  0
  7 20  1  0  0  0  0
  8  9  2  0  0  0  0
  8 10  1  0  0  0  0
 10 19  2  0  0  0  0
 10 11  1  0  0  0  0
 11 12  2  0  0  0  0
 11 37  1  0  0  0  0
 12 13  1  0  0  0  0
 12 38  1  0  0  0  0
 13 14  2  0  0  0  0
 13 39  1  0  0  0  0
 14 19  1  0  0  0  0
 14 15  1  0  0  0  0
 15 16  2  0  0  0  0
 15 40  1  0  0  0  0
 16 17  1  0  0  0  0
 16 41  1  0  0  0  0
 17 18  2  0  0  0  0
 17 42  1  0  0  0  0
 18 19  1  0  0  0  0
 18 43  1  0  0  0  0
 20 25  2  0  0  0  0
 20 21  1  0  0  0  0
 21 22  2  0  0  0  0
 21 44  1  0  0  0  0
 22 23  1  0  0  0  0
 22 45  1  0  0  0  0
 23 24  2  0  0  0  0
 23 46  1  0  0  0  0
 24 25  1  0  0  0  0
 24 26  1  0  0  0  0
 26 47  1  0  0  0  0
M  END
$$$$
CHEMBL261382
 OpenBabel12022418093D

 56 59  0  0  0  0  0  0  0  0999 V2000
   -0.1227   -0.9747    0.0222 N   0  0  0  0  0  0  0  0  0  0  0  0
   -0.9807    0.0867   -0.0745 N   0  0  0  0  0  0  0  0  0  0  0  0
   -0.2068    1.1875   -0.1385 C   0  0  0  0  0  0  0  0  0  0  0  0
    1.1745    0.8314   -0.1762 C   0  0  0  0  0  0  0  0  0  0  0  0
    1.2020   -0.5513   -0.0074 C   0  0  0  0  0  0  0  0  0  0  0  0
    2.3533   -1.3655    0.0091 N   0  0  0  0  0  0  0  0  0  0  0  0
    2.5754   -2.5604   -0.6927 C   0  0  0  0  0  0  0  0  0  0  0  0
    3.8758   -2.9717   -0.4692 C   0  0  0  0  0  0  0  0  0  0  0  0
    4.4880   -2.0407    0.3734 C   0  0  0  0  0  0  0  0  0  0  0  0
    3.5415   -1.0935    0.7042 C   0  0  0  0  0  0  0  0  0  0  0  0
    3.7490    0.0081    1.6931 C   0  0  0  0  0  0  0  0  0  0  0  0
    1.6250   -3.2451   -1.6164 C   0  0  0  0  0  0  0  0  0  0  0  0
    2.3126    1.7626   -0.4320 C   0  0  0  0  0  0  0  0  0  0  0  0
   -0.7835    2.5664   -0.1770 C   0  0  0  0  0  0  0  0  0  0  0  0
   -0.0823    3.5670   -0.1212 O   0  0  0  0  0  0  0  0  0  0  0  0
   -2.1647    2.6287   -0.2575 N   0  0  0  0  0  0  0  0  0  0  0  0
   -2.8908    3.9006   -0.3291 C   0  0  0  0  0  0  0  0  0  0  0  0
   -3.0317    4.3816   -1.7805 C   0  0  0  0  0  0  0  0  0  0  0  0
   -3.7841    5.7152   -1.8610 C   0  0  0  0  0  0  0  0  0  0  0  0
   -5.1463    5.6486   -1.1771 C   0  0  0  0  0  0  0  0  0  0  0  0
   -5.0387    5.1247    0.2529 C   0  0  0  0  0  0  0  0  0  0  0  0
   -4.2736    3.8002    0.3281 C   0  0  0  0  0  0  0  0  0  0  0  0
   -0.6706   -2.2708    0.2930 C   0  0  0  0  0  0  0  0  0  0  0  0
   -0.0241   -3.1320    1.1998 C   0  0  0  0  0  0  0  0  0  0  0  0
   -0.5338   -4.4129    1.4544 C   0  0  0  0  0  0  0  0  0  0  0  0
   -1.7024   -4.8331    0.8290 C   0  0  0  0  0  0  0  0  0  0  0  0
   -2.3460   -4.0038   -0.0839 C   0  0  0  0  0  0  0  0  0  0  0  0
   -1.8335   -2.7273   -0.3616 C   0  0  0  0  0  0  0  0  0  0  0  0
   -2.5981   -1.8867   -1.6705 Cl  0  0  0  0  0  0  0  0  0  0  0  0
   -2.3433   -6.3938    1.1672 Cl  0  0  0  0  0  0  0  0  0  0  0  0
    4.3378   -3.8506   -0.9025 H   0  0  0  0  0  0  0  0  0  0  0  0
    5.5078   -2.0635    0.7360 H   0  0  0  0  0  0  0  0  0  0  0  0
    2.8205    0.4740    2.0289 H   0  0  0  0  0  0  0  0  0  0  0  0
    4.4095    0.7700    1.2658 H   0  0  0  0  0  0  0  0  0  0  0  0
    4.2442   -0.3796    2.5900 H   0  0  0  0  0  0  0  0  0  0  0  0
    0.7477   -2.6532   -1.8715 H   0  0  0  0  0  0  0  0  0  0  0  0
    1.3055   -4.1978   -1.1786 H   0  0  0  0  0  0  0  0  0  0  0  0
    2.1244   -3.4761   -2.5626 H   0  0  0  0  0  0  0  0  0  0  0  0
    2.0126    2.6206   -1.0386 H   0  0  0  0  0  0  0  0  0  0  0  0
    3.1121    1.2596   -0.9871 H   0  0  0  0  0  0  0  0  0  0  0  0
    2.7179    2.1537    0.5042 H   0  0  0  0  0  0  0  0  0  0  0  0
   -2.6411    1.7450   -0.4180 H   0  0  0  0  0  0  0  0  0  0  0  0
   -2.3020    4.6454    0.2245 H   0  0  0  0  0  0  0  0  0  0  0  0
   -3.5698    3.6308   -2.3666 H   0  0  0  0  0  0  0  0  0  0  0  0
   -2.0459    4.4958   -2.2415 H   0  0  0  0  0  0  0  0  0  0  0  0
   -3.9160    5.9997   -2.9102 H   0  0  0  0  0  0  0  0  0  0  0  0
   -3.1817    6.5038   -1.3918 H   0  0  0  0  0  0  0  0  0  0  0  0
   -5.8137    4.9976   -1.7545 H   0  0  0  0  0  0  0  0  0  0  0  0
   -5.6048    6.6441   -1.1716 H   0  0  0  0  0  0  0  0  0  0  0  0
   -6.0448    4.9960    0.6691 H   0  0  0  0  0  0  0  0  0  0  0  0
   -4.5341    5.8752    0.8745 H   0  0  0  0  0  0  0  0  0  0  0  0
   -4.1716    3.5021    1.3778 H   0  0  0  0  0  0  0  0  0  0  0  0
   -4.8636    3.0160   -0.1642 H   0  0  0  0  0  0  0  0  0  0  0  0
    0.8824   -2.8368    1.7237 H   0  0  0  0  0  0  0  0  0  0  0  0
   -0.0113   -5.0762    2.1406 H   0  0  0  0  0  0  0  0  0  0  0  0
   -3.2312   -4.3628   -0.6046 H   0  0  0  0  0  0  0  0  0  0  0  0
  1  5  1  0  0  0  0
  1  2  1  0  0  0  0
  1 23  1  0  0  0  0
  2  3  2  0  0  0  0
  3  4  1  0  0  0  0
  3 14  1  0  0  0  0
  4  5  2  0  0  0  0
  4 13  1  0  0  0  0
  5  6  1  0  0  0  0
  6 10  1  0  0  0  0
  6  7  1  0  0  0  0
  7  8  2  0  0  0  0
  7 12  1  0  0  0  0
  8  9  1  0  0  0  0
  8 31  1  0  0  0  0
  9 10  2  0  0  0  0
  9 32  1  0  0  0  0
 10 11  1  0  0  0  0
 11 33  1  0  0  0  0
 11 34  1  0  0  0  0
 11 35  1  0  0  0  0
 12 36  1  0  0  0  0
 12 37  1  0  0  0  0
 12 38  1  0  0  0  0
 13 39  1  0  0  0  0
 13 40  1  0  0  0  0
 13 41  1  0  0  0  0
 14 15  2  0  0  0  0
 14 16  1  0  0  0  0
 16 17  1  0  0  0  0
 16 42  1  0  0  0  0
 17 22  1  0  0  0  0
 17 18  1  0  0  0  0
 17 43  1  0  0  0  0
 18 19  1  0  0  0  0
 18 44  1  0  0  0  0
 18 45  1  0  0  0  0
 19 20  1  0  0  0  0
 19 46  1  0  0  0  0
 19 47  1  0  0  0  0
 20 21  1  0  0  0  0
 20 48  1  0  0  0  0
 20 49  1  0  0  0  0
 21 22  1  0  0  0  0
 21 50  1  0  0  0  0
 21 51  1  0  0  0  0
 22 52  1  0  0  0  0
 22 53  1  0  0  0  0
 23 28  2  0  0  0  0
 23 24  1  0  0  0  0
 24 25  2  0  0  0  0
 24 54  1  0  0  0  0
 25 26  1  0  0  0  0
 25 55  1  0  0  0  0
 26 27  2  0  0  0  0
 26 30  1  0  0  0  0
 27 28  1  0  0  0  0
 27 56  1  0  0  0  0
 28 29  1  0  0  0  0
M  END
$$$$
CHEMBL72163
 OpenBabel12022418093D

 53 56  0  0  0  0  0  0  0  0999 V2000
    1.2022    0.1303    0.0460 C   0  0  0  0  0  0  0  0  0  0  0  0
    2.5637   -0.2823    0.1007 O   0  0  0  0  0  0  0  0  0  0  0  0
    3.0809   -0.7884   -1.0626 C   0  0  0  0  0  0  0  0  0  0  0  0
    2.5961   -0.5214   -2.3363 C   0  0  0  0  0  0  0  0  0  0  0  0
    3.2059   -1.0722   -3.4705 C   0  0  0  0  0  0  0  0  0  0  0  0
    4.3651   -1.8594   -3.3116 C   0  0  0  0  0  0  0  0  0  0  0  0
    4.8340   -2.1811   -2.0348 C   0  0  0  0  0  0  0  0  0  0  0  0
    4.1917   -1.6227   -0.9057 C   0  0  0  0  0  0  0  0  0  0  0  0
    5.8996   -3.1166   -2.1871 C   0  0  0  0  0  0  0  0  0  0  0  0
    6.5453   -3.8954   -1.0828 C   0  0  0  0  0  0  0  0  0  0  0  0
    7.7291   -3.2454   -0.3763 C   0  0  0  0  0  0  0  0  0  0  0  0
    8.3441   -2.2866   -0.8316 O   0  0  0  0  0  0  0  0  0  0  0  0
    8.0617   -3.8175    0.8549 N   0  0  0  0  0  0  0  0  0  0  0  0
    7.7204   -5.1993    1.2282 C   0  0  0  0  0  0  0  0  0  0  0  0
    7.5270   -5.3286    2.7375 C   0  0  0  0  0  0  0  0  0  0  0  0
    8.6876   -4.8659    3.4402 O   0  0  0  0  0  0  0  0  0  0  0  0
    8.9378   -3.4804    3.1434 C   0  0  0  0  0  0  0  0  0  0  0  0
    9.1610   -3.2560    1.6405 C   0  0  0  0  0  0  0  0  0  0  0  0
    6.1396   -3.2447   -3.5461 C   0  0  0  0  0  0  0  0  0  0  0  0
    7.2039   -4.0416   -4.2327 C   0  0  0  0  0  0  0  0  0  0  0  0
    5.2451   -2.4270   -4.2438 N   0  0  0  0  0  0  0  0  0  0  0  0
    5.2673   -2.2018   -5.6497 C   0  0  0  0  0  0  0  0  0  0  0  0
    5.8308   -3.0397   -6.3515 O   0  0  0  0  0  0  0  0  0  0  0  0
    4.7197   -1.0112   -6.3437 C   0  0  0  0  0  0  0  0  0  0  0  0
    3.9696   -1.1551   -7.5266 C   0  0  0  0  0  0  0  0  0  0  0  0
    3.4790   -0.0254   -8.1938 C   0  0  0  0  0  0  0  0  0  0  0  0
    3.6888    1.2471   -7.6714 C   0  0  0  0  0  0  0  0  0  0  0  0
    4.4440    1.4032   -6.5143 C   0  0  0  0  0  0  0  0  0  0  0  0
    5.0022    0.2860   -5.8808 C   0  0  0  0  0  0  0  0  0  0  0  0
    6.0957    0.6254   -4.5839 Cl  0  0  0  0  0  0  0  0  0  0  0  0
    3.5675   -2.6843   -8.2307 Cl  0  0  0  0  0  0  0  0  0  0  0  0
    0.8905    0.3987    1.0600 H   0  0  0  0  0  0  0  0  0  0  0  0
    0.5606   -0.6887   -0.2969 H   0  0  0  0  0  0  0  0  0  0  0  0
    1.0763    1.0188   -0.5809 H   0  0  0  0  0  0  0  0  0  0  0  0
    1.7478    0.1372   -2.4910 H   0  0  0  0  0  0  0  0  0  0  0  0
    2.7841   -0.8552   -4.4461 H   0  0  0  0  0  0  0  0  0  0  0  0
    4.5591   -1.8401    0.0936 H   0  0  0  0  0  0  0  0  0  0  0  0
    6.8745   -4.8681   -1.4647 H   0  0  0  0  0  0  0  0  0  0  0  0
    5.7681   -4.0781   -0.3320 H   0  0  0  0  0  0  0  0  0  0  0  0
    8.5635   -5.8194    0.8993 H   0  0  0  0  0  0  0  0  0  0  0  0
    6.8292   -5.5593    0.7123 H   0  0  0  0  0  0  0  0  0  0  0  0
    7.3655   -6.3780    3.0007 H   0  0  0  0  0  0  0  0  0  0  0  0
    6.6509   -4.7595    3.0707 H   0  0  0  0  0  0  0  0  0  0  0  0
    9.8250   -3.1786    3.7093 H   0  0  0  0  0  0  0  0  0  0  0  0
    8.0910   -2.8865    3.5079 H   0  0  0  0  0  0  0  0  0  0  0  0
    9.2807   -2.1852    1.4342 H   0  0  0  0  0  0  0  0  0  0  0  0
   10.0755   -3.7705    1.3205 H   0  0  0  0  0  0  0  0  0  0  0  0
    7.9078   -4.4690   -3.5152 H   0  0  0  0  0  0  0  0  0  0  0  0
    7.7910   -3.4117   -4.9098 H   0  0  0  0  0  0  0  0  0  0  0  0
    6.7601   -4.8689   -4.7964 H   0  0  0  0  0  0  0  0  0  0  0  0
    2.9268   -0.1336   -9.1259 H   0  0  0  0  0  0  0  0  0  0  0  0
    3.2881    2.1214   -8.1819 H   0  0  0  0  0  0  0  0  0  0  0  0
    4.6205    2.4004   -6.1194 H   0  0  0  0  0  0  0  0  0  0  0  0
  1  2  1  0  0  0  0
  1 32  1  0  0  0  0
  1 33  1  0  0  0  0
  1 34  1  0  0  0  0
  2  3  1  0  0  0  0
  3  8  2  0  0  0  0
  3  4  1  0  0  0  0
  4  5  2  0  0  0  0
  4 35  1  0  0  0  0
  5  6  1  0  0  0  0
  5 36  1  0  0  0  0
  6 21  1  0  0  0  0
  6  7  2  0  0  0  0
  7  8  1  0  0  0  0
  7  9  1  0  0  0  0
  8 37  1  0  0  0  0
  9 10  1  0  0  0  0
  9 19  2  0  0  0  0
 10 11  1  0  0  0  0
 10 38  1  0  0  0  0
 10 39  1  0  0  0  0
 11 12  2  0  0  0  0
 11 13  1  0  0  0  0
 13 18  1  0  0  0  0
 13 14  1  0  0  0  0
 14 15  1  0  0  0  0
 14 40  1  0  0  0  0
 14 41  1  0  0  0  0
 15 16  1  0  0  0  0
 15 42  1  0  0  0  0
 15 43  1  0  0  0  0
 16 17  1  0  0  0  0
 17 18  1  0  0  0  0
 17 44  1  0  0  0  0
 17 45  1  0  0  0  0
 18 46  1  0  0  0  0
 18 47  1  0  0  0  0
 19 20  1  0  0  0  0
 19 21  1  0  0  0  0
 20 48  1  0  0  0  0
 20 49  1  0  0  0  0
 20 50  1  0  0  0  0
 21 22  1  0  0  0  0
 22 23  2  0  0  0  0
 22 24  1  0  0  0  0
 24 29  2  0  0  0  0
 24 25  1  0  0  0  0
 25 26  2  0  0  0  0
 25 31  1  0  0  0  0
 26 27  1  0  0  0  0
 26 51  1  0  0  0  0
 27 28  2  0  0  0  0
 27 52  1  0  0  0  0
 28 29  1  0  0  0  0
 28 53  1  0  0  0  0
 29 30  1  0  0  0  0
M  END
$$$$
CHEMBL2206837
 OpenBabel12022418093D

 46 49  0  0  0  0  0  0  0  0999 V2000
    2.9373    0.5506    2.7080 C   0  0  0  0  0  0  0  0  0  0  0  0
    2.7614    1.7296    1.7596 C   0  0  0  0  0  0  0  0  0  0  0  0
    3.6074    1.6758    0.4790 C   0  0  0  0  0  0  0  0  0  0  0  0
    5.0644    1.7790    0.6380 N   0  0  0  0  0  0  0  0  0  0  0  0
    5.8429    2.9451    0.6447 C   0  0  0  0  0  0  0  0  0  0  0  0
    5.1174    4.2516    0.5891 C   0  0  0  0  0  0  0  0  0  0  0  0
    7.2216    2.5855    0.6310 C   0  0  0  0  0  0  0  0  0  0  0  0
    8.5732    3.3448    0.5369 C   0  0  0  0  0  0  0  0  0  0  0  0
    9.5099    2.7847   -0.0383 O   0  0  0  0  0  0  0  0  0  0  0  0
    8.9270    4.7203    1.1321 C   0  0  0  0  0  0  0  0  0  0  0  0
    7.9057    5.6473    1.2107 C   0  0  0  0  0  0  0  0  0  0  0  0
    8.0242    6.8608    1.8734 C   0  0  0  0  0  0  0  0  0  0  0  0
    9.2452    7.2495    2.3988 C   0  0  0  0  0  0  0  0  0  0  0  0
   10.4059    6.4796    2.1626 C   0  0  0  0  0  0  0  0  0  0  0  0
   11.6838    6.9876    2.5113 C   0  0  0  0  0  0  0  0  0  0  0  0
   12.8581    6.3153    2.2055 C   0  0  0  0  0  0  0  0  0  0  0  0
   12.7702    5.0894    1.5792 C   0  0  0  0  0  0  0  0  0  0  0  0
   11.5066    4.5313    1.2657 C   0  0  0  0  0  0  0  0  0  0  0  0
   10.2655    5.1908    1.5102 C   0  0  0  0  0  0  0  0  0  0  0  0
    9.2002    9.0793    3.4681 I   0  0  0  0  0  0  0  0  0  0  0  0
    7.1906    1.1094    0.6046 C   0  0  0  0  0  0  0  0  0  0  0  0
    8.1920    0.1052    0.5544 C   0  0  0  0  0  0  0  0  0  0  0  0
    7.8535   -1.2575    0.5025 C   0  0  0  0  0  0  0  0  0  0  0  0
    6.5275   -1.6564    0.5000 C   0  0  0  0  0  0  0  0  0  0  0  0
    5.5175   -0.7031    0.5534 C   0  0  0  0  0  0  0  0  0  0  0  0
    5.8683    0.6635    0.6084 C   0  0  0  0  0  0  0  0  0  0  0  0
    2.2981    0.6834    3.5891 H   0  0  0  0  0  0  0  0  0  0  0  0
    3.9685    0.4625    3.0588 H   0  0  0  0  0  0  0  0  0  0  0  0
    2.6435   -0.3916    2.2335 H   0  0  0  0  0  0  0  0  0  0  0  0
    2.9509    2.6599    2.3042 H   0  0  0  0  0  0  0  0  0  0  0  0
    1.7037    1.7492    1.4624 H   0  0  0  0  0  0  0  0  0  0  0  0
    3.2904    2.4669   -0.2085 H   0  0  0  0  0  0  0  0  0  0  0  0
    3.3829    0.7529   -0.0678 H   0  0  0  0  0  0  0  0  0  0  0  0
    4.0294    4.1674    0.5903 H   0  0  0  0  0  0  0  0  0  0  0  0
    5.3693    4.7849   -0.3340 H   0  0  0  0  0  0  0  0  0  0  0  0
    5.3312    4.8482    1.4785 H   0  0  0  0  0  0  0  0  0  0  0  0
    7.0002    5.4823    0.6725 H   0  0  0  0  0  0  0  0  0  0  0  0
    7.1512    7.5037    1.9440 H   0  0  0  0  0  0  0  0  0  0  0  0
   11.8021    7.9559    2.9961 H   0  0  0  0  0  0  0  0  0  0  0  0
   13.8195    6.7679    2.4401 H   0  0  0  0  0  0  0  0  0  0  0  0
   13.6896    4.5703    1.3104 H   0  0  0  0  0  0  0  0  0  0  0  0
   11.5333    3.5712    0.7558 H   0  0  0  0  0  0  0  0  0  0  0  0
    9.2412    0.3841    0.5325 H   0  0  0  0  0  0  0  0  0  0  0  0
    8.6381   -2.0072    0.4535 H   0  0  0  0  0  0  0  0  0  0  0  0
    6.2683   -2.7117    0.4510 H   0  0  0  0  0  0  0  0  0  0  0  0
    4.4812   -1.0288    0.5436 H   0  0  0  0  0  0  0  0  0  0  0  0
  1  2  1  0  0  0  0
  1 27  1  0  0  0  0
  1 28  1  0  0  0  0
  1 29  1  0  0  0  0
  2  3  1  0  0  0  0
  2 30  1  0  0  0  0
  2 31  1  0  0  0  0
  3  4  1  0  0  0  0
  3 32  1  0  0  0  0
  3 33  1  0  0  0  0
  4 26  1  0  0  0  0
  4  5  1  0  0  0  0
  5  6  1  0  0  0  0
  5  7  2  0  0  0  0
  6 34  1  0  0  0  0
  6 35  1  0  0  0  0
  6 36  1  0  0  0  0
  7  8  1  0  0  0  0
  7 21  1  0  0  0  0
  8  9  2  0  0  0  0
  8 10  1  0  0  0  0
 10 19  2  0  0  0  0
 10 11  1  0  0  0  0
 11 12  2  0  0  0  0
 11 37  1  0  0  0  0
 12 13  1  0  0  0  0
 12 38  1  0  0  0  0
 13 14  2  0  0  0  0
 13 20  1  0  0  0  0
 14 19  1  0  0  0  0
 14 15  1  0  0  0  0
 15 16  2  0  0  0  0
 15 39  1  0  0  0  0
 16 17  1  0  0  0  0
 16 40  1  0  0  0  0
 17 18  2  0  0  0  0
 17 41  1  0  0  0  0
 18 19  1  0  0  0  0
 18 42  1  0  0  0  0
 21 26  2  0  0  0  0
 21 22  1  0  0  0  0
 22 23  2  0  0  0  0
 22 43  1  0  0  0  0
 23 24  1  0  0  0  0
 23 44  1  0  0  0  0
 24 25  2  0  0  0  0
 24 45  1  0  0  0  0
 25 26  1  0  0  0  0
 25 46  1  0  0  0  0
M  END
$$$$
CHEMBL467029
 OpenBabel12022418093D

 50 51  0  0  0  0  0  0  0  0999 V2000
   -2.1163    0.3349    0.0851 C   0  0  0  0  0  0  0  0  0  0  0  0
   -0.7079    0.0388    0.0719 N   0  0  0  0  0  0  0  0  0  0  0  0
   -0.0284   -1.1654    0.0564 C   0  0  0  0  0  0  0  0  0  0  0  0
    1.3081   -0.8046   -0.0190 C   0  0  0  0  0  0  0  0  0  0  0  0
    1.3497    0.6104   -0.0174 C   0  0  0  0  0  0  0  0  0  0  0  0
    2.5234    1.5659   -0.0873 C   0  0  0  0  0  0  0  0  0  0  0  0
    3.8611    0.8081   -0.1746 C   0  0  0  0  0  0  0  0  0  0  0  0
    2.3971    2.4736   -1.3326 C   0  0  0  0  0  0  0  0  0  0  0  0
    2.5616    2.4673    1.1655 C   0  0  0  0  0  0  0  0  0  0  0  0
    0.1075    1.1060    0.0455 N   0  0  0  0  0  0  0  0  0  0  0  0
   -0.4924   -2.4761    0.0861 N   0  0  0  0  0  0  0  0  0  0  0  0
   -1.8148   -2.8926    0.0938 C   0  0  0  0  0  0  0  0  0  0  0  0
   -2.7888   -2.1419    0.1443 O   0  0  0  0  0  0  0  0  0  0  0  0
   -2.0580   -4.3989    0.0792 C   0  0  0  0  0  0  0  0  0  0  0  0
   -1.3997   -5.0137    1.3301 C   0  0  0  0  0  0  0  0  0  0  0  0
   -3.5788   -4.6630    0.0873 C   0  0  0  0  0  0  0  0  0  0  0  0
   -1.3216   -5.0715   -1.4169 S   0  0  0  0  0  0  0  0  0  0  0  0
    0.1111   -4.8434   -1.3260 O   0  0  0  0  0  0  0  0  0  0  0  0
   -1.8159   -6.4219   -1.6207 O   0  0  0  0  0  0  0  0  0  0  0  0
   -1.9022   -4.0937   -2.7996 C   0  0  0  0  0  0  0  0  0  0  0  0
   -1.1420   -2.9884   -3.1967 C   0  0  0  0  0  0  0  0  0  0  0  0
   -1.5173   -2.2393   -4.3115 C   0  0  0  0  0  0  0  0  0  0  0  0
   -2.6367   -2.6139   -5.0497 C   0  0  0  0  0  0  0  0  0  0  0  0
   -3.3805   -3.7380   -4.6827 C   0  0  0  0  0  0  0  0  0  0  0  0
   -3.0137   -4.4889   -3.5569 C   0  0  0  0  0  0  0  0  0  0  0  0
   -3.0938   -1.6880   -6.4254 Cl  0  0  0  0  0  0  0  0  0  0  0  0
   -2.2618    1.4206    0.0526 H   0  0  0  0  0  0  0  0  0  0  0  0
   -2.5456   -0.0336    1.0172 H   0  0  0  0  0  0  0  0  0  0  0  0
   -2.5732   -0.0862   -0.8135 H   0  0  0  0  0  0  0  0  0  0  0  0
    2.1509   -1.4822   -0.0719 H   0  0  0  0  0  0  0  0  0  0  0  0
    3.9086    0.1897   -1.0783 H   0  0  0  0  0  0  0  0  0  0  0  0
    3.9991    0.1458    0.6887 H   0  0  0  0  0  0  0  0  0  0  0  0
    4.7091    1.5000   -0.1998 H   0  0  0  0  0  0  0  0  0  0  0  0
    2.4041    1.8833   -2.2546 H   0  0  0  0  0  0  0  0  0  0  0  0
    3.2196    3.1931   -1.3826 H   0  0  0  0  0  0  0  0  0  0  0  0
    1.4604    3.0471   -1.3187 H   0  0  0  0  0  0  0  0  0  0  0  0
    2.6664    1.8751    2.0815 H   0  0  0  0  0  0  0  0  0  0  0  0
    1.6470    3.0648    1.2635 H   0  0  0  0  0  0  0  0  0  0  0  0
    3.4034    3.1685    1.1212 H   0  0  0  0  0  0  0  0  0  0  0  0
    0.2343   -3.1882    0.0068 H   0  0  0  0  0  0  0  0  0  0  0  0
   -1.8828   -4.6575    2.2489 H   0  0  0  0  0  0  0  0  0  0  0  0
   -0.3422   -4.7360    1.4165 H   0  0  0  0  0  0  0  0  0  0  0  0
   -1.4365   -6.1078    1.3267 H   0  0  0  0  0  0  0  0  0  0  0  0
   -4.0404   -4.3164    1.0211 H   0  0  0  0  0  0  0  0  0  0  0  0
   -3.8280   -5.7211   -0.0362 H   0  0  0  0  0  0  0  0  0  0  0  0
   -4.0777   -4.1178   -0.7243 H   0  0  0  0  0  0  0  0  0  0  0  0
   -0.2423   -2.7030   -2.6574 H   0  0  0  0  0  0  0  0  0  0  0  0
   -0.9245   -1.3745   -4.5998 H   0  0  0  0  0  0  0  0  0  0  0  0
   -4.2411   -4.0347   -5.2793 H   0  0  0  0  0  0  0  0  0  0  0  0
   -3.5900   -5.3765   -3.3028 H   0  0  0  0  0  0  0  0  0  0  0  0
  1  2  1  0  0  0  0
  1 27  1  0  0  0  0
  1 28  1  0  0  0  0
  1 29  1  0  0  0  0
  2 10  1  0  0  0  0
  2  3  1  0  0  0  0
  3  4  2  0  0  0  0
  3 11  1  0  0  0  0
  4  5  1  0  0  0  0
  4 30  1  0  0  0  0
  5  6  1  0  0  0  0
  5 10  2  0  0  0  0
  6  7  1  0  0  0  0
  6  8  1  0  0  0  0
  6  9  1  0  0  0  0
  7 31  1  0  0  0  0
  7 32  1  0  0  0  0
  7 33  1  0  0  0  0
  8 34  1  0  0  0  0
  8 35  1  0  0  0  0
  8 36  1  0  0  0  0
  9 37  1  0  0  0  0
  9 38  1  0  0  0  0
  9 39  1  0  0  0  0
 11 12  1  0  0  0  0
 11 40  1  0  0  0  0
 12 13  2  0  0  0  0
 12 14  1  0  0  0  0
 14 15  1  0  0  0  0
 14 16  1  0  0  0  0
 14 17  1  0  0  0  0
 15 41  1  0  0  0  0
 15 42  1  0  0  0  0
 15 43  1  0  0  0  0
 16 44  1  0  0  0  0
 16 45  1  0  0  0  0
 16 46  1  0  0  0  0
 17 18  2  0  0  0  0
 17 19  2  0  0  0  0
 17 20  1  0  0  0  0
 20 25  2  0  0  0  0
 20 21  1  0  0  0  0
 21 22  2  0  0  0  0
 21 47  1  0  0  0  0
 22 23  1  0  0  0  0
 22 48  1  0  0  0  0
 23 24  2  0  0  0  0
 23 26  1  0  0  0  0
 24 25  1  0  0  0  0
 24 49  1  0  0  0  0
 25 50  1  0  0  0  0
M  END
$$$$
CHEMBL1215991
 OpenBabel12022418093D

 63 66  0  0  1  0  0  0  0  0999 V2000
    0.8038    1.2912    0.2662 C   0  0  0  0  0  0  0  0  0  0  0  0
    2.3229    1.3335    0.3021 C   0  0  0  0  0  0  0  0  0  0  0  0
    2.8569    0.7102    1.5903 C   0  0  0  0  0  0  0  0  0  0  0  0
    4.3842    0.7454    1.6410 C   0  0  0  0  0  0  0  0  0  0  0  0
    4.8994    0.1616    2.9633 C   0  0  0  0  0  0  0  0  0  0  0  0
    6.3775    0.1456    2.9931 N   0  0  0  0  0  0  0  0  0  0  0  0
    7.0732    1.3454    3.0370 C   0  0  0  0  0  0  0  0  0  0  0  0
    8.4090    1.5225    3.0511 C   0  0  0  0  0  0  0  0  0  0  0  0
    8.9040    2.9231    3.1182 C   0  0  0  0  0  0  0  0  0  0  0  0
    8.1126    3.8201    3.4197 O   0  0  0  0  0  0  0  0  0  0  0  0
   10.2453    3.1739    2.8542 N   0  0  0  0  0  0  0  0  0  0  0  0
   10.7507    4.4946    3.1789 C   0  0  1  0  0  0  0  0  0  0  0  0
   11.3189    4.6686    4.6213 C   0  0  0  0  0  0  0  0  0  0  0  0
   10.1966    5.0697    5.5942 C   0  0  0  0  0  0  0  0  0  0  0  0
   11.9872    3.3974    5.1834 C   0  0  0  0  0  0  0  0  0  0  0  0
   12.3282    5.8534    4.3973 C   0  0  1  0  0  0  0  0  0  0  0  0
   13.6632    5.3464    3.8351 C   0  0  0  0  0  0  0  0  0  0  0  0
   13.2553    4.8077    2.4529 C   0  0  0  0  0  0  0  0  0  0  0  0
   11.7824    5.2596    2.2944 C   0  0  1  0  0  0  0  0  0  0  0  0
   11.3805    5.4548    0.8462 C   0  0  0  0  0  0  0  0  0  0  0  0
   11.8046    6.5630    3.1319 C   0  0  0  0  0  0  0  0  0  0  0  0
    9.2352    0.3041    3.0544 C   0  0  0  0  0  0  0  0  0  0  0  0
   10.4568    0.3683    3.0346 O   0  0  0  0  0  0  0  0  0  0  0  0
    8.5286   -1.0088    3.1096 C   0  0  0  0  0  0  0  0  0  0  0  0
    9.3011   -2.1741    3.2179 C   0  0  0  0  0  0  0  0  0  0  0  0
    8.6756   -3.4120    3.2771 C   0  0  0  0  0  0  0  0  0  0  0  0
    7.2904   -3.4984    3.2209 C   0  0  0  0  0  0  0  0  0  0  0  0
    6.5191   -2.3355    3.1105 C   0  0  0  0  0  0  0  0  0  0  0  0
    7.1082   -1.0585    3.0639 C   0  0  0  0  0  0  0  0  0  0  0  0
    9.7060   -4.9874    3.4355 Br  0  0  0  0  0  0  0  0  0  0  0  0
    0.4318    1.7385   -0.6604 H   0  0  0  0  0  0  0  0  0  0  0  0
    0.3779    1.8463    1.1082 H   0  0  0  0  0  0  0  0  0  0  0  0
    0.4408    0.2596    0.3174 H   0  0  0  0  0  0  0  0  0  0  0  0
    2.6570    2.3746    0.2237 H   0  0  0  0  0  0  0  0  0  0  0  0
    2.7216    0.7973   -0.5666 H   0  0  0  0  0  0  0  0  0  0  0  0
    2.5119   -0.3281    1.6664 H   0  0  0  0  0  0  0  0  0  0  0  0
    2.4492    1.2504    2.4534 H   0  0  0  0  0  0  0  0  0  0  0  0
    4.7218    1.7823    1.5272 H   0  0  0  0  0  0  0  0  0  0  0  0
    4.8000    0.1824    0.7961 H   0  0  0  0  0  0  0  0  0  0  0  0
    4.4433   -0.8187    3.1125 H   0  0  0  0  0  0  0  0  0  0  0  0
    4.5370    0.7730    3.8011 H   0  0  0  0  0  0  0  0  0  0  0  0
    6.4172    2.2133    3.0569 H   0  0  0  0  0  0  0  0  0  0  0  0
   10.8738    2.3733    2.7888 H   0  0  0  0  0  0  0  0  0  0  0  0
    9.8601    5.1337    3.1011 H   0  0  0  0  0  0  0  0  0  0  0  0
    9.5468    4.2151    5.8122 H   0  0  0  0  0  0  0  0  0  0  0  0
    9.5653    5.8665    5.1872 H   0  0  0  0  0  0  0  0  0  0  0  0
   10.6099    5.4212    6.5447 H   0  0  0  0  0  0  0  0  0  0  0  0
   11.2506    2.6120    5.3840 H   0  0  0  0  0  0  0  0  0  0  0  0
   12.5020    3.6156    6.1260 H   0  0  0  0  0  0  0  0  0  0  0  0
   12.7160    2.9595    4.4957 H   0  0  0  0  0  0  0  0  0  0  0  0
   12.4478    6.5093    5.2633 H   0  0  0  0  0  0  0  0  0  0  0  0
   14.1685    4.6058    4.4570 H   0  0  0  0  0  0  0  0  0  0  0  0
   14.3604    6.1866    3.7212 H   0  0  0  0  0  0  0  0  0  0  0  0
   13.3739    3.7237    2.3720 H   0  0  0  0  0  0  0  0  0  0  0  0
   13.8988    5.2724    1.6940 H   0  0  0  0  0  0  0  0  0  0  0  0
   11.5124    4.5292    0.2751 H   0  0  0  0  0  0  0  0  0  0  0  0
   11.9972    6.2275    0.3712 H   0  0  0  0  0  0  0  0  0  0  0  0
   10.3359    5.7676    0.7549 H   0  0  0  0  0  0  0  0  0  0  0  0
   12.4882    7.3235    2.7402 H   0  0  0  0  0  0  0  0  0  0  0  0
   10.8199    7.0252    3.2709 H   0  0  0  0  0  0  0  0  0  0  0  0
   10.3852   -2.1036    3.2647 H   0  0  0  0  0  0  0  0  0  0  0  0
    6.7922   -4.4641    3.2673 H   0  0  0  0  0  0  0  0  0  0  0  0
    5.4449   -2.4797    3.0711 H   0  0  0  0  0  0  0  0  0  0  0  0
  1  2  1  0  0  0  0
  1 31  1  0  0  0  0
  1 32  1  0  0  0  0
  1 33  1  0  0  0  0
  2  3  1  0  0  0  0
  2 34  1  0  0  0  0
  2 35  1  0  0  0  0
  3  4  1  0  0  0  0
  3 36  1  0  0  0  0
  3 37  1  0  0  0  0
  4  5  1  0  0  0  0
  4 38  1  0  0  0  0
  4 39  1  0  0  0  0
  5  6  1  0  0  0  0
  5 40  1  0  0  0  0
  5 41  1  0  0  0  0
  6 29  1  0  0  0  0
  6  7  1  0  0  0  0
  7  8  2  0  0  0  0
  7 42  1  0  0  0  0
  8  9  1  0  0  0  0
  8 22  1  0  0  0  0
  9 10  2  0  0  0  0
  9 11  1  0  0  0  0
 11 43  1  0  0  0  0
 12 11  1  0  0  0  0
 12 13  1  0  0  0  0
 12 19  1  0  0  0  0
 12 44  1  6  0  0  0
 13 14  1  0  0  0  0
 13 15  1  0  0  0  0
 13 16  1  0  0  0  0
 14 45  1  0  0  0  0
 14 46  1  0  0  0  0
 14 47  1  0  0  0  0
 15 48  1  0  0  0  0
 15 49  1  0  0  0  0
 15 50  1  0  0  0  0
 16 17  1  0  0  0  0
 16 21  1  0  0  0  0
 16 51  1  1  0  0  0
 17 18  1  0  0  0  0
 17 52  1  0  0  0  0
 17 53  1  0  0  0  0
 18 19  1  0  0  0  0
 18 54  1  0  0  0  0
 18 55  1  0  0  0  0
 19 20  1  6  0  0  0
 19 21  1  0  0  0  0
 20 56  1  0  0  0  0
 20 57  1  0  0  0  0
 20 58  1  0  0  0  0
 21 59  1  0  0  0  0
 21 60  1  0  0  0  0
 22 23  2  0  0  0  0
 22 24  1  0  0  0  0
 24 29  2  0  0  0  0
 24 25  1  0  0  0  0
 25 26  2  0  0  0  0
 25 61  1  0  0  0  0
 26 27  1  0  0  0  0
 26 30  1  0  0  0  0
 27 28  2  0  0  0  0
 27 62  1  0  0  0  0
 28 29  1  0  0  0  0
 28 63  1  0  0  0  0
M  END
$$$$
CHEMBL498470
 OpenBabel12022418093D

 44 47  0  0  0  0  0  0  0  0999 V2000
   -2.3443   -1.4599    4.1305 F   0  0  0  0  0  0  0  0  0  0  0  0
   -1.3739   -1.7419    3.2517 C   0  0  0  0  0  0  0  0  0  0  0  0
   -0.6405   -2.9104    3.3951 C   0  0  0  0  0  0  0  0  0  0  0  0
    0.3638   -3.2052    2.4715 C   0  0  0  0  0  0  0  0  0  0  0  0
    0.6446   -2.3314    1.4001 C   0  0  0  0  0  0  0  0  0  0  0  0
    1.6962   -2.7161    0.4666 C   0  0  0  0  0  0  0  0  0  0  0  0
    2.5181   -1.8626   -0.1638 N   0  0  0  0  0  0  0  0  0  0  0  0
    3.3148   -2.6846   -0.9537 O   0  0  0  0  0  0  0  0  0  0  0  0
    2.9223   -3.9621   -0.6957 C   0  0  0  0  0  0  0  0  0  0  0  0
    3.5782   -5.0350   -1.4754 C   0  0  0  0  0  0  0  0  0  0  0  0
    2.7862   -5.3135   -2.7510 C   0  0  0  0  0  0  0  0  0  0  0  0
    3.4158   -6.4281   -3.5827 C   0  0  0  0  0  0  0  0  0  0  0  0
    2.5902   -6.6717   -4.8461 C   0  0  0  0  0  0  0  0  0  0  0  0
    3.1643   -7.7757   -5.6921 C   0  0  0  0  0  0  0  0  0  0  0  0
    2.7736   -9.0995   -5.4826 C   0  0  0  0  0  0  0  0  0  0  0  0
    3.2933  -10.1222   -6.2818 C   0  0  0  0  0  0  0  0  0  0  0  0
    4.2051   -9.8634   -7.2938 C   0  0  0  0  0  0  0  0  0  0  0  0
    4.6172   -8.5310   -7.4973 C   0  0  0  0  0  0  0  0  0  0  0  0
    5.5401   -8.2774   -8.5215 C   0  0  0  0  0  0  0  0  0  0  0  0
    6.0098   -9.3275   -9.3014 C   0  0  0  0  0  0  0  0  0  0  0  0
    5.5422  -10.5987   -9.0266 C   0  0  0  0  0  0  0  0  0  0  0  0
    4.6605  -10.8827   -8.0436 N   0  0  0  0  0  0  0  0  0  0  0  0
    4.1009   -7.4975   -6.6935 C   0  0  0  0  0  0  0  0  0  0  0  0
    1.9520   -4.0430    0.1837 N   0  0  0  0  0  0  0  0  0  0  0  0
   -0.1209   -1.1576    1.2744 C   0  0  0  0  0  0  0  0  0  0  0  0
   -1.1253   -0.8660    2.2042 C   0  0  0  0  0  0  0  0  0  0  0  0
    0.0538   -0.0344   -0.0314 Cl  0  0  0  0  0  0  0  0  0  0  0  0
   -0.8560   -3.5857    4.2177 H   0  0  0  0  0  0  0  0  0  0  0  0
    0.9317   -4.1281    2.5892 H   0  0  0  0  0  0  0  0  0  0  0  0
    3.6364   -5.9421   -0.8629 H   0  0  0  0  0  0  0  0  0  0  0  0
    4.6058   -4.7443   -1.7224 H   0  0  0  0  0  0  0  0  0  0  0  0
    2.7226   -4.3982   -3.3542 H   0  0  0  0  0  0  0  0  0  0  0  0
    1.7552   -5.5894   -2.4926 H   0  0  0  0  0  0  0  0  0  0  0  0
    3.4734   -7.3472   -2.9863 H   0  0  0  0  0  0  0  0  0  0  0  0
    4.4446   -6.1572   -3.8503 H   0  0  0  0  0  0  0  0  0  0  0  0
    2.5267   -5.7517   -5.4409 H   0  0  0  0  0  0  0  0  0  0  0  0
    1.5569   -6.9250   -4.5767 H   0  0  0  0  0  0  0  0  0  0  0  0
    2.0554   -9.3484   -4.7046 H   0  0  0  0  0  0  0  0  0  0  0  0
    2.9725  -11.1471   -6.1136 H   0  0  0  0  0  0  0  0  0  0  0  0
    5.8900   -7.2681   -8.7180 H   0  0  0  0  0  0  0  0  0  0  0  0
    6.7181   -9.1582  -10.1034 H   0  0  0  0  0  0  0  0  0  0  0  0
    5.8731  -11.4547   -9.6082 H   0  0  0  0  0  0  0  0  0  0  0  0
    4.4236   -6.4712   -6.8579 H   0  0  0  0  0  0  0  0  0  0  0  0
   -1.7279    0.0331    2.1137 H   0  0  0  0  0  0  0  0  0  0  0  0
  1  2  1  0  0  0  0
  2 26  2  0  0  0  0
  2  3  1  0  0  0  0
  3  4  2  0  0  0  0
  3 28  1  0  0  0  0
  4  5  1  0  0  0  0
  4 29  1  0  0  0  0
  5  6  1  0  0  0  0
  5 25  2  0  0  0  0
  6 24  1  0  0  0  0
  6  7  2  0  0  0  0
  7  8  1  0  0  0  0
  8  9  1  0  0  0  0
  9 10  1  0  0  0  0
  9 24  2  0  0  0  0
 10 11  1  0  0  0  0
 10 30  1  0  0  0  0
 10 31  1  0  0  0  0
 11 12  1  0  0  0  0
 11 32  1  0  0  0  0
 11 33  1  0  0  0  0
 12 13  1  0  0  0  0
 12 34  1  0  0  0  0
 12 35  1  0  0  0  0
 13 14  1  0  0  0  0
 13 36  1  0  0  0  0
 13 37  1  0  0  0  0
 14 23  2  0  0  0  0
 14 15  1  0  0  0  0
 15 16  2  0  0  0  0
 15 38  1  0  0  0  0
 16 17  1  0  0  0  0
 16 39  1  0  0  0  0
 17 22  2  0  0  0  0
 17 18  1  0  0  0  0
 18 19  2  0  0  0  0
 18 23  1  0  0  0  0
 19 20  1  0  0  0  0
 19 40  1  0  0  0  0
 20 21  2  0  0  0  0
 20 41  1  0  0  0  0
 21 22  1  0  0  0  0
 21 42  1  0  0  0  0
 23 43  1  0  0  0  0
 25 26  1  0  0  0  0
 25 27  1  0  0  0  0
 26 44  1  0  0  0  0
M  END
$$$$
CHEMBL524822
 OpenBabel12022418093D

 56 59  0  0  0  0  0  0  0  0999 V2000
   -2.1407   -0.7906   -0.0123 C   0  0  0  0  0  0  0  0  0  0  0  0
   -2.2312    0.5944   -0.0648 C   0  0  0  0  0  0  0  0  0  0  0  0
   -1.0735    1.3743   -0.0911 C   0  0  0  0  0  0  0  0  0  0  0  0
    0.2032    0.7747   -0.0930 C   0  0  0  0  0  0  0  0  0  0  0  0
    0.2753   -0.6171   -0.0753 C   0  0  0  0  0  0  0  0  0  0  0  0
   -0.8892   -1.4170    0.0002 C   0  0  0  0  0  0  0  0  0  0  0  0
    1.6233   -0.9541   -0.0932 N   0  0  0  0  0  0  0  0  0  0  0  0
    2.4015    0.2247   -0.0235 C   0  0  0  0  0  0  0  0  0  0  0  0
    1.5306    1.3403    0.0850 C   0  0  0  0  0  0  0  0  0  0  0  0
    1.6687    2.6978    0.7621 C   0  0  0  0  0  0  0  0  0  0  0  0
    1.0795    2.7765    1.8348 O   0  0  0  0  0  0  0  0  0  0  0  0
    2.2482    4.0410    0.3224 C   0  0  0  0  0  0  0  0  0  0  0  0
    3.0560    4.1867   -0.8406 C   0  0  0  0  0  0  0  0  0  0  0  0
    3.6833    5.4134   -1.0671 C   0  0  0  0  0  0  0  0  0  0  0  0
    3.6396    6.4129   -0.1126 C   0  0  0  0  0  0  0  0  0  0  0  0
    2.6862    6.4544    0.8588 C   0  0  0  0  0  0  0  0  0  0  0  0
    1.9669    5.2957    1.2404 C   0  0  0  0  0  0  0  0  0  0  0  0
    1.1558    5.6502    2.4371 C   0  0  0  0  0  0  0  0  0  0  0  0
    1.0064    6.9767    2.9969 C   0  0  0  0  0  0  0  0  0  0  0  0
    1.6996    8.0310    2.4649 C   0  0  0  0  0  0  0  0  0  0  0  0
    2.5878    7.7329    1.4422 C   0  0  0  0  0  0  0  0  0  0  0  0
    3.6629    3.1431   -1.4929 O   0  0  0  0  0  0  0  0  0  0  0  0
    3.2453    2.7828   -2.8089 C   0  0  0  0  0  0  0  0  0  0  0  0
    3.8952    0.1793    0.0371 C   0  0  0  0  0  0  0  0  0  0  0  0
    2.0707   -2.3592   -0.0287 C   0  0  0  0  0  0  0  0  0  0  0  0
    1.6096   -3.2775   -1.1791 C   0  0  0  0  0  0  0  0  0  0  0  0
    2.0319   -2.7517   -2.5445 C   0  0  0  0  0  0  0  0  0  0  0  0
    1.4930   -3.6319   -3.6694 C   0  0  0  0  0  0  0  0  0  0  0  0
    1.9125   -3.0768   -5.0189 C   0  0  0  0  0  0  0  0  0  0  0  0
   -3.0468   -1.3876    0.0437 H   0  0  0  0  0  0  0  0  0  0  0  0
   -3.2006    1.0830   -0.0321 H   0  0  0  0  0  0  0  0  0  0  0  0
   -1.1507    2.4567   -0.0567 H   0  0  0  0  0  0  0  0  0  0  0  0
   -0.8341   -2.4965    0.0907 H   0  0  0  0  0  0  0  0  0  0  0  0
    4.3301    5.5928   -1.9194 H   0  0  0  0  0  0  0  0  0  0  0  0
    4.4069    7.1950   -0.1450 H   0  0  0  0  0  0  0  0  0  0  0  0
    0.6020    4.8722    2.9723 H   0  0  0  0  0  0  0  0  0  0  0  0
    0.4061    7.1683    3.8942 H   0  0  0  0  0  0  0  0  0  0  0  0
    1.6225    9.0589    2.8132 H   0  0  0  0  0  0  0  0  0  0  0  0
    3.1625    8.5628    1.0238 H   0  0  0  0  0  0  0  0  0  0  0  0
    3.9946    3.0404   -3.5735 H   0  0  0  0  0  0  0  0  0  0  0  0
    2.2648    3.1601   -3.1112 H   0  0  0  0  0  0  0  0  0  0  0  0
    3.2117    1.6896   -2.7885 H   0  0  0  0  0  0  0  0  0  0  0  0
    4.3181   -0.8291    0.0418 H   0  0  0  0  0  0  0  0  0  0  0  0
    4.2546    0.6810    0.9364 H   0  0  0  0  0  0  0  0  0  0  0  0
    4.3231    0.6737   -0.8387 H   0  0  0  0  0  0  0  0  0  0  0  0
    1.6922   -2.7635    0.9220 H   0  0  0  0  0  0  0  0  0  0  0  0
    3.1598   -2.4095    0.0295 H   0  0  0  0  0  0  0  0  0  0  0  0
    0.5257   -3.4195   -1.1716 H   0  0  0  0  0  0  0  0  0  0  0  0
    2.0279   -4.2830   -1.0279 H   0  0  0  0  0  0  0  0  0  0  0  0
    3.1257   -2.7071   -2.5942 H   0  0  0  0  0  0  0  0  0  0  0  0
    1.6546   -1.7326   -2.6831 H   0  0  0  0  0  0  0  0  0  0  0  0
    0.3982   -3.6759   -3.6203 H   0  0  0  0  0  0  0  0  0  0  0  0
    1.8643   -4.6573   -3.5600 H   0  0  0  0  0  0  0  0  0  0  0  0
    1.5245   -2.0622   -5.1580 H   0  0  0  0  0  0  0  0  0  0  0  0
    1.5279   -3.7044   -5.8271 H   0  0  0  0  0  0  0  0  0  0  0  0
    3.0035   -3.0406   -5.0997 H   0  0  0  0  0  0  0  0  0  0  0  0
  1  6  2  0  0  0  0
  1  2  1  0  0  0  0
  1 30  1  0  0  0  0
  2  3  2  0  0  0  0
  2 31  1  0  0  0  0
  3  4  1  0  0  0  0
  3 32  1  0  0  0  0
  4  9  1  0  0  0  0
  4  5  2  0  0  0  0
  5  6  1  0  0  0  0
  5  7  1  0  0  0  0
  6 33  1  0  0  0  0
  7  8  1  0  0  0  0
  7 25  1  0  0  0  0
  8  9  2  0  0  0  0
  8 24  1  0  0  0  0
  9 10  1  0  0  0  0
 10 11  2  0  0  0  0
 10 12  1  0  0  0  0
 12 17  2  0  0  0  0
 12 13  1  0  0  0  0
 13 14  2  0  0  0  0
 13 22  1  0  0  0  0
 14 15  1  0  0  0  0
 14 34  1  0  0  0  0
 15 16  2  0  0  0  0
 15 35  1  0  0  0  0
 16 21  1  0  0  0  0
 16 17  1  0  0  0  0
 17 18  1  0  0  0  0
 18 19  2  0  0  0  0
 18 36  1  0  0  0  0
 19 20  1  0  0  0  0
 19 37  1  0  0  0  0
 20 21  2  0  0  0  0
 20 38  1  0  0  0  0
 21 39  1  0  0  0  0
 22 23  1  0  0  0  0
 23 40  1  0  0  0  0
 23 41  1  0  0  0  0
 23 42  1  0  0  0  0
 24 43  1  0  0  0  0
 24 44  1  0  0  0  0
 24 45  1  0  0  0  0
 25 26  1  0  0  0  0
 25 46  1  0  0  0  0
 25 47  1  0  0  0  0
 26 27  1  0  0  0  0
 26 48  1  0  0  0  0
 26 49  1  0  0  0  0
 27 28  1  0  0  0  0
 27 50  1  0  0  0  0
 27 51  1  0  0  0  0
 28 29  1  0  0  0  0
 28 52  1  0  0  0  0
 28 53  1  0  0  0  0
 29 54  1  0  0  0  0
 29 55  1  0  0  0  0
 29 56  1  0  0  0  0
M  END
$$$$
CHEMBL232730
 OpenBabel12022418093D

 46 47  0  0  0  0  0  0  0  0999 V2000
    1.8806    0.5357    2.1603 C   0  0  0  0  0  0  0  0  0  0  0  0
    3.1158    0.1475    0.8947 S   0  0  0  0  0  0  0  0  0  0  0  0
    3.6475   -1.4625    1.4235 C   0  0  0  0  0  0  0  0  0  0  0  0
    2.4612   -2.6685    1.5888 S   0  0  0  0  0  0  0  0  0  0  0  0
    5.0563   -1.6828    1.5362 N   0  0  0  0  0  0  0  0  0  0  0  0
    5.5510   -3.0641    1.3422 C   0  0  0  0  0  0  0  0  0  0  0  0
    6.5807   -3.1786    0.2027 C   0  0  0  0  0  0  0  0  0  0  0  0
    5.9983   -2.6670   -1.1317 C   0  0  0  0  0  0  0  0  0  0  0  0
    6.9417   -4.6692   -0.0114 C   0  0  0  0  0  0  0  0  0  0  0  0
    7.8543   -2.4063    0.5632 C   0  0  0  0  0  0  0  0  0  0  0  0
    7.7073   -1.2337    1.9327 S   0  0  0  0  0  0  0  0  0  0  0  0
    6.0199   -0.6924    1.8819 C   0  0  0  0  0  0  0  0  0  0  0  0
    5.6634    0.5093    2.2368 N   0  0  0  0  0  0  0  0  0  0  0  0
    6.5713    1.5611    2.5044 C   0  0  0  0  0  0  0  0  0  0  0  0
    7.4884    1.9297    1.4985 C   0  0  0  0  0  0  0  0  0  0  0  0
    8.4327    2.9382    1.6823 C   0  0  0  0  0  0  0  0  0  0  0  0
    8.4423    3.6575    2.8657 C   0  0  0  0  0  0  0  0  0  0  0  0
    7.4794    3.3862    3.8359 C   0  0  0  0  0  0  0  0  0  0  0  0
    6.5274    2.3454    3.6819 C   0  0  0  0  0  0  0  0  0  0  0  0
    5.4837    2.2630    4.7824 C   0  0  0  0  0  0  0  0  0  0  0  0
    4.3032    3.1915    4.4706 C   0  0  0  0  0  0  0  0  0  0  0  0
    4.9899    0.8715    5.1671 C   0  0  0  0  0  0  0  0  0  0  0  0
    1.7827    1.6207    2.2516 H   0  0  0  0  0  0  0  0  0  0  0  0
    2.1594    0.1353    3.1391 H   0  0  0  0  0  0  0  0  0  0  0  0
    0.9061    0.1319    1.8695 H   0  0  0  0  0  0  0  0  0  0  0  0
    4.7454   -3.7651    1.1173 H   0  0  0  0  0  0  0  0  0  0  0  0
    5.9808   -3.4046    2.2942 H   0  0  0  0  0  0  0  0  0  0  0  0
    5.0928   -3.2232   -1.4059 H   0  0  0  0  0  0  0  0  0  0  0  0
    6.7185   -2.7919   -1.9497 H   0  0  0  0  0  0  0  0  0  0  0  0
    5.7380   -1.6053   -1.0866 H   0  0  0  0  0  0  0  0  0  0  0  0
    6.0606   -5.2586   -0.2919 H   0  0  0  0  0  0  0  0  0  0  0  0
    7.3608   -5.1124    0.8981 H   0  0  0  0  0  0  0  0  0  0  0  0
    7.6841   -4.7843   -0.8107 H   0  0  0  0  0  0  0  0  0  0  0  0
    8.2859   -1.9079   -0.3125 H   0  0  0  0  0  0  0  0  0  0  0  0
    8.6251   -3.1102    0.9018 H   0  0  0  0  0  0  0  0  0  0  0  0
    7.4748    1.4087    0.5433 H   0  0  0  0  0  0  0  0  0  0  0  0
    9.1545    3.1560    0.8981 H   0  0  0  0  0  0  0  0  0  0  0  0
    9.1713    4.4491    3.0170 H   0  0  0  0  0  0  0  0  0  0  0  0
    7.4804    4.0005    4.7389 H   0  0  0  0  0  0  0  0  0  0  0  0
    5.9518    2.6507    5.7006 H   0  0  0  0  0  0  0  0  0  0  0  0
    3.8467    2.9557    3.5034 H   0  0  0  0  0  0  0  0  0  0  0  0
    4.6303    4.2389    4.4331 H   0  0  0  0  0  0  0  0  0  0  0  0
    3.5273    3.1218    5.2414 H   0  0  0  0  0  0  0  0  0  0  0  0
    4.2952    0.4570    4.4336 H   0  0  0  0  0  0  0  0  0  0  0  0
    4.4513    0.9214    6.1225 H   0  0  0  0  0  0  0  0  0  0  0  0
    5.8241    0.1761    5.2998 H   0  0  0  0  0  0  0  0  0  0  0  0
  1  2  1  0  0  0  0
  1 23  1  0  0  0  0
  1 24  1  0  0  0  0
  1 25  1  0  0  0  0
  2  3  1  0  0  0  0
  3  4  2  0  0  0  0
  3  5  1  0  0  0  0
  5 12  1  0  0  0  0
  5  6  1  0  0  0  0
  6  7  1  0  0  0  0
  6 26  1  0  0  0  0
  6 27  1  0  0  0  0
  7  8  1  0  0  0  0
  7  9  1  0  0  0  0
  7 10  1  0  0  0  0
  8 28  1  0  0  0  0
  8 29  1  0  0  0  0
  8 30  1  0  0  0  0
  9 31  1  0  0  0  0
  9 32  1  0  0  0  0
  9 33  1  0  0  0  0
 10 11  1  0  0  0  0
 10 34  1  0  0  0  0
 10 35  1  0  0  0  0
 11 12  1  0  0  0  0
 12 13  2  0  0  0  0
 13 14  1  0  0  0  0
 14 19  2  0  0  0  0
 14 15  1  0  0  0  0
 15 16  2  0  0  0  0
 15 36  1  0  0  0  0
 16 17  1  0  0  0  0
 16 37  1  0  0  0  0
 17 18  2  0  0  0  0
 17 38  1  0  0  0  0
 18 19  1  0  0  0  0
 18 39  1  0  0  0  0
 19 20  1  0  0  0  0
 20 21  1  0  0  0  0
 20 22  1  0  0  0  0
 20 40  1  0  0  0  0
 21 41  1  0  0  0  0
 21 42  1  0  0  0  0
 21 43  1  0  0  0  0
 22 44  1  0  0  0  0
 22 45  1  0  0  0  0
 22 46  1  0  0  0  0
M  END
$$$$
CHEMBL3590632
 OpenBabel12022418093D

 49 50  0  0  0  0  0  0  0  0999 V2000
    1.2855   -3.0459   -0.4747 C   0  0  0  0  0  0  0  0  0  0  0  0
    2.2760   -2.4496    0.5111 C   0  0  0  0  0  0  0  0  0  0  0  0
    3.5353   -1.9462   -0.2026 C   0  0  0  0  0  0  0  0  0  0  0  0
    4.6300   -1.4470    0.7697 C   0  0  0  0  0  0  0  0  0  0  0  0
    5.0196   -2.4427    1.7639 N   0  0  0  0  0  0  0  0  0  0  0  0
    5.3983   -3.6715    1.2020 C   0  0  0  0  0  0  0  0  0  0  0  0
    5.8986   -3.8022    0.0911 O   0  0  0  0  0  0  0  0  0  0  0  0
    4.9030   -4.8263    1.9631 C   0  0  0  0  0  0  0  0  0  0  0  0
    4.1282   -5.6999    1.2975 C   0  0  0  0  0  0  0  0  0  0  0  0
    3.3225   -6.6935    1.8129 N   0  0  0  0  0  0  0  0  0  0  0  0
    2.3888   -7.5622    1.0999 C   0  0  0  0  0  0  0  0  0  0  0  0
    3.1601   -8.4387    0.1092 C   0  0  0  0  0  0  0  0  0  0  0  0
    1.6754   -8.4491    2.1318 C   0  0  0  0  0  0  0  0  0  0  0  0
    1.3312   -6.7273    0.3618 C   0  0  0  0  0  0  0  0  0  0  0  0
    4.9253   -4.7980    3.4239 C   0  0  0  0  0  0  0  0  0  0  0  0
    4.9146   -5.8142    4.1108 O   0  0  0  0  0  0  0  0  0  0  0  0
    4.8906   -3.4425    4.0123 C   0  0  0  0  0  0  0  0  0  0  0  0
    4.7869   -3.3931    5.4118 C   0  0  0  0  0  0  0  0  0  0  0  0
    4.6362   -2.1794    6.0513 C   0  0  0  0  0  0  0  0  0  0  0  0
    4.6139   -1.0186    5.2922 C   0  0  0  0  0  0  0  0  0  0  0  0
    4.7571   -1.0345    3.8801 C   0  0  0  0  0  0  0  0  0  0  0  0
    4.8221    0.3388    3.2635 C   0  0  0  0  0  0  0  0  0  0  0  0
    4.8678   -2.2779    3.1975 C   0  0  0  0  0  0  0  0  0  0  0  0
    0.4158   -3.4460    0.0563 H   0  0  0  0  0  0  0  0  0  0  0  0
    1.7426   -3.8639   -1.0398 H   0  0  0  0  0  0  0  0  0  0  0  0
    0.9380   -2.2921   -1.1871 H   0  0  0  0  0  0  0  0  0  0  0  0
    2.5241   -3.2216    1.2464 H   0  0  0  0  0  0  0  0  0  0  0  0
    1.8047   -1.6293    1.0623 H   0  0  0  0  0  0  0  0  0  0  0  0
    3.2638   -1.1210   -0.8729 H   0  0  0  0  0  0  0  0  0  0  0  0
    3.9272   -2.7380   -0.8502 H   0  0  0  0  0  0  0  0  0  0  0  0
    4.2264   -0.5490    1.2126 H   0  0  0  0  0  0  0  0  0  0  0  0
    5.5234   -1.1665    0.1989 H   0  0  0  0  0  0  0  0  0  0  0  0
    4.0249   -5.5952    0.2173 H   0  0  0  0  0  0  0  0  0  0  0  0
    3.4909   -6.8999    2.8031 H   0  0  0  0  0  0  0  0  0  0  0  0
    3.9310   -9.0255    0.6212 H   0  0  0  0  0  0  0  0  0  0  0  0
    3.6637   -7.8344   -0.6540 H   0  0  0  0  0  0  0  0  0  0  0  0
    2.4909   -9.1335   -0.4093 H   0  0  0  0  0  0  0  0  0  0  0  0
    2.3928   -9.0562    2.6964 H   0  0  0  0  0  0  0  0  0  0  0  0
    0.9655   -9.1298    1.6494 H   0  0  0  0  0  0  0  0  0  0  0  0
    1.1198   -7.8434    2.8574 H   0  0  0  0  0  0  0  0  0  0  0  0
    1.7815   -6.1029   -0.4154 H   0  0  0  0  0  0  0  0  0  0  0  0
    0.7935   -6.0634    1.0492 H   0  0  0  0  0  0  0  0  0  0  0  0
    0.5919   -7.3709   -0.1288 H   0  0  0  0  0  0  0  0  0  0  0  0
    4.8008   -4.3082    6.0014 H   0  0  0  0  0  0  0  0  0  0  0  0
    4.5407   -2.1352    7.1327 H   0  0  0  0  0  0  0  0  0  0  0  0
    4.5063   -0.0713    5.8214 H   0  0  0  0  0  0  0  0  0  0  0  0
    4.9826    1.1149    4.0224 H   0  0  0  0  0  0  0  0  0  0  0  0
    3.8739    0.5913    2.7800 H   0  0  0  0  0  0  0  0  0  0  0  0
    5.6667    0.4196    2.5731 H   0  0  0  0  0  0  0  0  0  0  0  0
  1  2  1  0  0  0  0
  1 24  1  0  0  0  0
  1 25  1  0  0  0  0
  1 26  1  0  0  0  0
  2  3  1  0  0  0  0
  2 27  1  0  0  0  0
  2 28  1  0  0  0  0
  3  4  1  0  0  0  0
  3 29  1  0  0  0  0
  3 30  1  0  0  0  0
  4  5  1  0  0  0  0
  4 31  1  0  0  0  0
  4 32  1  0  0  0  0
  5 23  1  0  0  0  0
  5  6  1  0  0  0  0
  6  7  2  0  0  0  0
  6  8  1  0  0  0  0
  8  9  2  0  0  0  0
  8 15  1  0  0  0  0
  9 10  1  0  0  0  0
  9 33  1  0  0  0  0
 10 11  1  0  0  0  0
 10 34  1  0  0  0  0
 11 12  1  0  0  0  0
 11 13  1  0  0  0  0
 11 14  1  0  0  0  0
 12 35  1  0  0  0  0
 12 36  1  0  0  0  0
 12 37  1  0  0  0  0
 13 38  1  0  0  0  0
 13 39  1  0  0  0  0
 13 40  1  0  0  0  0
 14 41  1  0  0  0  0
 14 42  1  0  0  0  0
 14 43  1  0  0  0  0
 15 16  2  0  0  0  0
 15 17  1  0  0  0  0
 17 23  2  0  0  0  0
 17 18  1  0  0  0  0
 18 19  2  0  0  0  0
 18 44  1  0  0  0  0
 19 20  1  0  0  0  0
 19 45  1  0  0  0  0
 20 21  2  0  0  0  0
 20 46  1  0  0  0  0
 21 22  1  0  0  0  0
 21 23  1  0  0  0  0
 22 47  1  0  0  0  0
 22 48  1  0  0  0  0
 22 49  1  0  0  0  0
M  END
$$$$
CHEMBL408430
 OpenBabel12022418093D

 51 54  0  0  1  0  0  0  0  0999 V2000
    0.0437   -0.9333   -5.1867 C   0  0  0  0  0  0  0  0  0  0  0  0
    0.8932   -1.3324   -4.0798 N   0  0  0  0  0  0  0  0  0  0  0  0
    1.0646   -2.7670   -3.8900 C   0  0  0  0  0  0  0  0  0  0  0  0
    2.3313   -3.0211   -3.0695 C   0  0  0  0  0  0  0  0  0  0  0  0
    2.3794   -2.1942   -1.7847 C   0  0  0  0  0  0  0  0  0  0  0  0
    1.9908   -0.7314   -2.0333 C   0  0  0  0  0  0  0  0  0  0  0  0
    0.6684   -0.5875   -2.8293 C   0  0  2  0  0  0  0  0  0  0  0  0
   -0.5318   -0.9919   -1.9239 C   0  0  0  0  0  0  0  0  0  0  0  0
   -1.8712   -0.9521   -2.4979 N   0  0  0  0  0  0  0  0  0  0  0  0
   -2.4790   -2.0407   -3.0787 C   0  0  0  0  0  0  0  0  0  0  0  0
   -3.8402   -1.8128   -3.1718 C   0  0  0  0  0  0  0  0  0  0  0  0
   -4.8635   -2.7577   -3.6391 C   0  0  0  0  0  0  0  0  0  0  0  0
   -5.9645   -2.3872   -4.0291 O   0  0  0  0  0  0  0  0  0  0  0  0
   -4.5741   -4.2214   -3.5352 C   0  0  0  0  0  0  0  0  0  0  0  0
   -3.9163   -4.6554   -2.3674 C   0  0  0  0  0  0  0  0  0  0  0  0
   -3.5141   -5.9869   -2.2306 C   0  0  0  0  0  0  0  0  0  0  0  0
   -3.8519   -6.9280   -3.2062 C   0  0  0  0  0  0  0  0  0  0  0  0
   -4.5756   -6.5187   -4.3300 C   0  0  0  0  0  0  0  0  0  0  0  0
   -4.9264   -5.1667   -4.5096 C   0  0  0  0  0  0  0  0  0  0  0  0
   -5.9079   -4.7161   -6.3110 I   0  0  0  0  0  0  0  0  0  0  0  0
   -2.6791   -6.3666   -1.0871 N   0  3  0  0  0  0  0  0  0  0  0  0
   -2.2925   -5.4620   -0.3331 O   0  0  0  0  0  0  0  0  0  0  0  0
   -2.3839   -7.5618   -0.9636 O   0  5  0  0  0  0  0  0  0  0  0  0
   -4.0520   -0.4916   -2.6676 C   0  0  0  0  0  0  0  0  0  0  0  0
   -5.2122    0.2790   -2.4439 C   0  0  0  0  0  0  0  0  0  0  0  0
   -5.0997    1.5627   -1.9076 C   0  0  0  0  0  0  0  0  0  0  0  0
   -3.8482    2.0997   -1.6257 C   0  0  0  0  0  0  0  0  0  0  0  0
   -2.6802    1.3560   -1.8264 C   0  0  0  0  0  0  0  0  0  0  0  0
   -2.8063    0.0460   -2.3146 C   0  0  0  0  0  0  0  0  0  0  0  0
    0.3406    0.0661   -5.5248 H   0  0  0  0  0  0  0  0  0  0  0  0
   -1.0181   -0.8949   -4.9485 H   0  0  0  0  0  0  0  0  0  0  0  0
    0.1657   -1.5984   -6.0477 H   0  0  0  0  0  0  0  0  0  0  0  0
    1.1780   -3.2781   -4.8531 H   0  0  0  0  0  0  0  0  0  0  0  0
    0.2080   -3.2290   -3.3930 H   0  0  0  0  0  0  0  0  0  0  0  0
    3.2077   -2.7770   -3.6835 H   0  0  0  0  0  0  0  0  0  0  0  0
    2.4063   -4.0873   -2.8249 H   0  0  0  0  0  0  0  0  0  0  0  0
    3.3884   -2.2419   -1.3581 H   0  0  0  0  0  0  0  0  0  0  0  0
    1.7085   -2.6365   -1.0397 H   0  0  0  0  0  0  0  0  0  0  0  0
    2.8010   -0.2493   -2.5984 H   0  0  0  0  0  0  0  0  0  0  0  0
    1.9261   -0.2003   -1.0764 H   0  0  0  0  0  0  0  0  0  0  0  0
    0.5585    0.4782   -3.0706 H   0  0  0  0  0  0  0  0  0  0  0  0
   -0.5466   -0.3396   -1.0408 H   0  0  0  0  0  0  0  0  0  0  0  0
   -0.4063   -2.0066   -1.5271 H   0  0  0  0  0  0  0  0  0  0  0  0
   -1.8966   -2.9130   -3.3357 H   0  0  0  0  0  0  0  0  0  0  0  0
   -3.6844   -3.9423   -1.5807 H   0  0  0  0  0  0  0  0  0  0  0  0
   -3.5586   -7.9733   -3.1118 H   0  0  0  0  0  0  0  0  0  0  0  0
   -4.8439   -7.2667   -5.0758 H   0  0  0  0  0  0  0  0  0  0  0  0
   -6.1928   -0.1323   -2.6724 H   0  0  0  0  0  0  0  0  0  0  0  0
   -5.9996    2.1409   -1.7151 H   0  0  0  0  0  0  0  0  0  0  0  0
   -3.7779    3.1100   -1.2301 H   0  0  0  0  0  0  0  0  0  0  0  0
   -1.7114    1.7870   -1.5968 H   0  0  0  0  0  0  0  0  0  0  0  0
  1  2  1  0  0  0  0
  1 30  1  0  0  0  0
  1 31  1  0  0  0  0
  1 32  1  0  0  0  0
  2  7  1  0  0  0  0
  2  3  1  0  0  0  0
  3  4  1  0  0  0  0
  3 33  1  0  0  0  0
  3 34  1  0  0  0  0
  4  5  1  0  0  0  0
  4 35  1  0  0  0  0
  4 36  1  0  0  0  0
  5  6  1  0  0  0  0
  5 37  1  0  0  0  0
  5 38  1  0  0  0  0
  6  7  1  0  0  0  0
  6 39  1  0  0  0  0
  6 40  1  0  0  0  0
  7  8  1  0  0  0  0
  7 41  1  6  0  0  0
  8  9  1  0  0  0  0
  8 42  1  0  0  0  0
  8 43  1  0  0  0  0
  9 29  1  0  0  0  0
  9 10  1  0  0  0  0
 10 11  2  0  0  0  0
 10 44  1  0  0  0  0
 11 12  1  0  0  0  0
 11 24  1  0  0  0  0
 12 13  2  0  0  0  0
 12 14  1  0  0  0  0
 14 19  2  0  0  0  0
 14 15  1  0  0  0  0
 15 16  2  0  0  0  0
 15 45  1  0  0  0  0
 16 17  1  0  0  0  0
 16 21  1  0  0  0  0
 17 18  2  0  0  0  0
 17 46  1  0  0  0  0
 18 19  1  0  0  0  0
 18 47  1  0  0  0  0
 19 20  1  0  0  0  0
 21 22  2  0  0  0  0
 21 23  1  0  0  0  0
 24 29  2  0  0  0  0
 24 25  1  0  0  0  0
 25 26  2  0  0  0  0
 25 48  1  0  0  0  0
 26 27  1  0  0  0  0
 26 49  1  0  0  0  0
 27 28  2  0  0  0  0
 27 50  1  0  0  0  0
 28 29  1  0  0  0  0
 28 51  1  0  0  0  0
M  CHG  2  21   1  23  -1
M  END
$$$$
CHEMBL408964
 OpenBabel12022418093D

 58 61  0  0  0  0  0  0  0  0999 V2000
    0.8456    0.5672   -0.2888 C   0  0  0  0  0  0  0  0  0  0  0  0
    2.2304    0.2986   -0.0487 O   0  0  0  0  0  0  0  0  0  0  0  0
    2.8138   -0.5519   -0.9650 C   0  0  0  0  0  0  0  0  0  0  0  0
    2.3990   -0.5502   -2.3092 C   0  0  0  0  0  0  0  0  0  0  0  0
    2.9897   -1.3773   -3.2505 C   0  0  0  0  0  0  0  0  0  0  0  0
    4.0388   -2.2181   -2.8943 C   0  0  0  0  0  0  0  0  0  0  0  0
    4.5031   -2.1899   -1.5682 C   0  0  0  0  0  0  0  0  0  0  0  0
    3.9121   -1.3775   -0.5760 C   0  0  0  0  0  0  0  0  0  0  0  0
    4.6497   -1.6250    0.6425 C   0  0  0  0  0  0  0  0  0  0  0  0
    4.4878   -1.2161    2.0367 C   0  0  0  0  0  0  0  0  0  0  0  0
    5.4329   -1.2437    2.8154 O   0  0  0  0  0  0  0  0  0  0  0  0
    3.1011   -0.8862    2.5122 C   0  0  0  0  0  0  0  0  0  0  0  0
    2.5833   -1.0839    3.9437 C   0  0  0  0  0  0  0  0  0  0  0  0
    1.1296   -1.4907    4.1239 C   0  0  0  0  0  0  0  0  0  0  0  0
    3.4766   -1.7529    4.9674 C   0  0  0  0  0  0  0  0  0  0  0  0
    2.8704    0.3360    3.3974 C   0  0  0  0  0  0  0  0  0  0  0  0
    4.0535    1.1487    3.8808 C   0  0  0  0  0  0  0  0  0  0  0  0
    1.7249    1.2496    3.0265 C   0  0  0  0  0  0  0  0  0  0  0  0
    5.7417   -2.3970    0.2826 C   0  0  0  0  0  0  0  0  0  0  0  0
    5.5392   -2.8786   -0.9741 N   0  0  0  0  0  0  0  0  0  0  0  0
    6.3410   -3.9479   -1.5511 C   0  0  0  0  0  0  0  0  0  0  0  0
    6.3890   -5.2362   -0.6914 C   0  0  0  0  0  0  0  0  0  0  0  0
    7.4291   -6.2007   -1.2830 C   0  0  0  0  0  0  0  0  0  0  0  0
    7.2547   -7.6381   -0.8191 C   0  0  0  0  0  0  0  0  0  0  0  0
    5.9076   -8.0588   -1.0030 O   0  0  0  0  0  0  0  0  0  0  0  0
    5.0231   -7.3313   -0.1570 C   0  0  0  0  0  0  0  0  0  0  0  0
    4.9899   -5.8642   -0.5579 C   0  0  0  0  0  0  0  0  0  0  0  0
    0.4112    1.0089    0.6091 H   0  0  0  0  0  0  0  0  0  0  0  0
    0.2868   -0.3510   -0.5074 H   0  0  0  0  0  0  0  0  0  0  0  0
    0.7248    1.3070   -1.0880 H   0  0  0  0  0  0  0  0  0  0  0  0
    1.6164    0.1196   -2.6529 H   0  0  0  0  0  0  0  0  0  0  0  0
    2.6388   -1.3516   -4.2796 H   0  0  0  0  0  0  0  0  0  0  0  0
    4.5016   -2.8478   -3.6473 H   0  0  0  0  0  0  0  0  0  0  0  0
    2.3460   -1.1546    1.7820 H   0  0  0  0  0  0  0  0  0  0  0  0
    1.0406   -2.5739    4.2564 H   0  0  0  0  0  0  0  0  0  0  0  0
    0.4987   -1.2338    3.2685 H   0  0  0  0  0  0  0  0  0  0  0  0
    0.7171   -0.9993    5.0121 H   0  0  0  0  0  0  0  0  0  0  0  0
    2.8801   -2.3485    5.6705 H   0  0  0  0  0  0  0  0  0  0  0  0
    4.0362   -1.0321    5.5665 H   0  0  0  0  0  0  0  0  0  0  0  0
    4.1676   -2.4615    4.5021 H   0  0  0  0  0  0  0  0  0  0  0  0
    4.9329    0.5642    4.1505 H   0  0  0  0  0  0  0  0  0  0  0  0
    3.7705    1.7274    4.7658 H   0  0  0  0  0  0  0  0  0  0  0  0
    4.3545    1.8569    3.0989 H   0  0  0  0  0  0  0  0  0  0  0  0
    0.8531    0.7134    2.6536 H   0  0  0  0  0  0  0  0  0  0  0  0
    2.0409    1.9489    2.2441 H   0  0  0  0  0  0  0  0  0  0  0  0
    1.4040    1.8324    3.8952 H   0  0  0  0  0  0  0  0  0  0  0  0
    6.5872   -2.7194    0.8793 H   0  0  0  0  0  0  0  0  0  0  0  0
    7.3478   -3.5343   -1.6914 H   0  0  0  0  0  0  0  0  0  0  0  0
    5.9426   -4.1825   -2.5438 H   0  0  0  0  0  0  0  0  0  0  0  0
    6.7297   -4.9900    0.3235 H   0  0  0  0  0  0  0  0  0  0  0  0
    8.4382   -5.8562   -1.0233 H   0  0  0  0  0  0  0  0  0  0  0  0
    7.3582   -6.1802   -2.3767 H   0  0  0  0  0  0  0  0  0  0  0  0
    7.5432   -7.7668    0.2306 H   0  0  0  0  0  0  0  0  0  0  0  0
    7.8947   -8.2957   -1.4166 H   0  0  0  0  0  0  0  0  0  0  0  0
    5.3219   -7.4615    0.8897 H   0  0  0  0  0  0  0  0  0  0  0  0
    4.0237   -7.7652   -0.2670 H   0  0  0  0  0  0  0  0  0  0  0  0
    4.4641   -5.7817   -1.5163 H   0  0  0  0  0  0  0  0  0  0  0  0
    4.3977   -5.3071    0.1791 H   0  0  0  0  0  0  0  0  0  0  0  0
  1  2  1  0  0  0  0
  1 28  1  0  0  0  0
  1 29  1  0  0  0  0
  1 30  1  0  0  0  0
  2  3  1  0  0  0  0
  3  8  2  0  0  0  0
  3  4  1  0  0  0  0
  4  5  2  0  0  0  0
  4 31  1  0  0  0  0
  5  6  1  0  0  0  0
  5 32  1  0  0  0  0
  6  7  2  0  0  0  0
  6 33  1  0  0  0  0
  7 20  1  0  0  0  0
  7  8  1  0  0  0  0
  8  9  1  0  0  0  0
  9 10  1  0  0  0  0
  9 19  2  0  0  0  0
 10 11  2  0  0  0  0
 10 12  1  0  0  0  0
 12 16  1  0  0  0  0
 12 13  1  0  0  0  0
 12 34  1  0  0  0  0
 13 14  1  0  0  0  0
 13 15  1  0  0  0  0
 13 16  1  0  0  0  0
 14 35  1  0  0  0  0
 14 36  1  0  0  0  0
 14 37  1  0  0  0  0
 15 38  1  0  0  0  0
 15 39  1  0  0  0  0
 15 40  1  0  0  0  0
 16 17  1  0  0  0  0
 16 18  1  0  0  0  0
 17 41  1  0  0  0  0
 17 42  1  0  0  0  0
 17 43  1  0  0  0  0
 18 44  1  0  0  0  0
 18 45  1  0  0  0  0
 18 46  1  0  0  0  0
 19 20  1  0  0  0  0
 19 47  1  0  0  0  0
 20 21  1  0  0  0  0
 21 22  1  0  0  0  0
 21 48  1  0  0  0  0
 21 49  1  0  0  0  0
 22 27  1  0  0  0  0
 22 23  1  0  0  0  0
 22 50  1  0  0  0  0
 23 24  1  0  0  0  0
 23 51  1  0  0  0  0
 23 52  1  0  0  0  0
 24 25  1  0  0  0  0
 24 53  1  0  0  0  0
 24 54  1  0  0  0  0
 25 26  1  0  0  0  0
 26 27  1  0  0  0  0
 26 55  1  0  0  0  0
 26 56  1  0  0  0  0
 27 57  1  0  0  0  0
 27 58  1  0  0  0  0
M  END
$$$$
CHEMBL410842
 OpenBabel12022418093D

 68 72  0  0  0  0  0  0  0  0999 V2000
    0.9226    0.3860   -4.0193 C   0  0  0  0  0  0  0  0  0  0  0  0
    0.4535    0.2422   -2.5848 C   0  0  0  0  0  0  0  0  0  0  0  0
   -1.0434    0.0357   -2.4860 C   0  0  0  0  0  0  0  0  0  0  0  0
    1.3004   -0.5621   -1.6034 C   0  0  0  0  0  0  0  0  0  0  0  0
    2.4911   -1.3288   -2.0863 C   0  0  0  0  0  0  0  0  0  0  0  0
    3.4036   -0.7811   -2.6855 O   0  0  0  0  0  0  0  0  0  0  0  0
    2.4163   -2.7908   -1.9946 C   0  0  0  0  0  0  0  0  0  0  0  0
    2.8831   -3.5751   -3.0381 C   0  0  0  0  0  0  0  0  0  0  0  0
    2.6982   -4.8935   -2.7284 N   0  0  0  0  0  0  0  0  0  0  0  0
    3.1213   -5.9994   -3.5846 C   0  0  0  0  0  0  0  0  0  0  0  0
    2.0173   -6.5582   -4.5080 C   0  0  0  0  0  0  0  0  0  0  0  0
    2.5142   -7.8498   -5.1861 C   0  0  0  0  0  0  0  0  0  0  0  0
    1.7465   -8.2189   -6.4463 C   0  0  0  0  0  0  0  0  0  0  0  0
    1.6525   -7.1003   -7.3203 O   0  0  0  0  0  0  0  0  0  0  0  0
    0.8621   -6.0670   -6.7438 C   0  0  0  0  0  0  0  0  0  0  0  0
    1.5494   -5.4922   -5.5153 C   0  0  0  0  0  0  0  0  0  0  0  0
    2.1485   -4.9984   -1.4689 C   0  0  0  0  0  0  0  0  0  0  0  0
    1.8343   -6.1503   -0.7276 C   0  0  0  0  0  0  0  0  0  0  0  0
    1.2821   -6.0002    0.5394 C   0  0  0  0  0  0  0  0  0  0  0  0
    1.0659   -4.7382    1.0728 C   0  0  0  0  0  0  0  0  0  0  0  0
    1.3824   -3.5723    0.3518 C   0  0  0  0  0  0  0  0  0  0  0  0
    1.9398   -3.6983   -0.9688 C   0  0  0  0  0  0  0  0  0  0  0  0
    1.2484   -2.3340    0.9487 O   0  0  0  0  0  0  0  0  0  0  0  0
    0.1296   -2.1594    1.8430 C   0  0  0  0  0  0  0  0  0  0  0  0
    0.4648   -2.2818    3.3195 C   0  0  0  0  0  0  0  0  0  0  0  0
   -0.5419   -2.6045    4.2489 C   0  0  0  0  0  0  0  0  0  0  0  0
   -0.2997   -2.5173    5.6225 C   0  0  0  0  0  0  0  0  0  0  0  0
    0.9441   -2.0965    6.0862 C   0  0  0  0  0  0  0  0  0  0  0  0
    1.9678   -1.8352    5.1772 C   0  0  0  0  0  0  0  0  0  0  0  0
    1.7339   -1.9410    3.8038 C   0  0  0  0  0  0  0  0  0  0  0  0
    1.1983    0.9579   -1.4432 C   0  0  0  0  0  0  0  0  0  0  0  0
    2.3459    1.8912   -1.7630 C   0  0  0  0  0  0  0  0  0  0  0  0
    0.3791    1.4958   -0.2840 C   0  0  0  0  0  0  0  0  0  0  0  0
    0.2598    1.0735   -4.5672 H   0  0  0  0  0  0  0  0  0  0  0  0
    0.8935   -0.5862   -4.5235 H   0  0  0  0  0  0  0  0  0  0  0  0
    1.9336    0.7755   -4.1225 H   0  0  0  0  0  0  0  0  0  0  0  0
   -1.5712    0.9213   -2.8563 H   0  0  0  0  0  0  0  0  0  0  0  0
   -1.3844   -0.1536   -1.4673 H   0  0  0  0  0  0  0  0  0  0  0  0
   -1.3476   -0.8331   -3.0824 H   0  0  0  0  0  0  0  0  0  0  0  0
    0.7053   -1.1345   -0.9053 H   0  0  0  0  0  0  0  0  0  0  0  0
    3.3275   -3.2716   -3.9775 H   0  0  0  0  0  0  0  0  0  0  0  0
    3.5118   -6.7873   -2.9199 H   0  0  0  0  0  0  0  0  0  0  0  0
    3.9795   -5.6476   -4.1716 H   0  0  0  0  0  0  0  0  0  0  0  0
    1.1467   -6.8287   -3.8950 H   0  0  0  0  0  0  0  0  0  0  0  0
    2.4568   -8.6841   -4.4749 H   0  0  0  0  0  0  0  0  0  0  0  0
    3.5732   -7.7392   -5.4522 H   0  0  0  0  0  0  0  0  0  0  0  0
    0.7421   -8.5943   -6.2169 H   0  0  0  0  0  0  0  0  0  0  0  0
    2.2743   -9.0161   -6.9820 H   0  0  0  0  0  0  0  0  0  0  0  0
   -0.1364   -6.4531   -6.5077 H   0  0  0  0  0  0  0  0  0  0  0  0
    0.7371   -5.2820   -7.4967 H   0  0  0  0  0  0  0  0  0  0  0  0
    2.4113   -4.9053   -5.8519 H   0  0  0  0  0  0  0  0  0  0  0  0
    0.8614   -4.7954   -5.0199 H   0  0  0  0  0  0  0  0  0  0  0  0
    2.0252   -7.1467   -1.1163 H   0  0  0  0  0  0  0  0  0  0  0  0
    1.0380   -6.8794    1.1335 H   0  0  0  0  0  0  0  0  0  0  0  0
    0.6702   -4.6826    2.0820 H   0  0  0  0  0  0  0  0  0  0  0  0
   -0.7212   -2.7930    1.5594 H   0  0  0  0  0  0  0  0  0  0  0  0
   -0.2112   -1.1255    1.7031 H   0  0  0  0  0  0  0  0  0  0  0  0
   -1.5336   -2.8989    3.9116 H   0  0  0  0  0  0  0  0  0  0  0  0
   -1.0892   -2.7509    6.3351 H   0  0  0  0  0  0  0  0  0  0  0  0
    1.1164   -1.9669    7.1518 H   0  0  0  0  0  0  0  0  0  0  0  0
    2.9451   -1.5234    5.5363 H   0  0  0  0  0  0  0  0  0  0  0  0
    2.5438   -1.7251    3.1100 H   0  0  0  0  0  0  0  0  0  0  0  0
    3.0555    1.5216   -2.5021 H   0  0  0  0  0  0  0  0  0  0  0  0
    2.9195    2.1136   -0.8564 H   0  0  0  0  0  0  0  0  0  0  0  0
    1.9427    2.8367   -2.1438 H   0  0  0  0  0  0  0  0  0  0  0  0
   -0.3349    0.7694    0.1127 H   0  0  0  0  0  0  0  0  0  0  0  0
   -0.1794    2.3801   -0.6091 H   0  0  0  0  0  0  0  0  0  0  0  0
    1.0265    1.7857    0.5506 H   0  0  0  0  0  0  0  0  0  0  0  0
  1  2  1  0  0  0  0
  1 34  1  0  0  0  0
  1 35  1  0  0  0  0
  1 36  1  0  0  0  0
  2 31  1  0  0  0  0
  2  3  1  0  0  0  0
  2  4  1  0  0  0  0
  3 37  1  0  0  0  0
  3 38  1  0  0  0  0
  3 39  1  0  0  0  0
  4  5  1  0  0  0  0
  4 31  1  0  0  0  0
  4 40  1  0  0  0  0
  5  6  2  0  0  0  0
  5  7  1  0  0  0  0
  7 22  1  0  0  0  0
  7  8  2  0  0  0  0
  8  9  1  0  0  0  0
  8 41  1  0  0  0  0
  9 10  1  0  0  0  0
  9 17  1  0  0  0  0
 10 11  1  0  0  0  0
 10 42  1  0  0  0  0
 10 43  1  0  0  0  0
 11 16  1  0  0  0  0
 11 12  1  0  0  0  0
 11 44  1  0  0  0  0
 12 13  1  0  0  0  0
 12 45  1  0  0  0  0
 12 46  1  0  0  0  0
 13 14  1  0  0  0  0
 13 47  1  0  0  0  0
 13 48  1  0  0  0  0
 14 15  1  0  0  0  0
 15 16  1  0  0  0  0
 15 49  1  0  0  0  0
 15 50  1  0  0  0  0
 16 51  1  0  0  0  0
 16 52  1  0  0  0  0
 17 22  2  0  0  0  0
 17 18  1  0  0  0  0
 18 19  2  0  0  0  0
 18 53  1  0  0  0  0
 19 20  1  0  0  0  0
 19 54  1  0  0  0  0
 20 21  2  0  0  0  0
 20 55  1  0  0  0  0
 21 22  1  0  0  0  0
 21 23  1  0  0  0  0
 23 24  1  0  0  0  0
 24 25  1  0  0  0  0
 24 56  1  0  0  0  0
 24 57  1  0  0  0  0
 25 30  2  0  0  0  0
 25 26  1  0  0  0  0
 26 27  2  0  0  0  0
 26 58  1  0  0  0  0
 27 28  1  0  0  0  0
 27 59  1  0  0  0  0
 28 29  2  0  0  0  0
 28 60  1  0  0  0  0
 29 30  1  0  0  0  0
 29 61  1  0  0  0  0
 30 62  1  0  0  0  0
 31 32  1  0  0  0  0
 31 33  1  0  0  0  0
 32 63  1  0  0  0  0
 32 64  1  0  0  0  0
 32 65  1  0  0  0  0
 33 66  1  0  0  0  0
 33 67  1  0  0  0  0
 33 68  1  0  0  0  0
M  END
$$$$
CHEMBL271814
 OpenBabel12022418093D

 58 61  0  0  0  0  0  0  0  0999 V2000
    2.8707    1.8268   -2.0851 C   0  0  0  0  0  0  0  0  0  0  0  0
    3.7465    0.9296   -2.9396 C   0  0  0  0  0  0  0  0  0  0  0  0
    5.1891    1.4012   -2.9127 C   0  0  0  0  0  0  0  0  0  0  0  0
    3.5146   -0.5871   -2.9234 C   0  0  0  0  0  0  0  0  0  0  0  0
    2.4683   -1.2668   -2.0787 C   0  0  0  0  0  0  0  0  0  0  0  0
    1.7251   -0.6372   -1.3355 O   0  0  0  0  0  0  0  0  0  0  0  0
    2.4429   -2.7329   -2.1606 C   0  0  0  0  0  0  0  0  0  0  0  0
    2.8547   -3.4834   -3.2468 C   0  0  0  0  0  0  0  0  0  0  0  0
    2.7030   -4.8105   -2.9474 N   0  0  0  0  0  0  0  0  0  0  0  0
    3.1710   -5.9010   -3.7866 C   0  0  0  0  0  0  0  0  0  0  0  0
    2.0666   -6.5348   -4.6504 C   0  0  0  0  0  0  0  0  0  0  0  0
    2.5947   -7.6211   -5.4978 N   0  0  0  0  0  0  0  0  0  0  0  0
    1.6453   -8.0234   -6.5602 C   0  0  0  0  0  0  0  0  0  0  0  0
    0.5175   -8.9641   -6.1003 C   0  0  0  0  0  0  0  0  0  0  0  0
    1.0370  -10.1215   -5.4365 O   0  0  0  0  0  0  0  0  0  0  0  0
    1.8346   -9.7367   -4.3135 C   0  0  0  0  0  0  0  0  0  0  0  0
    2.9987   -8.8310   -4.7463 C   0  0  0  0  0  0  0  0  0  0  0  0
    2.1611   -4.9561   -1.6877 C   0  0  0  0  0  0  0  0  0  0  0  0
    1.8380   -6.1219   -0.9730 C   0  0  0  0  0  0  0  0  0  0  0  0
    1.3603   -5.9881    0.3275 C   0  0  0  0  0  0  0  0  0  0  0  0
    1.2143   -4.7294    0.8969 C   0  0  0  0  0  0  0  0  0  0  0  0
    1.5083   -3.5530    0.1804 C   0  0  0  0  0  0  0  0  0  0  0  0
    2.0005   -3.6695   -1.1509 C   0  0  0  0  0  0  0  0  0  0  0  0
    1.3856   -2.3252    0.8604 N   0  0  0  0  0  0  0  0  0  0  0  0
    3.1892    0.2083   -4.1869 C   0  0  0  0  0  0  0  0  0  0  0  0
    1.7598    0.4543   -4.6134 C   0  0  0  0  0  0  0  0  0  0  0  0
    4.0876   -0.0245   -5.3885 C   0  0  0  0  0  0  0  0  0  0  0  0
    3.1271    2.8800   -2.2431 H   0  0  0  0  0  0  0  0  0  0  0  0
    3.0366    1.6058   -1.0247 H   0  0  0  0  0  0  0  0  0  0  0  0
    1.8025    1.7343   -2.2865 H   0  0  0  0  0  0  0  0  0  0  0  0
    5.2420    2.4806   -3.0933 H   0  0  0  0  0  0  0  0  0  0  0  0
    5.8244    0.9215   -3.6598 H   0  0  0  0  0  0  0  0  0  0  0  0
    5.6288    1.1984   -1.9303 H   0  0  0  0  0  0  0  0  0  0  0  0
    4.4318   -1.1733   -2.9475 H   0  0  0  0  0  0  0  0  0  0  0  0
    3.2621   -3.1751   -4.2014 H   0  0  0  0  0  0  0  0  0  0  0  0
    3.6315   -6.6275   -3.1092 H   0  0  0  0  0  0  0  0  0  0  0  0
    3.9738   -5.5058   -4.4189 H   0  0  0  0  0  0  0  0  0  0  0  0
    1.6734   -5.7398   -5.2973 H   0  0  0  0  0  0  0  0  0  0  0  0
    1.2263   -6.8720   -4.0326 H   0  0  0  0  0  0  0  0  0  0  0  0
    2.2326   -8.5492   -7.3244 H   0  0  0  0  0  0  0  0  0  0  0  0
    1.2203   -7.1449   -7.0594 H   0  0  0  0  0  0  0  0  0  0  0  0
   -0.0430   -9.3163   -6.9727 H   0  0  0  0  0  0  0  0  0  0  0  0
   -0.1884   -8.4548   -5.4352 H   0  0  0  0  0  0  0  0  0  0  0  0
    2.2331  -10.6527   -3.8647 H   0  0  0  0  0  0  0  0  0  0  0  0
    1.1976   -9.2526   -3.5646 H   0  0  0  0  0  0  0  0  0  0  0  0
    3.6115   -8.5829   -3.8749 H   0  0  0  0  0  0  0  0  0  0  0  0
    3.6530   -9.4098   -5.4092 H   0  0  0  0  0  0  0  0  0  0  0  0
    1.9709   -7.1095   -1.4027 H   0  0  0  0  0  0  0  0  0  0  0  0
    1.1190   -6.8737    0.9099 H   0  0  0  0  0  0  0  0  0  0  0  0
    0.8712   -4.6554    1.9267 H   0  0  0  0  0  0  0  0  0  0  0  0
    0.5044   -2.2427    1.3552 H   0  0  0  0  0  0  0  0  0  0  0  0
    1.5250   -1.5217    0.2395 H   0  0  0  0  0  0  0  0  0  0  0  0
    1.0487    0.4938   -3.7867 H   0  0  0  0  0  0  0  0  0  0  0  0
    1.4215   -0.3420   -5.2852 H   0  0  0  0  0  0  0  0  0  0  0  0
    1.6987    1.4019   -5.1618 H   0  0  0  0  0  0  0  0  0  0  0  0
    5.0706   -0.4212   -5.1176 H   0  0  0  0  0  0  0  0  0  0  0  0
    4.2318    0.9106   -5.9401 H   0  0  0  0  0  0  0  0  0  0  0  0
    3.6359   -0.7556   -6.0682 H   0  0  0  0  0  0  0  0  0  0  0  0
  1  2  1  0  0  0  0
  1 28  1  0  0  0  0
  1 29  1  0  0  0  0
  1 30  1  0  0  0  0
  2 25  1  0  0  0  0
  2  3  1  0  0  0  0
  2  4  1  0  0  0  0
  3 31  1  0  0  0  0
  3 32  1  0  0  0  0
  3 33  1  0  0  0  0
  4  5  1  0  0  0  0
  4 25  1  0  0  0  0
  4 34  1  0  0  0  0
  5  6  2  0  0  0  0
  5  7  1  0  0  0  0
  7 23  1  0  0  0  0
  7  8  2  0  0  0  0
  8  9  1  0  0  0  0
  8 35  1  0  0  0  0
  9 10  1  0  0  0  0
  9 18  1  0  0  0  0
 10 11  1  0  0  0  0
 10 36  1  0  0  0  0
 10 37  1  0  0  0  0
 11 12  1  0  0  0  0
 11 38  1  0  0  0  0
 11 39  1  0  0  0  0
 12 17  1  0  0  0  0
 12 13  1  0  0  0  0
 13 14  1  0  0  0  0
 13 40  1  0  0  0  0
 13 41  1  0  0  0  0
 14 15  1  0  0  0  0
 14 42  1  0  0  0  0
 14 43  1  0  0  0  0
 15 16  1  0  0  0  0
 16 17  1  0  0  0  0
 16 44  1  0  0  0  0
 16 45  1  0  0  0  0
 17 46  1  0  0  0  0
 17 47  1  0  0  0  0
 18 23  2  0  0  0  0
 18 19  1  0  0  0  0
 19 20  2  0  0  0  0
 19 48  1  0  0  0  0
 20 21  1  0  0  0  0
 20 49  1  0  0  0  0
 21 22  2  0  0  0  0
 21 50  1  0  0  0  0
 22 23  1  0  0  0  0
 22 24  1  0  0  0  0
 24 51  1  0  0  0  0
 24 52  1  0  0  0  0
 25 26  1  0  0  0  0
 25 27  1  0  0  0  0
 26 53  1  0  0  0  0
 26 54  1  0  0  0  0
 26 55  1  0  0  0  0
 27 56  1  0  0  0  0
 27 57  1  0  0  0  0
 27 58  1  0  0  0  0
M  END
$$$$
CHEMBL3639461
 OpenBabel12022418093D

 56 58  0  0  0  0  0  0  0  0999 V2000
   -1.3842   -1.1609   -2.8901 C   0  0  0  0  0  0  0  0  0  0  0  0
   -1.0529   -2.2218   -3.9303 C   0  0  0  0  0  0  0  0  0  0  0  0
    0.3684   -2.0539   -4.4813 C   0  0  0  0  0  0  0  0  0  0  0  0
    0.7108   -3.1276   -5.5223 C   0  0  0  0  0  0  0  0  0  0  0  0
    2.0586   -2.9366   -6.0680 N   0  0  0  0  0  0  0  0  0  0  0  0
    3.2282   -3.2596   -5.3656 C   0  0  0  0  0  0  0  0  0  0  0  0
    3.2527   -3.7388   -4.1619 N   0  0  0  0  0  0  0  0  0  0  0  0
    4.4283   -4.1757   -3.5809 C   0  0  0  0  0  0  0  0  0  0  0  0
    5.5127   -3.6100   -3.5795 O   0  0  0  0  0  0  0  0  0  0  0  0
    4.2237   -5.3924   -2.7525 C   0  0  0  0  0  0  0  0  0  0  0  0
    3.0913   -5.3554   -1.9099 C   0  0  0  0  0  0  0  0  0  0  0  0
    2.7145   -6.4614   -1.1441 C   0  0  0  0  0  0  0  0  0  0  0  0
    3.5071   -7.6040   -1.2075 C   0  0  0  0  0  0  0  0  0  0  0  0
    4.6475   -7.6406   -2.0139 C   0  0  0  0  0  0  0  0  0  0  0  0
    5.0383   -6.5413   -2.8008 C   0  0  0  0  0  0  0  0  0  0  0  0
    6.1470   -6.5817   -3.6277 O   0  0  0  0  0  0  0  0  0  0  0  0
    6.8655   -7.8360   -3.6126 C   0  0  0  0  0  0  0  0  0  0  0  0
    8.1045   -7.8599   -4.5295 C   0  0  0  0  0  0  0  0  0  0  0  0
    9.1501   -6.8327   -4.1041 C   0  0  0  0  0  0  0  0  0  0  0  0
    8.7163   -9.2695   -4.5078 C   0  0  0  0  0  0  0  0  0  0  0  0
    7.7084   -7.5895   -5.8747 O   0  0  0  0  0  0  0  0  0  0  0  0
    1.4693   -6.4460   -0.2997 C   0  0  0  0  0  0  0  0  0  0  0  0
    0.7957   -5.2638   -0.3398 F   0  0  0  0  0  0  0  0  0  0  0  0
    0.5770   -7.3974   -0.6914 F   0  0  0  0  0  0  0  0  0  0  0  0
    1.7275   -6.6903    1.0136 F   0  0  0  0  0  0  0  0  0  0  0  0
    4.6732   -3.0197   -6.3796 S   0  0  0  0  0  0  0  0  0  0  0  0
    3.6482   -2.7063   -7.7881 C   0  0  0  0  0  0  0  0  0  0  0  0
    2.2934   -2.7276   -7.4329 C   0  0  0  0  0  0  0  0  0  0  0  0
    1.3910   -2.5790   -8.4741 C   0  0  0  0  0  0  0  0  0  0  0  0
    1.8800   -2.4233   -9.7785 C   0  0  0  0  0  0  0  0  0  0  0  0
    3.2533   -2.4095   -9.9979 C   0  0  0  0  0  0  0  0  0  0  0  0
    4.1645   -2.5517   -9.0180 N   0  0  0  0  0  0  0  0  0  0  0  0
   -2.4007   -1.3046   -2.5075 H   0  0  0  0  0  0  0  0  0  0  0  0
   -1.3257   -0.1557   -3.3200 H   0  0  0  0  0  0  0  0  0  0  0  0
   -0.6949   -1.2125   -2.0412 H   0  0  0  0  0  0  0  0  0  0  0  0
   -1.7823   -2.1587   -4.7466 H   0  0  0  0  0  0  0  0  0  0  0  0
   -1.1628   -3.2132   -3.4748 H   0  0  0  0  0  0  0  0  0  0  0  0
    1.0823   -2.0960   -3.6501 H   0  0  0  0  0  0  0  0  0  0  0  0
    0.4679   -1.0590   -4.9339 H   0  0  0  0  0  0  0  0  0  0  0  0
   -0.0553   -3.0974   -6.3045 H   0  0  0  0  0  0  0  0  0  0  0  0
    0.6323   -4.1257   -5.0741 H   0  0  0  0  0  0  0  0  0  0  0  0
    2.4858   -4.4487   -1.8700 H   0  0  0  0  0  0  0  0  0  0  0  0
    3.2379   -8.4908   -0.6352 H   0  0  0  0  0  0  0  0  0  0  0  0
    5.1978   -8.5737   -2.0073 H   0  0  0  0  0  0  0  0  0  0  0  0
    6.1817   -8.6189   -3.9657 H   0  0  0  0  0  0  0  0  0  0  0  0
    7.2027   -8.0489   -2.5898 H   0  0  0  0  0  0  0  0  0  0  0  0
    9.5086   -7.0258   -3.0869 H   0  0  0  0  0  0  0  0  0  0  0  0
    8.7458   -5.8168   -4.1445 H   0  0  0  0  0  0  0  0  0  0  0  0
   10.0127   -6.8547   -4.7804 H   0  0  0  0  0  0  0  0  0  0  0  0
    9.0581   -9.5492   -3.5047 H   0  0  0  0  0  0  0  0  0  0  0  0
    9.5655   -9.3454   -5.1960 H   0  0  0  0  0  0  0  0  0  0  0  0
    7.9862  -10.0186   -4.8384 H   0  0  0  0  0  0  0  0  0  0  0  0
    7.2292   -6.7343   -5.8579 H   0  0  0  0  0  0  0  0  0  0  0  0
    0.3179   -2.5995   -8.3240 H   0  0  0  0  0  0  0  0  0  0  0  0
    1.2002   -2.3211  -10.6187 H   0  0  0  0  0  0  0  0  0  0  0  0
    3.6671   -2.2902  -10.9946 H   0  0  0  0  0  0  0  0  0  0  0  0
  1  2  1  0  0  0  0
  1 33  1  0  0  0  0
  1 34  1  0  0  0  0
  1 35  1  0  0  0  0
  2  3  1  0  0  0  0
  2 36  1  0  0  0  0
  2 37  1  0  0  0  0
  3  4  1  0  0  0  0
  3 38  1  0  0  0  0
  3 39  1  0  0  0  0
  4  5  1  0  0  0  0
  4 40  1  0  0  0  0
  4 41  1  0  0  0  0
  5 28  1  0  0  0  0
  5  6  1  0  0  0  0
  6  7  2  0  0  0  0
  6 26  1  0  0  0  0
  7  8  1  0  0  0  0
  8  9  2  0  0  0  0
  8 10  1  0  0  0  0
 10 15  2  0  0  0  0
 10 11  1  0  0  0  0
 11 12  2  0  0  0  0
 11 42  1  0  0  0  0
 12 13  1  0  0  0  0
 12 22  1  0  0  0  0
 13 14  2  0  0  0  0
 13 43  1  0  0  0  0
 14 15  1  0  0  0  0
 14 44  1  0  0  0  0
 15 16  1  0  0  0  0
 16 17  1  0  0  0  0
 17 18  1  0  0  0  0
 17 45  1  0  0  0  0
 17 46  1  0  0  0  0
 18 19  1  0  0  0  0
 18 20  1  0  0  0  0
 18 21  1  0  0  0  0
 19 47  1  0  0  0  0
 19 48  1  0  0  0  0
 19 49  1  0  0  0  0
 20 50  1  0  0  0  0
 20 51  1  0  0  0  0
 20 52  1  0  0  0  0
 21 53  1  0  0  0  0
 22 23  1  0  0  0  0
 22 24  1  0  0  0  0
 22 25  1  0  0  0  0
 26 27  1  0  0  0  0
 27 32  2  0  0  0  0
 27 28  1  0  0  0  0
 28 29  2  0  0  0  0
 29 30  1  0  0  0  0
 29 54  1  0  0  0  0
 30 31  2  0  0  0  0
 30 55  1  0  0  0  0
 31 32  1  0  0  0  0
 31 56  1  0  0  0  0
M  END
$$$$
CHEMBL477993
 OpenBabel12022418093D

 43 46  0  0  0  0  0  0  0  0999 V2000
    9.8731   -0.2849   -5.5029 F   0  0  0  0  0  0  0  0  0  0  0  0
    9.1300   -1.1406   -4.7901 C   0  0  0  0  0  0  0  0  0  0  0  0
    7.9409   -0.7053   -4.2247 C   0  0  0  0  0  0  0  0  0  0  0  0
    7.1637   -1.6028   -3.4911 C   0  0  0  0  0  0  0  0  0  0  0  0
    7.5707   -2.9420   -3.3141 C   0  0  0  0  0  0  0  0  0  0  0  0
    6.6911   -3.8202   -2.5519 C   0  0  0  0  0  0  0  0  0  0  0  0
    7.0944   -4.8223   -1.7560 N   0  0  0  0  0  0  0  0  0  0  0  0
    5.9087   -5.3641   -1.2689 O   0  0  0  0  0  0  0  0  0  0  0  0
    4.9001   -4.6147   -1.7924 C   0  0  0  0  0  0  0  0  0  0  0  0
    3.5139   -5.0484   -1.4996 C   0  0  0  0  0  0  0  0  0  0  0  0
    2.7324   -5.3432   -2.7830 C   0  0  0  0  0  0  0  0  0  0  0  0
    3.3557   -6.4922   -3.5781 C   0  0  0  0  0  0  0  0  0  0  0  0
    2.5717   -6.7497   -4.7858 N   0  0  0  0  0  0  0  0  0  0  0  0
    3.0698   -7.7612   -5.6290 C   0  0  0  0  0  0  0  0  0  0  0  0
    3.7175   -8.9119   -5.1799 C   0  0  0  0  0  0  0  0  0  0  0  0
    4.1760   -9.9154   -5.9664 N   0  0  0  0  0  0  0  0  0  0  0  0
    3.9641   -9.8140   -7.2844 C   0  0  0  0  0  0  0  0  0  0  0  0
    4.4361  -10.8150   -8.1193 C   0  0  0  0  0  0  0  0  0  0  0  0
    4.2425  -10.7668   -9.5014 C   0  0  0  0  0  0  0  0  0  0  0  0
    3.5593   -9.6967  -10.0668 C   0  0  0  0  0  0  0  0  0  0  0  0
    3.0728   -8.6782   -9.2488 C   0  0  0  0  0  0  0  0  0  0  0  0
    3.2733   -8.7260   -7.8573 C   0  0  0  0  0  0  0  0  0  0  0  0
    2.8101   -7.7120   -7.0000 C   0  0  0  0  0  0  0  0  0  0  0  0
    5.3211   -3.6451   -2.5689 N   0  0  0  0  0  0  0  0  0  0  0  0
    8.7780   -3.3584   -3.9045 C   0  0  0  0  0  0  0  0  0  0  0  0
    9.5559   -2.4534   -4.6397 C   0  0  0  0  0  0  0  0  0  0  0  0
    9.3647   -4.9852   -3.8378 Cl  0  0  0  0  0  0  0  0  0  0  0  0
    7.6228    0.3239   -4.3608 H   0  0  0  0  0  0  0  0  0  0  0  0
    6.2287   -1.2526   -3.0544 H   0  0  0  0  0  0  0  0  0  0  0  0
    3.0063   -4.2535   -0.9422 H   0  0  0  0  0  0  0  0  0  0  0  0
    3.5201   -5.9365   -0.8565 H   0  0  0  0  0  0  0  0  0  0  0  0
    2.6777   -4.4432   -3.4086 H   0  0  0  0  0  0  0  0  0  0  0  0
    1.6997   -5.6029   -2.5180 H   0  0  0  0  0  0  0  0  0  0  0  0
    3.3773   -7.3766   -2.9320 H   0  0  0  0  0  0  0  0  0  0  0  0
    4.3847   -6.2444   -3.8649 H   0  0  0  0  0  0  0  0  0  0  0  0
    2.3982   -5.8969   -5.3172 H   0  0  0  0  0  0  0  0  0  0  0  0
    3.9016   -9.0856   -4.1250 H   0  0  0  0  0  0  0  0  0  0  0  0
    4.9700  -11.6540   -7.6793 H   0  0  0  0  0  0  0  0  0  0  0  0
    4.6274  -11.5673  -10.1281 H   0  0  0  0  0  0  0  0  0  0  0  0
    3.4069   -9.6536  -11.1425 H   0  0  0  0  0  0  0  0  0  0  0  0
    2.5427   -7.8433   -9.7010 H   0  0  0  0  0  0  0  0  0  0  0  0
    2.2585   -6.8720   -7.4149 H   0  0  0  0  0  0  0  0  0  0  0  0
   10.4848   -2.7641   -5.1058 H   0  0  0  0  0  0  0  0  0  0  0  0
  1  2  1  0  0  0  0
  2 26  2  0  0  0  0
  2  3  1  0  0  0  0
  3  4  2  0  0  0  0
  3 28  1  0  0  0  0
  4  5  1  0  0  0  0
  4 29  1  0  0  0  0
  5  6  1  0  0  0  0
  5 25  2  0  0  0  0
  6 24  1  0  0  0  0
  6  7  2  0  0  0  0
  7  8  1  0  0  0  0
  8  9  1  0  0  0  0
  9 10  1  0  0  0  0
  9 24  2  0  0  0  0
 10 11  1  0  0  0  0
 10 30  1  0  0  0  0
 10 31  1  0  0  0  0
 11 12  1  0  0  0  0
 11 32  1  0  0  0  0
 11 33  1  0  0  0  0
 12 13  1  0  0  0  0
 12 34  1  0  0  0  0
 12 35  1  0  0  0  0
 13 14  1  0  0  0  0
 13 36  1  0  0  0  0
 14 23  2  0  0  0  0
 14 15  1  0  0  0  0
 15 16  2  0  0  0  0
 15 37  1  0  0  0  0
 16 17  1  0  0  0  0
 17 22  2  0  0  0  0
 17 18  1  0  0  0  0
 18 19  2  0  0  0  0
 18 38  1  0  0  0  0
 19 20  1  0  0  0  0
 19 39  1  0  0  0  0
 20 21  2  0  0  0  0
 20 40  1  0  0  0  0
 21 22  1  0  0  0  0
 21 41  1  0  0  0  0
 22 23  1  0  0  0  0
 23 42  1  0  0  0  0
 25 26  1  0  0  0  0
 25 27  1  0  0  0  0
 26 43  1  0  0  0  0
M  END
$$$$
CHEMBL1760931
 OpenBabel12022418093D

 46 49  0  0  0  0  0  0  0  0999 V2000
    2.1496   -1.2339   -0.2332 C   0  0  0  0  0  0  0  0  0  0  0  0
    2.2881    0.1875    0.0323 C   0  0  0  0  0  0  0  0  0  0  0  0
    1.2145    0.9964    0.1152 C   0  0  0  0  0  0  0  0  0  0  0  0
   -0.0896    0.4463   -0.0357 C   0  0  0  0  0  0  0  0  0  0  0  0
   -1.3714    0.9507   -0.1339 C   0  0  0  0  0  0  0  0  0  0  0  0
   -1.8283    2.3939   -0.1569 C   0  0  0  0  0  0  0  0  0  0  0  0
   -1.0949    3.1175   -1.1987 N   0  0  0  0  0  0  0  0  0  0  0  0
   -0.7494    4.5133   -0.9091 C   0  0  0  0  0  0  0  0  0  0  0  0
   -1.6162    5.6100   -1.5570 C   0  0  0  0  0  0  0  0  0  0  0  0
   -1.9384    5.3309   -2.9212 O   0  0  0  0  0  0  0  0  0  0  0  0
   -2.5605    4.0485   -3.0354 C   0  0  0  0  0  0  0  0  0  0  0  0
   -1.6088    2.9401   -2.5627 C   0  0  0  0  0  0  0  0  0  0  0  0
   -2.2727   -0.1056   -0.1871 N   0  0  0  0  0  0  0  0  0  0  0  0
   -1.5526   -1.2267   -0.1706 C   0  0  0  0  0  0  0  0  0  0  0  0
   -2.1284   -2.5698   -0.1493 C   0  0  0  0  0  0  0  0  0  0  0  0
   -1.4800   -3.6123   -0.0469 O   0  0  0  0  0  0  0  0  0  0  0  0
   -3.5917   -2.7224   -0.3392 C   0  0  0  0  0  0  0  0  0  0  0  0
   -4.1532   -2.0642   -1.4514 C   0  0  0  0  0  0  0  0  0  0  0  0
   -5.5086   -2.1730   -1.7399 C   0  0  0  0  0  0  0  0  0  0  0  0
   -6.3136   -2.9652   -0.9308 C   0  0  0  0  0  0  0  0  0  0  0  0
   -5.7525   -3.6384    0.1516 C   0  0  0  0  0  0  0  0  0  0  0  0
   -4.3944   -3.5375    0.4772 C   0  0  0  0  0  0  0  0  0  0  0  0
   -3.9400   -4.3134    1.6767 C   0  0  0  0  0  0  0  0  0  0  0  0
   -2.6739   -4.0690    2.1027 F   0  0  0  0  0  0  0  0  0  0  0  0
   -4.7185   -4.0555    2.7712 F   0  0  0  0  0  0  0  0  0  0  0  0
   -4.0208   -5.6622    1.4864 F   0  0  0  0  0  0  0  0  0  0  0  0
   -6.5593   -4.4065    0.8999 F   0  0  0  0  0  0  0  0  0  0  0  0
   -0.1993   -0.9322   -0.1783 N   0  0  0  0  0  0  0  0  0  0  0  0
    0.9174   -1.7621   -0.3130 C   0  0  0  0  0  0  0  0  0  0  0  0
    3.0407   -1.8402   -0.3525 H   0  0  0  0  0  0  0  0  0  0  0  0
    3.2906    0.5813    0.1664 H   0  0  0  0  0  0  0  0  0  0  0  0
    1.3283    2.0581    0.3088 H   0  0  0  0  0  0  0  0  0  0  0  0
   -1.6021    2.8015    0.8367 H   0  0  0  0  0  0  0  0  0  0  0  0
   -2.9139    2.4665   -0.2923 H   0  0  0  0  0  0  0  0  0  0  0  0
    0.2695    4.6479   -1.2938 H   0  0  0  0  0  0  0  0  0  0  0  0
   -0.6763    4.7027    0.1686 H   0  0  0  0  0  0  0  0  0  0  0  0
   -1.0568    6.5533   -1.5521 H   0  0  0  0  0  0  0  0  0  0  0  0
   -2.5427    5.7751   -0.9973 H   0  0  0  0  0  0  0  0  0  0  0  0
   -2.7976    3.8988   -4.0944 H   0  0  0  0  0  0  0  0  0  0  0  0
   -3.5052    4.0462   -2.4797 H   0  0  0  0  0  0  0  0  0  0  0  0
   -2.0847    1.9621   -2.6967 H   0  0  0  0  0  0  0  0  0  0  0  0
   -0.7351    2.9500   -3.2262 H   0  0  0  0  0  0  0  0  0  0  0  0
   -3.5300   -1.4575   -2.1068 H   0  0  0  0  0  0  0  0  0  0  0  0
   -5.9310   -1.6500   -2.5933 H   0  0  0  0  0  0  0  0  0  0  0  0
   -7.3757   -3.0688   -1.1333 H   0  0  0  0  0  0  0  0  0  0  0  0
    0.7510   -2.8157   -0.5001 H   0  0  0  0  0  0  0  0  0  0  0  0
  1 29  2  0  0  0  0
  1  2  1  0  0  0  0
  1 30  1  0  0  0  0
  2  3  2  0  0  0  0
  2 31  1  0  0  0  0
  3  4  1  0  0  0  0
  3 32  1  0  0  0  0
  4 28  1  0  0  0  0
  4  5  2  0  0  0  0
  5  6  1  0  0  0  0
  5 13  1  0  0  0  0
  6  7  1  0  0  0  0
  6 33  1  0  0  0  0
  6 34  1  0  0  0  0
  7 12  1  0  0  0  0
  7  8  1  0  0  0  0
  8  9  1  0  0  0  0
  8 35  1  0  0  0  0
  8 36  1  0  0  0  0
  9 10  1  0  0  0  0
  9 37  1  0  0  0  0
  9 38  1  0  0  0  0
 10 11  1  0  0  0  0
 11 12  1  0  0  0  0
 11 39  1  0  0  0  0
 11 40  1  0  0  0  0
 12 41  1  0  0  0  0
 12 42  1  0  0  0  0
 13 14  2  0  0  0  0
 14 15  1  0  0  0  0
 14 28  1  0  0  0  0
 15 16  2  0  0  0  0
 15 17  1  0  0  0  0
 17 22  2  0  0  0  0
 17 18  1  0  0  0  0
 18 19  2  0  0  0  0
 18 43  1  0  0  0  0
 19 20  1  0  0  0  0
 19 44  1  0  0  0  0
 20 21  2  0  0  0  0
 20 45  1  0  0  0  0
 21 22  1  0  0  0  0
 21 27  1  0  0  0  0
 22 23  1  0  0  0  0
 23 24  1  0  0  0  0
 23 25  1  0  0  0  0
 23 26  1  0  0  0  0
 28 29  1  0  0  0  0
 29 46  1  0  0  0  0
M  END
$$$$
CHEMBL73206
 OpenBabel12022418093D

 53 57  0  0  0  0  0  0  0  0999 V2000
    1.8266   -1.2525   -0.1136 N   0  0  0  0  0  0  0  0  0  0  0  0
    2.5411   -0.0714   -0.2613 C   0  0  0  0  0  0  0  0  0  0  0  0
    1.6366    0.9718   -0.4667 C   0  0  0  0  0  0  0  0  0  0  0  0
    0.3303    0.3846   -0.5100 C   0  0  0  0  0  0  0  0  0  0  0  0
    0.4660   -0.9683   -0.1968 C   0  0  0  0  0  0  0  0  0  0  0  0
   -0.6579   -1.8070   -0.0339 C   0  0  0  0  0  0  0  0  0  0  0  0
   -1.9317   -1.2550   -0.1987 C   0  0  0  0  0  0  0  0  0  0  0  0
   -2.0871    0.0783   -0.5542 C   0  0  0  0  0  0  0  0  0  0  0  0
   -0.9690    0.9041   -0.7134 C   0  0  0  0  0  0  0  0  0  0  0  0
    1.9166    2.4589   -0.4560 C   0  0  0  0  0  0  0  0  0  0  0  0
    3.0720    2.7812   -1.2873 N   0  0  0  0  0  0  0  0  0  0  0  0
    3.8309    3.9397   -0.7820 C   0  0  0  0  0  0  0  0  0  0  0  0
    3.2718    5.3080   -1.1918 C   0  0  0  0  0  0  0  0  0  0  0  0
    3.1927    5.3934   -2.6139 O   0  0  0  0  0  0  0  0  0  0  0  0
    2.3356    4.3910   -3.1472 C   0  0  0  0  0  0  0  0  0  0  0  0
    2.7458    2.9662   -2.7142 C   0  0  0  0  0  0  0  0  0  0  0  0
    4.0198   -0.0060   -0.0701 C   0  0  0  0  0  0  0  0  0  0  0  0
    2.3561   -2.5444    0.1334 C   0  0  0  0  0  0  0  0  0  0  0  0
    1.9752   -3.0745    1.1761 O   0  0  0  0  0  0  0  0  0  0  0  0
    3.1050   -3.3382   -0.9030 C   0  0  0  0  0  0  0  0  0  0  0  0
    3.2802   -4.7350   -0.7034 C   0  0  0  0  0  0  0  0  0  0  0  0
    3.1325   -5.5702   -1.8406 C   0  0  0  0  0  0  0  0  0  0  0  0
    2.9171   -5.0008   -3.0976 C   0  0  0  0  0  0  0  0  0  0  0  0
    3.0768   -3.6351   -3.2884 C   0  0  0  0  0  0  0  0  0  0  0  0
    3.1960   -2.7906   -2.1930 C   0  0  0  0  0  0  0  0  0  0  0  0
    3.2057   -6.9633   -1.7045 C   0  0  0  0  0  0  0  0  0  0  0  0
    3.5027   -7.5530   -0.4751 C   0  0  0  0  0  0  0  0  0  0  0  0
    3.6993   -6.7469    0.6472 C   0  0  0  0  0  0  0  0  0  0  0  0
    3.5657   -5.3655    0.5308 C   0  0  0  0  0  0  0  0  0  0  0  0
   -0.5451   -2.8529    0.2387 H   0  0  0  0  0  0  0  0  0  0  0  0
   -2.8093   -1.8791   -0.0446 H   0  0  0  0  0  0  0  0  0  0  0  0
   -3.0846    0.4889   -0.6927 H   0  0  0  0  0  0  0  0  0  0  0  0
   -1.1112    1.9469   -0.9800 H   0  0  0  0  0  0  0  0  0  0  0  0
    2.1257    2.6939    0.5981 H   0  0  0  0  0  0  0  0  0  0  0  0
    1.0341    3.0481   -0.7295 H   0  0  0  0  0  0  0  0  0  0  0  0
    4.8453    3.8540   -1.1887 H   0  0  0  0  0  0  0  0  0  0  0  0
    3.9476    3.8928    0.3087 H   0  0  0  0  0  0  0  0  0  0  0  0
    3.9369    6.0881   -0.8461 H   0  0  0  0  0  0  0  0  0  0  0  0
    2.2840    5.4947   -0.7552 H   0  0  0  0  0  0  0  0  0  0  0  0
    2.4002    4.4636   -4.2387 H   0  0  0  0  0  0  0  0  0  0  0  0
    1.3020    4.6177   -2.8629 H   0  0  0  0  0  0  0  0  0  0  0  0
    1.9800    2.2551   -3.0443 H   0  0  0  0  0  0  0  0  0  0  0  0
    3.6540    2.7059   -3.2711 H   0  0  0  0  0  0  0  0  0  0  0  0
    4.4773   -0.9901    0.0597 H   0  0  0  0  0  0  0  0  0  0  0  0
    4.2507    0.5822    0.8227 H   0  0  0  0  0  0  0  0  0  0  0  0
    4.5005    0.4597   -0.9353 H   0  0  0  0  0  0  0  0  0  0  0  0
    2.6545   -5.6177   -3.9490 H   0  0  0  0  0  0  0  0  0  0  0  0
    3.0234   -3.2045   -4.2910 H   0  0  0  0  0  0  0  0  0  0  0  0
    3.2536   -1.7223   -2.3593 H   0  0  0  0  0  0  0  0  0  0  0  0
    3.0694   -7.6092   -2.5699 H   0  0  0  0  0  0  0  0  0  0  0  0
    3.5983   -8.6295   -0.4053 H   0  0  0  0  0  0  0  0  0  0  0  0
    3.9469   -7.2022    1.6009 H   0  0  0  0  0  0  0  0  0  0  0  0
    3.7289   -4.7598    1.4266 H   0  0  0  0  0  0  0  0  0  0  0  0
  1  5  1  0  0  0  0
  1  2  1  0  0  0  0
  1 18  1  0  0  0  0
  2  3  2  0  0  0  0
  2 17  1  0  0  0  0
  3  4  1  0  0  0  0
  3 10  1  0  0  0  0
  4  9  2  0  0  0  0
  4  5  1  0  0  0  0
  5  6  2  0  0  0  0
  6  7  1  0  0  0  0
  6 30  1  0  0  0  0
  7  8  2  0  0  0  0
  7 31  1  0  0  0  0
  8  9  1  0  0  0  0
  8 32  1  0  0  0  0
  9 33  1  0  0  0  0
 10 11  1  0  0  0  0
 10 34  1  0  0  0  0
 10 35  1  0  0  0  0
 11 16  1  0  0  0  0
 11 12  1  0  0  0  0
 12 13  1  0  0  0  0
 12 36  1  0  0  0  0
 12 37  1  0  0  0  0
 13 14  1  0  0  0  0
 13 38  1  0  0  0  0
 13 39  1  0  0  0  0
 14 15  1  0  0  0  0
 15 16  1  0  0  0  0
 15 40  1  0  0  0  0
 15 41  1  0  0  0  0
 16 42  1  0  0  0  0
 16 43  1  0  0  0  0
 17 44  1  0  0  0  0
 17 45  1  0  0  0  0
 17 46  1  0  0  0  0
 18 19  2  0  0  0  0
 18 20  1  0  0  0  0
 20 25  2  0  0  0  0
 20 21  1  0  0  0  0
 21 29  2  0  0  0  0
 21 22  1  0  0  0  0
 22 23  1  0  0  0  0
 22 26  2  0  0  0  0
 23 24  2  0  0  0  0
 23 47  1  0  0  0  0
 24 25  1  0  0  0  0
 24 48  1  0  0  0  0
 25 49  1  0  0  0  0
 26 27  1  0  0  0  0
 26 50  1  0  0  0  0
 27 28  2  0  0  0  0
 27 51  1  0  0  0  0
 28 29  1  0  0  0  0
 28 52  1  0  0  0  0
 29 53  1  0  0  0  0
M  END
$$$$
CHEMBL1760930
 OpenBabel12022418093D

 43 46  0  0  0  0  0  0  0  0999 V2000
    2.1628   -1.2125   -0.2081 C   0  0  0  0  0  0  0  0  0  0  0  0
    2.2938    0.2091    0.0584 C   0  0  0  0  0  0  0  0  0  0  0  0
    1.2157    1.0130    0.1378 C   0  0  0  0  0  0  0  0  0  0  0  0
   -0.0867    0.4587   -0.0209 C   0  0  0  0  0  0  0  0  0  0  0  0
   -1.3739    0.9518   -0.1360 C   0  0  0  0  0  0  0  0  0  0  0  0
   -1.8393    2.3939   -0.1581 C   0  0  0  0  0  0  0  0  0  0  0  0
   -1.0946    3.1419   -1.1771 N   0  0  0  0  0  0  0  0  0  0  0  0
   -0.8380    4.5564   -0.8719 C   0  0  0  0  0  0  0  0  0  0  0  0
   -1.7834    5.6020   -1.4940 C   0  0  0  0  0  0  0  0  0  0  0  0
   -2.0833    5.3314   -2.8650 O   0  0  0  0  0  0  0  0  0  0  0  0
   -2.6101    4.0100   -3.0097 C   0  0  0  0  0  0  0  0  0  0  0  0
   -1.5840    2.9626   -2.5522 C   0  0  0  0  0  0  0  0  0  0  0  0
   -2.2708   -0.1075   -0.1907 N   0  0  0  0  0  0  0  0  0  0  0  0
   -1.5425   -1.2225   -0.1375 C   0  0  0  0  0  0  0  0  0  0  0  0
   -2.0810   -2.5766   -0.0607 C   0  0  0  0  0  0  0  0  0  0  0  0
   -1.3914   -3.5497    0.2477 O   0  0  0  0  0  0  0  0  0  0  0  0
   -3.4909   -2.8470   -0.4630 C   0  0  0  0  0  0  0  0  0  0  0  0
   -3.9989   -2.1717   -1.5876 C   0  0  0  0  0  0  0  0  0  0  0  0
   -5.2592   -2.4785   -2.1022 C   0  0  0  0  0  0  0  0  0  0  0  0
   -6.0131   -3.4892   -1.5169 C   0  0  0  0  0  0  0  0  0  0  0  0
   -5.5295   -4.1692   -0.3951 C   0  0  0  0  0  0  0  0  0  0  0  0
   -4.2743   -3.8456    0.1528 C   0  0  0  0  0  0  0  0  0  0  0  0
   -3.7508   -4.6475    1.6038 Cl  0  0  0  0  0  0  0  0  0  0  0  0
   -6.5390   -5.4236    0.2447 Cl  0  0  0  0  0  0  0  0  0  0  0  0
   -0.1894   -0.9197   -0.1474 N   0  0  0  0  0  0  0  0  0  0  0  0
    0.9324   -1.7458   -0.2821 C   0  0  0  0  0  0  0  0  0  0  0  0
    3.0568   -1.8146   -0.3293 H   0  0  0  0  0  0  0  0  0  0  0  0
    3.2947    0.6058    0.1986 H   0  0  0  0  0  0  0  0  0  0  0  0
    1.3252    2.0744    0.3355 H   0  0  0  0  0  0  0  0  0  0  0  0
   -1.6319    2.7921    0.8434 H   0  0  0  0  0  0  0  0  0  0  0  0
   -2.9228    2.4565   -0.3101 H   0  0  0  0  0  0  0  0  0  0  0  0
    0.1656    4.7640   -1.2643 H   0  0  0  0  0  0  0  0  0  0  0  0
   -0.7661    4.7336    0.2080 H   0  0  0  0  0  0  0  0  0  0  0  0
   -1.2941    6.5831   -1.4668 H   0  0  0  0  0  0  0  0  0  0  0  0
   -2.7196    5.6867   -0.9323 H   0  0  0  0  0  0  0  0  0  0  0  0
   -2.8296    3.8664   -4.0732 H   0  0  0  0  0  0  0  0  0  0  0  0
   -3.5557    3.9291   -2.4615 H   0  0  0  0  0  0  0  0  0  0  0  0
   -1.9858    1.9561   -2.7133 H   0  0  0  0  0  0  0  0  0  0  0  0
   -0.7079    3.0514   -3.2069 H   0  0  0  0  0  0  0  0  0  0  0  0
   -3.4092   -1.4071   -2.0905 H   0  0  0  0  0  0  0  0  0  0  0  0
   -5.6282   -1.9499   -2.9754 H   0  0  0  0  0  0  0  0  0  0  0  0
   -6.9846   -3.7427   -1.9380 H   0  0  0  0  0  0  0  0  0  0  0  0
    0.7727   -2.8015   -0.4660 H   0  0  0  0  0  0  0  0  0  0  0  0
  1 26  2  0  0  0  0
  1  2  1  0  0  0  0
  1 27  1  0  0  0  0
  2  3  2  0  0  0  0
  2 28  1  0  0  0  0
  3  4  1  0  0  0  0
  3 29  1  0  0  0  0
  4 25  1  0  0  0  0
  4  5  2  0  0  0  0
  5  6  1  0  0  0  0
  5 13  1  0  0  0  0
  6  7  1  0  0  0  0
  6 30  1  0  0  0  0
  6 31  1  0  0  0  0
  7 12  1  0  0  0  0
  7  8  1  0  0  0  0
  8  9  1  0  0  0  0
  8 32  1  0  0  0  0
  8 33  1  0  0  0  0
  9 10  1  0  0  0  0
  9 34  1  0  0  0  0
  9 35  1  0  0  0  0
 10 11  1  0  0  0  0
 11 12  1  0  0  0  0
 11 36  1  0  0  0  0
 11 37  1  0  0  0  0
 12 38  1  0  0  0  0
 12 39  1  0  0  0  0
 13 14  2  0  0  0  0
 14 15  1  0  0  0  0
 14 25  1  0  0  0  0
 15 16  2  0  0  0  0
 15 17  1  0  0  0  0
 17 22  2  0  0  0  0
 17 18  1  0  0  0  0
 18 19  2  0  0  0  0
 18 40  1  0  0  0  0
 19 20  1  0  0  0  0
 19 41  1  0  0  0  0
 20 21  2  0  0  0  0
 20 42  1  0  0  0  0
 21 22  1  0  0  0  0
 21 24  1  0  0  0  0
 22 23  1  0  0  0  0
 25 26  1  0  0  0  0
 26 43  1  0  0  0  0
M  END
$$$$
CHEMBL253058
 OpenBabel12022418093D

 59 61  0  0  1  0  0  0  0  0999 V2000
    2.4010    0.5936   -0.0114 C   0  0  0  0  0  0  0  0  0  0  0  0
    0.9166    0.3274    0.0009 C   0  0  0  0  0  0  0  0  0  0  0  0
    0.2991   -0.9474   -0.0086 C   0  0  0  0  0  0  0  0  0  0  0  0
   -1.0970   -1.0526   -0.0533 C   0  0  0  0  0  0  0  0  0  0  0  0
   -1.9086    0.0793   -0.1084 C   0  0  0  0  0  0  0  0  0  0  0  0
   -1.3138    1.3419   -0.0750 C   0  0  0  0  0  0  0  0  0  0  0  0
    0.0782    1.4576   -0.0256 C   0  0  0  0  0  0  0  0  0  0  0  0
   -3.3860   -0.0423   -0.1784 C   0  0  0  0  0  0  0  0  0  0  0  0
   -4.0995    0.8404    0.2663 O   0  0  0  0  0  0  0  0  0  0  0  0
   -3.8597   -1.1948   -0.7848 N   0  0  0  0  0  0  0  0  0  0  0  0
   -5.2820   -1.4363   -0.9959 C   0  0  1  0  0  0  0  0  0  0  0  0
   -5.7355   -0.7752   -2.3033 C   0  0  0  0  0  0  0  0  0  0  0  0
   -5.6377   -2.9510   -0.9461 C   0  0  0  0  0  0  0  0  0  0  0  0
   -5.0430   -3.7722   -2.1074 C   0  0  0  0  0  0  0  0  0  0  0  0
   -5.4639   -5.2402   -2.0383 C   0  0  0  0  0  0  0  0  0  0  0  0
   -5.0883   -5.8695   -0.7034 C   0  0  0  0  0  0  0  0  0  0  0  0
   -5.6780   -5.0771    0.4584 C   0  0  0  0  0  0  0  0  0  0  0  0
   -5.2657   -3.6026    0.4044 C   0  0  0  0  0  0  0  0  0  0  0  0
    1.1314   -2.5394   -0.0113 S   0  0  0  0  0  0  0  0  0  0  0  0
    0.6755   -3.2139   -1.2100 O   0  0  0  0  0  0  0  0  0  0  0  0
    2.5439   -2.3430    0.2478 O   0  0  0  0  0  0  0  0  0  0  0  0
    0.4349   -3.3587    1.3570 N   0  0  0  0  0  0  0  0  0  0  0  0
    0.5849   -4.8410    1.2618 C   0  0  0  0  0  0  0  0  0  0  0  0
    0.3433   -5.6198    2.5517 C   0  0  0  0  0  0  0  0  0  0  0  0
    0.9656   -4.9757    3.7722 C   0  0  0  0  0  0  0  0  0  0  0  0
    0.4739   -3.5493    3.8981 C   0  0  0  0  0  0  0  0  0  0  0  0
    0.7228   -2.6977    2.6596 C   0  0  0  0  0  0  0  0  0  0  0  0
    2.5932    1.6772    0.0668 H   0  0  0  0  0  0  0  0  0  0  0  0
    2.8494    0.2731   -0.9565 H   0  0  0  0  0  0  0  0  0  0  0  0
    2.9055    0.1384    0.8406 H   0  0  0  0  0  0  0  0  0  0  0  0
   -1.5453   -2.0442   -0.0328 H   0  0  0  0  0  0  0  0  0  0  0  0
   -1.9291    2.2397   -0.1004 H   0  0  0  0  0  0  0  0  0  0  0  0
    0.5057    2.4617   -0.0224 H   0  0  0  0  0  0  0  0  0  0  0  0
   -3.2133   -1.7493   -1.3290 H   0  0  0  0  0  0  0  0  0  0  0  0
   -5.8197   -0.9379   -0.1794 H   0  0  0  0  0  0  0  0  0  0  0  0
   -5.1830   -1.1570   -3.1688 H   0  0  0  0  0  0  0  0  0  0  0  0
   -5.5677    0.3071   -2.2788 H   0  0  0  0  0  0  0  0  0  0  0  0
   -6.8033   -0.9454   -2.4743 H   0  0  0  0  0  0  0  0  0  0  0  0
   -6.7316   -3.0104   -1.0363 H   0  0  0  0  0  0  0  0  0  0  0  0
   -3.9481   -3.7149   -2.0923 H   0  0  0  0  0  0  0  0  0  0  0  0
   -5.3747   -3.3716   -3.0698 H   0  0  0  0  0  0  0  0  0  0  0  0
   -4.9926   -5.7971   -2.8559 H   0  0  0  0  0  0  0  0  0  0  0  0
   -6.5486   -5.3153   -2.1851 H   0  0  0  0  0  0  0  0  0  0  0  0
   -3.9961   -5.9061   -0.6077 H   0  0  0  0  0  0  0  0  0  0  0  0
   -5.4465   -6.9049   -0.6693 H   0  0  0  0  0  0  0  0  0  0  0  0
   -5.3532   -5.5213    1.4062 H   0  0  0  0  0  0  0  0  0  0  0  0
   -6.7724   -5.1531    0.4310 H   0  0  0  0  0  0  0  0  0  0  0  0
   -5.7540   -3.0666    1.2268 H   0  0  0  0  0  0  0  0  0  0  0  0
   -4.1841   -3.5354    0.5762 H   0  0  0  0  0  0  0  0  0  0  0  0
    1.5653   -5.1115    0.8545 H   0  0  0  0  0  0  0  0  0  0  0  0
   -0.1719   -5.1872    0.5443 H   0  0  0  0  0  0  0  0  0  0  0  0
    0.7376   -6.6381    2.4396 H   0  0  0  0  0  0  0  0  0  0  0  0
   -0.7358   -5.7325    2.7175 H   0  0  0  0  0  0  0  0  0  0  0  0
    2.0592   -5.0113    3.7166 H   0  0  0  0  0  0  0  0  0  0  0  0
    0.6738   -5.5389    4.6684 H   0  0  0  0  0  0  0  0  0  0  0  0
    0.9617   -3.0734    4.7594 H   0  0  0  0  0  0  0  0  0  0  0  0
   -0.5987   -3.5608    4.1231 H   0  0  0  0  0  0  0  0  0  0  0  0
    0.0401   -1.8421    2.7310 H   0  0  0  0  0  0  0  0  0  0  0  0
    1.7423   -2.3040    2.6867 H   0  0  0  0  0  0  0  0  0  0  0  0
  1  2  1  0  0  0  0
  1 28  1  0  0  0  0
  1 29  1  0  0  0  0
  1 30  1  0  0  0  0
  2  7  2  0  0  0  0
  2  3  1  0  0  0  0
  3  4  2  0  0  0  0
  3 19  1  0  0  0  0
  4  5  1  0  0  0  0
  4 31  1  0  0  0  0
  5  6  2  0  0  0  0
  5  8  1  0  0  0  0
  6  7  1  0  0  0  0
  6 32  1  0  0  0  0
  7 33  1  0  0  0  0
  8  9  2  0  0  0  0
  8 10  1  0  0  0  0
 10 11  1  0  0  0  0
 10 34  1  0  0  0  0
 11 12  1  0  0  0  0
 11 13  1  0  0  0  0
 11 35  1  1  0  0  0
 12 36  1  0  0  0  0
 12 37  1  0  0  0  0
 12 38  1  0  0  0  0
 13 18  1  0  0  0  0
 13 14  1  0  0  0  0
 13 39  1  0  0  0  0
 14 15  1  0  0  0  0
 14 40  1  0  0  0  0
 14 41  1  0  0  0  0
 15 16  1  0  0  0  0
 15 42  1  0  0  0  0
 15 43  1  0  0  0  0
 16 17  1  0  0  0  0
 16 44  1  0  0  0  0
 16 45  1  0  0  0  0
 17 18  1  0  0  0  0
 17 46  1  0  0  0  0
 17 47  1  0  0  0  0
 18 48  1  0  0  0  0
 18 49  1  0  0  0  0
 19 20  2  0  0  0  0
 19 21  2  0  0  0  0
 19 22  1  0  0  0  0
 22 27  1  0  0  0  0
 22 23  1  0  0  0  0
 23 24  1  0  0  0  0
 23 50  1  0  0  0  0
 23 51  1  0  0  0  0
 24 25  1  0  0  0  0
 24 52  1  0  0  0  0
 24 53  1  0  0  0  0
 25 26  1  0  0  0  0
 25 54  1  0  0  0  0
 25 55  1  0  0  0  0
 26 27  1  0  0  0  0
 26 56  1  0  0  0  0
 26 57  1  0  0  0  0
 27 58  1  0  0  0  0
 27 59  1  0  0  0  0
M  END
$$$$
CHEMBL1800694
 OpenBabel12022418093D

 46 49  0  0  0  0  0  0  0  0999 V2000
    0.2208   -0.3648    0.5938 F   0  0  0  0  0  0  0  0  0  0  0  0
    1.4815   -0.3741    0.0795 C   0  0  0  0  0  0  0  0  0  0  0  0
    1.3426   -0.1535   -1.2559 F   0  0  0  0  0  0  0  0  0  0  0  0
    2.0962    0.7326    0.5802 F   0  0  0  0  0  0  0  0  0  0  0  0
    2.2395   -1.6293    0.3751 C   0  0  0  0  0  0  0  0  0  0  0  0
    1.6732   -2.6480    1.1198 C   0  0  0  0  0  0  0  0  0  0  0  0
    2.3222   -3.7848    1.4681 N   0  0  0  0  0  0  0  0  0  0  0  0
    3.6111   -3.9562    1.0753 C   0  0  0  0  0  0  0  0  0  0  0  0
    4.2460   -2.9777    0.2870 C   0  0  0  0  0  0  0  0  0  0  0  0
    3.5530   -1.8144   -0.0601 C   0  0  0  0  0  0  0  0  0  0  0  0
    5.8952   -3.0969   -0.2181 Cl  0  0  0  0  0  0  0  0  0  0  0  0
    4.3139   -5.0865    1.5479 N   0  0  0  0  0  0  0  0  0  0  0  0
    4.5232   -6.1122    0.5099 C   0  0  0  0  0  0  0  0  0  0  0  0
    5.9325   -6.7020    0.5770 C   0  0  0  0  0  0  0  0  0  0  0  0
    6.4706   -7.0645    1.9614 C   0  0  0  0  0  0  0  0  0  0  0  0
    5.4320   -7.4681    2.9006 N   0  0  0  0  0  0  0  0  0  0  0  0
    5.1860   -8.7583    3.2689 C   0  0  0  0  0  0  0  0  0  0  0  0
    4.2165   -9.1261    4.0843 N   0  0  0  0  0  0  0  0  0  0  0  0
    4.2464  -10.5097    4.2876 C   0  0  0  0  0  0  0  0  0  0  0  0
    3.2319  -11.1596    5.1282 C   0  0  0  0  0  0  0  0  0  0  0  0
    3.2416  -12.5512    5.3219 C   0  0  0  0  0  0  0  0  0  0  0  0
    2.2472  -13.1774    6.0778 C   0  0  0  0  0  0  0  0  0  0  0  0
    1.2325  -12.4191    6.6557 C   0  0  0  0  0  0  0  0  0  0  0  0
    1.2164  -11.0358    6.4884 C   0  0  0  0  0  0  0  0  0  0  0  0
    2.2114  -10.4086    5.7310 C   0  0  0  0  0  0  0  0  0  0  0  0
    5.1970  -11.2151    3.6647 N   0  0  0  0  0  0  0  0  0  0  0  0
    6.0834  -10.1490    2.7558 S   0  0  0  0  0  0  0  0  0  0  0  0
    4.7729   -6.3792    3.6362 C   0  0  0  0  0  0  0  0  0  0  0  0
    3.7194   -5.6435    2.7920 C   0  0  0  0  0  0  0  0  0  0  0  0
    0.6517   -2.5839    1.4913 H   0  0  0  0  0  0  0  0  0  0  0  0
    4.0472   -1.0388   -0.6428 H   0  0  0  0  0  0  0  0  0  0  0  0
    4.3685   -5.7172   -0.5036 H   0  0  0  0  0  0  0  0  0  0  0  0
    3.7876   -6.9215    0.6136 H   0  0  0  0  0  0  0  0  0  0  0  0
    6.6411   -5.9974    0.1226 H   0  0  0  0  0  0  0  0  0  0  0  0
    5.9575   -7.5922   -0.0637 H   0  0  0  0  0  0  0  0  0  0  0  0
    7.0040   -6.1960    2.3680 H   0  0  0  0  0  0  0  0  0  0  0  0
    7.2522   -7.8244    1.8461 H   0  0  0  0  0  0  0  0  0  0  0  0
    4.0225  -13.1636    4.8747 H   0  0  0  0  0  0  0  0  0  0  0  0
    2.2644  -14.2566    6.2065 H   0  0  0  0  0  0  0  0  0  0  0  0
    0.4519  -12.9080    7.2338 H   0  0  0  0  0  0  0  0  0  0  0  0
    0.4237  -10.4442    6.9398 H   0  0  0  0  0  0  0  0  0  0  0  0
    2.1769   -9.3283    5.6058 H   0  0  0  0  0  0  0  0  0  0  0  0
    5.5343   -5.6578    3.9597 H   0  0  0  0  0  0  0  0  0  0  0  0
    4.2988   -6.7341    4.5592 H   0  0  0  0  0  0  0  0  0  0  0  0
    2.8807   -6.3129    2.5588 H   0  0  0  0  0  0  0  0  0  0  0  0
    3.3307   -4.8402    3.4321 H   0  0  0  0  0  0  0  0  0  0  0  0
  1  2  1  0  0  0  0
  2  3  1  0  0  0  0
  2  4  1  0  0  0  0
  2  5  1  0  0  0  0
  5 10  2  0  0  0  0
  5  6  1  0  0  0  0
  6  7  2  0  0  0  0
  6 30  1  0  0  0  0
  7  8  1  0  0  0  0
  8  9  2  0  0  0  0
  8 12  1  0  0  0  0
  9 10  1  0  0  0  0
  9 11  1  0  0  0  0
 10 31  1  0  0  0  0
 12 29  1  0  0  0  0
 12 13  1  0  0  0  0
 13 14  1  0  0  0  0
 13 32  1  0  0  0  0
 13 33  1  0  0  0  0
 14 15  1  0  0  0  0
 14 34  1  0  0  0  0
 14 35  1  0  0  0  0
 15 16  1  0  0  0  0
 15 36  1  0  0  0  0
 15 37  1  0  0  0  0
 16 17  1  0  0  0  0
 16 28  1  0  0  0  0
 17 27  1  0  0  0  0
 17 18  2  0  0  0  0
 18 19  1  0  0  0  0
 19 20  1  0  0  0  0
 19 26  2  0  0  0  0
 20 25  2  0  0  0  0
 20 21  1  0  0  0  0
 21 22  2  0  0  0  0
 21 38  1  0  0  0  0
 22 23  1  0  0  0  0
 22 39  1  0  0  0  0
 23 24  2  0  0  0  0
 23 40  1  0  0  0  0
 24 25  1  0  0  0  0
 24 41  1  0  0  0  0
 25 42  1  0  0  0  0
 26 27  1  0  0  0  0
 28 29  1  0  0  0  0
 28 43  1  0  0  0  0
 28 44  1  0  0  0  0
 29 45  1  0  0  0  0
 29 46  1  0  0  0  0
M  END
$$$$
CHEMBL453472
 OpenBabel12022418093D

 52 53  0  0  0  0  0  0  0  0999 V2000
    2.6724    0.8453    0.0112 C   0  0  0  0  0  0  0  0  0  0  0  0
    2.8036   -0.5519    0.0357 C   0  0  0  0  0  0  0  0  0  0  0  0
    1.6762   -1.3809    0.0267 C   0  0  0  0  0  0  0  0  0  0  0  0
    0.4278   -0.7815   -0.0019 C   0  0  0  0  0  0  0  0  0  0  0  0
    0.3170    0.6086   -0.0038 C   0  0  0  0  0  0  0  0  0  0  0  0
    1.4110    1.4476   -0.0113 C   0  0  0  0  0  0  0  0  0  0  0  0
   -1.1146    0.9154    0.0089 C   0  0  0  0  0  0  0  0  0  0  0  0
   -1.6104    2.1058    0.0421 N   0  0  0  0  0  0  0  0  0  0  0  0
   -2.9783    2.2607    0.0770 N   0  0  0  0  0  0  0  0  0  0  0  0
   -3.4851    3.5396    0.1236 C   0  0  0  0  0  0  0  0  0  0  0  0
   -2.7829    4.5462    0.1040 O   0  0  0  0  0  0  0  0  0  0  0  0
   -4.8557    3.5588    0.1979 O   0  0  0  0  0  0  0  0  0  0  0  0
   -5.5095    4.8607    0.2984 C   0  0  0  0  0  0  0  0  0  0  0  0
   -5.2588    5.7047   -0.9612 C   0  0  0  0  0  0  0  0  0  0  0  0
   -7.0295    4.6219    0.4353 C   0  0  0  0  0  0  0  0  0  0  0  0
   -5.0608    5.6054    1.5633 C   0  0  0  0  0  0  0  0  0  0  0  0
   -1.8403   -0.4256   -0.0001 C   0  0  0  0  0  0  0  0  0  0  0  0
   -3.0495   -0.5356    0.0020 O   0  0  0  0  0  0  0  0  0  0  0  0
   -0.8409   -1.3877   -0.0182 N   0  0  0  0  0  0  0  0  0  0  0  0
   -1.0699   -2.8173   -0.0326 C   0  0  0  0  0  0  0  0  0  0  0  0
   -1.8273   -3.2615   -1.2793 C   0  0  0  0  0  0  0  0  0  0  0  0
   -2.0274   -4.7748   -1.3231 C   0  0  0  0  0  0  0  0  0  0  0  0
   -2.8068   -5.1495   -2.5822 C   0  0  0  0  0  0  0  0  0  0  0  0
   -3.0452   -6.6517   -2.6857 C   0  0  0  0  0  0  0  0  0  0  0  0
   -3.8235   -6.9838   -3.9486 C   0  0  0  0  0  0  0  0  0  0  0  0
    3.5680    1.4718    0.0097 H   0  0  0  0  0  0  0  0  0  0  0  0
    3.7945   -1.0003    0.0681 H   0  0  0  0  0  0  0  0  0  0  0  0
    1.8073   -2.4526    0.0491 H   0  0  0  0  0  0  0  0  0  0  0  0
    1.2963    2.5260   -0.0289 H   0  0  0  0  0  0  0  0  0  0  0  0
   -3.5936    1.4484    0.0947 H   0  0  0  0  0  0  0  0  0  0  0  0
   -5.5949    5.1836   -1.8643 H   0  0  0  0  0  0  0  0  0  0  0  0
   -4.1971    5.9184   -1.1086 H   0  0  0  0  0  0  0  0  0  0  0  0
   -5.7702    6.6713   -0.9014 H   0  0  0  0  0  0  0  0  0  0  0  0
   -7.4441    4.0861   -0.4251 H   0  0  0  0  0  0  0  0  0  0  0  0
   -7.5708    5.5723    0.5341 H   0  0  0  0  0  0  0  0  0  0  0  0
   -7.2566    4.0182    1.3218 H   0  0  0  0  0  0  0  0  0  0  0  0
   -3.9922    5.8294    1.5614 H   0  0  0  0  0  0  0  0  0  0  0  0
   -5.2497    4.9983    2.4554 H   0  0  0  0  0  0  0  0  0  0  0  0
   -5.5851    6.5607    1.6667 H   0  0  0  0  0  0  0  0  0  0  0  0
   -1.6359   -3.0722    0.8705 H   0  0  0  0  0  0  0  0  0  0  0  0
   -0.1186   -3.3547    0.0150 H   0  0  0  0  0  0  0  0  0  0  0  0
   -1.2807   -2.9376   -2.1742 H   0  0  0  0  0  0  0  0  0  0  0  0
   -2.8067   -2.7704   -1.3146 H   0  0  0  0  0  0  0  0  0  0  0  0
   -2.5731   -5.1063   -0.4313 H   0  0  0  0  0  0  0  0  0  0  0  0
   -1.0557   -5.2834   -1.3181 H   0  0  0  0  0  0  0  0  0  0  0  0
   -2.2559   -4.8049   -3.4661 H   0  0  0  0  0  0  0  0  0  0  0  0
   -3.7710   -4.6260   -2.5812 H   0  0  0  0  0  0  0  0  0  0  0  0
   -3.6037   -7.0033   -1.8108 H   0  0  0  0  0  0  0  0  0  0  0  0
   -2.0867   -7.1828   -2.6982 H   0  0  0  0  0  0  0  0  0  0  0  0
   -4.7974   -6.4838   -3.9502 H   0  0  0  0  0  0  0  0  0  0  0  0
   -3.9934   -8.0628   -4.0192 H   0  0  0  0  0  0  0  0  0  0  0  0
   -3.2749   -6.6652   -4.8408 H   0  0  0  0  0  0  0  0  0  0  0  0
  1  6  2  0  0  0  0
  1  2  1  0  0  0  0
  1 26  1  0  0  0  0
  2  3  2  0  0  0  0
  2 27  1  0  0  0  0
  3  4  1  0  0  0  0
  3 28  1  0  0  0  0
  4 19  1  0  0  0  0
  4  5  2  0  0  0  0
  5  6  1  0  0  0  0
  5  7  1  0  0  0  0
  6 29  1  0  0  0  0
  7  8  2  0  0  0  0
  7 17  1  0  0  0  0
  8  9  1  0  0  0  0
  9 10  1  0  0  0  0
  9 30  1  0  0  0  0
 10 11  2  0  0  0  0
 10 12  1  0  0  0  0
 12 13  1  0  0  0  0
 13 14  1  0  0  0  0
 13 15  1  0  0  0  0
 13 16  1  0  0  0  0
 14 31  1  0  0  0  0
 14 32  1  0  0  0  0
 14 33  1  0  0  0  0
 15 34  1  0  0  0  0
 15 35  1  0  0  0  0
 15 36  1  0  0  0  0
 16 37  1  0  0  0  0
 16 38  1  0  0  0  0
 16 39  1  0  0  0  0
 17 18  2  0  0  0  0
 17 19  1  0  0  0  0
 19 20  1  0  0  0  0
 20 21  1  0  0  0  0
 20 40  1  0  0  0  0
 20 41  1  0  0  0  0
 21 22  1  0  0  0  0
 21 42  1  0  0  0  0
 21 43  1  0  0  0  0
 22 23  1  0  0  0  0
 22 44  1  0  0  0  0
 22 45  1  0  0  0  0
 23 24  1  0  0  0  0
 23 46  1  0  0  0  0
 23 47  1  0  0  0  0
 24 25  1  0  0  0  0
 24 48  1  0  0  0  0
 24 49  1  0  0  0  0
 25 50  1  0  0  0  0
 25 51  1  0  0  0  0
 25 52  1  0  0  0  0
M  END
$$$$
CHEMBL250809
 OpenBabel12022418093D

 61 65  0  0  0  0  0  0  0  0999 V2000
    2.8189    1.0773    0.0518 C   0  0  0  0  0  0  0  0  0  0  0  0
    3.1724   -0.2621    0.2176 C   0  0  0  0  0  0  0  0  0  0  0  0
    2.2387   -1.2979    0.0996 C   0  0  0  0  0  0  0  0  0  0  0  0
    0.8892   -0.9616   -0.0792 C   0  0  0  0  0  0  0  0  0  0  0  0
    0.5056    0.3963   -0.1808 C   0  0  0  0  0  0  0  0  0  0  0  0
    1.4747    1.4153   -0.1295 C   0  0  0  0  0  0  0  0  0  0  0  0
   -0.8906    0.4049   -0.2439 C   0  0  0  0  0  0  0  0  0  0  0  0
   -1.3445   -0.8719   -0.1842 C   0  0  0  0  0  0  0  0  0  0  0  0
   -2.8053   -0.9339   -0.0701 C   0  0  0  0  0  0  0  0  0  0  0  0
   -3.1785    0.5151    0.2061 N   0  0  0  0  0  0  0  0  0  0  0  0
   -1.9957    1.3685   -0.2027 C   0  0  0  0  0  0  0  0  0  0  0  0
   -3.4672    0.6904    1.6458 C   0  0  0  0  0  0  0  0  0  0  0  0
   -3.9473    2.0901    1.9588 C   0  0  0  0  0  0  0  0  0  0  0  0
   -5.3891    2.3884    2.2806 C   0  0  0  0  0  0  0  0  0  0  0  0
   -4.3543    2.4425    3.3691 C   0  0  0  0  0  0  0  0  0  0  0  0
   -0.2851   -1.7181   -0.1141 N   0  0  0  0  0  0  0  0  0  0  0  0
   -0.4275   -3.4130    0.0164 S   0  0  0  0  0  0  0  0  0  0  0  0
    0.9181   -3.9426    0.1254 O   0  0  0  0  0  0  0  0  0  0  0  0
   -1.4054   -3.6068    1.0757 O   0  0  0  0  0  0  0  0  0  0  0  0
   -1.1285   -4.0293   -1.5008 C   0  0  0  0  0  0  0  0  0  0  0  0
   -1.2942   -5.5404   -1.4632 C   0  0  0  0  0  0  0  0  0  0  0  0
    3.8079    2.1831    0.2019 C   0  0  0  0  0  0  0  0  0  0  0  0
    3.4172    3.2126    0.7536 O   0  0  0  0  0  0  0  0  0  0  0  0
    5.1205    2.0286   -0.2434 N   0  0  0  0  0  0  0  0  0  0  0  0
    5.6238    1.0215   -1.1763 C   0  0  0  0  0  0  0  0  0  0  0  0
    6.7622    0.2279   -0.5343 C   0  0  0  0  0  0  0  0  0  0  0  0
    7.8588    1.1490    0.0291 C   0  0  0  0  0  0  0  0  0  0  0  0
    7.2637    2.2777    0.8906 C   0  0  0  0  0  0  0  0  0  0  0  0
    6.1246    2.9998    0.1735 C   0  0  0  0  0  0  0  0  0  0  0  0
    8.8658    0.3361    0.8427 C   0  0  0  0  0  0  0  0  0  0  0  0
    4.1912   -0.5330    0.4708 H   0  0  0  0  0  0  0  0  0  0  0  0
    2.5761   -2.3230    0.2138 H   0  0  0  0  0  0  0  0  0  0  0  0
    1.1751    2.4605   -0.1787 H   0  0  0  0  0  0  0  0  0  0  0  0
   -3.1717   -1.6218    0.6959 H   0  0  0  0  0  0  0  0  0  0  0  0
   -3.2415   -1.2162   -1.0350 H   0  0  0  0  0  0  0  0  0  0  0  0
   -2.1863    1.7861   -1.1960 H   0  0  0  0  0  0  0  0  0  0  0  0
   -1.7617    2.1854    0.4842 H   0  0  0  0  0  0  0  0  0  0  0  0
   -2.5858    0.4623    2.2587 H   0  0  0  0  0  0  0  0  0  0  0  0
   -4.2533   -0.0180    1.9388 H   0  0  0  0  0  0  0  0  0  0  0  0
   -3.4029    2.8668    1.4379 H   0  0  0  0  0  0  0  0  0  0  0  0
   -6.1033    1.5750    2.2983 H   0  0  0  0  0  0  0  0  0  0  0  0
   -5.7935    3.3269    1.9164 H   0  0  0  0  0  0  0  0  0  0  0  0
   -4.0558    3.4159    3.7451 H   0  0  0  0  0  0  0  0  0  0  0  0
   -4.3698    1.6653    4.1239 H   0  0  0  0  0  0  0  0  0  0  0  0
   -0.4602   -3.7438   -2.3185 H   0  0  0  0  0  0  0  0  0  0  0  0
   -2.1003   -3.5499   -1.6412 H   0  0  0  0  0  0  0  0  0  0  0  0
   -0.3312   -6.0440   -1.3271 H   0  0  0  0  0  0  0  0  0  0  0  0
   -1.7356   -5.9018   -2.3973 H   0  0  0  0  0  0  0  0  0  0  0  0
   -1.9466   -5.8477   -0.6391 H   0  0  0  0  0  0  0  0  0  0  0  0
    5.9904    1.5550   -2.0613 H   0  0  0  0  0  0  0  0  0  0  0  0
    4.8366    0.3587   -1.5382 H   0  0  0  0  0  0  0  0  0  0  0  0
    7.1925   -0.4554   -1.2758 H   0  0  0  0  0  0  0  0  0  0  0  0
    6.3691   -0.3954    0.2776 H   0  0  0  0  0  0  0  0  0  0  0  0
    8.3874    1.6057   -0.8177 H   0  0  0  0  0  0  0  0  0  0  0  0
    8.0466    2.9982    1.1548 H   0  0  0  0  0  0  0  0  0  0  0  0
    6.8813    1.8589    1.8308 H   0  0  0  0  0  0  0  0  0  0  0  0
    5.7002    3.7604    0.8360 H   0  0  0  0  0  0  0  0  0  0  0  0
    6.4917    3.5116   -0.7240 H   0  0  0  0  0  0  0  0  0  0  0  0
    8.3906   -0.1209    1.7185 H   0  0  0  0  0  0  0  0  0  0  0  0
    9.6832    0.9718    1.1976 H   0  0  0  0  0  0  0  0  0  0  0  0
    9.2984   -0.4677    0.2383 H   0  0  0  0  0  0  0  0  0  0  0  0
  1  6  2  0  0  0  0
  1  2  1  0  0  0  0
  1 22  1  0  0  0  0
  2  3  2  0  0  0  0
  2 31  1  0  0  0  0
  3  4  1  0  0  0  0
  3 32  1  0  0  0  0
  4 16  1  0  0  0  0
  4  5  2  0  0  0  0
  5  6  1  0  0  0  0
  5  7  1  0  0  0  0
  6 33  1  0  0  0  0
  7 11  1  0  0  0  0
  7  8  2  0  0  0  0
  8  9  1  0  0  0  0
  8 16  1  0  0  0  0
  9 10  1  0  0  0  0
  9 34  1  0  0  0  0
  9 35  1  0  0  0  0
 10 11  1  0  0  0  0
 10 12  1  0  0  0  0
 11 36  1  0  0  0  0
 11 37  1  0  0  0  0
 12 13  1  0  0  0  0
 12 38  1  0  0  0  0
 12 39  1  0  0  0  0
 13 15  1  0  0  0  0
 13 14  1  0  0  0  0
 13 40  1  0  0  0  0
 14 15  1  0  0  0  0
 14 41  1  0  0  0  0
 14 42  1  0  0  0  0
 15 43  1  0  0  0  0
 15 44  1  0  0  0  0
 16 17  1  0  0  0  0
 17 18  2  0  0  0  0
 17 19  2  0  0  0  0
 17 20  1  0  0  0  0
 20 21  1  0  0  0  0
 20 45  1  0  0  0  0
 20 46  1  0  0  0  0
 21 47  1  0  0  0  0
 21 48  1  0  0  0  0
 21 49  1  0  0  0  0
 22 23  2  0  0  0  0
 22 24  1  0  0  0  0
 24 29  1  0  0  0  0
 24 25  1  0  0  0  0
 25 26  1  0  0  0  0
 25 50  1  0  0  0  0
 25 51  1  0  0  0  0
 26 27  1  0  0  0  0
 26 52  1  0  0  0  0
 26 53  1  0  0  0  0
 27 28  1  0  0  0  0
 27 30  1  0  0  0  0
 27 54  1  0  0  0  0
 28 29  1  0  0  0  0
 28 55  1  0  0  0  0
 28 56  1  0  0  0  0
 29 57  1  0  0  0  0
 29 58  1  0  0  0  0
 30 59  1  0  0  0  0
 30 60  1  0  0  0  0
 30 61  1  0  0  0  0
M  END
$$$$
CHEMBL394006
 OpenBabel12022418093D

 63 65  0  0  1  0  0  0  0  0999 V2000
    4.1874   -2.4703    3.5388 C   0  0  0  0  0  0  0  0  0  0  0  0
    5.3554   -2.5156    2.8738 C   0  0  0  0  0  0  0  0  0  0  0  0
    6.3169   -3.6366    3.1730 C   0  0  0  0  0  0  0  0  0  0  0  0
    5.8049   -1.5205    1.7839 C   0  0  2  0  0  0  0  0  0  0  0  0
    6.6125   -0.3607    2.3981 C   0  0  0  0  0  0  0  0  0  0  0  0
    5.7497    0.6879    3.1253 C   0  0  0  0  0  0  0  0  0  0  0  0
    4.3298    0.8381    2.6132 C   0  0  0  0  0  0  0  0  0  0  0  0
    3.8434    0.0905    1.5945 C   0  0  0  0  0  0  0  0  0  0  0  0
    4.6479   -0.9646    0.8817 C   0  0  1  0  0  0  0  0  0  0  0  0
    5.1178   -0.4929   -0.5013 C   0  0  0  0  0  0  0  0  0  0  0  0
    5.4490    0.8399   -0.8078 C   0  0  0  0  0  0  0  0  0  0  0  0
    5.7504    1.2593   -2.0958 C   0  0  0  0  0  0  0  0  0  0  0  0
    5.8200    0.3746   -3.1631 C   0  0  0  0  0  0  0  0  0  0  0  0
    6.2386    0.8560   -4.5478 C   0  0  1  0  0  0  0  0  0  0  0  0
    5.2086    0.5878   -5.6318 C   0  0  0  0  0  0  0  0  0  0  0  0
    3.8332    1.2317   -5.4264 C   0  0  0  0  0  0  0  0  0  0  0  0
    2.9439    0.7798   -6.5893 C   0  0  0  0  0  0  0  0  0  0  0  0
    1.5386    1.3561   -6.5283 C   0  0  0  0  0  0  0  0  0  0  0  0
    0.7092    0.8719   -7.7182 C   0  0  0  0  0  0  0  0  0  0  0  0
   -0.6921    1.4513   -7.6614 C   0  0  0  0  0  0  0  0  0  0  0  0
    7.0912    2.1134   -4.6888 C   0  0  0  0  0  0  0  0  0  0  0  0
    7.7338    0.7736   -4.9046 C   0  0  0  0  0  0  0  0  0  0  0  0
    8.3427    0.3805   -6.6742 Br  0  0  0  0  0  0  0  0  0  0  0  0
    9.0331    0.2108   -3.6055 Br  0  0  0  0  0  0  0  0  0  0  0  0
    5.5118   -0.9653   -2.8802 C   0  0  0  0  0  0  0  0  0  0  0  0
    5.1690   -1.3865   -1.5874 C   0  0  0  0  0  0  0  0  0  0  0  0
    4.8722   -2.7196   -1.4857 O   0  0  0  0  0  0  0  0  0  0  0  0
    5.5279    1.8855    0.0647 O   0  0  0  0  0  0  0  0  0  0  0  0
    3.4755    1.8999    3.2306 C   0  0  0  0  0  0  0  0  0  0  0  0
    3.9308   -3.2032    4.2982 H   0  0  0  0  0  0  0  0  0  0  0  0
    3.4430   -1.6971    3.3860 H   0  0  0  0  0  0  0  0  0  0  0  0
    5.9375   -4.3017    3.9573 H   0  0  0  0  0  0  0  0  0  0  0  0
    7.2799   -3.2431    3.5098 H   0  0  0  0  0  0  0  0  0  0  0  0
    6.4733   -4.2447    2.2766 H   0  0  0  0  0  0  0  0  0  0  0  0
    6.4874   -2.0817    1.1277 H   0  0  0  0  0  0  0  0  0  0  0  0
    7.1753    0.1327    1.5929 H   0  0  0  0  0  0  0  0  0  0  0  0
    7.3836   -0.7331    3.0847 H   0  0  0  0  0  0  0  0  0  0  0  0
    6.2534    1.6589    3.0271 H   0  0  0  0  0  0  0  0  0  0  0  0
    5.7280    0.4599    4.1983 H   0  0  0  0  0  0  0  0  0  0  0  0
    2.8340    0.2523    1.2416 H   0  0  0  0  0  0  0  0  0  0  0  0
    3.9490   -1.7968    0.7127 H   0  0  0  0  0  0  0  0  0  0  0  0
    5.9651    2.3146   -2.2373 H   0  0  0  0  0  0  0  0  0  0  0  0
    5.0807   -0.4978   -5.7177 H   0  0  0  0  0  0  0  0  0  0  0  0
    5.5783    0.9349   -6.6012 H   0  0  0  0  0  0  0  0  0  0  0  0
    3.9160    2.3257   -5.4102 H   0  0  0  0  0  0  0  0  0  0  0  0
    3.3810    0.9319   -4.4734 H   0  0  0  0  0  0  0  0  0  0  0  0
    2.8843   -0.3162   -6.5901 H   0  0  0  0  0  0  0  0  0  0  0  0
    3.4137    1.0741   -7.5362 H   0  0  0  0  0  0  0  0  0  0  0  0
    1.5881    2.4511   -6.5346 H   0  0  0  0  0  0  0  0  0  0  0  0
    1.0539    1.0533   -5.5928 H   0  0  0  0  0  0  0  0  0  0  0  0
    0.6524   -0.2236   -7.7188 H   0  0  0  0  0  0  0  0  0  0  0  0
    1.1892    1.1688   -8.6588 H   0  0  0  0  0  0  0  0  0  0  0  0
   -1.1974    1.1494   -6.7387 H   0  0  0  0  0  0  0  0  0  0  0  0
   -1.2873    1.1014   -8.5096 H   0  0  0  0  0  0  0  0  0  0  0  0
   -0.6583    2.5449   -7.6929 H   0  0  0  0  0  0  0  0  0  0  0  0
    7.4029    2.6801   -3.8190 H   0  0  0  0  0  0  0  0  0  0  0  0
    6.9126    2.7589   -5.5420 H   0  0  0  0  0  0  0  0  0  0  0  0
    5.5382   -1.7039   -3.6793 H   0  0  0  0  0  0  0  0  0  0  0  0
    5.1817   -3.0547   -0.6289 H   0  0  0  0  0  0  0  0  0  0  0  0
    5.6248    1.5355    0.9527 H   0  0  0  0  0  0  0  0  0  0  0  0
    4.0342    2.4830    3.9693 H   0  0  0  0  0  0  0  0  0  0  0  0
    2.6093    1.4565    3.7338 H   0  0  0  0  0  0  0  0  0  0  0  0
    3.1200    2.5936    2.4606 H   0  0  0  0  0  0  0  0  0  0  0  0
  1  2  2  0  0  0  0
  1 30  1  0  0  0  0
  1 31  1  0  0  0  0
  2  3  1  0  0  0  0
  3 32  1  0  0  0  0
  3 33  1  0  0  0  0
  3 34  1  0  0  0  0
  4  5  1  0  0  0  0
  4  9  1  0  0  0  0
  4  2  1  0  0  0  0
  4 35  1  6  0  0  0
  5  6  1  0  0  0  0
  5 36  1  0  0  0  0
  5 37  1  0  0  0  0
  6  7  1  0  0  0  0
  6 38  1  0  0  0  0
  6 39  1  0  0  0  0
  7  8  2  0  0  0  0
  7 29  1  0  0  0  0
  8  9  1  0  0  0  0
  8 40  1  0  0  0  0
  9 10  1  0  0  0  0
  9 41  1  6  0  0  0
 10 26  2  0  0  0  0
 10 11  1  0  0  0  0
 11 12  2  0  0  0  0
 11 28  1  0  0  0  0
 12 13  1  0  0  0  0
 12 42  1  0  0  0  0
 13 14  1  0  0  0  0
 13 25  2  0  0  0  0
 14 22  1  0  0  0  0
 14 15  1  6  0  0  0
 14 21  1  0  0  0  0
 15 16  1  0  0  0  0
 15 43  1  0  0  0  0
 15 44  1  0  0  0  0
 16 17  1  0  0  0  0
 16 45  1  0  0  0  0
 16 46  1  0  0  0  0
 17 18  1  0  0  0  0
 17 47  1  0  0  0  0
 17 48  1  0  0  0  0
 18 19  1  0  0  0  0
 18 49  1  0  0  0  0
 18 50  1  0  0  0  0
 19 20  1  0  0  0  0
 19 51  1  0  0  0  0
 19 52  1  0  0  0  0
 20 53  1  0  0  0  0
 20 54  1  0  0  0  0
 20 55  1  0  0  0  0
 21 22  1  0  0  0  0
 21 56  1  0  0  0  0
 21 57  1  0  0  0  0
 22 23  1  0  0  0  0
 22 24  1  0  0  0  0
 25 26  1  0  0  0  0
 25 58  1  0  0  0  0
 26 27  1  0  0  0  0
 27 59  1  0  0  0  0
 28 60  1  0  0  0  0
 29 61  1  0  0  0  0
 29 62  1  0  0  0  0
 29 63  1  0  0  0  0
M  END
$$$$
CHEMBL473063
 OpenBabel12022418093D

 61 64  0  0  1  0  0  0  0  0999 V2000
   -0.4071   -1.1964   -3.3702 C   0  0  0  0  0  0  0  0  0  0  0  0
   -1.6096   -0.9722   -2.5009 C   0  0  0  0  0  0  0  0  0  0  0  0
   -2.1569   -2.1575   -1.9619 C   0  0  0  0  0  0  0  0  0  0  0  0
   -3.2903   -2.1576   -1.1546 C   0  0  0  0  0  0  0  0  0  0  0  0
   -3.9236   -0.9623   -0.8173 C   0  0  0  0  0  0  0  0  0  0  0  0
   -5.1928   -1.0724   -0.0176 C   0  0  0  0  0  0  0  0  0  0  0  0
   -5.5954   -2.1867    0.3115 O   0  0  0  0  0  0  0  0  0  0  0  0
   -5.8970    0.0752    0.3009 N   0  0  0  0  0  0  0  0  0  0  0  0
   -7.1885   -0.0127    0.9829 C   0  0  1  0  0  0  0  0  0  0  0  0
   -7.1146    0.0781    2.5510 C   0  0  0  0  0  0  0  0  0  0  0  0
   -7.5124   -1.2386    3.2395 C   0  0  0  0  0  0  0  0  0  0  0  0
   -5.7135    0.4483    3.0821 C   0  0  0  0  0  0  0  0  0  0  0  0
   -8.1396    1.2237    2.8452 C   0  0  2  0  0  0  0  0  0  0  0  0
   -9.5882    0.7919    2.5292 C   0  0  0  0  0  0  0  0  0  0  0  0
   -9.5992    0.7002    0.9981 C   0  0  0  0  0  0  0  0  0  0  0  0
   -8.1672    1.1512    0.6111 C   0  0  2  0  0  0  0  0  0  0  0  0
   -8.0892    1.6523   -0.8190 C   0  0  0  0  0  0  0  0  0  0  0  0
   -7.8854    2.2007    1.6912 C   0  0  0  0  0  0  0  0  0  0  0  0
   -3.3710    0.2274   -1.3052 C   0  0  0  0  0  0  0  0  0  0  0  0
   -2.2245    0.2488   -2.1770 C   0  0  0  0  0  0  0  0  0  0  0  0
   -1.9184    1.9388   -2.7598 S   0  0  0  0  0  0  0  0  0  0  0  0
   -3.1481    2.2809   -3.4383 O   0  0  0  0  0  0  0  0  0  0  0  0
   -1.5453    2.6637   -1.5562 O   0  0  0  0  0  0  0  0  0  0  0  0
   -0.6668    2.1851   -3.9140 N   0  0  0  0  0  0  0  0  0  0  0  0
   -0.9155    3.4239   -4.7839 C   0  0  0  0  0  0  0  0  0  0  0  0
   -0.6878    4.7265   -3.9983 C   0  0  0  0  0  0  0  0  0  0  0  0
    0.6545    4.8004   -3.4955 O   0  0  0  0  0  0  0  0  0  0  0  0
    1.0053    3.6637   -2.6937 C   0  0  0  0  0  0  0  0  0  0  0  0
    0.7505    2.3224   -3.4175 C   0  0  0  0  0  0  0  0  0  0  0  0
   -0.0785   -0.3154   -3.8960 H   0  0  0  0  0  0  0  0  0  0  0  0
   -0.6377   -1.9630   -4.1235 H   0  0  0  0  0  0  0  0  0  0  0  0
    0.4195   -1.5813   -2.7543 H   0  0  0  0  0  0  0  0  0  0  0  0
   -1.7051   -3.1239   -2.1914 H   0  0  0  0  0  0  0  0  0  0  0  0
   -3.6945   -3.1057   -0.7991 H   0  0  0  0  0  0  0  0  0  0  0  0
   -5.4961    0.9878    0.1475 H   0  0  0  0  0  0  0  0  0  0  0  0
   -7.6484   -0.9622    0.6804 H   0  0  0  0  0  0  0  0  0  0  0  0
   -6.7191   -1.9884    3.1534 H   0  0  0  0  0  0  0  0  0  0  0  0
   -8.4146   -1.6837    2.8104 H   0  0  0  0  0  0  0  0  0  0  0  0
   -7.6968   -1.0693    4.3076 H   0  0  0  0  0  0  0  0  0  0  0  0
   -4.9889   -0.3436    2.8562 H   0  0  0  0  0  0  0  0  0  0  0  0
   -5.7295    0.5673    4.1712 H   0  0  0  0  0  0  0  0  0  0  0  0
   -5.3272    1.3780    2.6558 H   0  0  0  0  0  0  0  0  0  0  0  0
   -8.0395    1.6580    3.8433 H   0  0  0  0  0  0  0  0  0  0  0  0
  -10.2963    1.5628    2.8566 H   0  0  0  0  0  0  0  0  0  0  0  0
   -9.8974   -0.1417    3.0050 H   0  0  0  0  0  0  0  0  0  0  0  0
  -10.3650    1.3700    0.5894 H   0  0  0  0  0  0  0  0  0  0  0  0
   -9.8255   -0.3134    0.6500 H   0  0  0  0  0  0  0  0  0  0  0  0
   -8.3011    0.8432   -1.5256 H   0  0  0  0  0  0  0  0  0  0  0  0
   -7.1011    2.0605   -1.0535 H   0  0  0  0  0  0  0  0  0  0  0  0
   -8.8167    2.4520   -0.9973 H   0  0  0  0  0  0  0  0  0  0  0  0
   -6.8706    2.6046    1.6599 H   0  0  0  0  0  0  0  0  0  0  0  0
   -8.5971    3.0353    1.6801 H   0  0  0  0  0  0  0  0  0  0  0  0
   -3.8323    1.1771   -1.0533 H   0  0  0  0  0  0  0  0  0  0  0  0
   -1.9098    3.4000   -5.2367 H   0  0  0  0  0  0  0  0  0  0  0  0
   -0.1988    3.3932   -5.6172 H   0  0  0  0  0  0  0  0  0  0  0  0
   -1.4032    4.8546   -3.1802 H   0  0  0  0  0  0  0  0  0  0  0  0
   -0.8139    5.5837   -4.6699 H   0  0  0  0  0  0  0  0  0  0  0  0
    0.5003    3.7274   -1.7285 H   0  0  0  0  0  0  0  0  0  0  0  0
    2.0754    3.7577   -2.4824 H   0  0  0  0  0  0  0  0  0  0  0  0
    1.3957    2.3134   -4.3133 H   0  0  0  0  0  0  0  0  0  0  0  0
    1.0448    1.4690   -2.8114 H   0  0  0  0  0  0  0  0  0  0  0  0
  1  2  1  0  0  0  0
  1 30  1  0  0  0  0
  1 31  1  0  0  0  0
  1 32  1  0  0  0  0
  2 20  2  0  0  0  0
  2  3  1  0  0  0  0
  3  4  2  0  0  0  0
  3 33  1  0  0  0  0
  4  5  1  0  0  0  0
  4 34  1  0  0  0  0
  5  6  1  0  0  0  0
  5 19  2  0  0  0  0
  6  7  2  0  0  0  0
  6  8  1  0  0  0  0
  8 35  1  0  0  0  0
  9 10  1  0  0  0  0
  9 16  1  0  0  0  0
  9  8  1  0  0  0  0
  9 36  1  6  0  0  0
 10 11  1  0  0  0  0
 10 12  1  0  0  0  0
 10 13  1  0  0  0  0
 11 37  1  0  0  0  0
 11 38  1  0  0  0  0
 11 39  1  0  0  0  0
 12 40  1  0  0  0  0
 12 41  1  0  0  0  0
 12 42  1  0  0  0  0
 13 14  1  0  0  0  0
 13 18  1  0  0  0  0
 13 43  1  1  0  0  0
 14 15  1  0  0  0  0
 14 44  1  0  0  0  0
 14 45  1  0  0  0  0
 15 16  1  0  0  0  0
 15 46  1  0  0  0  0
 15 47  1  0  0  0  0
 16 17  1  6  0  0  0
 16 18  1  0  0  0  0
 17 48  1  0  0  0  0
 17 49  1  0  0  0  0
 17 50  1  0  0  0  0
 18 51  1  0  0  0  0
 18 52  1  0  0  0  0
 19 20  1  0  0  0  0
 19 53  1  0  0  0  0
 20 21  1  0  0  0  0
 21 22  2  0  0  0  0
 21 23  2  0  0  0  0
 21 24  1  0  0  0  0
 24 29  1  0  0  0  0
 24 25  1  0  0  0  0
 25 26  1  0  0  0  0
 25 54  1  0  0  0  0
 25 55  1  0  0  0  0
 26 27  1  0  0  0  0
 26 56  1  0  0  0  0
 26 57  1  0  0  0  0
 27 28  1  0  0  0  0
 28 29  1  0  0  0  0
 28 58  1  0  0  0  0
 28 59  1  0  0  0  0
 29 60  1  0  0  0  0
 29 61  1  0  0  0  0
M  END
$$$$
CHEMBL73711
 OpenBabel12022418093D

 54 57  0  0  0  0  0  0  0  0999 V2000
    1.0832    0.2795   -0.1248 C   0  0  0  0  0  0  0  0  0  0  0  0
    2.4458   -0.1121    0.0100 O   0  0  0  0  0  0  0  0  0  0  0  0
    3.0066   -0.6976   -1.0927 C   0  0  0  0  0  0  0  0  0  0  0  0
    2.6359   -0.4465   -2.4046 C   0  0  0  0  0  0  0  0  0  0  0  0
    3.3024   -1.0657   -3.4699 C   0  0  0  0  0  0  0  0  0  0  0  0
    4.3231   -2.0046   -3.2047 C   0  0  0  0  0  0  0  0  0  0  0  0
    4.7201   -2.2522   -1.8861 C   0  0  0  0  0  0  0  0  0  0  0  0
    5.7826   -3.2043   -1.9198 C   0  0  0  0  0  0  0  0  0  0  0  0
    6.0113   -3.5161   -3.2504 C   0  0  0  0  0  0  0  0  0  0  0  0
    6.9883   -4.4905   -3.8339 C   0  0  0  0  0  0  0  0  0  0  0  0
    5.1227   -2.7909   -4.0531 N   0  0  0  0  0  0  0  0  0  0  0  0
    5.0428   -2.8820   -5.4735 C   0  0  0  0  0  0  0  0  0  0  0  0
    6.0251   -3.2966   -6.0802 O   0  0  0  0  0  0  0  0  0  0  0  0
    3.8190   -2.6095   -6.2635 C   0  0  0  0  0  0  0  0  0  0  0  0
    3.8319   -1.8981   -7.4732 C   0  0  0  0  0  0  0  0  0  0  0  0
    2.6119   -1.6827   -8.1367 C   0  0  0  0  0  0  0  0  0  0  0  0
    1.4108   -2.1603   -7.5989 C   0  0  0  0  0  0  0  0  0  0  0  0
    1.4108   -2.8969   -6.4209 C   0  0  0  0  0  0  0  0  0  0  0  0
    2.6151   -3.1485   -5.7723 C   0  0  0  0  0  0  0  0  0  0  0  0
    2.5011   -0.8133   -9.6307 Cl  0  0  0  0  0  0  0  0  0  0  0  0
    5.3006   -1.2536   -8.1330 Cl  0  0  0  0  0  0  0  0  0  0  0  0
    6.5171   -3.7485   -0.7177 C   0  0  0  0  0  0  0  0  0  0  0  0
    7.9917   -3.3119   -0.7244 C   0  0  0  0  0  0  0  0  0  0  0  0
    8.7812   -3.6788    0.4679 N   0  0  0  0  0  0  0  0  0  0  0  0
    8.3484   -2.9704    1.6941 C   0  0  0  0  0  0  0  0  0  0  0  0
    8.6196   -1.4562    1.6642 C   0  0  0  0  0  0  0  0  0  0  0  0
   10.0056   -1.1778    1.4242 O   0  0  0  0  0  0  0  0  0  0  0  0
   10.4626   -1.8035    0.2178 C   0  0  0  0  0  0  0  0  0  0  0  0
   10.2077   -3.3224    0.2438 C   0  0  0  0  0  0  0  0  0  0  0  0
    4.0662   -1.5703   -0.8326 C   0  0  0  0  0  0  0  0  0  0  0  0
    0.7346    0.6202    0.8549 H   0  0  0  0  0  0  0  0  0  0  0  0
    0.4605   -0.5698   -0.4267 H   0  0  0  0  0  0  0  0  0  0  0  0
    0.9707    1.1168   -0.8204 H   0  0  0  0  0  0  0  0  0  0  0  0
    1.8444    0.2570   -2.6435 H   0  0  0  0  0  0  0  0  0  0  0  0
    3.0088   -0.7966   -4.4782 H   0  0  0  0  0  0  0  0  0  0  0  0
    7.4938   -5.0718   -3.0619 H   0  0  0  0  0  0  0  0  0  0  0  0
    7.7595   -3.9629   -4.4079 H   0  0  0  0  0  0  0  0  0  0  0  0
    6.4786   -5.2088   -4.4821 H   0  0  0  0  0  0  0  0  0  0  0  0
    0.4650   -1.9616   -8.0996 H   0  0  0  0  0  0  0  0  0  0  0  0
    0.4800   -3.2721   -6.0022 H   0  0  0  0  0  0  0  0  0  0  0  0
    2.6017   -3.7421   -4.8604 H   0  0  0  0  0  0  0  0  0  0  0  0
    6.4393   -4.8422   -0.7035 H   0  0  0  0  0  0  0  0  0  0  0  0
    6.0215   -3.3909    0.1898 H   0  0  0  0  0  0  0  0  0  0  0  0
    8.0324   -2.2356   -0.9221 H   0  0  0  0  0  0  0  0  0  0  0  0
    8.4739   -3.7887   -1.5852 H   0  0  0  0  0  0  0  0  0  0  0  0
    8.9098   -3.4019    2.5339 H   0  0  0  0  0  0  0  0  0  0  0  0
    7.2955   -3.1675    1.9169 H   0  0  0  0  0  0  0  0  0  0  0  0
    8.3621   -1.0204    2.6342 H   0  0  0  0  0  0  0  0  0  0  0  0
    8.0083   -0.9483    0.9091 H   0  0  0  0  0  0  0  0  0  0  0  0
   11.5365   -1.6123    0.1324 H   0  0  0  0  0  0  0  0  0  0  0  0
    9.9845   -1.3207   -0.6427 H   0  0  0  0  0  0  0  0  0  0  0  0
   10.5766   -3.7857   -0.6791 H   0  0  0  0  0  0  0  0  0  0  0  0
   10.7941   -3.7626    1.0608 H   0  0  0  0  0  0  0  0  0  0  0  0
    4.3726   -1.7327    0.1976 H   0  0  0  0  0  0  0  0  0  0  0  0
  1  2  1  0  0  0  0
  1 31  1  0  0  0  0
  1 32  1  0  0  0  0
  1 33  1  0  0  0  0
  2  3  1  0  0  0  0
  3 30  2  0  0  0  0
  3  4  1  0  0  0  0
  4  5  2  0  0  0  0
  4 34  1  0  0  0  0
  5  6  1  0  0  0  0
  5 35  1  0  0  0  0
  6 11  1  0  0  0  0
  6  7  2  0  0  0  0
  7  8  1  0  0  0  0
  7 30  1  0  0  0  0
  8  9  2  0  0  0  0
  8 22  1  0  0  0  0
  9 10  1  0  0  0  0
  9 11  1  0  0  0  0
 10 36  1  0  0  0  0
 10 37  1  0  0  0  0
 10 38  1  0  0  0  0
 11 12  1  0  0  0  0
 12 13  2  0  0  0  0
 12 14  1  0  0  0  0
 14 19  2  0  0  0  0
 14 15  1  0  0  0  0
 15 16  2  0  0  0  0
 15 21  1  0  0  0  0
 16 17  1  0  0  0  0
 16 20  1  0  0  0  0
 17 18  2  0  0  0  0
 17 39  1  0  0  0  0
 18 19  1  0  0  0  0
 18 40  1  0  0  0  0
 19 41  1  0  0  0  0
 22 23  1  0  0  0  0
 22 42  1  0  0  0  0
 22 43  1  0  0  0  0
 23 24  1  0  0  0  0
 23 44  1  0  0  0  0
 23 45  1  0  0  0  0
 24 29  1  0  0  0  0
 24 25  1  0  0  0  0
 25 26  1  0  0  0  0
 25 46  1  0  0  0  0
 25 47  1  0  0  0  0
 26 27  1  0  0  0  0
 26 48  1  0  0  0  0
 26 49  1  0  0  0  0
 27 28  1  0  0  0  0
 28 29  1  0  0  0  0
 28 50  1  0  0  0  0
 28 51  1  0  0  0  0
 29 52  1  0  0  0  0
 29 53  1  0  0  0  0
 30 54  1  0  0  0  0
M  END
$$$$
CHEMBL519575
 OpenBabel12022418093D

 54 57  0  0  1  0  0  0  0  0999 V2000
    1.8883   -0.3383    1.7277 C   0  0  0  0  0  0  0  0  0  0  0  0
    3.2903   -0.7915    1.4255 C   0  0  0  0  0  0  0  0  0  0  0  0
    3.7543   -0.5715    0.1825 C   0  0  0  0  0  0  0  0  0  0  0  0
    4.9936   -1.2189   -0.3008 C   0  0  0  0  0  0  0  0  0  0  0  0
    5.1575   -2.5854    0.3528 C   0  0  1  0  0  0  0  0  0  0  0  0
    5.2893   -2.4438    1.8716 C   0  0  1  0  0  0  0  0  0  0  0  0
    4.0722   -1.6306    2.4587 C   0  0  0  0  0  0  0  0  0  0  0  0
    5.6062   -3.8384    2.4089 C   0  0  0  0  0  0  0  0  0  0  0  0
    6.2957   -4.0950    3.6054 C   0  0  0  0  0  0  0  0  0  0  0  0
    6.7154   -5.4011    3.9578 C   0  0  0  0  0  0  0  0  0  0  0  0
    6.4708   -6.5166    3.1332 C   0  0  0  0  0  0  0  0  0  0  0  0
    6.8970   -7.9659    3.5039 C   0  0  0  0  0  0  0  0  0  0  0  0
    7.0991   -8.8312    2.2216 C   0  0  0  0  0  0  0  0  0  0  0  0
    8.2713   -7.9621    4.2229 C   0  0  0  0  0  0  0  0  0  0  0  0
    5.8375   -8.6349    4.4084 C   0  0  0  0  0  0  0  0  0  0  0  0
    4.6617   -8.1046    4.9180 C   0  0  0  0  0  0  0  0  0  0  0  0
    3.9347   -9.0234    5.7282 C   0  0  0  0  0  0  0  0  0  0  0  0
    4.5623  -10.2423    5.8136 C   0  0  0  0  0  0  0  0  0  0  0  0
    6.0191  -10.2738    4.9289 S   0  0  0  0  0  0  0  0  0  0  0  0
    5.7551   -6.2641    1.9600 C   0  0  0  0  0  0  0  0  0  0  0  0
    5.3603   -4.9724    1.5982 C   0  0  0  0  0  0  0  0  0  0  0  0
    4.7682   -4.9440    0.3527 O   0  0  0  0  0  0  0  0  0  0  0  0
    4.1049   -3.7085    0.0334 C   0  0  0  0  0  0  0  0  0  0  0  0
    2.7474   -3.8004    0.7673 C   0  0  0  0  0  0  0  0  0  0  0  0
    3.7852   -3.7459   -1.4657 C   0  0  0  0  0  0  0  0  0  0  0  0
    6.6531   -3.1113    4.4841 O   0  0  0  0  0  0  0  0  0  0  0  0
    1.8045    0.7517    1.6802 H   0  0  0  0  0  0  0  0  0  0  0  0
    1.5466   -0.6825    2.7065 H   0  0  0  0  0  0  0  0  0  0  0  0
    1.1978   -0.7565    0.9825 H   0  0  0  0  0  0  0  0  0  0  0  0
    3.1821    0.0027   -0.5447 H   0  0  0  0  0  0  0  0  0  0  0  0
    5.8500   -0.5750   -0.0575 H   0  0  0  0  0  0  0  0  0  0  0  0
    4.9843   -1.3102   -1.3912 H   0  0  0  0  0  0  0  0  0  0  0  0
    6.1302   -2.9556   -0.0254 H   0  0  0  0  0  0  0  0  0  0  0  0
    6.1869   -1.8266    2.0507 H   0  0  0  0  0  0  0  0  0  0  0  0
    3.3816   -2.2897    2.9900 H   0  0  0  0  0  0  0  0  0  0  0  0
    4.4475   -0.9337    3.2175 H   0  0  0  0  0  0  0  0  0  0  0  0
    7.2519   -5.5173    4.8979 H   0  0  0  0  0  0  0  0  0  0  0  0
    7.7903   -8.3476    1.5181 H   0  0  0  0  0  0  0  0  0  0  0  0
    6.1570   -9.0230    1.6939 H   0  0  0  0  0  0  0  0  0  0  0  0
    7.5203   -9.8174    2.4486 H   0  0  0  0  0  0  0  0  0  0  0  0
    9.0321   -7.4508    3.6203 H   0  0  0  0  0  0  0  0  0  0  0  0
    8.6394   -8.9812    4.3980 H   0  0  0  0  0  0  0  0  0  0  0  0
    8.2277   -7.4773    5.2037 H   0  0  0  0  0  0  0  0  0  0  0  0
    4.3282   -7.0916    4.7253 H   0  0  0  0  0  0  0  0  0  0  0  0
    2.9977   -8.7978    6.2214 H   0  0  0  0  0  0  0  0  0  0  0  0
    4.2358  -11.1191    6.3553 H   0  0  0  0  0  0  0  0  0  0  0  0
    5.4983   -7.0643    1.2709 H   0  0  0  0  0  0  0  0  0  0  0  0
    2.8448   -3.9307    1.8487 H   0  0  0  0  0  0  0  0  0  0  0  0
    2.2173   -4.7110    0.4564 H   0  0  0  0  0  0  0  0  0  0  0  0
    2.0823   -2.9636    0.5576 H   0  0  0  0  0  0  0  0  0  0  0  0
    4.6978   -3.8099   -2.0664 H   0  0  0  0  0  0  0  0  0  0  0  0
    3.2163   -2.8610   -1.7702 H   0  0  0  0  0  0  0  0  0  0  0  0
    3.1839   -4.6283   -1.7132 H   0  0  0  0  0  0  0  0  0  0  0  0
    6.4316   -2.2437    4.1137 H   0  0  0  0  0  0  0  0  0  0  0  0
  1  2  1  0  0  0  0
  1 27  1  0  0  0  0
  1 28  1  0  0  0  0
  1 29  1  0  0  0  0
  2  7  1  0  0  0  0
  2  3  2  0  0  0  0
  3  4  1  0  0  0  0
  3 30  1  0  0  0  0
  4 31  1  0  0  0  0
  4 32  1  0  0  0  0
  5  4  1  0  0  0  0
  5  6  1  0  0  0  0
  5 23  1  0  0  0  0
  5 33  1  6  0  0  0
  6  7  1  0  0  0  0
  6  8  1  0  0  0  0
  6 34  1  1  0  0  0
  7 35  1  0  0  0  0
  7 36  1  0  0  0  0
  8 21  2  0  0  0  0
  8  9  1  0  0  0  0
  9 10  2  0  0  0  0
  9 26  1  0  0  0  0
 10 11  1  0  0  0  0
 10 37  1  0  0  0  0
 11 12  1  0  0  0  0
 11 20  2  0  0  0  0
 12 13  1  0  0  0  0
 12 14  1  0  0  0  0
 12 15  1  0  0  0  0
 13 38  1  0  0  0  0
 13 39  1  0  0  0  0
 13 40  1  0  0  0  0
 14 41  1  0  0  0  0
 14 42  1  0  0  0  0
 14 43  1  0  0  0  0
 15 19  1  0  0  0  0
 15 16  2  0  0  0  0
 16 17  1  0  0  0  0
 16 44  1  0  0  0  0
 17 18  2  0  0  0  0
 17 45  1  0  0  0  0
 18 19  1  0  0  0  0
 18 46  1  0  0  0  0
 20 21  1  0  0  0  0
 20 47  1  0  0  0  0
 21 22  1  0  0  0  0
 22 23  1  0  0  0  0
 23 24  1  0  0  0  0
 23 25  1  0  0  0  0
 24 48  1  0  0  0  0
 24 49  1  0  0  0  0
 24 50  1  0  0  0  0
 25 51  1  0  0  0  0
 25 52  1  0  0  0  0
 25 53  1  0  0  0  0
 26 54  1  0  0  0  0
M  END
$$$$
CHEMBL598463
 OpenBabel12022418093D

 45 47  0  0  0  0  0  0  0  0999 V2000
    1.5135    0.2516    0.1820 C   0  0  0  0  0  0  0  0  0  0  0  0
    2.9627   -0.0770    0.1022 C   0  0  0  0  0  0  0  0  0  0  0  0
    3.8845    0.8640    0.1010 N   0  0  0  0  0  0  0  0  0  0  0  0
    5.1047    0.2375    0.0943 C   0  0  0  0  0  0  0  0  0  0  0  0
    6.3688    0.9890    0.0186 C   0  0  0  0  0  0  0  0  0  0  0  0
    6.4928    2.0194   -0.6346 O   0  0  0  0  0  0  0  0  0  0  0  0
    7.4061    0.4387    0.7475 N   0  0  0  0  0  0  0  0  0  0  0  0
    8.7490    0.9649    0.6756 C   0  0  0  0  0  0  0  0  0  0  0  0
    9.3262    1.1989    2.0531 C   0  0  0  0  0  0  0  0  0  0  0  0
    9.1431    2.4813    2.6101 C   0  0  0  0  0  0  0  0  0  0  0  0
    9.6696    2.8140    3.8576 C   0  0  0  0  0  0  0  0  0  0  0  0
   10.3851    1.8692    4.5798 C   0  0  0  0  0  0  0  0  0  0  0  0
   10.5513    0.5856    4.0622 C   0  0  0  0  0  0  0  0  0  0  0  0
   10.0151    0.2211    2.8057 C   0  0  0  0  0  0  0  0  0  0  0  0
   10.2321   -1.2122    2.3702 C   0  0  0  0  0  0  0  0  0  0  0  0
    9.5987   -1.5735    1.2214 F   0  0  0  0  0  0  0  0  0  0  0  0
   11.5487   -1.5035    2.1784 F   0  0  0  0  0  0  0  0  0  0  0  0
    9.7907   -2.1013    3.3072 F   0  0  0  0  0  0  0  0  0  0  0  0
    4.9237   -1.1405    0.0669 C   0  0  0  0  0  0  0  0  0  0  0  0
    5.9423   -2.2075   -0.1542 C   0  0  0  0  0  0  0  0  0  0  0  0
    3.5376   -1.3488    0.1008 N   0  0  0  0  0  0  0  0  0  0  0  0
    2.8850   -2.6228    0.0605 C   0  0  0  0  0  0  0  0  0  0  0  0
    3.4712   -3.7313    0.6911 C   0  0  0  0  0  0  0  0  0  0  0  0
    2.9450   -5.0131    0.5213 C   0  0  0  0  0  0  0  0  0  0  0  0
    1.7916   -5.1943   -0.2330 C   0  0  0  0  0  0  0  0  0  0  0  0
    1.1578   -4.0923   -0.8041 C   0  0  0  0  0  0  0  0  0  0  0  0
    1.7051   -2.8106   -0.6698 C   0  0  0  0  0  0  0  0  0  0  0  0
    0.8782   -0.5808    0.4822 H   0  0  0  0  0  0  0  0  0  0  0  0
    1.1671    0.6353   -0.7857 H   0  0  0  0  0  0  0  0  0  0  0  0
    1.3580    1.0448    0.9222 H   0  0  0  0  0  0  0  0  0  0  0  0
    7.2312   -0.3768    1.3097 H   0  0  0  0  0  0  0  0  0  0  0  0
    8.7688    1.8997    0.1036 H   0  0  0  0  0  0  0  0  0  0  0  0
    9.3630    0.2689    0.0974 H   0  0  0  0  0  0  0  0  0  0  0  0
    8.5847    3.2387    2.0594 H   0  0  0  0  0  0  0  0  0  0  0  0
    9.5210    3.8133    4.2596 H   0  0  0  0  0  0  0  0  0  0  0  0
   10.8069    2.1282    5.5478 H   0  0  0  0  0  0  0  0  0  0  0  0
   11.1067   -0.1468    4.6493 H   0  0  0  0  0  0  0  0  0  0  0  0
    6.8499   -1.8023   -0.6109 H   0  0  0  0  0  0  0  0  0  0  0  0
    5.5807   -2.9785   -0.8411 H   0  0  0  0  0  0  0  0  0  0  0  0
    6.2317   -2.6668    0.7955 H   0  0  0  0  0  0  0  0  0  0  0  0
    4.3405   -3.6257    1.3329 H   0  0  0  0  0  0  0  0  0  0  0  0
    3.4425   -5.8679    0.9732 H   0  0  0  0  0  0  0  0  0  0  0  0
    1.3886   -6.1935   -0.3779 H   0  0  0  0  0  0  0  0  0  0  0  0
    0.2494   -4.2361   -1.3847 H   0  0  0  0  0  0  0  0  0  0  0  0
    1.2205   -1.9988   -1.2037 H   0  0  0  0  0  0  0  0  0  0  0  0
  1  2  1  0  0  0  0
  1 28  1  0  0  0  0
  1 29  1  0  0  0  0
  1 30  1  0  0  0  0
  2 21  1  0  0  0  0
  2  3  2  0  0  0  0
  3  4  1  0  0  0  0
  4  5  1  0  0  0  0
  4 19  2  0  0  0  0
  5  6  2  0  0  0  0
  5  7  1  0  0  0  0
  7  8  1  0  0  0  0
  7 31  1  0  0  0  0
  8  9  1  0  0  0  0
  8 32  1  0  0  0  0
  8 33  1  0  0  0  0
  9 14  2  0  0  0  0
  9 10  1  0  0  0  0
 10 11  2  0  0  0  0
 10 34  1  0  0  0  0
 11 12  1  0  0  0  0
 11 35  1  0  0  0  0
 12 13  2  0  0  0  0
 12 36  1  0  0  0  0
 13 14  1  0  0  0  0
 13 37  1  0  0  0  0
 14 15  1  0  0  0  0
 15 16  1  0  0  0  0
 15 17  1  0  0  0  0
 15 18  1  0  0  0  0
 19 20  1  0  0  0  0
 19 21  1  0  0  0  0
 20 38  1  0  0  0  0
 20 39  1  0  0  0  0
 20 40  1  0  0  0  0
 21 22  1  0  0  0  0
 22 27  2  0  0  0  0
 22 23  1  0  0  0  0
 23 24  2  0  0  0  0
 23 41  1  0  0  0  0
 24 25  1  0  0  0  0
 24 42  1  0  0  0  0
 25 26  2  0  0  0  0
 25 43  1  0  0  0  0
 26 27  1  0  0  0  0
 26 44  1  0  0  0  0
 27 45  1  0  0  0  0
M  END
$$$$
CHEMBL361032
 OpenBabel12022418093D

 49 51  0  0  0  0  0  0  0  0999 V2000
    0.8380    4.3605   -3.3638 C   0  0  0  0  0  0  0  0  0  0  0  0
    2.3551    4.3388   -3.4330 C   0  0  0  0  0  0  0  0  0  0  0  0
    2.9250    3.1156   -2.7144 C   0  0  0  0  0  0  0  0  0  0  0  0
    4.4505    3.1000   -2.8044 C   0  0  0  0  0  0  0  0  0  0  0  0
    5.0410    1.9424   -1.9942 C   0  0  0  0  0  0  0  0  0  0  0  0
    6.4988    1.8824   -2.0343 N   0  0  0  0  0  0  0  0  0  0  0  0
    7.2854    0.8608   -2.5340 C   0  0  0  0  0  0  0  0  0  0  0  0
    6.7464   -0.3744   -3.1920 C   0  0  0  0  0  0  0  0  0  0  0  0
    8.6290    1.2071   -2.3202 C   0  0  0  0  0  0  0  0  0  0  0  0
    9.7886    0.3516   -2.6636 C   0  0  0  0  0  0  0  0  0  0  0  0
    9.6864   -0.8751   -2.6850 O   0  0  0  0  0  0  0  0  0  0  0  0
   11.1232    1.0000   -3.0351 C   0  0  0  0  0  0  0  0  0  0  0  0
   12.0690    1.3503   -1.8918 C   0  0  0  0  0  0  0  0  0  0  0  0
   12.0459    0.6354   -0.6816 C   0  0  0  0  0  0  0  0  0  0  0  0
   12.8392    1.0302    0.4029 C   0  0  0  0  0  0  0  0  0  0  0  0
   13.6811    2.1339    0.2981 C   0  0  0  0  0  0  0  0  0  0  0  0
   13.7463    2.8376   -0.9005 C   0  0  0  0  0  0  0  0  0  0  0  0
   12.9651    2.4400   -1.9927 C   0  0  0  0  0  0  0  0  0  0  0  0
   13.0631    3.4207   -3.4161 Cl  0  0  0  0  0  0  0  0  0  0  0  0
    8.6246    2.5056   -1.7075 C   0  0  0  0  0  0  0  0  0  0  0  0
    9.6156    3.4065   -1.2644 C   0  0  0  0  0  0  0  0  0  0  0  0
    9.3038    4.6189   -0.6539 C   0  0  0  0  0  0  0  0  0  0  0  0
    7.9837    4.9576   -0.4507 C   0  0  0  0  0  0  0  0  0  0  0  0
    6.9657    4.0891   -0.8504 C   0  0  0  0  0  0  0  0  0  0  0  0
    7.2990    2.8818   -1.4980 C   0  0  0  0  0  0  0  0  0  0  0  0
    0.4478    5.2347   -3.8932 H   0  0  0  0  0  0  0  0  0  0  0  0
    0.4954    4.4092   -2.3252 H   0  0  0  0  0  0  0  0  0  0  0  0
    0.4140    3.4632   -3.8249 H   0  0  0  0  0  0  0  0  0  0  0  0
    2.7486    5.2568   -2.9809 H   0  0  0  0  0  0  0  0  0  0  0  0
    2.6713    4.3336   -4.4825 H   0  0  0  0  0  0  0  0  0  0  0  0
    2.5208    2.1995   -3.1529 H   0  0  0  0  0  0  0  0  0  0  0  0
    2.6178    3.1388   -1.6602 H   0  0  0  0  0  0  0  0  0  0  0  0
    4.8220    4.0636   -2.4453 H   0  0  0  0  0  0  0  0  0  0  0  0
    4.7672    3.0256   -3.8520 H   0  0  0  0  0  0  0  0  0  0  0  0
    4.6259    1.0028   -2.3561 H   0  0  0  0  0  0  0  0  0  0  0  0
    4.7625    2.0174   -0.9363 H   0  0  0  0  0  0  0  0  0  0  0  0
    5.6596   -0.3881   -3.2979 H   0  0  0  0  0  0  0  0  0  0  0  0
    7.0227   -1.2651   -2.6196 H   0  0  0  0  0  0  0  0  0  0  0  0
    7.1550   -0.4709   -4.2036 H   0  0  0  0  0  0  0  0  0  0  0  0
   10.8737    1.8811   -3.6282 H   0  0  0  0  0  0  0  0  0  0  0  0
   11.6514    0.3113   -3.7053 H   0  0  0  0  0  0  0  0  0  0  0  0
   11.3837   -0.2188   -0.5485 H   0  0  0  0  0  0  0  0  0  0  0  0
   12.7845    0.4816    1.3411 H   0  0  0  0  0  0  0  0  0  0  0  0
   14.2806    2.4491    1.1490 H   0  0  0  0  0  0  0  0  0  0  0  0
   14.3894    3.7123   -0.9714 H   0  0  0  0  0  0  0  0  0  0  0  0
   10.6609    3.1957   -1.3767 H   0  0  0  0  0  0  0  0  0  0  0  0
   10.1073    5.2777   -0.3404 H   0  0  0  0  0  0  0  0  0  0  0  0
    7.7407    5.9029    0.0239 H   0  0  0  0  0  0  0  0  0  0  0  0
    5.9372    4.3725   -0.6606 H   0  0  0  0  0  0  0  0  0  0  0  0
  1  2  1  0  0  0  0
  1 26  1  0  0  0  0
  1 27  1  0  0  0  0
  1 28  1  0  0  0  0
  2  3  1  0  0  0  0
  2 29  1  0  0  0  0
  2 30  1  0  0  0  0
  3  4  1  0  0  0  0
  3 31  1  0  0  0  0
  3 32  1  0  0  0  0
  4  5  1  0  0  0  0
  4 33  1  0  0  0  0
  4 34  1  0  0  0  0
  5  6  1  0  0  0  0
  5 35  1  0  0  0  0
  5 36  1  0  0  0  0
  6 25  1  0  0  0  0
  6  7  1  0  0  0  0
  7  8  1  0  0  0  0
  7  9  2  0  0  0  0
  8 37  1  0  0  0  0
  8 38  1  0  0  0  0
  8 39  1  0  0  0  0
  9 10  1  0  0  0  0
  9 20  1  0  0  0  0
 10 11  2  0  0  0  0
 10 12  1  0  0  0  0
 12 13  1  0  0  0  0
 12 40  1  0  0  0  0
 12 41  1  0  0  0  0
 13 18  2  0  0  0  0
 13 14  1  0  0  0  0
 14 15  2  0  0  0  0
 14 42  1  0  0  0  0
 15 16  1  0  0  0  0
 15 43  1  0  0  0  0
 16 17  2  0  0  0  0
 16 44  1  0  0  0  0
 17 18  1  0  0  0  0
 17 45  1  0  0  0  0
 18 19  1  0  0  0  0
 20 25  2  0  0  0  0
 20 21  1  0  0  0  0
 21 22  2  0  0  0  0
 21 46  1  0  0  0  0
 22 23  1  0  0  0  0
 22 47  1  0  0  0  0
 23 24  2  0  0  0  0
 23 48  1  0  0  0  0
 24 25  1  0  0  0  0
 24 49  1  0  0  0  0
M  END
$$$$
CHEMBL497811
 OpenBabel12022418093D

 46 49  0  0  0  0  0  0  0  0999 V2000
    2.6423    2.0572    1.2879 C   0  0  0  0  0  0  0  0  0  0  0  0
    2.5912    0.9326    0.2708 C   0  0  0  0  0  0  0  0  0  0  0  0
    3.1710    1.3393   -1.0929 C   0  0  0  0  0  0  0  0  0  0  0  0
    4.6105    1.6144   -1.1291 N   0  0  0  0  0  0  0  0  0  0  0  0
    5.2105    2.8372   -1.3170 C   0  0  0  0  0  0  0  0  0  0  0  0
    6.5979    2.6902   -1.5724 C   0  0  0  0  0  0  0  0  0  0  0  0
    7.5217    3.8038   -2.1930 C   0  0  0  0  0  0  0  0  0  0  0  0
    7.5063    4.9594   -1.7757 O   0  0  0  0  0  0  0  0  0  0  0  0
    8.3158    3.4475   -3.5082 C   0  0  0  0  0  0  0  0  0  0  0  0
    8.0374    2.1214   -3.8663 C   0  0  0  0  0  0  0  0  0  0  0  0
    8.6874    1.6072   -4.9382 C   0  0  0  0  0  0  0  0  0  0  0  0
    8.3273    2.4154   -5.9763 C   0  0  0  0  0  0  0  0  0  0  0  0
    7.0692    2.1256   -6.7404 C   0  0  0  0  0  0  0  0  0  0  0  0
    8.8515    3.6786   -5.8871 C   0  0  0  0  0  0  0  0  0  0  0  0
    9.2176    4.2406   -7.1175 C   0  0  0  0  0  0  0  0  0  0  0  0
   10.0472    5.3322   -7.1593 C   0  0  0  0  0  0  0  0  0  0  0  0
   10.4270    5.9024   -5.9505 C   0  0  0  0  0  0  0  0  0  0  0  0
    9.8849    5.4354   -4.6993 C   0  0  0  0  0  0  0  0  0  0  0  0
    9.0368    4.2508   -4.5834 C   0  0  0  0  0  0  0  0  0  0  0  0
    6.8131    1.2333   -1.3135 C   0  0  0  0  0  0  0  0  0  0  0  0
    7.9257    0.3636   -1.3386 C   0  0  0  0  0  0  0  0  0  0  0  0
    7.7771   -1.0429   -1.2606 C   0  0  0  0  0  0  0  0  0  0  0  0
    6.5121   -1.6017   -1.1686 C   0  0  0  0  0  0  0  0  0  0  0  0
    5.3977   -0.7979   -1.1028 C   0  0  0  0  0  0  0  0  0  0  0  0
    5.5554    0.6170   -1.1629 C   0  0  0  0  0  0  0  0  0  0  0  0
    2.1424    1.7554    2.2144 H   0  0  0  0  0  0  0  0  0  0  0  0
    2.1358    2.9482    0.9050 H   0  0  0  0  0  0  0  0  0  0  0  0
    3.6761    2.3167    1.5307 H   0  0  0  0  0  0  0  0  0  0  0  0
    1.5411    0.6395    0.1333 H   0  0  0  0  0  0  0  0  0  0  0  0
    3.1018    0.0517    0.6776 H   0  0  0  0  0  0  0  0  0  0  0  0
    2.6443    2.2086   -1.4970 H   0  0  0  0  0  0  0  0  0  0  0  0
    2.9872    0.5143   -1.7977 H   0  0  0  0  0  0  0  0  0  0  0  0
    4.5967    3.7374   -1.3732 H   0  0  0  0  0  0  0  0  0  0  0  0
    7.0306    1.7500   -3.6935 H   0  0  0  0  0  0  0  0  0  0  0  0
    9.7868    1.5961   -4.7669 H   0  0  0  0  0  0  0  0  0  0  0  0
    6.3185    1.6811   -6.0757 H   0  0  0  0  0  0  0  0  0  0  0  0
    7.2864    1.4348   -7.5542 H   0  0  0  0  0  0  0  0  0  0  0  0
    6.6239    3.0457   -7.1343 H   0  0  0  0  0  0  0  0  0  0  0  0
    8.9531    3.7395   -8.0512 H   0  0  0  0  0  0  0  0  0  0  0  0
   10.4315    5.6724   -8.1218 H   0  0  0  0  0  0  0  0  0  0  0  0
   11.1711    6.6987   -5.9937 H   0  0  0  0  0  0  0  0  0  0  0  0
   10.2449    5.9517   -3.8086 H   0  0  0  0  0  0  0  0  0  0  0  0
    8.9335    0.7597   -1.4560 H   0  0  0  0  0  0  0  0  0  0  0  0
    8.6401   -1.6903   -1.3027 H   0  0  0  0  0  0  0  0  0  0  0  0
    6.3958   -2.6993   -1.1322 H   0  0  0  0  0  0  0  0  0  0  0  0
    4.4044   -1.2449   -1.0306 H   0  0  0  0  0  0  0  0  0  0  0  0
  1  2  1  0  0  0  0
  1 26  1  0  0  0  0
  1 27  1  0  0  0  0
  1 28  1  0  0  0  0
  2  3  1  0  0  0  0
  2 29  1  0  0  0  0
  2 30  1  0  0  0  0
  3  4  1  0  0  0  0
  3 31  1  0  0  0  0
  3 32  1  0  0  0  0
  4 25  1  0  0  0  0
  4  5  1  0  0  0  0
  5  6  2  0  0  0  0
  5 33  1  0  0  0  0
  6  7  1  0  0  0  0
  6 20  1  0  0  0  0
  7  8  2  0  0  0  0
  7  9  1  0  0  0  0
  9 19  2  0  0  0  0
  9 10  1  0  0  0  0
 10 11  2  0  0  0  0
 10 34  1  0  0  0  0
 11 12  1  0  0  0  0
 11 35  1  0  0  0  0
 12 13  1  0  0  0  0
 12 14  2  0  0  0  0
 13 36  1  0  0  0  0
 13 37  1  0  0  0  0
 13 38  1  0  0  0  0
 14 19  1  0  0  0  0
 14 15  1  0  0  0  0
 15 16  2  0  0  0  0
 15 39  1  0  0  0  0
 16 17  1  0  0  0  0
 16 40  1  0  0  0  0
 17 18  2  0  0  0  0
 17 41  1  0  0  0  0
 18 19  1  0  0  0  0
 18 42  1  0  0  0  0
 20 25  2  0  0  0  0
 20 21  1  0  0  0  0
 21 22  2  0  0  0  0
 21 43  1  0  0  0  0
 22 23  1  0  0  0  0
 22 44  1  0  0  0  0
 23 24  2  0  0  0  0
 23 45  1  0  0  0  0
 24 25  1  0  0  0  0
 24 46  1  0  0  0  0
M  END
$$$$
CHEMBL561349
 OpenBabel12022418093D

 47 50  0  0  0  0  0  0  0  0999 V2000
    1.2520   -0.5990   -1.8512 C   0  0  0  0  0  0  0  0  0  0  0  0
    2.7790   -0.4535   -1.9582 C   0  0  0  0  0  0  0  0  0  0  0  0
    3.5487   -0.9512   -0.7208 C   0  0  0  0  0  0  0  0  0  0  0  0
    5.0218   -0.9933   -0.8193 N   0  0  0  0  0  0  0  0  0  0  0  0
    5.9332    0.0610   -0.8393 C   0  0  0  0  0  0  0  0  0  0  0  0
    7.2874   -0.3835   -0.8833 C   0  0  0  0  0  0  0  0  0  0  0  0
    8.5369    0.6300   -1.0105 C   0  0  0  0  0  0  0  0  0  0  0  0
    8.2997    1.8093   -1.2893 O   0  0  0  0  0  0  0  0  0  0  0  0
   10.0621    0.3177   -0.7409 C   0  0  0  0  0  0  0  0  0  0  0  0
   10.2262   -0.9704   -0.2642 C   0  0  0  0  0  0  0  0  0  0  0  0
   11.3469   -1.4212    0.4218 C   0  0  0  0  0  0  0  0  0  0  0  0
   12.5549   -0.8288    0.1447 C   0  0  0  0  0  0  0  0  0  0  0  0
   12.5809    0.3876   -0.5555 C   0  0  0  0  0  0  0  0  0  0  0  0
   13.8679    0.9377   -0.8377 C   0  0  0  0  0  0  0  0  0  0  0  0
   14.0106    2.1465   -1.4780 C   0  0  0  0  0  0  0  0  0  0  0  0
   12.8621    2.8374   -1.8277 C   0  0  0  0  0  0  0  0  0  0  0  0
   11.5625    2.3040   -1.5820 C   0  0  0  0  0  0  0  0  0  0  0  0
   11.3362    1.0371   -0.9680 C   0  0  0  0  0  0  0  0  0  0  0  0
   13.7435   -1.4284    0.5039 O   0  0  0  0  0  0  0  0  0  0  0  0
   13.7062   -2.8531    0.6338 C   0  0  0  0  0  0  0  0  0  0  0  0
    7.1187   -1.8608   -0.8275 C   0  0  0  0  0  0  0  0  0  0  0  0
    7.9609   -3.0022   -0.8158 C   0  0  0  0  0  0  0  0  0  0  0  0
    7.5110   -4.3218   -0.7544 C   0  0  0  0  0  0  0  0  0  0  0  0
    6.1644   -4.5777   -0.7055 C   0  0  0  0  0  0  0  0  0  0  0  0
    5.2666   -3.5203   -0.7225 C   0  0  0  0  0  0  0  0  0  0  0  0
    5.7403   -2.1810   -0.7828 C   0  0  0  0  0  0  0  0  0  0  0  0
    0.7705   -0.1638   -2.7369 H   0  0  0  0  0  0  0  0  0  0  0  0
    0.8488   -0.0823   -0.9747 H   0  0  0  0  0  0  0  0  0  0  0  0
    0.9376   -1.6485   -1.8023 H   0  0  0  0  0  0  0  0  0  0  0  0
    3.0149    0.5993   -2.1277 H   0  0  0  0  0  0  0  0  0  0  0  0
    3.1028   -1.0114   -2.8454 H   0  0  0  0  0  0  0  0  0  0  0  0
    3.1911   -1.9696   -0.5141 H   0  0  0  0  0  0  0  0  0  0  0  0
    3.2939   -0.3718    0.1713 H   0  0  0  0  0  0  0  0  0  0  0  0
    5.5386    1.0702   -0.8298 H   0  0  0  0  0  0  0  0  0  0  0  0
   10.0834   -1.6305   -1.1393 H   0  0  0  0  0  0  0  0  0  0  0  0
   11.2690   -2.3354    0.9932 H   0  0  0  0  0  0  0  0  0  0  0  0
   14.7737    0.3942   -0.5585 H   0  0  0  0  0  0  0  0  0  0  0  0
   15.0024    2.5398   -1.6829 H   0  0  0  0  0  0  0  0  0  0  0  0
   12.9872    3.8068   -2.3185 H   0  0  0  0  0  0  0  0  0  0  0  0
   10.7170    2.8983   -1.9139 H   0  0  0  0  0  0  0  0  0  0  0  0
   14.7314   -3.2284    0.7140 H   0  0  0  0  0  0  0  0  0  0  0  0
   13.2481   -3.3259   -0.2442 H   0  0  0  0  0  0  0  0  0  0  0  0
   13.1815   -3.1431    1.5502 H   0  0  0  0  0  0  0  0  0  0  0  0
    9.0271   -2.9520   -0.8575 H   0  0  0  0  0  0  0  0  0  0  0  0
    8.2325   -5.1296   -0.7512 H   0  0  0  0  0  0  0  0  0  0  0  0
    5.8128   -5.6055   -0.6627 H   0  0  0  0  0  0  0  0  0  0  0  0
    4.2075   -3.7572   -0.6966 H   0  0  0  0  0  0  0  0  0  0  0  0
  1  2  1  0  0  0  0
  1 27  1  0  0  0  0
  1 28  1  0  0  0  0
  1 29  1  0  0  0  0
  2  3  1  0  0  0  0
  2 30  1  0  0  0  0
  2 31  1  0  0  0  0
  3  4  1  0  0  0  0
  3 32  1  0  0  0  0
  3 33  1  0  0  0  0
  4 26  1  0  0  0  0
  4  5  1  0  0  0  0
  5  6  2  0  0  0  0
  5 34  1  0  0  0  0
  6  7  1  0  0  0  0
  6 21  1  0  0  0  0
  7  8  2  0  0  0  0
  7  9  1  0  0  0  0
  9 18  2  0  0  0  0
  9 10  1  0  0  0  0
 10 11  2  0  0  0  0
 10 35  1  0  0  0  0
 11 12  1  0  0  0  0
 11 36  1  0  0  0  0
 12 13  2  0  0  0  0
 12 19  1  0  0  0  0
 13 18  1  0  0  0  0
 13 14  1  0  0  0  0
 14 15  2  0  0  0  0
 14 37  1  0  0  0  0
 15 16  1  0  0  0  0
 15 38  1  0  0  0  0
 16 17  2  0  0  0  0
 16 39  1  0  0  0  0
 17 18  1  0  0  0  0
 17 40  1  0  0  0  0
 19 20  1  0  0  0  0
 20 41  1  0  0  0  0
 20 42  1  0  0  0  0
 20 43  1  0  0  0  0
 21 26  2  0  0  0  0
 21 22  1  0  0  0  0
 22 23  2  0  0  0  0
 22 44  1  0  0  0  0
 23 24  1  0  0  0  0
 23 45  1  0  0  0  0
 24 25  2  0  0  0  0
 24 46  1  0  0  0  0
 25 26  1  0  0  0  0
 25 47  1  0  0  0  0
M  END
$$$$
CHEMBL187559
 OpenBabel12022418093D

 49 51  0  0  0  0  0  0  0  0999 V2000
    4.8230    3.5836   -7.1339 C   0  0  0  0  0  0  0  0  0  0  0  0
    4.4049    3.6036   -5.6733 C   0  0  0  0  0  0  0  0  0  0  0  0
    4.9294    2.3734   -4.9316 C   0  0  0  0  0  0  0  0  0  0  0  0
    4.5031    2.3999   -3.4644 C   0  0  0  0  0  0  0  0  0  0  0  0
    5.0829    1.2450   -2.6373 C   0  0  0  0  0  0  0  0  0  0  0  0
    6.5386    1.1660   -2.6223 N   0  0  0  0  0  0  0  0  0  0  0  0
    7.3284    0.1318   -3.0980 C   0  0  0  0  0  0  0  0  0  0  0  0
    6.7951   -1.1180   -3.7294 C   0  0  0  0  0  0  0  0  0  0  0  0
    8.6680    0.4919   -2.9031 C   0  0  0  0  0  0  0  0  0  0  0  0
    9.8199   -0.3710   -3.2659 C   0  0  0  0  0  0  0  0  0  0  0  0
    9.7100   -1.6054   -3.2698 O   0  0  0  0  0  0  0  0  0  0  0  0
   11.1481    0.2547   -3.6807 C   0  0  0  0  0  0  0  0  0  0  0  0
   12.1161    0.6185   -2.5679 C   0  0  0  0  0  0  0  0  0  0  0  0
   12.1090   -0.0913   -1.3532 C   0  0  0  0  0  0  0  0  0  0  0  0
   12.9147    0.3053   -0.2808 C   0  0  0  0  0  0  0  0  0  0  0  0
   13.7597    1.4039   -0.4045 C   0  0  0  0  0  0  0  0  0  0  0  0
   13.8207    2.0934   -1.6119 C   0  0  0  0  0  0  0  0  0  0  0  0
   13.0223    1.6955   -2.6920 C   0  0  0  0  0  0  0  0  0  0  0  0
   13.1550    2.7483   -4.2722 Br  0  0  0  0  0  0  0  0  0  0  0  0
    8.6651    1.7997   -2.3057 C   0  0  0  0  0  0  0  0  0  0  0  0
    9.6584    2.7046   -1.8757 C   0  0  0  0  0  0  0  0  0  0  0  0
    9.3370    3.9228   -1.2807 C   0  0  0  0  0  0  0  0  0  0  0  0
    8.0157    4.2562   -1.0729 C   0  0  0  0  0  0  0  0  0  0  0  0
    7.0003    3.3803   -1.4610 C   0  0  0  0  0  0  0  0  0  0  0  0
    7.3395    2.1674   -2.0962 C   0  0  0  0  0  0  0  0  0  0  0  0
    4.4430    4.4707   -7.6497 H   0  0  0  0  0  0  0  0  0  0  0  0
    4.4276    2.6975   -7.6400 H   0  0  0  0  0  0  0  0  0  0  0  0
    5.9135    3.5761   -7.2277 H   0  0  0  0  0  0  0  0  0  0  0  0
    3.3117    3.6450   -5.6069 H   0  0  0  0  0  0  0  0  0  0  0  0
    4.7927    4.5152   -5.2028 H   0  0  0  0  0  0  0  0  0  0  0  0
    6.0223    2.3553   -5.0101 H   0  0  0  0  0  0  0  0  0  0  0  0
    4.5528    1.4596   -5.4055 H   0  0  0  0  0  0  0  0  0  0  0  0
    3.4088    2.3550   -3.4022 H   0  0  0  0  0  0  0  0  0  0  0  0
    4.7837    3.3651   -3.0337 H   0  0  0  0  0  0  0  0  0  0  0  0
    4.6641    0.3050   -2.9976 H   0  0  0  0  0  0  0  0  0  0  0  0
    4.7684    1.3388   -1.5899 H   0  0  0  0  0  0  0  0  0  0  0  0
    5.7075   -1.1815   -3.7578 H   0  0  0  0  0  0  0  0  0  0  0  0
    7.1455   -2.0018   -3.1859 H   0  0  0  0  0  0  0  0  0  0  0  0
    7.1440   -1.1901   -4.7659 H   0  0  0  0  0  0  0  0  0  0  0  0
   10.8887    1.1258   -4.2911 H   0  0  0  0  0  0  0  0  0  0  0  0
   11.6550   -0.4516   -4.3507 H   0  0  0  0  0  0  0  0  0  0  0  0
   11.4504   -0.9470   -1.2086 H   0  0  0  0  0  0  0  0  0  0  0  0
   12.8686   -0.2374    0.6607 H   0  0  0  0  0  0  0  0  0  0  0  0
   14.3693    1.7231    0.4372 H   0  0  0  0  0  0  0  0  0  0  0  0
   14.4789    2.9554   -1.6959 H   0  0  0  0  0  0  0  0  0  0  0  0
   10.7047    2.4909   -1.9863 H   0  0  0  0  0  0  0  0  0  0  0  0
   10.1337    4.5939   -0.9728 H   0  0  0  0  0  0  0  0  0  0  0  0
    7.7638    5.2036   -0.6047 H   0  0  0  0  0  0  0  0  0  0  0  0
    5.9684    3.6531   -1.2664 H   0  0  0  0  0  0  0  0  0  0  0  0
  1  2  1  0  0  0  0
  1 26  1  0  0  0  0
  1 27  1  0  0  0  0
  1 28  1  0  0  0  0
  2  3  1  0  0  0  0
  2 29  1  0  0  0  0
  2 30  1  0  0  0  0
  3  4  1  0  0  0  0
  3 31  1  0  0  0  0
  3 32  1  0  0  0  0
  4  5  1  0  0  0  0
  4 33  1  0  0  0  0
  4 34  1  0  0  0  0
  5  6  1  0  0  0  0
  5 35  1  0  0  0  0
  5 36  1  0  0  0  0
  6 25  1  0  0  0  0
  6  7  1  0  0  0  0
  7  8  1  0  0  0  0
  7  9  2  0  0  0  0
  8 37  1  0  0  0  0
  8 38  1  0  0  0  0
  8 39  1  0  0  0  0
  9 10  1  0  0  0  0
  9 20  1  0  0  0  0
 10 11  2  0  0  0  0
 10 12  1  0  0  0  0
 12 13  1  0  0  0  0
 12 40  1  0  0  0  0
 12 41  1  0  0  0  0
 13 18  2  0  0  0  0
 13 14  1  0  0  0  0
 14 15  2  0  0  0  0
 14 42  1  0  0  0  0
 15 16  1  0  0  0  0
 15 43  1  0  0  0  0
 16 17  2  0  0  0  0
 16 44  1  0  0  0  0
 17 18  1  0  0  0  0
 17 45  1  0  0  0  0
 18 19  1  0  0  0  0
 20 25  2  0  0  0  0
 20 21  1  0  0  0  0
 21 22  2  0  0  0  0
 21 46  1  0  0  0  0
 22 23  1  0  0  0  0
 22 47  1  0  0  0  0
 23 24  2  0  0  0  0
 23 48  1  0  0  0  0
 24 25  1  0  0  0  0
 24 49  1  0  0  0  0
M  END
$$$$
CHEMBL565194
 OpenBabel12022418093D

 55 58  0  0  0  0  0  0  0  0999 V2000
    1.1422   -1.4254    0.1022 C   0  0  0  0  0  0  0  0  0  0  0  0
    2.2623   -0.7177    0.5542 C   0  0  0  0  0  0  0  0  0  0  0  0
    2.2498    0.6692    0.6033 C   0  0  0  0  0  0  0  0  0  0  0  0
    1.1522    1.3966    0.1199 C   0  0  0  0  0  0  0  0  0  0  0  0
   -0.0092    0.7074   -0.3542 C   0  0  0  0  0  0  0  0  0  0  0  0
   -0.0095   -0.7193   -0.3455 C   0  0  0  0  0  0  0  0  0  0  0  0
   -1.1800   -1.3953   -0.7740 C   0  0  0  0  0  0  0  0  0  0  0  0
   -2.3268   -0.7182   -1.1866 C   0  0  0  0  0  0  0  0  0  0  0  0
   -2.3254    0.6621   -1.2194 C   0  0  0  0  0  0  0  0  0  0  0  0
   -1.1802    1.3575   -0.8284 C   0  0  0  0  0  0  0  0  0  0  0  0
    1.2156    2.8952    0.2091 C   0  0  0  0  0  0  0  0  0  0  0  0
    0.1831    3.5145    0.4575 O   0  0  0  0  0  0  0  0  0  0  0  0
    2.5019    3.6124    0.1210 C   0  0  0  0  0  0  0  0  0  0  0  0
    3.6417    3.3170   -0.6299 C   0  0  0  0  0  0  0  0  0  0  0  0
    3.9092    2.2284   -1.6180 C   0  0  0  0  0  0  0  0  0  0  0  0
    4.6041    4.2644   -0.3196 N   0  0  0  0  0  0  0  0  0  0  0  0
    4.0971    5.1985    0.5669 C   0  0  0  0  0  0  0  0  0  0  0  0
    2.7783    4.8328    0.8309 C   0  0  0  0  0  0  0  0  0  0  0  0
    2.0150    5.6430    1.7043 C   0  0  0  0  0  0  0  0  0  0  0  0
    2.5766    6.7853    2.2784 C   0  0  0  0  0  0  0  0  0  0  0  0
    3.8953    7.1241    2.0087 C   0  0  0  0  0  0  0  0  0  0  0  0
    4.6777    6.3382    1.1568 C   0  0  0  0  0  0  0  0  0  0  0  0
    5.9825    4.2548   -0.7936 C   0  0  0  0  0  0  0  0  0  0  0  0
    6.1935    4.9170   -2.1567 C   0  0  0  0  0  0  0  0  0  0  0  0
    5.9651    6.4203   -2.1502 C   0  0  0  0  0  0  0  0  0  0  0  0
    1.2241   -2.9416    0.1560 C   0  0  0  0  0  0  0  0  0  0  0  0
    1.6609   -3.5699   -1.1682 C   0  0  0  0  0  0  0  0  0  0  0  0
    1.6889   -5.0883   -1.0621 C   0  0  0  0  0  0  0  0  0  0  0  0
    3.1489   -1.2471    0.8970 H   0  0  0  0  0  0  0  0  0  0  0  0
    3.1173    1.1723    1.0244 H   0  0  0  0  0  0  0  0  0  0  0  0
   -1.2265   -2.4809   -0.7809 H   0  0  0  0  0  0  0  0  0  0  0  0
   -3.2142   -1.2730   -1.4790 H   0  0  0  0  0  0  0  0  0  0  0  0
   -3.2105    1.2071   -1.5376 H   0  0  0  0  0  0  0  0  0  0  0  0
   -1.2387    2.4431   -0.8847 H   0  0  0  0  0  0  0  0  0  0  0  0
    3.0040    1.6810   -1.8877 H   0  0  0  0  0  0  0  0  0  0  0  0
    4.6322    1.5134   -1.2077 H   0  0  0  0  0  0  0  0  0  0  0  0
    4.3127    2.6296   -2.5498 H   0  0  0  0  0  0  0  0  0  0  0  0
    0.9810    5.3859    1.9241 H   0  0  0  0  0  0  0  0  0  0  0  0
    1.9750    7.4049    2.9373 H   0  0  0  0  0  0  0  0  0  0  0  0
    4.3235    8.0146    2.4626 H   0  0  0  0  0  0  0  0  0  0  0  0
    5.7047    6.6226    0.9552 H   0  0  0  0  0  0  0  0  0  0  0  0
    6.2977    3.2063   -0.8416 H   0  0  0  0  0  0  0  0  0  0  0  0
    6.6152    4.7208   -0.0312 H   0  0  0  0  0  0  0  0  0  0  0  0
    5.5424    4.4659   -2.9124 H   0  0  0  0  0  0  0  0  0  0  0  0
    7.2253    4.7267   -2.4750 H   0  0  0  0  0  0  0  0  0  0  0  0
    4.9238    6.6654   -1.9223 H   0  0  0  0  0  0  0  0  0  0  0  0
    6.1945    6.8382   -3.1357 H   0  0  0  0  0  0  0  0  0  0  0  0
    6.6112    6.9130   -1.4172 H   0  0  0  0  0  0  0  0  0  0  0  0
    0.2678   -3.3580    0.4914 H   0  0  0  0  0  0  0  0  0  0  0  0
    1.9362   -3.2315    0.9407 H   0  0  0  0  0  0  0  0  0  0  0  0
    2.6594   -3.2104   -1.4451 H   0  0  0  0  0  0  0  0  0  0  0  0
    0.9831   -3.2789   -1.9788 H   0  0  0  0  0  0  0  0  0  0  0  0
    2.3829   -5.4143   -0.2803 H   0  0  0  0  0  0  0  0  0  0  0  0
    2.0105   -5.5336   -2.0085 H   0  0  0  0  0  0  0  0  0  0  0  0
    0.6953   -5.4813   -0.8223 H   0  0  0  0  0  0  0  0  0  0  0  0
  1  6  2  0  0  0  0
  1  2  1  0  0  0  0
  1 26  1  0  0  0  0
  2  3  2  0  0  0  0
  2 29  1  0  0  0  0
  3  4  1  0  0  0  0
  3 30  1  0  0  0  0
  4  5  2  0  0  0  0
  4 11  1  0  0  0  0
  5 10  1  0  0  0  0
  5  6  1  0  0  0  0
  6  7  1  0  0  0  0
  7  8  2  0  0  0  0
  7 31  1  0  0  0  0
  8  9  1  0  0  0  0
  8 32  1  0  0  0  0
  9 10  2  0  0  0  0
  9 33  1  0  0  0  0
 10 34  1  0  0  0  0
 11 12  2  0  0  0  0
 11 13  1  0  0  0  0
 13 18  1  0  0  0  0
 13 14  2  0  0  0  0
 14 15  1  0  0  0  0
 14 16  1  0  0  0  0
 15 35  1  0  0  0  0
 15 36  1  0  0  0  0
 15 37  1  0  0  0  0
 16 17  1  0  0  0  0
 16 23  1  0  0  0  0
 17 22  2  0  0  0  0
 17 18  1  0  0  0  0
 18 19  2  0  0  0  0
 19 20  1  0  0  0  0
 19 38  1  0  0  0  0
 20 21  2  0  0  0  0
 20 39  1  0  0  0  0
 21 22  1  0  0  0  0
 21 40  1  0  0  0  0
 22 41  1  0  0  0  0
 23 24  1  0  0  0  0
 23 42  1  0  0  0  0
 23 43  1  0  0  0  0
 24 25  1  0  0  0  0
 24 44  1  0  0  0  0
 24 45  1  0  0  0  0
 25 46  1  0  0  0  0
 25 47  1  0  0  0  0
 25 48  1  0  0  0  0
 26 27  1  0  0  0  0
 26 49  1  0  0  0  0
 26 50  1  0  0  0  0
 27 28  1  0  0  0  0
 27 51  1  0  0  0  0
 27 52  1  0  0  0  0
 28 53  1  0  0  0  0
 28 54  1  0  0  0  0
 28 55  1  0  0  0  0
M  END
$$$$
CHEMBL252878
 OpenBabel12022418093D

 63 66  0  0  1  0  0  0  0  0999 V2000
    2.3451   -0.6801   -0.0124 C   0  0  0  0  0  0  0  0  0  0  0  0
    0.8813   -0.3523    0.0256 C   0  0  0  0  0  0  0  0  0  0  0  0
    0.0070   -1.4617   -0.0499 C   0  0  0  0  0  0  0  0  0  0  0  0
   -1.3822   -1.3061   -0.0481 C   0  0  0  0  0  0  0  0  0  0  0  0
   -1.9327   -0.0322    0.0627 C   0  0  0  0  0  0  0  0  0  0  0  0
   -3.4040    0.1353    0.0957 C   0  0  0  0  0  0  0  0  0  0  0  0
   -4.0577   -0.7687    0.6261 O   0  0  0  0  0  0  0  0  0  0  0  0
   -3.9919    1.2984   -0.3923 N   0  0  0  0  0  0  0  0  0  0  0  0
   -3.4327    2.2115   -1.4034 C   0  0  0  0  0  0  0  0  0  0  0  0
   -3.5258    3.6620   -0.9119 C   0  0  0  0  0  0  0  0  0  0  0  0
   -4.9611    4.0388   -0.4845 C   0  0  1  0  0  0  0  0  0  0  0  0
   -5.8510    4.2801   -1.7140 C   0  0  0  0  0  0  0  0  0  0  0  0
   -7.3614    4.0781   -1.5626 C   0  0  0  0  0  0  0  0  0  0  0  0
   -7.8714    3.2841   -0.3639 C   0  0  0  0  0  0  0  0  0  0  0  0
   -6.9620    3.3357    0.8503 C   0  0  0  0  0  0  0  0  0  0  0  0
   -5.5209    2.9888    0.4904 C   0  0  1  0  0  0  0  0  0  0  0  0
   -5.3826    1.5624   -0.0670 C   0  0  0  0  0  0  0  0  0  0  0  0
   -1.0820    1.0573    0.2215 C   0  0  0  0  0  0  0  0  0  0  0  0
    0.3150    0.9279    0.1415 C   0  0  0  0  0  0  0  0  0  0  0  0
    1.1844    2.4947   -0.0274 S   0  0  0  0  0  0  0  0  0  0  0  0
    2.4427    2.2679   -0.7016 O   0  0  0  0  0  0  0  0  0  0  0  0
    0.2271    3.4305   -0.5949 O   0  0  0  0  0  0  0  0  0  0  0  0
    1.4811    2.9821    1.5831 N   0  0  0  0  0  0  0  0  0  0  0  0
    0.3037    3.2436    2.4352 C   0  0  0  0  0  0  0  0  0  0  0  0
    0.5170    4.3110    3.5021 C   0  0  0  0  0  0  0  0  0  0  0  0
    1.2075    3.7976    4.7572 C   0  0  0  0  0  0  0  0  0  0  0  0
    2.6740    3.4790    4.5305 C   0  0  0  0  0  0  0  0  0  0  0  0
    2.8642    2.2735    3.6224 C   0  0  0  0  0  0  0  0  0  0  0  0
    2.7896    2.5901    2.1403 C   0  0  0  0  0  0  0  0  0  0  0  0
    3.0030    0.1753    0.1031 H   0  0  0  0  0  0  0  0  0  0  0  0
    2.5942   -1.1716   -0.9591 H   0  0  0  0  0  0  0  0  0  0  0  0
    2.5828   -1.3663    0.8091 H   0  0  0  0  0  0  0  0  0  0  0  0
    0.4120   -2.4711   -0.1287 H   0  0  0  0  0  0  0  0  0  0  0  0
   -2.0285   -2.1787   -0.1251 H   0  0  0  0  0  0  0  0  0  0  0  0
   -4.0231    2.0754   -2.3175 H   0  0  0  0  0  0  0  0  0  0  0  0
   -2.4116    1.9538   -1.6869 H   0  0  0  0  0  0  0  0  0  0  0  0
   -3.1632    4.3460   -1.6881 H   0  0  0  0  0  0  0  0  0  0  0  0
   -2.8655    3.7917   -0.0455 H   0  0  0  0  0  0  0  0  0  0  0  0
   -4.8993    4.9921    0.0601 H   0  0  0  0  0  0  0  0  0  0  0  0
   -5.5127    3.6677   -2.5567 H   0  0  0  0  0  0  0  0  0  0  0  0
   -5.6810    5.3139   -2.0481 H   0  0  0  0  0  0  0  0  0  0  0  0
   -7.7281    3.5853   -2.4736 H   0  0  0  0  0  0  0  0  0  0  0  0
   -7.8440    5.0623   -1.5586 H   0  0  0  0  0  0  0  0  0  0  0  0
   -8.0220    2.2385   -0.6589 H   0  0  0  0  0  0  0  0  0  0  0  0
   -8.8668    3.6517   -0.0872 H   0  0  0  0  0  0  0  0  0  0  0  0
   -7.3333    2.6455    1.6173 H   0  0  0  0  0  0  0  0  0  0  0  0
   -6.9964    4.3398    1.2915 H   0  0  0  0  0  0  0  0  0  0  0  0
   -4.9245    3.0391    1.4123 H   0  0  0  0  0  0  0  0  0  0  0  0
   -5.7565    0.8469    0.6724 H   0  0  0  0  0  0  0  0  0  0  0  0
   -5.9601    1.4121   -0.9860 H   0  0  0  0  0  0  0  0  0  0  0  0
   -1.5146    2.0396    0.3787 H   0  0  0  0  0  0  0  0  0  0  0  0
   -0.0658    2.3113    2.8726 H   0  0  0  0  0  0  0  0  0  0  0  0
   -0.4979    3.6383    1.7992 H   0  0  0  0  0  0  0  0  0  0  0  0
   -0.4730    4.6716    3.8127 H   0  0  0  0  0  0  0  0  0  0  0  0
    1.0511    5.1771    3.0944 H   0  0  0  0  0  0  0  0  0  0  0  0
    0.6854    2.9111    5.1399 H   0  0  0  0  0  0  0  0  0  0  0  0
    1.1323    4.5613    5.5403 H   0  0  0  0  0  0  0  0  0  0  0  0
    3.1292    3.2569    5.5030 H   0  0  0  0  0  0  0  0  0  0  0  0
    3.2000    4.3559    4.1330 H   0  0  0  0  0  0  0  0  0  0  0  0
    2.1713    1.4663    3.8853 H   0  0  0  0  0  0  0  0  0  0  0  0
    3.8743    1.8860    3.8114 H   0  0  0  0  0  0  0  0  0  0  0  0
    3.4999    3.3903    1.8969 H   0  0  0  0  0  0  0  0  0  0  0  0
    3.1502    1.6937    1.6303 H   0  0  0  0  0  0  0  0  0  0  0  0
  1  2  1  0  0  0  0
  1 30  1  0  0  0  0
  1 31  1  0  0  0  0
  1 32  1  0  0  0  0
  2 19  2  0  0  0  0
  2  3  1  0  0  0  0
  3  4  2  0  0  0  0
  3 33  1  0  0  0  0
  4  5  1  0  0  0  0
  4 34  1  0  0  0  0
  5  6  1  0  0  0  0
  5 18  2  0  0  0  0
  6  7  2  0  0  0  0
  6  8  1  0  0  0  0
  8 17  1  0  0  0  0
  8  9  1  0  0  0  0
  9 10  1  0  0  0  0
  9 35  1  0  0  0  0
  9 36  1  0  0  0  0
 10 37  1  0  0  0  0
 10 38  1  0  0  0  0
 11 10  1  0  0  0  0
 11 12  1  0  0  0  0
 11 16  1  0  0  0  0
 11 39  1  1  0  0  0
 12 13  1  0  0  0  0
 12 40  1  0  0  0  0
 12 41  1  0  0  0  0
 13 14  1  0  0  0  0
 13 42  1  0  0  0  0
 13 43  1  0  0  0  0
 14 15  1  0  0  0  0
 14 44  1  0  0  0  0
 14 45  1  0  0  0  0
 15 46  1  0  0  0  0
 15 47  1  0  0  0  0
 16 15  1  0  0  0  0
 16 17  1  0  0  0  0
 16 48  1  1  0  0  0
 17 49  1  0  0  0  0
 17 50  1  0  0  0  0
 18 19  1  0  0  0  0
 18 51  1  0  0  0  0
 19 20  1  0  0  0  0
 20 21  2  0  0  0  0
 20 22  2  0  0  0  0
 20 23  1  0  0  0  0
 23 29  1  0  0  0  0
 23 24  1  0  0  0  0
 24 25  1  0  0  0  0
 24 52  1  0  0  0  0
 24 53  1  0  0  0  0
 25 26  1  0  0  0  0
 25 54  1  0  0  0  0
 25 55  1  0  0  0  0
 26 27  1  0  0  0  0
 26 56  1  0  0  0  0
 26 57  1  0  0  0  0
 27 28  1  0  0  0  0
 27 58  1  0  0  0  0
 27 59  1  0  0  0  0
 28 29  1  0  0  0  0
 28 60  1  0  0  0  0
 28 61  1  0  0  0  0
 29 62  1  0  0  0  0
 29 63  1  0  0  0  0
M  END
$$$$
CHEMBL596133
 OpenBabel12022418093D

 55 58  0  0  1  0  0  0  0  0999 V2000
    0.4148    1.5795    1.9654 C   0  0  0  0  0  0  0  0  0  0  0  0
    2.0804    2.1674    2.1637 S   0  0  0  0  0  0  0  0  0  0  0  0
    2.2367    3.3608    1.3597 O   0  0  0  0  0  0  0  0  0  0  0  0
    2.3996    2.1484    3.5761 O   0  0  0  0  0  0  0  0  0  0  0  0
    2.9509    0.9297    1.3967 N   0  0  0  0  0  0  0  0  0  0  0  0
    4.4108    1.1606    1.3810 C   0  0  1  0  0  0  0  0  0  0  0  0
    5.2618    1.0712    2.6051 C   0  0  0  0  0  0  0  0  0  0  0  0
    5.3889    0.0034    1.5385 C   0  0  0  0  0  0  0  0  0  0  0  0
    4.7831   -1.3735    1.8289 C   0  0  0  0  0  0  0  0  0  0  0  0
    5.7147   -2.5687    1.6133 C   0  0  0  0  0  0  0  0  0  0  0  0
    6.5907   -2.3827    0.4323 N   0  0  0  0  0  0  0  0  0  0  0  0
    7.4468   -1.1862    0.6500 C   0  0  0  0  0  0  0  0  0  0  0  0
    6.5885    0.0678    0.6054 C   0  0  0  0  0  0  0  0  0  0  0  0
    5.9375   -2.5060   -1.1282 S   0  0  0  0  0  0  0  0  0  0  0  0
    4.5978   -1.9530   -1.1011 O   0  0  0  0  0  0  0  0  0  0  0  0
    6.8821   -2.0009   -2.1004 O   0  0  0  0  0  0  0  0  0  0  0  0
    5.7771   -4.2465   -1.4525 C   0  0  0  0  0  0  0  0  0  0  0  0
    4.4667   -4.7645   -1.4906 C   0  0  0  0  0  0  0  0  0  0  0  0
    4.2228   -6.0441   -1.9843 C   0  0  0  0  0  0  0  0  0  0  0  0
    5.2724   -6.8298   -2.4440 C   0  0  0  0  0  0  0  0  0  0  0  0
    6.5743   -6.3298   -2.4027 C   0  0  0  0  0  0  0  0  0  0  0  0
    6.8404   -5.0314   -1.9227 C   0  0  0  0  0  0  0  0  0  0  0  0
    8.5671   -4.5666   -1.8609 S   0  0  0  0  0  0  0  0  0  0  0  0
    8.7760   -3.5809   -0.8327 O   0  0  0  0  0  0  0  0  0  0  0  0
    9.2747   -5.8348   -1.7270 O   0  0  0  0  0  0  0  0  0  0  0  0
    9.1593   -3.9042   -3.3837 C   0  0  0  0  0  0  0  0  0  0  0  0
   10.5482   -3.7946   -3.5420 C   0  0  0  0  0  0  0  0  0  0  0  0
   11.0832   -3.4311   -4.7780 C   0  0  0  0  0  0  0  0  0  0  0  0
   10.2334   -3.1622   -5.8501 C   0  0  0  0  0  0  0  0  0  0  0  0
    8.8495   -3.2432   -5.6797 C   0  0  0  0  0  0  0  0  0  0  0  0
    8.3160   -3.6231   -4.4476 C   0  0  0  0  0  0  0  0  0  0  0  0
    6.9865   -3.7423   -4.3465 F   0  0  0  0  0  0  0  0  0  0  0  0
    2.6137   -6.6437   -2.0658 Cl  0  0  0  0  0  0  0  0  0  0  0  0
   -0.2556    2.3246    2.4002 H   0  0  0  0  0  0  0  0  0  0  0  0
    0.3051    0.6286    2.4885 H   0  0  0  0  0  0  0  0  0  0  0  0
    0.2029    1.4717    0.9000 H   0  0  0  0  0  0  0  0  0  0  0  0
    2.6174    0.7861    0.4377 H   0  0  0  0  0  0  0  0  0  0  0  0
    4.6715    1.9388    0.6636 H   0  0  0  0  0  0  0  0  0  0  0  0
    4.7774    0.8304    3.5439 H   0  0  0  0  0  0  0  0  0  0  0  0
    6.0466    1.8128    2.7098 H   0  0  0  0  0  0  0  0  0  0  0  0
    3.8922   -1.5161    1.2086 H   0  0  0  0  0  0  0  0  0  0  0  0
    4.4234   -1.4075    2.8660 H   0  0  0  0  0  0  0  0  0  0  0  0
    5.1530   -3.5048    1.5415 H   0  0  0  0  0  0  0  0  0  0  0  0
    6.3601   -2.6801    2.4970 H   0  0  0  0  0  0  0  0  0  0  0  0
    8.2462   -1.1382   -0.0959 H   0  0  0  0  0  0  0  0  0  0  0  0
    7.9475   -1.2728    1.6221 H   0  0  0  0  0  0  0  0  0  0  0  0
    7.2212    0.9301    0.8472 H   0  0  0  0  0  0  0  0  0  0  0  0
    6.2296    0.2348   -0.4176 H   0  0  0  0  0  0  0  0  0  0  0  0
    3.6174   -4.1537   -1.1808 H   0  0  0  0  0  0  0  0  0  0  0  0
    5.0888   -7.8262   -2.8393 H   0  0  0  0  0  0  0  0  0  0  0  0
    7.3816   -6.9666   -2.7636 H   0  0  0  0  0  0  0  0  0  0  0  0
   11.2150   -4.0233   -2.7118 H   0  0  0  0  0  0  0  0  0  0  0  0
   12.1620   -3.3761   -4.9086 H   0  0  0  0  0  0  0  0  0  0  0  0
   10.6495   -2.8984   -6.8201 H   0  0  0  0  0  0  0  0  0  0  0  0
    8.1827   -3.0310   -6.5106 H   0  0  0  0  0  0  0  0  0  0  0  0
  1  2  1  0  0  0  0
  1 34  1  0  0  0  0
  1 35  1  0  0  0  0
  1 36  1  0  0  0  0
  2  3  2  0  0  0  0
  2  4  2  0  0  0  0
  2  5  1  0  0  0  0
  5 37  1  0  0  0  0
  6  5  1  0  0  0  0
  6  7  1  0  0  0  0
  6  8  1  0  0  0  0
  6 38  1  6  0  0  0
  7  8  1  0  0  0  0
  7 39  1  0  0  0  0
  7 40  1  0  0  0  0
  8 13  1  0  0  0  0
  8  9  1  0  0  0  0
  9 10  1  0  0  0  0
  9 41  1  0  0  0  0
  9 42  1  0  0  0  0
 10 11  1  0  0  0  0
 10 43  1  0  0  0  0
 10 44  1  0  0  0  0
 11 12  1  0  0  0  0
 11 14  1  0  0  0  0
 12 13  1  0  0  0  0
 12 45  1  0  0  0  0
 12 46  1  0  0  0  0
 13 47  1  0  0  0  0
 13 48  1  0  0  0  0
 14 15  2  0  0  0  0
 14 16  2  0  0  0  0
 14 17  1  0  0  0  0
 17 22  2  0  0  0  0
 17 18  1  0  0  0  0
 18 19  2  0  0  0  0
 18 49  1  0  0  0  0
 19 20  1  0  0  0  0
 19 33  1  0  0  0  0
 20 21  2  0  0  0  0
 20 50  1  0  0  0  0
 21 22  1  0  0  0  0
 21 51  1  0  0  0  0
 22 23  1  0  0  0  0
 23 24  2  0  0  0  0
 23 25  2  0  0  0  0
 23 26  1  0  0  0  0
 26 31  2  0  0  0  0
 26 27  1  0  0  0  0
 27 28  2  0  0  0  0
 27 52  1  0  0  0  0
 28 29  1  0  0  0  0
 28 53  1  0  0  0  0
 29 30  2  0  0  0  0
 29 54  1  0  0  0  0
 30 31  1  0  0  0  0
 30 55  1  0  0  0  0
 31 32  1  0  0  0  0
M  END
$$$$
CHEMBL3901140
 OpenBabel12022418093D

 45 48  0  0  0  0  0  0  0  0999 V2000
    2.9351    0.4370   -0.4659 C   0  0  0  0  0  0  0  0  0  0  0  0
    2.1260   -0.6119    0.4313 C   0  0  0  0  0  0  0  0  0  0  0  0
    0.6584   -0.2031    0.3412 C   0  0  0  0  0  0  0  0  0  0  0  0
    2.3991   -2.0569   -0.1016 C   0  0  0  0  0  0  0  0  0  0  0  0
    1.8693   -3.4124    0.1287 N   0  0  0  0  0  0  0  0  0  0  0  0
    0.8187   -3.9749    1.0482 C   0  0  0  0  0  0  0  0  0  0  0  0
    0.6716   -3.3308    2.1117 O   0  0  0  0  0  0  0  0  0  0  0  0
   -0.1274   -5.3367    0.8012 C   0  0  0  0  0  0  0  0  0  0  0  0
   -0.7639   -4.4134   -0.0434 C   0  0  0  0  0  0  0  0  0  0  0  0
   -2.1028   -4.3976   -0.3271 C   0  0  0  0  0  0  0  0  0  0  0  0
   -2.2504   -5.4117   -1.2100 C   0  0  0  0  0  0  0  0  0  0  0  0
   -1.8536   -6.5989   -0.6914 C   0  0  0  0  0  0  0  0  0  0  0  0
   -2.5334   -7.7093   -1.2670 C   0  0  0  0  0  0  0  0  0  0  0  0
   -2.7440   -8.8573   -0.5487 C   0  0  0  0  0  0  0  0  0  0  0  0
   -2.2165   -8.8909    0.7334 C   0  0  0  0  0  0  0  0  0  0  0  0
   -1.3497   -7.8076    1.2264 C   0  0  0  0  0  0  0  0  0  0  0  0
   -1.0164   -6.5745    0.5035 C   0  0  0  0  0  0  0  0  0  0  0  0
    2.6033   -4.2095   -0.7892 C   0  0  0  0  0  0  0  0  0  0  0  0
    3.4104   -3.3457   -1.5193 C   0  0  0  0  0  0  0  0  0  0  0  0
    4.2744   -3.7944   -2.5300 C   0  0  0  0  0  0  0  0  0  0  0  0
    4.3563   -5.1581   -2.7725 C   0  0  0  0  0  0  0  0  0  0  0  0
    3.5851   -6.0383   -2.0166 C   0  0  0  0  0  0  0  0  0  0  0  0
    2.6922   -5.5892   -1.0226 C   0  0  0  0  0  0  0  0  0  0  0  0
    3.2656   -2.0837   -1.1034 N   0  0  0  0  0  0  0  0  0  0  0  0
    2.6668   -0.3507    1.8400 C   0  0  0  0  0  0  0  0  0  0  0  0
    2.6807    0.3762   -1.5320 H   0  0  0  0  0  0  0  0  0  0  0  0
    4.0226    0.2861   -0.3846 H   0  0  0  0  0  0  0  0  0  0  0  0
    2.7525    1.4763   -0.1564 H   0  0  0  0  0  0  0  0  0  0  0  0
    0.2423   -0.3918   -0.6536 H   0  0  0  0  0  0  0  0  0  0  0  0
    0.5407    0.8723    0.5415 H   0  0  0  0  0  0  0  0  0  0  0  0
    0.0603   -0.7370    1.0817 H   0  0  0  0  0  0  0  0  0  0  0  0
   -0.1631   -4.2356   -0.9622 H   0  0  0  0  0  0  0  0  0  0  0  0
   -2.7369   -4.4832    0.5857 H   0  0  0  0  0  0  0  0  0  0  0  0
   -2.8431   -5.2933   -2.1000 H   0  0  0  0  0  0  0  0  0  0  0  0
   -3.0451   -7.5983   -2.2234 H   0  0  0  0  0  0  0  0  0  0  0  0
   -3.3848   -9.6443   -0.9552 H   0  0  0  0  0  0  0  0  0  0  0  0
   -2.5024   -9.7482    1.3506 H   0  0  0  0  0  0  0  0  0  0  0  0
   -1.0224   -7.9817    2.2567 H   0  0  0  0  0  0  0  0  0  0  0  0
    4.8830   -3.0821   -3.0814 H   0  0  0  0  0  0  0  0  0  0  0  0
    5.0366   -5.5257   -3.5373 H   0  0  0  0  0  0  0  0  0  0  0  0
    3.6875   -7.1058   -2.1967 H   0  0  0  0  0  0  0  0  0  0  0  0
    2.1294   -6.3093   -0.4439 H   0  0  0  0  0  0  0  0  0  0  0  0
    2.5467    0.7133    2.1003 H   0  0  0  0  0  0  0  0  0  0  0  0
    3.7396   -0.5654    1.9096 H   0  0  0  0  0  0  0  0  0  0  0  0
    2.1379   -0.9328    2.5938 H   0  0  0  0  0  0  0  0  0  0  0  0
  1  2  1  0  0  0  0
  1 26  1  0  0  0  0
  1 27  1  0  0  0  0
  1 28  1  0  0  0  0
  2  3  1  0  0  0  0
  2  4  1  0  0  0  0
  2 25  1  0  0  0  0
  3 29  1  0  0  0  0
  3 30  1  0  0  0  0
  3 31  1  0  0  0  0
  4 24  2  0  0  0  0
  4  5  1  0  0  0  0
  5  6  1  0  0  0  0
  5 18  1  0  0  0  0
  6  7  2  0  0  0  0
  6  8  1  0  0  0  0
  8 17  2  0  0  0  0
  8  9  1  0  0  0  0
  9 10  2  0  0  0  0
  9 32  1  0  0  0  0
 10 11  1  0  0  0  0
 10 33  1  0  0  0  0
 11 12  2  0  0  0  0
 11 34  1  0  0  0  0
 12 17  1  0  0  0  0
 12 13  1  0  0  0  0
 13 14  2  0  0  0  0
 13 35  1  0  0  0  0
 14 15  1  0  0  0  0
 14 36  1  0  0  0  0
 15 16  2  0  0  0  0
 15 37  1  0  0  0  0
 16 17  1  0  0  0  0
 16 38  1  0  0  0  0
 18 23  2  0  0  0  0
 18 19  1  0  0  0  0
 19 20  2  0  0  0  0
 19 24  1  0  0  0  0
 20 21  1  0  0  0  0
 20 39  1  0  0  0  0
 21 22  2  0  0  0  0
 21 40  1  0  0  0  0
 22 23  1  0  0  0  0
 22 41  1  0  0  0  0
 23 42  1  0  0  0  0
 25 43  1  0  0  0  0
 25 44  1  0  0  0  0
 25 45  1  0  0  0  0
M  END
$$$$
CHEMBL71810
 OpenBabel12022418093D

 43 45  0  0  0  0  0  0  0  0999 V2000
    0.8918   -0.9201   -2.1652 C   0  0  0  0  0  0  0  0  0  0  0  0
    2.4108   -0.8904   -2.1682 C   0  0  0  0  0  0  0  0  0  0  0  0
    2.9416    0.5397   -2.0812 C   0  0  0  0  0  0  0  0  0  0  0  0
    4.4691    0.5633   -2.0944 C   0  0  0  0  0  0  0  0  0  0  0  0
    5.0022    1.9963   -2.0541 C   0  0  0  0  0  0  0  0  0  0  0  0
    6.4550    2.0482   -2.0429 N   0  0  0  0  0  0  0  0  0  0  0  0
    7.2742    1.5804   -3.0338 C   0  0  0  0  0  0  0  0  0  0  0  0
    8.5761    1.7528   -2.6196 C   0  0  0  0  0  0  0  0  0  0  0  0
    8.5539    2.3400   -1.3200 C   0  0  0  0  0  0  0  0  0  0  0  0
    9.7215    2.6319   -0.4812 C   0  0  0  0  0  0  0  0  0  0  0  0
   10.8421    2.7331   -0.9709 O   0  0  0  0  0  0  0  0  0  0  0  0
    9.5384    2.7303    1.0035 C   0  0  0  0  0  0  0  0  0  0  0  0
    8.6627    1.8098    1.6122 C   0  0  0  0  0  0  0  0  0  0  0  0
    8.4050    1.8684    2.9759 C   0  0  0  0  0  0  0  0  0  0  0  0
    9.0561    2.8166    3.7564 C   0  0  0  0  0  0  0  0  0  0  0  0
    9.9809    3.7081    3.1940 C   0  0  0  0  0  0  0  0  0  0  0  0
   10.6512    4.6191    4.0218 C   0  0  0  0  0  0  0  0  0  0  0  0
   11.5898    5.5082    3.5042 C   0  0  0  0  0  0  0  0  0  0  0  0
   11.8625    5.5043    2.1442 C   0  0  0  0  0  0  0  0  0  0  0  0
   11.1930    4.6131    1.3011 C   0  0  0  0  0  0  0  0  0  0  0  0
   10.2442    3.6818    1.7952 C   0  0  0  0  0  0  0  0  0  0  0  0
    7.2166    2.5714   -1.0318 C   0  0  0  0  0  0  0  0  0  0  0  0
    0.5327   -1.9513   -2.2314 H   0  0  0  0  0  0  0  0  0  0  0  0
    0.4873   -0.3646   -3.0169 H   0  0  0  0  0  0  0  0  0  0  0  0
    0.4927   -0.4795   -1.2463 H   0  0  0  0  0  0  0  0  0  0  0  0
    2.7771   -1.3690   -3.0847 H   0  0  0  0  0  0  0  0  0  0  0  0
    2.7857   -1.4794   -1.3232 H   0  0  0  0  0  0  0  0  0  0  0  0
    2.5739    1.0155   -1.1636 H   0  0  0  0  0  0  0  0  0  0  0  0
    2.5583    1.1257   -2.9257 H   0  0  0  0  0  0  0  0  0  0  0  0
    4.8313    0.0547   -2.9963 H   0  0  0  0  0  0  0  0  0  0  0  0
    4.8575   -0.0023   -1.2380 H   0  0  0  0  0  0  0  0  0  0  0  0
    4.6428    2.5063   -1.1527 H   0  0  0  0  0  0  0  0  0  0  0  0
    4.6690    2.5717   -2.9245 H   0  0  0  0  0  0  0  0  0  0  0  0
    6.8749    1.1455   -3.9403 H   0  0  0  0  0  0  0  0  0  0  0  0
    9.4615    1.4591   -3.1708 H   0  0  0  0  0  0  0  0  0  0  0  0
    8.1698    1.0375    1.0277 H   0  0  0  0  0  0  0  0  0  0  0  0
    7.7041    1.1722    3.4302 H   0  0  0  0  0  0  0  0  0  0  0  0
    8.8434    2.8466    4.8228 H   0  0  0  0  0  0  0  0  0  0  0  0
   10.4536    4.6387    5.0920 H   0  0  0  0  0  0  0  0  0  0  0  0
   12.1096    6.1976    4.1639 H   0  0  0  0  0  0  0  0  0  0  0  0
   12.6004    6.1876    1.7326 H   0  0  0  0  0  0  0  0  0  0  0  0
   11.4427    4.6469    0.2424 H   0  0  0  0  0  0  0  0  0  0  0  0
    6.7488    3.0344   -0.1716 H   0  0  0  0  0  0  0  0  0  0  0  0
  1  2  1  0  0  0  0
  1 23  1  0  0  0  0
  1 24  1  0  0  0  0
  1 25  1  0  0  0  0
  2  3  1  0  0  0  0
  2 26  1  0  0  0  0
  2 27  1  0  0  0  0
  3  4  1  0  0  0  0
  3 28  1  0  0  0  0
  3 29  1  0  0  0  0
  4  5  1  0  0  0  0
  4 30  1  0  0  0  0
  4 31  1  0  0  0  0
  5  6  1  0  0  0  0
  5 32  1  0  0  0  0
  5 33  1  0  0  0  0
  6 22  1  0  0  0  0
  6  7  1  0  0  0  0
  7  8  2  0  0  0  0
  7 34  1  0  0  0  0
  8  9  1  0  0  0  0
  8 35  1  0  0  0  0
  9 10  1  0  0  0  0
  9 22  2  0  0  0  0
 10 11  2  0  0  0  0
 10 12  1  0  0  0  0
 12 21  2  0  0  0  0
 12 13  1  0  0  0  0
 13 14  2  0  0  0  0
 13 36  1  0  0  0  0
 14 15  1  0  0  0  0
 14 37  1  0  0  0  0
 15 16  2  0  0  0  0
 15 38  1  0  0  0  0
 16 21  1  0  0  0  0
 16 17  1  0  0  0  0
 17 18  2  0  0  0  0
 17 39  1  0  0  0  0
 18 19  1  0  0  0  0
 18 40  1  0  0  0  0
 19 20  2  0  0  0  0
 19 41  1  0  0  0  0
 20 21  1  0  0  0  0
 20 42  1  0  0  0  0
 22 43  1  0  0  0  0
M  END
$$$$
CHEMBL602105
 OpenBabel12022418093D

 55 56  0  0  0  0  0  0  0  0999 V2000
    2.8328   -4.6732    0.0183 C   0  0  0  0  0  0  0  0  0  0  0  0
    2.4742   -3.2477   -0.3907 C   0  0  0  0  0  0  0  0  0  0  0  0
    2.9247   -2.8526   -1.8176 C   0  0  0  0  0  0  0  0  0  0  0  0
    2.1790   -3.7013   -2.8720 C   0  0  0  0  0  0  0  0  0  0  0  0
    2.5788   -1.3762   -2.0775 C   0  0  0  0  0  0  0  0  0  0  0  0
    4.4400   -3.0672   -2.0049 C   0  0  0  0  0  0  0  0  0  0  0  0
    4.8440   -3.8317   -2.8831 O   0  0  0  0  0  0  0  0  0  0  0  0
    5.2580   -2.3836   -1.1156 N   0  0  0  0  0  0  0  0  0  0  0  0
    6.6734   -2.4143   -1.1323 C   0  0  0  0  0  0  0  0  0  0  0  0
    7.3802   -2.0161    0.0044 C   0  0  0  0  0  0  0  0  0  0  0  0
    8.7925   -2.0752    0.0478 C   0  0  0  0  0  0  0  0  0  0  0  0
    9.4958   -1.6527    1.3127 C   0  0  0  0  0  0  0  0  0  0  0  0
    9.5116   -2.5243   -1.0859 C   0  0  0  0  0  0  0  0  0  0  0  0
   11.0196   -2.5910   -1.0895 C   0  0  0  0  0  0  0  0  0  0  0  0
    8.7809   -2.8917   -2.2367 C   0  0  0  0  0  0  0  0  0  0  0  0
    7.3854   -2.8210   -2.2537 C   0  0  0  0  0  0  0  0  0  0  0  0
    9.6227   -3.3977   -3.7350 S   0  0  0  0  0  0  0  0  0  0  0  0
   10.3045   -2.2138   -4.2175 O   0  0  0  0  0  0  0  0  0  0  0  0
   10.3280   -4.6280   -3.4455 O   0  0  0  0  0  0  0  0  0  0  0  0
    8.3535   -3.7652   -4.8500 N   0  0  0  0  0  0  0  0  0  0  0  0
    8.4889   -3.0990   -6.1658 C   0  0  0  0  0  0  0  0  0  0  0  0
    7.3015   -3.3845   -7.0764 C   0  0  0  0  0  0  0  0  0  0  0  0
    7.0477   -4.8779   -7.1995 C   0  0  0  0  0  0  0  0  0  0  0  0
    6.7804   -5.4528   -5.8164 C   0  0  0  0  0  0  0  0  0  0  0  0
    7.9563   -5.2000   -4.8776 C   0  0  0  0  0  0  0  0  0  0  0  0
    2.5085   -4.8569    1.0475 H   0  0  0  0  0  0  0  0  0  0  0  0
    3.9123   -4.8458   -0.0232 H   0  0  0  0  0  0  0  0  0  0  0  0
    2.3395   -5.4121   -0.6191 H   0  0  0  0  0  0  0  0  0  0  0  0
    2.9077   -2.5629    0.3482 H   0  0  0  0  0  0  0  0  0  0  0  0
    1.3858   -3.1280   -0.3070 H   0  0  0  0  0  0  0  0  0  0  0  0
    1.0936   -3.6038   -2.7732 H   0  0  0  0  0  0  0  0  0  0  0  0
    2.4326   -4.7650   -2.7922 H   0  0  0  0  0  0  0  0  0  0  0  0
    2.4522   -3.3914   -3.8892 H   0  0  0  0  0  0  0  0  0  0  0  0
    1.4980   -1.2070   -2.0043 H   0  0  0  0  0  0  0  0  0  0  0  0
    2.8969   -1.0677   -3.0805 H   0  0  0  0  0  0  0  0  0  0  0  0
    3.0685   -0.7071   -1.3620 H   0  0  0  0  0  0  0  0  0  0  0  0
    4.8248   -1.9519   -0.3093 H   0  0  0  0  0  0  0  0  0  0  0  0
    6.8407   -1.6774    0.8868 H   0  0  0  0  0  0  0  0  0  0  0  0
    8.7879   -1.3468    2.0899 H   0  0  0  0  0  0  0  0  0  0  0  0
   10.1534   -0.7998    1.1150 H   0  0  0  0  0  0  0  0  0  0  0  0
   10.0823   -2.4843    1.7168 H   0  0  0  0  0  0  0  0  0  0  0  0
   11.4659   -2.2978   -0.1366 H   0  0  0  0  0  0  0  0  0  0  0  0
   11.4269   -1.9141   -1.8458 H   0  0  0  0  0  0  0  0  0  0  0  0
   11.3570   -3.6128   -1.2859 H   0  0  0  0  0  0  0  0  0  0  0  0
    6.8634   -3.0534   -3.1707 H   0  0  0  0  0  0  0  0  0  0  0  0
    9.4193   -3.4182   -6.6467 H   0  0  0  0  0  0  0  0  0  0  0  0
    8.5264   -2.0136   -6.0125 H   0  0  0  0  0  0  0  0  0  0  0  0
    7.4884   -2.9548   -8.0667 H   0  0  0  0  0  0  0  0  0  0  0  0
    6.4019   -2.8955   -6.6805 H   0  0  0  0  0  0  0  0  0  0  0  0
    7.9167   -5.3708   -7.6526 H   0  0  0  0  0  0  0  0  0  0  0  0
    6.1910   -5.0613   -7.8567 H   0  0  0  0  0  0  0  0  0  0  0  0
    6.5974   -6.5306   -5.8948 H   0  0  0  0  0  0  0  0  0  0  0  0
    5.8689   -5.0026   -5.4044 H   0  0  0  0  0  0  0  0  0  0  0  0
    7.6674   -5.5207   -3.8699 H   0  0  0  0  0  0  0  0  0  0  0  0
    8.8075   -5.8080   -5.2032 H   0  0  0  0  0  0  0  0  0  0  0  0
  1  2  1  0  0  0  0
  1 26  1  0  0  0  0
  1 27  1  0  0  0  0
  1 28  1  0  0  0  0
  2  3  1  0  0  0  0
  2 29  1  0  0  0  0
  2 30  1  0  0  0  0
  3  4  1  0  0  0  0
  3  5  1  0  0  0  0
  3  6  1  0  0  0  0
  4 31  1  0  0  0  0
  4 32  1  0  0  0  0
  4 33  1  0  0  0  0
  5 34  1  0  0  0  0
  5 35  1  0  0  0  0
  5 36  1  0  0  0  0
  6  7  2  0  0  0  0
  6  8  1  0  0  0  0
  8  9  1  0  0  0  0
  8 37  1  0  0  0  0
  9 16  2  0  0  0  0
  9 10  1  0  0  0  0
 10 11  2  0  0  0  0
 10 38  1  0  0  0  0
 11 12  1  0  0  0  0
 11 13  1  0  0  0  0
 12 39  1  0  0  0  0
 12 40  1  0  0  0  0
 12 41  1  0  0  0  0
 13 14  1  0  0  0  0
 13 15  2  0  0  0  0
 14 42  1  0  0  0  0
 14 43  1  0  0  0  0
 14 44  1  0  0  0  0
 15 16  1  0  0  0  0
 15 17  1  0  0  0  0
 16 45  1  0  0  0  0
 17 18  2  0  0  0  0
 17 19  2  0  0  0  0
 17 20  1  0  0  0  0
 20 25  1  0  0  0  0
 20 21  1  0  0  0  0
 21 22  1  0  0  0  0
 21 46  1  0  0  0  0
 21 47  1  0  0  0  0
 22 23  1  0  0  0  0
 22 48  1  0  0  0  0
 22 49  1  0  0  0  0
 23 24  1  0  0  0  0
 23 50  1  0  0  0  0
 23 51  1  0  0  0  0
 24 25  1  0  0  0  0
 24 52  1  0  0  0  0
 24 53  1  0  0  0  0
 25 54  1  0  0  0  0
 25 55  1  0  0  0  0
M  END
$$$$
CHEMBL74662
 OpenBabel12022418093D

 53 55  0  0  1  0  0  0  0  0999 V2000
    3.0253   -0.2758    1.5485 C   0  0  0  0  0  0  0  0  0  0  0  0
    4.1052   -0.7812    0.6272 C   0  0  0  0  0  0  0  0  0  0  0  0
    3.8156   -0.8236   -0.6806 C   0  0  0  0  0  0  0  0  0  0  0  0
    4.5958   -1.6674   -1.5866 C   0  0  0  0  0  0  0  0  0  0  0  0
    5.0522   -2.9132   -0.8391 C   0  0  1  0  0  0  0  0  0  0  0  0
    6.1278   -2.5281    0.1739 C   0  0  1  0  0  0  0  0  0  0  0  0
    5.4303   -1.4706    1.1772 C   0  0  0  0  0  0  0  0  0  0  0  0
    6.7676   -3.9177    0.4944 C   0  0  0  0  0  0  0  0  0  0  0  0
    8.1342   -4.1251    0.7125 C   0  0  0  0  0  0  0  0  0  0  0  0
    8.7185   -5.4134    0.6452 C   0  0  0  0  0  0  0  0  0  0  0  0
    7.9526   -6.5551    0.3670 C   0  0  0  0  0  0  0  0  0  0  0  0
    8.5408   -7.9358    0.1819 C   0  0  0  0  0  0  0  0  0  0  0  0
    9.3397   -8.4771    1.3636 C   0  0  0  0  0  0  0  0  0  0  0  0
    8.5143   -8.5899    2.6491 C   0  0  0  0  0  0  0  0  0  0  0  0
    9.3669   -9.1478    3.7883 C   0  0  0  0  0  0  0  0  0  0  0  0
    8.6335   -9.2054    5.1155 C   0  0  0  0  0  0  0  0  0  0  0  0
    7.3400   -8.8378    5.0187 F   0  0  0  0  0  0  0  0  0  0  0  0
    8.6646  -10.4600    5.6200 F   0  0  0  0  0  0  0  0  0  0  0  0
    9.2246   -8.3939    6.0214 F   0  0  0  0  0  0  0  0  0  0  0  0
    6.5955   -6.3911    0.1818 C   0  0  0  0  0  0  0  0  0  0  0  0
    6.0213   -5.1143    0.2136 C   0  0  0  0  0  0  0  0  0  0  0  0
    4.7019   -5.1567   -0.2067 O   0  0  0  0  0  0  0  0  0  0  0  0
    4.0574   -3.8788   -0.0630 C   0  0  0  0  0  0  0  0  0  0  0  0
    3.7836   -3.8452    1.4776 C   0  0  0  0  0  0  0  0  0  0  0  0
    2.6763   -3.9324   -0.7113 C   0  0  0  0  0  0  0  0  0  0  0  0
    9.0314   -3.1072    0.9026 O   0  0  0  0  0  0  0  0  0  0  0  0
    3.2375    0.7300    1.9121 H   0  0  0  0  0  0  0  0  0  0  0  0
    2.8591   -0.9512    2.3893 H   0  0  0  0  0  0  0  0  0  0  0  0
    2.0512   -0.2418    1.0120 H   0  0  0  0  0  0  0  0  0  0  0  0
    2.9136   -0.3768   -1.0763 H   0  0  0  0  0  0  0  0  0  0  0  0
    5.4589   -1.0959   -1.9604 H   0  0  0  0  0  0  0  0  0  0  0  0
    4.0106   -1.9457   -2.4655 H   0  0  0  0  0  0  0  0  0  0  0  0
    5.5275   -3.4982   -1.6453 H   0  0  0  0  0  0  0  0  0  0  0  0
    6.9039   -1.9561   -0.3544 H   0  0  0  0  0  0  0  0  0  0  0  0
    5.2568   -1.9008    2.1674 H   0  0  0  0  0  0  0  0  0  0  0  0
    6.1455   -0.6535    1.3568 H   0  0  0  0  0  0  0  0  0  0  0  0
    9.7979   -5.5070    0.7535 H   0  0  0  0  0  0  0  0  0  0  0  0
    9.1748   -7.9172   -0.7148 H   0  0  0  0  0  0  0  0  0  0  0  0
    7.7388   -8.6530   -0.0447 H   0  0  0  0  0  0  0  0  0  0  0  0
   10.2194   -7.8480    1.5393 H   0  0  0  0  0  0  0  0  0  0  0  0
    9.7120   -9.4739    1.0923 H   0  0  0  0  0  0  0  0  0  0  0  0
    7.6515   -9.2447    2.4787 H   0  0  0  0  0  0  0  0  0  0  0  0
    8.1253   -7.6064    2.9361 H   0  0  0  0  0  0  0  0  0  0  0  0
   10.2635   -8.5278    3.9039 H   0  0  0  0  0  0  0  0  0  0  0  0
    9.7163  -10.1522    3.5210 H   0  0  0  0  0  0  0  0  0  0  0  0
    5.9555   -7.2362   -0.0654 H   0  0  0  0  0  0  0  0  0  0  0  0
    4.6888   -3.8744    2.0983 H   0  0  0  0  0  0  0  0  0  0  0  0
    3.2608   -4.7635    1.7820 H   0  0  0  0  0  0  0  0  0  0  0  0
    3.1613   -3.0155    1.8022 H   0  0  0  0  0  0  0  0  0  0  0  0
    2.7387   -3.9680   -1.8003 H   0  0  0  0  0  0  0  0  0  0  0  0
    2.0783   -3.0604   -0.4201 H   0  0  0  0  0  0  0  0  0  0  0  0
    2.1333   -4.8275   -0.3882 H   0  0  0  0  0  0  0  0  0  0  0  0
    8.5779   -2.2547    0.8464 H   0  0  0  0  0  0  0  0  0  0  0  0
  1  2  1  0  0  0  0
  1 27  1  0  0  0  0
  1 28  1  0  0  0  0
  1 29  1  0  0  0  0
  2  7  1  0  0  0  0
  2  3  2  0  0  0  0
  3  4  1  0  0  0  0
  3 30  1  0  0  0  0
  4 31  1  0  0  0  0
  4 32  1  0  0  0  0
  5  4  1  0  0  0  0
  5  6  1  0  0  0  0
  5 23  1  0  0  0  0
  5 33  1  6  0  0  0
  6  7  1  0  0  0  0
  6  8  1  0  0  0  0
  6 34  1  6  0  0  0
  7 35  1  0  0  0  0
  7 36  1  0  0  0  0
  8 21  2  0  0  0  0
  8  9  1  0  0  0  0
  9 10  2  0  0  0  0
  9 26  1  0  0  0  0
 10 11  1  0  0  0  0
 10 37  1  0  0  0  0
 11 12  1  0  0  0  0
 11 20  2  0  0  0  0
 12 13  1  0  0  0  0
 12 38  1  0  0  0  0
 12 39  1  0  0  0  0
 13 14  1  0  0  0  0
 13 40  1  0  0  0  0
 13 41  1  0  0  0  0
 14 15  1  0  0  0  0
 14 42  1  0  0  0  0
 14 43  1  0  0  0  0
 15 16  1  0  0  0  0
 15 44  1  0  0  0  0
 15 45  1  0  0  0  0
 16 17  1  0  0  0  0
 16 18  1  0  0  0  0
 16 19  1  0  0  0  0
 20 21  1  0  0  0  0
 20 46  1  0  0  0  0
 21 22  1  0  0  0  0
 22 23  1  0  0  0  0
 23 24  1  0  0  0  0
 23 25  1  0  0  0  0
 24 47  1  0  0  0  0
 24 48  1  0  0  0  0
 24 49  1  0  0  0  0
 25 50  1  0  0  0  0
 25 51  1  0  0  0  0
 25 52  1  0  0  0  0
 26 53  1  0  0  0  0
M  END
$$$$
CHEMBL2326299
 OpenBabel12022418093D

 60 62  0  0  0  0  0  0  0  0999 V2000
    3.1607    1.5650    4.4475 C   0  0  0  0  0  0  0  0  0  0  0  0
    3.8646    1.7352    3.1089 C   0  0  0  0  0  0  0  0  0  0  0  0
    5.1187    2.5093    3.1815 N   0  0  0  0  0  0  0  0  0  0  0  0
    5.0760    3.8545    3.7919 C   0  0  0  0  0  0  0  0  0  0  0  0
    4.2591    4.8582    2.9830 C   0  0  0  0  0  0  0  0  0  0  0  0
    5.9926    2.3622    2.0807 C   0  0  0  0  0  0  0  0  0  0  0  0
    7.3756    2.5566    2.2177 C   0  0  0  0  0  0  0  0  0  0  0  0
    8.2647    2.3997    1.1299 C   0  0  0  0  0  0  0  0  0  0  0  0
    7.7925    2.0609   -0.1475 C   0  0  0  0  0  0  0  0  0  0  0  0
    8.7050    2.0186   -1.3723 C   0  0  0  0  0  0  0  0  0  0  0  0
    9.3910    0.7324   -1.6212 N   0  0  0  0  0  0  0  0  0  0  0  0
    8.5994   -0.4270   -1.9066 C   0  0  0  0  0  0  0  0  0  0  0  0
    8.6051   -1.4580   -0.9674 C   0  0  0  0  0  0  0  0  0  0  0  0
    7.8320   -2.6021   -1.1671 C   0  0  0  0  0  0  0  0  0  0  0  0
    7.0520   -2.7368   -2.3200 C   0  0  0  0  0  0  0  0  0  0  0  0
    6.1890   -3.9514   -2.5043 C   0  0  0  0  0  0  0  0  0  0  0  0
    7.0487   -1.6983   -3.2626 C   0  0  0  0  0  0  0  0  0  0  0  0
    7.8258   -0.5485   -3.0625 C   0  0  0  0  0  0  0  0  0  0  0  0
   11.0066    0.7398   -2.1623 S   0  0  0  0  0  0  0  0  0  0  0  0
   11.6653    1.9003   -1.5920 O   0  0  0  0  0  0  0  0  0  0  0  0
   11.5747   -0.5795   -1.9622 O   0  0  0  0  0  0  0  0  0  0  0  0
   10.9618    1.0100   -3.9385 C   0  0  0  0  0  0  0  0  0  0  0  0
   10.9838    2.3191   -4.4326 C   0  0  0  0  0  0  0  0  0  0  0  0
   11.0626    2.5430   -5.8100 C   0  0  0  0  0  0  0  0  0  0  0  0
   11.1756    1.4679   -6.6925 C   0  0  0  0  0  0  0  0  0  0  0  0
   11.2496    0.1568   -6.2072 C   0  0  0  0  0  0  0  0  0  0  0  0
   11.5583   -0.9733   -7.1511 C   0  0  0  0  0  0  0  0  0  0  0  0
   11.1298   -0.0699   -4.8231 C   0  0  0  0  0  0  0  0  0  0  0  0
    6.4156    1.8193   -0.2797 C   0  0  0  0  0  0  0  0  0  0  0  0
    5.5463    1.9735    0.8084 C   0  0  0  0  0  0  0  0  0  0  0  0
    2.4049    0.7747    4.3625 H   0  0  0  0  0  0  0  0  0  0  0  0
    2.6363    2.4794    4.7422 H   0  0  0  0  0  0  0  0  0  0  0  0
    3.8545    1.2867    5.2461 H   0  0  0  0  0  0  0  0  0  0  0  0
    3.1655    2.1912    2.3990 H   0  0  0  0  0  0  0  0  0  0  0  0
    4.0923    0.7230    2.7526 H   0  0  0  0  0  0  0  0  0  0  0  0
    6.0840    4.2567    3.9455 H   0  0  0  0  0  0  0  0  0  0  0  0
    4.6401    3.7829    4.7949 H   0  0  0  0  0  0  0  0  0  0  0  0
    4.7224    5.0585    2.0129 H   0  0  0  0  0  0  0  0  0  0  0  0
    4.1876    5.8108    3.5230 H   0  0  0  0  0  0  0  0  0  0  0  0
    3.2399    4.5045    2.8030 H   0  0  0  0  0  0  0  0  0  0  0  0
    7.7890    2.8064    3.1936 H   0  0  0  0  0  0  0  0  0  0  0  0
    9.3288    2.5575    1.2949 H   0  0  0  0  0  0  0  0  0  0  0  0
    9.4318    2.8274   -1.2443 H   0  0  0  0  0  0  0  0  0  0  0  0
    8.1192    2.2991   -2.2569 H   0  0  0  0  0  0  0  0  0  0  0  0
    9.2058   -1.3655   -0.0661 H   0  0  0  0  0  0  0  0  0  0  0  0
    7.8443   -3.3849   -0.4121 H   0  0  0  0  0  0  0  0  0  0  0  0
    6.5770   -4.8002   -1.9301 H   0  0  0  0  0  0  0  0  0  0  0  0
    6.1641   -4.2567   -3.5552 H   0  0  0  0  0  0  0  0  0  0  0  0
    5.1686   -3.7419   -2.1669 H   0  0  0  0  0  0  0  0  0  0  0  0
    6.4362   -1.7805   -4.1588 H   0  0  0  0  0  0  0  0  0  0  0  0
    7.8074    0.2391   -3.8097 H   0  0  0  0  0  0  0  0  0  0  0  0
   10.9881    3.1705   -3.7568 H   0  0  0  0  0  0  0  0  0  0  0  0
   11.0783    3.5586   -6.1995 H   0  0  0  0  0  0  0  0  0  0  0  0
   11.2491    1.6639   -7.7612 H   0  0  0  0  0  0  0  0  0  0  0  0
   11.5080   -0.6470   -8.1969 H   0  0  0  0  0  0  0  0  0  0  0  0
   10.8485   -1.7953   -7.0254 H   0  0  0  0  0  0  0  0  0  0  0  0
   12.5752   -1.3394   -6.9715 H   0  0  0  0  0  0  0  0  0  0  0  0
   11.2207   -1.0841   -4.4356 H   0  0  0  0  0  0  0  0  0  0  0  0
    6.0044    1.5217   -1.2376 H   0  0  0  0  0  0  0  0  0  0  0  0
    4.4939    1.8016    0.6166 H   0  0  0  0  0  0  0  0  0  0  0  0
  1  2  1  0  0  0  0
  1 31  1  0  0  0  0
  1 32  1  0  0  0  0
  1 33  1  0  0  0  0
  2  3  1  0  0  0  0
  2 34  1  0  0  0  0
  2 35  1  0  0  0  0
  3  4  1  0  0  0  0
  3  6  1  0  0  0  0
  4  5  1  0  0  0  0
  4 36  1  0  0  0  0
  4 37  1  0  0  0  0
  5 38  1  0  0  0  0
  5 39  1  0  0  0  0
  5 40  1  0  0  0  0
  6 30  2  0  0  0  0
  6  7  1  0  0  0  0
  7  8  2  0  0  0  0
  7 41  1  0  0  0  0
  8  9  1  0  0  0  0
  8 42  1  0  0  0  0
  9 10  1  0  0  0  0
  9 29  2  0  0  0  0
 10 11  1  0  0  0  0
 10 43  1  0  0  0  0
 10 44  1  0  0  0  0
 11 12  1  0  0  0  0
 11 19  1  0  0  0  0
 12 18  2  0  0  0  0
 12 13  1  0  0  0  0
 13 14  2  0  0  0  0
 13 45  1  0  0  0  0
 14 15  1  0  0  0  0
 14 46  1  0  0  0  0
 15 16  1  0  0  0  0
 15 17  2  0  0  0  0
 16 47  1  0  0  0  0
 16 48  1  0  0  0  0
 16 49  1  0  0  0  0
 17 18  1  0  0  0  0
 17 50  1  0  0  0  0
 18 51  1  0  0  0  0
 19 20  2  0  0  0  0
 19 21  2  0  0  0  0
 19 22  1  0  0  0  0
 22 28  2  0  0  0  0
 22 23  1  0  0  0  0
 23 24  2  0  0  0  0
 23 52  1  0  0  0  0
 24 25  1  0  0  0  0
 24 53  1  0  0  0  0
 25 26  2  0  0  0  0
 25 54  1  0  0  0  0
 26 27  1  0  0  0  0
 26 28  1  0  0  0  0
 27 55  1  0  0  0  0
 27 56  1  0  0  0  0
 27 57  1  0  0  0  0
 28 58  1  0  0  0  0
 29 30  1  0  0  0  0
 29 59  1  0  0  0  0
 30 60  1  0  0  0  0
M  END
$$$$
CHEMBL252279
 OpenBabel12022418093D

 57 60  0  0  1  0  0  0  0  0999 V2000
    2.1060   -0.8591    0.4926 C   0  0  0  0  0  0  0  0  0  0  0  0
    0.6808   -0.4702    0.2370 C   0  0  0  0  0  0  0  0  0  0  0  0
   -0.2219   -1.5375    0.0331 C   0  0  0  0  0  0  0  0  0  0  0  0
   -1.5907   -1.3143   -0.1250 C   0  0  0  0  0  0  0  0  0  0  0  0
   -2.0888   -0.0168   -0.0580 C   0  0  0  0  0  0  0  0  0  0  0  0
   -3.5604    0.1798   -0.0440 C   0  0  0  0  0  0  0  0  0  0  0  0
   -4.2414   -0.7229    0.4407 O   0  0  0  0  0  0  0  0  0  0  0  0
   -4.1022    1.3881   -0.4611 N   0  0  0  0  0  0  0  0  0  0  0  0
   -3.5708    2.2515   -1.5200 C   0  0  0  0  0  0  0  0  0  0  0  0
   -3.6132    3.7170   -1.0737 C   0  0  0  0  0  0  0  0  0  0  0  0
   -5.0204    4.1343   -0.5928 C   0  0  1  0  0  0  0  0  0  0  0  0
   -5.9709    4.3274   -1.7847 C   0  0  0  0  0  0  0  0  0  0  0  0
   -7.4727    4.1387   -1.5492 C   0  0  0  0  0  0  0  0  0  0  0  0
   -7.9325    3.4329   -0.2765 C   0  0  0  0  0  0  0  0  0  0  0  0
   -6.9536    3.5256    0.8794 C   0  0  0  0  0  0  0  0  0  0  0  0
   -5.5435    3.1349    0.4516 C   0  0  1  0  0  0  0  0  0  0  0  0
   -5.4693    1.6891   -0.0624 C   0  0  0  0  0  0  0  0  0  0  0  0
   -1.2003    1.0444    0.1226 C   0  0  0  0  0  0  0  0  0  0  0  0
    0.1894    0.8412    0.2116 C   0  0  0  0  0  0  0  0  0  0  0  0
    1.1913    2.3209   -0.0459 S   0  0  0  0  0  0  0  0  0  0  0  0
    2.5016    1.9057   -0.4942 O   0  0  0  0  0  0  0  0  0  0  0  0
    0.3910    3.2062   -0.8722 O   0  0  0  0  0  0  0  0  0  0  0  0
    1.3461    3.0611    1.4537 N   0  0  0  0  0  0  0  0  0  0  0  0
    2.3026    2.5726    2.4493 C   0  0  0  0  0  0  0  0  0  0  0  0
    1.4160    2.0751    3.5707 C   0  0  0  0  0  0  0  0  0  0  0  0
    0.2657    3.0707    3.5860 C   0  0  0  0  0  0  0  0  0  0  0  0
    0.1753    3.6150    2.1595 C   0  0  0  0  0  0  0  0  0  0  0  0
    2.7014   -0.0494    0.9067 H   0  0  0  0  0  0  0  0  0  0  0  0
    2.5749   -1.2328   -0.4223 H   0  0  0  0  0  0  0  0  0  0  0  0
    2.1256   -1.6552    1.2484 H   0  0  0  0  0  0  0  0  0  0  0  0
    0.1371   -2.5641    0.0018 H   0  0  0  0  0  0  0  0  0  0  0  0
   -2.2682   -2.1554   -0.2653 H   0  0  0  0  0  0  0  0  0  0  0  0
   -4.1963    2.0943   -2.4053 H   0  0  0  0  0  0  0  0  0  0  0  0
   -2.5646    1.9604   -1.8288 H   0  0  0  0  0  0  0  0  0  0  0  0
   -3.2737    4.3683   -1.8866 H   0  0  0  0  0  0  0  0  0  0  0  0
   -2.9102    3.8584   -0.2428 H   0  0  0  0  0  0  0  0  0  0  0  0
   -4.9194    5.1100   -0.0959 H   0  0  0  0  0  0  0  0  0  0  0  0
   -5.6786    3.6763   -2.6157 H   0  0  0  0  0  0  0  0  0  0  0  0
   -5.8131    5.3436   -2.1732 H   0  0  0  0  0  0  0  0  0  0  0  0
   -7.8790    3.5827   -2.4058 H   0  0  0  0  0  0  0  0  0  0  0  0
   -7.9554    5.1215   -1.5949 H   0  0  0  0  0  0  0  0  0  0  0  0
   -8.1275    2.3765   -0.4989 H   0  0  0  0  0  0  0  0  0  0  0  0
   -8.9007    3.8434    0.0337 H   0  0  0  0  0  0  0  0  0  0  0  0
   -7.2893    2.8777    1.6981 H   0  0  0  0  0  0  0  0  0  0  0  0
   -6.9465    4.5491    1.2746 H   0  0  0  0  0  0  0  0  0  0  0  0
   -4.8931    3.2044    1.3357 H   0  0  0  0  0  0  0  0  0  0  0  0
   -5.8089    1.0079    0.7265 H   0  0  0  0  0  0  0  0  0  0  0  0
   -6.1023    1.5177   -0.9406 H   0  0  0  0  0  0  0  0  0  0  0  0
   -1.5892    2.0582    0.1681 H   0  0  0  0  0  0  0  0  0  0  0  0
    2.9090    3.4252    2.7805 H   0  0  0  0  0  0  0  0  0  0  0  0
    2.9861    1.8091    2.0791 H   0  0  0  0  0  0  0  0  0  0  0  0
    1.9421    2.0274    4.5281 H   0  0  0  0  0  0  0  0  0  0  0  0
    1.0413    1.0733    3.3345 H   0  0  0  0  0  0  0  0  0  0  0  0
    0.4679    3.8868    4.2890 H   0  0  0  0  0  0  0  0  0  0  0  0
   -0.6696    2.5945    3.8982 H   0  0  0  0  0  0  0  0  0  0  0  0
   -0.7781    3.3558    1.7010 H   0  0  0  0  0  0  0  0  0  0  0  0
    0.2485    4.7085    2.1662 H   0  0  0  0  0  0  0  0  0  0  0  0
  1  2  1  0  0  0  0
  1 28  1  0  0  0  0
  1 29  1  0  0  0  0
  1 30  1  0  0  0  0
  2 19  2  0  0  0  0
  2  3  1  0  0  0  0
  3  4  2  0  0  0  0
  3 31  1  0  0  0  0
  4  5  1  0  0  0  0
  4 32  1  0  0  0  0
  5  6  1  0  0  0  0
  5 18  2  0  0  0  0
  6  7  2  0  0  0  0
  6  8  1  0  0  0  0
  8 17  1  0  0  0  0
  8  9  1  0  0  0  0
  9 10  1  0  0  0  0
  9 33  1  0  0  0  0
  9 34  1  0  0  0  0
 10 35  1  0  0  0  0
 10 36  1  0  0  0  0
 11 10  1  0  0  0  0
 11 12  1  0  0  0  0
 11 16  1  0  0  0  0
 11 37  1  1  0  0  0
 12 13  1  0  0  0  0
 12 38  1  0  0  0  0
 12 39  1  0  0  0  0
 13 14  1  0  0  0  0
 13 40  1  0  0  0  0
 13 41  1  0  0  0  0
 14 15  1  0  0  0  0
 14 42  1  0  0  0  0
 14 43  1  0  0  0  0
 15 44  1  0  0  0  0
 15 45  1  0  0  0  0
 16 15  1  0  0  0  0
 16 17  1  0  0  0  0
 16 46  1  1  0  0  0
 17 47  1  0  0  0  0
 17 48  1  0  0  0  0
 18 19  1  0  0  0  0
 18 49  1  0  0  0  0
 19 20  1  0  0  0  0
 20 21  2  0  0  0  0
 20 22  2  0  0  0  0
 20 23  1  0  0  0  0
 23 27  1  0  0  0  0
 23 24  1  0  0  0  0
 24 25  1  0  0  0  0
 24 50  1  0  0  0  0
 24 51  1  0  0  0  0
 25 26  1  0  0  0  0
 25 52  1  0  0  0  0
 25 53  1  0  0  0  0
 26 27  1  0  0  0  0
 26 54  1  0  0  0  0
 26 55  1  0  0  0  0
 27 56  1  0  0  0  0
 27 57  1  0  0  0  0
M  END
$$$$
CHEMBL371040
 OpenBabel12022418093D

 56 58  0  0  1  0  0  0  0  0999 V2000
   -1.6848    2.4828    5.0832 C   0  0  0  0  0  0  0  0  0  0  0  0
   -0.9723    2.1075    3.7833 C   0  0  2  0  0  0  0  0  0  0  0  0
   -1.0227    0.5922    3.5730 C   0  0  0  0  0  0  0  0  0  0  0  0
   -1.7147    0.0420    2.4810 C   0  0  0  0  0  0  0  0  0  0  0  0
   -1.7863   -1.3492    2.2972 C   0  0  0  0  0  0  0  0  0  0  0  0
   -1.2029   -2.2054    3.2373 C   0  0  0  0  0  0  0  0  0  0  0  0
   -0.4880   -1.6733    4.3145 C   0  0  0  0  0  0  0  0  0  0  0  0
   -0.3884   -0.2846    4.4706 C   0  0  0  0  0  0  0  0  0  0  0  0
   -1.3828   -4.0026    3.1298 S   0  0  0  0  0  0  0  0  0  0  0  0
   -0.3115   -4.3909    2.2338 O   0  0  0  0  0  0  0  0  0  0  0  0
   -1.4253   -4.4830    4.4971 O   0  0  0  0  0  0  0  0  0  0  0  0
   -2.9948   -4.4359    2.4374 C   0  0  0  0  0  0  0  0  0  0  0  0
   -4.0323   -3.5174    2.7277 C   0  0  0  0  0  0  0  0  0  0  0  0
   -5.2970   -3.6426    2.1592 C   0  0  0  0  0  0  0  0  0  0  0  0
   -5.5589   -4.7202    1.3358 C   0  0  0  0  0  0  0  0  0  0  0  0
   -4.5764   -5.6849    1.1098 C   0  0  0  0  0  0  0  0  0  0  0  0
   -3.2670   -5.5934    1.6574 C   0  0  0  0  0  0  0  0  0  0  0  0
   -2.2780   -6.7399    1.3756 C   0  0  2  0  0  0  0  0  0  0  0  0
   -2.7962   -7.8322    0.3939 C   0  0  0  0  0  0  0  0  0  0  0  0
   -1.8123   -7.5083    2.6209 C   0  0  0  0  0  0  0  0  0  0  0  0
   -0.4542   -7.7059    2.9327 C   0  0  0  0  0  0  0  0  0  0  0  0
   -0.0648   -8.5925    3.9456 C   0  0  0  0  0  0  0  0  0  0  0  0
   -1.0204   -9.2775    4.6930 C   0  0  0  0  0  0  0  0  0  0  0  0
   -2.3703   -9.0520    4.4479 C   0  0  0  0  0  0  0  0  0  0  0  0
   -2.7513   -8.1785    3.4263 C   0  0  0  0  0  0  0  0  0  0  0  0
   -4.0650   -8.0370    3.1884 F   0  0  0  0  0  0  0  0  0  0  0  0
   -1.2313   -6.1462    0.6069 O   0  0  0  0  0  0  0  0  0  0  0  0
   -7.1051   -4.8814    0.5996 Cl  0  0  0  0  0  0  0  0  0  0  0  0
    0.4472    2.5783    3.7435 N   0  0  0  0  0  0  0  0  0  0  0  0
    0.6849    4.2451    3.9219 S   0  0  0  0  0  0  0  0  0  0  0  0
   -0.0168    4.8813    2.8297 O   0  0  0  0  0  0  0  0  0  0  0  0
    0.4372    4.6005    5.2993 O   0  0  0  0  0  0  0  0  0  0  0  0
    2.4337    4.3925    3.6280 C   0  0  0  0  0  0  0  0  0  0  0  0
   -1.8287    3.5648    5.1632 H   0  0  0  0  0  0  0  0  0  0  0  0
   -1.1252    2.1557    5.9664 H   0  0  0  0  0  0  0  0  0  0  0  0
   -2.6832    2.0337    5.1293 H   0  0  0  0  0  0  0  0  0  0  0  0
   -1.5001    2.5817    2.9455 H   0  0  0  0  0  0  0  0  0  0  0  0
   -2.2169    0.6927    1.7658 H   0  0  0  0  0  0  0  0  0  0  0  0
   -2.3181   -1.7367    1.4322 H   0  0  0  0  0  0  0  0  0  0  0  0
   -0.0036   -2.3293    5.0348 H   0  0  0  0  0  0  0  0  0  0  0  0
    0.1791    0.1145    5.3106 H   0  0  0  0  0  0  0  0  0  0  0  0
   -3.8698   -2.6794    3.4023 H   0  0  0  0  0  0  0  0  0  0  0  0
   -6.0633   -2.8994    2.3619 H   0  0  0  0  0  0  0  0  0  0  0  0
   -4.8652   -6.5271    0.4860 H   0  0  0  0  0  0  0  0  0  0  0  0
   -2.0114   -8.5713    0.1829 H   0  0  0  0  0  0  0  0  0  0  0  0
   -3.0582   -7.3978   -0.5794 H   0  0  0  0  0  0  0  0  0  0  0  0
   -3.6648   -8.3823    0.7729 H   0  0  0  0  0  0  0  0  0  0  0  0
    0.3306   -7.1884    2.3863 H   0  0  0  0  0  0  0  0  0  0  0  0
    0.9928   -8.7572    4.1427 H   0  0  0  0  0  0  0  0  0  0  0  0
   -0.7124   -9.9803    5.4638 H   0  0  0  0  0  0  0  0  0  0  0  0
   -3.1309   -9.5671    5.0261 H   0  0  0  0  0  0  0  0  0  0  0  0
   -0.4882   -6.7665    0.5667 H   0  0  0  0  0  0  0  0  0  0  0  0
    0.8706    2.2557    2.8712 H   0  0  0  0  0  0  0  0  0  0  0  0
    2.6486    4.0898    2.6022 H   0  0  0  0  0  0  0  0  0  0  0  0
    2.9695    3.7705    4.3468 H   0  0  0  0  0  0  0  0  0  0  0  0
    2.7080    5.4407    3.7704 H   0  0  0  0  0  0  0  0  0  0  0  0
  1 34  1  0  0  0  0
  1 35  1  0  0  0  0
  1 36  1  0  0  0  0
  2 29  1  0  0  0  0
  2  3  1  0  0  0  0
  2  1  1  0  0  0  0
  2 37  1  6  0  0  0
  3  8  2  0  0  0  0
  3  4  1  0  0  0  0
  4  5  2  0  0  0  0
  4 38  1  0  0  0  0
  5  6  1  0  0  0  0
  5 39  1  0  0  0  0
  6  7  2  0  0  0  0
  6  9  1  0  0  0  0
  7  8  1  0  0  0  0
  7 40  1  0  0  0  0
  8 41  1  0  0  0  0
  9 10  2  0  0  0  0
  9 11  2  0  0  0  0
  9 12  1  0  0  0  0
 12 17  2  0  0  0  0
 12 13  1  0  0  0  0
 13 14  2  0  0  0  0
 13 42  1  0  0  0  0
 14 15  1  0  0  0  0
 14 43  1  0  0  0  0
 15 16  2  0  0  0  0
 15 28  1  0  0  0  0
 16 17  1  0  0  0  0
 16 44  1  0  0  0  0
 18 20  1  0  0  0  0
 18 27  1  6  0  0  0
 18 19  1  0  0  0  0
 18 17  1  0  0  0  0
 19 45  1  0  0  0  0
 19 46  1  0  0  0  0
 19 47  1  0  0  0  0
 20 25  2  0  0  0  0
 20 21  1  0  0  0  0
 21 22  2  0  0  0  0
 21 48  1  0  0  0  0
 22 23  1  0  0  0  0
 22 49  1  0  0  0  0
 23 24  2  0  0  0  0
 23 50  1  0  0  0  0
 24 25  1  0  0  0  0
 24 51  1  0  0  0  0
 25 26  1  0  0  0  0
 27 52  1  0  0  0  0
 29 30  1  0  0  0  0
 29 53  1  0  0  0  0
 30 31  2  0  0  0  0
 30 32  2  0  0  0  0
 30 33  1  0  0  0  0
 33 54  1  0  0  0  0
 33 55  1  0  0  0  0
 33 56  1  0  0  0  0
M  END
$$$$
CHEMBL4644505
 OpenBabel12022418093D

 64 64  0  0  0  0  0  0  0  0999 V2000
    1.4733   -0.1834    0.1105 C   0  0  0  0  0  0  0  0  0  0  0  0
    0.9499    1.1007    0.1406 C   0  0  0  0  0  0  0  0  0  0  0  0
   -0.4300    1.2902    0.2136 C   0  0  0  0  0  0  0  0  0  0  0  0
   -1.3054    0.1924    0.1988 C   0  0  0  0  0  0  0  0  0  0  0  0
   -0.7633   -1.0966    0.1505 C   0  0  0  0  0  0  0  0  0  0  0  0
    0.6185   -1.2945    0.1064 C   0  0  0  0  0  0  0  0  0  0  0  0
    1.0020   -2.6006    0.0361 O   0  0  0  0  0  0  0  0  0  0  0  0
    2.4101   -2.8180   -0.0426 C   0  0  0  0  0  0  0  0  0  0  0  0
    2.6847   -4.3101   -0.1046 C   0  0  0  0  0  0  0  0  0  0  0  0
    4.1880   -4.5668   -0.1809 C   0  0  0  0  0  0  0  0  0  0  0  0
    4.9099   -4.0106    1.0433 C   0  0  0  0  0  0  0  0  0  0  0  0
    6.4100   -4.2520    0.9655 C   0  0  0  0  0  0  0  0  0  0  0  0
    7.0956   -3.6787    2.1989 C   0  0  0  0  0  0  0  0  0  0  0  0
    8.6052   -3.8965    2.1810 C   0  0  0  0  0  0  0  0  0  0  0  0
    9.2386   -3.3169    3.4292 C   0  0  0  0  0  0  0  0  0  0  0  0
    8.5929   -2.7522    4.3080 O   0  0  0  0  0  0  0  0  0  0  0  0
   10.6017   -3.4732    3.4915 N   0  0  0  0  0  0  0  0  0  0  0  0
   11.3458   -2.9370    4.6249 C   0  0  0  0  0  0  0  0  0  0  0  0
   11.4723   -3.9465    5.7667 C   0  0  0  0  0  0  0  0  0  0  0  0
   12.1835   -5.1077    5.3329 O   0  0  0  0  0  0  0  0  0  0  0  0
   -2.7978    0.4317    0.1941 C   0  0  0  0  0  0  0  0  0  0  0  0
   -3.5439   -0.1677    1.3870 C   0  0  0  0  0  0  0  0  0  0  0  0
   -3.0737    0.3793    2.7314 C   0  0  0  0  0  0  0  0  0  0  0  0
   -3.8682   -0.2728    3.8617 C   0  0  0  0  0  0  0  0  0  0  0  0
   -3.4292    0.2368    5.2213 C   0  0  0  0  0  0  0  0  0  0  0  0
    1.7008    2.2504    0.1140 O   0  0  0  0  0  0  0  0  0  0  0  0
    2.9328    2.1542   -0.5974 C   0  0  0  0  0  0  0  0  0  0  0  0
    2.5460   -0.3266    0.0927 H   0  0  0  0  0  0  0  0  0  0  0  0
   -0.8255    2.3016    0.2571 H   0  0  0  0  0  0  0  0  0  0  0  0
   -1.4024   -1.9770    0.1428 H   0  0  0  0  0  0  0  0  0  0  0  0
    2.8658   -2.3974    0.8630 H   0  0  0  0  0  0  0  0  0  0  0  0
    2.8256   -2.3388   -0.9315 H   0  0  0  0  0  0  0  0  0  0  0  0
    2.1812   -4.7379   -0.9803 H   0  0  0  0  0  0  0  0  0  0  0  0
    2.2515   -4.8100    0.7700 H   0  0  0  0  0  0  0  0  0  0  0  0
    4.5916   -4.0982   -1.0883 H   0  0  0  0  0  0  0  0  0  0  0  0
    4.3748   -5.6416   -0.2604 H   0  0  0  0  0  0  0  0  0  0  0  0
    4.4966   -4.4677    1.9510 H   0  0  0  0  0  0  0  0  0  0  0  0
    4.7446   -2.9318    1.1275 H   0  0  0  0  0  0  0  0  0  0  0  0
    6.8139   -3.7816    0.0610 H   0  0  0  0  0  0  0  0  0  0  0  0
    6.6046   -5.3261    0.8926 H   0  0  0  0  0  0  0  0  0  0  0  0
    6.6704   -4.1407    3.0994 H   0  0  0  0  0  0  0  0  0  0  0  0
    6.8814   -2.6039    2.2691 H   0  0  0  0  0  0  0  0  0  0  0  0
    9.0478   -3.4087    1.3049 H   0  0  0  0  0  0  0  0  0  0  0  0
    8.8339   -4.9669    2.1371 H   0  0  0  0  0  0  0  0  0  0  0  0
   11.0765   -4.0561    2.8147 H   0  0  0  0  0  0  0  0  0  0  0  0
   10.8312   -2.0371    4.9867 H   0  0  0  0  0  0  0  0  0  0  0  0
   12.3307   -2.6376    4.2640 H   0  0  0  0  0  0  0  0  0  0  0  0
   10.4977   -4.2535    6.1487 H   0  0  0  0  0  0  0  0  0  0  0  0
   12.0389   -3.4999    6.5919 H   0  0  0  0  0  0  0  0  0  0  0  0
   11.6726   -5.4939    4.6057 H   0  0  0  0  0  0  0  0  0  0  0  0
   -3.2101    0.0108   -0.7306 H   0  0  0  0  0  0  0  0  0  0  0  0
   -2.9943    1.5116    0.1533 H   0  0  0  0  0  0  0  0  0  0  0  0
   -3.4305   -1.2580    1.3817 H   0  0  0  0  0  0  0  0  0  0  0  0
   -4.6166    0.0406    1.2789 H   0  0  0  0  0  0  0  0  0  0  0  0
   -3.2053    1.4680    2.7586 H   0  0  0  0  0  0  0  0  0  0  0  0
   -2.0055    0.1756    2.8665 H   0  0  0  0  0  0  0  0  0  0  0  0
   -3.7397   -1.3610    3.8256 H   0  0  0  0  0  0  0  0  0  0  0  0
   -4.9375   -0.0708    3.7283 H   0  0  0  0  0  0  0  0  0  0  0  0
   -2.3704    0.0213    5.3950 H   0  0  0  0  0  0  0  0  0  0  0  0
   -4.0109   -0.2484    6.0104 H   0  0  0  0  0  0  0  0  0  0  0  0
   -3.5808    1.3178    5.2999 H   0  0  0  0  0  0  0  0  0  0  0  0
    3.3416    3.1660   -0.7024 H   0  0  0  0  0  0  0  0  0  0  0  0
    2.7850    1.7519   -1.6063 H   0  0  0  0  0  0  0  0  0  0  0  0
    3.6651    1.5602   -0.0423 H   0  0  0  0  0  0  0  0  0  0  0  0
  1  6  2  0  0  0  0
  1  2  1  0  0  0  0
  1 28  1  0  0  0  0
  2  3  2  0  0  0  0
  2 26  1  0  0  0  0
  3  4  1  0  0  0  0
  3 29  1  0  0  0  0
  4  5  2  0  0  0  0
  4 21  1  0  0  0  0
  5  6  1  0  0  0  0
  5 30  1  0  0  0  0
  6  7  1  0  0  0  0
  7  8  1  0  0  0  0
  8  9  1  0  0  0  0
  8 31  1  0  0  0  0
  8 32  1  0  0  0  0
  9 10  1  0  0  0  0
  9 33  1  0  0  0  0
  9 34  1  0  0  0  0
 10 11  1  0  0  0  0
 10 35  1  0  0  0  0
 10 36  1  0  0  0  0
 11 12  1  0  0  0  0
 11 37  1  0  0  0  0
 11 38  1  0  0  0  0
 12 13  1  0  0  0  0
 12 39  1  0  0  0  0
 12 40  1  0  0  0  0
 13 14  1  0  0  0  0
 13 41  1  0  0  0  0
 13 42  1  0  0  0  0
 14 15  1  0  0  0  0
 14 43  1  0  0  0  0
 14 44  1  0  0  0  0
 15 16  2  0  0  0  0
 15 17  1  0  0  0  0
 17 18  1  0  0  0  0
 17 45  1  0  0  0  0
 18 19  1  0  0  0  0
 18 46  1  0  0  0  0
 18 47  1  0  0  0  0
 19 20  1  0  0  0  0
 19 48  1  0  0  0  0
 19 49  1  0  0  0  0
 20 50  1  0  0  0  0
 21 22  1  0  0  0  0
 21 51  1  0  0  0  0
 21 52  1  0  0  0  0
 22 23  1  0  0  0  0
 22 53  1  0  0  0  0
 22 54  1  0  0  0  0
 23 24  1  0  0  0  0
 23 55  1  0  0  0  0
 23 56  1  0  0  0  0
 24 25  1  0  0  0  0
 24 57  1  0  0  0  0
 24 58  1  0  0  0  0
 25 59  1  0  0  0  0
 25 60  1  0  0  0  0
 25 61  1  0  0  0  0
 26 27  1  0  0  0  0
 27 62  1  0  0  0  0
 27 63  1  0  0  0  0
 27 64  1  0  0  0  0
M  END
$$$$
CHEMBL395159
 OpenBabel12022418093D

 46 47  0  0  0  0  0  0  0  0999 V2000
    5.2490   -1.0949    1.9157 C   0  0  0  0  0  0  0  0  0  0  0  0
    6.6157   -0.7267    1.3620 C   0  0  0  0  0  0  0  0  0  0  0  0
    6.7946   -1.1967   -0.0882 C   0  0  0  0  0  0  0  0  0  0  0  0
    6.0267   -0.3594   -1.0857 C   0  0  0  0  0  0  0  0  0  0  0  0
    6.5366    0.9425   -1.3107 C   0  0  0  0  0  0  0  0  0  0  0  0
    5.9426    1.8280   -2.2020 C   0  0  0  0  0  0  0  0  0  0  0  0
    4.8423    1.3973   -2.9267 C   0  0  0  0  0  0  0  0  0  0  0  0
    4.3704    0.0922   -2.7648 C   0  0  0  0  0  0  0  0  0  0  0  0
    4.8862   -0.7948   -1.8002 C   0  0  0  0  0  0  0  0  0  0  0  0
    4.2986   -2.0853   -1.6465 N   0  0  0  0  0  0  0  0  0  0  0  0
    3.0156   -2.2492   -1.4705 C   0  0  0  0  0  0  0  0  0  0  0  0
    2.4297   -3.5260   -1.4499 N   0  0  0  0  0  0  0  0  0  0  0  0
    1.6019   -3.8954   -0.2812 C   0  0  0  0  0  0  0  0  0  0  0  0
    0.4413   -2.9174    0.0254 C   0  0  0  0  0  0  0  0  0  0  0  0
    1.0046   -1.5020    0.1652 C   0  0  0  0  0  0  0  0  0  0  0  0
    1.8268   -0.9623   -1.3199 S   0  0  0  0  0  0  0  0  0  0  0  0
   -0.1992   -3.2724    1.3823 C   0  0  0  0  0  0  0  0  0  0  0  0
   -0.6658   -3.0146   -1.0480 C   0  0  0  0  0  0  0  0  0  0  0  0
    2.5545   -4.3790   -2.5550 C   0  0  0  0  0  0  0  0  0  0  0  0
    2.6925   -3.8673   -4.1556 S   0  0  0  0  0  0  0  0  0  0  0  0
    2.4293   -6.1225   -2.2492 S   0  0  0  0  0  0  0  0  0  0  0  0
    4.1290   -6.4216   -1.7192 C   0  0  0  0  0  0  0  0  0  0  0  0
    5.2096   -0.8847    2.9891 H   0  0  0  0  0  0  0  0  0  0  0  0
    5.0439   -2.1580    1.7675 H   0  0  0  0  0  0  0  0  0  0  0  0
    4.4580   -0.5156    1.4301 H   0  0  0  0  0  0  0  0  0  0  0  0
    7.3850   -1.1998    1.9856 H   0  0  0  0  0  0  0  0  0  0  0  0
    6.7659    0.3561    1.4562 H   0  0  0  0  0  0  0  0  0  0  0  0
    6.5604   -2.2581   -0.1893 H   0  0  0  0  0  0  0  0  0  0  0  0
    7.8667   -1.1093   -0.3353 H   0  0  0  0  0  0  0  0  0  0  0  0
    7.4385    1.2774   -0.7874 H   0  0  0  0  0  0  0  0  0  0  0  0
    6.3366    2.8261   -2.3373 H   0  0  0  0  0  0  0  0  0  0  0  0
    4.3496    2.0670   -3.6249 H   0  0  0  0  0  0  0  0  0  0  0  0
    3.5433   -0.2220   -3.3954 H   0  0  0  0  0  0  0  0  0  0  0  0
    2.2844   -3.9398    0.5772 H   0  0  0  0  0  0  0  0  0  0  0  0
    1.1700   -4.8943   -0.3876 H   0  0  0  0  0  0  0  0  0  0  0  0
    1.7349   -1.4526    0.9813 H   0  0  0  0  0  0  0  0  0  0  0  0
    0.2119   -0.7834    0.3938 H   0  0  0  0  0  0  0  0  0  0  0  0
    0.5463   -3.2755    2.1853 H   0  0  0  0  0  0  0  0  0  0  0  0
   -0.6744   -4.2579    1.3594 H   0  0  0  0  0  0  0  0  0  0  0  0
   -0.9686   -2.5378    1.6493 H   0  0  0  0  0  0  0  0  0  0  0  0
   -0.2754   -2.9519   -2.0688 H   0  0  0  0  0  0  0  0  0  0  0  0
   -1.4033   -2.2125   -0.9239 H   0  0  0  0  0  0  0  0  0  0  0  0
   -1.2053   -3.9664   -0.9723 H   0  0  0  0  0  0  0  0  0  0  0  0
    4.2814   -7.4951   -1.5724 H   0  0  0  0  0  0  0  0  0  0  0  0
    4.3203   -5.9105   -0.7726 H   0  0  0  0  0  0  0  0  0  0  0  0
    4.8371   -6.0692   -2.4730 H   0  0  0  0  0  0  0  0  0  0  0  0
  1  2  1  0  0  0  0
  1 23  1  0  0  0  0
  1 24  1  0  0  0  0
  1 25  1  0  0  0  0
  2  3  1  0  0  0  0
  2 26  1  0  0  0  0
  2 27  1  0  0  0  0
  3  4  1  0  0  0  0
  3 28  1  0  0  0  0
  3 29  1  0  0  0  0
  4  9  2  0  0  0  0
  4  5  1  0  0  0  0
  5  6  2  0  0  0  0
  5 30  1  0  0  0  0
  6  7  1  0  0  0  0
  6 31  1  0  0  0  0
  7  8  2  0  0  0  0
  7 32  1  0  0  0  0
  8  9  1  0  0  0  0
  8 33  1  0  0  0  0
  9 10  1  0  0  0  0
 10 11  2  0  0  0  0
 11 16  1  0  0  0  0
 11 12  1  0  0  0  0
 12 13  1  0  0  0  0
 12 19  1  0  0  0  0
 13 14  1  0  0  0  0
 13 34  1  0  0  0  0
 13 35  1  0  0  0  0
 14 15  1  0  0  0  0
 14 17  1  0  0  0  0
 14 18  1  0  0  0  0
 15 16  1  0  0  0  0
 15 36  1  0  0  0  0
 15 37  1  0  0  0  0
 17 38  1  0  0  0  0
 17 39  1  0  0  0  0
 17 40  1  0  0  0  0
 18 41  1  0  0  0  0
 18 42  1  0  0  0  0
 18 43  1  0  0  0  0
 19 20  2  0  0  0  0
 19 21  1  0  0  0  0
 21 22  1  0  0  0  0
 22 44  1  0  0  0  0
 22 45  1  0  0  0  0
 22 46  1  0  0  0  0
M  END
$$$$
CHEMBL245449
 OpenBabel12022418093D

 41 42  0  0  0  0  0  0  0  0999 V2000
    3.2403    2.0880   -0.9497 C   0  0  0  0  0  0  0  0  0  0  0  0
    2.7410    1.0864   -0.0717 O   0  0  0  0  0  0  0  0  0  0  0  0
    3.3879    0.9204    1.1258 C   0  0  0  0  0  0  0  0  0  0  0  0
    4.7203    1.3597    1.3003 C   0  0  0  0  0  0  0  0  0  0  0  0
    5.3335    1.3405    2.5477 C   0  0  0  0  0  0  0  0  0  0  0  0
    4.6300    0.8530    3.6349 C   0  0  0  0  0  0  0  0  0  0  0  0
    3.3445    0.3334    3.4519 C   0  0  0  0  0  0  0  0  0  0  0  0
    2.6902    0.3224    2.2032 C   0  0  0  0  0  0  0  0  0  0  0  0
    1.3625   -0.1789    2.2711 N   0  0  0  0  0  0  0  0  0  0  0  0
    0.6946   -0.8464    1.3940 C   0  0  0  0  0  0  0  0  0  0  0  0
   -0.6044   -1.2969    1.6791 N   0  0  0  0  0  0  0  0  0  0  0  0
   -1.6611   -0.5081    1.0348 C   0  0  0  0  0  0  0  0  0  0  0  0
   -1.5964   -0.4892   -0.5122 C   0  0  0  0  0  0  0  0  0  0  0  0
   -0.1720   -0.1157   -0.9695 C   0  0  0  0  0  0  0  0  0  0  0  0
    1.0854   -1.2402   -0.2562 S   0  0  0  0  0  0  0  0  0  0  0  0
   -2.5902    0.5788   -1.0123 C   0  0  0  0  0  0  0  0  0  0  0  0
   -2.0219   -1.8389   -1.1219 C   0  0  0  0  0  0  0  0  0  0  0  0
   -0.8931   -2.4383    2.4487 C   0  0  0  0  0  0  0  0  0  0  0  0
   -2.3776   -3.2480    2.4803 S   0  0  0  0  0  0  0  0  0  0  0  0
    0.4305   -3.0955    3.4191 S   0  0  0  0  0  0  0  0  0  0  0  0
   -0.0834   -2.4385    5.0268 C   0  0  0  0  0  0  0  0  0  0  0  0
    2.5456    2.1717   -1.7904 H   0  0  0  0  0  0  0  0  0  0  0  0
    4.2165    1.8181   -1.3664 H   0  0  0  0  0  0  0  0  0  0  0  0
    3.2786    3.0588   -0.4451 H   0  0  0  0  0  0  0  0  0  0  0  0
    5.3054    1.7384    0.4669 H   0  0  0  0  0  0  0  0  0  0  0  0
    6.3409    1.7261    2.6701 H   0  0  0  0  0  0  0  0  0  0  0  0
    5.0714    0.8778    4.6260 H   0  0  0  0  0  0  0  0  0  0  0  0
    2.8114   -0.0536    4.3203 H   0  0  0  0  0  0  0  0  0  0  0  0
   -1.5257    0.5170    1.4095 H   0  0  0  0  0  0  0  0  0  0  0  0
   -2.6586   -0.8061    1.3687 H   0  0  0  0  0  0  0  0  0  0  0  0
    0.0677    0.9064   -0.6492 H   0  0  0  0  0  0  0  0  0  0  0  0
   -0.0843   -0.1388   -2.0599 H   0  0  0  0  0  0  0  0  0  0  0  0
   -2.4125    1.5490   -0.5324 H   0  0  0  0  0  0  0  0  0  0  0  0
   -3.6248    0.2926   -0.7885 H   0  0  0  0  0  0  0  0  0  0  0  0
   -2.5107    0.7232   -2.0955 H   0  0  0  0  0  0  0  0  0  0  0  0
   -1.4201   -2.6748   -0.7544 H   0  0  0  0  0  0  0  0  0  0  0  0
   -1.9198   -1.8151   -2.2133 H   0  0  0  0  0  0  0  0  0  0  0  0
   -3.0697   -2.0645   -0.8957 H   0  0  0  0  0  0  0  0  0  0  0  0
    0.6231   -2.7607    5.7953 H   0  0  0  0  0  0  0  0  0  0  0  0
   -1.0762   -2.8050    5.3046 H   0  0  0  0  0  0  0  0  0  0  0  0
   -0.1022   -1.3456    5.0009 H   0  0  0  0  0  0  0  0  0  0  0  0
  1  2  1  0  0  0  0
  1 22  1  0  0  0  0
  1 23  1  0  0  0  0
  1 24  1  0  0  0  0
  2  3  1  0  0  0  0
  3  8  2  0  0  0  0
  3  4  1  0  0  0  0
  4  5  2  0  0  0  0
  4 25  1  0  0  0  0
  5  6  1  0  0  0  0
  5 26  1  0  0  0  0
  6  7  2  0  0  0  0
  6 27  1  0  0  0  0
  7  8  1  0  0  0  0
  7 28  1  0  0  0  0
  8  9  1  0  0  0  0
  9 10  2  0  0  0  0
 10 15  1  0  0  0  0
 10 11  1  0  0  0  0
 11 12  1  0  0  0  0
 11 18  1  0  0  0  0
 12 13  1  0  0  0  0
 12 29  1  0  0  0  0
 12 30  1  0  0  0  0
 13 14  1  0  0  0  0
 13 16  1  0  0  0  0
 13 17  1  0  0  0  0
 14 15  1  0  0  0  0
 14 31  1  0  0  0  0
 14 32  1  0  0  0  0
 16 33  1  0  0  0  0
 16 34  1  0  0  0  0
 16 35  1  0  0  0  0
 17 36  1  0  0  0  0
 17 37  1  0  0  0  0
 17 38  1  0  0  0  0
 18 19  2  0  0  0  0
 18 20  1  0  0  0  0
 20 21  1  0  0  0  0
 21 39  1  0  0  0  0
 21 40  1  0  0  0  0
 21 41  1  0  0  0  0
M  END
$$$$
CHEMBL250607
 OpenBabel12022418093D

 65 69  0  0  1  0  0  0  0  0999 V2000
   -1.6148    4.2160    7.4680 C   0  0  0  0  0  0  0  0  0  0  0  0
   -0.2402    4.2769    7.2272 C   0  0  0  0  0  0  0  0  0  0  0  0
    0.2938    4.1908    5.9357 C   0  0  0  0  0  0  0  0  0  0  0  0
   -0.5854    3.9205    4.8793 C   0  0  0  0  0  0  0  0  0  0  0  0
   -1.9726    3.7557    5.1113 C   0  0  0  0  0  0  0  0  0  0  0  0
   -2.4888    3.9271    6.4104 C   0  0  0  0  0  0  0  0  0  0  0  0
   -2.5354    3.3920    3.8779 C   0  0  0  0  0  0  0  0  0  0  0  0
   -1.5596    3.4412    2.9355 C   0  0  0  0  0  0  0  0  0  0  0  0
   -2.0354    3.0814    1.6046 C   0  0  0  0  0  0  0  0  0  0  0  0
   -3.3746    2.4638    1.8993 N   0  0  2  0  0  0  0  0  0  0  0  0
   -3.8017    2.9316    3.2801 C   0  0  0  0  0  0  0  0  0  0  0  0
   -3.3314    0.9917    1.8529 C   0  0  1  0  0  0  0  0  0  0  0  0
   -2.9912    0.4482    0.4511 C   0  0  0  0  0  0  0  0  0  0  0  0
   -3.0516   -1.0783    0.4496 C   0  0  0  0  0  0  0  0  0  0  0  0
   -2.1925   -1.6454    1.5751 C   0  0  0  0  0  0  0  0  0  0  0  0
   -2.5315   -0.9800    2.9022 C   0  0  0  0  0  0  0  0  0  0  0  0
   -2.4139    0.4387    2.8023 O   0  0  0  0  0  0  0  0  0  0  0  0
   -0.3767    3.7364    3.5128 N   0  0  0  0  0  0  0  0  0  0  0  0
    1.1260    3.7588    2.7136 S   0  0  0  0  0  0  0  0  0  0  0  0
    0.8302    3.5705    1.3068 O   0  0  0  0  0  0  0  0  0  0  0  0
    1.7650    4.9828    3.1786 O   0  0  0  0  0  0  0  0  0  0  0  0
    2.1063    2.3782    3.2680 C   0  0  0  0  0  0  0  0  0  0  0  0
    3.4449    2.3217    2.5431 C   0  0  0  0  0  0  0  0  0  0  0  0
   -2.1804    4.3223    8.8465 C   0  0  0  0  0  0  0  0  0  0  0  0
   -3.1671    3.6331    9.1054 O   0  0  0  0  0  0  0  0  0  0  0  0
   -1.5662    5.1360    9.8021 N   0  0  0  0  0  0  0  0  0  0  0  0
   -0.6971    6.2835    9.5406 C   0  0  0  0  0  0  0  0  0  0  0  0
    0.5939    6.1666   10.3543 C   0  0  0  0  0  0  0  0  0  0  0  0
    0.3308    5.9354   11.8530 C   0  0  2  0  0  0  0  0  0  0  0  0
   -0.7046    4.8157   12.0659 C   0  0  0  0  0  0  0  0  0  0  0  0
   -1.9542    4.9901   11.2013 C   0  0  0  0  0  0  0  0  0  0  0  0
   -0.0880    7.2325   12.5464 C   0  0  0  0  0  0  0  0  0  0  0  0
    0.4530    4.3942    8.0526 H   0  0  0  0  0  0  0  0  0  0  0  0
    1.3614    4.3181    5.7831 H   0  0  0  0  0  0  0  0  0  0  0  0
   -3.5559    3.8157    6.5943 H   0  0  0  0  0  0  0  0  0  0  0  0
   -1.3565    2.4323    1.0560 H   0  0  0  0  0  0  0  0  0  0  0  0
   -2.2063    3.9877    1.0117 H   0  0  0  0  0  0  0  0  0  0  0  0
   -4.4999    3.7691    3.1693 H   0  0  0  0  0  0  0  0  0  0  0  0
   -4.2859    2.1467    3.8705 H   0  0  0  0  0  0  0  0  0  0  0  0
   -4.3419    0.6387    2.1034 H   0  0  0  0  0  0  0  0  0  0  0  0
   -1.9719    0.7191    0.1584 H   0  0  0  0  0  0  0  0  0  0  0  0
   -3.6724    0.8550   -0.3046 H   0  0  0  0  0  0  0  0  0  0  0  0
   -2.7099   -1.4668   -0.5160 H   0  0  0  0  0  0  0  0  0  0  0  0
   -4.0909   -1.4022    0.5807 H   0  0  0  0  0  0  0  0  0  0  0  0
   -1.1376   -1.4558    1.3401 H   0  0  0  0  0  0  0  0  0  0  0  0
   -2.3251   -2.7300    1.6462 H   0  0  0  0  0  0  0  0  0  0  0  0
   -1.8354   -1.3186    3.6762 H   0  0  0  0  0  0  0  0  0  0  0  0
   -3.5435   -1.2430    3.2326 H   0  0  0  0  0  0  0  0  0  0  0  0
    1.5381    1.4633    3.0819 H   0  0  0  0  0  0  0  0  0  0  0  0
    2.2737    2.4902    4.3418 H   0  0  0  0  0  0  0  0  0  0  0  0
    3.3083    2.1897    1.4650 H   0  0  0  0  0  0  0  0  0  0  0  0
    4.0471    1.4842    2.9115 H   0  0  0  0  0  0  0  0  0  0  0  0
    4.0189    3.2418    2.6931 H   0  0  0  0  0  0  0  0  0  0  0  0
   -1.2532    7.1831    9.8291 H   0  0  0  0  0  0  0  0  0  0  0  0
   -0.4789    6.4098    8.4800 H   0  0  0  0  0  0  0  0  0  0  0  0
    1.2082    7.0620   10.2049 H   0  0  0  0  0  0  0  0  0  0  0  0
    1.1819    5.3193    9.9806 H   0  0  0  0  0  0  0  0  0  0  0  0
    1.2732    5.6155   12.3171 H   0  0  0  0  0  0  0  0  0  0  0  0
   -0.9869    4.7482   13.1227 H   0  0  0  0  0  0  0  0  0  0  0  0
   -0.2347    3.8584   11.8031 H   0  0  0  0  0  0  0  0  0  0  0  0
   -2.6164    4.1306   11.3453 H   0  0  0  0  0  0  0  0  0  0  0  0
   -2.5159    5.8855   11.4919 H   0  0  0  0  0  0  0  0  0  0  0  0
   -1.0256    7.6311   12.1490 H   0  0  0  0  0  0  0  0  0  0  0  0
    0.6835    7.9995   12.4187 H   0  0  0  0  0  0  0  0  0  0  0  0
   -0.2185    7.0692   13.6211 H   0  0  0  0  0  0  0  0  0  0  0  0
  1  6  2  0  0  0  0
  1  2  1  0  0  0  0
  1 24  1  0  0  0  0
  2  3  2  0  0  0  0
  2 33  1  0  0  0  0
  3  4  1  0  0  0  0
  3 34  1  0  0  0  0
  4 18  1  0  0  0  0
  4  5  2  0  0  0  0
  5  6  1  0  0  0  0
  5  7  1  0  0  0  0
  6 35  1  0  0  0  0
  7 11  1  0  0  0  0
  7  8  2  0  0  0  0
  8  9  1  0  0  0  0
  8 18  1  0  0  0  0
  9 36  1  0  0  0  0
  9 37  1  0  0  0  0
 10  9  1  1  0  0  0
 10 11  1  0  0  0  0
 11 38  1  0  0  0  0
 11 39  1  0  0  0  0
 12 13  1  0  0  0  0
 12 17  1  0  0  0  0
 12 10  1  0  0  0  0
 12 40  1  1  0  0  0
 13 14  1  0  0  0  0
 13 41  1  0  0  0  0
 13 42  1  0  0  0  0
 14 15  1  0  0  0  0
 14 43  1  0  0  0  0
 14 44  1  0  0  0  0
 15 16  1  0  0  0  0
 15 45  1  0  0  0  0
 15 46  1  0  0  0  0
 16 17  1  0  0  0  0
 16 47  1  0  0  0  0
 16 48  1  0  0  0  0
 18 19  1  0  0  0  0
 19 20  2  0  0  0  0
 19 21  2  0  0  0  0
 19 22  1  0  0  0  0
 22 23  1  0  0  0  0
 22 49  1  0  0  0  0
 22 50  1  0  0  0  0
 23 51  1  0  0  0  0
 23 52  1  0  0  0  0
 23 53  1  0  0  0  0
 24 25  2  0  0  0  0
 24 26  1  0  0  0  0
 26 31  1  0  0  0  0
 26 27  1  0  0  0  0
 27 28  1  0  0  0  0
 27 54  1  0  0  0  0
 27 55  1  0  0  0  0
 28 29  1  0  0  0  0
 28 56  1  0  0  0  0
 28 57  1  0  0  0  0
 29 30  1  0  0  0  0
 29 32  1  0  0  0  0
 29 58  1  1  0  0  0
 30 31  1  0  0  0  0
 30 59  1  0  0  0  0
 30 60  1  0  0  0  0
 31 61  1  0  0  0  0
 31 62  1  0  0  0  0
 32 63  1  0  0  0  0
 32 64  1  0  0  0  0
 32 65  1  0  0  0  0
M  END
$$$$
CHEMBL243334
 OpenBabel12022418093D

 46 49  0  0  0  0  0  0  0  0999 V2000
    2.1960   -0.0429    0.6802 C   0  0  0  0  0  0  0  0  0  0  0  0
    2.0034    1.0393    1.5237 C   0  0  0  0  0  0  0  0  0  0  0  0
    0.7240    1.3228    1.9921 C   0  0  0  0  0  0  0  0  0  0  0  0
   -0.3664    0.4957    1.6756 C   0  0  0  0  0  0  0  0  0  0  0  0
   -0.1819   -0.6738    0.8889 C   0  0  0  0  0  0  0  0  0  0  0  0
    1.1158   -0.8649    0.3439 C   0  0  0  0  0  0  0  0  0  0  0  0
   -1.3064   -1.5420    0.7174 C   0  0  0  0  0  0  0  0  0  0  0  0
   -2.5734   -1.1498    1.1941 C   0  0  0  0  0  0  0  0  0  0  0  0
   -2.7434    0.0398    1.8889 C   0  0  0  0  0  0  0  0  0  0  0  0
   -1.6398    0.8406    2.1509 C   0  0  0  0  0  0  0  0  0  0  0  0
   -1.2837   -2.9158    0.1057 C   0  0  0  0  0  0  0  0  0  0  0  0
   -2.3316   -3.3407   -0.3797 O   0  0  0  0  0  0  0  0  0  0  0  0
   -0.0903   -3.8168    0.1520 C   0  0  0  0  0  0  0  0  0  0  0  0
    0.7259   -3.7707    1.2948 C   0  0  0  0  0  0  0  0  0  0  0  0
    1.9398   -4.4476    1.3269 C   0  0  0  0  0  0  0  0  0  0  0  0
    2.3175   -5.2493    0.2519 C   0  0  0  0  0  0  0  0  0  0  0  0
    1.4665   -5.4036   -0.8689 C   0  0  0  0  0  0  0  0  0  0  0  0
    0.2374   -4.6898   -0.9316 C   0  0  0  0  0  0  0  0  0  0  0  0
   -0.5788   -4.9053   -2.0730 C   0  0  0  0  0  0  0  0  0  0  0  0
   -0.2253   -5.7909   -3.0942 C   0  0  0  0  0  0  0  0  0  0  0  0
    0.9758   -6.4718   -3.0257 C   0  0  0  0  0  0  0  0  0  0  0  0
    1.8126   -6.2705   -1.9313 C   0  0  0  0  0  0  0  0  0  0  0  0
    3.5247   -5.9048    0.1932 O   0  0  0  0  0  0  0  0  0  0  0  0
    4.1802   -6.1878    1.4272 C   0  0  0  0  0  0  0  0  0  0  0  0
    5.1100   -7.3710    1.1805 C   0  0  0  0  0  0  0  0  0  0  0  0
    5.8273   -7.7980    2.4469 C   0  0  0  0  0  0  0  0  0  0  0  0
    3.1848   -0.2547    0.2808 H   0  0  0  0  0  0  0  0  0  0  0  0
    2.8394    1.6765    1.7996 H   0  0  0  0  0  0  0  0  0  0  0  0
    0.5849    2.1998    2.6218 H   0  0  0  0  0  0  0  0  0  0  0  0
    1.3154   -1.6699   -0.3590 H   0  0  0  0  0  0  0  0  0  0  0  0
   -3.4424   -1.7876    1.0343 H   0  0  0  0  0  0  0  0  0  0  0  0
   -3.7292    0.3274    2.2447 H   0  0  0  0  0  0  0  0  0  0  0  0
   -1.7861    1.7532    2.7260 H   0  0  0  0  0  0  0  0  0  0  0  0
    0.4534   -3.1588    2.1519 H   0  0  0  0  0  0  0  0  0  0  0  0
    2.5843   -4.3057    2.1891 H   0  0  0  0  0  0  0  0  0  0  0  0
   -1.5373   -4.4027   -2.1803 H   0  0  0  0  0  0  0  0  0  0  0  0
   -0.8987   -5.9465   -3.9329 H   0  0  0  0  0  0  0  0  0  0  0  0
    1.2628   -7.1623   -3.8134 H   0  0  0  0  0  0  0  0  0  0  0  0
    2.7523   -6.8212   -1.9014 H   0  0  0  0  0  0  0  0  0  0  0  0
    3.4588   -6.4586    2.2078 H   0  0  0  0  0  0  0  0  0  0  0  0
    4.7566   -5.3106    1.7412 H   0  0  0  0  0  0  0  0  0  0  0  0
    5.8388   -7.1153    0.4019 H   0  0  0  0  0  0  0  0  0  0  0  0
    4.5278   -8.2111    0.7824 H   0  0  0  0  0  0  0  0  0  0  0  0
    6.4701   -6.9954    2.8221 H   0  0  0  0  0  0  0  0  0  0  0  0
    6.4522   -8.6748    2.2512 H   0  0  0  0  0  0  0  0  0  0  0  0
    5.1106   -8.0603    3.2316 H   0  0  0  0  0  0  0  0  0  0  0  0
  1  6  2  0  0  0  0
  1  2  1  0  0  0  0
  1 27  1  0  0  0  0
  2  3  2  0  0  0  0
  2 28  1  0  0  0  0
  3  4  1  0  0  0  0
  3 29  1  0  0  0  0
  4 10  2  0  0  0  0
  4  5  1  0  0  0  0
  5  6  1  0  0  0  0
  5  7  2  0  0  0  0
  6 30  1  0  0  0  0
  7  8  1  0  0  0  0
  7 11  1  0  0  0  0
  8  9  2  0  0  0  0
  8 31  1  0  0  0  0
  9 10  1  0  0  0  0
  9 32  1  0  0  0  0
 10 33  1  0  0  0  0
 11 12  2  0  0  0  0
 11 13  1  0  0  0  0
 13 18  2  0  0  0  0
 13 14  1  0  0  0  0
 14 15  2  0  0  0  0
 14 34  1  0  0  0  0
 15 16  1  0  0  0  0
 15 35  1  0  0  0  0
 16 17  2  0  0  0  0
 16 23  1  0  0  0  0
 17 22  1  0  0  0  0
 17 18  1  0  0  0  0
 18 19  1  0  0  0  0
 19 20  2  0  0  0  0
 19 36  1  0  0  0  0
 20 21  1  0  0  0  0
 20 37  1  0  0  0  0
 21 22  2  0  0  0  0
 21 38  1  0  0  0  0
 22 39  1  0  0  0  0
 23 24  1  0  0  0  0
 24 25  1  0  0  0  0
 24 40  1  0  0  0  0
 24 41  1  0  0  0  0
 25 26  1  0  0  0  0
 25 42  1  0  0  0  0
 25 43  1  0  0  0  0
 26 44  1  0  0  0  0
 26 45  1  0  0  0  0
 26 46  1  0  0  0  0
M  END
$$$$
CHEMBL1765246
 OpenBabel12022418093D

 54 58  0  0  1  0  0  0  0  0999 V2000
    2.0349   -1.4341   -0.5673 C   0  0  0  0  0  0  0  0  0  0  0  0
    2.4018    0.0265   -0.6762 C   0  0  0  0  0  0  0  0  0  0  0  0
    1.8688    0.7687    0.5344 C   0  0  0  0  0  0  0  0  0  0  0  0
    0.3281    0.7018    0.6493 C   0  0  2  0  0  0  0  0  0  0  0  0
   -0.1256   -0.7702    0.7184 C   0  0  2  0  0  0  0  0  0  0  0  0
    0.5198   -1.6084   -0.4320 C   0  0  0  0  0  0  0  0  0  0  0  0
   -1.6891   -0.8357    0.7657 C   0  0  2  0  0  0  0  0  0  0  0  0
   -2.1579   -0.3754   -0.6193 C   0  0  0  0  0  0  0  0  0  0  0  0
   -1.6283    1.0094   -0.9946 C   0  0  0  0  0  0  0  0  0  0  0  0
   -0.4108    1.5287   -0.3388 N   0  0  0  0  0  0  0  0  0  0  0  0
   -0.2073    2.9235   -0.5582 C   0  0  0  0  0  0  0  0  0  0  0  0
   -0.8239    3.5177   -1.4462 O   0  0  0  0  0  0  0  0  0  0  0  0
    0.7626    3.7207    0.2532 C   0  0  0  0  0  0  0  0  0  0  0  0
    0.8949    3.5574    1.6457 C   0  0  0  0  0  0  0  0  0  0  0  0
    1.9677    4.1082    2.3441 C   0  0  0  0  0  0  0  0  0  0  0  0
    2.8569    4.9740    1.7145 C   0  0  0  0  0  0  0  0  0  0  0  0
    2.6077    5.2904    0.3751 C   0  0  0  0  0  0  0  0  0  0  0  0
    1.5947    4.6832   -0.3774 C   0  0  0  0  0  0  0  0  0  0  0  0
    1.6968    5.2362   -1.6928 C   0  0  0  0  0  0  0  0  0  0  0  0
    2.6994    6.1840   -1.6878 C   0  0  0  0  0  0  0  0  0  0  0  0
    3.2560    6.1887   -0.4424 N   0  0  0  0  0  0  0  0  0  0  0  0
   -2.4014   -0.0899    1.9185 C   0  0  0  0  0  0  0  0  0  0  0  0
   -1.8168    0.0678    3.1879 C   0  0  0  0  0  0  0  0  0  0  0  0
   -2.4757    0.7529    4.2212 C   0  0  0  0  0  0  0  0  0  0  0  0
   -3.7520    1.2714    4.0248 C   0  0  0  0  0  0  0  0  0  0  0  0
   -4.3770    1.0907    2.8006 C   0  0  0  0  0  0  0  0  0  0  0  0
   -3.7154    0.4101    1.7693 C   0  0  0  0  0  0  0  0  0  0  0  0
   -2.0806   -2.2019    0.9641 O   0  0  0  0  0  0  0  0  0  0  0  0
    2.3892   -1.9622   -1.4568 H   0  0  0  0  0  0  0  0  0  0  0  0
    2.5346   -1.8855    0.2974 H   0  0  0  0  0  0  0  0  0  0  0  0
    2.0001    0.4707   -1.5959 H   0  0  0  0  0  0  0  0  0  0  0  0
    3.4911    0.1379   -0.7150 H   0  0  0  0  0  0  0  0  0  0  0  0
    2.2671    1.7731    0.4922 H   0  0  0  0  0  0  0  0  0  0  0  0
    2.2950    0.3224    1.4446 H   0  0  0  0  0  0  0  0  0  0  0  0
    0.0647    1.1210    1.6183 H   0  0  0  0  0  0  0  0  0  0  0  0
    0.2714   -1.2098    1.6448 H   0  0  0  0  0  0  0  0  0  0  0  0
    0.3044   -2.6722   -0.2860 H   0  0  0  0  0  0  0  0  0  0  0  0
    0.1082   -1.3301   -1.4061 H   0  0  0  0  0  0  0  0  0  0  0  0
   -3.2468   -0.4101   -0.7344 H   0  0  0  0  0  0  0  0  0  0  0  0
   -1.8601   -1.1054   -1.3812 H   0  0  0  0  0  0  0  0  0  0  0  0
   -2.4318    1.7340   -0.8104 H   0  0  0  0  0  0  0  0  0  0  0  0
   -1.4454    1.0300   -2.0771 H   0  0  0  0  0  0  0  0  0  0  0  0
    0.1881    2.9515    2.1998 H   0  0  0  0  0  0  0  0  0  0  0  0
    2.1183    3.8487    3.3896 H   0  0  0  0  0  0  0  0  0  0  0  0
    3.6879    5.4113    2.2579 H   0  0  0  0  0  0  0  0  0  0  0  0
    1.0587    4.9923   -2.5356 H   0  0  0  0  0  0  0  0  0  0  0  0
    3.0604    6.8374   -2.4682 H   0  0  0  0  0  0  0  0  0  0  0  0
    4.0132    6.7878   -0.1468 H   0  0  0  0  0  0  0  0  0  0  0  0
   -0.8358   -0.3445    3.4043 H   0  0  0  0  0  0  0  0  0  0  0  0
   -1.9953    0.8740    5.1887 H   0  0  0  0  0  0  0  0  0  0  0  0
   -4.2668    1.7949    4.8260 H   0  0  0  0  0  0  0  0  0  0  0  0
   -5.3843    1.4670    2.6396 H   0  0  0  0  0  0  0  0  0  0  0  0
   -4.2724    0.2803    0.8493 H   0  0  0  0  0  0  0  0  0  0  0  0
   -1.7699   -2.7316    0.2144 H   0  0  0  0  0  0  0  0  0  0  0  0
  1  6  1  0  0  0  0
  1  2  1  0  0  0  0
  1 29  1  0  0  0  0
  1 30  1  0  0  0  0
  2  3  1  0  0  0  0
  2 31  1  0  0  0  0
  2 32  1  0  0  0  0
  3 33  1  0  0  0  0
  3 34  1  0  0  0  0
  4  3  1  0  0  0  0
  4  5  1  0  0  0  0
  4 10  1  0  0  0  0
  4 35  1  1  0  0  0
  5  6  1  0  0  0  0
  5  7  1  0  0  0  0
  5 36  1  1  0  0  0
  6 37  1  0  0  0  0
  6 38  1  0  0  0  0
  7  8  1  0  0  0  0
  7 28  1  1  0  0  0
  7 22  1  0  0  0  0
  8  9  1  0  0  0  0
  8 39  1  0  0  0  0
  8 40  1  0  0  0  0
  9 10  1  0  0  0  0
  9 41  1  0  0  0  0
  9 42  1  0  0  0  0
 10 11  1  0  0  0  0
 11 12  2  0  0  0  0
 11 13  1  0  0  0  0
 13 18  2  0  0  0  0
 13 14  1  0  0  0  0
 14 15  2  0  0  0  0
 14 43  1  0  0  0  0
 15 16  1  0  0  0  0
 15 44  1  0  0  0  0
 16 17  2  0  0  0  0
 16 45  1  0  0  0  0
 17 21  1  0  0  0  0
 17 18  1  0  0  0  0
 18 19  1  0  0  0  0
 19 20  2  0  0  0  0
 19 46  1  0  0  0  0
 20 21  1  0  0  0  0
 20 47  1  0  0  0  0
 21 48  1  0  0  0  0
 22 27  2  0  0  0  0
 22 23  1  0  0  0  0
 23 24  2  0  0  0  0
 23 49  1  0  0  0  0
 24 25  1  0  0  0  0
 24 50  1  0  0  0  0
 25 26  2  0  0  0  0
 25 51  1  0  0  0  0
 26 27  1  0  0  0  0
 26 52  1  0  0  0  0
 27 53  1  0  0  0  0
 28 54  1  0  0  0  0
M  END
$$$$
CHEMBL3960865
 OpenBabel12022418093D

 56 57  0  0  1  0  0  0  0  0999 V2000
    7.2089    0.8492    1.7873 C   0  0  0  0  0  0  0  0  0  0  0  0
    5.9982    0.2481    1.0661 C   0  0  0  0  0  0  0  0  0  0  0  0
    4.7258    0.9341    1.5673 C   0  0  0  0  0  0  0  0  0  0  0  0
    6.1896    0.3824   -0.4528 C   0  0  0  0  0  0  0  0  0  0  0  0
    4.8957   -0.3828   -1.4109 S   0  0  0  0  0  0  0  0  0  0  0  0
    4.8867   -1.7938   -1.0556 O   0  0  0  0  0  0  0  0  0  0  0  0
    3.6768    0.3938   -1.3071 O   0  0  0  0  0  0  0  0  0  0  0  0
    5.4729   -0.2566   -3.1137 C   0  0  0  0  0  0  0  0  0  0  0  0
    5.6817    0.9670   -3.7722 C   0  0  0  0  0  0  0  0  0  0  0  0
    6.1248    0.8398   -5.1007 C   0  0  0  0  0  0  0  0  0  0  0  0
    6.3430   -0.4106   -5.6915 C   0  0  0  0  0  0  0  0  0  0  0  0
    6.1161   -1.5437   -4.9299 C   0  0  0  0  0  0  0  0  0  0  0  0
    6.3881   -2.9098   -5.4853 C   0  0  0  0  0  0  0  0  0  0  0  0
    6.7788   -3.0612   -6.6367 O   0  0  0  0  0  0  0  0  0  0  0  0
    6.1872   -3.9423   -4.5934 N   0  0  0  0  0  0  0  0  0  0  0  0
    6.5032   -5.3464   -4.8847 C   0  0  1  0  0  0  0  0  0  0  0  0
    7.9325   -5.7561   -4.4394 C   0  0  0  0  0  0  0  0  0  0  0  0
    9.0288   -4.9530   -5.1469 C   0  0  0  0  0  0  0  0  0  0  0  0
    8.1284   -5.6669   -2.9211 C   0  0  0  0  0  0  0  0  0  0  0  0
    5.4308   -6.2769   -4.2530 C   0  0  0  0  0  0  0  0  0  0  0  0
    5.6275   -7.4653   -4.0183 O   0  0  0  0  0  0  0  0  0  0  0  0
    4.1997   -5.6756   -4.0831 N   0  0  0  0  0  0  0  0  0  0  0  0
    3.0768   -6.3484   -3.4818 C   0  0  0  0  0  0  0  0  0  0  0  0
    5.6837   -1.4950   -3.6486 N   0  0  0  0  0  0  0  0  0  0  0  0
    5.5650    2.3460   -3.1508 C   0  0  0  0  0  0  0  0  0  0  0  0
    4.8976    3.4904   -3.8836 C   0  0  0  0  0  0  0  0  0  0  0  0
    4.2393    2.8926   -2.6832 C   0  0  0  0  0  0  0  0  0  0  0  0
    7.1055    0.7481    2.8730 H   0  0  0  0  0  0  0  0  0  0  0  0
    7.3181    1.9148    1.5573 H   0  0  0  0  0  0  0  0  0  0  0  0
    8.1328    0.3415    1.4915 H   0  0  0  0  0  0  0  0  0  0  0  0
    5.9388   -0.8149    1.3299 H   0  0  0  0  0  0  0  0  0  0  0  0
    4.6705    1.9722    1.2221 H   0  0  0  0  0  0  0  0  0  0  0  0
    4.6894    0.9384    2.6616 H   0  0  0  0  0  0  0  0  0  0  0  0
    3.8298    0.4087    1.2257 H   0  0  0  0  0  0  0  0  0  0  0  0
    7.1236   -0.1101   -0.7493 H   0  0  0  0  0  0  0  0  0  0  0  0
    6.2499    1.4364   -0.7278 H   0  0  0  0  0  0  0  0  0  0  0  0
    6.3291    1.7324   -5.6905 H   0  0  0  0  0  0  0  0  0  0  0  0
    6.6984   -0.4901   -6.7147 H   0  0  0  0  0  0  0  0  0  0  0  0
    5.9086   -3.6862   -3.6467 H   0  0  0  0  0  0  0  0  0  0  0  0
    6.4214   -5.4889   -5.9701 H   0  0  0  0  0  0  0  0  0  0  0  0
    8.0846   -6.8077   -4.7188 H   0  0  0  0  0  0  0  0  0  0  0  0
    8.9280   -3.8776   -4.9749 H   0  0  0  0  0  0  0  0  0  0  0  0
    9.0086   -5.1358   -6.2261 H   0  0  0  0  0  0  0  0  0  0  0  0
   10.0201   -5.2450   -4.7819 H   0  0  0  0  0  0  0  0  0  0  0  0
    7.9097   -4.6649   -2.5414 H   0  0  0  0  0  0  0  0  0  0  0  0
    9.1613   -5.9122   -2.6496 H   0  0  0  0  0  0  0  0  0  0  0  0
    7.4840   -6.3800   -2.3973 H   0  0  0  0  0  0  0  0  0  0  0  0
    4.0731   -4.7482   -4.4722 H   0  0  0  0  0  0  0  0  0  0  0  0
    3.3987   -7.2119   -2.8943 H   0  0  0  0  0  0  0  0  0  0  0  0
    2.3981   -6.6725   -4.2747 H   0  0  0  0  0  0  0  0  0  0  0  0
    2.5618   -5.6352   -2.8329 H   0  0  0  0  0  0  0  0  0  0  0  0
    6.4479    2.6554   -2.5919 H   0  0  0  0  0  0  0  0  0  0  0  0
    4.4166    3.3235   -4.8397 H   0  0  0  0  0  0  0  0  0  0  0  0
    5.3164    4.4863   -3.7723 H   0  0  0  0  0  0  0  0  0  0  0  0
    4.2293    3.4557   -1.7557 H   0  0  0  0  0  0  0  0  0  0  0  0
    3.3250    2.3359   -2.8592 H   0  0  0  0  0  0  0  0  0  0  0  0
  1  2  1  0  0  0  0
  1 28  1  0  0  0  0
  1 29  1  0  0  0  0
  1 30  1  0  0  0  0
  2  3  1  0  0  0  0
  2  4  1  0  0  0  0
  2 31  1  0  0  0  0
  3 32  1  0  0  0  0
  3 33  1  0  0  0  0
  3 34  1  0  0  0  0
  4  5  1  0  0  0  0
  4 35  1  0  0  0  0
  4 36  1  0  0  0  0
  5  6  2  0  0  0  0
  5  7  2  0  0  0  0
  5  8  1  0  0  0  0
  8 24  2  0  0  0  0
  8  9  1  0  0  0  0
  9 10  2  0  0  0  0
  9 25  1  0  0  0  0
 10 11  1  0  0  0  0
 10 37  1  0  0  0  0
 11 12  2  0  0  0  0
 11 38  1  0  0  0  0
 12 13  1  0  0  0  0
 12 24  1  0  0  0  0
 13 14  2  0  0  0  0
 13 15  1  0  0  0  0
 15 39  1  0  0  0  0
 16 15  1  0  0  0  0
 16 17  1  0  0  0  0
 16 20  1  0  0  0  0
 16 40  1  6  0  0  0
 17 18  1  0  0  0  0
 17 19  1  0  0  0  0
 17 41  1  0  0  0  0
 18 42  1  0  0  0  0
 18 43  1  0  0  0  0
 18 44  1  0  0  0  0
 19 45  1  0  0  0  0
 19 46  1  0  0  0  0
 19 47  1  0  0  0  0
 20 21  2  0  0  0  0
 20 22  1  0  0  0  0
 22 23  1  0  0  0  0
 22 48  1  0  0  0  0
 23 49  1  0  0  0  0
 23 50  1  0  0  0  0
 23 51  1  0  0  0  0
 25 27  1  0  0  0  0
 25 26  1  0  0  0  0
 25 52  1  0  0  0  0
 26 27  1  0  0  0  0
 26 53  1  0  0  0  0
 26 54  1  0  0  0  0
 27 55  1  0  0  0  0
 27 56  1  0  0  0  0
M  END
$$$$
CHEMBL3353835
 OpenBabel12022418093D

 49 53  0  0  0  0  0  0  0  0999 V2000
    0.8561   -0.3024   -0.9753 C   0  0  0  0  0  0  0  0  0  0  0  0
    0.9392    0.8385   -0.1770 C   0  0  0  0  0  0  0  0  0  0  0  0
    0.0015    1.0410    0.8274 C   0  0  0  0  0  0  0  0  0  0  0  0
   -1.0138    0.0896    1.0154 C   0  0  0  0  0  0  0  0  0  0  0  0
   -1.1183   -1.0877    0.2380 C   0  0  0  0  0  0  0  0  0  0  0  0
   -0.1541   -1.2551   -0.7702 C   0  0  0  0  0  0  0  0  0  0  0  0
   -2.2166   -2.0963    0.5225 C   0  0  0  0  0  0  0  0  0  0  0  0
   -2.3357   -3.2105   -0.4204 N   0  0  0  0  0  0  0  0  0  0  0  0
   -2.1787   -4.5641   -0.1520 C   0  0  0  0  0  0  0  0  0  0  0  0
   -1.6399   -5.2538    0.9481 C   0  0  0  0  0  0  0  0  0  0  0  0
   -1.8072   -6.6462    0.9963 C   0  0  0  0  0  0  0  0  0  0  0  0
   -2.4894   -7.3300   -0.0054 C   0  0  0  0  0  0  0  0  0  0  0  0
   -2.9333   -6.6534   -1.1414 C   0  0  0  0  0  0  0  0  0  0  0  0
   -2.7476   -5.2590   -1.2339 C   0  0  0  0  0  0  0  0  0  0  0  0
   -3.0635   -4.3004   -2.2241 C   0  0  0  0  0  0  0  0  0  0  0  0
   -2.9291   -3.0544   -1.6484 C   0  0  0  0  0  0  0  0  0  0  0  0
   -3.3617   -1.9004   -2.1813 N   0  0  0  0  0  0  0  0  0  0  0  0
   -3.9206   -2.1111   -3.3859 C   0  0  0  0  0  0  0  0  0  0  0  0
   -3.9600   -3.2905   -4.0628 N   0  0  0  0  0  0  0  0  0  0  0  0
   -3.5443   -4.4155   -3.4858 N   0  0  0  0  0  0  0  0  0  0  0  0
   -4.8173   -0.7478   -4.0670 S   0  0  0  0  0  0  0  0  0  0  0  0
   -3.7554   -0.4571   -5.4977 C   0  0  0  0  0  0  0  0  0  0  0  0
   -4.3150    0.6611   -6.3459 C   0  0  0  0  0  0  0  0  0  0  0  0
   -5.2657    0.3457   -7.3342 C   0  0  0  0  0  0  0  0  0  0  0  0
   -5.8313    1.3435   -8.1261 C   0  0  0  0  0  0  0  0  0  0  0  0
   -5.4641    2.6730   -7.9386 C   0  0  0  0  0  0  0  0  0  0  0  0
   -4.5377    3.0067   -6.9509 C   0  0  0  0  0  0  0  0  0  0  0  0
   -3.9638    2.0113   -6.1480 C   0  0  0  0  0  0  0  0  0  0  0  0
   -3.0239    2.4064   -5.1429 C   0  0  0  0  0  0  0  0  0  0  0  0
   -2.2443    2.7287   -4.3369 N   0  0  0  0  0  0  0  0  0  0  0  0
   -1.9835    0.3783    2.0641 N   0  3  0  0  0  0  0  0  0  0  0  0
   -1.5458    0.4500    3.2212 O   0  0  0  0  0  0  0  0  0  0  0  0
   -3.1611    0.5197    1.7264 O   0  5  0  0  0  0  0  0  0  0  0  0
    1.5804   -0.4448   -1.7745 H   0  0  0  0  0  0  0  0  0  0  0  0
    1.7247    1.5716   -0.3499 H   0  0  0  0  0  0  0  0  0  0  0  0
    0.0528    1.9348    1.4455 H   0  0  0  0  0  0  0  0  0  0  0  0
   -0.1637   -2.1239   -1.4273 H   0  0  0  0  0  0  0  0  0  0  0  0
   -3.1905   -1.5964    0.4787 H   0  0  0  0  0  0  0  0  0  0  0  0
   -2.0948   -2.5130    1.5279 H   0  0  0  0  0  0  0  0  0  0  0  0
   -1.1239   -4.7411    1.7536 H   0  0  0  0  0  0  0  0  0  0  0  0
   -1.4161   -7.2054    1.8453 H   0  0  0  0  0  0  0  0  0  0  0  0
   -2.6751   -8.3975    0.0886 H   0  0  0  0  0  0  0  0  0  0  0  0
   -3.4665   -7.1842   -1.9264 H   0  0  0  0  0  0  0  0  0  0  0  0
   -3.6853   -1.3684   -6.1032 H   0  0  0  0  0  0  0  0  0  0  0  0
   -2.7367   -0.2297   -5.1666 H   0  0  0  0  0  0  0  0  0  0  0  0
   -5.5817   -0.6866   -7.4814 H   0  0  0  0  0  0  0  0  0  0  0  0
   -6.5655    1.0825   -8.8845 H   0  0  0  0  0  0  0  0  0  0  0  0
   -5.9068    3.4511   -8.5553 H   0  0  0  0  0  0  0  0  0  0  0  0
   -4.2686    4.0521   -6.8073 H   0  0  0  0  0  0  0  0  0  0  0  0
  1  6  2  0  0  0  0
  1  2  1  0  0  0  0
  1 34  1  0  0  0  0
  2  3  2  0  0  0  0
  2 35  1  0  0  0  0
  3  4  1  0  0  0  0
  3 36  1  0  0  0  0
  4  5  2  0  0  0  0
  4 31  1  0  0  0  0
  5  6  1  0  0  0  0
  5  7  1  0  0  0  0
  6 37  1  0  0  0  0
  7  8  1  0  0  0  0
  7 38  1  0  0  0  0
  7 39  1  0  0  0  0
  8 16  1  0  0  0  0
  8  9  1  0  0  0  0
  9 14  2  0  0  0  0
  9 10  1  0  0  0  0
 10 11  2  0  0  0  0
 10 40  1  0  0  0  0
 11 12  1  0  0  0  0
 11 41  1  0  0  0  0
 12 13  2  0  0  0  0
 12 42  1  0  0  0  0
 13 14  1  0  0  0  0
 13 43  1  0  0  0  0
 14 15  1  0  0  0  0
 15 20  2  0  0  0  0
 15 16  1  0  0  0  0
 16 17  2  0  0  0  0
 17 18  1  0  0  0  0
 18 19  2  0  0  0  0
 18 21  1  0  0  0  0
 19 20  1  0  0  0  0
 21 22  1  0  0  0  0
 22 23  1  0  0  0  0
 22 44  1  0  0  0  0
 22 45  1  0  0  0  0
 23 28  2  0  0  0  0
 23 24  1  0  0  0  0
 24 25  2  0  0  0  0
 24 46  1  0  0  0  0
 25 26  1  0  0  0  0
 25 47  1  0  0  0  0
 26 27  2  0  0  0  0
 26 48  1  0  0  0  0
 27 28  1  0  0  0  0
 27 49  1  0  0  0  0
 28 29  1  0  0  0  0
 29 30  3  0  0  0  0
 31 32  2  0  0  0  0
 31 33  1  0  0  0  0
M  CHG  2  31   1  33  -1
M  END
$$$$
CHEMBL254530
 OpenBabel12022418093D

 50 52  0  0  0  0  0  0  0  0999 V2000
    2.0413   -0.6894    0.5380 C   0  0  0  0  0  0  0  0  0  0  0  0
    0.6138   -0.3077    0.2723 C   0  0  0  0  0  0  0  0  0  0  0  0
   -0.2736   -1.3949    0.1321 C   0  0  0  0  0  0  0  0  0  0  0  0
   -1.6294   -1.2023   -0.1116 C   0  0  0  0  0  0  0  0  0  0  0  0
   -2.1425    0.0904   -0.2301 C   0  0  0  0  0  0  0  0  0  0  0  0
   -3.6156    0.2083   -0.3919 C   0  0  0  0  0  0  0  0  0  0  0  0
   -4.3340   -0.6845    0.0369 O   0  0  0  0  0  0  0  0  0  0  0  0
   -4.1053    1.3320   -1.0310 N   0  0  0  0  0  0  0  0  0  0  0  0
   -5.5408    1.4678   -1.2490 C   0  0  0  0  0  0  0  0  0  0  0  0
   -5.9528    2.9420   -1.2250 C   0  0  0  0  0  0  0  0  0  0  0  0
   -7.4517    3.1011   -1.4685 C   0  0  0  0  0  0  0  0  0  0  0  0
   -7.8835    2.4251   -2.7667 C   0  0  0  0  0  0  0  0  0  0  0  0
   -7.4745    0.9552   -2.7974 C   0  0  0  0  0  0  0  0  0  0  0  0
   -5.9767    0.7832   -2.5512 C   0  0  0  0  0  0  0  0  0  0  0  0
   -1.2764    1.1860   -0.1338 C   0  0  0  0  0  0  0  0  0  0  0  0
    0.1049    1.0011    0.1166 C   0  0  0  0  0  0  0  0  0  0  0  0
    1.1482    2.4733   -0.0590 S   0  0  0  0  0  0  0  0  0  0  0  0
    2.4543    2.0466   -0.5062 O   0  0  0  0  0  0  0  0  0  0  0  0
    0.3778    3.4031   -0.8656 O   0  0  0  0  0  0  0  0  0  0  0  0
    1.2957    3.1613    1.4576 N   0  0  0  0  0  0  0  0  0  0  0  0
    2.2883    2.7325    2.4446 C   0  0  0  0  0  0  0  0  0  0  0  0
    1.4418    2.3325    3.6368 C   0  0  0  0  0  0  0  0  0  0  0  0
    0.2857    3.3217    3.6123 C   0  0  0  0  0  0  0  0  0  0  0  0
    0.1549    3.7687    2.1542 C   0  0  0  0  0  0  0  0  0  0  0  0
    2.6512    0.1308    0.9073 H   0  0  0  0  0  0  0  0  0  0  0  0
    2.4960   -1.1052   -0.3662 H   0  0  0  0  0  0  0  0  0  0  0  0
    2.0719   -1.4578    1.3214 H   0  0  0  0  0  0  0  0  0  0  0  0
    0.0941   -2.4188    0.2075 H   0  0  0  0  0  0  0  0  0  0  0  0
   -2.2868   -2.0659   -0.2063 H   0  0  0  0  0  0  0  0  0  0  0  0
   -3.4786    1.9051   -1.5761 H   0  0  0  0  0  0  0  0  0  0  0  0
   -6.0541    0.9666   -0.4169 H   0  0  0  0  0  0  0  0  0  0  0  0
   -5.3937    3.5032   -1.9844 H   0  0  0  0  0  0  0  0  0  0  0  0
   -5.6922    3.3835   -0.2552 H   0  0  0  0  0  0  0  0  0  0  0  0
   -7.7100    4.1648   -1.5001 H   0  0  0  0  0  0  0  0  0  0  0  0
   -8.0057    2.6624   -0.6287 H   0  0  0  0  0  0  0  0  0  0  0  0
   -7.4294    2.9473   -3.6177 H   0  0  0  0  0  0  0  0  0  0  0  0
   -8.9700    2.5083   -2.8823 H   0  0  0  0  0  0  0  0  0  0  0  0
   -7.7441    0.5164   -3.7646 H   0  0  0  0  0  0  0  0  0  0  0  0
   -8.0349    0.4049   -2.0311 H   0  0  0  0  0  0  0  0  0  0  0  0
   -5.7361   -0.2863   -2.5164 H   0  0  0  0  0  0  0  0  0  0  0  0
   -5.4167    1.1994   -3.3986 H   0  0  0  0  0  0  0  0  0  0  0  0
   -1.6705    2.1925   -0.2546 H   0  0  0  0  0  0  0  0  0  0  0  0
    2.9151    3.5998    2.6938 H   0  0  0  0  0  0  0  0  0  0  0  0
    2.9483    1.9340    2.1104 H   0  0  0  0  0  0  0  0  0  0  0  0
    2.0010    2.3662    4.5775 H   0  0  0  0  0  0  0  0  0  0  0  0
    1.0651    1.3135    3.4998 H   0  0  0  0  0  0  0  0  0  0  0  0
    0.4957    4.1831    4.2575 H   0  0  0  0  0  0  0  0  0  0  0  0
   -0.6387    2.8612    3.9765 H   0  0  0  0  0  0  0  0  0  0  0  0
   -0.8095    3.4770    1.7347 H   0  0  0  0  0  0  0  0  0  0  0  0
    0.2402    4.8601    2.0894 H   0  0  0  0  0  0  0  0  0  0  0  0
  1  2  1  0  0  0  0
  1 25  1  0  0  0  0
  1 26  1  0  0  0  0
  1 27  1  0  0  0  0
  2 16  2  0  0  0  0
  2  3  1  0  0  0  0
  3  4  2  0  0  0  0
  3 28  1  0  0  0  0
  4  5  1  0  0  0  0
  4 29  1  0  0  0  0
  5  6  1  0  0  0  0
  5 15  2  0  0  0  0
  6  7  2  0  0  0  0
  6  8  1  0  0  0  0
  8  9  1  0  0  0  0
  8 30  1  0  0  0  0
  9 14  1  0  0  0  0
  9 10  1  0  0  0  0
  9 31  1  0  0  0  0
 10 11  1  0  0  0  0
 10 32  1  0  0  0  0
 10 33  1  0  0  0  0
 11 12  1  0  0  0  0
 11 34  1  0  0  0  0
 11 35  1  0  0  0  0
 12 13  1  0  0  0  0
 12 36  1  0  0  0  0
 12 37  1  0  0  0  0
 13 14  1  0  0  0  0
 13 38  1  0  0  0  0
 13 39  1  0  0  0  0
 14 40  1  0  0  0  0
 14 41  1  0  0  0  0
 15 16  1  0  0  0  0
 15 42  1  0  0  0  0
 16 17  1  0  0  0  0
 17 18  2  0  0  0  0
 17 19  2  0  0  0  0
 17 20  1  0  0  0  0
 20 24  1  0  0  0  0
 20 21  1  0  0  0  0
 21 22  1  0  0  0  0
 21 43  1  0  0  0  0
 21 44  1  0  0  0  0
 22 23  1  0  0  0  0
 22 45  1  0  0  0  0
 22 46  1  0  0  0  0
 23 24  1  0  0  0  0
 23 47  1  0  0  0  0
 23 48  1  0  0  0  0
 24 49  1  0  0  0  0
 24 50  1  0  0  0  0
M  END
$$$$
CHEMBL3354407
 OpenBabel12022418093D

 42 46  0  0  0  0  0  0  0  0999 V2000
    1.3581   -0.4502    0.1796 C   0  0  0  0  0  0  0  0  0  0  0  0
    1.7118   -0.9802   -1.0561 C   0  0  0  0  0  0  0  0  0  0  0  0
    1.2929   -0.3426   -2.2222 C   0  0  0  0  0  0  0  0  0  0  0  0
    0.5230    0.8345   -2.1607 C   0  0  0  0  0  0  0  0  0  0  0  0
    0.1898    1.4038   -0.9126 C   0  0  0  0  0  0  0  0  0  0  0  0
    0.6077    0.7282    0.2521 C   0  0  0  0  0  0  0  0  0  0  0  0
   -0.6329    2.6803   -0.7695 C   0  0  0  0  0  0  0  0  0  0  0  0
   -2.3904    2.2766   -0.5350 S   0  0  0  0  0  0  0  0  0  0  0  0
   -3.1775    3.8727   -0.4261 C   0  0  0  0  0  0  0  0  0  0  0  0
   -4.5193    3.8070   -0.4680 N   0  0  0  0  0  0  0  0  0  0  0  0
   -5.1101    5.0123   -0.3748 C   0  0  0  0  0  0  0  0  0  0  0  0
   -4.4378    6.2157   -0.2924 C   0  0  0  0  0  0  0  0  0  0  0  0
   -5.4050    7.2582   -0.3243 C   0  0  0  0  0  0  0  0  0  0  0  0
   -5.3416    8.6701   -0.2987 C   0  0  0  0  0  0  0  0  0  0  0  0
   -6.5235    9.4231   -0.3703 C   0  0  0  0  0  0  0  0  0  0  0  0
   -7.7571    8.7986   -0.4617 C   0  0  0  0  0  0  0  0  0  0  0  0
   -7.8507    7.4053   -0.4880 C   0  0  0  0  0  0  0  0  0  0  0  0
   -6.6645    6.6447   -0.4282 C   0  0  0  0  0  0  0  0  0  0  0  0
   -6.4703    5.2572   -0.4126 N   0  0  0  0  0  0  0  0  0  0  0  0
   -7.4761    4.2631   -0.4878 C   0  0  0  0  0  0  0  0  0  0  0  0
   -8.5225    4.5825   -1.0479 O   0  0  0  0  0  0  0  0  0  0  0  0
   -7.2925    2.9414    0.0627 C   0  0  0  0  0  0  0  0  0  0  0  0
   -7.8112    1.7158   -0.2884 C   0  0  0  0  0  0  0  0  0  0  0  0
   -7.3114    0.8369    0.6871 C   0  0  0  0  0  0  0  0  0  0  0  0
   -6.5640    1.4682    1.5948 N   0  0  0  0  0  0  0  0  0  0  0  0
   -6.5571    2.7963    1.2033 O   0  0  0  0  0  0  0  0  0  0  0  0
   -3.0782    6.2208   -0.2388 N   0  0  0  0  0  0  0  0  0  0  0  0
   -2.4647    5.0184   -0.3032 N   0  0  0  0  0  0  0  0  0  0  0  0
    0.0865    1.4078   -3.4014 C   0  0  0  0  0  0  0  0  0  0  0  0
   -0.2566    1.8500   -4.4187 N   0  0  0  0  0  0  0  0  0  0  0  0
    1.6625   -0.9577    1.0924 H   0  0  0  0  0  0  0  0  0  0  0  0
    2.3010   -1.8930   -1.1127 H   0  0  0  0  0  0  0  0  0  0  0  0
    1.5641   -0.7755   -3.1850 H   0  0  0  0  0  0  0  0  0  0  0  0
    0.3364    1.1120    1.2342 H   0  0  0  0  0  0  0  0  0  0  0  0
   -0.4976    3.3282   -1.6413 H   0  0  0  0  0  0  0  0  0  0  0  0
   -0.2661    3.2388    0.0995 H   0  0  0  0  0  0  0  0  0  0  0  0
   -4.3827    9.1758   -0.2303 H   0  0  0  0  0  0  0  0  0  0  0  0
   -6.4704   10.5120   -0.3573 H   0  0  0  0  0  0  0  0  0  0  0  0
   -8.6667    9.3965   -0.5156 H   0  0  0  0  0  0  0  0  0  0  0  0
   -8.8283    6.9341   -0.5552 H   0  0  0  0  0  0  0  0  0  0  0  0
   -8.4508    1.4978   -1.1302 H   0  0  0  0  0  0  0  0  0  0  0  0
   -7.4625   -0.2288    0.7857 H   0  0  0  0  0  0  0  0  0  0  0  0
  1  6  2  0  0  0  0
  1  2  1  0  0  0  0
  1 31  1  0  0  0  0
  2  3  2  0  0  0  0
  2 32  1  0  0  0  0
  3  4  1  0  0  0  0
  3 33  1  0  0  0  0
  4  5  2  0  0  0  0
  4 29  1  0  0  0  0
  5  6  1  0  0  0  0
  5  7  1  0  0  0  0
  6 34  1  0  0  0  0
  7  8  1  0  0  0  0
  7 35  1  0  0  0  0
  7 36  1  0  0  0  0
  8  9  1  0  0  0  0
  9 28  2  0  0  0  0
  9 10  1  0  0  0  0
 10 11  2  0  0  0  0
 11 19  1  0  0  0  0
 11 12  1  0  0  0  0
 12 13  1  0  0  0  0
 12 27  2  0  0  0  0
 13 18  2  0  0  0  0
 13 14  1  0  0  0  0
 14 15  2  0  0  0  0
 14 37  1  0  0  0  0
 15 16  1  0  0  0  0
 15 38  1  0  0  0  0
 16 17  2  0  0  0  0
 16 39  1  0  0  0  0
 17 18  1  0  0  0  0
 17 40  1  0  0  0  0
 18 19  1  0  0  0  0
 19 20  1  0  0  0  0
 20 21  2  0  0  0  0
 20 22  1  0  0  0  0
 22 26  1  0  0  0  0
 22 23  2  0  0  0  0
 23 24  1  0  0  0  0
 23 41  1  0  0  0  0
 24 25  2  0  0  0  0
 24 42  1  0  0  0  0
 25 26  1  0  0  0  0
 27 28  1  0  0  0  0
 29 30  3  0  0  0  0
M  END
$$$$
CHEMBL250609
 OpenBabel12022418093D

 60 63  0  0  0  0  0  0  0  0999 V2000
    2.8062    1.0447    0.0605 C   0  0  0  0  0  0  0  0  0  0  0  0
    3.1438   -0.3005    0.2215 C   0  0  0  0  0  0  0  0  0  0  0  0
    2.1876   -1.3225    0.1425 C   0  0  0  0  0  0  0  0  0  0  0  0
    0.8399   -0.9553    0.0105 C   0  0  0  0  0  0  0  0  0  0  0  0
    0.4689    0.4073   -0.0979 C   0  0  0  0  0  0  0  0  0  0  0  0
    1.4607    1.4038   -0.0970 C   0  0  0  0  0  0  0  0  0  0  0  0
   -0.9312    0.4332   -0.1407 C   0  0  0  0  0  0  0  0  0  0  0  0
   -1.3875   -0.8409   -0.0452 C   0  0  0  0  0  0  0  0  0  0  0  0
   -2.8490   -0.9090    0.0243 C   0  0  0  0  0  0  0  0  0  0  0  0
   -3.2264    0.5446    0.2868 N   0  0  0  0  0  0  0  0  0  0  0  0
   -2.0522    1.3836   -0.1850 C   0  0  0  0  0  0  0  0  0  0  0  0
   -3.5412    0.7881    1.7206 C   0  0  0  0  0  0  0  0  0  0  0  0
   -3.8764    2.2652    2.0146 C   0  0  0  0  0  0  0  0  0  0  0  0
   -4.7732   -0.0189    2.1729 C   0  0  0  0  0  0  0  0  0  0  0  0
   -0.3381   -1.6956   -0.0225 N   0  0  0  0  0  0  0  0  0  0  0  0
   -0.4461   -3.3924   -0.0142 S   0  0  0  0  0  0  0  0  0  0  0  0
   -1.8670   -3.6888   -0.0545 O   0  0  0  0  0  0  0  0  0  0  0  0
    0.4397   -3.8149   -1.0835 O   0  0  0  0  0  0  0  0  0  0  0  0
    0.2015   -4.0113    1.5256 C   0  0  0  0  0  0  0  0  0  0  0  0
    0.0877   -5.5260    1.5989 C   0  0  0  0  0  0  0  0  0  0  0  0
    3.8000    2.1456    0.2046 C   0  0  0  0  0  0  0  0  0  0  0  0
    3.4145    3.1668    0.7771 O   0  0  0  0  0  0  0  0  0  0  0  0
    5.1084    2.0013   -0.2498 N   0  0  0  0  0  0  0  0  0  0  0  0
    5.6108    1.0143   -1.2020 C   0  0  0  0  0  0  0  0  0  0  0  0
    6.7492    0.2120   -0.5713 C   0  0  0  0  0  0  0  0  0  0  0  0
    7.8473    1.1258    0.0031 C   0  0  0  0  0  0  0  0  0  0  0  0
    7.2540    2.2416    0.8823 C   0  0  0  0  0  0  0  0  0  0  0  0
    6.1108    2.9709    0.1796 C   0  0  0  0  0  0  0  0  0  0  0  0
    8.8569    0.3023    0.8033 C   0  0  0  0  0  0  0  0  0  0  0  0
    4.1682   -0.5855    0.4355 H   0  0  0  0  0  0  0  0  0  0  0  0
    2.5004   -2.3588    0.2113 H   0  0  0  0  0  0  0  0  0  0  0  0
    1.1782    2.4515   -0.1717 H   0  0  0  0  0  0  0  0  0  0  0  0
   -3.1901   -1.6014    0.7921 H   0  0  0  0  0  0  0  0  0  0  0  0
   -3.2720   -1.2068   -0.9420 H   0  0  0  0  0  0  0  0  0  0  0  0
   -2.2449    1.6947   -1.2175 H   0  0  0  0  0  0  0  0  0  0  0  0
   -1.8451    2.2748    0.4063 H   0  0  0  0  0  0  0  0  0  0  0  0
   -2.6868    0.5011    2.3475 H   0  0  0  0  0  0  0  0  0  0  0  0
   -4.6922    2.6224    1.3762 H   0  0  0  0  0  0  0  0  0  0  0  0
   -3.0229    2.9349    1.8845 H   0  0  0  0  0  0  0  0  0  0  0  0
   -4.1935    2.3855    3.0574 H   0  0  0  0  0  0  0  0  0  0  0  0
   -5.6562    0.2443    1.5798 H   0  0  0  0  0  0  0  0  0  0  0  0
   -5.0014    0.1921    3.2242 H   0  0  0  0  0  0  0  0  0  0  0  0
   -4.6308   -1.0993    2.1051 H   0  0  0  0  0  0  0  0  0  0  0  0
   -0.3599   -3.5464    2.3401 H   0  0  0  0  0  0  0  0  0  0  0  0
    1.2514   -3.7203    1.5990 H   0  0  0  0  0  0  0  0  0  0  0  0
   -0.9577   -5.8473    1.5481 H   0  0  0  0  0  0  0  0  0  0  0  0
    0.5127   -5.8994    2.5358 H   0  0  0  0  0  0  0  0  0  0  0  0
    0.6213   -6.0043    0.7706 H   0  0  0  0  0  0  0  0  0  0  0  0
    5.9806    1.5655   -2.0755 H   0  0  0  0  0  0  0  0  0  0  0  0
    4.8211    0.3598   -1.5738 H   0  0  0  0  0  0  0  0  0  0  0  0
    7.1791   -0.4631   -1.3204 H   0  0  0  0  0  0  0  0  0  0  0  0
    6.3540   -0.4185    0.2337 H   0  0  0  0  0  0  0  0  0  0  0  0
    8.3735    1.5959   -0.8376 H   0  0  0  0  0  0  0  0  0  0  0  0
    8.0364    2.9600    1.1535 H   0  0  0  0  0  0  0  0  0  0  0  0
    6.8761    1.8093    1.8182 H   0  0  0  0  0  0  0  0  0  0  0  0
    5.6863    3.7187    0.8564 H   0  0  0  0  0  0  0  0  0  0  0  0
    6.4735    3.5001   -0.7097 H   0  0  0  0  0  0  0  0  0  0  0  0
    8.3856   -0.1704    1.6697 H   0  0  0  0  0  0  0  0  0  0  0  0
    9.6730    0.9348    1.1675 H   0  0  0  0  0  0  0  0  0  0  0  0
    9.2928   -0.4893    0.1846 H   0  0  0  0  0  0  0  0  0  0  0  0
  1  6  2  0  0  0  0
  1  2  1  0  0  0  0
  1 21  1  0  0  0  0
  2  3  2  0  0  0  0
  2 30  1  0  0  0  0
  3  4  1  0  0  0  0
  3 31  1  0  0  0  0
  4 15  1  0  0  0  0
  4  5  2  0  0  0  0
  5  6  1  0  0  0  0
  5  7  1  0  0  0  0
  6 32  1  0  0  0  0
  7 11  1  0  0  0  0
  7  8  2  0  0  0  0
  8  9  1  0  0  0  0
  8 15  1  0  0  0  0
  9 10  1  0  0  0  0
  9 33  1  0  0  0  0
  9 34  1  0  0  0  0
 10 11  1  0  0  0  0
 10 12  1  0  0  0  0
 11 35  1  0  0  0  0
 11 36  1  0  0  0  0
 12 13  1  0  0  0  0
 12 14  1  0  0  0  0
 12 37  1  0  0  0  0
 13 38  1  0  0  0  0
 13 39  1  0  0  0  0
 13 40  1  0  0  0  0
 14 41  1  0  0  0  0
 14 42  1  0  0  0  0
 14 43  1  0  0  0  0
 15 16  1  0  0  0  0
 16 17  2  0  0  0  0
 16 18  2  0  0  0  0
 16 19  1  0  0  0  0
 19 20  1  0  0  0  0
 19 44  1  0  0  0  0
 19 45  1  0  0  0  0
 20 46  1  0  0  0  0
 20 47  1  0  0  0  0
 20 48  1  0  0  0  0
 21 22  2  0  0  0  0
 21 23  1  0  0  0  0
 23 28  1  0  0  0  0
 23 24  1  0  0  0  0
 24 25  1  0  0  0  0
 24 49  1  0  0  0  0
 24 50  1  0  0  0  0
 25 26  1  0  0  0  0
 25 51  1  0  0  0  0
 25 52  1  0  0  0  0
 26 27  1  0  0  0  0
 26 29  1  0  0  0  0
 26 53  1  0  0  0  0
 27 28  1  0  0  0  0
 27 54  1  0  0  0  0
 27 55  1  0  0  0  0
 28 56  1  0  0  0  0
 28 57  1  0  0  0  0
 29 58  1  0  0  0  0
 29 59  1  0  0  0  0
 29 60  1  0  0  0  0
M  END
$$$$
CHEMBL571095
 OpenBabel12022418093D

 52 55  0  0  0  0  0  0  0  0999 V2000
   -1.1887   -0.5404   -2.8535 C   0  0  0  0  0  0  0  0  0  0  0  0
   -0.6882   -0.1475   -1.5090 C   0  0  0  0  0  0  0  0  0  0  0  0
   -0.4666   -0.9783   -0.4219 C   0  0  0  0  0  0  0  0  0  0  0  0
   -0.6208   -2.4604   -0.2994 C   0  0  0  0  0  0  0  0  0  0  0  0
   -1.9719   -2.8783    0.2908 C   0  0  0  0  0  0  0  0  0  0  0  0
   -2.1357   -4.3254    0.4071 N   0  0  0  0  0  0  0  0  0  0  0  0
   -1.1162   -5.2215    0.6095 C   0  0  0  0  0  0  0  0  0  0  0  0
   -1.6011   -6.5013    0.4174 C   0  0  0  0  0  0  0  0  0  0  0  0
   -0.8194   -7.7404    0.3699 C   0  0  0  0  0  0  0  0  0  0  0  0
   -1.3486   -8.8223    0.1474 O   0  0  0  0  0  0  0  0  0  0  0  0
    0.6832   -7.6092    0.5361 C   0  0  0  0  0  0  0  0  0  0  0  0
    1.6622   -8.7930    0.5784 C   0  0  0  0  0  0  0  0  0  0  0  0
    2.8679   -8.7046    1.5014 C   0  0  0  0  0  0  0  0  0  0  0  0
    1.1446  -10.2135    0.4969 C   0  0  0  0  0  0  0  0  0  0  0  0
    1.6235   -7.8446   -0.6447 C   0  0  0  0  0  0  0  0  0  0  0  0
    1.0636   -8.3169   -1.9732 C   0  0  0  0  0  0  0  0  0  0  0  0
    2.7645   -6.8647   -0.8588 C   0  0  0  0  0  0  0  0  0  0  0  0
   -3.0295   -6.3646    0.2975 C   0  0  0  0  0  0  0  0  0  0  0  0
   -4.0962   -7.2846    0.1693 C   0  0  0  0  0  0  0  0  0  0  0  0
   -5.4171   -6.8240    0.1055 C   0  0  0  0  0  0  0  0  0  0  0  0
   -5.6936   -5.4635    0.1503 C   0  0  0  0  0  0  0  0  0  0  0  0
   -4.6603   -4.5266    0.2476 C   0  0  0  0  0  0  0  0  0  0  0  0
   -3.3327   -4.9940    0.3232 C   0  0  0  0  0  0  0  0  0  0  0  0
    0.1334   -0.0591    0.9008 S   0  0  0  0  0  0  0  0  0  0  0  0
    0.0746    1.3472   -0.0698 C   0  0  0  0  0  0  0  0  0  0  0  0
   -0.3780    1.1858   -1.2920 N   0  0  0  0  0  0  0  0  0  0  0  0
   -1.2376    0.3262   -3.5207 H   0  0  0  0  0  0  0  0  0  0  0  0
   -2.1928   -0.9686   -2.7778 H   0  0  0  0  0  0  0  0  0  0  0  0
   -0.5247   -1.2809   -3.3104 H   0  0  0  0  0  0  0  0  0  0  0  0
    0.2015   -2.8378    0.3201 H   0  0  0  0  0  0  0  0  0  0  0  0
   -0.4906   -2.9275   -1.2843 H   0  0  0  0  0  0  0  0  0  0  0  0
   -2.7746   -2.5139   -0.3622 H   0  0  0  0  0  0  0  0  0  0  0  0
   -2.1296   -2.4607    1.2916 H   0  0  0  0  0  0  0  0  0  0  0  0
   -0.1105   -4.8843    0.8157 H   0  0  0  0  0  0  0  0  0  0  0  0
    0.9467   -6.8126    1.2278 H   0  0  0  0  0  0  0  0  0  0  0  0
    2.6559   -9.1943    2.4567 H   0  0  0  0  0  0  0  0  0  0  0  0
    3.1641   -7.6787    1.7339 H   0  0  0  0  0  0  0  0  0  0  0  0
    3.7241   -9.2100    1.0393 H   0  0  0  0  0  0  0  0  0  0  0  0
    1.7817  -10.8947    1.0780 H   0  0  0  0  0  0  0  0  0  0  0  0
    1.1242  -10.5984   -0.5261 H   0  0  0  0  0  0  0  0  0  0  0  0
    0.1547  -10.3194    0.9474 H   0  0  0  0  0  0  0  0  0  0  0  0
    0.1409   -8.8918   -1.8868 H   0  0  0  0  0  0  0  0  0  0  0  0
    1.8023   -8.9399   -2.4888 H   0  0  0  0  0  0  0  0  0  0  0  0
    0.8514   -7.4537   -2.6151 H   0  0  0  0  0  0  0  0  0  0  0  0
    3.1283   -6.4095    0.0641 H   0  0  0  0  0  0  0  0  0  0  0  0
    2.4449   -6.0422   -1.5085 H   0  0  0  0  0  0  0  0  0  0  0  0
    3.6063   -7.3725   -1.3436 H   0  0  0  0  0  0  0  0  0  0  0  0
   -3.8963   -8.3531    0.1379 H   0  0  0  0  0  0  0  0  0  0  0  0
   -6.2311   -7.5413    0.0280 H   0  0  0  0  0  0  0  0  0  0  0  0
   -6.7256   -5.1219    0.1074 H   0  0  0  0  0  0  0  0  0  0  0  0
   -4.8897   -3.4664    0.2836 H   0  0  0  0  0  0  0  0  0  0  0  0
    0.3939    2.3100    0.3064 H   0  0  0  0  0  0  0  0  0  0  0  0
  1  2  1  0  0  0  0
  1 27  1  0  0  0  0
  1 28  1  0  0  0  0
  1 29  1  0  0  0  0
  2 26  1  0  0  0  0
  2  3  2  0  0  0  0
  3  4  1  0  0  0  0
  3 24  1  0  0  0  0
  4  5  1  0  0  0  0
  4 30  1  0  0  0  0
  4 31  1  0  0  0  0
  5  6  1  0  0  0  0
  5 32  1  0  0  0  0
  5 33  1  0  0  0  0
  6 23  1  0  0  0  0
  6  7  1  0  0  0  0
  7  8  2  0  0  0  0
  7 34  1  0  0  0  0
  8  9  1  0  0  0  0
  8 18  1  0  0  0  0
  9 10  2  0  0  0  0
  9 11  1  0  0  0  0
 11 15  1  0  0  0  0
 11 12  1  0  0  0  0
 11 35  1  0  0  0  0
 12 13  1  0  0  0  0
 12 14  1  0  0  0  0
 12 15  1  0  0  0  0
 13 36  1  0  0  0  0
 13 37  1  0  0  0  0
 13 38  1  0  0  0  0
 14 39  1  0  0  0  0
 14 40  1  0  0  0  0
 14 41  1  0  0  0  0
 15 16  1  0  0  0  0
 15 17  1  0  0  0  0
 16 42  1  0  0  0  0
 16 43  1  0  0  0  0
 16 44  1  0  0  0  0
 17 45  1  0  0  0  0
 17 46  1  0  0  0  0
 17 47  1  0  0  0  0
 18 23  2  0  0  0  0
 18 19  1  0  0  0  0
 19 20  2  0  0  0  0
 19 48  1  0  0  0  0
 20 21  1  0  0  0  0
 20 49  1  0  0  0  0
 21 22  2  0  0  0  0
 21 50  1  0  0  0  0
 22 23  1  0  0  0  0
 22 51  1  0  0  0  0
 24 25  1  0  0  0  0
 25 26  2  0  0  0  0
 25 52  1  0  0  0  0
M  END
$$$$
CHEMBL572000
 OpenBabel12022418093D

 50 52  0  0  0  0  0  0  0  0999 V2000
    0.9657    2.1848    2.6688 C   0  0  0  0  0  0  0  0  0  0  0  0
    2.3836    2.2360    2.5646 O   0  0  0  0  0  0  0  0  0  0  0  0
    2.8612    1.5340    1.4187 C   0  0  0  0  0  0  0  0  0  0  0  0
    4.3843    1.6374    1.3675 C   0  0  0  0  0  0  0  0  0  0  0  0
    5.0318    1.0751    2.6348 C   0  0  0  0  0  0  0  0  0  0  0  0
    6.4921    1.1004    2.6086 N   0  0  0  0  0  0  0  0  0  0  0  0
    7.2518    2.2502    2.6475 C   0  0  0  0  0  0  0  0  0  0  0  0
    8.6000    1.9151    2.6847 C   0  0  0  0  0  0  0  0  0  0  0  0
    9.7771    2.8196    2.7480 C   0  0  0  0  0  0  0  0  0  0  0  0
   10.9229    2.3925    2.8387 O   0  0  0  0  0  0  0  0  0  0  0  0
    9.5138    4.2965    2.6721 C   0  0  0  0  0  0  0  0  0  0  0  0
   10.2219    5.4066    3.4507 C   0  0  0  0  0  0  0  0  0  0  0  0
    9.3790    6.5587    3.9605 C   0  0  0  0  0  0  0  0  0  0  0  0
   11.3839    5.1249    4.3842 C   0  0  0  0  0  0  0  0  0  0  0  0
   10.4334    5.2725    1.9293 C   0  0  0  0  0  0  0  0  0  0  0  0
   11.8363    4.9484    1.4517 C   0  0  0  0  0  0  0  0  0  0  0  0
    9.7199    6.1697    0.9381 C   0  0  0  0  0  0  0  0  0  0  0  0
    8.6322    0.4725    2.6640 C   0  0  0  0  0  0  0  0  0  0  0  0
    9.6789   -0.4808    2.6801 C   0  0  0  0  0  0  0  0  0  0  0  0
    9.3903   -1.8489    2.6771 C   0  0  0  0  0  0  0  0  0  0  0  0
    8.0751   -2.2914    2.6579 C   0  0  0  0  0  0  0  0  0  0  0  0
    7.0167   -1.3807    2.6319 C   0  0  0  0  0  0  0  0  0  0  0  0
    7.3133   -0.0050    2.6294 C   0  0  0  0  0  0  0  0  0  0  0  0
    0.6677    2.7319    3.5675 H   0  0  0  0  0  0  0  0  0  0  0  0
    0.6240    1.1493    2.7621 H   0  0  0  0  0  0  0  0  0  0  0  0
    0.4993    2.6598    1.8004 H   0  0  0  0  0  0  0  0  0  0  0  0
    2.4315    1.9799    0.5136 H   0  0  0  0  0  0  0  0  0  0  0  0
    2.5503    0.4840    1.4729 H   0  0  0  0  0  0  0  0  0  0  0  0
    4.6652    2.6915    1.2576 H   0  0  0  0  0  0  0  0  0  0  0  0
    4.7547    1.1082    0.4815 H   0  0  0  0  0  0  0  0  0  0  0  0
    4.7053    0.0410    2.7824 H   0  0  0  0  0  0  0  0  0  0  0  0
    4.7285    1.6367    3.5250 H   0  0  0  0  0  0  0  0  0  0  0  0
    6.7498    3.2082    2.6487 H   0  0  0  0  0  0  0  0  0  0  0  0
    8.4548    4.4967    2.5365 H   0  0  0  0  0  0  0  0  0  0  0  0
    9.1272    6.4100    5.0174 H   0  0  0  0  0  0  0  0  0  0  0  0
    8.4355    6.6650    3.4202 H   0  0  0  0  0  0  0  0  0  0  0  0
    9.9328    7.4989    3.8710 H   0  0  0  0  0  0  0  0  0  0  0  0
   11.0581    5.1401    5.4298 H   0  0  0  0  0  0  0  0  0  0  0  0
   12.1442    5.9072    4.2668 H   0  0  0  0  0  0  0  0  0  0  0  0
   11.8674    4.1610    4.2194 H   0  0  0  0  0  0  0  0  0  0  0  0
   12.4485    4.3953    2.1657 H   0  0  0  0  0  0  0  0  0  0  0  0
   12.3677    5.8875    1.2478 H   0  0  0  0  0  0  0  0  0  0  0  0
   11.8075    4.3728    0.5225 H   0  0  0  0  0  0  0  0  0  0  0  0
    8.6660    6.3270    1.1871 H   0  0  0  0  0  0  0  0  0  0  0  0
    9.7466    5.7119   -0.0573 H   0  0  0  0  0  0  0  0  0  0  0  0
   10.2078    7.1474    0.8806 H   0  0  0  0  0  0  0  0  0  0  0  0
   10.7141   -0.1512    2.7046 H   0  0  0  0  0  0  0  0  0  0  0  0
   10.2057   -2.5686    2.6960 H   0  0  0  0  0  0  0  0  0  0  0  0
    7.8652   -3.3591    2.6650 H   0  0  0  0  0  0  0  0  0  0  0  0
    5.9946   -1.7455    2.6224 H   0  0  0  0  0  0  0  0  0  0  0  0
  1  2  1  0  0  0  0
  1 24  1  0  0  0  0
  1 25  1  0  0  0  0
  1 26  1  0  0  0  0
  2  3  1  0  0  0  0
  3  4  1  0  0  0  0
  3 27  1  0  0  0  0
  3 28  1  0  0  0  0
  4  5  1  0  0  0  0
  4 29  1  0  0  0  0
  4 30  1  0  0  0  0
  5  6  1  0  0  0  0
  5 31  1  0  0  0  0
  5 32  1  0  0  0  0
  6 23  1  0  0  0  0
  6  7  1  0  0  0  0
  7  8  2  0  0  0  0
  7 33  1  0  0  0  0
  8  9  1  0  0  0  0
  8 18  1  0  0  0  0
  9 10  2  0  0  0  0
  9 11  1  0  0  0  0
 11 15  1  0  0  0  0
 11 12  1  0  0  0  0
 11 34  1  0  0  0  0
 12 13  1  0  0  0  0
 12 14  1  0  0  0  0
 12 15  1  0  0  0  0
 13 35  1  0  0  0  0
 13 36  1  0  0  0  0
 13 37  1  0  0  0  0
 14 38  1  0  0  0  0
 14 39  1  0  0  0  0
 14 40  1  0  0  0  0
 15 16  1  0  0  0  0
 15 17  1  0  0  0  0
 16 41  1  0  0  0  0
 16 42  1  0  0  0  0
 16 43  1  0  0  0  0
 17 44  1  0  0  0  0
 17 45  1  0  0  0  0
 17 46  1  0  0  0  0
 18 23  2  0  0  0  0
 18 19  1  0  0  0  0
 19 20  2  0  0  0  0
 19 47  1  0  0  0  0
 20 21  1  0  0  0  0
 20 48  1  0  0  0  0
 21 22  2  0  0  0  0
 21 49  1  0  0  0  0
 22 23  1  0  0  0  0
 22 50  1  0  0  0  0
M  END
$$$$
CHEMBL570690
 OpenBabel12022418093D

 47 49  0  0  0  0  0  0  0  0999 V2000
    2.4333    2.0804   -1.3038 C   0  0  0  0  0  0  0  0  0  0  0  0
    3.1003    1.0364   -0.6009 O   0  0  0  0  0  0  0  0  0  0  0  0
    3.6091    0.0553   -1.5055 C   0  0  0  0  0  0  0  0  0  0  0  0
    4.3866   -1.0115   -0.7363 C   0  0  0  0  0  0  0  0  0  0  0  0
    4.9150   -2.0305   -1.6318 N   0  0  0  0  0  0  0  0  0  0  0  0
    5.7429   -1.7448   -2.6882 C   0  0  0  0  0  0  0  0  0  0  0  0
    5.8200   -2.8582   -3.5062 C   0  0  0  0  0  0  0  0  0  0  0  0
    6.4795   -2.9493   -4.8125 C   0  0  0  0  0  0  0  0  0  0  0  0
    6.4482   -3.9760   -5.4836 O   0  0  0  0  0  0  0  0  0  0  0  0
    7.1444   -1.6929   -5.3237 C   0  0  0  0  0  0  0  0  0  0  0  0
    8.0101   -1.5811   -6.5871 C   0  0  0  0  0  0  0  0  0  0  0  0
    9.1913   -0.6279   -6.5598 C   0  0  0  0  0  0  0  0  0  0  0  0
    8.3206   -2.8196   -7.4073 C   0  0  0  0  0  0  0  0  0  0  0  0
    6.5880   -0.9761   -6.5519 C   0  0  0  0  0  0  0  0  0  0  0  0
    5.4784   -1.6074   -7.3673 C   0  0  0  0  0  0  0  0  0  0  0  0
    6.4018    0.5250   -6.4487 C   0  0  0  0  0  0  0  0  0  0  0  0
    5.1229   -3.9089   -2.8069 C   0  0  0  0  0  0  0  0  0  0  0  0
    4.8789   -5.2746   -3.0808 C   0  0  0  0  0  0  0  0  0  0  0  0
    4.1751   -6.0636   -2.1639 C   0  0  0  0  0  0  0  0  0  0  0  0
    3.7044   -5.5113   -0.9791 C   0  0  0  0  0  0  0  0  0  0  0  0
    3.9026   -4.1576   -0.6911 C   0  0  0  0  0  0  0  0  0  0  0  0
    4.6068   -3.3711   -1.6198 C   0  0  0  0  0  0  0  0  0  0  0  0
    2.0502    2.7984   -0.5748 H   0  0  0  0  0  0  0  0  0  0  0  0
    1.5921    1.6799   -1.8794 H   0  0  0  0  0  0  0  0  0  0  0  0
    3.1302    2.5978   -1.9707 H   0  0  0  0  0  0  0  0  0  0  0  0
    4.2616    0.5542   -2.2320 H   0  0  0  0  0  0  0  0  0  0  0  0
    2.7761   -0.4035   -2.0518 H   0  0  0  0  0  0  0  0  0  0  0  0
    3.7366   -1.4798    0.0092 H   0  0  0  0  0  0  0  0  0  0  0  0
    5.2327   -0.5749   -0.1940 H   0  0  0  0  0  0  0  0  0  0  0  0
    6.1500   -0.7499   -2.8020 H   0  0  0  0  0  0  0  0  0  0  0  0
    7.5142   -1.0703   -4.5128 H   0  0  0  0  0  0  0  0  0  0  0  0
   10.1118   -1.1637   -6.3047 H   0  0  0  0  0  0  0  0  0  0  0  0
    9.0825    0.1754   -5.8263 H   0  0  0  0  0  0  0  0  0  0  0  0
    9.3218   -0.1721   -7.5477 H   0  0  0  0  0  0  0  0  0  0  0  0
    9.3169   -2.7462   -7.8598 H   0  0  0  0  0  0  0  0  0  0  0  0
    7.6191   -2.9604   -8.2324 H   0  0  0  0  0  0  0  0  0  0  0  0
    8.3499   -3.7226   -6.7939 H   0  0  0  0  0  0  0  0  0  0  0  0
    5.5386   -2.6960   -7.4312 H   0  0  0  0  0  0  0  0  0  0  0  0
    5.5002   -1.2146   -8.3900 H   0  0  0  0  0  0  0  0  0  0  0  0
    4.5041   -1.3586   -6.9318 H   0  0  0  0  0  0  0  0  0  0  0  0
    7.1181    1.0060   -5.7776 H   0  0  0  0  0  0  0  0  0  0  0  0
    5.4036    0.7564   -6.0608 H   0  0  0  0  0  0  0  0  0  0  0  0
    6.4989    0.9855   -7.4378 H   0  0  0  0  0  0  0  0  0  0  0  0
    5.2485   -5.7213   -4.0006 H   0  0  0  0  0  0  0  0  0  0  0  0
    4.0062   -7.1166   -2.3782 H   0  0  0  0  0  0  0  0  0  0  0  0
    3.1709   -6.1377   -0.2676 H   0  0  0  0  0  0  0  0  0  0  0  0
    3.5250   -3.7422    0.2380 H   0  0  0  0  0  0  0  0  0  0  0  0
  1  2  1  0  0  0  0
  1 23  1  0  0  0  0
  1 24  1  0  0  0  0
  1 25  1  0  0  0  0
  2  3  1  0  0  0  0
  3  4  1  0  0  0  0
  3 26  1  0  0  0  0
  3 27  1  0  0  0  0
  4  5  1  0  0  0  0
  4 28  1  0  0  0  0
  4 29  1  0  0  0  0
  5 22  1  0  0  0  0
  5  6  1  0  0  0  0
  6  7  2  0  0  0  0
  6 30  1  0  0  0  0
  7  8  1  0  0  0  0
  7 17  1  0  0  0  0
  8  9  2  0  0  0  0
  8 10  1  0  0  0  0
 10 14  1  0  0  0  0
 10 11  1  0  0  0  0
 10 31  1  0  0  0  0
 11 12  1  0  0  0  0
 11 13  1  0  0  0  0
 11 14  1  0  0  0  0
 12 32  1  0  0  0  0
 12 33  1  0  0  0  0
 12 34  1  0  0  0  0
 13 35  1  0  0  0  0
 13 36  1  0  0  0  0
 13 37  1  0  0  0  0
 14 15  1  0  0  0  0
 14 16  1  0  0  0  0
 15 38  1  0  0  0  0
 15 39  1  0  0  0  0
 15 40  1  0  0  0  0
 16 41  1  0  0  0  0
 16 42  1  0  0  0  0
 16 43  1  0  0  0  0
 17 22  2  0  0  0  0
 17 18  1  0  0  0  0
 18 19  2  0  0  0  0
 18 44  1  0  0  0  0
 19 20  1  0  0  0  0
 19 45  1  0  0  0  0
 20 21  2  0  0  0  0
 20 46  1  0  0  0  0
 21 22  1  0  0  0  0
 21 47  1  0  0  0  0
M  END
$$$$
CHEMBL248015
 OpenBabel12022418093D

 53 54  0  0  0  0  0  0  0  0999 V2000
    4.4137   -1.6957   -2.7961 C   0  0  0  0  0  0  0  0  0  0  0  0
    4.1486   -0.9237   -1.5203 C   0  0  0  0  0  0  0  0  0  0  0  0
    4.7315   -1.6261   -0.4221 O   0  0  0  0  0  0  0  0  0  0  0  0
    4.5701   -0.9005    0.7992 C   0  0  0  0  0  0  0  0  0  0  0  0
    5.2285   -1.6300    1.9803 C   0  0  0  0  0  0  0  0  0  0  0  0
    6.6812   -1.7884    1.8237 N   0  0  0  0  0  0  0  0  0  0  0  0
    7.6417   -0.7310    1.8836 C   0  0  0  0  0  0  0  0  0  0  0  0
    7.2229    0.6865    2.1494 C   0  0  0  0  0  0  0  0  0  0  0  0
    8.9362   -1.1408    1.7903 C   0  0  0  0  0  0  0  0  0  0  0  0
   10.2859   -0.4117    1.9359 C   0  0  0  0  0  0  0  0  0  0  0  0
   10.7396   -0.5176    3.4078 C   0  0  0  0  0  0  0  0  0  0  0  0
   11.3883   -1.0549    1.0491 C   0  0  0  0  0  0  0  0  0  0  0  0
   10.2632    1.0792    1.5463 C   0  0  0  0  0  0  0  0  0  0  0  0
    8.9758   -2.8866    1.5271 S   0  0  0  0  0  0  0  0  0  0  0  0
    7.2490   -3.0715    1.8851 C   0  0  0  0  0  0  0  0  0  0  0  0
    6.6763   -4.1960    2.1805 N   0  0  0  0  0  0  0  0  0  0  0  0
    7.4915   -5.2671    2.5013 C   0  0  0  0  0  0  0  0  0  0  0  0
    8.4862   -5.1847    3.2212 O   0  0  0  0  0  0  0  0  0  0  0  0
    7.0770   -6.6405    2.0914 C   0  0  0  0  0  0  0  0  0  0  0  0
    7.9477   -7.7044    2.3959 C   0  0  0  0  0  0  0  0  0  0  0  0
    7.6021   -9.0226    2.1081 C   0  0  0  0  0  0  0  0  0  0  0  0
    6.3802   -9.2955    1.5036 C   0  0  0  0  0  0  0  0  0  0  0  0
    5.4986   -8.2512    1.1715 C   0  0  0  0  0  0  0  0  0  0  0  0
    4.1745   -8.5570    0.5160 C   0  0  0  0  0  0  0  0  0  0  0  0
    3.9918   -9.8826    0.2491 F   0  0  0  0  0  0  0  0  0  0  0  0
    3.1161   -8.1846    1.2833 F   0  0  0  0  0  0  0  0  0  0  0  0
    4.0233   -7.9156   -0.6758 F   0  0  0  0  0  0  0  0  0  0  0  0
    5.8551   -6.9181    1.4715 C   0  0  0  0  0  0  0  0  0  0  0  0
    3.9572   -1.1939   -3.6548 H   0  0  0  0  0  0  0  0  0  0  0  0
    4.0125   -2.7113   -2.7248 H   0  0  0  0  0  0  0  0  0  0  0  0
    5.4902   -1.7872   -2.9744 H   0  0  0  0  0  0  0  0  0  0  0  0
    3.0691   -0.8288   -1.3597 H   0  0  0  0  0  0  0  0  0  0  0  0
    4.5873    0.0776   -1.5994 H   0  0  0  0  0  0  0  0  0  0  0  0
    3.4971   -0.8020    1.0058 H   0  0  0  0  0  0  0  0  0  0  0  0
    4.9803    0.1057    0.6735 H   0  0  0  0  0  0  0  0  0  0  0  0
    4.7456   -2.6098    2.0729 H   0  0  0  0  0  0  0  0  0  0  0  0
    5.0145   -1.0940    2.9121 H   0  0  0  0  0  0  0  0  0  0  0  0
    6.1624    0.7933    2.3856 H   0  0  0  0  0  0  0  0  0  0  0  0
    7.4205    1.3114    1.2725 H   0  0  0  0  0  0  0  0  0  0  0  0
    7.7498    1.0950    3.0164 H   0  0  0  0  0  0  0  0  0  0  0  0
   10.8774   -1.5613    3.7170 H   0  0  0  0  0  0  0  0  0  0  0  0
   10.0076   -0.0655    4.0872 H   0  0  0  0  0  0  0  0  0  0  0  0
   11.6965   -0.0054    3.5657 H   0  0  0  0  0  0  0  0  0  0  0  0
   11.6233   -2.0811    1.3552 H   0  0  0  0  0  0  0  0  0  0  0  0
   12.3305   -0.5001    1.1183 H   0  0  0  0  0  0  0  0  0  0  0  0
   11.0870   -1.0721   -0.0041 H   0  0  0  0  0  0  0  0  0  0  0  0
    9.6620    1.6846    2.2283 H   0  0  0  0  0  0  0  0  0  0  0  0
    9.8912    1.2181    0.5259 H   0  0  0  0  0  0  0  0  0  0  0  0
   11.2738    1.5058    1.5877 H   0  0  0  0  0  0  0  0  0  0  0  0
    8.9052   -7.5058    2.8771 H   0  0  0  0  0  0  0  0  0  0  0  0
    8.2843   -9.8313    2.3618 H   0  0  0  0  0  0  0  0  0  0  0  0
    6.1136  -10.3307    1.2879 H   0  0  0  0  0  0  0  0  0  0  0  0
    5.1679   -6.1068    1.2336 H   0  0  0  0  0  0  0  0  0  0  0  0
  1  2  1  0  0  0  0
  1 29  1  0  0  0  0
  1 30  1  0  0  0  0
  1 31  1  0  0  0  0
  2  3  1  0  0  0  0
  2 32  1  0  0  0  0
  2 33  1  0  0  0  0
  3  4  1  0  0  0  0
  4  5  1  0  0  0  0
  4 34  1  0  0  0  0
  4 35  1  0  0  0  0
  5  6  1  0  0  0  0
  5 36  1  0  0  0  0
  5 37  1  0  0  0  0
  6 15  1  0  0  0  0
  6  7  1  0  0  0  0
  7  8  1  0  0  0  0
  7  9  2  0  0  0  0
  8 38  1  0  0  0  0
  8 39  1  0  0  0  0
  8 40  1  0  0  0  0
  9 10  1  0  0  0  0
  9 14  1  0  0  0  0
 10 11  1  0  0  0  0
 10 12  1  0  0  0  0
 10 13  1  0  0  0  0
 11 41  1  0  0  0  0
 11 42  1  0  0  0  0
 11 43  1  0  0  0  0
 12 44  1  0  0  0  0
 12 45  1  0  0  0  0
 12 46  1  0  0  0  0
 13 47  1  0  0  0  0
 13 48  1  0  0  0  0
 13 49  1  0  0  0  0
 14 15  1  0  0  0  0
 15 16  2  0  0  0  0
 16 17  1  0  0  0  0
 17 18  2  0  0  0  0
 17 19  1  0  0  0  0
 19 28  2  0  0  0  0
 19 20  1  0  0  0  0
 20 21  2  0  0  0  0
 20 50  1  0  0  0  0
 21 22  1  0  0  0  0
 21 51  1  0  0  0  0
 22 23  2  0  0  0  0
 22 52  1  0  0  0  0
 23 24  1  0  0  0  0
 23 28  1  0  0  0  0
 24 25  1  0  0  0  0
 24 26  1  0  0  0  0
 24 27  1  0  0  0  0
 28 53  1  0  0  0  0
M  END
$$$$
CHEMBL4519981
 OpenBabel12022418093D

 53 57  0  0  1  0  0  0  0  0999 V2000
   -1.1972   -1.5354    0.5591 C   0  0  0  0  0  0  0  0  0  0  0  0
   -2.2819   -0.8752   -0.0548 C   0  0  0  0  0  0  0  0  0  0  0  0
   -2.0284    0.3277   -0.7260 C   0  0  0  0  0  0  0  0  0  0  0  0
   -0.7513    0.8697   -0.7086 C   0  0  0  0  0  0  0  0  0  0  0  0
    0.3183    0.2423   -0.0798 C   0  0  0  0  0  0  0  0  0  0  0  0
    0.0968   -0.9759    0.5632 C   0  0  0  0  0  0  0  0  0  0  0  0
    1.5178    0.9817   -0.1780 N   0  0  0  0  0  0  0  0  0  0  0  0
    1.3892    2.2121   -0.8217 C   0  0  0  0  0  0  0  0  0  0  0  0
    2.2527    3.0595   -0.9867 O   0  0  0  0  0  0  0  0  0  0  0  0
   -0.2724    2.4285   -1.3886 S   0  0  0  0  0  0  0  0  0  0  0  0
    2.7755    0.6159    0.4442 C   0  0  0  0  0  0  0  0  0  0  0  0
    3.4414   -0.6594   -0.0754 C   0  0  0  0  0  0  0  0  0  0  0  0
    3.7033   -0.6758   -1.5814 C   0  0  0  0  0  0  0  0  0  0  0  0
    4.3727   -1.9850   -1.9818 C   0  0  0  0  0  0  0  0  0  0  0  0
   -3.6750   -1.4605    0.0909 C   0  0  0  0  0  0  0  0  0  0  0  0
   -3.7706   -2.6803    0.2253 O   0  0  0  0  0  0  0  0  0  0  0  0
   -4.9218   -0.5428    0.0656 C   0  0  1  0  0  0  0  0  0  0  0  0
   -4.6725    0.7122    0.9446 C   0  0  0  0  0  0  0  0  0  0  0  0
   -5.8145    1.7167    0.8062 C   0  0  1  0  0  0  0  0  0  0  0  0
   -6.0062    2.0525   -0.6828 C   0  0  0  0  0  0  0  0  0  0  0  0
   -6.4275    0.8006   -1.4699 C   0  0  1  0  0  0  0  0  0  0  0  0
   -5.2991   -0.2342   -1.4049 C   0  0  0  0  0  0  0  0  0  0  0  0
   -7.6904    0.1904   -0.8444 C   0  0  0  0  0  0  0  0  0  0  0  0
   -7.4059   -0.2114    0.6132 C   0  0  2  0  0  0  0  0  0  0  0  0
   -7.0777    1.0755    1.3886 C   0  0  0  0  0  0  0  0  0  0  0  0
   -6.2050   -1.2025    0.6710 C   0  0  0  0  0  0  0  0  0  0  0  0
   -1.3684   -2.4833    1.0698 H   0  0  0  0  0  0  0  0  0  0  0  0
   -2.8015    0.8984   -1.2228 H   0  0  0  0  0  0  0  0  0  0  0  0
    0.8862   -1.4998    1.0870 H   0  0  0  0  0  0  0  0  0  0  0  0
    2.6031    0.5342    1.5238 H   0  0  0  0  0  0  0  0  0  0  0  0
    3.4867    1.4420    0.3176 H   0  0  0  0  0  0  0  0  0  0  0  0
    2.8452   -1.5358    0.1897 H   0  0  0  0  0  0  0  0  0  0  0  0
    4.3978   -0.7727    0.4504 H   0  0  0  0  0  0  0  0  0  0  0  0
    4.3471    0.1641   -1.8658 H   0  0  0  0  0  0  0  0  0  0  0  0
    2.7643   -0.5735   -2.1364 H   0  0  0  0  0  0  0  0  0  0  0  0
    5.3370   -2.1016   -1.4759 H   0  0  0  0  0  0  0  0  0  0  0  0
    4.5477   -2.0166   -3.0610 H   0  0  0  0  0  0  0  0  0  0  0  0
    3.7442   -2.8414   -1.7144 H   0  0  0  0  0  0  0  0  0  0  0  0
   -3.7484    1.2378    0.7155 H   0  0  0  0  0  0  0  0  0  0  0  0
   -4.5663    0.4040    1.9943 H   0  0  0  0  0  0  0  0  0  0  0  0
   -5.5674    2.6274    1.3630 H   0  0  0  0  0  0  0  0  0  0  0  0
   -5.0713    2.4523   -1.0981 H   0  0  0  0  0  0  0  0  0  0  0  0
   -6.7642    2.8357   -0.7929 H   0  0  0  0  0  0  0  0  0  0  0  0
   -6.6237    1.0657   -2.5152 H   0  0  0  0  0  0  0  0  0  0  0  0
   -5.6214   -1.1604   -1.9041 H   0  0  0  0  0  0  0  0  0  0  0  0
   -4.4539    0.1127   -1.9993 H   0  0  0  0  0  0  0  0  0  0  0  0
   -8.0160   -0.6839   -1.4195 H   0  0  0  0  0  0  0  0  0  0  0  0
   -8.5103    0.9195   -0.8839 H   0  0  0  0  0  0  0  0  0  0  0  0
   -8.2971   -0.6794    1.0458 H   0  0  0  0  0  0  0  0  0  0  0  0
   -7.9123    1.7850    1.3294 H   0  0  0  0  0  0  0  0  0  0  0  0
   -6.9298    0.8468    2.4510 H   0  0  0  0  0  0  0  0  0  0  0  0
   -6.0273   -1.5082    1.7102 H   0  0  0  0  0  0  0  0  0  0  0  0
   -6.4656   -2.1187    0.1242 H   0  0  0  0  0  0  0  0  0  0  0  0
  1  6  2  0  0  0  0
  1  2  1  0  0  0  0
  1 27  1  0  0  0  0
  2  3  2  0  0  0  0
  2 15  1  0  0  0  0
  3  4  1  0  0  0  0
  3 28  1  0  0  0  0
  4 10  1  0  0  0  0
  4  5  2  0  0  0  0
  5  6  1  0  0  0  0
  5  7  1  0  0  0  0
  6 29  1  0  0  0  0
  7  8  1  0  0  0  0
  7 11  1  0  0  0  0
  8  9  2  0  0  0  0
  8 10  1  0  0  0  0
 11 12  1  0  0  0  0
 11 30  1  0  0  0  0
 11 31  1  0  0  0  0
 12 13  1  0  0  0  0
 12 32  1  0  0  0  0
 12 33  1  0  0  0  0
 13 14  1  0  0  0  0
 13 34  1  0  0  0  0
 13 35  1  0  0  0  0
 14 36  1  0  0  0  0
 14 37  1  0  0  0  0
 14 38  1  0  0  0  0
 15 16  2  0  0  0  0
 17 15  1  1  0  0  0
 17 22  1  0  0  0  0
 17 26  1  0  0  0  0
 17 18  1  0  0  0  0
 18 39  1  0  0  0  0
 18 40  1  0  0  0  0
 19 18  1  0  0  0  0
 19 20  1  0  0  0  0
 19 25  1  0  0  0  0
 19 41  1  1  0  0  0
 20 42  1  0  0  0  0
 20 43  1  0  0  0  0
 21 20  1  0  0  0  0
 21 22  1  0  0  0  0
 21 23  1  0  0  0  0
 21 44  1  6  0  0  0
 22 45  1  0  0  0  0
 22 46  1  0  0  0  0
 23 47  1  0  0  0  0
 23 48  1  0  0  0  0
 24 23  1  0  0  0  0
 24 25  1  0  0  0  0
 24 26  1  0  0  0  0
 24 49  1  1  0  0  0
 25 50  1  0  0  0  0
 25 51  1  0  0  0  0
 26 52  1  0  0  0  0
 26 53  1  0  0  0  0
M  END
$$$$
CHEMBL2152818
 OpenBabel12022418093D

 72 76  0  0  1  0  0  0  0  0999 V2000
    2.3256    4.0588    4.2634 C   0  0  0  0  0  0  0  0  0  0  0  0
    1.8458    2.6486    4.6739 C   0  0  0  0  0  0  0  0  0  0  0  0
    2.3412    2.4367    6.1168 C   0  0  0  0  0  0  0  0  0  0  0  0
    0.2931    2.5330    4.5431 C   0  0  2  0  0  0  0  0  0  0  0  0
   -0.2298    1.2101    5.1400 C   0  0  0  0  0  0  0  0  0  0  0  0
    0.2952    0.1506    4.1639 C   0  0  0  0  0  0  0  0  0  0  0  0
    0.9877    0.9971    3.0714 C   0  0  1  0  0  0  0  0  0  0  0  0
    1.0762    0.2901    1.7317 C   0  0  0  0  0  0  0  0  0  0  0  0
    0.0971    2.2459    3.0493 C   0  0  0  0  0  0  0  0  0  0  0  0
    2.3262    1.5969    3.6082 C   0  0  2  0  0  0  0  0  0  0  0  0
    3.2421    0.6031    4.1197 N   0  0  0  0  0  0  0  0  0  0  0  0
    4.2149   -0.0034    3.3721 C   0  0  0  0  0  0  0  0  0  0  0  0
    4.4132    0.2384    2.1823 O   0  0  0  0  0  0  0  0  0  0  0  0
    5.0324   -1.0024    4.1086 C   0  0  0  0  0  0  0  0  0  0  0  0
    6.0111   -1.6826    3.4918 C   0  0  0  0  0  0  0  0  0  0  0  0
    6.8135   -2.6799    4.0473 N   0  0  0  0  0  0  0  0  0  0  0  0
    7.8140   -3.4195    3.2514 C   0  0  0  0  0  0  0  0  0  0  0  0
    7.2666   -4.7266    2.6682 C   0  0  0  0  0  0  0  0  0  0  0  0
    6.1139   -4.5335    1.6804 C   0  0  0  0  0  0  0  0  0  0  0  0
    5.6400   -5.8750    1.1346 C   0  0  0  0  0  0  0  0  0  0  0  0
    6.6959   -6.5344    0.4486 O   0  0  0  0  0  0  0  0  0  0  0  0
    6.5744   -3.0670    5.3883 C   0  0  0  0  0  0  0  0  0  0  0  0
    7.2605   -4.1032    6.0389 C   0  0  0  0  0  0  0  0  0  0  0  0
    6.9414   -4.4984    7.3476 C   0  0  0  0  0  0  0  0  0  0  0  0
    5.9251   -3.8369    8.0417 C   0  0  0  0  0  0  0  0  0  0  0  0
    5.2654   -2.7773    7.4488 C   0  0  0  0  0  0  0  0  0  0  0  0
    5.5819   -2.4064    6.1366 C   0  0  0  0  0  0  0  0  0  0  0  0
    4.8039   -1.3149    5.5374 C   0  0  0  0  0  0  0  0  0  0  0  0
    3.9754   -0.7071    6.2114 O   0  0  0  0  0  0  0  0  0  0  0  0
    7.7643   -5.9164    8.0492 S   0  0  0  0  0  0  0  0  0  0  0  0
    9.1694   -5.1807    8.8664 C   0  0  0  0  0  0  0  0  0  0  0  0
   10.4694   -5.5917    8.5430 C   0  0  0  0  0  0  0  0  0  0  0  0
   11.5645   -5.1064    9.2655 C   0  0  0  0  0  0  0  0  0  0  0  0
   11.3688   -4.1967   10.3028 C   0  0  0  0  0  0  0  0  0  0  0  0
   10.0814   -3.7660   10.6145 C   0  0  0  0  0  0  0  0  0  0  0  0
    8.9870   -4.2648    9.9065 C   0  0  0  0  0  0  0  0  0  0  0  0
    2.0278    4.3282    3.2462 H   0  0  0  0  0  0  0  0  0  0  0  0
    3.4194    4.1231    4.3088 H   0  0  0  0  0  0  0  0  0  0  0  0
    1.9190    4.8210    4.9381 H   0  0  0  0  0  0  0  0  0  0  0  0
    2.1123    1.4455    6.5152 H   0  0  0  0  0  0  0  0  0  0  0  0
    1.8829    3.1688    6.7925 H   0  0  0  0  0  0  0  0  0  0  0  0
    3.4281    2.5639    6.1833 H   0  0  0  0  0  0  0  0  0  0  0  0
   -0.2470    3.4086    4.9108 H   0  0  0  0  0  0  0  0  0  0  0  0
   -1.3261    1.2016    5.1333 H   0  0  0  0  0  0  0  0  0  0  0  0
    0.0809    1.0226    6.1700 H   0  0  0  0  0  0  0  0  0  0  0  0
   -0.5427   -0.4274    3.7553 H   0  0  0  0  0  0  0  0  0  0  0  0
    0.9707   -0.5596    4.6514 H   0  0  0  0  0  0  0  0  0  0  0  0
    0.0767    0.0292    1.3643 H   0  0  0  0  0  0  0  0  0  0  0  0
    1.6528   -0.6372    1.8030 H   0  0  0  0  0  0  0  0  0  0  0  0
    1.5443    0.9287    0.9753 H   0  0  0  0  0  0  0  0  0  0  0  0
    0.4690    3.0319    2.3856 H   0  0  0  0  0  0  0  0  0  0  0  0
   -0.9442    2.0279    2.7861 H   0  0  0  0  0  0  0  0  0  0  0  0
    2.8364    2.1124    2.7843 H   0  0  0  0  0  0  0  0  0  0  0  0
    3.1041    0.2682    5.0732 H   0  0  0  0  0  0  0  0  0  0  0  0
    6.2272   -1.4882    2.4384 H   0  0  0  0  0  0  0  0  0  0  0  0
    8.7011   -3.6456    3.8556 H   0  0  0  0  0  0  0  0  0  0  0  0
    8.1972   -2.7888    2.4391 H   0  0  0  0  0  0  0  0  0  0  0  0
    6.9378   -5.3979    3.4699 H   0  0  0  0  0  0  0  0  0  0  0  0
    8.0931   -5.2384    2.1579 H   0  0  0  0  0  0  0  0  0  0  0  0
    6.4482   -3.8936    0.8550 H   0  0  0  0  0  0  0  0  0  0  0  0
    5.2691   -4.0384    2.1697 H   0  0  0  0  0  0  0  0  0  0  0  0
    4.8040   -5.7419    0.4418 H   0  0  0  0  0  0  0  0  0  0  0  0
    5.3070   -6.5245    1.9504 H   0  0  0  0  0  0  0  0  0  0  0  0
    6.9579   -5.9681   -0.2972 H   0  0  0  0  0  0  0  0  0  0  0  0
    8.0477   -4.6575    5.5393 H   0  0  0  0  0  0  0  0  0  0  0  0
    5.6300   -4.1442    9.0388 H   0  0  0  0  0  0  0  0  0  0  0  0
    4.4798   -2.2479    7.9884 H   0  0  0  0  0  0  0  0  0  0  0  0
   10.6434   -6.3064    7.7415 H   0  0  0  0  0  0  0  0  0  0  0  0
   12.5694   -5.4484    9.0297 H   0  0  0  0  0  0  0  0  0  0  0  0
   12.2171   -3.8294   10.8754 H   0  0  0  0  0  0  0  0  0  0  0  0
    9.9240   -3.0546   11.4206 H   0  0  0  0  0  0  0  0  0  0  0  0
    7.9888   -3.9463   10.1915 H   0  0  0  0  0  0  0  0  0  0  0  0
  1  2  1  0  0  0  0
  1 37  1  0  0  0  0
  1 38  1  0  0  0  0
  1 39  1  0  0  0  0
  2 10  1  0  0  0  0
  2  4  1  0  0  0  0
  2  3  1  0  0  0  0
  3 40  1  0  0  0  0
  3 41  1  0  0  0  0
  3 42  1  0  0  0  0
  4  5  1  0  0  0  0
  4  9  1  0  0  0  0
  4 43  1  1  0  0  0
  5  6  1  0  0  0  0
  5 44  1  0  0  0  0
  5 45  1  0  0  0  0
  6  7  1  0  0  0  0
  6 46  1  0  0  0  0
  6 47  1  0  0  0  0
  7  9  1  0  0  0  0
  7 10  1  0  0  0  0
  7  8  1  6  0  0  0
  8 48  1  0  0  0  0
  8 49  1  0  0  0  0
  8 50  1  0  0  0  0
  9 51  1  0  0  0  0
  9 52  1  0  0  0  0
 10 11  1  0  0  0  0
 10 53  1  6  0  0  0
 11 12  1  0  0  0  0
 11 54  1  0  0  0  0
 12 13  2  0  0  0  0
 12 14  1  0  0  0  0
 14 28  1  0  0  0  0
 14 15  2  0  0  0  0
 15 16  1  0  0  0  0
 15 55  1  0  0  0  0
 16 17  1  0  0  0  0
 16 22  1  0  0  0  0
 17 18  1  0  0  0  0
 17 56  1  0  0  0  0
 17 57  1  0  0  0  0
 18 19  1  0  0  0  0
 18 58  1  0  0  0  0
 18 59  1  0  0  0  0
 19 20  1  0  0  0  0
 19 60  1  0  0  0  0
 19 61  1  0  0  0  0
 20 21  1  0  0  0  0
 20 62  1  0  0  0  0
 20 63  1  0  0  0  0
 21 64  1  0  0  0  0
 22 27  2  0  0  0  0
 22 23  1  0  0  0  0
 23 24  2  0  0  0  0
 23 65  1  0  0  0  0
 24 25  1  0  0  0  0
 24 30  1  0  0  0  0
 25 26  2  0  0  0  0
 25 66  1  0  0  0  0
 26 27  1  0  0  0  0
 26 67  1  0  0  0  0
 27 28  1  0  0  0  0
 28 29  2  0  0  0  0
 30 31  1  0  0  0  0
 31 36  2  0  0  0  0
 31 32  1  0  0  0  0
 32 33  2  0  0  0  0
 32 68  1  0  0  0  0
 33 34  1  0  0  0  0
 33 69  1  0  0  0  0
 34 35  2  0  0  0  0
 34 70  1  0  0  0  0
 35 36  1  0  0  0  0
 35 71  1  0  0  0  0
 36 72  1  0  0  0  0
M  END
$$$$
CHEMBL259253
 OpenBabel12022418093D

 55 58  0  0  0  0  0  0  0  0999 V2000
    1.4138    1.2743   -3.1104 C   0  0  0  0  0  0  0  0  0  0  0  0
    0.7732    0.6658   -1.8760 C   0  0  0  0  0  0  0  0  0  0  0  0
   -0.7398    0.8025   -1.8952 C   0  0  0  0  0  0  0  0  0  0  0  0
    1.3511   -0.6496   -1.3474 C   0  0  0  0  0  0  0  0  0  0  0  0
    2.5016   -1.3604   -2.0084 C   0  0  0  0  0  0  0  0  0  0  0  0
    3.3570   -0.7461   -2.6289 O   0  0  0  0  0  0  0  0  0  0  0  0
    2.4926   -2.8168   -1.9873 C   0  0  0  0  0  0  0  0  0  0  0  0
    2.9513   -3.5747   -3.0600 C   0  0  0  0  0  0  0  0  0  0  0  0
    2.8195   -4.8992   -2.7678 N   0  0  0  0  0  0  0  0  0  0  0  0
    3.2230   -5.9966   -3.6440 C   0  0  0  0  0  0  0  0  0  0  0  0
    2.1075   -6.5410   -4.5593 C   0  0  0  0  0  0  0  0  0  0  0  0
    2.5693   -7.8487   -5.2414 C   0  0  0  0  0  0  0  0  0  0  0  0
    1.7942   -8.1869   -6.5039 C   0  0  0  0  0  0  0  0  0  0  0  0
    1.7137   -7.0527   -7.3583 O   0  0  0  0  0  0  0  0  0  0  0  0
    0.9313   -6.0177   -6.7738 C   0  0  0  0  0  0  0  0  0  0  0  0
    1.6149   -5.4586   -5.5378 C   0  0  0  0  0  0  0  0  0  0  0  0
    2.2648   -5.0450   -1.5134 C   0  0  0  0  0  0  0  0  0  0  0  0
    1.9244   -6.2035   -0.7883 C   0  0  0  0  0  0  0  0  0  0  0  0
    1.3500   -6.0535    0.4724 C   0  0  0  0  0  0  0  0  0  0  0  0
    1.1555   -4.7960    1.0216 C   0  0  0  0  0  0  0  0  0  0  0  0
    1.5205   -3.6514    0.3034 C   0  0  0  0  0  0  0  0  0  0  0  0
    2.0595   -3.7646   -0.9897 C   0  0  0  0  0  0  0  0  0  0  0  0
    1.3262   -2.4255    0.8824 O   0  0  0  0  0  0  0  0  0  0  0  0
    1.5182    0.6233   -0.5225 C   0  0  0  0  0  0  0  0  0  0  0  0
    2.8560    1.3143   -0.3816 C   0  0  0  0  0  0  0  0  0  0  0  0
    0.7493    0.6919    0.7830 C   0  0  0  0  0  0  0  0  0  0  0  0
    0.8880    2.1818   -3.4182 H   0  0  0  0  0  0  0  0  0  0  0  0
    1.3829    0.5656   -3.9471 H   0  0  0  0  0  0  0  0  0  0  0  0
    2.4562    1.5628   -2.9658 H   0  0  0  0  0  0  0  0  0  0  0  0
   -1.0278    1.8245   -2.1646 H   0  0  0  0  0  0  0  0  0  0  0  0
   -1.2131    0.5884   -0.9330 H   0  0  0  0  0  0  0  0  0  0  0  0
   -1.1816    0.1167   -2.6261 H   0  0  0  0  0  0  0  0  0  0  0  0
    0.5821   -1.3425   -1.0100 H   0  0  0  0  0  0  0  0  0  0  0  0
    3.3448   -3.2255   -4.0107 H   0  0  0  0  0  0  0  0  0  0  0  0
    3.5988   -6.8009   -2.9924 H   0  0  0  0  0  0  0  0  0  0  0  0
    4.0803   -5.6475   -4.2319 H   0  0  0  0  0  0  0  0  0  0  0  0
    1.2454   -6.8108   -3.9358 H   0  0  0  0  0  0  0  0  0  0  0  0
    2.4713   -8.6846   -4.5303 H   0  0  0  0  0  0  0  0  0  0  0  0
    3.6349   -7.7972   -5.4955 H   0  0  0  0  0  0  0  0  0  0  0  0
    0.7875   -8.5575   -6.2794 H   0  0  0  0  0  0  0  0  0  0  0  0
    2.3131   -8.9807   -7.0565 H   0  0  0  0  0  0  0  0  0  0  0  0
   -0.0722   -6.3929   -6.5449 H   0  0  0  0  0  0  0  0  0  0  0  0
    0.8195   -5.2238   -7.5208 H   0  0  0  0  0  0  0  0  0  0  0  0
    2.4538   -4.8310   -5.8662 H   0  0  0  0  0  0  0  0  0  0  0  0
    0.9168   -4.7905   -5.0176 H   0  0  0  0  0  0  0  0  0  0  0  0
    2.0729   -7.1940   -1.2051 H   0  0  0  0  0  0  0  0  0  0  0  0
    1.0538   -6.9376    1.0299 H   0  0  0  0  0  0  0  0  0  0  0  0
    0.6976   -4.7082    2.0025 H   0  0  0  0  0  0  0  0  0  0  0  0
    0.8160   -2.5298    1.6918 H   0  0  0  0  0  0  0  0  0  0  0  0
    3.5076    1.2523   -1.2523 H   0  0  0  0  0  0  0  0  0  0  0  0
    3.4137    0.8921    0.4605 H   0  0  0  0  0  0  0  0  0  0  0  0
    2.6867    2.3767   -0.1752 H   0  0  0  0  0  0  0  0  0  0  0  0
   -0.1610    0.0851    0.7901 H   0  0  0  0  0  0  0  0  0  0  0  0
    0.4747    1.7302    0.9959 H   0  0  0  0  0  0  0  0  0  0  0  0
    1.3712    0.3296    1.6082 H   0  0  0  0  0  0  0  0  0  0  0  0
  1  2  1  0  0  0  0
  1 27  1  0  0  0  0
  1 28  1  0  0  0  0
  1 29  1  0  0  0  0
  2 24  1  0  0  0  0
  2  3  1  0  0  0  0
  2  4  1  0  0  0  0
  3 30  1  0  0  0  0
  3 31  1  0  0  0  0
  3 32  1  0  0  0  0
  4  5  1  0  0  0  0
  4 24  1  0  0  0  0
  4 33  1  0  0  0  0
  5  6  2  0  0  0  0
  5  7  1  0  0  0  0
  7 22  1  0  0  0  0
  7  8  2  0  0  0  0
  8  9  1  0  0  0  0
  8 34  1  0  0  0  0
  9 10  1  0  0  0  0
  9 17  1  0  0  0  0
 10 11  1  0  0  0  0
 10 35  1  0  0  0  0
 10 36  1  0  0  0  0
 11 16  1  0  0  0  0
 11 12  1  0  0  0  0
 11 37  1  0  0  0  0
 12 13  1  0  0  0  0
 12 38  1  0  0  0  0
 12 39  1  0  0  0  0
 13 14  1  0  0  0  0
 13 40  1  0  0  0  0
 13 41  1  0  0  0  0
 14 15  1  0  0  0  0
 15 16  1  0  0  0  0
 15 42  1  0  0  0  0
 15 43  1  0  0  0  0
 16 44  1  0  0  0  0
 16 45  1  0  0  0  0
 17 22  2  0  0  0  0
 17 18  1  0  0  0  0
 18 19  2  0  0  0  0
 18 46  1  0  0  0  0
 19 20  1  0  0  0  0
 19 47  1  0  0  0  0
 20 21  2  0  0  0  0
 20 48  1  0  0  0  0
 21 22  1  0  0  0  0
 21 23  1  0  0  0  0
 23 49  1  0  0  0  0
 24 25  1  0  0  0  0
 24 26  1  0  0  0  0
 25 50  1  0  0  0  0
 25 51  1  0  0  0  0
 25 52  1  0  0  0  0
 26 53  1  0  0  0  0
 26 54  1  0  0  0  0
 26 55  1  0  0  0  0
M  END
$$$$
CHEMBL3586106
 OpenBabel12022418093D

 54 56  0  0  1  0  0  0  0  0999 V2000
    5.2882    1.4291    1.4058 C   0  0  0  0  0  0  0  0  0  0  0  0
    4.7439    0.0091    1.3385 C   0  0  0  0  0  0  0  0  0  0  0  0
    5.1698   -0.7124    0.0555 C   0  0  0  0  0  0  0  0  0  0  0  0
    4.7026   -2.1775    0.0561 C   0  0  0  0  0  0  0  0  0  0  0  0
    5.0723   -2.9820   -1.2025 C   0  0  0  0  0  0  0  0  0  0  0  0
    6.5519   -3.0403   -1.4988 C   0  0  0  0  0  0  0  0  0  0  0  0
    6.9653   -2.3477   -2.6405 C   0  0  0  0  0  0  0  0  0  0  0  0
    8.2957   -2.0919   -2.7948 C   0  0  0  0  0  0  0  0  0  0  0  0
    9.1989   -2.4846   -1.7954 C   0  0  0  0  0  0  0  0  0  0  0  0
    8.8592   -3.3751   -0.7993 C   0  0  0  0  0  0  0  0  0  0  0  0
    7.5122   -3.6573   -0.6448 C   0  0  0  0  0  0  0  0  0  0  0  0
    9.8471   -3.9078    0.0261 O   0  0  0  0  0  0  0  0  0  0  0  0
   11.0136   -3.0408    0.3623 C   0  0  0  0  0  0  0  0  0  0  0  0
   12.1451   -3.9397    0.8994 C   0  0  0  0  0  0  0  0  0  0  0  0
   10.5061   -2.2751    1.6025 C   0  0  0  0  0  0  0  0  0  0  0  0
   11.5562   -2.2880   -0.9413 C   0  0  2  0  0  0  0  0  0  0  0  0
   12.6799   -1.1450   -1.0126 C   0  0  0  0  0  0  0  0  0  0  0  0
   12.2032    0.2884   -1.5100 C   0  0  0  0  0  0  0  0  0  0  0  0
   10.9026    0.6530   -1.4023 C   0  0  0  0  0  0  0  0  0  0  0  0
   10.0974    1.7600   -2.0091 C   0  0  0  0  0  0  0  0  0  0  0  0
   10.0830   -0.3766   -0.7320 C   0  0  2  0  0  0  0  0  0  0  0  0
   10.3792   -1.6303   -1.6008 C   0  0  2  0  0  0  0  0  0  0  0  0
    8.7344   -0.0156   -0.5384 O   0  0  0  0  0  0  0  0  0  0  0  0
    8.7509   -1.2766   -3.7897 O   0  0  0  0  0  0  0  0  0  0  0  0
    4.9509    1.9200    2.3249 H   0  0  0  0  0  0  0  0  0  0  0  0
    4.9432    2.0268    0.5564 H   0  0  0  0  0  0  0  0  0  0  0  0
    6.3832    1.4314    1.4064 H   0  0  0  0  0  0  0  0  0  0  0  0
    3.6502    0.0403    1.4002 H   0  0  0  0  0  0  0  0  0  0  0  0
    5.1033   -0.5462    2.2128 H   0  0  0  0  0  0  0  0  0  0  0  0
    6.2573   -0.6710   -0.0186 H   0  0  0  0  0  0  0  0  0  0  0  0
    4.7678   -0.1824   -0.8165 H   0  0  0  0  0  0  0  0  0  0  0  0
    3.6091   -2.1878    0.1503 H   0  0  0  0  0  0  0  0  0  0  0  0
    5.1052   -2.6845    0.9395 H   0  0  0  0  0  0  0  0  0  0  0  0
    4.5444   -2.5176   -2.0502 H   0  0  0  0  0  0  0  0  0  0  0  0
    4.6818   -4.0013   -1.1343 H   0  0  0  0  0  0  0  0  0  0  0  0
    6.2532   -1.9046   -3.3257 H   0  0  0  0  0  0  0  0  0  0  0  0
    7.1908   -4.2624    0.1911 H   0  0  0  0  0  0  0  0  0  0  0  0
   12.6361   -4.5077    0.1061 H   0  0  0  0  0  0  0  0  0  0  0  0
   11.7603   -4.6720    1.6191 H   0  0  0  0  0  0  0  0  0  0  0  0
   12.9074   -3.3342    1.4071 H   0  0  0  0  0  0  0  0  0  0  0  0
    9.5224   -1.8191    1.4454 H   0  0  0  0  0  0  0  0  0  0  0  0
   11.2160   -1.5282    1.9651 H   0  0  0  0  0  0  0  0  0  0  0  0
   10.3203   -2.9796    2.4255 H   0  0  0  0  0  0  0  0  0  0  0  0
   11.9052   -3.0940   -1.6097 H   0  0  0  0  0  0  0  0  0  0  0  0
   13.3760   -1.4734   -1.8021 H   0  0  0  0  0  0  0  0  0  0  0  0
   13.2651   -1.0643   -0.0949 H   0  0  0  0  0  0  0  0  0  0  0  0
   12.8879    0.8848   -2.1096 H   0  0  0  0  0  0  0  0  0  0  0  0
   10.6547    2.3856   -2.7032 H   0  0  0  0  0  0  0  0  0  0  0  0
    9.6505    2.3809   -1.2236 H   0  0  0  0  0  0  0  0  0  0  0  0
    9.2578    1.3235   -2.5747 H   0  0  0  0  0  0  0  0  0  0  0  0
   10.5095   -0.4053    0.2729 H   0  0  0  0  0  0  0  0  0  0  0  0
   10.7243   -1.3756   -2.6147 H   0  0  0  0  0  0  0  0  0  0  0  0
    8.2956   -0.8159   -0.2005 H   0  0  0  0  0  0  0  0  0  0  0  0
    8.0070   -1.0001   -4.3476 H   0  0  0  0  0  0  0  0  0  0  0  0
  1  2  1  0  0  0  0
  1 25  1  0  0  0  0
  1 26  1  0  0  0  0
  1 27  1  0  0  0  0
  2  3  1  0  0  0  0
  2 28  1  0  0  0  0
  2 29  1  0  0  0  0
  3  4  1  0  0  0  0
  3 30  1  0  0  0  0
  3 31  1  0  0  0  0
  4  5  1  0  0  0  0
  4 32  1  0  0  0  0
  4 33  1  0  0  0  0
  5  6  1  0  0  0  0
  5 34  1  0  0  0  0
  5 35  1  0  0  0  0
  6 11  2  0  0  0  0
  6  7  1  0  0  0  0
  7  8  2  0  0  0  0
  7 36  1  0  0  0  0
  8  9  1  0  0  0  0
  8 24  1  0  0  0  0
  9 10  2  0  0  0  0
 10 11  1  0  0  0  0
 10 12  1  0  0  0  0
 11 37  1  0  0  0  0
 12 13  1  0  0  0  0
 13 16  1  0  0  0  0
 13 14  1  0  0  0  0
 13 15  1  0  0  0  0
 14 38  1  0  0  0  0
 14 39  1  0  0  0  0
 14 40  1  0  0  0  0
 15 41  1  0  0  0  0
 15 42  1  0  0  0  0
 15 43  1  0  0  0  0
 16 17  1  0  0  0  0
 16 22  1  0  0  0  0
 16 44  1  6  0  0  0
 17 18  1  0  0  0  0
 17 45  1  0  0  0  0
 17 46  1  0  0  0  0
 18 19  2  0  0  0  0
 18 47  1  0  0  0  0
 19 21  1  0  0  0  0
 19 20  1  0  0  0  0
 20 48  1  0  0  0  0
 20 49  1  0  0  0  0
 20 50  1  0  0  0  0
 21 22  1  0  0  0  0
 21 23  1  0  0  0  0
 21 51  1  1  0  0  0
 22  9  1  0  0  0  0
 22 52  1  6  0  0  0
 23 53  1  0  0  0  0
 24 54  1  0  0  0  0
M  END
$$$$
CHEMBL3354952
 OpenBabel12022418093D

 44 47  0  0  1  0  0  0  0  0999 V2000
    1.9651   -1.8592    0.3901 C   0  0  0  0  0  0  0  0  0  0  0  0
    3.0283   -0.7602    0.1998 C   0  0  0  0  0  0  0  0  0  0  0  0
    4.1296   -1.3382   -0.7137 C   0  0  0  0  0  0  0  0  0  0  0  0
    2.3531    0.4684   -0.4798 C   0  0  0  0  0  0  0  0  0  0  0  0
    1.8003    0.1517   -1.7560 O   0  0  0  0  0  0  0  0  0  0  0  0
    3.5907   -0.4019    1.5185 N   0  0  0  0  0  0  0  0  0  0  0  0
    4.5747    0.5504    1.6911 C   0  0  0  0  0  0  0  0  0  0  0  0
    5.0489    1.1911    0.7567 O   0  0  0  0  0  0  0  0  0  0  0  0
    5.0313    0.7738    3.0752 C   0  0  0  0  0  0  0  0  0  0  0  0
    6.0655    1.6476    3.4373 C   0  0  0  0  0  0  0  0  0  0  0  0
    6.1801    1.5575    4.7902 C   0  0  0  0  0  0  0  0  0  0  0  0
    7.4345    2.2383    5.2847 C   0  0  1  0  0  0  0  0  0  0  0  0
    8.0935    2.7118    3.9614 C   0  0  1  0  0  0  0  0  0  0  0  0
    7.1392    2.4392    2.7839 C   0  0  0  0  0  0  0  0  0  0  0  0
    7.7199    3.6954    5.0192 C   0  0  0  0  0  0  0  0  0  0  0  0
    5.2529    0.6700    5.2368 N   0  0  0  0  0  0  0  0  0  0  0  0
    4.9661    0.3417    6.5807 C   0  0  0  0  0  0  0  0  0  0  0  0
    5.1126    1.3066    7.5875 C   0  0  0  0  0  0  0  0  0  0  0  0
    4.8160    1.0086    8.9109 C   0  0  0  0  0  0  0  0  0  0  0  0
    4.3969   -0.2744    9.2353 C   0  0  0  0  0  0  0  0  0  0  0  0
    4.2586   -1.2523    8.2538 C   0  0  0  0  0  0  0  0  0  0  0  0
    4.5201   -0.9426    6.9147 C   0  0  0  0  0  0  0  0  0  0  0  0
    4.1188   -0.5716   10.5105 F   0  0  0  0  0  0  0  0  0  0  0  0
    5.4630    2.5685    7.3032 F   0  0  0  0  0  0  0  0  0  0  0  0
    4.5649    0.1132    4.1714 N   0  0  0  0  0  0  0  0  0  0  0  0
    1.5412   -2.1803   -0.5694 H   0  0  0  0  0  0  0  0  0  0  0  0
    1.1396   -1.5062    1.0180 H   0  0  0  0  0  0  0  0  0  0  0  0
    2.3923   -2.7444    0.8744 H   0  0  0  0  0  0  0  0  0  0  0  0
    3.7197   -1.6977   -1.6644 H   0  0  0  0  0  0  0  0  0  0  0  0
    4.6356   -2.1821   -0.2310 H   0  0  0  0  0  0  0  0  0  0  0  0
    4.8951   -0.5940   -0.9550 H   0  0  0  0  0  0  0  0  0  0  0  0
    3.0461    1.3031   -0.6203 H   0  0  0  0  0  0  0  0  0  0  0  0
    1.5346    0.8396    0.1473 H   0  0  0  0  0  0  0  0  0  0  0  0
    2.5323    0.1855   -2.3983 H   0  0  0  0  0  0  0  0  0  0  0  0
    3.2787   -0.8732    2.3650 H   0  0  0  0  0  0  0  0  0  0  0  0
    7.9693    1.8020    6.1164 H   0  0  0  0  0  0  0  0  0  0  0  0
    9.1266    2.4619    3.7748 H   0  0  0  0  0  0  0  0  0  0  0  0
    6.7552    3.3744    2.3663 H   0  0  0  0  0  0  0  0  0  0  0  0
    7.6441    1.8607    2.0052 H   0  0  0  0  0  0  0  0  0  0  0  0
    8.5257    4.1544    5.5827 H   0  0  0  0  0  0  0  0  0  0  0  0
    6.8766    4.3577    4.8616 H   0  0  0  0  0  0  0  0  0  0  0  0
    4.8933    1.7730    9.6791 H   0  0  0  0  0  0  0  0  0  0  0  0
    3.9476   -2.2520    8.5424 H   0  0  0  0  0  0  0  0  0  0  0  0
    4.4180   -1.7143    6.1554 H   0  0  0  0  0  0  0  0  0  0  0  0
  1  2  1  0  0  0  0
  1 26  1  0  0  0  0
  1 27  1  0  0  0  0
  1 28  1  0  0  0  0
  2  3  1  0  0  0  0
  2  4  1  0  0  0  0
  2  6  1  0  0  0  0
  3 29  1  0  0  0  0
  3 30  1  0  0  0  0
  3 31  1  0  0  0  0
  4  5  1  0  0  0  0
  4 32  1  0  0  0  0
  4 33  1  0  0  0  0
  5 34  1  0  0  0  0
  6  7  1  0  0  0  0
  6 35  1  0  0  0  0
  7  8  2  0  0  0  0
  7  9  1  0  0  0  0
  9 25  2  0  0  0  0
  9 10  1  0  0  0  0
 10 14  1  0  0  0  0
 10 11  2  0  0  0  0
 11 12  1  0  0  0  0
 11 16  1  0  0  0  0
 12 13  1  0  0  0  0
 12 15  1  0  0  0  0
 12 36  1  1  0  0  0
 13 14  1  0  0  0  0
 13 15  1  0  0  0  0
 13 37  1  6  0  0  0
 14 38  1  0  0  0  0
 14 39  1  0  0  0  0
 15 40  1  0  0  0  0
 15 41  1  0  0  0  0
 16 17  1  0  0  0  0
 16 25  1  0  0  0  0
 17 22  2  0  0  0  0
 17 18  1  0  0  0  0
 18 19  2  0  0  0  0
 18 24  1  0  0  0  0
 19 20  1  0  0  0  0
 19 42  1  0  0  0  0
 20 21  2  0  0  0  0
 20 23  1  0  0  0  0
 21 22  1  0  0  0  0
 21 43  1  0  0  0  0
 22 44  1  0  0  0  0
M  END
$$$$
CHEMBL1800175
 OpenBabel12022418093D

 50 53  0  0  0  0  0  0  0  0999 V2000
    1.2834    1.7492    3.5934 C   0  0  0  0  0  0  0  0  0  0  0  0
    2.7733    1.6450    3.3097 C   0  0  0  0  0  0  0  0  0  0  0  0
    3.1030    0.7341    1.8119 S   0  0  0  0  0  0  0  0  0  0  0  0
    2.5065   -0.5811    1.9610 O   0  0  0  0  0  0  0  0  0  0  0  0
    2.7745    1.5738    0.6765 O   0  0  0  0  0  0  0  0  0  0  0  0
    4.8742    0.5084    1.7915 C   0  0  0  0  0  0  0  0  0  0  0  0
    5.4015   -0.7889    1.8144 C   0  0  0  0  0  0  0  0  0  0  0  0
    6.7851   -1.0047    1.7828 C   0  0  0  0  0  0  0  0  0  0  0  0
    7.6131    0.1237    1.7246 C   0  0  0  0  0  0  0  0  0  0  0  0
    7.1029    1.4178    1.6897 C   0  0  0  0  0  0  0  0  0  0  0  0
    5.7114    1.6299    1.7112 C   0  0  0  0  0  0  0  0  0  0  0  0
    8.1193    2.3342    1.6195 N   0  0  0  0  0  0  0  0  0  0  0  0
    9.2551    1.6528    1.5930 C   0  0  0  0  0  0  0  0  0  0  0  0
   10.6226    2.3034    1.4226 C   0  0  0  0  0  0  0  0  0  0  0  0
   10.9983    2.3197   -0.0722 C   0  0  0  0  0  0  0  0  0  0  0  0
   11.7258    1.6903    2.3002 C   0  0  0  0  0  0  0  0  0  0  0  0
   12.8090    2.7535    2.4245 C   0  0  0  0  0  0  0  0  0  0  0  0
   12.0998    4.0875    2.2343 C   0  0  0  0  0  0  0  0  0  0  0  0
   10.6301    3.7517    1.9693 C   0  0  0  0  0  0  0  0  0  0  0  0
    8.9876    0.2906    1.6542 N   0  0  0  0  0  0  0  0  0  0  0  0
    9.9411   -0.8103    1.5286 C   0  0  0  0  0  0  0  0  0  0  0  0
   10.4716   -1.3040    2.8505 C   0  0  0  0  0  0  0  0  0  0  0  0
   10.3799   -2.7698    3.1987 C   0  0  0  0  0  0  0  0  0  0  0  0
   11.7180   -2.1654    2.8964 C   0  0  0  0  0  0  0  0  0  0  0  0
    1.1108    2.2860    4.5320 H   0  0  0  0  0  0  0  0  0  0  0  0
    0.8231    0.7596    3.6838 H   0  0  0  0  0  0  0  0  0  0  0  0
    0.7619    2.2858    2.7942 H   0  0  0  0  0  0  0  0  0  0  0  0
    3.2717    1.1234    4.1316 H   0  0  0  0  0  0  0  0  0  0  0  0
    3.2041    2.6439    3.1974 H   0  0  0  0  0  0  0  0  0  0  0  0
    4.7373   -1.6514    1.8390 H   0  0  0  0  0  0  0  0  0  0  0  0
    7.1855   -2.0158    1.7841 H   0  0  0  0  0  0  0  0  0  0  0  0
    5.3180    2.6386    1.6394 H   0  0  0  0  0  0  0  0  0  0  0  0
   10.2237    2.8232   -0.6638 H   0  0  0  0  0  0  0  0  0  0  0  0
   11.1072    1.3078   -0.4745 H   0  0  0  0  0  0  0  0  0  0  0  0
   11.9400    2.8464   -0.2597 H   0  0  0  0  0  0  0  0  0  0  0  0
   12.1577    0.7731    1.8940 H   0  0  0  0  0  0  0  0  0  0  0  0
   11.3379    1.4694    3.3025 H   0  0  0  0  0  0  0  0  0  0  0  0
   13.5700    2.6137    1.6477 H   0  0  0  0  0  0  0  0  0  0  0  0
   13.3175    2.6886    3.3918 H   0  0  0  0  0  0  0  0  0  0  0  0
   12.5371    4.6216    1.3830 H   0  0  0  0  0  0  0  0  0  0  0  0
   12.2100    4.7304    3.1132 H   0  0  0  0  0  0  0  0  0  0  0  0
   10.0784    3.8137    2.9168 H   0  0  0  0  0  0  0  0  0  0  0  0
   10.1741    4.4732    1.2822 H   0  0  0  0  0  0  0  0  0  0  0  0
   10.7525   -0.4791    0.8772 H   0  0  0  0  0  0  0  0  0  0  0  0
    9.4387   -1.6179    0.9853 H   0  0  0  0  0  0  0  0  0  0  0  0
   10.3634   -0.5845    3.6553 H   0  0  0  0  0  0  0  0  0  0  0  0
    9.9718   -3.4631    2.4723 H   0  0  0  0  0  0  0  0  0  0  0  0
   10.1608   -3.0312    4.2283 H   0  0  0  0  0  0  0  0  0  0  0  0
   12.4063   -2.0461    3.7282 H   0  0  0  0  0  0  0  0  0  0  0  0
   12.2061   -2.4459    1.9692 H   0  0  0  0  0  0  0  0  0  0  0  0
  1  2  1  0  0  0  0
  1 25  1  0  0  0  0
  1 26  1  0  0  0  0
  1 27  1  0  0  0  0
  2  3  1  0  0  0  0
  2 28  1  0  0  0  0
  2 29  1  0  0  0  0
  3  4  2  0  0  0  0
  3  5  2  0  0  0  0
  3  6  1  0  0  0  0
  6 11  2  0  0  0  0
  6  7  1  0  0  0  0
  7  8  2  0  0  0  0
  7 30  1  0  0  0  0
  8  9  1  0  0  0  0
  8 31  1  0  0  0  0
  9 20  1  0  0  0  0
  9 10  2  0  0  0  0
 10 11  1  0  0  0  0
 10 12  1  0  0  0  0
 11 32  1  0  0  0  0
 12 13  2  0  0  0  0
 13 14  1  0  0  0  0
 13 20  1  0  0  0  0
 14 19  1  0  0  0  0
 14 15  1  0  0  0  0
 14 16  1  0  0  0  0
 15 33  1  0  0  0  0
 15 34  1  0  0  0  0
 15 35  1  0  0  0  0
 16 17  1  0  0  0  0
 16 36  1  0  0  0  0
 16 37  1  0  0  0  0
 17 18  1  0  0  0  0
 17 38  1  0  0  0  0
 17 39  1  0  0  0  0
 18 19  1  0  0  0  0
 18 40  1  0  0  0  0
 18 41  1  0  0  0  0
 19 42  1  0  0  0  0
 19 43  1  0  0  0  0
 20 21  1  0  0  0  0
 21 22  1  0  0  0  0
 21 44  1  0  0  0  0
 21 45  1  0  0  0  0
 22 24  1  0  0  0  0
 22 23  1  0  0  0  0
 22 46  1  0  0  0  0
 23 24  1  0  0  0  0
 23 47  1  0  0  0  0
 23 48  1  0  0  0  0
 24 49  1  0  0  0  0
 24 50  1  0  0  0  0
M  END
$$$$
CHEMBL3354971
 OpenBabel12022418093D

 44 47  0  0  1  0  0  0  0  0999 V2000
    2.3341    1.1764   -2.2455 C   0  0  0  0  0  0  0  0  0  0  0  0
    3.2163    0.5124   -1.1674 C   0  0  0  0  0  0  0  0  0  0  0  0
    4.3582    1.4968   -0.8413 C   0  0  0  0  0  0  0  0  0  0  0  0
    2.3428    0.2655    0.1007 C   0  0  0  0  0  0  0  0  0  0  0  0
    1.7951    1.4715    0.6351 O   0  0  0  0  0  0  0  0  0  0  0  0
    3.7538   -0.7547   -1.7046 N   0  0  0  0  0  0  0  0  0  0  0  0
    4.5906   -1.5877   -0.9952 C   0  0  0  0  0  0  0  0  0  0  0  0
    4.9729   -1.3202    0.1419 O   0  0  0  0  0  0  0  0  0  0  0  0
    5.0027   -2.8436   -1.6582 C   0  0  0  0  0  0  0  0  0  0  0  0
    5.8994   -3.7653   -1.0941 C   0  0  0  0  0  0  0  0  0  0  0  0
    6.0148   -4.7715   -2.0001 C   0  0  0  0  0  0  0  0  0  0  0  0
    7.1384   -5.7108   -1.6411 C   0  0  1  0  0  0  0  0  0  0  0  0
    7.7202   -5.0634   -0.3636 C   0  0  1  0  0  0  0  0  0  0  0  0
    6.8446   -3.8609    0.0442 C   0  0  0  0  0  0  0  0  0  0  0  0
    7.1615   -6.4491   -0.3276 C   0  0  0  0  0  0  0  0  0  0  0  0
    5.2298   -4.4843   -3.0697 N   0  0  0  0  0  0  0  0  0  0  0  0
    5.0613   -5.3052   -4.2074 C   0  0  0  0  0  0  0  0  0  0  0  0
    4.8701   -4.7461   -5.4727 C   0  0  0  0  0  0  0  0  0  0  0  0
    4.8523   -5.5925   -6.5836 C   0  0  0  0  0  0  0  0  0  0  0  0
    4.9710   -6.9765   -6.4545 C   0  0  0  0  0  0  0  0  0  0  0  0
    5.1034   -7.5353   -5.1887 C   0  0  0  0  0  0  0  0  0  0  0  0
    5.1530   -6.7001   -4.0762 C   0  0  0  0  0  0  0  0  0  0  0  0
    5.2315   -7.2873   -2.8737 F   0  0  0  0  0  0  0  0  0  0  0  0
    4.7499   -5.0657   -7.8105 F   0  0  0  0  0  0  0  0  0  0  0  0
    4.6298   -3.2456   -2.9091 N   0  0  0  0  0  0  0  0  0  0  0  0
    1.9350    2.1406   -1.9026 H   0  0  0  0  0  0  0  0  0  0  0  0
    1.4838    0.5393   -2.5089 H   0  0  0  0  0  0  0  0  0  0  0  0
    2.9045    1.3641   -3.1611 H   0  0  0  0  0  0  0  0  0  0  0  0
    3.9741    2.4776   -0.5369 H   0  0  0  0  0  0  0  0  0  0  0  0
    5.0034    1.6514   -1.7131 H   0  0  0  0  0  0  0  0  0  0  0  0
    4.9914    1.1355   -0.0254 H   0  0  0  0  0  0  0  0  0  0  0  0
    2.9031   -0.2242    0.9027 H   0  0  0  0  0  0  0  0  0  0  0  0
    1.5015   -0.3919   -0.1459 H   0  0  0  0  0  0  0  0  0  0  0  0
    2.4982    1.8960    1.1578 H   0  0  0  0  0  0  0  0  0  0  0  0
    3.4787   -1.0901   -2.6213 H   0  0  0  0  0  0  0  0  0  0  0  0
    7.7258   -6.1516   -2.4344 H   0  0  0  0  0  0  0  0  0  0  0  0
    8.7843   -4.8936   -0.3053 H   0  0  0  0  0  0  0  0  0  0  0  0
    6.3266   -4.0600    0.9869 H   0  0  0  0  0  0  0  0  0  0  0  0
    7.4558   -2.9590    0.1339 H   0  0  0  0  0  0  0  0  0  0  0  0
    7.8584   -7.2761   -0.2400 H   0  0  0  0  0  0  0  0  0  0  0  0
    6.2129   -6.6337    0.1640 H   0  0  0  0  0  0  0  0  0  0  0  0
    4.8059   -3.6727   -5.6206 H   0  0  0  0  0  0  0  0  0  0  0  0
    4.9572   -7.6087   -7.3374 H   0  0  0  0  0  0  0  0  0  0  0  0
    5.1713   -8.6110   -5.0535 H   0  0  0  0  0  0  0  0  0  0  0  0
  1  2  1  0  0  0  0
  1 26  1  0  0  0  0
  1 27  1  0  0  0  0
  1 28  1  0  0  0  0
  2  3  1  0  0  0  0
  2  4  1  0  0  0  0
  2  6  1  0  0  0  0
  3 29  1  0  0  0  0
  3 30  1  0  0  0  0
  3 31  1  0  0  0  0
  4  5  1  0  0  0  0
  4 32  1  0  0  0  0
  4 33  1  0  0  0  0
  5 34  1  0  0  0  0
  6  7  1  0  0  0  0
  6 35  1  0  0  0  0
  7  8  2  0  0  0  0
  7  9  1  0  0  0  0
  9 25  2  0  0  0  0
  9 10  1  0  0  0  0
 10 14  1  0  0  0  0
 10 11  2  0  0  0  0
 11 12  1  0  0  0  0
 11 16  1  0  0  0  0
 12 13  1  0  0  0  0
 12 15  1  0  0  0  0
 12 36  1  6  0  0  0
 13 14  1  0  0  0  0
 13 15  1  0  0  0  0
 13 37  1  1  0  0  0
 14 38  1  0  0  0  0
 14 39  1  0  0  0  0
 15 40  1  0  0  0  0
 15 41  1  0  0  0  0
 16 17  1  0  0  0  0
 16 25  1  0  0  0  0
 17 22  2  0  0  0  0
 17 18  1  0  0  0  0
 18 19  2  0  0  0  0
 18 42  1  0  0  0  0
 19 20  1  0  0  0  0
 19 24  1  0  0  0  0
 20 21  2  0  0  0  0
 20 43  1  0  0  0  0
 21 22  1  0  0  0  0
 21 44  1  0  0  0  0
 22 23  1  0  0  0  0
M  END
$$$$
CHEMBL556865
 OpenBabel12022418093D

 52 55  0  0  0  0  0  0  0  0999 V2000
   -0.0382    0.0374   -2.1654 C   0  0  0  0  0  0  0  0  0  0  0  0
   -0.6109   -0.3979   -0.8731 C   0  0  0  0  0  0  0  0  0  0  0  0
   -0.3940   -1.5676   -0.1062 C   0  0  0  0  0  0  0  0  0  0  0  0
   -1.3475   -1.5026    0.8824 C   0  0  0  0  0  0  0  0  0  0  0  0
   -2.0297   -0.3375    0.7779 O   0  0  0  0  0  0  0  0  0  0  0  0
   -1.5557    0.3735   -0.3071 N   0  0  0  0  0  0  0  0  0  0  0  0
    0.6065   -2.9136   -0.4376 S   0  0  0  0  0  0  0  0  0  0  0  0
    0.2753   -3.8269    0.6420 O   0  0  0  0  0  0  0  0  0  0  0  0
    0.2767   -3.2342   -1.8010 O   0  0  0  0  0  0  0  0  0  0  0  0
    2.2548   -2.6164   -0.3437 N   0  0  0  0  0  0  0  0  0  0  0  0
    2.9453   -2.5751    0.9722 C   0  0  0  0  0  0  0  0  0  0  0  0
    3.0022   -1.1507    1.5736 C   0  0  0  0  0  0  0  0  0  0  0  0
    3.1919   -0.1417    0.4906 C   0  0  0  0  0  0  0  0  0  0  0  0
    3.1929   -0.4554   -0.8500 C   0  0  0  0  0  0  0  0  0  0  0  0
    2.9389   -1.8237   -1.3977 C   0  0  0  0  0  0  0  0  0  0  0  0
    3.2764    0.6735   -1.6025 N   0  0  0  0  0  0  0  0  0  0  0  0
    3.1896    1.7017   -0.7662 C   0  0  0  0  0  0  0  0  0  0  0  0
    2.9748    3.1417   -1.2612 C   0  0  0  0  0  0  0  0  0  0  0  0
    3.0185    3.1464   -2.8129 C   0  0  0  0  0  0  0  0  0  0  0  0
    1.5805    3.6819   -0.8788 C   0  0  0  0  0  0  0  0  0  0  0  0
    4.0759    4.1001   -0.7786 C   0  0  0  0  0  0  0  0  0  0  0  0
    3.1491    1.2366    0.5579 N   0  0  0  0  0  0  0  0  0  0  0  0
    2.6200    1.9976    1.6897 C   0  0  0  0  0  0  0  0  0  0  0  0
    3.2760    1.8812    3.0350 C   0  0  0  0  0  0  0  0  0  0  0  0
    4.1109    3.0179    3.6580 C   0  0  0  0  0  0  0  0  0  0  0  0
    2.6736    2.7108    4.0828 C   0  0  0  0  0  0  0  0  0  0  0  0
    0.5763   -0.7303   -2.6298 H   0  0  0  0  0  0  0  0  0  0  0  0
   -0.8352    0.2776   -2.8764 H   0  0  0  0  0  0  0  0  0  0  0  0
    0.5688    0.9327   -2.0316 H   0  0  0  0  0  0  0  0  0  0  0  0
   -1.6825   -2.1744    1.6589 H   0  0  0  0  0  0  0  0  0  0  0  0
    3.9694   -2.9417    0.8035 H   0  0  0  0  0  0  0  0  0  0  0  0
    2.5040   -3.2775    1.6877 H   0  0  0  0  0  0  0  0  0  0  0  0
    3.8287   -1.1119    2.2899 H   0  0  0  0  0  0  0  0  0  0  0  0
    2.0706   -0.9457    2.1050 H   0  0  0  0  0  0  0  0  0  0  0  0
    2.3628   -1.7876   -2.3210 H   0  0  0  0  0  0  0  0  0  0  0  0
    3.8890   -2.3137   -1.6438 H   0  0  0  0  0  0  0  0  0  0  0  0
    2.2260    2.5155   -3.2339 H   0  0  0  0  0  0  0  0  0  0  0  0
    3.9770    2.7738   -3.1921 H   0  0  0  0  0  0  0  0  0  0  0  0
    2.8750    4.1576   -3.2113 H   0  0  0  0  0  0  0  0  0  0  0  0
    0.7923    2.9642   -1.1240 H   0  0  0  0  0  0  0  0  0  0  0  0
    1.3613    4.6139   -1.4113 H   0  0  0  0  0  0  0  0  0  0  0  0
    1.4751    3.9216    0.1801 H   0  0  0  0  0  0  0  0  0  0  0  0
    5.0697    3.7641   -1.0955 H   0  0  0  0  0  0  0  0  0  0  0  0
    4.0983    4.2084    0.3088 H   0  0  0  0  0  0  0  0  0  0  0  0
    3.9214    5.1042   -1.1947 H   0  0  0  0  0  0  0  0  0  0  0  0
    1.5681    1.6996    1.7652 H   0  0  0  0  0  0  0  0  0  0  0  0
    2.6629    3.0480    1.4231 H   0  0  0  0  0  0  0  0  0  0  0  0
    3.5518    0.8711    3.3058 H   0  0  0  0  0  0  0  0  0  0  0  0
    4.5878    3.4516    2.7494 H   0  0  0  0  0  0  0  0  0  0  0  0
    4.0944    4.0855    3.9730 H   0  0  0  0  0  0  0  0  0  0  0  0
    2.5142    2.2908    5.0671 H   0  0  0  0  0  0  0  0  0  0  0  0
    1.9010    3.4283    3.8066 H   0  0  0  0  0  0  0  0  0  0  0  0
  1  2  1  0  0  0  0
  1 27  1  0  0  0  0
  1 28  1  0  0  0  0
  1 29  1  0  0  0  0
  2  6  2  0  0  0  0
  2  3  1  0  0  0  0
  3  4  2  0  0  0  0
  3  7  1  0  0  0  0
  4  5  1  0  0  0  0
  4 30  1  0  0  0  0
  5  6  1  0  0  0  0
  7  8  2  0  0  0  0
  7  9  2  0  0  0  0
  7 10  1  0  0  0  0
 10 15  1  0  0  0  0
 10 11  1  0  0  0  0
 11 12  1  0  0  0  0
 11 31  1  0  0  0  0
 11 32  1  0  0  0  0
 12 13  1  0  0  0  0
 12 33  1  0  0  0  0
 12 34  1  0  0  0  0
 13 22  1  0  0  0  0
 13 14  2  0  0  0  0
 14 15  1  0  0  0  0
 14 16  1  0  0  0  0
 15 35  1  0  0  0  0
 15 36  1  0  0  0  0
 16 17  2  0  0  0  0
 17 18  1  0  0  0  0
 17 22  1  0  0  0  0
 18 19  1  0  0  0  0
 18 20  1  0  0  0  0
 18 21  1  0  0  0  0
 19 37  1  0  0  0  0
 19 38  1  0  0  0  0
 19 39  1  0  0  0  0
 20 40  1  0  0  0  0
 20 41  1  0  0  0  0
 20 42  1  0  0  0  0
 21 43  1  0  0  0  0
 21 44  1  0  0  0  0
 21 45  1  0  0  0  0
 22 23  1  0  0  0  0
 23 24  1  0  0  0  0
 23 46  1  0  0  0  0
 23 47  1  0  0  0  0
 24 26  1  0  0  0  0
 24 25  1  0  0  0  0
 24 48  1  0  0  0  0
 25 26  1  0  0  0  0
 25 49  1  0  0  0  0
 25 50  1  0  0  0  0
 26 51  1  0  0  0  0
 26 52  1  0  0  0  0
M  END
$$$$
CHEMBL3410727
 OpenBabel12022418093D

 53 54  0  0  0  0  0  0  0  0999 V2000
   -2.1979    0.1002   -0.0815 C   0  0  0  0  0  0  0  0  0  0  0  0
   -3.3486    0.5172   -0.0171 O   0  0  0  0  0  0  0  0  0  0  0  0
   -1.8674   -1.3224   -0.2727 C   0  0  0  0  0  0  0  0  0  0  0  0
   -0.5885   -1.7316   -0.1993 C   0  0  0  0  0  0  0  0  0  0  0  0
    0.5063   -0.7783   -0.0332 C   0  0  0  0  0  0  0  0  0  0  0  0
    1.8327   -1.1871    0.0270 C   0  0  0  0  0  0  0  0  0  0  0  0
    2.8467   -0.2270    0.0766 C   0  0  0  0  0  0  0  0  0  0  0  0
    2.5640    1.1517    0.0530 C   0  0  0  0  0  0  0  0  0  0  0  0
    1.2262    1.5861    0.0160 C   0  0  0  0  0  0  0  0  0  0  0  0
    0.2259    0.5907   -0.0077 C   0  0  0  0  0  0  0  0  0  0  0  0
   -1.1322    0.9712    0.0105 O   0  0  0  0  0  0  0  0  0  0  0  0
    0.9993    2.9402   -0.0036 O   0  0  0  0  0  0  0  0  0  0  0  0
   -0.3373    3.4207   -0.0952 C   0  0  0  0  0  0  0  0  0  0  0  0
   -0.3511    4.9427   -0.1733 C   0  0  0  0  0  0  0  0  0  0  0  0
   -1.7969    5.4371   -0.2297 C   0  0  0  0  0  0  0  0  0  0  0  0
   -1.8793    6.9500   -0.2963 C   0  0  0  0  0  0  0  0  0  0  0  0
    3.7110    1.9042    0.0707 O   0  0  0  0  0  0  0  0  0  0  0  0
    3.6159    3.3180   -0.0147 C   0  0  0  0  0  0  0  0  0  0  0  0
   -2.9191   -2.3375   -0.5961 C   0  0  0  0  0  0  0  0  0  0  0  0
   -2.6295   -3.5108   -0.8155 O   0  0  0  0  0  0  0  0  0  0  0  0
   -4.2022   -1.8536   -0.6568 N   0  0  0  0  0  0  0  0  0  0  0  0
   -5.3672   -2.6607   -0.9823 C   0  0  0  0  0  0  0  0  0  0  0  0
   -6.0299   -3.2117    0.2962 C   0  0  0  0  0  0  0  0  0  0  0  0
   -5.1211   -4.0995    1.1325 C   0  0  0  0  0  0  0  0  0  0  0  0
   -6.3945   -1.8133   -1.7596 C   0  0  0  0  0  0  0  0  0  0  0  0
   -5.8650   -1.2820   -3.0859 C   0  0  0  0  0  0  0  0  0  0  0  0
   -0.3261   -2.7787   -0.3323 H   0  0  0  0  0  0  0  0  0  0  0  0
    2.0994   -2.2412    0.0221 H   0  0  0  0  0  0  0  0  0  0  0  0
    3.8856   -0.5541    0.1160 H   0  0  0  0  0  0  0  0  0  0  0  0
   -0.8912    3.1285    0.8048 H   0  0  0  0  0  0  0  0  0  0  0  0
   -0.8127    3.0369   -1.0053 H   0  0  0  0  0  0  0  0  0  0  0  0
    0.2069    5.2716   -1.0579 H   0  0  0  0  0  0  0  0  0  0  0  0
    0.1699    5.3616    0.6951 H   0  0  0  0  0  0  0  0  0  0  0  0
   -2.3427    5.0875    0.6551 H   0  0  0  0  0  0  0  0  0  0  0  0
   -2.3020    5.0102   -1.1046 H   0  0  0  0  0  0  0  0  0  0  0  0
   -1.4124    7.4054    0.5821 H   0  0  0  0  0  0  0  0  0  0  0  0
   -2.9266    7.2671   -0.3286 H   0  0  0  0  0  0  0  0  0  0  0  0
   -1.3801    7.3292   -1.1928 H   0  0  0  0  0  0  0  0  0  0  0  0
    4.6345    3.7185   -0.0235 H   0  0  0  0  0  0  0  0  0  0  0  0
    3.1156    3.7346    0.8650 H   0  0  0  0  0  0  0  0  0  0  0  0
    3.1402    3.6322   -0.9497 H   0  0  0  0  0  0  0  0  0  0  0  0
   -4.3708   -0.8804   -0.3963 H   0  0  0  0  0  0  0  0  0  0  0  0
   -5.0449   -3.5020   -1.6092 H   0  0  0  0  0  0  0  0  0  0  0  0
   -6.9153   -3.7928    0.0147 H   0  0  0  0  0  0  0  0  0  0  0  0
   -6.3790   -2.3814    0.9233 H   0  0  0  0  0  0  0  0  0  0  0  0
   -4.6783   -4.8970    0.5270 H   0  0  0  0  0  0  0  0  0  0  0  0
   -5.6944   -4.5672    1.9403 H   0  0  0  0  0  0  0  0  0  0  0  0
   -4.3161   -3.5229    1.5959 H   0  0  0  0  0  0  0  0  0  0  0  0
   -6.7153   -0.9609   -1.1475 H   0  0  0  0  0  0  0  0  0  0  0  0
   -7.2889   -2.4151   -1.9616 H   0  0  0  0  0  0  0  0  0  0  0  0
   -4.9922   -0.6372   -2.9436 H   0  0  0  0  0  0  0  0  0  0  0  0
   -6.6375   -0.6861   -3.5845 H   0  0  0  0  0  0  0  0  0  0  0  0
   -5.5861   -2.1018   -3.7543 H   0  0  0  0  0  0  0  0  0  0  0  0
  1 11  1  0  0  0  0
  1  2  2  0  0  0  0
  1  3  1  0  0  0  0
  3  4  2  0  0  0  0
  3 19  1  0  0  0  0
  4  5  1  0  0  0  0
  4 27  1  0  0  0  0
  5 10  2  0  0  0  0
  5  6  1  0  0  0  0
  6  7  2  0  0  0  0
  6 28  1  0  0  0  0
  7  8  1  0  0  0  0
  7 29  1  0  0  0  0
  8  9  2  0  0  0  0
  8 17  1  0  0  0  0
  9 10  1  0  0  0  0
  9 12  1  0  0  0  0
 10 11  1  0  0  0  0
 12 13  1  0  0  0  0
 13 14  1  0  0  0  0
 13 30  1  0  0  0  0
 13 31  1  0  0  0  0
 14 15  1  0  0  0  0
 14 32  1  0  0  0  0
 14 33  1  0  0  0  0
 15 16  1  0  0  0  0
 15 34  1  0  0  0  0
 15 35  1  0  0  0  0
 16 36  1  0  0  0  0
 16 37  1  0  0  0  0
 16 38  1  0  0  0  0
 17 18  1  0  0  0  0
 18 39  1  0  0  0  0
 18 40  1  0  0  0  0
 18 41  1  0  0  0  0
 19 20  2  0  0  0  0
 19 21  1  0  0  0  0
 21 22  1  0  0  0  0
 21 42  1  0  0  0  0
 22 23  1  0  0  0  0
 22 25  1  0  0  0  0
 22 43  1  0  0  0  0
 23 24  1  0  0  0  0
 23 44  1  0  0  0  0
 23 45  1  0  0  0  0
 24 46  1  0  0  0  0
 24 47  1  0  0  0  0
 24 48  1  0  0  0  0
 25 26  1  0  0  0  0
 25 49  1  0  0  0  0
 25 50  1  0  0  0  0
 26 51  1  0  0  0  0
 26 52  1  0  0  0  0
 26 53  1  0  0  0  0
M  END
$$$$
CHEMBL474602
 OpenBabel12022418093D

 48 51  0  0  0  0  0  0  0  0999 V2000
    2.2637    0.3144    0.8061 O   0  0  0  0  0  0  0  0  0  0  0  0
    2.1623   -0.7174    0.1365 C   0  0  0  0  0  0  0  0  0  0  0  0
    2.7917   -0.8510   -1.2246 C   0  0  0  0  0  0  0  0  0  0  0  0
    1.8106   -1.1144   -2.2561 N   0  0  0  0  0  0  0  0  0  0  0  0
    1.7104   -2.3292   -2.8260 N   0  0  0  0  0  0  0  0  0  0  0  0
    0.8257   -2.1164   -3.8193 C   0  0  0  0  0  0  0  0  0  0  0  0
    0.4338   -3.1926   -4.7453 C   0  0  0  0  0  0  0  0  0  0  0  0
    0.3643   -2.9178   -6.1266 C   0  0  0  0  0  0  0  0  0  0  0  0
   -0.0194   -3.8995   -7.0472 C   0  0  0  0  0  0  0  0  0  0  0  0
   -0.2913   -5.1890   -6.6069 C   0  0  0  0  0  0  0  0  0  0  0  0
   -0.2309   -5.4903   -5.2505 C   0  0  0  0  0  0  0  0  0  0  0  0
    0.1106   -4.4962   -4.3198 C   0  0  0  0  0  0  0  0  0  0  0  0
    0.0360   -4.9573   -2.6506 Cl  0  0  0  0  0  0  0  0  0  0  0  0
   -0.7012   -6.4114   -7.7441 Cl  0  0  0  0  0  0  0  0  0  0  0  0
    0.4497   -0.7217   -3.8015 C   0  0  0  0  0  0  0  0  0  0  0  0
   -0.4589    0.0281   -4.6762 C   0  0  0  0  0  0  0  0  0  0  0  0
   -1.6416   -0.5990   -5.1159 C   0  0  0  0  0  0  0  0  0  0  0  0
   -2.5065    0.0312   -6.0135 C   0  0  0  0  0  0  0  0  0  0  0  0
   -2.2308    1.3233   -6.4430 C   0  0  0  0  0  0  0  0  0  0  0  0
   -1.0918    1.9841   -5.9958 C   0  0  0  0  0  0  0  0  0  0  0  0
   -0.1983    1.3382   -5.1288 C   0  0  0  0  0  0  0  0  0  0  0  0
    1.2333    2.2274   -4.7259 Cl  0  0  0  0  0  0  0  0  0  0  0  0
   -3.3021    2.1035   -7.5376 Cl  0  0  0  0  0  0  0  0  0  0  0  0
    1.0684   -0.1272   -2.7701 N   0  0  0  0  0  0  0  0  0  0  0  0
    1.5831   -1.8636    0.6396 N   0  0  0  0  0  0  0  0  0  0  0  0
    0.9246   -1.8746    1.9320 C   0  0  0  0  0  0  0  0  0  0  0  0
    0.8949   -3.2626    2.5059 C   0  0  0  0  0  0  0  0  0  0  0  0
    2.0897   -3.9357    2.8069 C   0  0  0  0  0  0  0  0  0  0  0  0
    2.0631   -5.2333    3.3233 C   0  0  0  0  0  0  0  0  0  0  0  0
    0.8441   -5.8707    3.5524 C   0  0  0  0  0  0  0  0  0  0  0  0
   -0.3488   -5.2069    3.2711 C   0  0  0  0  0  0  0  0  0  0  0  0
   -0.3153   -3.9135    2.7554 C   0  0  0  0  0  0  0  0  0  0  0  0
   -1.4760   -3.2960    2.4938 F   0  0  0  0  0  0  0  0  0  0  0  0
    3.5265   -1.6631   -1.2179 H   0  0  0  0  0  0  0  0  0  0  0  0
    3.3100    0.0787   -1.4879 H   0  0  0  0  0  0  0  0  0  0  0  0
    0.6011   -1.9275   -6.5119 H   0  0  0  0  0  0  0  0  0  0  0  0
   -0.0938   -3.6509   -8.1037 H   0  0  0  0  0  0  0  0  0  0  0  0
   -0.4598   -6.4997   -4.9130 H   0  0  0  0  0  0  0  0  0  0  0  0
   -1.9033   -1.5991   -4.7749 H   0  0  0  0  0  0  0  0  0  0  0  0
   -3.3896   -0.4940   -6.3692 H   0  0  0  0  0  0  0  0  0  0  0  0
   -0.8885    2.9986   -6.3313 H   0  0  0  0  0  0  0  0  0  0  0  0
    1.3637   -2.6206    0.0000 H   0  0  0  0  0  0  0  0  0  0  0  0
   -0.0844   -1.4750    1.7835 H   0  0  0  0  0  0  0  0  0  0  0  0
    1.4398   -1.2004    2.6261 H   0  0  0  0  0  0  0  0  0  0  0  0
    3.0477   -3.4485    2.6349 H   0  0  0  0  0  0  0  0  0  0  0  0
    2.9952   -5.7471    3.5460 H   0  0  0  0  0  0  0  0  0  0  0  0
    0.8245   -6.8821    3.9505 H   0  0  0  0  0  0  0  0  0  0  0  0
   -1.3051   -5.6890    3.4480 H   0  0  0  0  0  0  0  0  0  0  0  0
  1  2  2  0  0  0  0
  2  3  1  0  0  0  0
  2 25  1  0  0  0  0
  3  4  1  0  0  0  0
  3 34  1  0  0  0  0
  3 35  1  0  0  0  0
  4 24  1  0  0  0  0
  4  5  1  0  0  0  0
  5  6  2  0  0  0  0
  6  7  1  0  0  0  0
  6 15  1  0  0  0  0
  7 12  2  0  0  0  0
  7  8  1  0  0  0  0
  8  9  2  0  0  0  0
  8 36  1  0  0  0  0
  9 10  1  0  0  0  0
  9 37  1  0  0  0  0
 10 11  2  0  0  0  0
 10 14  1  0  0  0  0
 11 12  1  0  0  0  0
 11 38  1  0  0  0  0
 12 13  1  0  0  0  0
 15 16  1  0  0  0  0
 15 24  2  0  0  0  0
 16 21  2  0  0  0  0
 16 17  1  0  0  0  0
 17 18  2  0  0  0  0
 17 39  1  0  0  0  0
 18 19  1  0  0  0  0
 18 40  1  0  0  0  0
 19 20  2  0  0  0  0
 19 23  1  0  0  0  0
 20 21  1  0  0  0  0
 20 41  1  0  0  0  0
 21 22  1  0  0  0  0
 25 26  1  0  0  0  0
 25 42  1  0  0  0  0
 26 27  1  0  0  0  0
 26 43  1  0  0  0  0
 26 44  1  0  0  0  0
 27 32  2  0  0  0  0
 27 28  1  0  0  0  0
 28 29  2  0  0  0  0
 28 45  1  0  0  0  0
 29 30  1  0  0  0  0
 29 46  1  0  0  0  0
 30 31  2  0  0  0  0
 30 47  1  0  0  0  0
 31 32  1  0  0  0  0
 31 48  1  0  0  0  0
 32 33  1  0  0  0  0
M  END
$$$$
CHEMBL2387073
 OpenBabel12022418093D

 47 48  0  0  0  0  0  0  0  0999 V2000
    1.0712    0.4026    0.4837 C   0  0  0  0  0  0  0  0  0  0  0  0
    2.5500    0.1420    0.2373 C   0  0  0  0  0  0  0  0  0  0  0  0
    3.0362    1.0059   -0.9179 C   0  0  0  0  0  0  0  0  0  0  0  0
    4.5497    0.8881   -1.1373 C   0  0  0  0  0  0  0  0  0  0  0  0
    5.0260    1.7441   -2.2335 N   0  0  0  0  0  0  0  0  0  0  0  0
    4.8713    3.1430   -2.1835 C   0  0  0  0  0  0  0  0  0  0  0  0
    4.3694    3.8221   -0.9266 C   0  0  0  0  0  0  0  0  0  0  0  0
    5.1521    3.8852   -3.2746 C   0  0  0  0  0  0  0  0  0  0  0  0
    4.9073    5.3667   -3.4039 C   0  0  0  0  0  0  0  0  0  0  0  0
    5.7176    3.2545   -4.4482 C   0  0  0  0  0  0  0  0  0  0  0  0
    5.9652    1.9382   -4.5184 C   0  0  0  0  0  0  0  0  0  0  0  0
    6.5940    1.4252   -5.7770 C   0  0  0  0  0  0  0  0  0  0  0  0
    6.8328    2.1846   -6.7210 O   0  0  0  0  0  0  0  0  0  0  0  0
    6.8822    0.0908   -5.8235 N   0  0  0  0  0  0  0  0  0  0  0  0
    7.4182   -0.5485   -7.0051 C   0  0  0  0  0  0  0  0  0  0  0  0
    8.7277   -1.2379   -6.7446 C   0  0  0  0  0  0  0  0  0  0  0  0
    9.9375   -0.5459   -6.9170 C   0  0  0  0  0  0  0  0  0  0  0  0
   11.1601   -1.1998   -6.7541 C   0  0  0  0  0  0  0  0  0  0  0  0
   11.1892   -2.5483   -6.4013 C   0  0  0  0  0  0  0  0  0  0  0  0
    9.9961   -3.2379   -6.1944 C   0  0  0  0  0  0  0  0  0  0  0  0
    8.7722   -2.5862   -6.3607 C   0  0  0  0  0  0  0  0  0  0  0  0
    5.5790    1.0884   -3.3534 C   0  0  0  0  0  0  0  0  0  0  0  0
    5.7414   -0.1335   -3.4163 O   0  0  0  0  0  0  0  0  0  0  0  0
    0.6942   -0.2477    1.2766 H   0  0  0  0  0  0  0  0  0  0  0  0
    0.4880    0.2198   -0.4243 H   0  0  0  0  0  0  0  0  0  0  0  0
    0.9061    1.4426    0.7875 H   0  0  0  0  0  0  0  0  0  0  0  0
    2.7115   -0.9156    0.0065 H   0  0  0  0  0  0  0  0  0  0  0  0
    3.1137    0.3751    1.1482 H   0  0  0  0  0  0  0  0  0  0  0  0
    2.7375    2.0319   -0.6965 H   0  0  0  0  0  0  0  0  0  0  0  0
    2.5103    0.7459   -1.8422 H   0  0  0  0  0  0  0  0  0  0  0  0
    4.7691   -0.1628   -1.3553 H   0  0  0  0  0  0  0  0  0  0  0  0
    5.1249    1.1294   -0.2358 H   0  0  0  0  0  0  0  0  0  0  0  0
    4.3763    3.1889   -0.0379 H   0  0  0  0  0  0  0  0  0  0  0  0
    3.3454    4.1848   -1.0817 H   0  0  0  0  0  0  0  0  0  0  0  0
    5.0039    4.6739   -0.6629 H   0  0  0  0  0  0  0  0  0  0  0  0
    4.4478    5.8113   -2.5168 H   0  0  0  0  0  0  0  0  0  0  0  0
    4.2226    5.5635   -4.2371 H   0  0  0  0  0  0  0  0  0  0  0  0
    5.8454    5.8990   -3.5879 H   0  0  0  0  0  0  0  0  0  0  0  0
    5.9690    3.9058   -5.2851 H   0  0  0  0  0  0  0  0  0  0  0  0
    6.6310   -0.4950   -5.0259 H   0  0  0  0  0  0  0  0  0  0  0  0
    7.5367    0.1764   -7.8206 H   0  0  0  0  0  0  0  0  0  0  0  0
    6.6709   -1.2763   -7.3517 H   0  0  0  0  0  0  0  0  0  0  0  0
    9.9266    0.5052   -7.1991 H   0  0  0  0  0  0  0  0  0  0  0  0
   12.0893   -0.6592   -6.9118 H   0  0  0  0  0  0  0  0  0  0  0  0
   12.1410   -3.0599   -6.2886 H   0  0  0  0  0  0  0  0  0  0  0  0
   10.0183   -4.2875   -5.9133 H   0  0  0  0  0  0  0  0  0  0  0  0
    7.8499   -3.1423   -6.2085 H   0  0  0  0  0  0  0  0  0  0  0  0
  1  2  1  0  0  0  0
  1 24  1  0  0  0  0
  1 25  1  0  0  0  0
  1 26  1  0  0  0  0
  2  3  1  0  0  0  0
  2 27  1  0  0  0  0
  2 28  1  0  0  0  0
  3  4  1  0  0  0  0
  3 29  1  0  0  0  0
  3 30  1  0  0  0  0
  4  5  1  0  0  0  0
  4 31  1  0  0  0  0
  4 32  1  0  0  0  0
  5 22  1  0  0  0  0
  5  6  1  0  0  0  0
  6  7  1  0  0  0  0
  6  8  2  0  0  0  0
  7 33  1  0  0  0  0
  7 34  1  0  0  0  0
  7 35  1  0  0  0  0
  8  9  1  0  0  0  0
  8 10  1  0  0  0  0
  9 36  1  0  0  0  0
  9 37  1  0  0  0  0
  9 38  1  0  0  0  0
 10 11  2  0  0  0  0
 10 39  1  0  0  0  0
 11 12  1  0  0  0  0
 11 22  1  0  0  0  0
 12 13  2  0  0  0  0
 12 14  1  0  0  0  0
 14 15  1  0  0  0  0
 14 40  1  0  0  0  0
 15 16  1  0  0  0  0
 15 41  1  0  0  0  0
 15 42  1  0  0  0  0
 16 21  2  0  0  0  0
 16 17  1  0  0  0  0
 17 18  2  0  0  0  0
 17 43  1  0  0  0  0
 18 19  1  0  0  0  0
 18 44  1  0  0  0  0
 19 20  2  0  0  0  0
 19 45  1  0  0  0  0
 20 21  1  0  0  0  0
 20 46  1  0  0  0  0
 21 47  1  0  0  0  0
 22 23  2  0  0  0  0
M  END
$$$$
CHEMBL3353842
 OpenBabel12022418093D

 49 53  0  0  0  0  0  0  0  0999 V2000
    0.6836    0.4906    3.1752 C   0  0  0  0  0  0  0  0  0  0  0  0
    0.8916    1.3283    1.9300 C   0  0  0  0  0  0  0  0  0  0  0  0
    0.0279    0.6469    0.8753 C   0  0  0  0  0  0  0  0  0  0  0  0
   -0.0825   -0.8347    1.2951 C   0  0  0  0  0  0  0  0  0  0  0  0
    0.6795   -0.9265    2.6272 C   0  0  0  0  0  0  0  0  0  0  0  0
   -1.5284   -1.2996    1.4372 C   0  0  0  0  0  0  0  0  0  0  0  0
   -2.4867   -0.5332    1.4568 O   0  0  0  0  0  0  0  0  0  0  0  0
   -1.7676   -2.6978    1.5398 N   0  0  0  0  0  0  0  0  0  0  0  0
   -3.0280   -3.3017    1.7261 C   0  0  0  0  0  0  0  0  0  0  0  0
   -4.3122   -2.7347    1.8764 C   0  0  0  0  0  0  0  0  0  0  0  0
   -5.4131   -3.5766    2.0499 C   0  0  0  0  0  0  0  0  0  0  0  0
   -5.2532   -4.9545    2.0760 C   0  0  0  0  0  0  0  0  0  0  0  0
   -3.9829   -5.5239    1.9255 C   0  0  0  0  0  0  0  0  0  0  0  0
   -2.8505   -4.6952    1.7488 C   0  0  0  0  0  0  0  0  0  0  0  0
   -1.4657   -4.9386    1.5686 C   0  0  0  0  0  0  0  0  0  0  0  0
   -0.8308   -3.7174    1.4602 C   0  0  0  0  0  0  0  0  0  0  0  0
    0.4923   -3.5730    1.2839 N   0  0  0  0  0  0  0  0  0  0  0  0
    1.1598   -4.7304    1.2056 C   0  0  0  0  0  0  0  0  0  0  0  0
    0.5915   -5.9534    1.2966 N   0  0  0  0  0  0  0  0  0  0  0  0
   -0.7363   -6.0863    1.4888 N   0  0  0  0  0  0  0  0  0  0  0  0
    2.8995   -4.4927    0.9281 S   0  0  0  0  0  0  0  0  0  0  0  0
    3.5240   -6.1832    0.7288 C   0  0  0  0  0  0  0  0  0  0  0  0
    5.0153   -6.1501    0.4201 C   0  0  0  0  0  0  0  0  0  0  0  0
    5.4429   -6.1274   -0.9215 C   0  0  0  0  0  0  0  0  0  0  0  0
    6.8026   -6.0824   -1.2443 C   0  0  0  0  0  0  0  0  0  0  0  0
    7.7612   -6.0471   -0.2350 C   0  0  0  0  0  0  0  0  0  0  0  0
    7.3598   -6.0441    1.0998 C   0  0  0  0  0  0  0  0  0  0  0  0
    5.9962   -6.0889    1.4339 C   0  0  0  0  0  0  0  0  0  0  0  0
    5.6382   -6.0635    2.8230 C   0  0  0  0  0  0  0  0  0  0  0  0
    5.3428   -6.0509    3.9481 N   0  0  0  0  0  0  0  0  0  0  0  0
    1.4707    0.6465    3.9185 H   0  0  0  0  0  0  0  0  0  0  0  0
   -0.2820    0.7227    3.6391 H   0  0  0  0  0  0  0  0  0  0  0  0
    1.9452    1.2966    1.6267 H   0  0  0  0  0  0  0  0  0  0  0  0
    0.6143    2.3755    2.0787 H   0  0  0  0  0  0  0  0  0  0  0  0
    0.4957    0.7368   -0.1119 H   0  0  0  0  0  0  0  0  0  0  0  0
   -0.9438    1.1454    0.8093 H   0  0  0  0  0  0  0  0  0  0  0  0
    0.3991   -1.4128    0.5013 H   0  0  0  0  0  0  0  0  0  0  0  0
    0.2465   -1.6262    3.3486 H   0  0  0  0  0  0  0  0  0  0  0  0
    1.7133   -1.2414    2.4348 H   0  0  0  0  0  0  0  0  0  0  0  0
   -4.4691   -1.6585    1.8599 H   0  0  0  0  0  0  0  0  0  0  0  0
   -6.4044   -3.1410    2.1652 H   0  0  0  0  0  0  0  0  0  0  0  0
   -6.1230   -5.5938    2.2145 H   0  0  0  0  0  0  0  0  0  0  0  0
   -3.8735   -6.6055    1.9471 H   0  0  0  0  0  0  0  0  0  0  0  0
    2.9942   -6.6810   -0.0911 H   0  0  0  0  0  0  0  0  0  0  0  0
    3.3346   -6.7701    1.6332 H   0  0  0  0  0  0  0  0  0  0  0  0
    4.7155   -6.1353   -1.7318 H   0  0  0  0  0  0  0  0  0  0  0  0
    7.1154   -6.0674   -2.2865 H   0  0  0  0  0  0  0  0  0  0  0  0
    8.8184   -6.0117   -0.4886 H   0  0  0  0  0  0  0  0  0  0  0  0
    8.1186   -6.0022    1.8814 H   0  0  0  0  0  0  0  0  0  0  0  0
  1  5  1  0  0  0  0
  1  2  1  0  0  0  0
  1 31  1  0  0  0  0
  1 32  1  0  0  0  0
  2  3  1  0  0  0  0
  2 33  1  0  0  0  0
  2 34  1  0  0  0  0
  3  4  1  0  0  0  0
  3 35  1  0  0  0  0
  3 36  1  0  0  0  0
  4  5  1  0  0  0  0
  4  6  1  0  0  0  0
  4 37  1  0  0  0  0
  5 38  1  0  0  0  0
  5 39  1  0  0  0  0
  6  7  2  0  0  0  0
  6  8  1  0  0  0  0
  8 16  1  0  0  0  0
  8  9  1  0  0  0  0
  9 14  2  0  0  0  0
  9 10  1  0  0  0  0
 10 11  2  0  0  0  0
 10 40  1  0  0  0  0
 11 12  1  0  0  0  0
 11 41  1  0  0  0  0
 12 13  2  0  0  0  0
 12 42  1  0  0  0  0
 13 14  1  0  0  0  0
 13 43  1  0  0  0  0
 14 15  1  0  0  0  0
 15 20  2  0  0  0  0
 15 16  1  0  0  0  0
 16 17  2  0  0  0  0
 17 18  1  0  0  0  0
 18 19  2  0  0  0  0
 18 21  1  0  0  0  0
 19 20  1  0  0  0  0
 21 22  1  0  0  0  0
 22 23  1  0  0  0  0
 22 44  1  0  0  0  0
 22 45  1  0  0  0  0
 23 28  2  0  0  0  0
 23 24  1  0  0  0  0
 24 25  2  0  0  0  0
 24 46  1  0  0  0  0
 25 26  1  0  0  0  0
 25 47  1  0  0  0  0
 26 27  2  0  0  0  0
 26 48  1  0  0  0  0
 27 28  1  0  0  0  0
 27 49  1  0  0  0  0
 28 29  1  0  0  0  0
 29 30  3  0  0  0  0
M  END
$$$$
CHEMBL476100
 OpenBabel12022418093D

 42 45  0  0  0  0  0  0  0  0999 V2000
    1.0723   -0.0096   -0.1083 O   0  0  0  0  0  0  0  0  0  0  0  0
    2.2952   -0.0487   -0.0310 C   0  0  0  0  0  0  0  0  0  0  0  0
    3.0692    1.0232    0.7095 C   0  0  0  0  0  0  0  0  0  0  0  0
    2.1023    2.0524    1.2916 C   0  0  0  0  0  0  0  0  0  0  0  0
    2.8200    3.1371    1.9893 C   0  0  0  0  0  0  0  0  0  0  0  0
    3.1907    4.2179    1.2488 O   0  0  0  0  0  0  0  0  0  0  0  0
    3.8448    5.0855    2.1216 N   0  0  0  0  0  0  0  0  0  0  0  0
    3.8161    4.4388    3.3011 C   0  0  0  0  0  0  0  0  0  0  0  0
    4.3728    4.9888    4.5328 C   0  0  0  0  0  0  0  0  0  0  0  0
    4.3792    6.3893    4.7044 C   0  0  0  0  0  0  0  0  0  0  0  0
    4.8805    6.9678    5.8724 C   0  0  0  0  0  0  0  0  0  0  0  0
    5.3794    6.1519    6.8769 C   0  0  0  0  0  0  0  0  0  0  0  0
    5.3956    4.7717    6.7339 C   0  0  0  0  0  0  0  0  0  0  0  0
    4.8990    4.1864    5.5631 C   0  0  0  0  0  0  0  0  0  0  0  0
    5.0327    2.4623    5.4612 Cl  0  0  0  0  0  0  0  0  0  0  0  0
    5.8597    6.7039    7.9980 F   0  0  0  0  0  0  0  0  0  0  0  0
    3.1659    3.2281    3.2494 N   0  0  0  0  0  0  0  0  0  0  0  0
    3.1092   -1.0238   -0.5837 N   0  0  0  0  0  0  0  0  0  0  0  0
    2.6854   -2.0504   -1.4616 C   0  0  0  0  0  0  0  0  0  0  0  0
    3.5555   -3.0845   -1.7865 C   0  0  0  0  0  0  0  0  0  0  0  0
    3.2700   -4.0960   -2.6460 N   0  0  0  0  0  0  0  0  0  0  0  0
    2.0602   -4.0975   -3.2346 C   0  0  0  0  0  0  0  0  0  0  0  0
    1.7251   -5.0959   -4.1416 C   0  0  0  0  0  0  0  0  0  0  0  0
    0.4820   -5.1203   -4.7857 C   0  0  0  0  0  0  0  0  0  0  0  0
   -0.4579   -4.1328   -4.5187 C   0  0  0  0  0  0  0  0  0  0  0  0
   -0.1502   -3.1233   -3.6110 C   0  0  0  0  0  0  0  0  0  0  0  0
    1.1012   -3.0986   -2.9725 C   0  0  0  0  0  0  0  0  0  0  0  0
    1.4359   -2.0762   -2.0735 C   0  0  0  0  0  0  0  0  0  0  0  0
    3.7586    1.5035    0.0042 H   0  0  0  0  0  0  0  0  0  0  0  0
    3.6624    0.5558    1.5044 H   0  0  0  0  0  0  0  0  0  0  0  0
    1.4219    1.5641    2.0006 H   0  0  0  0  0  0  0  0  0  0  0  0
    1.4735    2.4795    0.5007 H   0  0  0  0  0  0  0  0  0  0  0  0
    3.9839    7.0422    3.9265 H   0  0  0  0  0  0  0  0  0  0  0  0
    4.8821    8.0459    6.0025 H   0  0  0  0  0  0  0  0  0  0  0  0
    5.8034    4.1628    7.5351 H   0  0  0  0  0  0  0  0  0  0  0  0
    4.0820   -1.0405   -0.3001 H   0  0  0  0  0  0  0  0  0  0  0  0
    4.5475   -3.1499   -1.3488 H   0  0  0  0  0  0  0  0  0  0  0  0
    2.4534   -5.8725   -4.3593 H   0  0  0  0  0  0  0  0  0  0  0  0
    0.2547   -5.9107   -5.4966 H   0  0  0  0  0  0  0  0  0  0  0  0
   -1.4254   -4.1443   -5.0129 H   0  0  0  0  0  0  0  0  0  0  0  0
   -0.8910   -2.3500   -3.4062 H   0  0  0  0  0  0  0  0  0  0  0  0
    0.7055   -1.2947   -1.8936 H   0  0  0  0  0  0  0  0  0  0  0  0
  1  2  2  0  0  0  0
  2  3  1  0  0  0  0
  2 18  1  0  0  0  0
  3  4  1  0  0  0  0
  3 29  1  0  0  0  0
  3 30  1  0  0  0  0
  4  5  1  0  0  0  0
  4 31  1  0  0  0  0
  4 32  1  0  0  0  0
  5 17  2  0  0  0  0
  5  6  1  0  0  0  0
  6  7  1  0  0  0  0
  7  8  2  0  0  0  0
  8  9  1  0  0  0  0
  8 17  1  0  0  0  0
  9 14  2  0  0  0  0
  9 10  1  0  0  0  0
 10 11  2  0  0  0  0
 10 33  1  0  0  0  0
 11 12  1  0  0  0  0
 11 34  1  0  0  0  0
 12 13  2  0  0  0  0
 12 16  1  0  0  0  0
 13 14  1  0  0  0  0
 13 35  1  0  0  0  0
 14 15  1  0  0  0  0
 18 19  1  0  0  0  0
 18 36  1  0  0  0  0
 19 28  2  0  0  0  0
 19 20  1  0  0  0  0
 20 21  2  0  0  0  0
 20 37  1  0  0  0  0
 21 22  1  0  0  0  0
 22 27  2  0  0  0  0
 22 23  1  0  0  0  0
 23 24  2  0  0  0  0
 23 38  1  0  0  0  0
 24 25  1  0  0  0  0
 24 39  1  0  0  0  0
 25 26  2  0  0  0  0
 25 40  1  0  0  0  0
 26 27  1  0  0  0  0
 26 41  1  0  0  0  0
 27 28  1  0  0  0  0
 28 42  1  0  0  0  0
M  END
$$$$
CHEMBL578179
 OpenBabel12022418093D

 52 55  0  0  0  0  0  0  0  0999 V2000
    2.0352    1.5210   -2.5790 C   0  0  0  0  0  0  0  0  0  0  0  0
    1.1893    0.6957   -1.6288 C   0  0  0  0  0  0  0  0  0  0  0  0
   -0.2743    1.0756   -1.7508 C   0  0  0  0  0  0  0  0  0  0  0  0
    1.5005   -0.7945   -1.4365 C   0  0  0  0  0  0  0  0  0  0  0  0
    2.6097   -1.5081   -2.1547 C   0  0  0  0  0  0  0  0  0  0  0  0
    3.4513   -0.9047   -2.8111 O   0  0  0  0  0  0  0  0  0  0  0  0
    2.5849   -2.9655   -2.1034 C   0  0  0  0  0  0  0  0  0  0  0  0
    3.0628   -3.7517   -3.1419 C   0  0  0  0  0  0  0  0  0  0  0  0
    2.9223   -5.0711   -2.8142 N   0  0  0  0  0  0  0  0  0  0  0  0
    3.2812   -6.2024   -3.6614 C   0  0  0  0  0  0  0  0  0  0  0  0
    4.4424   -5.9580   -4.6331 C   0  0  0  0  0  0  0  0  0  0  0  0
    4.7394   -7.1749   -5.4678 C   0  0  0  0  0  0  0  0  0  0  0  0
    4.0862   -7.3947   -6.6843 C   0  0  0  0  0  0  0  0  0  0  0  0
    4.3689   -8.5393   -7.4229 C   0  0  0  0  0  0  0  0  0  0  0  0
    5.2934   -9.4345   -6.9162 C   0  0  0  0  0  0  0  0  0  0  0  0
    5.9418   -9.2595   -5.7442 N   0  0  0  0  0  0  0  0  0  0  0  0
    5.6526   -8.1362   -5.0492 C   0  0  0  0  0  0  0  0  0  0  0  0
    2.3291   -5.1748   -1.5681 C   0  0  0  0  0  0  0  0  0  0  0  0
    1.9556   -6.3044   -0.8182 C   0  0  0  0  0  0  0  0  0  0  0  0
    1.3892   -6.1092    0.4434 C   0  0  0  0  0  0  0  0  0  0  0  0
    1.2046   -4.8295    0.9509 C   0  0  0  0  0  0  0  0  0  0  0  0
    1.5734   -3.7119    0.1962 C   0  0  0  0  0  0  0  0  0  0  0  0
    2.1286   -3.8713   -1.0915 C   0  0  0  0  0  0  0  0  0  0  0  0
    1.7510    0.1772   -0.2861 C   0  0  0  0  0  0  0  0  0  0  0  0
    3.1643    0.5217    0.1312 C   0  0  0  0  0  0  0  0  0  0  0  0
    0.8414    0.0546    0.9224 C   0  0  0  0  0  0  0  0  0  0  0  0
    1.7579    2.5796   -2.5179 H   0  0  0  0  0  0  0  0  0  0  0  0
    1.8589    1.1923   -3.6098 H   0  0  0  0  0  0  0  0  0  0  0  0
    3.1082    1.4732   -2.3916 H   0  0  0  0  0  0  0  0  0  0  0  0
   -0.3977    2.1569   -1.6270 H   0  0  0  0  0  0  0  0  0  0  0  0
   -0.9198    0.5867   -1.0182 H   0  0  0  0  0  0  0  0  0  0  0  0
   -0.6471    0.8019   -2.7440 H   0  0  0  0  0  0  0  0  0  0  0  0
    0.6104   -1.4172   -1.3621 H   0  0  0  0  0  0  0  0  0  0  0  0
    3.4829   -3.4341   -4.0877 H   0  0  0  0  0  0  0  0  0  0  0  0
    2.3683   -6.4789   -4.2024 H   0  0  0  0  0  0  0  0  0  0  0  0
    3.5442   -7.0353   -2.9987 H   0  0  0  0  0  0  0  0  0  0  0  0
    5.3428   -5.6580   -4.0816 H   0  0  0  0  0  0  0  0  0  0  0  0
    4.2156   -5.1265   -5.3111 H   0  0  0  0  0  0  0  0  0  0  0  0
    3.3636   -6.6768   -7.0650 H   0  0  0  0  0  0  0  0  0  0  0  0
    3.8785   -8.7284   -8.3712 H   0  0  0  0  0  0  0  0  0  0  0  0
    5.5471  -10.3448   -7.4548 H   0  0  0  0  0  0  0  0  0  0  0  0
    6.2035   -8.0297   -4.1177 H   0  0  0  0  0  0  0  0  0  0  0  0
    2.1010   -7.3121   -1.1943 H   0  0  0  0  0  0  0  0  0  0  0  0
    1.0971   -6.9713    1.0400 H   0  0  0  0  0  0  0  0  0  0  0  0
    0.7720   -4.6944    1.9389 H   0  0  0  0  0  0  0  0  0  0  0  0
    1.4301   -2.7254    0.6214 H   0  0  0  0  0  0  0  0  0  0  0  0
    3.8789    0.5676   -0.6918 H   0  0  0  0  0  0  0  0  0  0  0  0
    3.5406   -0.2284    0.8357 H   0  0  0  0  0  0  0  0  0  0  0  0
    3.1734    1.4934    0.6372 H   0  0  0  0  0  0  0  0  0  0  0  0
   -0.1323   -0.3835    0.6847 H   0  0  0  0  0  0  0  0  0  0  0  0
    0.6795    1.0357    1.3788 H   0  0  0  0  0  0  0  0  0  0  0  0
    1.2982   -0.5969    1.6762 H   0  0  0  0  0  0  0  0  0  0  0  0
  1  2  1  0  0  0  0
  1 27  1  0  0  0  0
  1 28  1  0  0  0  0
  1 29  1  0  0  0  0
  2 24  1  0  0  0  0
  2  3  1  0  0  0  0
  2  4  1  0  0  0  0
  3 30  1  0  0  0  0
  3 31  1  0  0  0  0
  3 32  1  0  0  0  0
  4  5  1  0  0  0  0
  4 24  1  0  0  0  0
  4 33  1  0  0  0  0
  5  6  2  0  0  0  0
  5  7  1  0  0  0  0
  7 23  1  0  0  0  0
  7  8  2  0  0  0  0
  8  9  1  0  0  0  0
  8 34  1  0  0  0  0
  9 10  1  0  0  0  0
  9 18  1  0  0  0  0
 10 11  1  0  0  0  0
 10 35  1  0  0  0  0
 10 36  1  0  0  0  0
 11 12  1  0  0  0  0
 11 37  1  0  0  0  0
 11 38  1  0  0  0  0
 12 17  2  0  0  0  0
 12 13  1  0  0  0  0
 13 14  2  0  0  0  0
 13 39  1  0  0  0  0
 14 15  1  0  0  0  0
 14 40  1  0  0  0  0
 15 16  2  0  0  0  0
 15 41  1  0  0  0  0
 16 17  1  0  0  0  0
 17 42  1  0  0  0  0
 18 23  2  0  0  0  0
 18 19  1  0  0  0  0
 19 20  2  0  0  0  0
 19 43  1  0  0  0  0
 20 21  1  0  0  0  0
 20 44  1  0  0  0  0
 21 22  2  0  0  0  0
 21 45  1  0  0  0  0
 22 23  1  0  0  0  0
 22 46  1  0  0  0  0
 24 25  1  0  0  0  0
 24 26  1  0  0  0  0
 25 47  1  0  0  0  0
 25 48  1  0  0  0  0
 25 49  1  0  0  0  0
 26 50  1  0  0  0  0
 26 51  1  0  0  0  0
 26 52  1  0  0  0  0
M  END
$$$$
CHEMBL584528
 OpenBabel12022418093D

 48 51  0  0  1  0  0  0  0  0999 V2000
    0.0528   -1.6014   -1.7515 C   0  0  0  0  0  0  0  0  0  0  0  0
    1.1982   -1.2598   -0.7874 C   0  0  2  0  0  0  0  0  0  0  0  0
    0.9725    0.1297   -0.0865 C   0  0  0  0  0  0  0  0  0  0  0  0
    1.4357    1.1758   -0.5492 O   0  0  0  0  0  0  0  0  0  0  0  0
    0.1855    0.1387    1.1515 C   0  0  0  0  0  0  0  0  0  0  0  0
   -0.6872   -0.8504    1.5637 C   0  0  0  0  0  0  0  0  0  0  0  0
   -1.1739   -0.5284    2.8029 N   0  0  0  0  0  0  0  0  0  0  0  0
   -2.0680   -1.3892    3.5573 C   0  0  0  0  0  0  0  0  0  0  0  0
   -3.5622   -1.1040    3.3191 C   0  0  0  0  0  0  0  0  0  0  0  0
   -4.3887   -1.9555    4.2959 C   0  0  0  0  0  0  0  0  0  0  0  0
   -5.8679   -1.9778    3.9438 C   0  0  0  0  0  0  0  0  0  0  0  0
   -6.0503   -2.3788    2.5892 O   0  0  0  0  0  0  0  0  0  0  0  0
   -5.4842   -1.4349    1.6854 C   0  0  0  0  0  0  0  0  0  0  0  0
   -3.9741   -1.3737    1.8605 C   0  0  0  0  0  0  0  0  0  0  0  0
   -0.6411    0.6658    3.2266 C   0  0  0  0  0  0  0  0  0  0  0  0
   -0.7926    1.3649    4.4343 C   0  0  0  0  0  0  0  0  0  0  0  0
   -0.1209    2.5800    4.5816 C   0  0  0  0  0  0  0  0  0  0  0  0
    0.6613    3.0919    3.5531 C   0  0  0  0  0  0  0  0  0  0  0  0
    0.8173    2.3830    2.3567 C   0  0  0  0  0  0  0  0  0  0  0  0
    0.1701    1.1360    2.1870 C   0  0  0  0  0  0  0  0  0  0  0  0
    2.5976   -1.4111   -1.4708 C   0  0  0  0  0  0  0  0  0  0  0  0
    2.6643   -2.8592   -0.9540 C   0  0  0  0  0  0  0  0  0  0  0  0
    1.6478   -2.4321    0.1494 C   0  0  0  0  0  0  0  0  0  0  0  0
    2.2097   -2.0604    1.3271 F   0  0  0  0  0  0  0  0  0  0  0  0
    0.6907   -3.3430    0.4561 F   0  0  0  0  0  0  0  0  0  0  0  0
    3.8792   -3.2714   -0.5243 F   0  0  0  0  0  0  0  0  0  0  0  0
    2.2286   -3.8010   -1.8262 F   0  0  0  0  0  0  0  0  0  0  0  0
    0.2254   -2.5434   -2.2820 H   0  0  0  0  0  0  0  0  0  0  0  0
   -0.0654   -0.8155   -2.5051 H   0  0  0  0  0  0  0  0  0  0  0  0
   -0.8999   -1.7016   -1.2229 H   0  0  0  0  0  0  0  0  0  0  0  0
   -0.9986   -1.7725    1.0939 H   0  0  0  0  0  0  0  0  0  0  0  0
   -1.8132   -1.2807    4.6174 H   0  0  0  0  0  0  0  0  0  0  0  0
   -1.8243   -2.4249    3.2855 H   0  0  0  0  0  0  0  0  0  0  0  0
   -3.7657   -0.0459    3.5332 H   0  0  0  0  0  0  0  0  0  0  0  0
   -4.2581   -1.5831    5.3191 H   0  0  0  0  0  0  0  0  0  0  0  0
   -4.0125   -2.9861    4.2767 H   0  0  0  0  0  0  0  0  0  0  0  0
   -6.3364   -1.0007    4.1056 H   0  0  0  0  0  0  0  0  0  0  0  0
   -6.3864   -2.7030    4.5789 H   0  0  0  0  0  0  0  0  0  0  0  0
   -5.9484   -0.4533    1.8378 H   0  0  0  0  0  0  0  0  0  0  0  0
   -5.7257   -1.7587    0.6680 H   0  0  0  0  0  0  0  0  0  0  0  0
   -3.5495   -2.3325    1.5384 H   0  0  0  0  0  0  0  0  0  0  0  0
   -3.5708   -0.5978    1.1996 H   0  0  0  0  0  0  0  0  0  0  0  0
   -1.3997    0.9745    5.2437 H   0  0  0  0  0  0  0  0  0  0  0  0
   -0.2129    3.1318    5.5148 H   0  0  0  0  0  0  0  0  0  0  0  0
    1.1679    4.0452    3.6805 H   0  0  0  0  0  0  0  0  0  0  0  0
    1.4412    2.7890    1.5644 H   0  0  0  0  0  0  0  0  0  0  0  0
    3.3826   -0.7723   -1.0479 H   0  0  0  0  0  0  0  0  0  0  0  0
    2.6173   -1.3061   -2.5592 H   0  0  0  0  0  0  0  0  0  0  0  0
  1 28  1  0  0  0  0
  1 29  1  0  0  0  0
  1 30  1  0  0  0  0
  2 23  1  0  0  0  0
  2 21  1  0  0  0  0
  2  3  1  1  0  0  0
  2  1  1  0  0  0  0
  3  4  2  0  0  0  0
  3  5  1  0  0  0  0
  5 20  1  0  0  0  0
  5  6  2  0  0  0  0
  6  7  1  0  0  0  0
  6 31  1  0  0  0  0
  7  8  1  0  0  0  0
  7 15  1  0  0  0  0
  8  9  1  0  0  0  0
  8 32  1  0  0  0  0
  8 33  1  0  0  0  0
  9 14  1  0  0  0  0
  9 10  1  0  0  0  0
  9 34  1  0  0  0  0
 10 11  1  0  0  0  0
 10 35  1  0  0  0  0
 10 36  1  0  0  0  0
 11 12  1  0  0  0  0
 11 37  1  0  0  0  0
 11 38  1  0  0  0  0
 12 13  1  0  0  0  0
 13 14  1  0  0  0  0
 13 39  1  0  0  0  0
 13 40  1  0  0  0  0
 14 41  1  0  0  0  0
 14 42  1  0  0  0  0
 15 20  2  0  0  0  0
 15 16  1  0  0  0  0
 16 17  2  0  0  0  0
 16 43  1  0  0  0  0
 17 18  1  0  0  0  0
 17 44  1  0  0  0  0
 18 19  2  0  0  0  0
 18 45  1  0  0  0  0
 19 20  1  0  0  0  0
 19 46  1  0  0  0  0
 21 22  1  0  0  0  0
 21 47  1  0  0  0  0
 21 48  1  0  0  0  0
 22 23  1  0  0  0  0
 22 26  1  0  0  0  0
 22 27  1  0  0  0  0
 23 24  1  0  0  0  0
 23 25  1  0  0  0  0
M  END
$$$$
CHEMBL3919875
 OpenBabel12022418093D

 50 51  0  0  0  0  0  0  0  0999 V2000
    3.3570    0.9128    1.1010 C   0  0  0  0  0  0  0  0  0  0  0  0
    2.7015    0.0391    0.0364 C   0  0  0  0  0  0  0  0  0  0  0  0
    3.1253   -1.4702    0.0423 C   0  0  0  0  0  0  0  0  0  0  0  0
    2.6668   -2.1808    1.3502 C   0  0  0  0  0  0  0  0  0  0  0  0
    1.1793   -2.1020    1.6917 C   0  0  0  0  0  0  0  0  0  0  0  0
    2.4175   -2.1779   -1.1874 C   0  0  0  0  0  0  0  0  0  0  0  0
    1.3501   -1.6988   -1.6043 O   0  0  0  0  0  0  0  0  0  0  0  0
    2.8539   -3.4024   -1.7001 N   0  0  0  0  0  0  0  0  0  0  0  0
    4.0048   -4.1952   -1.2938 C   0  0  0  0  0  0  0  0  0  0  0  0
    2.0769   -4.0013   -2.7783 C   0  0  0  0  0  0  0  0  0  0  0  0
    4.5927   -1.5665   -0.0396 N   0  0  0  0  0  0  0  0  0  0  0  0
    5.3225   -1.0830   -1.1068 C   0  0  0  0  0  0  0  0  0  0  0  0
    4.8359   -0.5877   -2.1104 O   0  0  0  0  0  0  0  0  0  0  0  0
    6.8035   -1.2247   -0.9711 C   0  0  0  0  0  0  0  0  0  0  0  0
    7.6063   -0.6893   -1.9663 C   0  0  0  0  0  0  0  0  0  0  0  0
    8.9790   -0.8310   -1.8353 C   0  0  0  0  0  0  0  0  0  0  0  0
    9.4883   -1.4967   -0.7246 C   0  0  0  0  0  0  0  0  0  0  0  0
    8.6141   -2.0063    0.2436 C   0  0  0  0  0  0  0  0  0  0  0  0
    9.1015   -2.6815    1.4629 C   0  0  0  0  0  0  0  0  0  0  0  0
    8.3748   -3.7306    2.0529 C   0  0  0  0  0  0  0  0  0  0  0  0
    8.8339   -4.3552    3.2169 C   0  0  0  0  0  0  0  0  0  0  0  0
   10.0244   -3.9462    3.8177 C   0  0  0  0  0  0  0  0  0  0  0  0
   10.7590   -2.9108    3.2521 C   0  0  0  0  0  0  0  0  0  0  0  0
   10.3001   -2.2862    2.0896 C   0  0  0  0  0  0  0  0  0  0  0  0
    7.9225   -5.6351    3.9171 Cl  0  0  0  0  0  0  0  0  0  0  0  0
    7.2674   -1.8849    0.1272 N   0  0  0  0  0  0  0  0  0  0  0  0
    3.1189    1.9652    0.9068 H   0  0  0  0  0  0  0  0  0  0  0  0
    4.4471    0.8217    1.0953 H   0  0  0  0  0  0  0  0  0  0  0  0
    2.9906    0.6701    2.1018 H   0  0  0  0  0  0  0  0  0  0  0  0
    2.9331    0.4789   -0.9414 H   0  0  0  0  0  0  0  0  0  0  0  0
    1.6143    0.1385    0.1319 H   0  0  0  0  0  0  0  0  0  0  0  0
    3.2231   -1.7681    2.2022 H   0  0  0  0  0  0  0  0  0  0  0  0
    2.9411   -3.2424    1.3068 H   0  0  0  0  0  0  0  0  0  0  0  0
    0.8345   -1.0709    1.8074 H   0  0  0  0  0  0  0  0  0  0  0  0
    0.9922   -2.6070    2.6465 H   0  0  0  0  0  0  0  0  0  0  0  0
    0.5632   -2.5959    0.9350 H   0  0  0  0  0  0  0  0  0  0  0  0
    4.5999   -3.7695   -0.4957 H   0  0  0  0  0  0  0  0  0  0  0  0
    4.6495   -4.3439   -2.1694 H   0  0  0  0  0  0  0  0  0  0  0  0
    3.6477   -5.1703   -0.9527 H   0  0  0  0  0  0  0  0  0  0  0  0
    1.3198   -3.3292   -3.1888 H   0  0  0  0  0  0  0  0  0  0  0  0
    1.5812   -4.8941   -2.3858 H   0  0  0  0  0  0  0  0  0  0  0  0
    2.7505   -4.2912   -3.5918 H   0  0  0  0  0  0  0  0  0  0  0  0
    5.1279   -1.8384    0.7767 H   0  0  0  0  0  0  0  0  0  0  0  0
    7.1760   -0.1765   -2.8182 H   0  0  0  0  0  0  0  0  0  0  0  0
    9.6465   -0.4241   -2.5901 H   0  0  0  0  0  0  0  0  0  0  0  0
   10.5624   -1.6158   -0.6292 H   0  0  0  0  0  0  0  0  0  0  0  0
    7.4452   -4.0680    1.6003 H   0  0  0  0  0  0  0  0  0  0  0  0
   10.3754   -4.4280    4.7265 H   0  0  0  0  0  0  0  0  0  0  0  0
   11.6846   -2.5818    3.7166 H   0  0  0  0  0  0  0  0  0  0  0  0
   10.8886   -1.4637    1.6884 H   0  0  0  0  0  0  0  0  0  0  0  0
  1  2  1  0  0  0  0
  1 27  1  0  0  0  0
  1 28  1  0  0  0  0
  1 29  1  0  0  0  0
  2  3  1  0  0  0  0
  2 30  1  0  0  0  0
  2 31  1  0  0  0  0
  3  4  1  0  0  0  0
  3  6  1  0  0  0  0
  3 11  1  0  0  0  0
  4  5  1  0  0  0  0
  4 32  1  0  0  0  0
  4 33  1  0  0  0  0
  5 34  1  0  0  0  0
  5 35  1  0  0  0  0
  5 36  1  0  0  0  0
  6  7  2  0  0  0  0
  6  8  1  0  0  0  0
  8  9  1  0  0  0  0
  8 10  1  0  0  0  0
  9 37  1  0  0  0  0
  9 38  1  0  0  0  0
  9 39  1  0  0  0  0
 10 40  1  0  0  0  0
 10 41  1  0  0  0  0
 10 42  1  0  0  0  0
 11 12  1  0  0  0  0
 11 43  1  0  0  0  0
 12 13  2  0  0  0  0
 12 14  1  0  0  0  0
 14 26  2  0  0  0  0
 14 15  1  0  0  0  0
 15 16  2  0  0  0  0
 15 44  1  0  0  0  0
 16 17  1  0  0  0  0
 16 45  1  0  0  0  0
 17 18  2  0  0  0  0
 17 46  1  0  0  0  0
 18 19  1  0  0  0  0
 18 26  1  0  0  0  0
 19 24  2  0  0  0  0
 19 20  1  0  0  0  0
 20 21  2  0  0  0  0
 20 47  1  0  0  0  0
 21 22  1  0  0  0  0
 21 25  1  0  0  0  0
 22 23  2  0  0  0  0
 22 48  1  0  0  0  0
 23 24  1  0  0  0  0
 23 49  1  0  0  0  0
 24 50  1  0  0  0  0
M  END
$$$$
CHEMBL3929481
 OpenBabel12022418093D

 60 62  0  0  1  0  0  0  0  0999 V2000
   -1.7317   -0.8995   -1.5470 C   0  0  0  0  0  0  0  0  0  0  0  0
   -0.2791   -0.5915   -1.1927 C   0  0  1  0  0  0  0  0  0  0  0  0
   -0.1116    0.9403   -1.0866 C   0  0  0  0  0  0  0  0  0  0  0  0
    0.8837    1.1413    0.0373 C   0  0  0  0  0  0  0  0  0  0  0  0
    0.5709    0.0026    0.9956 C   0  0  0  0  0  0  0  0  0  0  0  0
    0.1084   -1.0928    0.1370 N   0  0  0  0  0  0  0  0  0  0  0  0
    0.1828   -2.4167    0.5374 C   0  0  0  0  0  0  0  0  0  0  0  0
    0.1590   -3.5621   -0.2931 C   0  0  0  0  0  0  0  0  0  0  0  0
    0.1273   -4.8469    0.1637 N   0  0  0  0  0  0  0  0  0  0  0  0
    0.2001   -5.0482    1.4986 C   0  0  0  0  0  0  0  0  0  0  0  0
    0.3237   -4.0249    2.4078 C   0  0  0  0  0  0  0  0  0  0  0  0
    0.2970   -2.7175    1.9154 C   0  0  0  0  0  0  0  0  0  0  0  0
    0.1184   -6.4830    1.9439 C   0  0  0  0  0  0  0  0  0  0  0  0
    0.2242   -6.8073    3.1184 O   0  0  0  0  0  0  0  0  0  0  0  0
   -0.1051   -7.3701    0.9118 N   0  0  0  0  0  0  0  0  0  0  0  0
   -0.3995   -8.7892    1.0981 C   0  0  1  0  0  0  0  0  0  0  0  0
   -1.8788   -9.0686    1.4422 C   0  0  0  0  0  0  0  0  0  0  0  0
   -2.9148   -8.8471    0.3121 C   0  0  0  0  0  0  0  0  0  0  0  0
   -4.2978   -9.3548    0.7452 C   0  0  0  0  0  0  0  0  0  0  0  0
   -3.0574   -7.3885   -0.1218 C   0  0  0  0  0  0  0  0  0  0  0  0
    0.0464   -9.6418   -0.1098 C   0  0  0  0  0  0  0  0  0  0  0  0
   -0.0662  -10.8624   -0.1586 O   0  0  0  0  0  0  0  0  0  0  0  0
    0.5581   -8.9582   -1.1822 N   0  0  0  0  0  0  0  0  0  0  0  0
    0.2001   -3.4276   -1.6768 O   0  0  0  0  0  0  0  0  0  0  0  0
    0.7842   -4.5908   -2.2876 C   0  0  0  0  0  0  0  0  0  0  0  0
    0.7205   -4.5852   -3.7857 C   0  0  0  0  0  0  0  0  0  0  0  0
    0.0565   -3.4980   -4.5963 C   0  0  0  0  0  0  0  0  0  0  0  0
    1.5530   -3.6331   -4.6064 C   0  0  0  0  0  0  0  0  0  0  0  0
   -1.9723   -0.4988   -2.5382 H   0  0  0  0  0  0  0  0  0  0  0  0
   -2.4242   -0.4415   -0.8284 H   0  0  0  0  0  0  0  0  0  0  0  0
   -1.9441   -1.9696   -1.5574 H   0  0  0  0  0  0  0  0  0  0  0  0
    0.4078   -0.9707   -1.9573 H   0  0  0  0  0  0  0  0  0  0  0  0
   -1.0558    1.4359   -0.8273 H   0  0  0  0  0  0  0  0  0  0  0  0
    0.2381    1.3787   -2.0275 H   0  0  0  0  0  0  0  0  0  0  0  0
    0.7851    2.1210    0.5154 H   0  0  0  0  0  0  0  0  0  0  0  0
    1.9064    1.0496   -0.3430 H   0  0  0  0  0  0  0  0  0  0  0  0
   -0.2225    0.2903    1.6957 H   0  0  0  0  0  0  0  0  0  0  0  0
    1.4756   -0.2494    1.5602 H   0  0  0  0  0  0  0  0  0  0  0  0
    0.4116   -4.2245    3.4704 H   0  0  0  0  0  0  0  0  0  0  0  0
    0.3474   -1.9202    2.6525 H   0  0  0  0  0  0  0  0  0  0  0  0
   -0.3009   -6.9328    0.0193 H   0  0  0  0  0  0  0  0  0  0  0  0
    0.2138   -9.1215    1.9454 H   0  0  0  0  0  0  0  0  0  0  0  0
   -2.1688   -8.4860    2.3251 H   0  0  0  0  0  0  0  0  0  0  0  0
   -1.9414  -10.1257    1.7404 H   0  0  0  0  0  0  0  0  0  0  0  0
   -2.6120   -9.4400   -0.5595 H   0  0  0  0  0  0  0  0  0  0  0  0
   -4.8329   -8.6053    1.3391 H   0  0  0  0  0  0  0  0  0  0  0  0
   -4.2333  -10.2732    1.3364 H   0  0  0  0  0  0  0  0  0  0  0  0
   -4.9091   -9.5723   -0.1384 H   0  0  0  0  0  0  0  0  0  0  0  0
   -3.2863   -6.7429    0.7332 H   0  0  0  0  0  0  0  0  0  0  0  0
   -3.8658   -7.2804   -0.8528 H   0  0  0  0  0  0  0  0  0  0  0  0
   -2.1583   -7.0142   -0.6100 H   0  0  0  0  0  0  0  0  0  0  0  0
    0.9844   -8.0545   -1.0364 H   0  0  0  0  0  0  0  0  0  0  0  0
    0.9293   -9.5337   -1.9283 H   0  0  0  0  0  0  0  0  0  0  0  0
    0.2433   -5.4973   -1.9892 H   0  0  0  0  0  0  0  0  0  0  0  0
    1.8320   -4.6771   -1.9723 H   0  0  0  0  0  0  0  0  0  0  0  0
    0.6607   -5.6003   -4.1634 H   0  0  0  0  0  0  0  0  0  0  0  0
   -0.3681   -2.6436   -4.0801 H   0  0  0  0  0  0  0  0  0  0  0  0
   -0.4932   -3.8082   -5.4729 H   0  0  0  0  0  0  0  0  0  0  0  0
    2.0248   -4.0259   -5.5022 H   0  0  0  0  0  0  0  0  0  0  0  0
    2.1412   -2.8787   -4.0932 H   0  0  0  0  0  0  0  0  0  0  0  0
  1 29  1  0  0  0  0
  1 30  1  0  0  0  0
  1 31  1  0  0  0  0
  2  1  1  0  0  0  0
  2  3  1  0  0  0  0
  2  6  1  0  0  0  0
  2 32  1  6  0  0  0
  3  4  1  0  0  0  0
  3 33  1  0  0  0  0
  3 34  1  0  0  0  0
  4  5  1  0  0  0  0
  4 35  1  0  0  0  0
  4 36  1  0  0  0  0
  5  6  1  0  0  0  0
  5 37  1  0  0  0  0
  5 38  1  0  0  0  0
  6  7  1  0  0  0  0
  7 12  2  0  0  0  0
  7  8  1  0  0  0  0
  8  9  2  0  0  0  0
  8 24  1  0  0  0  0
  9 10  1  0  0  0  0
 10 11  2  0  0  0  0
 10 13  1  0  0  0  0
 11 12  1  0  0  0  0
 11 39  1  0  0  0  0
 12 40  1  0  0  0  0
 13 14  2  0  0  0  0
 13 15  1  0  0  0  0
 15 16  1  0  0  0  0
 15 41  1  0  0  0  0
 16 17  1  0  0  0  0
 16 21  1  0  0  0  0
 16 42  1  1  0  0  0
 17 18  1  0  0  0  0
 17 43  1  0  0  0  0
 17 44  1  0  0  0  0
 18 19  1  0  0  0  0
 18 20  1  0  0  0  0
 18 45  1  0  0  0  0
 19 46  1  0  0  0  0
 19 47  1  0  0  0  0
 19 48  1  0  0  0  0
 20 49  1  0  0  0  0
 20 50  1  0  0  0  0
 20 51  1  0  0  0  0
 21 22  2  0  0  0  0
 21 23  1  0  0  0  0
 23 52  1  0  0  0  0
 23 53  1  0  0  0  0
 24 25  1  0  0  0  0
 25 26  1  0  0  0  0
 25 54  1  0  0  0  0
 25 55  1  0  0  0  0
 26 28  1  0  0  0  0
 26 27  1  0  0  0  0
 26 56  1  0  0  0  0
 27 28  1  0  0  0  0
 27 57  1  0  0  0  0
 27 58  1  0  0  0  0
 28 59  1  0  0  0  0
 28 60  1  0  0  0  0
M  END
$$$$
CHEMBL568807
 OpenBabel12022418093D

 55 58  0  0  0  0  0  0  0  0999 V2000
    1.9720    1.5787   -2.5431 C   0  0  0  0  0  0  0  0  0  0  0  0
    1.1263    0.7540   -1.5918 C   0  0  0  0  0  0  0  0  0  0  0  0
   -0.3328    1.1579   -1.6875 C   0  0  0  0  0  0  0  0  0  0  0  0
    1.4126   -0.7427   -1.4217 C   0  0  0  0  0  0  0  0  0  0  0  0
    2.4954   -1.4720   -2.1606 C   0  0  0  0  0  0  0  0  0  0  0  0
    3.3359   -0.8833   -2.8302 O   0  0  0  0  0  0  0  0  0  0  0  0
    2.4392   -2.9309   -2.1138 C   0  0  0  0  0  0  0  0  0  0  0  0
    2.8972   -3.7255   -3.1528 C   0  0  0  0  0  0  0  0  0  0  0  0
    2.7070   -5.0359   -2.8255 N   0  0  0  0  0  0  0  0  0  0  0  0
    3.1103   -6.1541   -3.6696 C   0  0  0  0  0  0  0  0  0  0  0  0
    1.9726   -6.6356   -4.5830 C   0  0  0  0  0  0  0  0  0  0  0  0
    2.3118   -7.8454   -5.3593 N   0  0  0  0  0  0  0  0  0  0  0  0
    3.4017   -7.6508   -6.3263 C   0  0  0  0  0  0  0  0  0  0  0  0
    2.7345   -7.1814   -7.6013 C   0  0  0  0  0  0  0  0  0  0  0  0
    1.4291   -7.9492   -7.6156 C   0  0  0  0  0  0  0  0  0  0  0  0
    1.1564   -8.3037   -6.1566 C   0  0  0  0  0  0  0  0  0  0  0  0
    2.1462   -5.1367   -1.5702 C   0  0  0  0  0  0  0  0  0  0  0  0
    1.7931   -6.2634   -0.8109 C   0  0  0  0  0  0  0  0  0  0  0  0
    1.2590   -6.0648    0.4634 C   0  0  0  0  0  0  0  0  0  0  0  0
    1.0870   -4.7826    0.9681 C   0  0  0  0  0  0  0  0  0  0  0  0
    1.4438   -3.6664    0.2049 C   0  0  0  0  0  0  0  0  0  0  0  0
    1.9729   -3.8286   -1.0951 C   0  0  0  0  0  0  0  0  0  0  0  0
    1.6987    0.2097   -0.2634 C   0  0  0  0  0  0  0  0  0  0  0  0
    3.1246    0.5233    0.1349 C   0  0  0  0  0  0  0  0  0  0  0  0
    0.8055    0.0841    0.9562 C   0  0  0  0  0  0  0  0  0  0  0  0
    1.7199    2.6410   -2.4564 H   0  0  0  0  0  0  0  0  0  0  0  0
    1.7682    1.2728   -3.5761 H   0  0  0  0  0  0  0  0  0  0  0  0
    3.0476    1.5023   -2.3789 H   0  0  0  0  0  0  0  0  0  0  0  0
   -0.4388    2.2384   -1.5391 H   0  0  0  0  0  0  0  0  0  0  0  0
   -0.9759    0.6623   -0.9573 H   0  0  0  0  0  0  0  0  0  0  0  0
   -0.7212    0.9110   -2.6815 H   0  0  0  0  0  0  0  0  0  0  0  0
    0.5114   -1.3484   -1.3421 H   0  0  0  0  0  0  0  0  0  0  0  0
    3.3410   -3.4382   -4.0990 H   0  0  0  0  0  0  0  0  0  0  0  0
    3.4648   -6.9592   -3.0161 H   0  0  0  0  0  0  0  0  0  0  0  0
    3.9718   -5.8051   -4.2486 H   0  0  0  0  0  0  0  0  0  0  0  0
    1.6464   -5.8188   -5.2399 H   0  0  0  0  0  0  0  0  0  0  0  0
    1.1140   -6.8773   -3.9412 H   0  0  0  0  0  0  0  0  0  0  0  0
    3.8854   -8.6210   -6.4971 H   0  0  0  0  0  0  0  0  0  0  0  0
    4.1892   -6.9666   -6.0021 H   0  0  0  0  0  0  0  0  0  0  0  0
    3.3428   -7.3859   -8.4879 H   0  0  0  0  0  0  0  0  0  0  0  0
    2.5394   -6.1033   -7.5627 H   0  0  0  0  0  0  0  0  0  0  0  0
    1.5366   -8.8642   -8.2101 H   0  0  0  0  0  0  0  0  0  0  0  0
    0.6236   -7.3531   -8.0555 H   0  0  0  0  0  0  0  0  0  0  0  0
    0.2026   -7.8796   -5.8209 H   0  0  0  0  0  0  0  0  0  0  0  0
    1.0656   -9.3917   -6.0562 H   0  0  0  0  0  0  0  0  0  0  0  0
    1.9364   -7.2711   -1.1905 H   0  0  0  0  0  0  0  0  0  0  0  0
    0.9849   -6.9252    1.0692 H   0  0  0  0  0  0  0  0  0  0  0  0
    0.6799   -4.6437    1.9666 H   0  0  0  0  0  0  0  0  0  0  0  0
    1.3205   -2.6793    0.6331 H   0  0  0  0  0  0  0  0  0  0  0  0
    3.8255    0.5749   -0.6992 H   0  0  0  0  0  0  0  0  0  0  0  0
    3.5004   -0.2478    0.8170 H   0  0  0  0  0  0  0  0  0  0  0  0
    3.1577    1.4836    0.6607 H   0  0  0  0  0  0  0  0  0  0  0  0
   -0.1746   -0.3442    0.7277 H   0  0  0  0  0  0  0  0  0  0  0  0
    0.6573    1.0634    1.4233 H   0  0  0  0  0  0  0  0  0  0  0  0
    1.2677   -0.5764    1.6981 H   0  0  0  0  0  0  0  0  0  0  0  0
  1  2  1  0  0  0  0
  1 26  1  0  0  0  0
  1 27  1  0  0  0  0
  1 28  1  0  0  0  0
  2 23  1  0  0  0  0
  2  3  1  0  0  0  0
  2  4  1  0  0  0  0
  3 29  1  0  0  0  0
  3 30  1  0  0  0  0
  3 31  1  0  0  0  0
  4  5  1  0  0  0  0
  4 23  1  0  0  0  0
  4 32  1  0  0  0  0
  5  6  2  0  0  0  0
  5  7  1  0  0  0  0
  7 22  1  0  0  0  0
  7  8  2  0  0  0  0
  8  9  1  0  0  0  0
  8 33  1  0  0  0  0
  9 10  1  0  0  0  0
  9 17  1  0  0  0  0
 10 11  1  0  0  0  0
 10 34  1  0  0  0  0
 10 35  1  0  0  0  0
 11 12  1  0  0  0  0
 11 36  1  0  0  0  0
 11 37  1  0  0  0  0
 12 16  1  0  0  0  0
 12 13  1  0  0  0  0
 13 14  1  0  0  0  0
 13 38  1  0  0  0  0
 13 39  1  0  0  0  0
 14 15  1  0  0  0  0
 14 40  1  0  0  0  0
 14 41  1  0  0  0  0
 15 16  1  0  0  0  0
 15 42  1  0  0  0  0
 15 43  1  0  0  0  0
 16 44  1  0  0  0  0
 16 45  1  0  0  0  0
 17 22  2  0  0  0  0
 17 18  1  0  0  0  0
 18 19  2  0  0  0  0
 18 46  1  0  0  0  0
 19 20  1  0  0  0  0
 19 47  1  0  0  0  0
 20 21  2  0  0  0  0
 20 48  1  0  0  0  0
 21 22  1  0  0  0  0
 21 49  1  0  0  0  0
 23 24  1  0  0  0  0
 23 25  1  0  0  0  0
 24 50  1  0  0  0  0
 24 51  1  0  0  0  0
 24 52  1  0  0  0  0
 25 53  1  0  0  0  0
 25 54  1  0  0  0  0
 25 55  1  0  0  0  0
M  END
$$$$
CHEMBL3421694
 OpenBabel12022418093D

 51 53  0  0  0  0  0  0  0  0999 V2000
   -0.4223   -1.9625    0.0657 N   0  0  0  0  0  0  0  0  0  0  0  0
    0.9653   -1.9082   -0.0028 C   0  0  0  0  0  0  0  0  0  0  0  0
    1.6724   -0.7838    0.0110 C   0  0  0  0  0  0  0  0  0  0  0  0
    1.0028    0.5012    0.0404 C   0  0  0  0  0  0  0  0  0  0  0  0
    1.8639    1.4903    0.0458 N   0  0  0  0  0  0  0  0  0  0  0  0
    3.1344    0.8686    0.0379 N   0  0  0  0  0  0  0  0  0  0  0  0
    3.1036   -0.5273    0.0001 C   0  0  0  0  0  0  0  0  0  0  0  0
    3.9974   -1.3479   -0.0316 O   0  0  0  0  0  0  0  0  0  0  0  0
    4.3636    1.6250    0.0248 C   0  0  0  0  0  0  0  0  0  0  0  0
    4.5142    2.5715    1.2101 C   0  0  0  0  0  0  0  0  0  0  0  0
    4.5104    1.8637    2.5699 C   0  0  0  0  0  0  0  0  0  0  0  0
    4.6764    2.8864    3.6956 C   0  0  0  0  0  0  0  0  0  0  0  0
    4.6545    2.2400    5.0700 C   0  0  0  0  0  0  0  0  0  0  0  0
   -0.4651    0.5130    0.0339 C   0  0  0  0  0  0  0  0  0  0  0  0
   -1.1572   -0.7388    0.0382 C   0  0  0  0  0  0  0  0  0  0  0  0
   -2.5583   -0.6667    0.0190 C   0  0  0  0  0  0  0  0  0  0  0  0
   -3.2325    0.5651   -0.0047 C   0  0  0  0  0  0  0  0  0  0  0  0
   -2.5251    1.7643   -0.0093 C   0  0  0  0  0  0  0  0  0  0  0  0
   -1.1352    1.7417    0.0091 C   0  0  0  0  0  0  0  0  0  0  0  0
   -1.0968   -3.2748    0.0138 C   0  0  0  0  0  0  0  0  0  0  0  0
   -0.6003   -4.2422    1.1010 C   0  0  0  0  0  0  0  0  0  0  0  0
   -0.9278   -3.8252    2.5385 C   0  0  0  0  0  0  0  0  0  0  0  0
   -0.3582   -4.8692    3.5061 C   0  0  0  0  0  0  0  0  0  0  0  0
   -0.6612   -4.5634    4.9617 C   0  0  0  0  0  0  0  0  0  0  0  0
    1.4841   -2.8588   -0.0620 H   0  0  0  0  0  0  0  0  0  0  0  0
    4.3870    2.1912   -0.9119 H   0  0  0  0  0  0  0  0  0  0  0  0
    5.2105    0.9267    0.0009 H   0  0  0  0  0  0  0  0  0  0  0  0
    3.7117    3.3176    1.1866 H   0  0  0  0  0  0  0  0  0  0  0  0
    5.4604    3.1147    1.0944 H   0  0  0  0  0  0  0  0  0  0  0  0
    5.3228    1.1280    2.6109 H   0  0  0  0  0  0  0  0  0  0  0  0
    3.5707    1.3166    2.7102 H   0  0  0  0  0  0  0  0  0  0  0  0
    3.8712    3.6283    3.6389 H   0  0  0  0  0  0  0  0  0  0  0  0
    5.6223    3.4255    3.5681 H   0  0  0  0  0  0  0  0  0  0  0  0
    3.7080    1.7191    5.2454 H   0  0  0  0  0  0  0  0  0  0  0  0
    4.7683    3.0052    5.8448 H   0  0  0  0  0  0  0  0  0  0  0  0
    5.4719    1.5208    5.1808 H   0  0  0  0  0  0  0  0  0  0  0  0
   -3.1848   -1.5510    0.0183 H   0  0  0  0  0  0  0  0  0  0  0  0
   -4.3207    0.5815   -0.0194 H   0  0  0  0  0  0  0  0  0  0  0  0
   -3.0581    2.7119   -0.0265 H   0  0  0  0  0  0  0  0  0  0  0  0
   -0.5775    2.6765   -0.0013 H   0  0  0  0  0  0  0  0  0  0  0  0
   -0.8746   -3.7229   -0.9642 H   0  0  0  0  0  0  0  0  0  0  0  0
   -2.1844   -3.2285    0.0780 H   0  0  0  0  0  0  0  0  0  0  0  0
    0.4810   -4.3962    1.0160 H   0  0  0  0  0  0  0  0  0  0  0  0
   -1.0540   -5.2224    0.9088 H   0  0  0  0  0  0  0  0  0  0  0  0
   -2.0139   -3.7463    2.6658 H   0  0  0  0  0  0  0  0  0  0  0  0
   -0.4991   -2.8416    2.7637 H   0  0  0  0  0  0  0  0  0  0  0  0
    0.7293   -4.9309    3.3777 H   0  0  0  0  0  0  0  0  0  0  0  0
   -0.7657   -5.8571    3.2604 H   0  0  0  0  0  0  0  0  0  0  0  0
   -0.2269   -3.6058    5.2640 H   0  0  0  0  0  0  0  0  0  0  0  0
   -0.2344   -5.3445    5.6005 H   0  0  0  0  0  0  0  0  0  0  0  0
   -1.7397   -4.5318    5.1426 H   0  0  0  0  0  0  0  0  0  0  0  0
  1 15  1  0  0  0  0
  1  2  1  0  0  0  0
  1 20  1  0  0  0  0
  2  3  2  0  0  0  0
  2 25  1  0  0  0  0
  3  7  1  0  0  0  0
  3  4  1  0  0  0  0
  4  5  2  0  0  0  0
  4 14  1  0  0  0  0
  5  6  1  0  0  0  0
  6  7  1  0  0  0  0
  6  9  1  0  0  0  0
  7  8  2  0  0  0  0
  9 10  1  0  0  0  0
  9 26  1  0  0  0  0
  9 27  1  0  0  0  0
 10 11  1  0  0  0  0
 10 28  1  0  0  0  0
 10 29  1  0  0  0  0
 11 12  1  0  0  0  0
 11 30  1  0  0  0  0
 11 31  1  0  0  0  0
 12 13  1  0  0  0  0
 12 32  1  0  0  0  0
 12 33  1  0  0  0  0
 13 34  1  0  0  0  0
 13 35  1  0  0  0  0
 13 36  1  0  0  0  0
 14 19  2  0  0  0  0
 14 15  1  0  0  0  0
 15 16  2  0  0  0  0
 16 17  1  0  0  0  0
 16 37  1  0  0  0  0
 17 18  2  0  0  0  0
 17 38  1  0  0  0  0
 18 19  1  0  0  0  0
 18 39  1  0  0  0  0
 19 40  1  0  0  0  0
 20 21  1  0  0  0  0
 20 41  1  0  0  0  0
 20 42  1  0  0  0  0
 21 22  1  0  0  0  0
 21 43  1  0  0  0  0
 21 44  1  0  0  0  0
 22 23  1  0  0  0  0
 22 45  1  0  0  0  0
 22 46  1  0  0  0  0
 23 24  1  0  0  0  0
 23 47  1  0  0  0  0
 23 48  1  0  0  0  0
 24 49  1  0  0  0  0
 24 50  1  0  0  0  0
 24 51  1  0  0  0  0
M  END
$$$$
CHEMBL2326290
 OpenBabel12022418093D

 57 59  0  0  0  0  0  0  0  0999 V2000
    2.6117   -3.3431    1.9259 C   0  0  0  0  0  0  0  0  0  0  0  0
    3.4313   -2.0649    1.8481 C   0  0  0  0  0  0  0  0  0  0  0  0
    4.6608   -2.0990    2.6602 N   0  0  0  0  0  0  0  0  0  0  0  0
    4.5414   -2.4079    4.1001 C   0  0  0  0  0  0  0  0  0  0  0  0
    3.8102   -1.3281    4.8903 C   0  0  0  0  0  0  0  0  0  0  0  0
    5.6410   -1.1407    2.3337 C   0  0  0  0  0  0  0  0  0  0  0  0
    6.9993   -1.3733    2.6015 C   0  0  0  0  0  0  0  0  0  0  0  0
    7.9878   -0.4204    2.2841 C   0  0  0  0  0  0  0  0  0  0  0  0
    7.6427    0.8102    1.7063 C   0  0  0  0  0  0  0  0  0  0  0  0
    8.6750    1.9015    1.4670 C   0  0  0  0  0  0  0  0  0  0  0  0
    9.4160    1.7845    0.1952 N   0  0  0  0  0  0  0  0  0  0  0  0
    8.6890    1.9292   -1.0323 C   0  0  0  0  0  0  0  0  0  0  0  0
    8.6525    0.8317   -1.8979 C   0  0  0  0  0  0  0  0  0  0  0  0
    7.8630    0.8648   -3.0494 C   0  0  0  0  0  0  0  0  0  0  0  0
    7.1241    2.0064   -3.3447 C   0  0  0  0  0  0  0  0  0  0  0  0
    7.1924    3.1254   -2.5138 C   0  0  0  0  0  0  0  0  0  0  0  0
    7.9853    3.0914   -1.3581 C   0  0  0  0  0  0  0  0  0  0  0  0
    6.0970    2.0222   -4.7255 Cl  0  0  0  0  0  0  0  0  0  0  0  0
   11.0791    2.1329    0.2031 S   0  0  0  0  0  0  0  0  0  0  0  0
   11.6269    1.6718    1.4641 O   0  0  0  0  0  0  0  0  0  0  0  0
   11.6589    1.6819   -1.0463 O   0  0  0  0  0  0  0  0  0  0  0  0
   11.1929    3.9189    0.2142 C   0  0  0  0  0  0  0  0  0  0  0  0
   11.3841    4.5990   -0.9932 C   0  0  0  0  0  0  0  0  0  0  0  0
   11.6020    5.9779   -0.9862 C   0  0  0  0  0  0  0  0  0  0  0  0
   11.6504    6.6742    0.2228 C   0  0  0  0  0  0  0  0  0  0  0  0
   11.4952    5.9993    1.4405 C   0  0  0  0  0  0  0  0  0  0  0  0
   11.6121    6.7434    2.7400 C   0  0  0  0  0  0  0  0  0  0  0  0
   11.2726    4.6112    1.4314 C   0  0  0  0  0  0  0  0  0  0  0  0
    6.3009    1.0306    1.3944 C   0  0  0  0  0  0  0  0  0  0  0  0
    5.3240    0.0743    1.7039 C   0  0  0  0  0  0  0  0  0  0  0  0
    1.8831   -3.3598    1.1073 H   0  0  0  0  0  0  0  0  0  0  0  0
    2.0472   -3.3959    2.8621 H   0  0  0  0  0  0  0  0  0  0  0  0
    3.2378   -4.2363    1.8439 H   0  0  0  0  0  0  0  0  0  0  0  0
    2.7961   -1.2171    2.1300 H   0  0  0  0  0  0  0  0  0  0  0  0
    3.7077   -1.9392    0.7931 H   0  0  0  0  0  0  0  0  0  0  0  0
    5.5252   -2.5775    4.5548 H   0  0  0  0  0  0  0  0  0  0  0  0
    4.0051   -3.3562    4.2238 H   0  0  0  0  0  0  0  0  0  0  0  0
    4.3741   -0.3903    4.9022 H   0  0  0  0  0  0  0  0  0  0  0  0
    3.6760   -1.6494    5.9292 H   0  0  0  0  0  0  0  0  0  0  0  0
    2.8176   -1.1226    4.4784 H   0  0  0  0  0  0  0  0  0  0  0  0
    7.3060   -2.3204    3.0431 H   0  0  0  0  0  0  0  0  0  0  0  0
    9.0310   -0.6508    2.4998 H   0  0  0  0  0  0  0  0  0  0  0  0
    9.3575    1.8819    2.3229 H   0  0  0  0  0  0  0  0  0  0  0  0
    8.1835    2.8812    1.5210 H   0  0  0  0  0  0  0  0  0  0  0  0
    9.2099   -0.0693   -1.6543 H   0  0  0  0  0  0  0  0  0  0  0  0
    7.8200   -0.0082   -3.6931 H   0  0  0  0  0  0  0  0  0  0  0  0
    6.6165    4.0153   -2.7535 H   0  0  0  0  0  0  0  0  0  0  0  0
    8.0164    3.9666   -0.7165 H   0  0  0  0  0  0  0  0  0  0  0  0
   11.3984    4.0619   -1.9393 H   0  0  0  0  0  0  0  0  0  0  0  0
   11.7631    6.5087   -1.9213 H   0  0  0  0  0  0  0  0  0  0  0  0
   11.8388    7.7464    0.2067 H   0  0  0  0  0  0  0  0  0  0  0  0
   11.7507    7.8186    2.5765 H   0  0  0  0  0  0  0  0  0  0  0  0
   12.4734    6.3802    3.3101 H   0  0  0  0  0  0  0  0  0  0  0  0
   10.7028    6.6141    3.3351 H   0  0  0  0  0  0  0  0  0  0  0  0
   11.2028    4.0725    2.3746 H   0  0  0  0  0  0  0  0  0  0  0  0
    5.9890    1.9536    0.9085 H   0  0  0  0  0  0  0  0  0  0  0  0
    4.2958    0.3240    1.4606 H   0  0  0  0  0  0  0  0  0  0  0  0
  1  2  1  0  0  0  0
  1 31  1  0  0  0  0
  1 32  1  0  0  0  0
  1 33  1  0  0  0  0
  2  3  1  0  0  0  0
  2 34  1  0  0  0  0
  2 35  1  0  0  0  0
  3  4  1  0  0  0  0
  3  6  1  0  0  0  0
  4  5  1  0  0  0  0
  4 36  1  0  0  0  0
  4 37  1  0  0  0  0
  5 38  1  0  0  0  0
  5 39  1  0  0  0  0
  5 40  1  0  0  0  0
  6 30  2  0  0  0  0
  6  7  1  0  0  0  0
  7  8  2  0  0  0  0
  7 41  1  0  0  0  0
  8  9  1  0  0  0  0
  8 42  1  0  0  0  0
  9 10  1  0  0  0  0
  9 29  2  0  0  0  0
 10 11  1  0  0  0  0
 10 43  1  0  0  0  0
 10 44  1  0  0  0  0
 11 12  1  0  0  0  0
 11 19  1  0  0  0  0
 12 17  2  0  0  0  0
 12 13  1  0  0  0  0
 13 14  2  0  0  0  0
 13 45  1  0  0  0  0
 14 15  1  0  0  0  0
 14 46  1  0  0  0  0
 15 16  2  0  0  0  0
 15 18  1  0  0  0  0
 16 17  1  0  0  0  0
 16 47  1  0  0  0  0
 17 48  1  0  0  0  0
 19 20  2  0  0  0  0
 19 21  2  0  0  0  0
 19 22  1  0  0  0  0
 22 28  2  0  0  0  0
 22 23  1  0  0  0  0
 23 24  2  0  0  0  0
 23 49  1  0  0  0  0
 24 25  1  0  0  0  0
 24 50  1  0  0  0  0
 25 26  2  0  0  0  0
 25 51  1  0  0  0  0
 26 27  1  0  0  0  0
 26 28  1  0  0  0  0
 27 52  1  0  0  0  0
 27 53  1  0  0  0  0
 27 54  1  0  0  0  0
 28 55  1  0  0  0  0
 29 30  1  0  0  0  0
 29 56  1  0  0  0  0
 30 57  1  0  0  0  0
M  END
$$$$
CHEMBL3948314
 OpenBabel12022418093D

 58 60  0  0  1  0  0  0  0  0999 V2000
    8.4439    4.8120   -3.8571 C   0  0  0  0  0  0  0  0  0  0  0  0
    7.5072    3.8725   -3.2146 C   0  0  0  0  0  0  0  0  0  0  0  0
    6.3611    4.1192   -2.6196 N   0  0  0  0  0  0  0  0  0  0  0  0
    6.0019    2.8757   -2.1523 C   0  0  0  0  0  0  0  0  0  0  0  0
    4.7887    2.6476   -1.2663 C   0  0  2  0  0  0  0  0  0  0  0  0
    5.3136    2.2262    0.1339 C   0  0  0  0  0  0  0  0  0  0  0  0
    3.8846    1.5307   -1.8184 C   0  0  0  0  0  0  0  0  0  0  0  0
    3.1760    1.8881   -3.4166 S   0  0  0  0  0  0  0  0  0  0  0  0
    2.3925    3.1145   -3.3475 O   0  0  0  0  0  0  0  0  0  0  0  0
    4.1932    1.7175   -4.4373 O   0  0  0  0  0  0  0  0  0  0  0  0
    2.0086    0.5670   -3.6203 C   0  0  0  0  0  0  0  0  0  0  0  0
    4.0725    3.9296   -1.1048 N   0  0  0  0  0  0  0  0  0  0  0  0
    2.9400    4.1071   -0.3383 C   0  0  0  0  0  0  0  0  0  0  0  0
    2.4040    3.2022    0.2950 O   0  0  0  0  0  0  0  0  0  0  0  0
    2.4113    5.5086   -0.2656 C   0  0  0  0  0  0  0  0  0  0  0  0
    1.3761    5.8031    0.6139 C   0  0  0  0  0  0  0  0  0  0  0  0
    1.0678    7.1427    0.8457 C   0  0  0  0  0  0  0  0  0  0  0  0
    1.7854    8.1706    0.1942 C   0  0  0  0  0  0  0  0  0  0  0  0
    2.7159    7.7290   -0.7566 C   0  0  0  0  0  0  0  0  0  0  0  0
    3.0715    6.4437   -0.9853 N   0  0  0  0  0  0  0  0  0  0  0  0
    1.5852    9.7227    0.5303 C   0  0  0  0  0  0  0  0  0  0  0  0
    1.6426   10.1208    2.0387 C   0  0  0  0  0  0  0  0  0  0  0  0
    2.6725   11.2050    1.7303 C   0  0  0  0  0  0  0  0  0  0  0  0
    2.7952   10.6814    0.2999 C   0  0  0  0  0  0  0  0  0  0  0  0
    0.4553   10.1273   -0.1066 F   0  0  0  0  0  0  0  0  0  0  0  0
    0.1666    7.5736    1.7871 O   0  0  0  0  0  0  0  0  0  0  0  0
   -1.0000    6.7830    2.0913 C   0  0  1  0  0  0  0  0  0  0  0  0
   -0.6993    5.8855    3.2917 C   0  0  0  0  0  0  0  0  0  0  0  0
   -2.1854    7.7179    2.4375 C   0  0  0  0  0  0  0  0  0  0  0  0
   -1.8700    9.0271    2.3125 F   0  0  0  0  0  0  0  0  0  0  0  0
   -3.2400    7.4808    1.6202 F   0  0  0  0  0  0  0  0  0  0  0  0
   -2.6282    7.5422    3.7065 F   0  0  0  0  0  0  0  0  0  0  0  0
    6.8881    1.9012   -2.4280 N   0  0  0  0  0  0  0  0  0  0  0  0
    7.8847    2.5636   -3.1459 O   0  0  0  0  0  0  0  0  0  0  0  0
    9.3333    4.3043   -4.2409 H   0  0  0  0  0  0  0  0  0  0  0  0
    8.7689    5.5610   -3.1290 H   0  0  0  0  0  0  0  0  0  0  0  0
    7.9561    5.3298   -4.6871 H   0  0  0  0  0  0  0  0  0  0  0  0
    4.5010    2.0384    0.8424 H   0  0  0  0  0  0  0  0  0  0  0  0
    5.9406    3.0170    0.5655 H   0  0  0  0  0  0  0  0  0  0  0  0
    5.9193    1.3136    0.0907 H   0  0  0  0  0  0  0  0  0  0  0  0
    3.0412    1.3372   -1.1491 H   0  0  0  0  0  0  0  0  0  0  0  0
    4.4348    0.5900   -1.9334 H   0  0  0  0  0  0  0  0  0  0  0  0
    1.2860    0.6034   -2.8024 H   0  0  0  0  0  0  0  0  0  0  0  0
    2.5454   -0.3840   -3.6208 H   0  0  0  0  0  0  0  0  0  0  0  0
    1.4936    0.7081   -4.5725 H   0  0  0  0  0  0  0  0  0  0  0  0
    4.4035    4.7334   -1.6412 H   0  0  0  0  0  0  0  0  0  0  0  0
    0.9005    4.9928    1.1480 H   0  0  0  0  0  0  0  0  0  0  0  0
    3.2585    8.4459   -1.3696 H   0  0  0  0  0  0  0  0  0  0  0  0
    2.0231    9.3457    2.7133 H   0  0  0  0  0  0  0  0  0  0  0  0
    0.6982   10.4992    2.4426 H   0  0  0  0  0  0  0  0  0  0  0  0
    3.5936   11.1326    2.3181 H   0  0  0  0  0  0  0  0  0  0  0  0
    2.2851   12.2253    1.8051 H   0  0  0  0  0  0  0  0  0  0  0  0
    2.6240   11.4420   -0.4690 H   0  0  0  0  0  0  0  0  0  0  0  0
    3.7584   10.2009    0.1017 H   0  0  0  0  0  0  0  0  0  0  0  0
   -1.2907    6.1788    1.2222 H   0  0  0  0  0  0  0  0  0  0  0  0
   -0.4090    6.4910    4.1578 H   0  0  0  0  0  0  0  0  0  0  0  0
    0.1362    5.2083    3.1053 H   0  0  0  0  0  0  0  0  0  0  0  0
   -1.5713    5.2805    3.5593 H   0  0  0  0  0  0  0  0  0  0  0  0
  1  2  1  0  0  0  0
  1 35  1  0  0  0  0
  1 36  1  0  0  0  0
  1 37  1  0  0  0  0
  2 34  1  0  0  0  0
  2  3  2  0  0  0  0
  3  4  1  0  0  0  0
  4 33  2  0  0  0  0
  5  7  1  6  0  0  0
  5 12  1  0  0  0  0
  5  6  1  0  0  0  0
  5  4  1  0  0  0  0
  6 38  1  0  0  0  0
  6 39  1  0  0  0  0
  6 40  1  0  0  0  0
  7  8  1  0  0  0  0
  7 41  1  0  0  0  0
  7 42  1  0  0  0  0
  8  9  2  0  0  0  0
  8 10  2  0  0  0  0
  8 11  1  0  0  0  0
 11 43  1  0  0  0  0
 11 44  1  0  0  0  0
 11 45  1  0  0  0  0
 12 13  1  0  0  0  0
 12 46  1  0  0  0  0
 13 14  2  0  0  0  0
 13 15  1  0  0  0  0
 15 20  2  0  0  0  0
 15 16  1  0  0  0  0
 16 17  2  0  0  0  0
 16 47  1  0  0  0  0
 17 18  1  0  0  0  0
 17 26  1  0  0  0  0
 18 19  2  0  0  0  0
 18 21  1  0  0  0  0
 19 20  1  0  0  0  0
 19 48  1  0  0  0  0
 21 24  1  0  0  0  0
 21 22  1  0  0  0  0
 21 25  1  0  0  0  0
 22 23  1  0  0  0  0
 22 49  1  0  0  0  0
 22 50  1  0  0  0  0
 23 24  1  0  0  0  0
 23 51  1  0  0  0  0
 23 52  1  0  0  0  0
 24 53  1  0  0  0  0
 24 54  1  0  0  0  0
 26 27  1  0  0  0  0
 27 28  1  0  0  0  0
 27 29  1  0  0  0  0
 27 55  1  6  0  0  0
 28 56  1  0  0  0  0
 28 57  1  0  0  0  0
 28 58  1  0  0  0  0
 29 30  1  0  0  0  0
 29 31  1  0  0  0  0
 29 32  1  0  0  0  0
 33 34  1  0  0  0  0
M  END
$$$$
CHEMBL3958413
 OpenBabel12022418093D

 54 57  0  0  1  0  0  0  0  0999 V2000
   -1.9743    0.1052    1.5461 C   0  0  0  0  0  0  0  0  0  0  0  0
   -0.5375    0.2851    1.2679 C   0  0  0  0  0  0  0  0  0  0  0  0
    0.0923    1.2456    0.6255 N   0  0  0  0  0  0  0  0  0  0  0  0
    1.4096    0.8102    0.6636 C   0  0  0  0  0  0  0  0  0  0  0  0
    2.5747    1.6037    0.0822 C   0  0  1  0  0  0  0  0  0  0  0  0
    3.8308    1.3662    0.9588 C   0  0  0  0  0  0  0  0  0  0  0  0
    2.8782    1.0784   -1.3626 C   0  0  0  0  0  0  0  0  0  0  0  0
    3.7260    0.2034   -1.5707 O   0  0  0  0  0  0  0  0  0  0  0  0
    2.1254    1.5685   -2.4166 N   0  0  0  0  0  0  0  0  0  0  0  0
    0.6772    1.6927   -2.5203 C   0  0  0  0  0  0  0  0  0  0  0  0
    0.7797    1.0659   -3.9105 C   0  0  0  0  0  0  0  0  0  0  0  0
    2.2950    1.1862   -3.8183 C   0  0  0  0  0  0  0  0  0  0  0  0
    2.1841    3.0360    0.0622 N   0  0  0  0  0  0  0  0  0  0  0  0
    3.0598    4.0950   -0.0235 C   0  0  0  0  0  0  0  0  0  0  0  0
    4.2817    3.9914   -0.0211 O   0  0  0  0  0  0  0  0  0  0  0  0
    2.4392    5.4552   -0.1018 C   0  0  0  0  0  0  0  0  0  0  0  0
    3.2533    6.5845   -0.0362 C   0  0  0  0  0  0  0  0  0  0  0  0
    2.6546    7.8412   -0.0855 C   0  0  0  0  0  0  0  0  0  0  0  0
    1.2606    7.9523   -0.2528 C   0  0  0  0  0  0  0  0  0  0  0  0
    0.5537    6.7422   -0.2892 C   0  0  0  0  0  0  0  0  0  0  0  0
    1.0912    5.5024   -0.2150 N   0  0  0  0  0  0  0  0  0  0  0  0
    0.5181    9.2708   -0.3224 C   0  0  0  0  0  0  0  0  0  0  0  0
    0.8767   10.3552   -1.3118 C   0  0  0  0  0  0  0  0  0  0  0  0
   -0.3631    9.5439   -1.5247 C   0  0  0  0  0  0  0  0  0  0  0  0
    3.3455    9.0241    0.0039 O   0  0  0  0  0  0  0  0  0  0  0  0
    4.6437    8.9903    0.6154 C   0  0  0  0  0  0  0  0  0  0  0  0
    5.0818   10.3847    1.0635 C   0  0  0  0  0  0  0  0  0  0  0  0
    4.2061   11.3518    0.7144 F   0  0  0  0  0  0  0  0  0  0  0  0
    5.2219   10.4338    2.4100 F   0  0  0  0  0  0  0  0  0  0  0  0
    6.2806   10.7116    0.5256 F   0  0  0  0  0  0  0  0  0  0  0  0
    1.5727   -0.3489    1.3245 N   0  0  0  0  0  0  0  0  0  0  0  0
    0.2903   -0.6930    1.7256 O   0  0  0  0  0  0  0  0  0  0  0  0
   -2.1680   -0.8568    2.0313 H   0  0  0  0  0  0  0  0  0  0  0  0
   -2.5487    0.1335    0.6154 H   0  0  0  0  0  0  0  0  0  0  0  0
   -2.3381    0.8979    2.2054 H   0  0  0  0  0  0  0  0  0  0  0  0
    4.0402    0.2979    1.0934 H   0  0  0  0  0  0  0  0  0  0  0  0
    3.7089    1.8095    1.9538 H   0  0  0  0  0  0  0  0  0  0  0  0
    4.7379    1.7779    0.5057 H   0  0  0  0  0  0  0  0  0  0  0  0
    0.3359    2.7301   -2.4979 H   0  0  0  0  0  0  0  0  0  0  0  0
    0.0977    1.0781   -1.8329 H   0  0  0  0  0  0  0  0  0  0  0  0
    0.3145    1.6402   -4.7171 H   0  0  0  0  0  0  0  0  0  0  0  0
    0.4228    0.0310   -3.9632 H   0  0  0  0  0  0  0  0  0  0  0  0
    2.8431    0.2561   -3.9873 H   0  0  0  0  0  0  0  0  0  0  0  0
    2.7322    1.9942   -4.4121 H   0  0  0  0  0  0  0  0  0  0  0  0
    1.1946    3.2530   -0.0415 H   0  0  0  0  0  0  0  0  0  0  0  0
    4.3275    6.4541    0.0490 H   0  0  0  0  0  0  0  0  0  0  0  0
   -0.5294    6.7577   -0.3815 H   0  0  0  0  0  0  0  0  0  0  0  0
    0.1487    9.6312    0.6367 H   0  0  0  0  0  0  0  0  0  0  0  0
    1.7095   10.2030   -1.9879 H   0  0  0  0  0  0  0  0  0  0  0  0
    0.7563   11.3868   -0.9970 H   0  0  0  0  0  0  0  0  0  0  0  0
   -1.3235   10.0156   -1.3491 H   0  0  0  0  0  0  0  0  0  0  0  0
   -0.3577    8.8519   -2.3600 H   0  0  0  0  0  0  0  0  0  0  0  0
    5.3674    8.6007   -0.1096 H   0  0  0  0  0  0  0  0  0  0  0  0
    4.6345    8.3359    1.4954 H   0  0  0  0  0  0  0  0  0  0  0  0
  1  2  1  0  0  0  0
  1 33  1  0  0  0  0
  1 34  1  0  0  0  0
  1 35  1  0  0  0  0
  2 32  1  0  0  0  0
  2  3  2  0  0  0  0
  3  4  1  0  0  0  0
  4  5  1  0  0  0  0
  4 31  2  0  0  0  0
  5  6  1  0  0  0  0
  5  7  1  6  0  0  0
  5 13  1  0  0  0  0
  6 36  1  0  0  0  0
  6 37  1  0  0  0  0
  6 38  1  0  0  0  0
  7  8  2  0  0  0  0
  7  9  1  0  0  0  0
  9 12  1  0  0  0  0
  9 10  1  0  0  0  0
 10 11  1  0  0  0  0
 10 39  1  0  0  0  0
 10 40  1  0  0  0  0
 11 12  1  0  0  0  0
 11 41  1  0  0  0  0
 11 42  1  0  0  0  0
 12 43  1  0  0  0  0
 12 44  1  0  0  0  0
 13 14  1  0  0  0  0
 13 45  1  0  0  0  0
 14 15  2  0  0  0  0
 14 16  1  0  0  0  0
 16 21  2  0  0  0  0
 16 17  1  0  0  0  0
 17 18  2  0  0  0  0
 17 46  1  0  0  0  0
 18 19  1  0  0  0  0
 18 25  1  0  0  0  0
 19 20  2  0  0  0  0
 19 22  1  0  0  0  0
 20 21  1  0  0  0  0
 20 47  1  0  0  0  0
 22 24  1  0  0  0  0
 22 23  1  0  0  0  0
 22 48  1  0  0  0  0
 23 24  1  0  0  0  0
 23 49  1  0  0  0  0
 23 50  1  0  0  0  0
 24 51  1  0  0  0  0
 24 52  1  0  0  0  0
 25 26  1  0  0  0  0
 26 27  1  0  0  0  0
 26 53  1  0  0  0  0
 26 54  1  0  0  0  0
 27 28  1  0  0  0  0
 27 29  1  0  0  0  0
 27 30  1  0  0  0  0
 31 32  1  0  0  0  0
M  END
$$$$
CHEMBL3940691
 OpenBabel12022418093D

 49 51  0  0  0  0  0  0  0  0999 V2000
    1.5157   -0.3621    1.3503 C   0  0  0  0  0  0  0  0  0  0  0  0
    1.1453    0.9356    0.6244 C   0  0  0  0  0  0  0  0  0  0  0  0
    0.2754    0.1041   -0.3780 C   0  0  0  0  0  0  0  0  0  0  0  0
    0.3300   -1.0491    0.6623 C   0  0  0  0  0  0  0  0  0  0  0  0
    0.8616   -0.0109   -1.8662 C   0  0  0  0  0  0  0  0  0  0  0  0
    0.5722    1.0427   -2.7626 C   0  0  0  0  0  0  0  0  0  0  0  0
    0.9859    1.1631   -4.0489 N   0  0  0  0  0  0  0  0  0  0  0  0
    1.7738    0.1642   -4.4910 C   0  0  0  0  0  0  0  0  0  0  0  0
    2.1408   -0.9250   -3.7253 C   0  0  0  0  0  0  0  0  0  0  0  0
    1.6478   -1.0410   -2.4214 C   0  0  0  0  0  0  0  0  0  0  0  0
    1.9102   -2.1497   -1.6508 O   0  0  0  0  0  0  0  0  0  0  0  0
    2.3561   -3.3180   -2.3750 C   0  0  0  0  0  0  0  0  0  0  0  0
    2.2645   -4.6085   -1.5705 C   0  0  0  0  0  0  0  0  0  0  0  0
    1.9396   -4.4031   -0.2786 F   0  0  0  0  0  0  0  0  0  0  0  0
    1.3353   -5.4367   -2.1042 F   0  0  0  0  0  0  0  0  0  0  0  0
    3.4469   -5.2679   -1.5978 F   0  0  0  0  0  0  0  0  0  0  0  0
    2.2641    0.2331   -5.8986 C   0  0  0  0  0  0  0  0  0  0  0  0
    2.9875   -0.6402   -6.3642 O   0  0  0  0  0  0  0  0  0  0  0  0
    1.8444    1.3283   -6.6285 N   0  0  0  0  0  0  0  0  0  0  0  0
    2.2729    1.5639   -8.0435 C   0  0  0  0  0  0  0  0  0  0  0  0
    2.0539    3.0358   -8.4933 C   0  0  0  0  0  0  0  0  0  0  0  0
    3.7327    3.2041   -8.9898 S   0  0  0  0  0  0  0  0  0  0  0  0
    4.4073    4.2433   -8.2395 O   0  0  0  0  0  0  0  0  0  0  0  0
    3.8855    3.0444  -10.4194 O   0  0  0  0  0  0  0  0  0  0  0  0
    3.8233    1.6591   -8.1639 C   0  0  0  0  0  0  0  0  0  0  0  0
    1.6730    0.4938   -8.9724 C   0  0  0  0  0  0  0  0  0  0  0  0
    0.1651    0.4199   -8.9406 C   0  0  0  0  0  0  0  0  0  0  0  0
   -0.5569    1.4065   -8.8560 O   0  0  0  0  0  0  0  0  0  0  0  0
   -0.3588   -0.8347   -9.0376 N   0  0  0  0  0  0  0  0  0  0  0  0
   -0.9850    0.6050   -0.5155 F   0  0  0  0  0  0  0  0  0  0  0  0
    2.4918   -0.7666    1.0650 H   0  0  0  0  0  0  0  0  0  0  0  0
    1.4580   -0.3130    2.4422 H   0  0  0  0  0  0  0  0  0  0  0  0
    1.9956    1.4783    0.2002 H   0  0  0  0  0  0  0  0  0  0  0  0
    0.5575    1.6344    1.2312 H   0  0  0  0  0  0  0  0  0  0  0  0
   -0.5674   -1.0825    1.2942 H   0  0  0  0  0  0  0  0  0  0  0  0
    0.5107   -2.0628    0.3044 H   0  0  0  0  0  0  0  0  0  0  0  0
   -0.0582    1.8671   -2.4262 H   0  0  0  0  0  0  0  0  0  0  0  0
    2.8022   -1.6584   -4.1707 H   0  0  0  0  0  0  0  0  0  0  0  0
    3.4017   -3.1663   -2.6696 H   0  0  0  0  0  0  0  0  0  0  0  0
    1.7462   -3.4544   -3.2782 H   0  0  0  0  0  0  0  0  0  0  0  0
    1.2031    1.9576   -6.1412 H   0  0  0  0  0  0  0  0  0  0  0  0
    1.7874    3.7375   -7.6967 H   0  0  0  0  0  0  0  0  0  0  0  0
    1.3634    3.1844   -9.3288 H   0  0  0  0  0  0  0  0  0  0  0  0
    4.2966    0.8793   -8.7702 H   0  0  0  0  0  0  0  0  0  0  0  0
    4.3710    1.7319   -7.2182 H   0  0  0  0  0  0  0  0  0  0  0  0
    2.0831   -0.4922   -8.7223 H   0  0  0  0  0  0  0  0  0  0  0  0
    1.9605    0.6853  -10.0137 H   0  0  0  0  0  0  0  0  0  0  0  0
    0.2018   -1.6721   -8.9533 H   0  0  0  0  0  0  0  0  0  0  0  0
   -1.3656   -0.9283   -8.9922 H   0  0  0  0  0  0  0  0  0  0  0  0
  1  4  1  0  0  0  0
  1  2  1  0  0  0  0
  1 31  1  0  0  0  0
  1 32  1  0  0  0  0
  2  3  1  0  0  0  0
  2 33  1  0  0  0  0
  2 34  1  0  0  0  0
  3  4  1  0  0  0  0
  3  5  1  0  0  0  0
  3 30  1  0  0  0  0
  4 35  1  0  0  0  0
  4 36  1  0  0  0  0
  5 10  2  0  0  0  0
  5  6  1  0  0  0  0
  6  7  2  0  0  0  0
  6 37  1  0  0  0  0
  7  8  1  0  0  0  0
  8  9  2  0  0  0  0
  8 17  1  0  0  0  0
  9 10  1  0  0  0  0
  9 38  1  0  0  0  0
 10 11  1  0  0  0  0
 11 12  1  0  0  0  0
 12 13  1  0  0  0  0
 12 39  1  0  0  0  0
 12 40  1  0  0  0  0
 13 14  1  0  0  0  0
 13 15  1  0  0  0  0
 13 16  1  0  0  0  0
 17 18  2  0  0  0  0
 17 19  1  0  0  0  0
 19 20  1  0  0  0  0
 19 41  1  0  0  0  0
 20 25  1  0  0  0  0
 20 21  1  0  0  0  0
 20 26  1  0  0  0  0
 21 22  1  0  0  0  0
 21 42  1  0  0  0  0
 21 43  1  0  0  0  0
 22 23  2  0  0  0  0
 22 24  2  0  0  0  0
 22 25  1  0  0  0  0
 25 44  1  0  0  0  0
 25 45  1  0  0  0  0
 26 27  1  0  0  0  0
 26 46  1  0  0  0  0
 26 47  1  0  0  0  0
 27 28  2  0  0  0  0
 27 29  1  0  0  0  0
 29 48  1  0  0  0  0
 29 49  1  0  0  0  0
M  END
$$$$
CHEMBL3904362
 OpenBabel12022418093D

 52 54  0  0  1  0  0  0  0  0999 V2000
    1.3836    0.6890   -0.3624 C   0  0  0  0  0  0  0  0  0  0  0  0
    2.6305    1.3874    0.1746 C   0  0  1  0  0  0  0  0  0  0  0  0
    2.3093    2.7971    0.6991 C   0  0  0  0  0  0  0  0  0  0  0  0
    1.0242    3.1538    0.4776 F   0  0  0  0  0  0  0  0  0  0  0  0
    2.5352    2.9180    2.0268 F   0  0  0  0  0  0  0  0  0  0  0  0
    3.0902    3.7153    0.0788 F   0  0  0  0  0  0  0  0  0  0  0  0
    3.1808    0.5313    1.2006 O   0  0  0  0  0  0  0  0  0  0  0  0
    4.5280    0.5747    1.4655 C   0  0  0  0  0  0  0  0  0  0  0  0
    5.4319    1.3228    0.7093 C   0  0  0  0  0  0  0  0  0  0  0  0
    6.7812    1.2203    0.9925 C   0  0  0  0  0  0  0  0  0  0  0  0
    7.7609    1.9878    0.1611 C   0  0  0  0  0  0  0  0  0  0  0  0
    7.3885    2.7716   -0.7053 O   0  0  0  0  0  0  0  0  0  0  0  0
    9.0845    1.7344    0.4493 N   0  0  0  0  0  0  0  0  0  0  0  0
   10.2591    2.4029   -0.1864 C   0  0  0  0  0  0  0  0  0  0  0  0
   11.4045    1.3756   -0.4441 C   0  0  0  0  0  0  0  0  0  0  0  0
   11.5999    1.9134   -2.1039 S   0  0  0  0  0  0  0  0  0  0  0  0
   11.3906    0.8300   -3.0435 O   0  0  0  0  0  0  0  0  0  0  0  0
   12.6910    2.8568   -2.2265 O   0  0  0  0  0  0  0  0  0  0  0  0
   10.0947    2.7261   -1.7031 C   0  0  0  0  0  0  0  0  0  0  0  0
   10.6589    3.6309    0.6506 C   0  0  0  0  0  0  0  0  0  0  0  0
   11.0563    3.3085    2.0747 C   0  0  0  0  0  0  0  0  0  0  0  0
   11.0469    2.1800    2.5489 O   0  0  0  0  0  0  0  0  0  0  0  0
   11.4357    4.3845    2.8211 N   0  0  0  0  0  0  0  0  0  0  0  0
    7.2854    0.4416    1.9743 N   0  0  0  0  0  0  0  0  0  0  0  0
    6.3740   -0.2310    2.7190 C   0  0  0  0  0  0  0  0  0  0  0  0
    4.9774   -0.2168    2.5503 C   0  0  0  0  0  0  0  0  0  0  0  0
    4.0457   -1.0451    3.5604 C   0  0  0  0  0  0  0  0  0  0  0  0
    2.7425   -0.3825    4.1089 C   0  0  0  0  0  0  0  0  0  0  0  0
    2.0503   -1.7496    3.9870 C   0  0  0  0  0  0  0  0  0  0  0  0
    3.1349   -2.1671    2.9793 C   0  0  0  0  0  0  0  0  0  0  0  0
    4.8497   -1.4979    4.5650 F   0  0  0  0  0  0  0  0  0  0  0  0
    0.9216    1.2756   -1.1638 H   0  0  0  0  0  0  0  0  0  0  0  0
    0.6473    0.5194    0.4287 H   0  0  0  0  0  0  0  0  0  0  0  0
    1.6498   -0.2921   -0.7713 H   0  0  0  0  0  0  0  0  0  0  0  0
    3.3012    1.4513   -0.6884 H   0  0  0  0  0  0  0  0  0  0  0  0
    5.1411    1.9770   -0.1018 H   0  0  0  0  0  0  0  0  0  0  0  0
    9.2274    1.1499    1.2804 H   0  0  0  0  0  0  0  0  0  0  0  0
   11.1083    0.3253   -0.3818 H   0  0  0  0  0  0  0  0  0  0  0  0
   12.3109    1.5170    0.1510 H   0  0  0  0  0  0  0  0  0  0  0  0
   10.1136    3.7913   -1.9574 H   0  0  0  0  0  0  0  0  0  0  0  0
    9.2510    2.2649   -2.2245 H   0  0  0  0  0  0  0  0  0  0  0  0
    9.8230    4.3420    0.6864 H   0  0  0  0  0  0  0  0  0  0  0  0
   11.5049    4.1481    0.1818 H   0  0  0  0  0  0  0  0  0  0  0  0
   11.5979    5.3012    2.4282 H   0  0  0  0  0  0  0  0  0  0  0  0
   11.7409    4.2089    3.7704 H   0  0  0  0  0  0  0  0  0  0  0  0
    6.8150   -0.8274    3.5188 H   0  0  0  0  0  0  0  0  0  0  0  0
    2.2918    0.3948    3.4865 H   0  0  0  0  0  0  0  0  0  0  0  0
    2.8164   -0.0005    5.1319 H   0  0  0  0  0  0  0  0  0  0  0  0
    1.0300   -1.7270    3.5947 H   0  0  0  0  0  0  0  0  0  0  0  0
    2.0607   -2.3310    4.9160 H   0  0  0  0  0  0  0  0  0  0  0  0
    3.5132   -3.1846    3.1199 H   0  0  0  0  0  0  0  0  0  0  0  0
    2.8447   -2.0421    1.9319 H   0  0  0  0  0  0  0  0  0  0  0  0
  1 32  1  0  0  0  0
  1 33  1  0  0  0  0
  1 34  1  0  0  0  0
  2  1  1  0  0  0  0
  2  3  1  0  0  0  0
  2  7  1  0  0  0  0
  2 35  1  6  0  0  0
  3  4  1  0  0  0  0
  3  5  1  0  0  0  0
  3  6  1  0  0  0  0
  7  8  1  0  0  0  0
  8 26  2  0  0  0  0
  8  9  1  0  0  0  0
  9 10  2  0  0  0  0
  9 36  1  0  0  0  0
 10 11  1  0  0  0  0
 10 24  1  0  0  0  0
 11 12  2  0  0  0  0
 11 13  1  0  0  0  0
 13 14  1  0  0  0  0
 13 37  1  0  0  0  0
 14 19  1  0  0  0  0
 14 15  1  0  0  0  0
 14 20  1  0  0  0  0
 15 16  1  0  0  0  0
 15 38  1  0  0  0  0
 15 39  1  0  0  0  0
 16 17  2  0  0  0  0
 16 18  2  0  0  0  0
 16 19  1  0  0  0  0
 19 40  1  0  0  0  0
 19 41  1  0  0  0  0
 20 21  1  0  0  0  0
 20 42  1  0  0  0  0
 20 43  1  0  0  0  0
 21 22  2  0  0  0  0
 21 23  1  0  0  0  0
 23 44  1  0  0  0  0
 23 45  1  0  0  0  0
 24 25  2  0  0  0  0
 25 26  1  0  0  0  0
 25 46  1  0  0  0  0
 26 27  1  0  0  0  0
 27 30  1  0  0  0  0
 27 28  1  0  0  0  0
 27 31  1  0  0  0  0
 28 29  1  0  0  0  0
 28 47  1  0  0  0  0
 28 48  1  0  0  0  0
 29 30  1  0  0  0  0
 29 49  1  0  0  0  0
 29 50  1  0  0  0  0
 30 51  1  0  0  0  0
 30 52  1  0  0  0  0
M  END
$$$$
CHEMBL1807841
 OpenBabel12022418093D

 57 60  0  0  0  0  0  0  0  0999 V2000
    0.8705   -0.1420   -0.0602 C   0  0  0  0  0  0  0  0  0  0  0  0
    2.3683   -0.0645   -0.0928 C   0  0  0  0  0  0  0  0  0  0  0  0
    3.1499    1.0863   -0.0711 C   0  0  0  0  0  0  0  0  0  0  0  0
    2.6740    2.5116   -0.1417 C   0  0  0  0  0  0  0  0  0  0  0  0
    1.8695    2.9843    1.0764 C   0  0  0  0  0  0  0  0  0  0  0  0
    1.4383    4.3869    1.0710 N   0  0  0  0  0  0  0  0  0  0  0  0
    2.5404    5.3431    1.2637 C   0  0  0  0  0  0  0  0  0  0  0  0
    1.9650    6.7613    1.4057 C   0  0  0  0  0  0  0  0  0  0  0  0
    1.2071    7.1356    0.2446 O   0  0  0  0  0  0  0  0  0  0  0  0
    0.1418    6.1995    0.0174 C   0  0  0  0  0  0  0  0  0  0  0  0
    0.6832    4.7711   -0.1364 C   0  0  0  0  0  0  0  0  0  0  0  0
    4.5152    0.6779   -0.0570 C   0  0  0  0  0  0  0  0  0  0  0  0
    5.7413    1.3876   -0.0155 C   0  0  0  0  0  0  0  0  0  0  0  0
    6.9618    0.7097   -0.1009 C   0  0  0  0  0  0  0  0  0  0  0  0
    6.9604   -0.6693   -0.2758 C   0  0  0  0  0  0  0  0  0  0  0  0
    5.7634   -1.3889   -0.3359 C   0  0  0  0  0  0  0  0  0  0  0  0
    4.5371   -0.7144   -0.1683 C   0  0  0  0  0  0  0  0  0  0  0  0
    3.2162   -1.1806   -0.1134 N   0  0  0  0  0  0  0  0  0  0  0  0
    2.8089   -2.5480   -0.0697 C   0  0  0  0  0  0  0  0  0  0  0  0
    1.6830   -2.8201   -0.4743 O   0  0  0  0  0  0  0  0  0  0  0  0
    3.6093   -3.6602    0.5148 C   0  0  0  0  0  0  0  0  0  0  0  0
    4.3503   -3.3954    1.6827 C   0  0  0  0  0  0  0  0  0  0  0  0
    5.0871   -4.3994    2.2999 C   0  0  0  0  0  0  0  0  0  0  0  0
    5.0396   -5.6967    1.7977 C   0  0  0  0  0  0  0  0  0  0  0  0
    4.2734   -5.9858    0.6639 C   0  0  0  0  0  0  0  0  0  0  0  0
    3.5666   -4.9705   -0.0013 C   0  0  0  0  0  0  0  0  0  0  0  0
    2.7131   -5.3486   -1.4660 Cl  0  0  0  0  0  0  0  0  0  0  0  0
    4.2461   -7.6391    0.1455 Cl  0  0  0  0  0  0  0  0  0  0  0  0
    8.0775    1.5041   -0.0288 O   0  0  0  0  0  0  0  0  0  0  0  0
    9.3360    0.8300   -0.0783 C   0  0  0  0  0  0  0  0  0  0  0  0
   10.4672    1.8376    0.0004 C   0  0  0  0  0  0  0  0  0  0  0  0
   11.6535    1.1721   -0.0365 F   0  0  0  0  0  0  0  0  0  0  0  0
    0.4524   -1.1368    0.0758 H   0  0  0  0  0  0  0  0  0  0  0  0
    0.4536    0.2790   -0.9789 H   0  0  0  0  0  0  0  0  0  0  0  0
    0.4838    0.4276    0.7881 H   0  0  0  0  0  0  0  0  0  0  0  0
    2.0741    2.6084   -1.0543 H   0  0  0  0  0  0  0  0  0  0  0  0
    3.5397    3.1702   -0.2739 H   0  0  0  0  0  0  0  0  0  0  0  0
    2.4285    2.7806    1.9988 H   0  0  0  0  0  0  0  0  0  0  0  0
    0.9567    2.3889    1.1689 H   0  0  0  0  0  0  0  0  0  0  0  0
    3.2269    5.3194    0.4079 H   0  0  0  0  0  0  0  0  0  0  0  0
    3.1111    5.0951    2.1651 H   0  0  0  0  0  0  0  0  0  0  0  0
    2.7800    7.4829    1.5157 H   0  0  0  0  0  0  0  0  0  0  0  0
    1.3266    6.8395    2.2944 H   0  0  0  0  0  0  0  0  0  0  0  0
   -0.3730    6.5012   -0.9003 H   0  0  0  0  0  0  0  0  0  0  0  0
   -0.5790    6.2613    0.8415 H   0  0  0  0  0  0  0  0  0  0  0  0
   -0.1520    4.0824   -0.3053 H   0  0  0  0  0  0  0  0  0  0  0  0
    1.3335    4.7416   -1.0213 H   0  0  0  0  0  0  0  0  0  0  0  0
    5.7411    2.4693    0.0812 H   0  0  0  0  0  0  0  0  0  0  0  0
    7.8824   -1.2313   -0.3777 H   0  0  0  0  0  0  0  0  0  0  0  0
    5.8101   -2.4595   -0.5146 H   0  0  0  0  0  0  0  0  0  0  0  0
    4.3717   -2.3957    2.1209 H   0  0  0  0  0  0  0  0  0  0  0  0
    5.6908   -4.1756    3.1772 H   0  0  0  0  0  0  0  0  0  0  0  0
    5.5981   -6.4839    2.2982 H   0  0  0  0  0  0  0  0  0  0  0  0
    9.4373    0.2725   -1.0173 H   0  0  0  0  0  0  0  0  0  0  0  0
    9.4284    0.1334    0.7640 H   0  0  0  0  0  0  0  0  0  0  0  0
   10.4243    2.4178    0.9262 H   0  0  0  0  0  0  0  0  0  0  0  0
   10.4371    2.5373   -0.8409 H   0  0  0  0  0  0  0  0  0  0  0  0
  1  2  1  0  0  0  0
  1 33  1  0  0  0  0
  1 34  1  0  0  0  0
  1 35  1  0  0  0  0
  2 18  1  0  0  0  0
  2  3  2  0  0  0  0
  3  4  1  0  0  0  0
  3 12  1  0  0  0  0
  4  5  1  0  0  0  0
  4 36  1  0  0  0  0
  4 37  1  0  0  0  0
  5  6  1  0  0  0  0
  5 38  1  0  0  0  0
  5 39  1  0  0  0  0
  6 11  1  0  0  0  0
  6  7  1  0  0  0  0
  7  8  1  0  0  0  0
  7 40  1  0  0  0  0
  7 41  1  0  0  0  0
  8  9  1  0  0  0  0
  8 42  1  0  0  0  0
  8 43  1  0  0  0  0
  9 10  1  0  0  0  0
 10 11  1  0  0  0  0
 10 44  1  0  0  0  0
 10 45  1  0  0  0  0
 11 46  1  0  0  0  0
 11 47  1  0  0  0  0
 12 17  2  0  0  0  0
 12 13  1  0  0  0  0
 13 14  2  0  0  0  0
 13 48  1  0  0  0  0
 14 15  1  0  0  0  0
 14 29  1  0  0  0  0
 15 16  2  0  0  0  0
 15 49  1  0  0  0  0
 16 17  1  0  0  0  0
 16 50  1  0  0  0  0
 17 18  1  0  0  0  0
 18 19  1  0  0  0  0
 19 20  2  0  0  0  0
 19 21  1  0  0  0  0
 21 26  2  0  0  0  0
 21 22  1  0  0  0  0
 22 23  2  0  0  0  0
 22 51  1  0  0  0  0
 23 24  1  0  0  0  0
 23 52  1  0  0  0  0
 24 25  2  0  0  0  0
 24 53  1  0  0  0  0
 25 26  1  0  0  0  0
 25 28  1  0  0  0  0
 26 27  1  0  0  0  0
 29 30  1  0  0  0  0
 30 31  1  0  0  0  0
 30 54  1  0  0  0  0
 30 55  1  0  0  0  0
 31 32  1  0  0  0  0
 31 56  1  0  0  0  0
 31 57  1  0  0  0  0
M  END
$$$$
CHEMBL480540
 OpenBabel12022418093D

 48 51  0  0  0  0  0  0  0  0999 V2000
    3.1972   -0.6383   -1.7357 O   0  0  0  0  0  0  0  0  0  0  0  0
    2.3800   -0.8756   -0.8449 C   0  0  0  0  0  0  0  0  0  0  0  0
    2.8237   -1.4906    0.4683 C   0  0  0  0  0  0  0  0  0  0  0  0
    1.8221   -2.3508    1.0648 N   0  0  0  0  0  0  0  0  0  0  0  0
    1.9837   -3.6816    1.1757 N   0  0  0  0  0  0  0  0  0  0  0  0
    0.8615   -4.0664    1.8213 C   0  0  0  0  0  0  0  0  0  0  0  0
    0.6060   -5.4964    2.0828 C   0  0  0  0  0  0  0  0  0  0  0  0
    1.0337   -6.4283    1.1100 C   0  0  0  0  0  0  0  0  0  0  0  0
    0.7815   -7.7994    1.2447 C   0  0  0  0  0  0  0  0  0  0  0  0
    0.0623   -8.2609    2.3401 C   0  0  0  0  0  0  0  0  0  0  0  0
   -0.3587   -7.3718    3.3208 C   0  0  0  0  0  0  0  0  0  0  0  0
   -0.0453   -6.0073    3.2201 C   0  0  0  0  0  0  0  0  0  0  0  0
   -0.3980   -5.0655    4.6284 Cl  0  0  0  0  0  0  0  0  0  0  0  0
   -0.2671   -9.9402    2.5070 Cl  0  0  0  0  0  0  0  0  0  0  0  0
    0.0542   -2.8909    2.0469 C   0  0  0  0  0  0  0  0  0  0  0  0
   -1.2662   -2.7301    2.6470 C   0  0  0  0  0  0  0  0  0  0  0  0
   -2.3071   -3.5795    2.2273 C   0  0  0  0  0  0  0  0  0  0  0  0
   -3.5551   -3.5222    2.8521 C   0  0  0  0  0  0  0  0  0  0  0  0
   -3.7889   -2.5958    3.8657 C   0  0  0  0  0  0  0  0  0  0  0  0
   -2.7843   -1.7182    4.2643 C   0  0  0  0  0  0  0  0  0  0  0  0
   -1.5255   -1.7870    3.6625 C   0  0  0  0  0  0  0  0  0  0  0  0
   -0.3144   -0.7146    4.2906 Cl  0  0  0  0  0  0  0  0  0  0  0  0
   -5.3198   -2.5539    4.6448 Cl  0  0  0  0  0  0  0  0  0  0  0  0
    0.6751   -1.8268    1.5210 N   0  0  0  0  0  0  0  0  0  0  0  0
    1.0585   -0.5059   -0.9509 N   0  0  0  0  0  0  0  0  0  0  0  0
    0.4851    0.0529   -2.1540 C   0  0  0  0  0  0  0  0  0  0  0  0
   -0.3322    1.2818   -1.8473 C   0  0  0  0  0  0  0  0  0  0  0  0
    0.2924    2.5403   -1.9250 C   0  0  0  0  0  0  0  0  0  0  0  0
   -0.4167    3.7111   -1.6516 C   0  0  0  0  0  0  0  0  0  0  0  0
   -1.7575    3.6451   -1.2858 C   0  0  0  0  0  0  0  0  0  0  0  0
   -2.3883    2.4054   -1.1864 C   0  0  0  0  0  0  0  0  0  0  0  0
   -1.6796    1.2291   -1.4590 C   0  0  0  0  0  0  0  0  0  0  0  0
   -2.5233   -0.2702   -1.2879 Cl  0  0  0  0  0  0  0  0  0  0  0  0
    3.0489   -0.6944    1.1846 H   0  0  0  0  0  0  0  0  0  0  0  0
    3.7256   -2.0882    0.3008 H   0  0  0  0  0  0  0  0  0  0  0  0
    1.5875   -6.0900    0.2327 H   0  0  0  0  0  0  0  0  0  0  0  0
    1.1516   -8.4941    0.4948 H   0  0  0  0  0  0  0  0  0  0  0  0
   -0.9051   -7.7451    4.1847 H   0  0  0  0  0  0  0  0  0  0  0  0
   -2.1471   -4.3074    1.4396 H   0  0  0  0  0  0  0  0  0  0  0  0
   -4.3350   -4.2200    2.5548 H   0  0  0  0  0  0  0  0  0  0  0  0
   -2.9759   -0.9971    5.0549 H   0  0  0  0  0  0  0  0  0  0  0  0
    0.4215   -0.7409   -0.1886 H   0  0  0  0  0  0  0  0  0  0  0  0
   -0.1257   -0.7236   -2.6268 H   0  0  0  0  0  0  0  0  0  0  0  0
    1.2704    0.2953   -2.8786 H   0  0  0  0  0  0  0  0  0  0  0  0
    1.3429    2.6110   -2.2019 H   0  0  0  0  0  0  0  0  0  0  0  0
    0.0821    4.6760   -1.7222 H   0  0  0  0  0  0  0  0  0  0  0  0
   -2.3106    4.5568   -1.0719 H   0  0  0  0  0  0  0  0  0  0  0  0
   -3.4348    2.3623   -0.8923 H   0  0  0  0  0  0  0  0  0  0  0  0
  1  2  2  0  0  0  0
  2  3  1  0  0  0  0
  2 25  1  0  0  0  0
  3  4  1  0  0  0  0
  3 34  1  0  0  0  0
  3 35  1  0  0  0  0
  4 24  1  0  0  0  0
  4  5  1  0  0  0  0
  5  6  2  0  0  0  0
  6  7  1  0  0  0  0
  6 15  1  0  0  0  0
  7 12  2  0  0  0  0
  7  8  1  0  0  0  0
  8  9  2  0  0  0  0
  8 36  1  0  0  0  0
  9 10  1  0  0  0  0
  9 37  1  0  0  0  0
 10 11  2  0  0  0  0
 10 14  1  0  0  0  0
 11 12  1  0  0  0  0
 11 38  1  0  0  0  0
 12 13  1  0  0  0  0
 15 16  1  0  0  0  0
 15 24  2  0  0  0  0
 16 21  2  0  0  0  0
 16 17  1  0  0  0  0
 17 18  2  0  0  0  0
 17 39  1  0  0  0  0
 18 19  1  0  0  0  0
 18 40  1  0  0  0  0
 19 20  2  0  0  0  0
 19 23  1  0  0  0  0
 20 21  1  0  0  0  0
 20 41  1  0  0  0  0
 21 22  1  0  0  0  0
 25 26  1  0  0  0  0
 25 42  1  0  0  0  0
 26 27  1  0  0  0  0
 26 43  1  0  0  0  0
 26 44  1  0  0  0  0
 27 32  2  0  0  0  0
 27 28  1  0  0  0  0
 28 29  2  0  0  0  0
 28 45  1  0  0  0  0
 29 30  1  0  0  0  0
 29 46  1  0  0  0  0
 30 31  2  0  0  0  0
 30 47  1  0  0  0  0
 31 32  1  0  0  0  0
 31 48  1  0  0  0  0
 32 33  1  0  0  0  0
M  END
$$$$
CHEMBL4070881
 OpenBabel12022418093D

 63 67  0  0  1  0  0  0  0  0999 V2000
    0.9514    0.3514   -0.5917 C   0  0  0  0  0  0  0  0  0  0  0  0
    2.2638    0.0636   -0.1197 O   0  0  0  0  0  0  0  0  0  0  0  0
    2.9708   -0.9129   -0.7826 C   0  0  0  0  0  0  0  0  0  0  0  0
    2.6638   -1.2104   -2.1269 C   0  0  0  0  0  0  0  0  0  0  0  0
    3.4326   -2.0947   -2.8681 C   0  0  0  0  0  0  0  0  0  0  0  0
    4.5487   -2.6633   -2.2849 C   0  0  0  0  0  0  0  0  0  0  0  0
    4.8508   -2.3969   -0.9450 C   0  0  0  0  0  0  0  0  0  0  0  0
    4.0592   -1.5601   -0.1297 C   0  0  0  0  0  0  0  0  0  0  0  0
    4.4093   -1.4674    1.2556 N   0  0  0  0  0  0  0  0  0  0  0  0
    5.4542   -2.2690    1.7466 C   0  0  0  0  0  0  0  0  0  0  0  0
    6.2843   -3.0501    1.0353 C   0  0  0  0  0  0  0  0  0  0  0  0
    6.0652   -3.0487   -0.4172 C   0  0  0  0  0  0  0  0  0  0  0  0
    6.8515   -3.5861   -1.1864 O   0  0  0  0  0  0  0  0  0  0  0  0
    7.3516   -3.9039    1.6703 C   0  0  0  0  0  0  0  0  0  0  0  0
    7.4756   -3.9228    2.8930 O   0  0  0  0  0  0  0  0  0  0  0  0
    8.1426   -4.6488    0.7959 N   0  0  0  0  0  0  0  0  0  0  0  0
    9.2449   -5.5418    1.2031 C   0  0  1  0  0  0  0  0  0  0  0  0
   10.2920   -4.7058    1.9660 C   0  0  0  0  0  0  0  0  0  0  0  0
   11.4335   -5.5778    2.4845 C   0  0  1  0  0  0  0  0  0  0  0  0
   10.8588   -6.6726    3.3976 C   0  0  0  0  0  0  0  0  0  0  0  0
    9.8699   -7.5568    2.6203 C   0  0  1  0  0  0  0  0  0  0  0  0
    8.7138   -6.6919    2.0934 C   0  0  0  0  0  0  0  0  0  0  0  0
   10.5981   -8.2032    1.4348 C   0  0  0  0  0  0  0  0  0  0  0  0
   11.1619   -7.1083    0.5114 C   0  0  2  0  0  0  0  0  0  0  0  0
   12.1462   -6.2163    1.2884 C   0  0  0  0  0  0  0  0  0  0  0  0
    9.9870   -6.2279   -0.0035 C   0  0  0  0  0  0  0  0  0  0  0  0
    3.5029   -0.6522    2.1166 C   0  0  0  0  0  0  0  0  0  0  0  0
    3.8622   -0.5673    3.6000 C   0  0  0  0  0  0  0  0  0  0  0  0
    5.1305    0.0690    3.7785 O   0  0  0  0  0  0  0  0  0  0  0  0
    5.4792    0.1026    5.1588 C   0  0  0  0  0  0  0  0  0  0  0  0
    6.8480    0.7235    5.3407 C   0  0  0  0  0  0  0  0  0  0  0  0
    7.1331    0.7711    6.6695 F   0  0  0  0  0  0  0  0  0  0  0  0
    0.4847    1.0447    0.1129 H   0  0  0  0  0  0  0  0  0  0  0  0
    0.3501   -0.5627   -0.6207 H   0  0  0  0  0  0  0  0  0  0  0  0
    0.9672    0.8490   -1.5676 H   0  0  0  0  0  0  0  0  0  0  0  0
    1.8319   -0.7440   -2.6426 H   0  0  0  0  0  0  0  0  0  0  0  0
    3.1818   -2.3131   -3.9019 H   0  0  0  0  0  0  0  0  0  0  0  0
    5.1867   -3.3126   -2.8782 H   0  0  0  0  0  0  0  0  0  0  0  0
    5.5938   -2.2212    2.8182 H   0  0  0  0  0  0  0  0  0  0  0  0
    8.0510   -4.4287   -0.1974 H   0  0  0  0  0  0  0  0  0  0  0  0
    9.8366   -4.1943    2.8178 H   0  0  0  0  0  0  0  0  0  0  0  0
   10.6806   -3.9176    1.3068 H   0  0  0  0  0  0  0  0  0  0  0  0
   12.1324   -4.9504    3.0477 H   0  0  0  0  0  0  0  0  0  0  0  0
   10.3517   -6.2155    4.2562 H   0  0  0  0  0  0  0  0  0  0  0  0
   11.6750   -7.2864    3.7959 H   0  0  0  0  0  0  0  0  0  0  0  0
    9.4701   -8.3355    3.2799 H   0  0  0  0  0  0  0  0  0  0  0  0
    8.0116   -7.3159    1.5215 H   0  0  0  0  0  0  0  0  0  0  0  0
    8.1468   -6.3000    2.9427 H   0  0  0  0  0  0  0  0  0  0  0  0
    9.9047   -8.8420    0.8733 H   0  0  0  0  0  0  0  0  0  0  0  0
   11.4010   -8.8564    1.8003 H   0  0  0  0  0  0  0  0  0  0  0  0
   11.6908   -7.5813   -0.3253 H   0  0  0  0  0  0  0  0  0  0  0  0
   13.0120   -6.7931    1.6348 H   0  0  0  0  0  0  0  0  0  0  0  0
   12.5335   -5.4320    0.6250 H   0  0  0  0  0  0  0  0  0  0  0  0
   10.3823   -5.4776   -0.7005 H   0  0  0  0  0  0  0  0  0  0  0  0
    9.3025   -6.8581   -0.5880 H   0  0  0  0  0  0  0  0  0  0  0  0
    2.4879   -1.0709    2.0662 H   0  0  0  0  0  0  0  0  0  0  0  0
    3.4931    0.3822    1.7536 H   0  0  0  0  0  0  0  0  0  0  0  0
    3.8669   -1.5661    4.0495 H   0  0  0  0  0  0  0  0  0  0  0  0
    3.1036    0.0351    4.1153 H   0  0  0  0  0  0  0  0  0  0  0  0
    5.4808   -0.9132    5.5699 H   0  0  0  0  0  0  0  0  0  0  0  0
    4.7329    0.6902    5.7038 H   0  0  0  0  0  0  0  0  0  0  0  0
    6.8771    1.7416    4.9414 H   0  0  0  0  0  0  0  0  0  0  0  0
    7.6225    0.1385    4.8355 H   0  0  0  0  0  0  0  0  0  0  0  0
  1  2  1  0  0  0  0
  1 33  1  0  0  0  0
  1 34  1  0  0  0  0
  1 35  1  0  0  0  0
  2  3  1  0  0  0  0
  3  8  2  0  0  0  0
  3  4  1  0  0  0  0
  4  5  2  0  0  0  0
  4 36  1  0  0  0  0
  5  6  1  0  0  0  0
  5 37  1  0  0  0  0
  6  7  2  0  0  0  0
  6 38  1  0  0  0  0
  7 12  1  0  0  0  0
  7  8  1  0  0  0  0
  8  9  1  0  0  0  0
  9 10  1  0  0  0  0
  9 27  1  0  0  0  0
 10 11  2  0  0  0  0
 10 39  1  0  0  0  0
 11 12  1  0  0  0  0
 11 14  1  0  0  0  0
 12 13  2  0  0  0  0
 14 15  2  0  0  0  0
 14 16  1  0  0  0  0
 16 40  1  0  0  0  0
 17 16  1  6  0  0  0
 17 22  1  0  0  0  0
 17 26  1  0  0  0  0
 17 18  1  0  0  0  0
 18 41  1  0  0  0  0
 18 42  1  0  0  0  0
 19 18  1  0  0  0  0
 19 20  1  0  0  0  0
 19 25  1  0  0  0  0
 19 43  1  1  0  0  0
 20 44  1  0  0  0  0
 20 45  1  0  0  0  0
 21 20  1  0  0  0  0
 21 22  1  0  0  0  0
 21 23  1  0  0  0  0
 21 46  1  1  0  0  0
 22 47  1  0  0  0  0
 22 48  1  0  0  0  0
 23 49  1  0  0  0  0
 23 50  1  0  0  0  0
 24 23  1  0  0  0  0
 24 25  1  0  0  0  0
 24 26  1  0  0  0  0
 24 51  1  6  0  0  0
 25 52  1  0  0  0  0
 25 53  1  0  0  0  0
 26 54  1  0  0  0  0
 26 55  1  0  0  0  0
 27 28  1  0  0  0  0
 27 56  1  0  0  0  0
 27 57  1  0  0  0  0
 28 29  1  0  0  0  0
 28 58  1  0  0  0  0
 28 59  1  0  0  0  0
 29 30  1  0  0  0  0
 30 31  1  0  0  0  0
 30 60  1  0  0  0  0
 30 61  1  0  0  0  0
 31 32  1  0  0  0  0
 31 62  1  0  0  0  0
 31 63  1  0  0  0  0
M  END
$$$$
CHEMBL4216075
 OpenBabel12032413423D

 65 64  0  0  1  0  0  0  0  0999 V2000
    2.9610   -6.9880    2.7540 C   0  0  0  0  0  0  0  0  0  0  0  0
    3.7340   -5.8670    2.0780 C   0  0  0  0  0  0  0  0  0  0  0  0
    3.8450   -6.0910    0.5720 C   0  0  0  0  0  0  0  0  0  0  0  0
    4.6420   -4.9660   -0.0910 C   0  0  0  0  0  0  0  0  0  0  0  0
    4.7770   -5.2080   -1.5910 C   0  0  0  0  0  0  0  0  0  0  0  0
    5.6290   -4.1690   -2.2670 C   0  0  0  0  0  0  0  0  0  0  0  0
    5.7460   -4.1470   -3.6030 C   0  0  0  0  0  0  0  0  0  0  0  0
    6.5920   -3.1910   -4.4070 C   0  0  2  0  0  0  0  0  0  0  0  0
    7.2970   -2.6980   -3.7230 H   0  0  0  0  0  0  0  0  0  0  0  0
    5.7310   -2.0740   -5.0050 C   0  0  0  0  0  0  0  0  0  0  0  0
    7.4490   -3.9240   -5.4320 C   0  0  0  0  0  0  0  0  0  0  0  0
    7.0660   -4.5980   -6.5370 C   0  0  0  0  0  0  0  0  0  0  0  0
    5.6430   -4.7400   -6.9800 C   0  0  0  0  0  0  0  0  0  0  0  0
    5.3620   -5.7260   -8.0780 C   0  0  0  0  0  0  0  0  0  0  0  0
    4.0940   -6.0860   -8.3750 C   0  0  0  0  0  0  0  0  0  0  0  0
    2.9140   -5.5260   -7.6070 C   0  0  0  0  0  0  0  0  0  0  0  0
    1.5650   -5.8880   -8.1520 C   0  0  0  0  0  0  0  0  0  0  0  0
    0.4120   -5.4750   -7.5910 C   0  0  0  0  0  0  0  0  0  0  0  0
    0.3120   -4.6000   -6.3650 C   0  0  0  0  0  0  0  0  0  0  0  0
   -1.1420   -4.3140   -5.9870 C   0  0  0  0  0  0  0  0  0  0  0  0
   -1.2600   -3.4110   -4.7570 C   0  0  0  0  0  0  0  0  0  0  0  0
   -2.7110   -3.1050   -4.4320 C   0  0  0  0  0  0  0  0  0  0  0  0
   -3.6530   -3.5030   -5.1110 O   0  0  0  0  0  0  0  0  0  0  0  0
   -2.8800   -2.3270   -3.3030 N   0  0  0  0  0  0  0  0  0  0  0  0
   -4.2190   -2.0560   -2.8210 C   0  0  0  0  0  0  0  0  0  0  0  0
   -4.2520   -1.1200   -1.6170 C   0  0  0  0  0  0  0  0  0  0  0  0
   -5.5910   -0.8610   -1.2070 O   0  0  0  0  0  0  0  0  0  0  0  0
    2.8960   -6.8050    3.8300 H   0  0  0  0  0  0  0  0  0  0  0  0
    3.4550   -7.9530    2.6020 H   0  0  0  0  0  0  0  0  0  0  0  0
    1.9430   -7.0560    2.3580 H   0  0  0  0  0  0  0  0  0  0  0  0
    4.7360   -5.8060    2.5180 H   0  0  0  0  0  0  0  0  0  0  0  0
    3.2340   -4.9130    2.2750 H   0  0  0  0  0  0  0  0  0  0  0  0
    2.8430   -6.1460    0.1290 H   0  0  0  0  0  0  0  0  0  0  0  0
    4.3360   -7.0530    0.3780 H   0  0  0  0  0  0  0  0  0  0  0  0
    5.6380   -4.9060    0.3650 H   0  0  0  0  0  0  0  0  0  0  0  0
    4.1450   -4.0050    0.0870 H   0  0  0  0  0  0  0  0  0  0  0  0
    3.7770   -5.2170   -2.0470 H   0  0  0  0  0  0  0  0  0  0  0  0
    5.2270   -6.1930   -1.7610 H   0  0  0  0  0  0  0  0  0  0  0  0
    6.1630   -3.4460   -1.6570 H   0  0  0  0  0  0  0  0  0  0  0  0
    5.1820   -4.8960   -4.1500 H   0  0  0  0  0  0  0  0  0  0  0  0
    6.3300   -1.4030   -5.6310 H   0  0  0  0  0  0  0  0  0  0  0  0
    5.2820   -1.4680   -4.2080 H   0  0  0  0  0  0  0  0  0  0  0  0
    4.9010   -2.4550   -5.6080 H   0  0  0  0  0  0  0  0  0  0  0  0
    8.5190   -3.8770   -5.2270 H   0  0  0  0  0  0  0  0  0  0  0  0
    7.8380   -5.0490   -7.1570 H   0  0  0  0  0  0  0  0  0  0  0  0
    5.2910   -3.7620   -7.3190 H   0  0  0  0  0  0  0  0  0  0  0  0
    5.0520   -5.0610   -6.1210 H   0  0  0  0  0  0  0  0  0  0  0  0
    6.1860   -6.1360   -8.6550 H   0  0  0  0  0  0  0  0  0  0  0  0
    3.9130   -6.7880   -9.1790 H   0  0  0  0  0  0  0  0  0  0  0  0
    2.9880   -4.4330   -7.5920 H   0  0  0  0  0  0  0  0  0  0  0  0
    2.9720   -5.9010   -6.5760 H   0  0  0  0  0  0  0  0  0  0  0  0
    1.5130   -6.5140   -9.0390 H   0  0  0  0  0  0  0  0  0  0  0  0
   -0.5200   -5.7910   -8.0560 H   0  0  0  0  0  0  0  0  0  0  0  0
    0.8250   -3.6490   -6.5550 H   0  0  0  0  0  0  0  0  0  0  0  0
    0.8120   -5.0920   -5.5220 H   0  0  0  0  0  0  0  0  0  0  0  0
   -1.6650   -5.2590   -5.7910 H   0  0  0  0  0  0  0  0  0  0  0  0
   -1.6550   -3.8410   -6.8350 H   0  0  0  0  0  0  0  0  0  0  0  0
   -0.7410   -2.4590   -4.9360 H   0  0  0  0  0  0  0  0  0  0  0  0
   -0.8000   -3.8950   -3.8870 H   0  0  0  0  0  0  0  0  0  0  0  0
   -2.0910   -2.1930   -2.6850 H   0  0  0  0  0  0  0  0  0  0  0  0
   -4.6970   -3.0100   -2.5710 H   0  0  0  0  0  0  0  0  0  0  0  0
   -4.8150   -1.6320   -3.6410 H   0  0  0  0  0  0  0  0  0  0  0  0
   -3.7670   -0.1650   -1.8390 H   0  0  0  0  0  0  0  0  0  0  0  0
   -3.7270   -1.5730   -0.7680 H   0  0  0  0  0  0  0  0  0  0  0  0
   -6.0590   -0.4580   -1.9600 H   0  0  0  0  0  0  0  0  0  0  0  0
  1  2  1  0  0  0  0
  1 28  1  0  0  0  0
  1 29  1  0  0  0  0
  1 30  1  0  0  0  0
  2  3  1  0  0  0  0
  2 31  1  0  0  0  0
  2 32  1  0  0  0  0
  3  4  1  0  0  0  0
  3 33  1  0  0  0  0
  3 34  1  0  0  0  0
  4  5  1  0  0  0  0
  4 35  1  0  0  0  0
  4 36  1  0  0  0  0
  5  6  1  0  0  0  0
  5 37  1  0  0  0  0
  5 38  1  0  0  0  0
  6  7  2  0  0  0  0
  6 39  1  0  0  0  0
  7  8  1  0  0  0  0
  7 40  1  0  0  0  0
  8 10  1  0  0  0  0
  8 11  1  0  0  0  0
  8  9  1  1  0  0  0
 10 41  1  0  0  0  0
 10 42  1  0  0  0  0
 10 43  1  0  0  0  0
 11 12  2  0  0  0  0
 11 44  1  0  0  0  0
 12 13  1  0  0  0  0
 12 45  1  0  0  0  0
 13 14  1  0  0  0  0
 13 46  1  0  0  0  0
 13 47  1  0  0  0  0
 14 15  2  0  0  0  0
 14 48  1  0  0  0  0
 15 16  1  0  0  0  0
 15 49  1  0  0  0  0
 16 17  1  0  0  0  0
 16 50  1  0  0  0  0
 16 51  1  0  0  0  0
 17 18  2  0  0  0  0
 17 52  1  0  0  0  0
 18 19  1  0  0  0  0
 18 53  1  0  0  0  0
 19 20  1  0  0  0  0
 19 54  1  0  0  0  0
 19 55  1  0  0  0  0
 20 21  1  0  0  0  0
 20 56  1  0  0  0  0
 20 57  1  0  0  0  0
 21 22  1  0  0  0  0
 21 58  1  0  0  0  0
 21 59  1  0  0  0  0
 22 23  2  0  0  0  0
 22 24  1  0  0  0  0
 24 25  1  0  0  0  0
 24 60  1  0  0  0  0
 25 26  1  0  0  0  0
 25 61  1  0  0  0  0
 25 62  1  0  0  0  0
 26 27  1  0  0  0  0
 26 63  1  0  0  0  0
 26 64  1  0  0  0  0
 27 65  1  0  0  0  0
M  END
$$$$
CHEMBL361088
 OpenBabel12022418093D

 53 55  0  0  0  0  0  0  0  0999 V2000
    4.6207    3.8645    6.8506 C   0  0  0  0  0  0  0  0  0  0  0  0
    4.2590    2.6680    5.9865 C   0  0  0  0  0  0  0  0  0  0  0  0
    4.8259    2.8198    4.5758 C   0  0  0  0  0  0  0  0  0  0  0  0
    4.4741    1.6133    3.7046 C   0  0  0  0  0  0  0  0  0  0  0  0
    5.0878    1.6813    2.2980 C   0  0  0  0  0  0  0  0  0  0  0  0
    6.5412    1.8077    2.2948 N   0  0  0  0  0  0  0  0  0  0  0  0
    7.2722    2.9055    1.8809 C   0  0  0  0  0  0  0  0  0  0  0  0
    6.7001    4.1165    1.2091 C   0  0  0  0  0  0  0  0  0  0  0  0
    8.6052    2.6770    2.2263 C   0  0  0  0  0  0  0  0  0  0  0  0
    9.6828    3.6695    2.0884 C   0  0  0  0  0  0  0  0  0  0  0  0
    9.5982    4.5536    1.2302 O   0  0  0  0  0  0  0  0  0  0  0  0
   10.8804    3.6046    3.0299 C   0  0  0  0  0  0  0  0  0  0  0  0
   11.0888    4.8457    3.8672 C   0  0  0  0  0  0  0  0  0  0  0  0
   10.3328    4.9345    5.0599 C   0  0  0  0  0  0  0  0  0  0  0  0
   10.5298    5.9680    5.9754 C   0  0  0  0  0  0  0  0  0  0  0  0
   11.4714    6.9512    5.7069 C   0  0  0  0  0  0  0  0  0  0  0  0
   12.2160    6.8889    4.5286 C   0  0  0  0  0  0  0  0  0  0  0  0
   12.0351    5.8483    3.6036 C   0  0  0  0  0  0  0  0  0  0  0  0
   12.9554    5.8565    2.5900 O   0  0  0  0  0  0  0  0  0  0  0  0
   12.4637    5.6579    1.2714 C   0  0  0  0  0  0  0  0  0  0  0  0
    8.6931    1.3223    2.6904 C   0  0  0  0  0  0  0  0  0  0  0  0
    9.7575    0.4663    3.0619 C   0  0  0  0  0  0  0  0  0  0  0  0
    9.4961   -0.8146    3.5539 C   0  0  0  0  0  0  0  0  0  0  0  0
    8.1923   -1.2753    3.6463 C   0  0  0  0  0  0  0  0  0  0  0  0
    7.1265   -0.4809    3.2240 C   0  0  0  0  0  0  0  0  0  0  0  0
    7.3932    0.8166    2.7524 C   0  0  0  0  0  0  0  0  0  0  0  0
    4.2100    3.7447    7.8577 H   0  0  0  0  0  0  0  0  0  0  0  0
    4.2188    4.7891    6.4245 H   0  0  0  0  0  0  0  0  0  0  0  0
    5.7073    3.9704    6.9365 H   0  0  0  0  0  0  0  0  0  0  0  0
    3.1692    2.5627    5.9446 H   0  0  0  0  0  0  0  0  0  0  0  0
    4.6564    1.7574    6.4510 H   0  0  0  0  0  0  0  0  0  0  0  0
    5.9138    2.9303    4.6485 H   0  0  0  0  0  0  0  0  0  0  0  0
    4.4368    3.7333    4.1108 H   0  0  0  0  0  0  0  0  0  0  0  0
    3.3835    1.5412    3.6035 H   0  0  0  0  0  0  0  0  0  0  0  0
    4.7911    0.6984    4.2161 H   0  0  0  0  0  0  0  0  0  0  0  0
    4.6417    2.5096    1.7507 H   0  0  0  0  0  0  0  0  0  0  0  0
    4.8471    0.7734    1.7329 H   0  0  0  0  0  0  0  0  0  0  0  0
    5.6116    4.1377    1.1663 H   0  0  0  0  0  0  0  0  0  0  0  0
    7.0632    4.1676    0.1760 H   0  0  0  0  0  0  0  0  0  0  0  0
    7.0146    5.0289    1.7274 H   0  0  0  0  0  0  0  0  0  0  0  0
   11.7730    3.3363    2.4595 H   0  0  0  0  0  0  0  0  0  0  0  0
   10.7534    2.7888    3.7441 H   0  0  0  0  0  0  0  0  0  0  0  0
    9.6103    4.1575    5.3093 H   0  0  0  0  0  0  0  0  0  0  0  0
    9.9651    5.9895    6.9041 H   0  0  0  0  0  0  0  0  0  0  0  0
   11.6441    7.7528    6.4200 H   0  0  0  0  0  0  0  0  0  0  0  0
   12.9682    7.6507    4.3363 H   0  0  0  0  0  0  0  0  0  0  0  0
   13.0628    6.2696    0.5899 H   0  0  0  0  0  0  0  0  0  0  0  0
   11.4264    5.9702    1.1503 H   0  0  0  0  0  0  0  0  0  0  0  0
   12.6146    4.6158    0.9762 H   0  0  0  0  0  0  0  0  0  0  0  0
   10.7926    0.7822    2.9739 H   0  0  0  0  0  0  0  0  0  0  0  0
   10.3211   -1.4519    3.8609 H   0  0  0  0  0  0  0  0  0  0  0  0
    7.9978   -2.2700    4.0399 H   0  0  0  0  0  0  0  0  0  0  0  0
    6.1144   -0.8687    3.2788 H   0  0  0  0  0  0  0  0  0  0  0  0
  1  2  1  0  0  0  0
  1 27  1  0  0  0  0
  1 28  1  0  0  0  0
  1 29  1  0  0  0  0
  2  3  1  0  0  0  0
  2 30  1  0  0  0  0
  2 31  1  0  0  0  0
  3  4  1  0  0  0  0
  3 32  1  0  0  0  0
  3 33  1  0  0  0  0
  4  5  1  0  0  0  0
  4 34  1  0  0  0  0
  4 35  1  0  0  0  0
  5  6  1  0  0  0  0
  5 36  1  0  0  0  0
  5 37  1  0  0  0  0
  6 26  1  0  0  0  0
  6  7  1  0  0  0  0
  7  8  1  0  0  0  0
  7  9  2  0  0  0  0
  8 38  1  0  0  0  0
  8 39  1  0  0  0  0
  8 40  1  0  0  0  0
  9 10  1  0  0  0  0
  9 21  1  0  0  0  0
 10 11  2  0  0  0  0
 10 12  1  0  0  0  0
 12 13  1  0  0  0  0
 12 41  1  0  0  0  0
 12 42  1  0  0  0  0
 13 18  2  0  0  0  0
 13 14  1  0  0  0  0
 14 15  2  0  0  0  0
 14 43  1  0  0  0  0
 15 16  1  0  0  0  0
 15 44  1  0  0  0  0
 16 17  2  0  0  0  0
 16 45  1  0  0  0  0
 17 18  1  0  0  0  0
 17 46  1  0  0  0  0
 18 19  1  0  0  0  0
 19 20  1  0  0  0  0
 20 47  1  0  0  0  0
 20 48  1  0  0  0  0
 20 49  1  0  0  0  0
 21 26  2  0  0  0  0
 21 22  1  0  0  0  0
 22 23  2  0  0  0  0
 22 50  1  0  0  0  0
 23 24  1  0  0  0  0
 23 51  1  0  0  0  0
 24 25  2  0  0  0  0
 24 52  1  0  0  0  0
 25 26  1  0  0  0  0
 25 53  1  0  0  0  0
M  END
$$$$
CHEMBL4866198
 OpenBabel12022418093D

 51 53  0  0  0  0  0  0  0  0999 V2000
    0.9119   -0.4010    0.2533 C   0  0  0  0  0  0  0  0  0  0  0  0
    2.3966   -0.1353    0.1789 C   0  0  0  0  0  0  0  0  0  0  0  0
    2.9479    1.1077    0.1794 C   0  0  0  0  0  0  0  0  0  0  0  0
    4.4753    1.2426    0.2291 C   0  0  0  0  0  0  0  0  0  0  0  0
    4.9692    2.3725    0.2210 O   0  0  0  0  0  0  0  0  0  0  0  0
    5.2211    0.0645    0.2374 N   0  0  0  0  0  0  0  0  0  0  0  0
    4.6047   -1.1685    0.2015 C   0  0  0  0  0  0  0  0  0  0  0  0
    3.2743   -1.3145    0.1674 C   0  0  0  0  0  0  0  0  0  0  0  0
    2.5882   -3.0621    0.0414 Br  0  0  0  0  0  0  0  0  0  0  0  0
    6.6781    0.1128    0.0562 C   0  0  0  0  0  0  0  0  0  0  0  0
    7.5161    0.2468    1.3108 C   0  0  0  0  0  0  0  0  0  0  0  0
    7.9711    1.5301    1.6745 C   0  0  0  0  0  0  0  0  0  0  0  0
    8.8837    1.7065    2.7159 C   0  0  0  0  0  0  0  0  0  0  0  0
    9.3468    0.6133    3.4390 C   0  0  0  0  0  0  0  0  0  0  0  0
    8.8778   -0.6581    3.1270 C   0  0  0  0  0  0  0  0  0  0  0  0
    7.9746   -0.8450    2.0704 C   0  0  0  0  0  0  0  0  0  0  0  0
    7.5200   -2.4750    1.7262 Cl  0  0  0  0  0  0  0  0  0  0  0  0
    2.2693    2.3372    0.1632 N   0  0  0  0  0  0  0  0  0  0  0  0
    1.0744    2.6187   -0.4711 C   0  0  0  0  0  0  0  0  0  0  0  0
    0.5454    1.8722   -1.2956 O   0  0  0  0  0  0  0  0  0  0  0  0
    0.3831    3.9504   -0.1214 C   0  0  0  0  0  0  0  0  0  0  0  0
   -0.0691    4.0161    1.3472 C   0  0  0  0  0  0  0  0  0  0  0  0
    0.5490    5.1088    2.2216 C   0  0  0  0  0  0  0  0  0  0  0  0
   -0.0565    6.4944    1.9887 C   0  0  0  0  0  0  0  0  0  0  0  0
    0.4127    7.2155    0.7294 C   0  0  0  0  0  0  0  0  0  0  0  0
    0.2594    6.4433   -0.5769 C   0  0  0  0  0  0  0  0  0  0  0  0
    1.1232    5.1778   -0.6554 C   0  0  0  0  0  0  0  0  0  0  0  0
    0.6672   -1.2803    0.8559 H   0  0  0  0  0  0  0  0  0  0  0  0
    0.5042   -0.5600   -0.7513 H   0  0  0  0  0  0  0  0  0  0  0  0
    0.3709    0.4119    0.7443 H   0  0  0  0  0  0  0  0  0  0  0  0
    5.2535   -2.0382    0.1656 H   0  0  0  0  0  0  0  0  0  0  0  0
    6.9016    0.9555   -0.6119 H   0  0  0  0  0  0  0  0  0  0  0  0
    7.0054   -0.7680   -0.5141 H   0  0  0  0  0  0  0  0  0  0  0  0
    7.6368    2.4051    1.1169 H   0  0  0  0  0  0  0  0  0  0  0  0
    9.2519    2.7088    2.9499 H   0  0  0  0  0  0  0  0  0  0  0  0
   10.0772    0.7513    4.2334 H   0  0  0  0  0  0  0  0  0  0  0  0
    9.2440   -1.5070    3.6986 H   0  0  0  0  0  0  0  0  0  0  0  0
    2.8785    3.1354    0.3356 H   0  0  0  0  0  0  0  0  0  0  0  0
   -0.5517    3.8952   -0.7028 H   0  0  0  0  0  0  0  0  0  0  0  0
    0.0972    3.0470    1.8329 H   0  0  0  0  0  0  0  0  0  0  0  0
   -1.1601    4.1539    1.3592 H   0  0  0  0  0  0  0  0  0  0  0  0
    1.6392    5.1306    2.1245 H   0  0  0  0  0  0  0  0  0  0  0  0
    0.3413    4.8431    3.2666 H   0  0  0  0  0  0  0  0  0  0  0  0
    0.2055    7.1289    2.8457 H   0  0  0  0  0  0  0  0  0  0  0  0
   -1.1517    6.4292    1.9901 H   0  0  0  0  0  0  0  0  0  0  0  0
    1.4597    7.5151    0.8519 H   0  0  0  0  0  0  0  0  0  0  0  0
   -0.1611    8.1489    0.6444 H   0  0  0  0  0  0  0  0  0  0  0  0
    0.5583    7.1145   -1.3916 H   0  0  0  0  0  0  0  0  0  0  0  0
   -0.7982    6.2079   -0.7508 H   0  0  0  0  0  0  0  0  0  0  0  0
    1.3652    4.9978   -1.7109 H   0  0  0  0  0  0  0  0  0  0  0  0
    2.0853    5.3266   -0.1526 H   0  0  0  0  0  0  0  0  0  0  0  0
  1  2  1  0  0  0  0
  1 28  1  0  0  0  0
  1 29  1  0  0  0  0
  1 30  1  0  0  0  0
  2  8  1  0  0  0  0
  2  3  2  0  0  0  0
  3  4  1  0  0  0  0
  3 18  1  0  0  0  0
  4  5  2  0  0  0  0
  4  6  1  0  0  0  0
  6  7  1  0  0  0  0
  6 10  1  0  0  0  0
  7  8  2  0  0  0  0
  7 31  1  0  0  0  0
  8  9  1  0  0  0  0
 10 11  1  0  0  0  0
 10 32  1  0  0  0  0
 10 33  1  0  0  0  0
 11 16  2  0  0  0  0
 11 12  1  0  0  0  0
 12 13  2  0  0  0  0
 12 34  1  0  0  0  0
 13 14  1  0  0  0  0
 13 35  1  0  0  0  0
 14 15  2  0  0  0  0
 14 36  1  0  0  0  0
 15 16  1  0  0  0  0
 15 37  1  0  0  0  0
 16 17  1  0  0  0  0
 18 19  1  0  0  0  0
 18 38  1  0  0  0  0
 19 20  2  0  0  0  0
 19 21  1  0  0  0  0
 21 27  1  0  0  0  0
 21 22  1  0  0  0  0
 21 39  1  0  0  0  0
 22 23  1  0  0  0  0
 22 40  1  0  0  0  0
 22 41  1  0  0  0  0
 23 24  1  0  0  0  0
 23 42  1  0  0  0  0
 23 43  1  0  0  0  0
 24 25  1  0  0  0  0
 24 44  1  0  0  0  0
 24 45  1  0  0  0  0
 25 26  1  0  0  0  0
 25 46  1  0  0  0  0
 25 47  1  0  0  0  0
 26 27  1  0  0  0  0
 26 48  1  0  0  0  0
 26 49  1  0  0  0  0
 27 50  1  0  0  0  0
 27 51  1  0  0  0  0
M  END
$$$$
CHEMBL571342
 OpenBabel12022418093D

 50 53  0  0  0  0  0  0  0  0999 V2000
    3.0343    1.6061   -2.0681 C   0  0  0  0  0  0  0  0  0  0  0  0
    3.9079    0.6999   -2.9135 C   0  0  0  0  0  0  0  0  0  0  0  0
    5.3582    1.1399   -2.8507 C   0  0  0  0  0  0  0  0  0  0  0  0
    3.6391   -0.8050   -2.8902 C   0  0  0  0  0  0  0  0  0  0  0  0
    2.5448   -1.4548   -2.0749 C   0  0  0  0  0  0  0  0  0  0  0  0
    1.7097   -0.8108   -1.4616 O   0  0  0  0  0  0  0  0  0  0  0  0
    2.5887   -2.9154   -2.0547 C   0  0  0  0  0  0  0  0  0  0  0  0
    3.0567   -3.7141   -3.0846 C   0  0  0  0  0  0  0  0  0  0  0  0
    2.9305   -5.0273   -2.7237 N   0  0  0  0  0  0  0  0  0  0  0  0
    3.2627   -6.1722   -3.5592 C   0  0  0  0  0  0  0  0  0  0  0  0
    4.4013   -5.9426   -4.5555 C   0  0  0  0  0  0  0  0  0  0  0  0
    4.6745   -7.1609   -5.3906 C   0  0  0  0  0  0  0  0  0  0  0  0
    4.0193   -7.4461   -6.6337 C   0  0  0  0  0  0  0  0  0  0  0  0
    4.4518   -8.6236   -7.2020 C   0  0  0  0  0  0  0  0  0  0  0  0
    5.6429   -9.3931   -6.2491 S   0  0  0  0  0  0  0  0  0  0  0  0
    5.5838   -8.1508   -5.0761 C   0  0  0  0  0  0  0  0  0  0  0  0
    2.3526   -5.1144   -1.4699 C   0  0  0  0  0  0  0  0  0  0  0  0
    1.9859   -6.2344   -0.7022 C   0  0  0  0  0  0  0  0  0  0  0  0
    1.4073   -6.0217    0.5503 C   0  0  0  0  0  0  0  0  0  0  0  0
    1.2069   -4.7326    1.0304 C   0  0  0  0  0  0  0  0  0  0  0  0
    1.5679   -3.6205    0.2576 C   0  0  0  0  0  0  0  0  0  0  0  0
    2.1390   -3.8043   -1.0229 C   0  0  0  0  0  0  0  0  0  0  0  0
    3.3682   -0.0206   -4.1718 C   0  0  0  0  0  0  0  0  0  0  0  0
    1.9542    0.2394   -4.6409 C   0  0  0  0  0  0  0  0  0  0  0  0
    4.2852   -0.3094   -5.3473 C   0  0  0  0  0  0  0  0  0  0  0  0
    3.2794    2.6573   -2.2495 H   0  0  0  0  0  0  0  0  0  0  0  0
    3.2151    1.4010   -1.0063 H   0  0  0  0  0  0  0  0  0  0  0  0
    1.9645    1.4996   -2.2511 H   0  0  0  0  0  0  0  0  0  0  0  0
    5.4418    2.2062   -3.0884 H   0  0  0  0  0  0  0  0  0  0  0  0
    6.0141    0.6030   -3.5387 H   0  0  0  0  0  0  0  0  0  0  0  0
    5.7512    0.9839   -1.8406 H   0  0  0  0  0  0  0  0  0  0  0  0
    4.5453   -1.4108   -2.8849 H   0  0  0  0  0  0  0  0  0  0  0  0
    3.4407   -3.4263   -4.0521 H   0  0  0  0  0  0  0  0  0  0  0  0
    2.3359   -6.4464   -4.0776 H   0  0  0  0  0  0  0  0  0  0  0  0
    3.5338   -6.9989   -2.8935 H   0  0  0  0  0  0  0  0  0  0  0  0
    5.3145   -5.6450   -4.0218 H   0  0  0  0  0  0  0  0  0  0  0  0
    4.1582   -5.1179   -5.2354 H   0  0  0  0  0  0  0  0  0  0  0  0
    3.2671   -6.8168   -7.0940 H   0  0  0  0  0  0  0  0  0  0  0  0
    4.1303   -9.0687   -8.1330 H   0  0  0  0  0  0  0  0  0  0  0  0
    6.2296   -8.2105   -4.2058 H   0  0  0  0  0  0  0  0  0  0  0  0
    2.1353   -7.2467   -1.0642 H   0  0  0  0  0  0  0  0  0  0  0  0
    1.1094   -6.8759    1.1545 H   0  0  0  0  0  0  0  0  0  0  0  0
    0.7574   -4.5857    2.0097 H   0  0  0  0  0  0  0  0  0  0  0  0
    1.3981   -2.6184    0.6438 H   0  0  0  0  0  0  0  0  0  0  0  0
    1.2335    0.3984   -3.8406 H   0  0  0  0  0  0  0  0  0  0  0  0
    1.5941   -0.6069   -5.2358 H   0  0  0  0  0  0  0  0  0  0  0  0
    1.9418    1.1279   -5.2868 H   0  0  0  0  0  0  0  0  0  0  0  0
    5.2806   -0.6494   -5.0486 H   0  0  0  0  0  0  0  0  0  0  0  0
    4.3988    0.5847   -5.9692 H   0  0  0  0  0  0  0  0  0  0  0  0
    3.8609   -1.1056   -5.9696 H   0  0  0  0  0  0  0  0  0  0  0  0
  1  2  1  0  0  0  0
  1 26  1  0  0  0  0
  1 27  1  0  0  0  0
  1 28  1  0  0  0  0
  2 23  1  0  0  0  0
  2  3  1  0  0  0  0
  2  4  1  0  0  0  0
  3 29  1  0  0  0  0
  3 30  1  0  0  0  0
  3 31  1  0  0  0  0
  4  5  1  0  0  0  0
  4 23  1  0  0  0  0
  4 32  1  0  0  0  0
  5  6  2  0  0  0  0
  5  7  1  0  0  0  0
  7 22  1  0  0  0  0
  7  8  2  0  0  0  0
  8  9  1  0  0  0  0
  8 33  1  0  0  0  0
  9 10  1  0  0  0  0
  9 17  1  0  0  0  0
 10 11  1  0  0  0  0
 10 34  1  0  0  0  0
 10 35  1  0  0  0  0
 11 12  1  0  0  0  0
 11 36  1  0  0  0  0
 11 37  1  0  0  0  0
 12 16  2  0  0  0  0
 12 13  1  0  0  0  0
 13 14  2  0  0  0  0
 13 38  1  0  0  0  0
 14 15  1  0  0  0  0
 14 39  1  0  0  0  0
 15 16  1  0  0  0  0
 16 40  1  0  0  0  0
 17 22  2  0  0  0  0
 17 18  1  0  0  0  0
 18 19  2  0  0  0  0
 18 41  1  0  0  0  0
 19 20  1  0  0  0  0
 19 42  1  0  0  0  0
 20 21  2  0  0  0  0
 20 43  1  0  0  0  0
 21 22  1  0  0  0  0
 21 44  1  0  0  0  0
 23 24  1  0  0  0  0
 23 25  1  0  0  0  0
 24 45  1  0  0  0  0
 24 46  1  0  0  0  0
 24 47  1  0  0  0  0
 25 48  1  0  0  0  0
 25 49  1  0  0  0  0
 25 50  1  0  0  0  0
M  END
$$$$
CHEMBL551351
 OpenBabel12022418093D

 56 59  0  0  0  0  0  0  0  0999 V2000
    0.8802   -0.9603   -1.7334 C   0  0  0  0  0  0  0  0  0  0  0  0
    2.1005   -0.5404   -1.2207 C   0  0  0  0  0  0  0  0  0  0  0  0
    2.1850    0.6777   -0.5581 C   0  0  0  0  0  0  0  0  0  0  0  0
    1.0689    1.5335   -0.4823 C   0  0  0  0  0  0  0  0  0  0  0  0
   -0.1923    1.1154   -0.9991 C   0  0  0  0  0  0  0  0  0  0  0  0
   -0.2730   -0.1617   -1.6036 C   0  0  0  0  0  0  0  0  0  0  0  0
   -1.4979   -0.6418   -2.0858 C   0  0  0  0  0  0  0  0  0  0  0  0
   -2.6648    0.1184   -1.9908 C   0  0  0  0  0  0  0  0  0  0  0  0
   -2.6119    1.3891   -1.4327 C   0  0  0  0  0  0  0  0  0  0  0  0
   -1.3888    1.8772   -0.9641 C   0  0  0  0  0  0  0  0  0  0  0  0
   -3.6629    2.2528   -1.2877 O   0  0  0  0  0  0  0  0  0  0  0  0
   -4.9387    1.7934   -1.7101 C   0  0  0  0  0  0  0  0  0  0  0  0
    1.2349    2.8545    0.2008 C   0  0  0  0  0  0  0  0  0  0  0  0
    0.3096    3.2796    0.8890 O   0  0  0  0  0  0  0  0  0  0  0  0
    2.5097    3.5874    0.1278 C   0  0  0  0  0  0  0  0  0  0  0  0
    3.4598    3.6279   -0.8952 C   0  0  0  0  0  0  0  0  0  0  0  0
    3.4683    2.9943   -2.2505 C   0  0  0  0  0  0  0  0  0  0  0  0
    4.5121    4.4195   -0.4567 N   0  0  0  0  0  0  0  0  0  0  0  0
    4.2196    4.9673    0.7810 C   0  0  0  0  0  0  0  0  0  0  0  0
    2.9760    4.4667    1.1632 C   0  0  0  0  0  0  0  0  0  0  0  0
    2.4354    4.8656    2.4093 C   0  0  0  0  0  0  0  0  0  0  0  0
    3.1421    5.7400    3.2366 C   0  0  0  0  0  0  0  0  0  0  0  0
    4.3794    6.2229    2.8400 C   0  0  0  0  0  0  0  0  0  0  0  0
    4.9345    5.8548    1.6083 C   0  0  0  0  0  0  0  0  0  0  0  0
    5.7384    4.6828   -1.2083 C   0  0  0  0  0  0  0  0  0  0  0  0
    6.9934    4.1319   -0.5324 C   0  0  0  0  0  0  0  0  0  0  0  0
    8.2436    4.3301   -1.3930 C   0  0  0  0  0  0  0  0  0  0  0  0
    9.4804    3.8415   -0.6378 C   0  0  0  0  0  0  0  0  0  0  0  0
   10.7545    4.0207   -1.4438 C   0  0  0  0  0  0  0  0  0  0  0  0
    0.8272   -1.9261   -2.2300 H   0  0  0  0  0  0  0  0  0  0  0  0
    2.9838   -1.1631   -1.3307 H   0  0  0  0  0  0  0  0  0  0  0  0
    3.1421    0.9679   -0.1295 H   0  0  0  0  0  0  0  0  0  0  0  0
   -1.5640   -1.6310   -2.5369 H   0  0  0  0  0  0  0  0  0  0  0  0
   -3.5890   -0.3050   -2.3634 H   0  0  0  0  0  0  0  0  0  0  0  0
   -1.3976    2.8818   -0.5422 H   0  0  0  0  0  0  0  0  0  0  0  0
   -5.6651    2.5828   -1.4947 H   0  0  0  0  0  0  0  0  0  0  0  0
   -5.2434    0.9000   -1.1553 H   0  0  0  0  0  0  0  0  0  0  0  0
   -4.9500    1.6134   -2.7898 H   0  0  0  0  0  0  0  0  0  0  0  0
    2.5130    2.5314   -2.5030 H   0  0  0  0  0  0  0  0  0  0  0  0
    4.2464    2.2242   -2.3021 H   0  0  0  0  0  0  0  0  0  0  0  0
    3.6555    3.7385   -3.0303 H   0  0  0  0  0  0  0  0  0  0  0  0
    1.4617    4.4983    2.7262 H   0  0  0  0  0  0  0  0  0  0  0  0
    2.7116    6.0402    4.1888 H   0  0  0  0  0  0  0  0  0  0  0  0
    4.9228    6.8999    3.4947 H   0  0  0  0  0  0  0  0  0  0  0  0
    5.8995    6.2548    1.3179 H   0  0  0  0  0  0  0  0  0  0  0  0
    5.7957    5.7663   -1.3590 H   0  0  0  0  0  0  0  0  0  0  0  0
    5.6460    4.2275   -2.1980 H   0  0  0  0  0  0  0  0  0  0  0  0
    6.8610    3.0649   -0.3179 H   0  0  0  0  0  0  0  0  0  0  0  0
    7.1523    4.6254    0.4309 H   0  0  0  0  0  0  0  0  0  0  0  0
    8.3590    5.3909   -1.6472 H   0  0  0  0  0  0  0  0  0  0  0  0
    8.1391    3.7799   -2.3359 H   0  0  0  0  0  0  0  0  0  0  0  0
    9.3620    2.7819   -0.3832 H   0  0  0  0  0  0  0  0  0  0  0  0
    9.5760    4.3915    0.3060 H   0  0  0  0  0  0  0  0  0  0  0  0
   10.7116    3.4539   -2.3787 H   0  0  0  0  0  0  0  0  0  0  0  0
   11.6143    3.6627   -0.8681 H   0  0  0  0  0  0  0  0  0  0  0  0
   10.9228    5.0750   -1.6842 H   0  0  0  0  0  0  0  0  0  0  0  0
  1  6  2  0  0  0  0
  1  2  1  0  0  0  0
  1 30  1  0  0  0  0
  2  3  2  0  0  0  0
  2 31  1  0  0  0  0
  3  4  1  0  0  0  0
  3 32  1  0  0  0  0
  4  5  2  0  0  0  0
  4 13  1  0  0  0  0
  5 10  1  0  0  0  0
  5  6  1  0  0  0  0
  6  7  1  0  0  0  0
  7  8  2  0  0  0  0
  7 33  1  0  0  0  0
  8  9  1  0  0  0  0
  8 34  1  0  0  0  0
  9 10  2  0  0  0  0
  9 11  1  0  0  0  0
 10 35  1  0  0  0  0
 11 12  1  0  0  0  0
 12 36  1  0  0  0  0
 12 37  1  0  0  0  0
 12 38  1  0  0  0  0
 13 14  2  0  0  0  0
 13 15  1  0  0  0  0
 15 20  1  0  0  0  0
 15 16  2  0  0  0  0
 16 17  1  0  0  0  0
 16 18  1  0  0  0  0
 17 39  1  0  0  0  0
 17 40  1  0  0  0  0
 17 41  1  0  0  0  0
 18 19  1  0  0  0  0
 18 25  1  0  0  0  0
 19 24  2  0  0  0  0
 19 20  1  0  0  0  0
 20 21  2  0  0  0  0
 21 22  1  0  0  0  0
 21 42  1  0  0  0  0
 22 23  2  0  0  0  0
 22 43  1  0  0  0  0
 23 24  1  0  0  0  0
 23 44  1  0  0  0  0
 24 45  1  0  0  0  0
 25 26  1  0  0  0  0
 25 46  1  0  0  0  0
 25 47  1  0  0  0  0
 26 27  1  0  0  0  0
 26 48  1  0  0  0  0
 26 49  1  0  0  0  0
 27 28  1  0  0  0  0
 27 50  1  0  0  0  0
 27 51  1  0  0  0  0
 28 29  1  0  0  0  0
 28 52  1  0  0  0  0
 28 53  1  0  0  0  0
 29 54  1  0  0  0  0
 29 55  1  0  0  0  0
 29 56  1  0  0  0  0
M  END
$$$$
CHEMBL570198
 OpenBabel12022418093D

 51 54  0  0  0  0  0  0  0  0999 V2000
    3.0288    1.5725   -2.2756 C   0  0  0  0  0  0  0  0  0  0  0  0
    3.8909    0.6265   -3.0868 C   0  0  0  0  0  0  0  0  0  0  0  0
    3.6039   -0.8732   -3.0369 C   0  0  0  0  0  0  0  0  0  0  0  0
    3.3340   -0.1014   -4.3300 C   0  0  0  0  0  0  0  0  0  0  0  0
    1.9265    0.2013   -4.7901 C   0  0  0  0  0  0  0  0  0  0  0  0
    4.2305   -0.4292   -5.5110 C   0  0  0  0  0  0  0  0  0  0  0  0
    2.5026   -1.5088   -2.2205 C   0  0  0  0  0  0  0  0  0  0  0  0
    1.6467   -0.8627   -1.6301 O   0  0  0  0  0  0  0  0  0  0  0  0
    2.5298   -2.9636   -2.1807 C   0  0  0  0  0  0  0  0  0  0  0  0
    2.9764   -3.7696   -3.2147 C   0  0  0  0  0  0  0  0  0  0  0  0
    2.8428   -5.0749   -2.8493 N   0  0  0  0  0  0  0  0  0  0  0  0
    2.2627   -5.1547   -1.5927 C   0  0  0  0  0  0  0  0  0  0  0  0
    1.8848   -6.2681   -0.8236 C   0  0  0  0  0  0  0  0  0  0  0  0
    1.3039   -6.0549    0.4265 C   0  0  0  0  0  0  0  0  0  0  0  0
    1.1052   -4.7621    0.8986 C   0  0  0  0  0  0  0  0  0  0  0  0
    1.4838   -3.6536    0.1311 C   0  0  0  0  0  0  0  0  0  0  0  0
    2.0651   -3.8458   -1.1450 C   0  0  0  0  0  0  0  0  0  0  0  0
    3.1629   -6.2256   -3.6832 C   0  0  0  0  0  0  0  0  0  0  0  0
    4.3029   -5.9978   -4.6721 C   0  0  0  0  0  0  0  0  0  0  0  0
    4.5670   -7.1744   -5.4833 N   0  0  0  0  0  0  0  0  0  0  0  0
    3.9605   -7.4424   -6.6827 C   0  0  0  0  0  0  0  0  0  0  0  0
    4.4712   -8.6290   -7.1596 C   0  0  0  0  0  0  0  0  0  0  0  0
    5.4304   -9.0813   -6.2229 C   0  0  0  0  0  0  0  0  0  0  0  0
    5.4783   -8.1559   -5.2013 C   0  0  0  0  0  0  0  0  0  0  0  0
    5.3410    1.0721   -3.0656 C   0  0  0  0  0  0  0  0  0  0  0  0
    1.9874    1.2699   -2.1740 H   0  0  0  0  0  0  0  0  0  0  0  0
    3.0161    2.5616   -2.7395 H   0  0  0  0  0  0  0  0  0  0  0  0
    3.4374    1.6672   -1.2627 H   0  0  0  0  0  0  0  0  0  0  0  0
    4.5012   -1.4925   -3.0363 H   0  0  0  0  0  0  0  0  0  0  0  0
    1.2313    0.4356   -3.9827 H   0  0  0  0  0  0  0  0  0  0  0  0
    1.5174   -0.6554   -5.3365 H   0  0  0  0  0  0  0  0  0  0  0  0
    1.9422    1.0581   -5.4734 H   0  0  0  0  0  0  0  0  0  0  0  0
    5.2286   -0.7700   -5.2214 H   0  0  0  0  0  0  0  0  0  0  0  0
    4.3419    0.4471   -6.1593 H   0  0  0  0  0  0  0  0  0  0  0  0
    3.7884   -1.2366   -6.1059 H   0  0  0  0  0  0  0  0  0  0  0  0
    3.3490   -3.4803   -4.1865 H   0  0  0  0  0  0  0  0  0  0  0  0
    2.0272   -7.2835   -1.1867 H   0  0  0  0  0  0  0  0  0  0  0  0
    0.9939   -6.9045    1.0272 H   0  0  0  0  0  0  0  0  0  0  0  0
    0.6450   -4.6136    1.8738 H   0  0  0  0  0  0  0  0  0  0  0  0
    1.3157   -2.6493    0.5186 H   0  0  0  0  0  0  0  0  0  0  0  0
    2.2343   -6.4898   -4.2035 H   0  0  0  0  0  0  0  0  0  0  0  0
    3.4253   -7.0553   -3.0169 H   0  0  0  0  0  0  0  0  0  0  0  0
    5.2315   -5.7260   -4.1568 H   0  0  0  0  0  0  0  0  0  0  0  0
    4.0682   -5.1886   -5.3732 H   0  0  0  0  0  0  0  0  0  0  0  0
    3.2196   -6.7742   -7.1026 H   0  0  0  0  0  0  0  0  0  0  0  0
    4.1881   -9.1114   -8.0865 H   0  0  0  0  0  0  0  0  0  0  0  0
    6.0277   -9.9815   -6.2916 H   0  0  0  0  0  0  0  0  0  0  0  0
    6.0889   -8.1274   -4.3079 H   0  0  0  0  0  0  0  0  0  0  0  0
    5.4084    2.1437   -3.2847 H   0  0  0  0  0  0  0  0  0  0  0  0
    5.9776    0.5556   -3.7865 H   0  0  0  0  0  0  0  0  0  0  0  0
    5.7712    0.9015   -2.0730 H   0  0  0  0  0  0  0  0  0  0  0  0
  1  2  1  0  0  0  0
  1 26  1  0  0  0  0
  1 27  1  0  0  0  0
  1 28  1  0  0  0  0
  2  4  1  0  0  0  0
  2  3  1  0  0  0  0
  2 25  1  0  0  0  0
  3  4  1  0  0  0  0
  3  7  1  0  0  0  0
  3 29  1  0  0  0  0
  4  5  1  0  0  0  0
  4  6  1  0  0  0  0
  5 30  1  0  0  0  0
  5 31  1  0  0  0  0
  5 32  1  0  0  0  0
  6 33  1  0  0  0  0
  6 34  1  0  0  0  0
  6 35  1  0  0  0  0
  7  8  2  0  0  0  0
  7  9  1  0  0  0  0
  9 17  1  0  0  0  0
  9 10  2  0  0  0  0
 10 11  1  0  0  0  0
 10 36  1  0  0  0  0
 11 12  1  0  0  0  0
 11 18  1  0  0  0  0
 12 17  2  0  0  0  0
 12 13  1  0  0  0  0
 13 14  2  0  0  0  0
 13 37  1  0  0  0  0
 14 15  1  0  0  0  0
 14 38  1  0  0  0  0
 15 16  2  0  0  0  0
 15 39  1  0  0  0  0
 16 17  1  0  0  0  0
 16 40  1  0  0  0  0
 18 19  1  0  0  0  0
 18 41  1  0  0  0  0
 18 42  1  0  0  0  0
 19 20  1  0  0  0  0
 19 43  1  0  0  0  0
 19 44  1  0  0  0  0
 20 24  1  0  0  0  0
 20 21  1  0  0  0  0
 21 22  2  0  0  0  0
 21 45  1  0  0  0  0
 22 23  1  0  0  0  0
 22 46  1  0  0  0  0
 23 24  2  0  0  0  0
 23 47  1  0  0  0  0
 24 48  1  0  0  0  0
 25 49  1  0  0  0  0
 25 50  1  0  0  0  0
 25 51  1  0  0  0  0
M  END
$$$$
CHEMBL4866238
 OpenBabel12022418093D

 55 58  0  0  0  0  0  0  0  0999 V2000
    0.8630   -0.2371   -0.0272 C   0  0  0  0  0  0  0  0  0  0  0  0
    2.3429   -0.0390    0.1591 C   0  0  0  0  0  0  0  0  0  0  0  0
    3.0800    1.1214    0.3795 C   0  0  0  0  0  0  0  0  0  0  0  0
    4.4631    0.7392    0.2013 C   0  0  0  0  0  0  0  0  0  0  0  0
    5.6766    1.4632    0.1574 C   0  0  0  0  0  0  0  0  0  0  0  0
    6.8950    0.7941    0.0150 C   0  0  0  0  0  0  0  0  0  0  0  0
    6.9234   -0.5878   -0.0761 C   0  0  0  0  0  0  0  0  0  0  0  0
    5.7413   -1.3337   -0.0661 C   0  0  0  0  0  0  0  0  0  0  0  0
    4.5193   -0.6470    0.0496 C   0  0  0  0  0  0  0  0  0  0  0  0
    3.2227   -1.1091    0.0765 N   0  0  0  0  0  0  0  0  0  0  0  0
    2.8697   -2.5263    0.0671 C   0  0  0  0  0  0  0  0  0  0  0  0
    2.6430   -3.0979   -1.3406 C   0  0  0  0  0  0  0  0  0  0  0  0
    2.2141   -4.5649   -1.3098 C   0  0  0  0  0  0  0  0  0  0  0  0
    0.9124   -4.7764   -0.6619 C   0  0  0  0  0  0  0  0  0  0  0  0
   -0.1373   -4.9773   -0.1077 C   0  0  0  0  0  0  0  0  0  0  0  0
    2.6475    2.5168    0.6274 C   0  0  0  0  0  0  0  0  0  0  0  0
    3.4323    3.4620    0.5417 O   0  0  0  0  0  0  0  0  0  0  0  0
    1.2308    2.8871    0.8447 C   0  0  0  0  0  0  0  0  0  0  0  0
    0.4245    2.5207    1.9302 C   0  0  0  0  0  0  0  0  0  0  0  0
   -0.9185    2.8761    1.8320 C   0  0  0  0  0  0  0  0  0  0  0  0
   -1.4587    3.1346    0.5897 C   0  0  0  0  0  0  0  0  0  0  0  0
   -2.9447    3.0153    0.6762 C   0  0  0  0  0  0  0  0  0  0  0  0
   -3.1662    3.8729    1.9214 C   0  0  0  0  0  0  0  0  0  0  0  0
   -1.9005    3.4888    2.8295 C   0  0  0  0  0  0  0  0  0  0  0  0
   -3.2761    5.3296    1.3918 C   0  0  0  0  0  0  0  0  0  0  0  0
   -4.4876    3.5738    2.6362 C   0  0  0  0  0  0  0  0  0  0  0  0
   -0.6685    3.8747   -0.2565 C   0  0  0  0  0  0  0  0  0  0  0  0
    0.7064    3.7945   -0.0864 C   0  0  0  0  0  0  0  0  0  0  0  0
    0.5824   -1.2743   -0.2322 H   0  0  0  0  0  0  0  0  0  0  0  0
    0.5191    0.3498   -0.8873 H   0  0  0  0  0  0  0  0  0  0  0  0
    0.3075    0.0639    0.8603 H   0  0  0  0  0  0  0  0  0  0  0  0
    5.6657    2.5478    0.2160 H   0  0  0  0  0  0  0  0  0  0  0  0
    7.8168    1.3709   -0.0098 H   0  0  0  0  0  0  0  0  0  0  0  0
    7.8854   -1.0951   -0.1644 H   0  0  0  0  0  0  0  0  0  0  0  0
    5.7883   -2.4174   -0.1509 H   0  0  0  0  0  0  0  0  0  0  0  0
    1.9874   -2.6461    0.6986 H   0  0  0  0  0  0  0  0  0  0  0  0
    3.6735   -3.0779    0.5681 H   0  0  0  0  0  0  0  0  0  0  0  0
    3.5738   -3.0170   -1.9172 H   0  0  0  0  0  0  0  0  0  0  0  0
    1.8974   -2.5054   -1.8825 H   0  0  0  0  0  0  0  0  0  0  0  0
    2.9935   -5.1580   -0.8082 H   0  0  0  0  0  0  0  0  0  0  0  0
    2.1542   -4.9403   -2.3427 H   0  0  0  0  0  0  0  0  0  0  0  0
   -1.0794   -5.1238    0.3558 H   0  0  0  0  0  0  0  0  0  0  0  0
    0.8294    2.0137    2.7993 H   0  0  0  0  0  0  0  0  0  0  0  0
   -3.2085    1.9658    0.8743 H   0  0  0  0  0  0  0  0  0  0  0  0
   -3.4554    3.3253   -0.2376 H   0  0  0  0  0  0  0  0  0  0  0  0
   -1.4602    4.4086    3.2348 H   0  0  0  0  0  0  0  0  0  0  0  0
   -2.1401    2.7974    3.6397 H   0  0  0  0  0  0  0  0  0  0  0  0
   -2.3731    5.6854    0.8879 H   0  0  0  0  0  0  0  0  0  0  0  0
   -3.5341    6.0500    2.1701 H   0  0  0  0  0  0  0  0  0  0  0  0
   -4.0797    5.3737    0.6380 H   0  0  0  0  0  0  0  0  0  0  0  0
   -4.4318    2.6759    3.2560 H   0  0  0  0  0  0  0  0  0  0  0  0
   -5.3014    3.4403    1.9141 H   0  0  0  0  0  0  0  0  0  0  0  0
   -4.7681    4.4086    3.2906 H   0  0  0  0  0  0  0  0  0  0  0  0
   -1.1007    4.5721   -0.9638 H   0  0  0  0  0  0  0  0  0  0  0  0
    1.3718    4.4182   -0.6785 H   0  0  0  0  0  0  0  0  0  0  0  0
  1  2  1  0  0  0  0
  1 29  1  0  0  0  0
  1 30  1  0  0  0  0
  1 31  1  0  0  0  0
  2 10  1  0  0  0  0
  2  3  2  0  0  0  0
  3  4  1  0  0  0  0
  3 16  1  0  0  0  0
  4  9  2  0  0  0  0
  4  5  1  0  0  0  0
  5  6  2  0  0  0  0
  5 32  1  0  0  0  0
  6  7  1  0  0  0  0
  6 33  1  0  0  0  0
  7  8  2  0  0  0  0
  7 34  1  0  0  0  0
  8  9  1  0  0  0  0
  8 35  1  0  0  0  0
  9 10  1  0  0  0  0
 10 11  1  0  0  0  0
 11 12  1  0  0  0  0
 11 36  1  0  0  0  0
 11 37  1  0  0  0  0
 12 13  1  0  0  0  0
 12 38  1  0  0  0  0
 12 39  1  0  0  0  0
 13 14  1  0  0  0  0
 13 40  1  0  0  0  0
 13 41  1  0  0  0  0
 14 15  3  0  0  0  0
 15 42  1  0  0  0  0
 16 17  2  0  0  0  0
 16 18  1  0  0  0  0
 18 28  2  0  0  0  0
 18 19  1  0  0  0  0
 19 20  2  0  0  0  0
 19 43  1  0  0  0  0
 20 24  1  0  0  0  0
 20 21  1  0  0  0  0
 21 22  1  0  0  0  0
 21 27  2  0  0  0  0
 22 23  1  0  0  0  0
 22 44  1  0  0  0  0
 22 45  1  0  0  0  0
 23 24  1  0  0  0  0
 23 25  1  0  0  0  0
 23 26  1  0  0  0  0
 24 46  1  0  0  0  0
 24 47  1  0  0  0  0
 25 48  1  0  0  0  0
 25 49  1  0  0  0  0
 25 50  1  0  0  0  0
 26 51  1  0  0  0  0
 26 52  1  0  0  0  0
 26 53  1  0  0  0  0
 27 28  1  0  0  0  0
 27 54  1  0  0  0  0
 28 55  1  0  0  0  0
M  END
$$$$
CHEMBL576920
 OpenBabel12022418093D

 44 46  0  0  0  0  0  0  0  0999 V2000
    2.2438    1.5603   -1.8003 C   0  0  0  0  0  0  0  0  0  0  0  0
    3.0534    0.7573   -0.8006 C   0  0  0  0  0  0  0  0  0  0  0  0
    2.7798    1.2335    0.6140 C   0  0  0  0  0  0  0  0  0  0  0  0
    3.2238   -0.7542   -0.9952 C   0  0  0  0  0  0  0  0  0  0  0  0
    2.6089   -1.5229   -2.1325 C   0  0  0  0  0  0  0  0  0  0  0  0
    2.0671   -0.9611   -3.0765 O   0  0  0  0  0  0  0  0  0  0  0  0
    2.6164   -2.9795   -2.0068 C   0  0  0  0  0  0  0  0  0  0  0  0
    1.6260   -3.7825   -2.5530 C   0  0  0  0  0  0  0  0  0  0  0  0
    1.8926   -5.0863   -2.2412 N   0  0  0  0  0  0  0  0  0  0  0  0
    1.0387   -6.2089   -2.6033 C   0  0  0  0  0  0  0  0  0  0  0  0
    1.3340   -6.7558   -3.9974 C   0  0  0  0  0  0  0  0  0  0  0  0
    2.6409   -7.3146   -4.0889 O   0  0  0  0  0  0  0  0  0  0  0  0
    3.0672   -5.1697   -1.5240 C   0  0  0  0  0  0  0  0  0  0  0  0
    3.7486   -6.2842   -1.0065 C   0  0  0  0  0  0  0  0  0  0  0  0
    4.9469   -6.0712   -0.3229 C   0  0  0  0  0  0  0  0  0  0  0  0
    5.4584   -4.7902   -0.1694 C   0  0  0  0  0  0  0  0  0  0  0  0
    4.7762   -3.6871   -0.6910 C   0  0  0  0  0  0  0  0  0  0  0  0
    3.5503   -3.8646   -1.3709 C   0  0  0  0  0  0  0  0  0  0  0  0
    4.4316    0.1650   -1.1697 C   0  0  0  0  0  0  0  0  0  0  0  0
    5.0185    0.4069   -2.5432 C   0  0  0  0  0  0  0  0  0  0  0  0
    5.5220    0.0787   -0.1179 C   0  0  0  0  0  0  0  0  0  0  0  0
    2.3219    2.6309   -1.5822 H   0  0  0  0  0  0  0  0  0  0  0  0
    1.1864    1.2825   -1.7254 H   0  0  0  0  0  0  0  0  0  0  0  0
    2.5518    1.4345   -2.8390 H   0  0  0  0  0  0  0  0  0  0  0  0
    2.9423    2.3143    0.6895 H   0  0  0  0  0  0  0  0  0  0  0  0
    3.4064    0.7547    1.3694 H   0  0  0  0  0  0  0  0  0  0  0  0
    1.7377    1.0260    0.8802 H   0  0  0  0  0  0  0  0  0  0  0  0
    3.1744   -1.3185   -0.0647 H   0  0  0  0  0  0  0  0  0  0  0  0
    0.7444   -3.5053   -3.1203 H   0  0  0  0  0  0  0  0  0  0  0  0
    0.0020   -5.8586   -2.5467 H   0  0  0  0  0  0  0  0  0  0  0  0
    1.1671   -6.9865   -1.8436 H   0  0  0  0  0  0  0  0  0  0  0  0
    1.2265   -5.9877   -4.7701 H   0  0  0  0  0  0  0  0  0  0  0  0
    0.6271   -7.5606   -4.2243 H   0  0  0  0  0  0  0  0  0  0  0  0
    3.2763   -6.5756   -4.0330 H   0  0  0  0  0  0  0  0  0  0  0  0
    3.3696   -7.2935   -1.1355 H   0  0  0  0  0  0  0  0  0  0  0  0
    5.4874   -6.9208    0.0867 H   0  0  0  0  0  0  0  0  0  0  0  0
    6.3974   -4.6406    0.3570 H   0  0  0  0  0  0  0  0  0  0  0  0
    5.2095   -2.7025   -0.5779 H   0  0  0  0  0  0  0  0  0  0  0  0
    4.2861    0.4084   -3.3515 H   0  0  0  0  0  0  0  0  0  0  0  0
    5.7509   -0.3725   -2.7812 H   0  0  0  0  0  0  0  0  0  0  0  0
    5.5369    1.3722   -2.5578 H   0  0  0  0  0  0  0  0  0  0  0  0
    5.1632   -0.3040    0.8418 H   0  0  0  0  0  0  0  0  0  0  0  0
    5.9712    1.0632    0.0462 H   0  0  0  0  0  0  0  0  0  0  0  0
    6.3149   -0.6026   -0.4466 H   0  0  0  0  0  0  0  0  0  0  0  0
  1  2  1  0  0  0  0
  1 22  1  0  0  0  0
  1 23  1  0  0  0  0
  1 24  1  0  0  0  0
  2 19  1  0  0  0  0
  2  3  1  0  0  0  0
  2  4  1  0  0  0  0
  3 25  1  0  0  0  0
  3 26  1  0  0  0  0
  3 27  1  0  0  0  0
  4  5  1  0  0  0  0
  4 19  1  0  0  0  0
  4 28  1  0  0  0  0
  5  6  2  0  0  0  0
  5  7  1  0  0  0  0
  7 18  1  0  0  0  0
  7  8  2  0  0  0  0
  8  9  1  0  0  0  0
  8 29  1  0  0  0  0
  9 10  1  0  0  0  0
  9 13  1  0  0  0  0
 10 11  1  0  0  0  0
 10 30  1  0  0  0  0
 10 31  1  0  0  0  0
 11 12  1  0  0  0  0
 11 32  1  0  0  0  0
 11 33  1  0  0  0  0
 12 34  1  0  0  0  0
 13 18  2  0  0  0  0
 13 14  1  0  0  0  0
 14 15  2  0  0  0  0
 14 35  1  0  0  0  0
 15 16  1  0  0  0  0
 15 36  1  0  0  0  0
 16 17  2  0  0  0  0
 16 37  1  0  0  0  0
 17 18  1  0  0  0  0
 17 38  1  0  0  0  0
 19 20  1  0  0  0  0
 19 21  1  0  0  0  0
 20 39  1  0  0  0  0
 20 40  1  0  0  0  0
 20 41  1  0  0  0  0
 21 42  1  0  0  0  0
 21 43  1  0  0  0  0
 21 44  1  0  0  0  0
M  END
$$$$
CHEMBL3410823
 OpenBabel12022418093D

 53 55  0  0  0  0  0  0  0  0999 V2000
    2.5170   -0.7460    0.0108 C   0  0  0  0  0  0  0  0  0  0  0  0
    2.5679    0.6540    0.0103 C   0  0  0  0  0  0  0  0  0  0  0  0
    1.3639    1.4029    0.0333 C   0  0  0  0  0  0  0  0  0  0  0  0
    0.1254    0.7230    0.0457 C   0  0  0  0  0  0  0  0  0  0  0  0
    0.1097   -0.6768    0.0724 C   0  0  0  0  0  0  0  0  0  0  0  0
    1.2968   -1.4098    0.0555 C   0  0  0  0  0  0  0  0  0  0  0  0
   -1.1830   -1.4044    0.0942 C   0  0  0  0  0  0  0  0  0  0  0  0
   -1.1742   -2.6242    0.2110 O   0  0  0  0  0  0  0  0  0  0  0  0
   -2.3501   -0.6411   -0.0430 N   0  0  0  0  0  0  0  0  0  0  0  0
   -2.3078    0.7401   -0.0473 C   0  0  0  0  0  0  0  0  0  0  0  0
   -1.1611    1.4249    0.0036 C   0  0  0  0  0  0  0  0  0  0  0  0
   -3.6247   -1.3768    0.0121 C   0  0  0  0  0  0  0  0  0  0  0  0
   -4.7738   -0.7828   -0.8072 C   0  0  0  0  0  0  0  0  0  0  0  0
   -6.0468   -1.5854   -0.7126 C   0  0  0  0  0  0  0  0  0  0  0  0
   -6.3545   -2.5847   -1.6385 C   0  0  0  0  0  0  0  0  0  0  0  0
   -7.5693   -3.2458   -1.5199 C   0  0  0  0  0  0  0  0  0  0  0  0
   -8.4748   -2.9924   -0.5508 N   0  0  0  0  0  0  0  0  0  0  0  0
   -8.1497   -2.0369    0.3436 C   0  0  0  0  0  0  0  0  0  0  0  0
   -6.9639   -1.3202    0.3084 C   0  0  0  0  0  0  0  0  0  0  0  0
    1.2465    2.7795    0.0431 O   0  0  0  0  0  0  0  0  0  0  0  0
    2.4421    3.5435    0.0234 C   0  0  0  0  0  0  0  0  0  0  0  0
    2.1291    5.0341    0.0593 C   0  0  0  0  0  0  0  0  0  0  0  0
    3.4481    5.8038    0.0182 C   0  0  0  0  0  0  0  0  0  0  0  0
    3.2464    7.3118    0.0474 C   0  0  0  0  0  0  0  0  0  0  0  0
    4.5868    8.0292    0.0038 C   0  0  0  0  0  0  0  0  0  0  0  0
    3.7629    1.3101   -0.1219 O   0  0  0  0  0  0  0  0  0  0  0  0
    4.9141    0.7236    0.4707 C   0  0  0  0  0  0  0  0  0  0  0  0
    3.4135   -1.3521   -0.0619 H   0  0  0  0  0  0  0  0  0  0  0  0
    1.2715   -2.4978    0.0462 H   0  0  0  0  0  0  0  0  0  0  0  0
   -3.2446    1.2843   -0.0937 H   0  0  0  0  0  0  0  0  0  0  0  0
   -1.1659    2.5098   -0.0014 H   0  0  0  0  0  0  0  0  0  0  0  0
   -3.8971   -1.4585    1.0721 H   0  0  0  0  0  0  0  0  0  0  0  0
   -3.4506   -2.4026   -0.3382 H   0  0  0  0  0  0  0  0  0  0  0  0
   -4.4742   -0.6814   -1.8574 H   0  0  0  0  0  0  0  0  0  0  0  0
   -5.0061    0.2307   -0.4627 H   0  0  0  0  0  0  0  0  0  0  0  0
   -5.6776   -2.8431   -2.4459 H   0  0  0  0  0  0  0  0  0  0  0  0
   -7.8604   -4.0143   -2.2304 H   0  0  0  0  0  0  0  0  0  0  0  0
   -8.8928   -1.8471    1.1114 H   0  0  0  0  0  0  0  0  0  0  0  0
   -6.7709   -0.5580    1.0558 H   0  0  0  0  0  0  0  0  0  0  0  0
    2.9856    3.3431   -0.9067 H   0  0  0  0  0  0  0  0  0  0  0  0
    3.0482    3.3080    0.9061 H   0  0  0  0  0  0  0  0  0  0  0  0
    1.5599    5.2771    0.9645 H   0  0  0  0  0  0  0  0  0  0  0  0
    1.4903    5.3030   -0.7905 H   0  0  0  0  0  0  0  0  0  0  0  0
    4.0005    5.5275   -0.8893 H   0  0  0  0  0  0  0  0  0  0  0  0
    4.0703    5.5023    0.8707 H   0  0  0  0  0  0  0  0  0  0  0  0
    2.7086    7.5989    0.9577 H   0  0  0  0  0  0  0  0  0  0  0  0
    2.6377    7.6237   -0.8085 H   0  0  0  0  0  0  0  0  0  0  0  0
    5.2073    7.7517    0.8626 H   0  0  0  0  0  0  0  0  0  0  0  0
    4.4398    9.1124    0.0248 H   0  0  0  0  0  0  0  0  0  0  0  0
    5.1368    7.7758   -0.9088 H   0  0  0  0  0  0  0  0  0  0  0  0
    5.7425    1.4250    0.3287 H   0  0  0  0  0  0  0  0  0  0  0  0
    5.1958   -0.2081   -0.0250 H   0  0  0  0  0  0  0  0  0  0  0  0
    4.7742    0.5799    1.5468 H   0  0  0  0  0  0  0  0  0  0  0  0
  1  6  2  0  0  0  0
  1  2  1  0  0  0  0
  1 28  1  0  0  0  0
  2  3  2  0  0  0  0
  2 26  1  0  0  0  0
  3  4  1  0  0  0  0
  3 20  1  0  0  0  0
  4 11  1  0  0  0  0
  4  5  2  0  0  0  0
  5  6  1  0  0  0  0
  5  7  1  0  0  0  0
  6 29  1  0  0  0  0
  7  8  2  0  0  0  0
  7  9  1  0  0  0  0
  9 10  1  0  0  0  0
  9 12  1  0  0  0  0
 10 11  2  0  0  0  0
 10 30  1  0  0  0  0
 11 31  1  0  0  0  0
 12 13  1  0  0  0  0
 12 32  1  0  0  0  0
 12 33  1  0  0  0  0
 13 14  1  0  0  0  0
 13 34  1  0  0  0  0
 13 35  1  0  0  0  0
 14 19  2  0  0  0  0
 14 15  1  0  0  0  0
 15 16  2  0  0  0  0
 15 36  1  0  0  0  0
 16 17  1  0  0  0  0
 16 37  1  0  0  0  0
 17 18  2  0  0  0  0
 18 19  1  0  0  0  0
 18 38  1  0  0  0  0
 19 39  1  0  0  0  0
 20 21  1  0  0  0  0
 21 22  1  0  0  0  0
 21 40  1  0  0  0  0
 21 41  1  0  0  0  0
 22 23  1  0  0  0  0
 22 42  1  0  0  0  0
 22 43  1  0  0  0  0
 23 24  1  0  0  0  0
 23 44  1  0  0  0  0
 23 45  1  0  0  0  0
 24 25  1  0  0  0  0
 24 46  1  0  0  0  0
 24 47  1  0  0  0  0
 25 48  1  0  0  0  0
 25 49  1  0  0  0  0
 25 50  1  0  0  0  0
 26 27  1  0  0  0  0
 27 51  1  0  0  0  0
 27 52  1  0  0  0  0
 27 53  1  0  0  0  0
M  END
$$$$
CHEMBL569299
 OpenBabel12022418093D

 47 49  0  0  0  0  0  0  0  0999 V2000
    0.4957    0.5610   -0.4906 C   0  0  0  0  0  0  0  0  0  0  0  0
   -0.0629    1.7032   -1.2894 C   0  0  0  0  0  0  0  0  0  0  0  0
   -1.0783    1.5711   -1.9650 O   0  0  0  0  0  0  0  0  0  0  0  0
    0.6251    2.9882   -1.2007 C   0  0  0  0  0  0  0  0  0  0  0  0
    0.0240    4.2698   -1.4345 C   0  0  0  0  0  0  0  0  0  0  0  0
   -1.2981    4.6765   -1.7227 C   0  0  0  0  0  0  0  0  0  0  0  0
   -1.5948    6.0284   -1.8914 C   0  0  0  0  0  0  0  0  0  0  0  0
   -0.5900    6.9829   -1.7787 C   0  0  0  0  0  0  0  0  0  0  0  0
    0.7311    6.6118   -1.5005 C   0  0  0  0  0  0  0  0  0  0  0  0
    1.0216    5.2462   -1.3286 C   0  0  0  0  0  0  0  0  0  0  0  0
    2.1992    4.5776   -1.0592 N   0  0  0  0  0  0  0  0  0  0  0  0
    1.9567    3.2312   -0.9162 C   0  0  0  0  0  0  0  0  0  0  0  0
    3.5153    5.1817   -0.9176 C   0  0  0  0  0  0  0  0  0  0  0  0
    4.5830    4.6134   -1.8544 C   0  0  0  0  0  0  0  0  0  0  0  0
    4.2835    4.8346   -3.3307 C   0  0  0  0  0  0  0  0  0  0  0  0
    5.3354    4.2760   -4.1107 O   0  0  0  0  0  0  0  0  0  0  0  0
   -0.2950   -0.0557    0.6674 C   0  0  0  0  0  0  0  0  0  0  0  0
   -0.0018   -0.8846   -0.5996 C   0  0  0  0  0  0  0  0  0  0  0  0
   -1.1286   -1.2691   -1.5380 C   0  0  0  0  0  0  0  0  0  0  0  0
    1.0542   -1.9726   -0.5654 C   0  0  0  0  0  0  0  0  0  0  0  0
    0.4549   -0.3452    1.9511 C   0  0  0  0  0  0  0  0  0  0  0  0
   -1.7000    0.4329    0.9586 C   0  0  0  0  0  0  0  0  0  0  0  0
    1.5673    0.6521   -0.3284 H   0  0  0  0  0  0  0  0  0  0  0  0
   -2.0895    3.9357   -1.8111 H   0  0  0  0  0  0  0  0  0  0  0  0
   -2.6156    6.3303   -2.1085 H   0  0  0  0  0  0  0  0  0  0  0  0
   -0.8366    8.0337   -1.9123 H   0  0  0  0  0  0  0  0  0  0  0  0
    1.4981    7.3760   -1.4180 H   0  0  0  0  0  0  0  0  0  0  0  0
    2.7667    2.5540   -0.6827 H   0  0  0  0  0  0  0  0  0  0  0  0
    3.8150    5.0192    0.1242 H   0  0  0  0  0  0  0  0  0  0  0  0
    3.4312    6.2629   -1.0661 H   0  0  0  0  0  0  0  0  0  0  0  0
    4.7292    3.5411   -1.6742 H   0  0  0  0  0  0  0  0  0  0  0  0
    5.5474    5.0790   -1.6148 H   0  0  0  0  0  0  0  0  0  0  0  0
    4.2032    5.8998   -3.5695 H   0  0  0  0  0  0  0  0  0  0  0  0
    3.3541    4.3421   -3.6310 H   0  0  0  0  0  0  0  0  0  0  0  0
    6.1665    4.7103   -3.8550 H   0  0  0  0  0  0  0  0  0  0  0  0
   -1.9299   -0.5365   -1.6272 H   0  0  0  0  0  0  0  0  0  0  0  0
   -1.5944   -2.1988   -1.1943 H   0  0  0  0  0  0  0  0  0  0  0  0
   -0.7322   -1.4412   -2.5451 H   0  0  0  0  0  0  0  0  0  0  0  0
    1.9451   -1.6953    0.0036 H   0  0  0  0  0  0  0  0  0  0  0  0
    1.3898   -2.2032   -1.5826 H   0  0  0  0  0  0  0  0  0  0  0  0
    0.6379   -2.8856   -0.1274 H   0  0  0  0  0  0  0  0  0  0  0  0
    1.4932   -0.6455    1.7929 H   0  0  0  0  0  0  0  0  0  0  0  0
   -0.0472   -1.1445    2.5075 H   0  0  0  0  0  0  0  0  0  0  0  0
    0.4753    0.5489    2.5836 H   0  0  0  0  0  0  0  0  0  0  0  0
   -2.3018    0.6360    0.0717 H   0  0  0  0  0  0  0  0  0  0  0  0
   -1.6579    1.3620    1.5377 H   0  0  0  0  0  0  0  0  0  0  0  0
   -2.2383   -0.3127    1.5543 H   0  0  0  0  0  0  0  0  0  0  0  0
  1 18  1  0  0  0  0
  1  2  1  0  0  0  0
  1 17  1  0  0  0  0
  1 23  1  0  0  0  0
  2  3  2  0  0  0  0
  2  4  1  0  0  0  0
  4 12  2  0  0  0  0
  4  5  1  0  0  0  0
  5 10  2  0  0  0  0
  5  6  1  0  0  0  0
  6  7  2  0  0  0  0
  6 24  1  0  0  0  0
  7  8  1  0  0  0  0
  7 25  1  0  0  0  0
  8  9  2  0  0  0  0
  8 26  1  0  0  0  0
  9 10  1  0  0  0  0
  9 27  1  0  0  0  0
 10 11  1  0  0  0  0
 11 12  1  0  0  0  0
 11 13  1  0  0  0  0
 12 28  1  0  0  0  0
 13 14  1  0  0  0  0
 13 29  1  0  0  0  0
 13 30  1  0  0  0  0
 14 15  1  0  0  0  0
 14 31  1  0  0  0  0
 14 32  1  0  0  0  0
 15 16  1  0  0  0  0
 15 33  1  0  0  0  0
 15 34  1  0  0  0  0
 16 35  1  0  0  0  0
 17 18  1  0  0  0  0
 17 21  1  0  0  0  0
 17 22  1  0  0  0  0
 18 19  1  0  0  0  0
 18 20  1  0  0  0  0
 19 36  1  0  0  0  0
 19 37  1  0  0  0  0
 19 38  1  0  0  0  0
 20 39  1  0  0  0  0
 20 40  1  0  0  0  0
 20 41  1  0  0  0  0
 21 42  1  0  0  0  0
 21 43  1  0  0  0  0
 21 44  1  0  0  0  0
 22 45  1  0  0  0  0
 22 46  1  0  0  0  0
 22 47  1  0  0  0  0
M  END
$$$$
CHEMBL3092895
 OpenBabel12022418093D

 60 64  0  0  0  0  0  0  0  0999 V2000
    1.9103    1.1090   -0.0313 N   0  0  0  0  0  0  0  0  0  0  0  0
    2.1402   -0.2107   -0.0993 C   0  0  0  0  0  0  0  0  0  0  0  0
    1.2081   -1.1595   -0.1366 N   0  0  0  0  0  0  0  0  0  0  0  0
   -0.0379   -0.6770   -0.0527 C   0  0  0  0  0  0  0  0  0  0  0  0
   -1.1880   -1.4241   -0.0286 N   0  0  0  0  0  0  0  0  0  0  0  0
   -2.2652   -0.5471    0.1084 C   0  0  0  0  0  0  0  0  0  0  0  0
   -1.8061    0.7037    0.1378 N   0  0  0  0  0  0  0  0  0  0  0  0
   -0.4186    0.6455    0.0547 C   0  0  0  0  0  0  0  0  0  0  0  0
    0.6318    1.6066    0.0476 C   0  0  0  0  0  0  0  0  0  0  0  0
    0.5284    2.9903    0.1955 N   0  0  0  0  0  0  0  0  0  0  0  0
    1.5218    3.7607   -0.5783 C   0  0  0  0  0  0  0  0  0  0  0  0
    1.5872    5.2233   -0.0878 C   0  0  0  0  0  0  0  0  0  0  0  0
    0.2638    5.8829   -0.0706 N   0  0  0  0  0  0  0  0  0  0  0  0
   -0.6596    5.0732    0.7596 C   0  0  0  0  0  0  0  0  0  0  0  0
   -0.7981    3.6099    0.2607 C   0  0  0  0  0  0  0  0  0  0  0  0
    0.3796    7.2420    0.4520 C   0  0  0  0  0  0  0  0  0  0  0  0
   -3.7009   -0.9388    0.2237 C   0  0  0  0  0  0  0  0  0  0  0  0
   -4.0778   -2.0739    0.9737 C   0  0  0  0  0  0  0  0  0  0  0  0
   -5.4062   -2.4989    1.0841 C   0  0  0  0  0  0  0  0  0  0  0  0
   -6.4179   -1.7539    0.5028 C   0  0  0  0  0  0  0  0  0  0  0  0
   -6.0917   -0.5980   -0.2033 C   0  0  0  0  0  0  0  0  0  0  0  0
   -4.7475   -0.2003   -0.3578 C   0  0  0  0  0  0  0  0  0  0  0  0
   -4.4883    1.2152   -1.3226 Cl  0  0  0  0  0  0  0  0  0  0  0  0
   -1.2360   -2.8765   -0.0956 C   0  0  0  0  0  0  0  0  0  0  0  0
    0.0934   -3.6135   -0.2881 C   0  0  0  0  0  0  0  0  0  0  0  0
   -0.0172   -5.0594   -0.3821 N   0  0  0  0  0  0  0  0  0  0  0  0
    1.0210   -5.7972   -1.0555 C   0  0  0  0  0  0  0  0  0  0  0  0
    0.5638   -7.2291   -0.9093 C   0  0  0  0  0  0  0  0  0  0  0  0
   -0.0676   -7.2474    0.4758 C   0  0  0  0  0  0  0  0  0  0  0  0
   -0.5722   -5.8330    0.6400 C   0  0  0  0  0  0  0  0  0  0  0  0
   -1.2859   -5.4421    1.5526 O   0  0  0  0  0  0  0  0  0  0  0  0
    3.5598   -0.6824   -0.0760 C   0  0  0  0  0  0  0  0  0  0  0  0
    1.2584    3.7399   -1.6441 H   0  0  0  0  0  0  0  0  0  0  0  0
    2.5339    3.3500   -0.4786 H   0  0  0  0  0  0  0  0  0  0  0  0
    2.2654    5.7771   -0.7490 H   0  0  0  0  0  0  0  0  0  0  0  0
    2.0321    5.2362    0.9171 H   0  0  0  0  0  0  0  0  0  0  0  0
   -1.6538    5.5339    0.7610 H   0  0  0  0  0  0  0  0  0  0  0  0
   -0.3045    5.0555    1.8001 H   0  0  0  0  0  0  0  0  0  0  0  0
   -1.4424    3.0851    0.9740 H   0  0  0  0  0  0  0  0  0  0  0  0
   -1.2778    3.5946   -0.7258 H   0  0  0  0  0  0  0  0  0  0  0  0
    1.0299    7.8442   -0.1926 H   0  0  0  0  0  0  0  0  0  0  0  0
    0.7872    7.2668    1.4692 H   0  0  0  0  0  0  0  0  0  0  0  0
   -0.5986    7.7347    0.4601 H   0  0  0  0  0  0  0  0  0  0  0  0
   -3.3540   -2.6575    1.5289 H   0  0  0  0  0  0  0  0  0  0  0  0
   -5.6414   -3.4027    1.6438 H   0  0  0  0  0  0  0  0  0  0  0  0
   -7.4545   -2.0598    0.6132 H   0  0  0  0  0  0  0  0  0  0  0  0
   -6.8944   -0.0074   -0.6379 H   0  0  0  0  0  0  0  0  0  0  0  0
   -1.9360   -3.1450   -0.8944 H   0  0  0  0  0  0  0  0  0  0  0  0
   -1.6334   -3.1978    0.8628 H   0  0  0  0  0  0  0  0  0  0  0  0
    0.7595   -3.4217    0.5622 H   0  0  0  0  0  0  0  0  0  0  0  0
    0.5721   -3.2744   -1.2136 H   0  0  0  0  0  0  0  0  0  0  0  0
    1.9704   -5.6222   -0.5351 H   0  0  0  0  0  0  0  0  0  0  0  0
    1.1029   -5.4782   -2.0979 H   0  0  0  0  0  0  0  0  0  0  0  0
    1.3777   -7.9490   -1.0215 H   0  0  0  0  0  0  0  0  0  0  0  0
   -0.2009   -7.4519   -1.6638 H   0  0  0  0  0  0  0  0  0  0  0  0
    0.6798   -7.4420    1.2513 H   0  0  0  0  0  0  0  0  0  0  0  0
   -0.8850   -7.9681    0.5426 H   0  0  0  0  0  0  0  0  0  0  0  0
    4.2601    0.1569   -0.0826 H   0  0  0  0  0  0  0  0  0  0  0  0
    3.7571   -1.3143   -0.9472 H   0  0  0  0  0  0  0  0  0  0  0  0
    3.7313   -1.2736    0.8295 H   0  0  0  0  0  0  0  0  0  0  0  0
  1  9  2  0  0  0  0
  1  2  1  0  0  0  0
  2  3  2  0  0  0  0
  2 32  1  0  0  0  0
  3  4  1  0  0  0  0
  4  8  2  0  0  0  0
  4  5  1  0  0  0  0
  5  6  1  0  0  0  0
  5 24  1  0  0  0  0
  6  7  2  0  0  0  0
  6 17  1  0  0  0  0
  7  8  1  0  0  0  0
  8  9  1  0  0  0  0
  9 10  1  0  0  0  0
 10 15  1  0  0  0  0
 10 11  1  0  0  0  0
 11 12  1  0  0  0  0
 11 33  1  0  0  0  0
 11 34  1  0  0  0  0
 12 13  1  0  0  0  0
 12 35  1  0  0  0  0
 12 36  1  0  0  0  0
 13 14  1  0  0  0  0
 13 16  1  0  0  0  0
 14 15  1  0  0  0  0
 14 37  1  0  0  0  0
 14 38  1  0  0  0  0
 15 39  1  0  0  0  0
 15 40  1  0  0  0  0
 16 41  1  0  0  0  0
 16 42  1  0  0  0  0
 16 43  1  0  0  0  0
 17 22  2  0  0  0  0
 17 18  1  0  0  0  0
 18 19  2  0  0  0  0
 18 44  1  0  0  0  0
 19 20  1  0  0  0  0
 19 45  1  0  0  0  0
 20 21  2  0  0  0  0
 20 46  1  0  0  0  0
 21 22  1  0  0  0  0
 21 47  1  0  0  0  0
 22 23  1  0  0  0  0
 24 25  1  0  0  0  0
 24 48  1  0  0  0  0
 24 49  1  0  0  0  0
 25 26  1  0  0  0  0
 25 50  1  0  0  0  0
 25 51  1  0  0  0  0
 26 30  1  0  0  0  0
 26 27  1  0  0  0  0
 27 28  1  0  0  0  0
 27 52  1  0  0  0  0
 27 53  1  0  0  0  0
 28 29  1  0  0  0  0
 28 54  1  0  0  0  0
 28 55  1  0  0  0  0
 29 30  1  0  0  0  0
 29 56  1  0  0  0  0
 29 57  1  0  0  0  0
 30 31  2  0  0  0  0
 32 58  1  0  0  0  0
 32 59  1  0  0  0  0
 32 60  1  0  0  0  0
M  END
$$$$
CHEMBL253059
 OpenBabel12022418093D

 50 52  0  0  0  0  0  0  0  0999 V2000
    2.3732   -0.6095   -0.0139 C   0  0  0  0  0  0  0  0  0  0  0  0
    0.9126   -0.2653    0.0485 C   0  0  0  0  0  0  0  0  0  0  0  0
    0.0250   -1.3658   -0.0078 C   0  0  0  0  0  0  0  0  0  0  0  0
   -1.3615   -1.1982    0.0436 C   0  0  0  0  0  0  0  0  0  0  0  0
   -1.9002    0.0798    0.1789 C   0  0  0  0  0  0  0  0  0  0  0  0
   -3.3783    0.2442    0.2336 C   0  0  0  0  0  0  0  0  0  0  0  0
   -4.0045   -0.6319    0.8312 O   0  0  0  0  0  0  0  0  0  0  0  0
   -4.0029    1.3470   -0.3643 N   0  0  0  0  0  0  0  0  0  0  0  0
   -5.3981    1.6101   -0.0097 C   0  0  0  0  0  0  0  0  0  0  0  0
   -6.2332    2.0232   -1.2180 C   0  0  0  0  0  0  0  0  0  0  0  0
   -5.5876    3.1775   -1.9764 C   0  0  0  0  0  0  0  0  0  0  0  0
   -4.1649    2.8138   -2.3702 C   0  0  0  0  0  0  0  0  0  0  0  0
   -3.3461    2.3923   -1.1595 C   0  0  0  0  0  0  0  0  0  0  0  0
   -1.0332    1.1626    0.3143 C   0  0  0  0  0  0  0  0  0  0  0  0
    0.3595    1.0219    0.1874 C   0  0  0  0  0  0  0  0  0  0  0  0
    1.2539    2.5815   -0.0091 S   0  0  0  0  0  0  0  0  0  0  0  0
    2.5175    2.3176   -0.6553 O   0  0  0  0  0  0  0  0  0  0  0  0
    0.3162    3.5161   -0.6086 O   0  0  0  0  0  0  0  0  0  0  0  0
    1.5561    3.1138    1.5967 N   0  0  0  0  0  0  0  0  0  0  0  0
    0.3632    3.6180    2.3240 C   0  0  0  0  0  0  0  0  0  0  0  0
    0.6444    4.0208    3.7625 C   0  0  0  0  0  0  0  0  0  0  0  0
    1.4181    2.9405    4.4945 C   0  0  0  0  0  0  0  0  0  0  0  0
    2.7366    2.7157    3.7770 C   0  0  0  0  0  0  0  0  0  0  0  0
    2.5245    2.2739    2.3376 C   0  0  0  0  0  0  0  0  0  0  0  0
    3.0450    0.2411    0.0503 H   0  0  0  0  0  0  0  0  0  0  0  0
    2.5926   -1.1498   -0.9413 H   0  0  0  0  0  0  0  0  0  0  0  0
    2.6209   -1.2591    0.8338 H   0  0  0  0  0  0  0  0  0  0  0  0
    0.4193   -2.3790   -0.1048 H   0  0  0  0  0  0  0  0  0  0  0  0
   -2.0167   -2.0660   -0.0193 H   0  0  0  0  0  0  0  0  0  0  0  0
   -5.3904    2.4136    0.7373 H   0  0  0  0  0  0  0  0  0  0  0  0
   -5.8583    0.7378    0.4657 H   0  0  0  0  0  0  0  0  0  0  0  0
   -7.2394    2.3095   -0.8938 H   0  0  0  0  0  0  0  0  0  0  0  0
   -6.3401    1.1653   -1.8933 H   0  0  0  0  0  0  0  0  0  0  0  0
   -5.5800    4.0777   -1.3499 H   0  0  0  0  0  0  0  0  0  0  0  0
   -6.1701    3.4099   -2.8740 H   0  0  0  0  0  0  0  0  0  0  0  0
   -3.6795    3.6640   -2.8625 H   0  0  0  0  0  0  0  0  0  0  0  0
   -4.1846    1.9888   -3.0927 H   0  0  0  0  0  0  0  0  0  0  0  0
   -2.3788    2.0551   -1.5337 H   0  0  0  0  0  0  0  0  0  0  0  0
   -3.1892    3.2513   -0.4948 H   0  0  0  0  0  0  0  0  0  0  0  0
   -1.4483    2.1512    0.4819 H   0  0  0  0  0  0  0  0  0  0  0  0
   -0.4274    2.8661    2.3308 H   0  0  0  0  0  0  0  0  0  0  0  0
   -0.0139    4.5051    1.7995 H   0  0  0  0  0  0  0  0  0  0  0  0
   -0.3060    4.2085    4.2763 H   0  0  0  0  0  0  0  0  0  0  0  0
    1.2082    4.9610    3.7863 H   0  0  0  0  0  0  0  0  0  0  0  0
    0.8374    2.0104    4.5266 H   0  0  0  0  0  0  0  0  0  0  0  0
    1.6018    3.2477    5.5291 H   0  0  0  0  0  0  0  0  0  0  0  0
    3.3199    1.9527    4.3045 H   0  0  0  0  0  0  0  0  0  0  0  0
    3.3266    3.6400    3.8003 H   0  0  0  0  0  0  0  0  0  0  0  0
    3.4928    2.3345    1.8258 H   0  0  0  0  0  0  0  0  0  0  0  0
    2.2001    1.2303    2.3303 H   0  0  0  0  0  0  0  0  0  0  0  0
  1  2  1  0  0  0  0
  1 25  1  0  0  0  0
  1 26  1  0  0  0  0
  1 27  1  0  0  0  0
  2 15  2  0  0  0  0
  2  3  1  0  0  0  0
  3  4  2  0  0  0  0
  3 28  1  0  0  0  0
  4  5  1  0  0  0  0
  4 29  1  0  0  0  0
  5  6  1  0  0  0  0
  5 14  2  0  0  0  0
  6  7  2  0  0  0  0
  6  8  1  0  0  0  0
  8 13  1  0  0  0  0
  8  9  1  0  0  0  0
  9 10  1  0  0  0  0
  9 30  1  0  0  0  0
  9 31  1  0  0  0  0
 10 11  1  0  0  0  0
 10 32  1  0  0  0  0
 10 33  1  0  0  0  0
 11 12  1  0  0  0  0
 11 34  1  0  0  0  0
 11 35  1  0  0  0  0
 12 13  1  0  0  0  0
 12 36  1  0  0  0  0
 12 37  1  0  0  0  0
 13 38  1  0  0  0  0
 13 39  1  0  0  0  0
 14 15  1  0  0  0  0
 14 40  1  0  0  0  0
 15 16  1  0  0  0  0
 16 17  2  0  0  0  0
 16 18  2  0  0  0  0
 16 19  1  0  0  0  0
 19 24  1  0  0  0  0
 19 20  1  0  0  0  0
 20 21  1  0  0  0  0
 20 41  1  0  0  0  0
 20 42  1  0  0  0  0
 21 22  1  0  0  0  0
 21 43  1  0  0  0  0
 21 44  1  0  0  0  0
 22 23  1  0  0  0  0
 22 45  1  0  0  0  0
 22 46  1  0  0  0  0
 23 24  1  0  0  0  0
 23 47  1  0  0  0  0
 23 48  1  0  0  0  0
 24 49  1  0  0  0  0
 24 50  1  0  0  0  0
M  END
$$$$
CHEMBL244403
 OpenBabel12022418093D

 52 55  0  0  0  0  0  0  0  0999 V2000
    2.1887   -1.3497   -2.7534 C   0  0  0  0  0  0  0  0  0  0  0  0
    3.2861   -0.8694   -1.8151 C   0  0  0  0  0  0  0  0  0  0  0  0
    3.8682   -2.0271   -1.0121 C   0  0  0  0  0  0  0  0  0  0  0  0
    4.9841   -1.5747   -0.0652 C   0  0  0  0  0  0  0  0  0  0  0  0
    5.5118   -2.7816    0.7012 C   0  0  0  0  0  0  0  0  0  0  0  0
    6.5748   -2.4113    1.5832 O   0  0  0  0  0  0  0  0  0  0  0  0
    7.0857   -3.4348    2.3618 C   0  0  0  0  0  0  0  0  0  0  0  0
    6.5777   -4.7347    2.3217 C   0  0  0  0  0  0  0  0  0  0  0  0
    7.0966   -5.7248    3.1419 C   0  0  0  0  0  0  0  0  0  0  0  0
    8.1948   -5.4693    3.9723 C   0  0  0  0  0  0  0  0  0  0  0  0
    8.7216   -6.6207    4.7897 C   0  0  0  0  0  0  0  0  0  0  0  0
    9.2448   -6.4065    5.8761 O   0  0  0  0  0  0  0  0  0  0  0  0
    8.6082   -8.0383    4.3061 C   0  0  0  0  0  0  0  0  0  0  0  0
    8.3583   -9.1179    5.2078 C   0  0  0  0  0  0  0  0  0  0  0  0
    8.1662   -8.9913    6.6078 C   0  0  0  0  0  0  0  0  0  0  0  0
    7.9741  -10.0990    7.4369 C   0  0  0  0  0  0  0  0  0  0  0  0
    7.9469  -11.3743    6.8921 C   0  0  0  0  0  0  0  0  0  0  0  0
    8.0890  -11.5362    5.5164 C   0  0  0  0  0  0  0  0  0  0  0  0
    8.2874  -10.4323    4.6708 C   0  0  0  0  0  0  0  0  0  0  0  0
    8.4182  -10.6377    3.2902 C   0  0  0  0  0  0  0  0  0  0  0  0
    8.6621   -9.5774    2.4247 C   0  0  0  0  0  0  0  0  0  0  0  0
    8.7905   -8.2902    2.9337 C   0  0  0  0  0  0  0  0  0  0  0  0
    8.7421   -4.1499    4.0411 C   0  0  0  0  0  0  0  0  0  0  0  0
    9.8419   -3.7846    4.8633 C   0  0  0  0  0  0  0  0  0  0  0  0
   10.3266   -2.4795    4.9354 C   0  0  0  0  0  0  0  0  0  0  0  0
    9.7398   -1.4878    4.1741 C   0  0  0  0  0  0  0  0  0  0  0  0
    8.6772   -1.8095    3.3272 C   0  0  0  0  0  0  0  0  0  0  0  0
    8.1605   -3.1242    3.2354 C   0  0  0  0  0  0  0  0  0  0  0  0
    1.7801   -0.5087   -3.3212 H   0  0  0  0  0  0  0  0  0  0  0  0
    1.3689   -1.8136   -2.1948 H   0  0  0  0  0  0  0  0  0  0  0  0
    2.5754   -2.0856   -3.4662 H   0  0  0  0  0  0  0  0  0  0  0  0
    2.8751   -0.1149   -1.1350 H   0  0  0  0  0  0  0  0  0  0  0  0
    4.0771   -0.3883   -2.4011 H   0  0  0  0  0  0  0  0  0  0  0  0
    4.2597   -2.7877   -1.6997 H   0  0  0  0  0  0  0  0  0  0  0  0
    3.0691   -2.5065   -0.4321 H   0  0  0  0  0  0  0  0  0  0  0  0
    4.6116   -0.8228    0.6395 H   0  0  0  0  0  0  0  0  0  0  0  0
    5.7996   -1.1011   -0.6240 H   0  0  0  0  0  0  0  0  0  0  0  0
    5.8807   -3.5211   -0.0194 H   0  0  0  0  0  0  0  0  0  0  0  0
    4.6793   -3.1983    1.2824 H   0  0  0  0  0  0  0  0  0  0  0  0
    5.7629   -5.0241    1.6674 H   0  0  0  0  0  0  0  0  0  0  0  0
    6.6222   -6.7024    3.1081 H   0  0  0  0  0  0  0  0  0  0  0  0
    8.1805   -8.0137    7.0874 H   0  0  0  0  0  0  0  0  0  0  0  0
    7.8572   -9.9593    8.5079 H   0  0  0  0  0  0  0  0  0  0  0  0
    7.8160  -12.2393    7.5357 H   0  0  0  0  0  0  0  0  0  0  0  0
    8.0553  -12.5437    5.1086 H   0  0  0  0  0  0  0  0  0  0  0  0
    8.3391  -11.6418    2.8749 H   0  0  0  0  0  0  0  0  0  0  0  0
    8.7657   -9.7578    1.3581 H   0  0  0  0  0  0  0  0  0  0  0  0
    9.0268   -7.4854    2.2408 H   0  0  0  0  0  0  0  0  0  0  0  0
   10.3456   -4.5215    5.4853 H   0  0  0  0  0  0  0  0  0  0  0  0
   11.1570   -2.2472    5.6000 H   0  0  0  0  0  0  0  0  0  0  0  0
   10.1031   -0.4656    4.2306 H   0  0  0  0  0  0  0  0  0  0  0  0
    8.2385   -1.0094    2.7328 H   0  0  0  0  0  0  0  0  0  0  0  0
  1  2  1  0  0  0  0
  1 29  1  0  0  0  0
  1 30  1  0  0  0  0
  1 31  1  0  0  0  0
  2  3  1  0  0  0  0
  2 32  1  0  0  0  0
  2 33  1  0  0  0  0
  3  4  1  0  0  0  0
  3 34  1  0  0  0  0
  3 35  1  0  0  0  0
  4  5  1  0  0  0  0
  4 36  1  0  0  0  0
  4 37  1  0  0  0  0
  5  6  1  0  0  0  0
  5 38  1  0  0  0  0
  5 39  1  0  0  0  0
  6  7  1  0  0  0  0
  7 28  2  0  0  0  0
  7  8  1  0  0  0  0
  8  9  2  0  0  0  0
  8 40  1  0  0  0  0
  9 10  1  0  0  0  0
  9 41  1  0  0  0  0
 10 11  1  0  0  0  0
 10 23  2  0  0  0  0
 11 12  2  0  0  0  0
 11 13  1  0  0  0  0
 13 22  2  0  0  0  0
 13 14  1  0  0  0  0
 14 19  2  0  0  0  0
 14 15  1  0  0  0  0
 15 16  2  0  0  0  0
 15 42  1  0  0  0  0
 16 17  1  0  0  0  0
 16 43  1  0  0  0  0
 17 18  2  0  0  0  0
 17 44  1  0  0  0  0
 18 19  1  0  0  0  0
 18 45  1  0  0  0  0
 19 20  1  0  0  0  0
 20 21  2  0  0  0  0
 20 46  1  0  0  0  0
 21 22  1  0  0  0  0
 21 47  1  0  0  0  0
 22 48  1  0  0  0  0
 23 28  1  0  0  0  0
 23 24  1  0  0  0  0
 24 25  2  0  0  0  0
 24 49  1  0  0  0  0
 25 26  1  0  0  0  0
 25 50  1  0  0  0  0
 26 27  2  0  0  0  0
 26 51  1  0  0  0  0
 27 28  1  0  0  0  0
 27 52  1  0  0  0  0
M  END
$$$$
CHEMBL3354962
 OpenBabel12022418093D

 43 46  0  0  1  0  0  0  0  0999 V2000
    4.0722    0.0642   -1.5026 C   0  0  0  0  0  0  0  0  0  0  0  0
    3.0149   -0.6207   -0.6142 C   0  0  0  0  0  0  0  0  0  0  0  0
    2.3941    0.4154    0.3423 C   0  0  0  0  0  0  0  0  0  0  0  0
    1.8978   -1.1388   -1.5379 C   0  0  0  0  0  0  0  0  0  0  0  0
    3.5986   -1.7468    0.1388 N   0  0  0  0  0  0  0  0  0  0  0  0
    4.6284   -1.5991    1.0488 C   0  0  0  0  0  0  0  0  0  0  0  0
    5.1716   -0.5191    1.2706 O   0  0  0  0  0  0  0  0  0  0  0  0
    5.0600   -2.8134    1.7660 C   0  0  0  0  0  0  0  0  0  0  0  0
    6.0814   -2.8312    2.7265 C   0  0  0  0  0  0  0  0  0  0  0  0
    6.1480   -4.1127    3.1826 C   0  0  0  0  0  0  0  0  0  0  0  0
    7.0606   -4.2092    4.3850 C   0  0  2  0  0  0  0  0  0  0  0  0
    7.4897   -2.7385    4.6035 C   0  0  2  0  0  0  0  0  0  0  0  0
    6.9298   -1.8661    3.4660 C   0  0  0  0  0  0  0  0  0  0  0  0
    8.5095   -3.7899    4.3112 C   0  0  0  0  0  0  0  0  0  0  0  0
    5.2019   -4.8492    2.5341 N   0  0  0  0  0  0  0  0  0  0  0  0
    5.0140   -6.2515    2.6457 C   0  0  0  0  0  0  0  0  0  0  0  0
    3.8201   -6.8610    2.2552 C   0  0  0  0  0  0  0  0  0  0  0  0
    3.6608   -8.2435    2.3639 C   0  0  0  0  0  0  0  0  0  0  0  0
    4.7043   -9.0220    2.8479 C   0  0  0  0  0  0  0  0  0  0  0  0
    5.9028   -8.4410    3.2367 C   0  0  0  0  0  0  0  0  0  0  0  0
    6.0580   -7.0565    3.1388 C   0  0  0  0  0  0  0  0  0  0  0  0
    4.5554  -10.3498    2.9392 F   0  0  0  0  0  0  0  0  0  0  0  0
    2.7709   -6.1467    1.8255 F   0  0  0  0  0  0  0  0  0  0  0  0
    4.5030   -4.0491    1.6482 N   0  0  0  0  0  0  0  0  0  0  0  0
    3.6311    0.8840   -2.0821 H   0  0  0  0  0  0  0  0  0  0  0  0
    4.5118   -0.6480   -2.2101 H   0  0  0  0  0  0  0  0  0  0  0  0
    4.8934    0.4931   -0.9210 H   0  0  0  0  0  0  0  0  0  0  0  0
    1.9319    1.2406   -0.2123 H   0  0  0  0  0  0  0  0  0  0  0  0
    3.1366    0.8581    1.0135 H   0  0  0  0  0  0  0  0  0  0  0  0
    1.6211   -0.0431    0.9692 H   0  0  0  0  0  0  0  0  0  0  0  0
    1.4415   -0.3159   -2.1029 H   0  0  0  0  0  0  0  0  0  0  0  0
    1.1030   -1.6302   -0.9666 H   0  0  0  0  0  0  0  0  0  0  0  0
    2.2841   -1.8641   -2.2623 H   0  0  0  0  0  0  0  0  0  0  0  0
    3.2055   -2.6819    0.0670 H   0  0  0  0  0  0  0  0  0  0  0  0
    6.8075   -4.8924    5.1836 H   0  0  0  0  0  0  0  0  0  0  0  0
    7.4065   -2.3081    5.5897 H   0  0  0  0  0  0  0  0  0  0  0  0
    6.3392   -1.0404    3.8723 H   0  0  0  0  0  0  0  0  0  0  0  0
    7.7378   -1.4763    2.8397 H   0  0  0  0  0  0  0  0  0  0  0  0
    8.9985   -3.7974    3.3433 H   0  0  0  0  0  0  0  0  0  0  0  0
    9.1619   -4.0937    5.1234 H   0  0  0  0  0  0  0  0  0  0  0  0
    2.7247   -8.7106    2.0795 H   0  0  0  0  0  0  0  0  0  0  0  0
    6.7142   -9.0684    3.6000 H   0  0  0  0  0  0  0  0  0  0  0  0
    7.0243   -6.6402    3.4166 H   0  0  0  0  0  0  0  0  0  0  0  0
  1  2  1  0  0  0  0
  1 25  1  0  0  0  0
  1 26  1  0  0  0  0
  1 27  1  0  0  0  0
  2  3  1  0  0  0  0
  2  4  1  0  0  0  0
  2  5  1  0  0  0  0
  3 28  1  0  0  0  0
  3 29  1  0  0  0  0
  3 30  1  0  0  0  0
  4 31  1  0  0  0  0
  4 32  1  0  0  0  0
  4 33  1  0  0  0  0
  5  6  1  0  0  0  0
  5 34  1  0  0  0  0
  6  7  2  0  0  0  0
  6  8  1  0  0  0  0
  8 24  2  0  0  0  0
  8  9  1  0  0  0  0
  9 13  1  0  0  0  0
  9 10  2  0  0  0  0
 10 11  1  0  0  0  0
 10 15  1  0  0  0  0
 11 12  1  0  0  0  0
 11 14  1  0  0  0  0
 11 35  1  1  0  0  0
 12 13  1  0  0  0  0
 12 14  1  0  0  0  0
 12 36  1  1  0  0  0
 13 37  1  0  0  0  0
 13 38  1  0  0  0  0
 14 39  1  0  0  0  0
 14 40  1  0  0  0  0
 15 24  1  0  0  0  0
 15 16  1  0  0  0  0
 16 21  2  0  0  0  0
 16 17  1  0  0  0  0
 17 18  2  0  0  0  0
 17 23  1  0  0  0  0
 18 19  1  0  0  0  0
 18 41  1  0  0  0  0
 19 20  2  0  0  0  0
 19 22  1  0  0  0  0
 20 21  1  0  0  0  0
 20 42  1  0  0  0  0
 21 43  1  0  0  0  0
M  END
$$$$
CHEMBL232336
 OpenBabel12022418093D

 45 48  0  0  0  0  0  0  0  0999 V2000
   -0.0838   -0.4563    0.0272 C   0  0  0  0  0  0  0  0  0  0  0  0
   -1.2608   -1.2955   -0.5322 C   0  0  0  0  0  0  0  0  0  0  0  0
   -2.4994   -0.4786   -0.8858 C   0  0  0  0  0  0  0  0  0  0  0  0
   -2.9613    0.3825    0.2829 C   0  0  0  0  0  0  0  0  0  0  0  0
   -1.8378    1.2601    0.8182 C   0  0  0  0  0  0  0  0  0  0  0  0
   -0.6112    0.4296    1.1943 C   0  0  0  0  0  0  0  0  0  0  0  0
    0.5552    0.4073   -1.0872 C   0  0  0  0  0  0  0  0  0  0  0  0
    1.7166    1.1909   -0.6346 N   0  0  0  0  0  0  0  0  0  0  0  0
    2.8171    0.4678   -0.1657 C   0  0  0  0  0  0  0  0  0  0  0  0
    4.0006    0.6661   -0.6554 N   0  0  0  0  0  0  0  0  0  0  0  0
    5.1251   -0.1060   -0.2910 C   0  0  0  0  0  0  0  0  0  0  0  0
    5.5511   -0.3533    1.0306 C   0  0  0  0  0  0  0  0  0  0  0  0
    6.6132   -1.2212    1.3739 C   0  0  0  0  0  0  0  0  0  0  0  0
    7.4245   -1.8458    0.4177 C   0  0  0  0  0  0  0  0  0  0  0  0
    7.1236   -1.5610   -0.9354 C   0  0  0  0  0  0  0  0  0  0  0  0
    5.9420   -0.6821   -1.3129 C   0  0  0  0  0  0  0  0  0  0  0  0
    5.8102   -0.5591   -2.6479 N   0  0  0  0  0  0  0  0  0  0  0  0
    7.0662   -1.3960   -3.3379 S   0  0  0  0  0  0  0  0  0  0  0  0
    7.8117   -2.0190   -1.9925 N   0  0  0  0  0  0  0  0  0  0  0  0
    2.4413   -0.6550    1.1353 S   0  0  0  0  0  0  0  0  0  0  0  0
    0.9772   -1.4536    0.5029 C   0  0  0  0  0  0  0  0  0  0  0  0
    1.8533    2.5380   -0.9973 C   0  0  0  0  0  0  0  0  0  0  0  0
    1.1150    3.2889   -2.3140 S   0  0  0  0  0  0  0  0  0  0  0  0
    2.6132    3.5022    0.2903 S   0  0  0  0  0  0  0  0  0  0  0  0
    3.8438    4.4306   -0.6456 C   0  0  0  0  0  0  0  0  0  0  0  0
   -1.5526   -2.0445    0.2179 H   0  0  0  0  0  0  0  0  0  0  0  0
   -0.9356   -1.8597   -1.4152 H   0  0  0  0  0  0  0  0  0  0  0  0
   -3.3075   -1.1601   -1.1761 H   0  0  0  0  0  0  0  0  0  0  0  0
   -2.2961    0.1542   -1.7566 H   0  0  0  0  0  0  0  0  0  0  0  0
   -3.3278   -0.2656    1.0891 H   0  0  0  0  0  0  0  0  0  0  0  0
   -3.8035    1.0090   -0.0296 H   0  0  0  0  0  0  0  0  0  0  0  0
   -2.1909    1.8048    1.7016 H   0  0  0  0  0  0  0  0  0  0  0  0
   -1.5689    2.0176    0.0731 H   0  0  0  0  0  0  0  0  0  0  0  0
    0.1610    1.1143    1.5630 H   0  0  0  0  0  0  0  0  0  0  0  0
   -0.8758   -0.2143    2.0437 H   0  0  0  0  0  0  0  0  0  0  0  0
   -0.2061    1.0598   -1.5183 H   0  0  0  0  0  0  0  0  0  0  0  0
    0.9082   -0.2408   -1.9021 H   0  0  0  0  0  0  0  0  0  0  0  0
    5.0065    0.1133    1.8506 H   0  0  0  0  0  0  0  0  0  0  0  0
    6.8020   -1.4096    2.4307 H   0  0  0  0  0  0  0  0  0  0  0  0
    8.2445   -2.4969    0.6950 H   0  0  0  0  0  0  0  0  0  0  0  0
    1.2881   -2.1125   -0.3161 H   0  0  0  0  0  0  0  0  0  0  0  0
    0.5815   -2.0958    1.2971 H   0  0  0  0  0  0  0  0  0  0  0  0
    4.4440    5.0151    0.0590 H   0  0  0  0  0  0  0  0  0  0  0  0
    3.3753    5.1285   -1.3421 H   0  0  0  0  0  0  0  0  0  0  0  0
    4.5059    3.7534   -1.1870 H   0  0  0  0  0  0  0  0  0  0  0  0
  1  6  1  0  0  0  0
  1 21  1  0  0  0  0
  1  2  1  0  0  0  0
  1  7  1  0  0  0  0
  2  3  1  0  0  0  0
  2 26  1  0  0  0  0
  2 27  1  0  0  0  0
  3  4  1  0  0  0  0
  3 28  1  0  0  0  0
  3 29  1  0  0  0  0
  4  5  1  0  0  0  0
  4 30  1  0  0  0  0
  4 31  1  0  0  0  0
  5  6  1  0  0  0  0
  5 32  1  0  0  0  0
  5 33  1  0  0  0  0
  6 34  1  0  0  0  0
  6 35  1  0  0  0  0
  7  8  1  0  0  0  0
  7 36  1  0  0  0  0
  7 37  1  0  0  0  0
  8  9  1  0  0  0  0
  8 22  1  0  0  0  0
  9 10  2  0  0  0  0
  9 20  1  0  0  0  0
 10 11  1  0  0  0  0
 11 16  1  0  0  0  0
 11 12  2  0  0  0  0
 12 13  1  0  0  0  0
 12 38  1  0  0  0  0
 13 14  2  0  0  0  0
 13 39  1  0  0  0  0
 14 15  1  0  0  0  0
 14 40  1  0  0  0  0
 15 19  2  0  0  0  0
 15 16  1  0  0  0  0
 16 17  2  0  0  0  0
 17 18  1  0  0  0  0
 18 19  1  0  0  0  0
 20 21  1  0  0  0  0
 21 41  1  0  0  0  0
 21 42  1  0  0  0  0
 22 23  2  0  0  0  0
 22 24  1  0  0  0  0
 24 25  1  0  0  0  0
 25 43  1  0  0  0  0
 25 44  1  0  0  0  0
 25 45  1  0  0  0  0
M  END
$$$$
CHEMBL308777
 OpenBabel12022418093D

 51 54  0  0  0  0  0  0  0  0999 V2000
    1.0609   -0.0621    0.4868 C   0  0  0  0  0  0  0  0  0  0  0  0
    2.4356   -0.1053    0.1041 O   0  0  0  0  0  0  0  0  0  0  0  0
    2.8258    0.9058   -0.7326 C   0  0  0  0  0  0  0  0  0  0  0  0
    2.2491    2.1654   -0.7491 C   0  0  0  0  0  0  0  0  0  0  0  0
    2.6675    3.1299   -1.6631 C   0  0  0  0  0  0  0  0  0  0  0  0
    3.7564    2.8555   -2.5168 C   0  0  0  0  0  0  0  0  0  0  0  0
    4.3600    1.5867   -2.5199 C   0  0  0  0  0  0  0  0  0  0  0  0
    3.8923    0.6214   -1.5955 C   0  0  0  0  0  0  0  0  0  0  0  0
    5.4106    1.5889   -3.5010 C   0  0  0  0  0  0  0  0  0  0  0  0
    6.4215    0.4802   -3.7196 C   0  0  0  0  0  0  0  0  0  0  0  0
    6.1384   -0.5553   -4.7107 N   0  0  0  0  0  0  0  0  0  0  0  0
    6.4485   -0.2696   -6.1120 C   0  0  0  0  0  0  0  0  0  0  0  0
    5.2635    0.2908   -6.9112 C   0  0  0  0  0  0  0  0  0  0  0  0
    4.1048   -0.5466   -6.7917 O   0  0  0  0  0  0  0  0  0  0  0  0
    3.7389   -0.7193   -5.4142 C   0  0  0  0  0  0  0  0  0  0  0  0
    4.8954   -1.3142   -4.5983 C   0  0  0  0  0  0  0  0  0  0  0  0
    5.4362    2.8751   -4.0335 C   0  0  0  0  0  0  0  0  0  0  0  0
    6.4193    3.4818   -4.9911 C   0  0  0  0  0  0  0  0  0  0  0  0
    4.4489    3.6625   -3.4240 N   0  0  0  0  0  0  0  0  0  0  0  0
    4.2254    5.0544   -3.6711 C   0  0  0  0  0  0  0  0  0  0  0  0
    4.5928    5.5036   -4.7563 O   0  0  0  0  0  0  0  0  0  0  0  0
    3.5646    6.0342   -2.7720 C   0  0  0  0  0  0  0  0  0  0  0  0
    2.6230    6.8949   -3.3594 C   0  0  0  0  0  0  0  0  0  0  0  0
    1.9204    7.8172   -2.5938 C   0  0  0  0  0  0  0  0  0  0  0  0
    2.1344    7.8673   -1.2148 C   0  0  0  0  0  0  0  0  0  0  0  0
    3.0985    7.0481   -0.6235 C   0  0  0  0  0  0  0  0  0  0  0  0
    3.8616    6.1632   -1.4023 C   0  0  0  0  0  0  0  0  0  0  0  0
    5.1951    5.3075   -0.6951 Cl  0  0  0  0  0  0  0  0  0  0  0  0
    3.2766    7.1588    1.0956 Cl  0  0  0  0  0  0  0  0  0  0  0  0
    0.8126   -1.0020    0.9842 H   0  0  0  0  0  0  0  0  0  0  0  0
    0.4109    0.0360   -0.3917 H   0  0  0  0  0  0  0  0  0  0  0  0
    0.8728    0.7478    1.2004 H   0  0  0  0  0  0  0  0  0  0  0  0
    1.4697    2.4414   -0.0441 H   0  0  0  0  0  0  0  0  0  0  0  0
    2.1601    4.0835   -1.6592 H   0  0  0  0  0  0  0  0  0  0  0  0
    4.3533   -0.3617   -1.5531 H   0  0  0  0  0  0  0  0  0  0  0  0
    6.5768   -0.0222   -2.7567 H   0  0  0  0  0  0  0  0  0  0  0  0
    7.3983    0.9264   -3.9397 H   0  0  0  0  0  0  0  0  0  0  0  0
    6.7294   -1.2278   -6.5709 H   0  0  0  0  0  0  0  0  0  0  0  0
    7.3324    0.3716   -6.2149 H   0  0  0  0  0  0  0  0  0  0  0  0
    5.5295    0.3172   -7.9748 H   0  0  0  0  0  0  0  0  0  0  0  0
    5.0135    1.3076   -6.6053 H   0  0  0  0  0  0  0  0  0  0  0  0
    2.8877   -1.4083   -5.3918 H   0  0  0  0  0  0  0  0  0  0  0  0
    3.3974    0.2377   -5.0097 H   0  0  0  0  0  0  0  0  0  0  0  0
    4.6075   -1.4801   -3.5563 H   0  0  0  0  0  0  0  0  0  0  0  0
    5.1001   -2.3158   -5.0030 H   0  0  0  0  0  0  0  0  0  0  0  0
    7.2164    2.7824   -5.2529 H   0  0  0  0  0  0  0  0  0  0  0  0
    6.8966    4.3595   -4.5417 H   0  0  0  0  0  0  0  0  0  0  0  0
    5.9244    3.7765   -5.9222 H   0  0  0  0  0  0  0  0  0  0  0  0
    2.4446    6.8575   -4.4378 H   0  0  0  0  0  0  0  0  0  0  0  0
    1.2034    8.4893   -3.0568 H   0  0  0  0  0  0  0  0  0  0  0  0
    1.5554    8.5629   -0.6098 H   0  0  0  0  0  0  0  0  0  0  0  0
  1  2  1  0  0  0  0
  1 30  1  0  0  0  0
  1 31  1  0  0  0  0
  1 32  1  0  0  0  0
  2  3  1  0  0  0  0
  3  8  2  0  0  0  0
  3  4  1  0  0  0  0
  4  5  2  0  0  0  0
  4 33  1  0  0  0  0
  5  6  1  0  0  0  0
  5 34  1  0  0  0  0
  6 19  1  0  0  0  0
  6  7  2  0  0  0  0
  7  8  1  0  0  0  0
  7  9  1  0  0  0  0
  8 35  1  0  0  0  0
  9 10  1  0  0  0  0
  9 17  2  0  0  0  0
 10 11  1  0  0  0  0
 10 36  1  0  0  0  0
 10 37  1  0  0  0  0
 11 16  1  0  0  0  0
 11 12  1  0  0  0  0
 12 13  1  0  0  0  0
 12 38  1  0  0  0  0
 12 39  1  0  0  0  0
 13 14  1  0  0  0  0
 13 40  1  0  0  0  0
 13 41  1  0  0  0  0
 14 15  1  0  0  0  0
 15 16  1  0  0  0  0
 15 42  1  0  0  0  0
 15 43  1  0  0  0  0
 16 44  1  0  0  0  0
 16 45  1  0  0  0  0
 17 18  1  0  0  0  0
 17 19  1  0  0  0  0
 18 46  1  0  0  0  0
 18 47  1  0  0  0  0
 18 48  1  0  0  0  0
 19 20  1  0  0  0  0
 20 21  2  0  0  0  0
 20 22  1  0  0  0  0
 22 27  2  0  0  0  0
 22 23  1  0  0  0  0
 23 24  2  0  0  0  0
 23 49  1  0  0  0  0
 24 25  1  0  0  0  0
 24 50  1  0  0  0  0
 25 26  2  0  0  0  0
 25 51  1  0  0  0  0
 26 27  1  0  0  0  0
 26 29  1  0  0  0  0
 27 28  1  0  0  0  0
M  END
$$$$
CHEMBL4852456
 OpenBabel12022418093D

 58 61  0  0  0  0  0  0  0  0999 V2000
    5.3916   -0.0055   -2.7454 C   0  0  0  0  0  0  0  0  0  0  0  0
    4.6612   -0.0380   -1.4103 C   0  0  0  0  0  0  0  0  0  0  0  0
    5.1828    1.0639   -0.4877 C   0  0  0  0  0  0  0  0  0  0  0  0
    4.4784    1.0616    0.8775 C   0  0  0  0  0  0  0  0  0  0  0  0
    4.9936    2.1591    1.8750 C   0  0  0  0  0  0  0  0  0  0  0  0
    4.6679    3.5663    1.2761 C   0  0  0  0  0  0  0  0  0  0  0  0
    4.8334    4.7406    2.2490 C   0  0  0  0  0  0  0  0  0  0  0  0
    4.0879    4.5243    3.5558 C   0  0  0  0  0  0  0  0  0  0  0  0
    4.4306    3.1795    4.1783 C   0  0  0  0  0  0  0  0  0  0  0  0
    4.1679    2.0334    3.1964 C   0  0  0  0  0  0  0  0  0  0  0  0
    6.4904    1.9029    2.1689 C   0  0  0  0  0  0  0  0  0  0  0  0
    6.9022    0.7067    2.7978 C   0  0  0  0  0  0  0  0  0  0  0  0
    8.2495    0.4718    3.1127 C   0  0  0  0  0  0  0  0  0  0  0  0
    9.2234    1.4256    2.8252 C   0  0  0  0  0  0  0  0  0  0  0  0
   10.6294    1.2780    3.1703 C   0  0  0  0  0  0  0  0  0  0  0  0
   11.5147    2.2475    2.8900 C   0  0  0  0  0  0  0  0  0  0  0  0
   11.0867    3.5013    2.2297 C   0  0  0  0  0  0  0  0  0  0  0  0
   11.8700    4.4220    2.0193 O   0  0  0  0  0  0  0  0  0  0  0  0
    9.7500    3.5981    1.8643 O   0  0  0  0  0  0  0  0  0  0  0  0
    8.8250    2.5842    2.1771 C   0  0  0  0  0  0  0  0  0  0  0  0
    7.4947    2.8188    1.8248 C   0  0  0  0  0  0  0  0  0  0  0  0
   12.9597    2.1620    3.2899 C   0  0  0  0  0  0  0  0  0  0  0  0
   13.8604    1.5888    2.2233 C   0  0  0  0  0  0  0  0  0  0  0  0
   14.5670    2.4234    1.3599 C   0  0  0  0  0  0  0  0  0  0  0  0
   15.4742    1.8549    0.4692 C   0  0  0  0  0  0  0  0  0  0  0  0
   15.6347    0.4750    0.4461 C   0  0  0  0  0  0  0  0  0  0  0  0
   14.8620   -0.2857    1.3056 C   0  0  0  0  0  0  0  0  0  0  0  0
   13.9848    0.2373    2.1898 N   0  0  0  0  0  0  0  0  0  0  0  0
    8.6101   -0.6975    3.7225 O   0  0  0  0  0  0  0  0  0  0  0  0
    5.0086   -0.7832   -3.4133 H   0  0  0  0  0  0  0  0  0  0  0  0
    6.4645   -0.1741   -2.6074 H   0  0  0  0  0  0  0  0  0  0  0  0
    5.2605    0.9630   -3.2393 H   0  0  0  0  0  0  0  0  0  0  0  0
    4.8032   -1.0195   -0.9438 H   0  0  0  0  0  0  0  0  0  0  0  0
    3.5855    0.0914   -1.5815 H   0  0  0  0  0  0  0  0  0  0  0  0
    5.0385    2.0300   -0.9812 H   0  0  0  0  0  0  0  0  0  0  0  0
    6.2615    0.9254   -0.3549 H   0  0  0  0  0  0  0  0  0  0  0  0
    4.5802    0.0647    1.3260 H   0  0  0  0  0  0  0  0  0  0  0  0
    3.4014    1.2017    0.7125 H   0  0  0  0  0  0  0  0  0  0  0  0
    3.6204    3.5691    0.9417 H   0  0  0  0  0  0  0  0  0  0  0  0
    5.2632    3.7673    0.3788 H   0  0  0  0  0  0  0  0  0  0  0  0
    4.4702    5.6578    1.7691 H   0  0  0  0  0  0  0  0  0  0  0  0
    5.8896    4.9185    2.4728 H   0  0  0  0  0  0  0  0  0  0  0  0
    3.0089    4.5776    3.3727 H   0  0  0  0  0  0  0  0  0  0  0  0
    4.3331    5.3304    4.2561 H   0  0  0  0  0  0  0  0  0  0  0  0
    3.8239    3.0326    5.0787 H   0  0  0  0  0  0  0  0  0  0  0  0
    5.4785    3.1717    4.5005 H   0  0  0  0  0  0  0  0  0  0  0  0
    4.3564    1.0813    3.7050 H   0  0  0  0  0  0  0  0  0  0  0  0
    3.0962    2.0313    2.9548 H   0  0  0  0  0  0  0  0  0  0  0  0
    6.1643   -0.0503    3.0499 H   0  0  0  0  0  0  0  0  0  0  0  0
   10.9372    0.3639    3.6665 H   0  0  0  0  0  0  0  0  0  0  0  0
    7.2796    3.7378    1.2912 H   0  0  0  0  0  0  0  0  0  0  0  0
   13.0546    1.5304    4.1837 H   0  0  0  0  0  0  0  0  0  0  0  0
   13.3366    3.1415    3.6109 H   0  0  0  0  0  0  0  0  0  0  0  0
   14.4357    3.5014    1.3937 H   0  0  0  0  0  0  0  0  0  0  0  0
   16.0605    2.4867   -0.1922 H   0  0  0  0  0  0  0  0  0  0  0  0
   16.3453    0.0036   -0.2230 H   0  0  0  0  0  0  0  0  0  0  0  0
   14.9376   -1.3692    1.3161 H   0  0  0  0  0  0  0  0  0  0  0  0
    7.8470   -1.2977    3.7377 H   0  0  0  0  0  0  0  0  0  0  0  0
  1  2  1  0  0  0  0
  1 30  1  0  0  0  0
  1 31  1  0  0  0  0
  1 32  1  0  0  0  0
  2  3  1  0  0  0  0
  2 33  1  0  0  0  0
  2 34  1  0  0  0  0
  3  4  1  0  0  0  0
  3 35  1  0  0  0  0
  3 36  1  0  0  0  0
  4  5  1  0  0  0  0
  4 37  1  0  0  0  0
  4 38  1  0  0  0  0
  5 10  1  0  0  0  0
  5  6  1  0  0  0  0
  5 11  1  0  0  0  0
  6  7  1  0  0  0  0
  6 39  1  0  0  0  0
  6 40  1  0  0  0  0
  7  8  1  0  0  0  0
  7 41  1  0  0  0  0
  7 42  1  0  0  0  0
  8  9  1  0  0  0  0
  8 43  1  0  0  0  0
  8 44  1  0  0  0  0
  9 10  1  0  0  0  0
  9 45  1  0  0  0  0
  9 46  1  0  0  0  0
 10 47  1  0  0  0  0
 10 48  1  0  0  0  0
 11 21  2  0  0  0  0
 11 12  1  0  0  0  0
 12 13  2  0  0  0  0
 12 49  1  0  0  0  0
 13 14  1  0  0  0  0
 13 29  1  0  0  0  0
 14 20  2  0  0  0  0
 14 15  1  0  0  0  0
 15 16  2  0  0  0  0
 15 50  1  0  0  0  0
 16 17  1  0  0  0  0
 16 22  1  0  0  0  0
 17 18  2  0  0  0  0
 17 19  1  0  0  0  0
 19 20  1  0  0  0  0
 20 21  1  0  0  0  0
 21 51  1  0  0  0  0
 22 23  1  0  0  0  0
 22 52  1  0  0  0  0
 22 53  1  0  0  0  0
 23 28  2  0  0  0  0
 23 24  1  0  0  0  0
 24 25  2  0  0  0  0
 24 54  1  0  0  0  0
 25 26  1  0  0  0  0
 25 55  1  0  0  0  0
 26 27  2  0  0  0  0
 26 56  1  0  0  0  0
 27 28  1  0  0  0  0
 27 57  1  0  0  0  0
 29 58  1  0  0  0  0
M  END
$$$$
CHEMBL3647321
 OpenBabel12022418093D

 57 59  0  0  0  0  0  0  0  0999 V2000
    3.8457    4.2618    0.6755 C   0  0  0  0  0  0  0  0  0  0  0  0
    4.4583    3.9588    2.0358 C   0  0  0  0  0  0  0  0  0  0  0  0
    5.5532    4.9702    2.3892 C   0  0  0  0  0  0  0  0  0  0  0  0
    6.2489    4.6962    3.7355 C   0  0  0  0  0  0  0  0  0  0  0  0
    6.7970    3.3471    3.8379 N   0  0  0  0  0  0  0  0  0  0  0  0
    7.6020    2.7683    2.8518 C   0  0  0  0  0  0  0  0  0  0  0  0
    8.1133    3.3936    1.8491 N   0  0  0  0  0  0  0  0  0  0  0  0
    8.8785    2.7836    0.8946 C   0  0  0  0  0  0  0  0  0  0  0  0
    8.6426    2.9229   -0.3016 O   0  0  0  0  0  0  0  0  0  0  0  0
   10.0275    1.9083    1.2616 C   0  0  0  0  0  0  0  0  0  0  0  0
   10.1218    0.7113    0.5171 C   0  0  0  0  0  0  0  0  0  0  0  0
   11.0098   -0.3041    0.8896 C   0  0  0  0  0  0  0  0  0  0  0  0
   11.8493   -0.0830    1.9861 C   0  0  0  0  0  0  0  0  0  0  0  0
   11.7828    1.1105    2.7100 C   0  0  0  0  0  0  0  0  0  0  0  0
   10.8674    2.1223    2.3719 C   0  0  0  0  0  0  0  0  0  0  0  0
   10.7367    3.2940    3.1027 O   0  0  0  0  0  0  0  0  0  0  0  0
   11.6198    3.3102    4.2730 N   0  0  0  0  0  0  0  0  0  0  0  0
   11.3407    4.5127    5.0860 C   0  0  0  0  0  0  0  0  0  0  0  0
    9.9641    4.4586    5.7510 C   0  0  0  0  0  0  0  0  0  0  0  0
   12.4052    4.5378    6.1994 C   0  0  0  0  0  0  0  0  0  0  0  0
   11.4678    5.7812    4.2326 C   0  0  0  0  0  0  0  0  0  0  0  0
   11.0372   -1.6331    0.1763 C   0  0  0  0  0  0  0  0  0  0  0  0
   10.0845   -1.7568   -0.7870 F   0  0  0  0  0  0  0  0  0  0  0  0
   12.2290   -1.8691   -0.4365 F   0  0  0  0  0  0  0  0  0  0  0  0
   10.8419   -2.6783    1.0288 F   0  0  0  0  0  0  0  0  0  0  0  0
    7.8863    1.0575    3.2974 S   0  0  0  0  0  0  0  0  0  0  0  0
    7.6520    1.4919    4.9978 C   0  0  0  0  0  0  0  0  0  0  0  0
    8.1175    0.8114    6.1048 C   0  0  0  0  0  0  0  0  0  0  0  0
    7.8005    1.3630    7.3285 C   0  0  0  0  0  0  0  0  0  0  0  0
    7.0738    2.4997    7.4805 N   0  0  0  0  0  0  0  0  0  0  0  0
    6.6817    3.1561    6.3548 C   0  0  0  0  0  0  0  0  0  0  0  0
    6.9767    2.7176    5.0814 C   0  0  0  0  0  0  0  0  0  0  0  0
    3.0807    3.5190    0.4281 H   0  0  0  0  0  0  0  0  0  0  0  0
    4.6072    4.2352   -0.1112 H   0  0  0  0  0  0  0  0  0  0  0  0
    3.3768    5.2506    0.6661 H   0  0  0  0  0  0  0  0  0  0  0  0
    4.8637    2.9417    2.0095 H   0  0  0  0  0  0  0  0  0  0  0  0
    3.6743    3.9768    2.8008 H   0  0  0  0  0  0  0  0  0  0  0  0
    5.1113    5.9739    2.4288 H   0  0  0  0  0  0  0  0  0  0  0  0
    6.2876    5.0089    1.5775 H   0  0  0  0  0  0  0  0  0  0  0  0
    5.5036    4.8681    4.5206 H   0  0  0  0  0  0  0  0  0  0  0  0
    7.0482    5.4333    3.8816 H   0  0  0  0  0  0  0  0  0  0  0  0
    9.4330    0.5459   -0.3155 H   0  0  0  0  0  0  0  0  0  0  0  0
   12.5468   -0.8579    2.3050 H   0  0  0  0  0  0  0  0  0  0  0  0
   12.4357    1.2050    3.5737 H   0  0  0  0  0  0  0  0  0  0  0  0
   12.5228    3.4661    3.8206 H   0  0  0  0  0  0  0  0  0  0  0  0
    9.8632    3.5750    6.3906 H   0  0  0  0  0  0  0  0  0  0  0  0
    9.1673    4.4479    5.0065 H   0  0  0  0  0  0  0  0  0  0  0  0
    9.7997    5.3368    6.3879 H   0  0  0  0  0  0  0  0  0  0  0  0
   12.3232    3.6609    6.8536 H   0  0  0  0  0  0  0  0  0  0  0  0
   12.2973    5.4284    6.8295 H   0  0  0  0  0  0  0  0  0  0  0  0
   13.4202    4.5488    5.7854 H   0  0  0  0  0  0  0  0  0  0  0  0
   10.7114    5.8104    3.4402 H   0  0  0  0  0  0  0  0  0  0  0  0
   12.4540    5.8399    3.7585 H   0  0  0  0  0  0  0  0  0  0  0  0
   11.3371    6.6816    4.8430 H   0  0  0  0  0  0  0  0  0  0  0  0
    8.7224   -0.0821    6.0193 H   0  0  0  0  0  0  0  0  0  0  0  0
    8.1361    0.8988    8.2523 H   0  0  0  0  0  0  0  0  0  0  0  0
    6.1494    4.0804    6.5455 H   0  0  0  0  0  0  0  0  0  0  0  0
  1  2  1  0  0  0  0
  1 33  1  0  0  0  0
  1 34  1  0  0  0  0
  1 35  1  0  0  0  0
  2  3  1  0  0  0  0
  2 36  1  0  0  0  0
  2 37  1  0  0  0  0
  3  4  1  0  0  0  0
  3 38  1  0  0  0  0
  3 39  1  0  0  0  0
  4  5  1  0  0  0  0
  4 40  1  0  0  0  0
  4 41  1  0  0  0  0
  5 32  1  0  0  0  0
  5  6  1  0  0  0  0
  6  7  2  0  0  0  0
  6 26  1  0  0  0  0
  7  8  1  0  0  0  0
  8  9  2  0  0  0  0
  8 10  1  0  0  0  0
 10 15  2  0  0  0  0
 10 11  1  0  0  0  0
 11 12  2  0  0  0  0
 11 42  1  0  0  0  0
 12 13  1  0  0  0  0
 12 22  1  0  0  0  0
 13 14  2  0  0  0  0
 13 43  1  0  0  0  0
 14 15  1  0  0  0  0
 14 44  1  0  0  0  0
 15 16  1  0  0  0  0
 16 17  1  0  0  0  0
 17 18  1  0  0  0  0
 17 45  1  0  0  0  0
 18 19  1  0  0  0  0
 18 20  1  0  0  0  0
 18 21  1  0  0  0  0
 19 46  1  0  0  0  0
 19 47  1  0  0  0  0
 19 48  1  0  0  0  0
 20 49  1  0  0  0  0
 20 50  1  0  0  0  0
 20 51  1  0  0  0  0
 21 52  1  0  0  0  0
 21 53  1  0  0  0  0
 21 54  1  0  0  0  0
 22 23  1  0  0  0  0
 22 24  1  0  0  0  0
 22 25  1  0  0  0  0
 26 27  1  0  0  0  0
 27 32  2  0  0  0  0
 27 28  1  0  0  0  0
 28 29  2  0  0  0  0
 28 55  1  0  0  0  0
 29 30  1  0  0  0  0
 29 56  1  0  0  0  0
 30 31  2  0  0  0  0
 31 32  1  0  0  0  0
 31 57  1  0  0  0  0
M  END
$$$$
CHEMBL1076685
 OpenBabel12022418093D

 41 43  0  0  1  0  0  0  0  0999 V2000
    3.1439   -0.3946   -1.2475 C   0  0  0  0  0  0  0  0  0  0  0  0
    2.4144    0.2860   -0.2192 O   0  0  0  0  0  0  0  0  0  0  0  0
    3.1848    0.6795    0.8575 C   0  0  0  0  0  0  0  0  0  0  0  0
    4.4517    1.2479    0.6152 C   0  0  0  0  0  0  0  0  0  0  0  0
    5.2796    1.6561    1.6563 C   0  0  0  0  0  0  0  0  0  0  0  0
    6.6610    2.2110    1.3653 C   0  0  1  0  0  0  0  0  0  0  0  0
    6.6863    3.6895    1.0819 C   0  0  0  0  0  0  0  0  0  0  0  0
    7.1002    4.3198   -0.0776 C   0  0  0  0  0  0  0  0  0  0  0  0
    7.0082    5.7384    0.0088 C   0  0  0  0  0  0  0  0  0  0  0  0
    6.5285    6.1512    1.2308 C   0  0  0  0  0  0  0  0  0  0  0  0
    6.2039    4.8358    2.2698 S   0  0  0  0  0  0  0  0  0  0  0  0
    7.5555    1.9440    2.4405 O   0  0  0  0  0  0  0  0  0  0  0  0
    4.7808    1.5540    2.9552 C   0  0  0  0  0  0  0  0  0  0  0  0
    3.4918    1.0554    3.2220 C   0  0  0  0  0  0  0  0  0  0  0  0
    2.6543    0.5649    2.1761 C   0  0  0  0  0  0  0  0  0  0  0  0
    1.3148   -0.0739    2.4595 C   0  0  0  0  0  0  0  0  0  0  0  0
    0.4928    0.3262    3.5335 C   0  0  0  0  0  0  0  0  0  0  0  0
   -0.6970   -0.3424    3.8506 C   0  0  0  0  0  0  0  0  0  0  0  0
   -1.1567   -1.3882    3.0645 C   0  0  0  0  0  0  0  0  0  0  0  0
   -0.3996   -1.7705    1.9681 C   0  0  0  0  0  0  0  0  0  0  0  0
    0.8229   -1.1473    1.6867 C   0  0  0  0  0  0  0  0  0  0  0  0
   -0.9655   -3.0364    0.9450 Cl  0  0  0  0  0  0  0  0  0  0  0  0
   -1.5892    0.1198    5.2502 Cl  0  0  0  0  0  0  0  0  0  0  0  0
    3.0531    0.9671    4.5262 O   0  0  0  0  0  0  0  0  0  0  0  0
    3.5650    1.9463    5.4328 C   0  0  0  0  0  0  0  0  0  0  0  0
    2.4222   -0.9404   -1.8661 H   0  0  0  0  0  0  0  0  0  0  0  0
    3.8489   -1.1223   -0.8343 H   0  0  0  0  0  0  0  0  0  0  0  0
    3.6550    0.3200   -1.8994 H   0  0  0  0  0  0  0  0  0  0  0  0
    4.8088    1.3792   -0.4051 H   0  0  0  0  0  0  0  0  0  0  0  0
    7.0659    1.6654    0.5044 H   0  0  0  0  0  0  0  0  0  0  0  0
    7.4595    3.7864   -0.9503 H   0  0  0  0  0  0  0  0  0  0  0  0
    7.2814    6.4212   -0.7860 H   0  0  0  0  0  0  0  0  0  0  0  0
    6.3569    7.1653    1.5657 H   0  0  0  0  0  0  0  0  0  0  0  0
    7.4828    2.6943    3.0539 H   0  0  0  0  0  0  0  0  0  0  0  0
    5.4263    1.8554    3.7723 H   0  0  0  0  0  0  0  0  0  0  0  0
    0.7800    1.1638    4.1634 H   0  0  0  0  0  0  0  0  0  0  0  0
   -2.0846   -1.8980    3.3037 H   0  0  0  0  0  0  0  0  0  0  0  0
    1.3968   -1.5296    0.8476 H   0  0  0  0  0  0  0  0  0  0  0  0
    2.9129    1.9713    6.3106 H   0  0  0  0  0  0  0  0  0  0  0  0
    3.5694    2.9521    4.9948 H   0  0  0  0  0  0  0  0  0  0  0  0
    4.5664    1.6647    5.7741 H   0  0  0  0  0  0  0  0  0  0  0  0
  1  2  1  0  0  0  0
  1 26  1  0  0  0  0
  1 27  1  0  0  0  0
  1 28  1  0  0  0  0
  2  3  1  0  0  0  0
  3 15  2  0  0  0  0
  3  4  1  0  0  0  0
  4  5  2  0  0  0  0
  4 29  1  0  0  0  0
  5  6  1  0  0  0  0
  5 13  1  0  0  0  0
  6  7  1  0  0  0  0
  6 12  1  0  0  0  0
  6 30  1  6  0  0  0
  7 11  1  0  0  0  0
  7  8  2  0  0  0  0
  8  9  1  0  0  0  0
  8 31  1  0  0  0  0
  9 10  2  0  0  0  0
  9 32  1  0  0  0  0
 10 11  1  0  0  0  0
 10 33  1  0  0  0  0
 12 34  1  0  0  0  0
 13 14  2  0  0  0  0
 13 35  1  0  0  0  0
 14 15  1  0  0  0  0
 14 24  1  0  0  0  0
 15 16  1  0  0  0  0
 16 21  2  0  0  0  0
 16 17  1  0  0  0  0
 17 18  2  0  0  0  0
 17 36  1  0  0  0  0
 18 19  1  0  0  0  0
 18 23  1  0  0  0  0
 19 20  2  0  0  0  0
 19 37  1  0  0  0  0
 20 21  1  0  0  0  0
 20 22  1  0  0  0  0
 21 38  1  0  0  0  0
 24 25  1  0  0  0  0
 25 39  1  0  0  0  0
 25 40  1  0  0  0  0
 25 41  1  0  0  0  0
M  END
$$$$
CHEMBL3650084
 OpenBabel12022418093D

 61 63  0  0  0  0  0  0  0  0999 V2000
    0.6242    0.5287   -3.7173 C   0  0  0  0  0  0  0  0  0  0  0  0
    1.5333    1.3484   -2.8075 C   0  0  0  0  0  0  0  0  0  0  0  0
    2.2424    0.4630   -1.7801 C   0  0  0  0  0  0  0  0  0  0  0  0
    3.1837    1.2534   -0.8520 C   0  0  0  0  0  0  0  0  0  0  0  0
    2.4348    2.1518    0.0207 N   0  0  0  0  0  0  0  0  0  0  0  0
    2.4120    3.5386   -0.0838 C   0  0  0  0  0  0  0  0  0  0  0  0
    3.3222    4.3225   -0.5690 N   0  0  0  0  0  0  0  0  0  0  0  0
    3.2629    5.7173   -0.5314 C   0  0  0  0  0  0  0  0  0  0  0  0
    3.7597    6.3878   -1.4242 O   0  0  0  0  0  0  0  0  0  0  0  0
    2.8343    6.4083    0.7423 C   0  0  0  0  0  0  0  0  0  0  0  0
    3.3012    5.8113    1.9358 C   0  0  0  0  0  0  0  0  0  0  0  0
    2.7373    6.1222    3.1862 C   0  0  0  0  0  0  0  0  0  0  0  0
    2.9651    5.2274    4.3802 C   0  0  0  0  0  0  0  0  0  0  0  0
    3.6631    4.0997    4.0800 F   0  0  0  0  0  0  0  0  0  0  0  0
    3.6333    5.8406    5.3897 F   0  0  0  0  0  0  0  0  0  0  0  0
    1.7872    4.7952    4.9128 F   0  0  0  0  0  0  0  0  0  0  0  0
    1.8462    7.1913    3.2776 C   0  0  0  0  0  0  0  0  0  0  0  0
    1.4542    7.8579    2.1214 C   0  0  0  0  0  0  0  0  0  0  0  0
    1.8873    7.4440    0.8418 C   0  0  0  0  0  0  0  0  0  0  0  0
    1.1584    8.1091   -0.1113 O   0  0  0  0  0  0  0  0  0  0  0  0
    1.3102    7.6447   -1.4647 N   0  0  0  0  0  0  0  0  0  0  0  0
    1.0244    8.8215   -2.3156 C   0  0  0  0  0  0  0  0  0  0  0  0
    2.0397    9.9479   -2.0545 C   0  0  0  0  0  0  0  0  0  0  0  0
    1.1317    8.3735   -3.7808 C   0  0  0  0  0  0  0  0  0  0  0  0
   -0.4081    9.3282   -2.0551 C   0  0  0  0  0  0  0  0  0  0  0  0
    0.9132    4.0627    0.6648 S   0  0  0  0  0  0  0  0  0  0  0  0
    0.7790    2.4863    1.3794 C   0  0  0  0  0  0  0  0  0  0  0  0
   -0.2504    2.2511    2.4254 C   0  0  0  0  0  0  0  0  0  0  0  0
    0.2266    1.8170    3.7967 C   0  0  0  0  0  0  0  0  0  0  0  0
   -1.5156    3.1062    2.4186 C   0  0  0  0  0  0  0  0  0  0  0  0
   -1.5714    1.6927    1.9272 C   0  0  0  0  0  0  0  0  0  0  0  0
    1.5739    1.5565    0.9334 N   0  0  0  0  0  0  0  0  0  0  0  0
    0.1348    1.1805   -4.4479 H   0  0  0  0  0  0  0  0  0  0  0  0
   -0.1561    0.0222   -3.1403 H   0  0  0  0  0  0  0  0  0  0  0  0
    1.1927   -0.2289   -4.2655 H   0  0  0  0  0  0  0  0  0  0  0  0
    0.9256    2.1048   -2.3023 H   0  0  0  0  0  0  0  0  0  0  0  0
    2.2729    1.8734   -3.4188 H   0  0  0  0  0  0  0  0  0  0  0  0
    2.8298   -0.2982   -2.3095 H   0  0  0  0  0  0  0  0  0  0  0  0
    1.4944   -0.0800   -1.1895 H   0  0  0  0  0  0  0  0  0  0  0  0
    3.9288    1.7926   -1.4425 H   0  0  0  0  0  0  0  0  0  0  0  0
    3.7324    0.5331   -0.2289 H   0  0  0  0  0  0  0  0  0  0  0  0
    4.0150    4.9882    1.8707 H   0  0  0  0  0  0  0  0  0  0  0  0
    1.3998    7.4649    4.2320 H   0  0  0  0  0  0  0  0  0  0  0  0
    0.7198    8.6595    2.2032 H   0  0  0  0  0  0  0  0  0  0  0  0
    0.5409    6.9816   -1.5576 H   0  0  0  0  0  0  0  0  0  0  0  0
    3.0643    9.6191   -2.2627 H   0  0  0  0  0  0  0  0  0  0  0  0
    2.0083   10.2967   -1.0158 H   0  0  0  0  0  0  0  0  0  0  0  0
    1.8331   10.8174   -2.6892 H   0  0  0  0  0  0  0  0  0  0  0  0
    2.1442    8.0316   -4.0246 H   0  0  0  0  0  0  0  0  0  0  0  0
    0.8890    9.1983   -4.4615 H   0  0  0  0  0  0  0  0  0  0  0  0
    0.4383    7.5533   -4.0005 H   0  0  0  0  0  0  0  0  0  0  0  0
   -0.5145    9.7470   -1.0475 H   0  0  0  0  0  0  0  0  0  0  0  0
   -1.1382    8.5162   -2.1554 H   0  0  0  0  0  0  0  0  0  0  0  0
   -0.6873   10.1134   -2.7655 H   0  0  0  0  0  0  0  0  0  0  0  0
    0.8054    0.8896    3.7399 H   0  0  0  0  0  0  0  0  0  0  0  0
   -0.6120    1.6425    4.4804 H   0  0  0  0  0  0  0  0  0  0  0  0
    0.8568    2.5907    4.2434 H   0  0  0  0  0  0  0  0  0  0  0  0
   -1.6366    3.8982    1.6946 H   0  0  0  0  0  0  0  0  0  0  0  0
   -1.9786    3.3467    3.3729 H   0  0  0  0  0  0  0  0  0  0  0  0
   -2.0937    0.9614    2.5340 H   0  0  0  0  0  0  0  0  0  0  0  0
   -1.6749    1.5319    0.8596 H   0  0  0  0  0  0  0  0  0  0  0  0
  1  2  1  0  0  0  0
  1 33  1  0  0  0  0
  1 34  1  0  0  0  0
  1 35  1  0  0  0  0
  2  3  1  0  0  0  0
  2 36  1  0  0  0  0
  2 37  1  0  0  0  0
  3  4  1  0  0  0  0
  3 38  1  0  0  0  0
  3 39  1  0  0  0  0
  4  5  1  0  0  0  0
  4 40  1  0  0  0  0
  4 41  1  0  0  0  0
  5 32  1  0  0  0  0
  5  6  1  0  0  0  0
  6  7  2  0  0  0  0
  6 26  1  0  0  0  0
  7  8  1  0  0  0  0
  8  9  2  0  0  0  0
  8 10  1  0  0  0  0
 10 19  2  0  0  0  0
 10 11  1  0  0  0  0
 11 12  2  0  0  0  0
 11 42  1  0  0  0  0
 12 13  1  0  0  0  0
 12 17  1  0  0  0  0
 13 14  1  0  0  0  0
 13 15  1  0  0  0  0
 13 16  1  0  0  0  0
 17 18  2  0  0  0  0
 17 43  1  0  0  0  0
 18 19  1  0  0  0  0
 18 44  1  0  0  0  0
 19 20  1  0  0  0  0
 20 21  1  0  0  0  0
 21 22  1  0  0  0  0
 21 45  1  0  0  0  0
 22 23  1  0  0  0  0
 22 24  1  0  0  0  0
 22 25  1  0  0  0  0
 23 46  1  0  0  0  0
 23 47  1  0  0  0  0
 23 48  1  0  0  0  0
 24 49  1  0  0  0  0
 24 50  1  0  0  0  0
 24 51  1  0  0  0  0
 25 52  1  0  0  0  0
 25 53  1  0  0  0  0
 25 54  1  0  0  0  0
 26 27  1  0  0  0  0
 27 28  1  0  0  0  0
 27 32  2  0  0  0  0
 28 31  1  0  0  0  0
 28 29  1  0  0  0  0
 28 30  1  0  0  0  0
 29 55  1  0  0  0  0
 29 56  1  0  0  0  0
 29 57  1  0  0  0  0
 30 31  1  0  0  0  0
 30 58  1  0  0  0  0
 30 59  1  0  0  0  0
 31 60  1  0  0  0  0
 31 61  1  0  0  0  0
M  END
$$$$
CHEMBL3650095
 OpenBabel12022418093D

 65 66  0  0  0  0  0  0  0  0999 V2000
    0.8422   -0.1215    0.3049 C   0  0  0  0  0  0  0  0  0  0  0  0
    2.2940   -0.0688    0.1907 N   0  0  0  0  0  0  0  0  0  0  0  0
    3.0630    1.0294   -0.2285 C   0  0  0  0  0  0  0  0  0  0  0  0
    2.6142    2.4993   -0.3251 C   0  0  0  0  0  0  0  0  0  0  0  0
    1.9758    2.9632    1.0050 C   0  0  0  0  0  0  0  0  0  0  0  0
    3.8195    3.4517   -0.5666 C   0  0  0  0  0  0  0  0  0  0  0  0
    1.6618    2.7596   -1.4964 C   0  0  0  0  0  0  0  0  0  0  0  0
    4.3373    0.6357   -0.4119 C   0  0  0  0  0  0  0  0  0  0  0  0
    4.4395   -0.7045    0.2386 C   0  0  0  0  0  0  0  0  0  0  0  0
    5.5311   -1.3577    0.5119 N   0  0  0  0  0  0  0  0  0  0  0  0
    6.7873   -0.8737    0.1806 C   0  0  0  0  0  0  0  0  0  0  0  0
    7.6372   -1.5850   -0.3432 O   0  0  0  0  0  0  0  0  0  0  0  0
    7.1591    0.5402    0.5388 C   0  0  0  0  0  0  0  0  0  0  0  0
    6.5612    1.1365    1.6726 C   0  0  0  0  0  0  0  0  0  0  0  0
    6.5637    2.5306    1.8365 C   0  0  0  0  0  0  0  0  0  0  0  0
    5.6998    3.2118    2.8752 C   0  0  0  0  0  0  0  0  0  0  0  0
    4.8178    2.3681    3.4772 F   0  0  0  0  0  0  0  0  0  0  0  0
    6.4220    3.7886    3.8680 F   0  0  0  0  0  0  0  0  0  0  0  0
    4.9389    4.2125    2.3419 F   0  0  0  0  0  0  0  0  0  0  0  0
    7.2975    3.3133    0.9311 C   0  0  0  0  0  0  0  0  0  0  0  0
    7.9673    2.7193   -0.1388 C   0  0  0  0  0  0  0  0  0  0  0  0
    7.8903    1.3333   -0.3730 C   0  0  0  0  0  0  0  0  0  0  0  0
    8.3704    0.7533   -1.5314 O   0  0  0  0  0  0  0  0  0  0  0  0
    9.0910    1.7167   -2.3652 N   0  0  0  0  0  0  0  0  0  0  0  0
    8.4605    1.7637   -3.7009 C   0  0  0  0  0  0  0  0  0  0  0  0
    6.9780    2.1624   -3.6116 C   0  0  0  0  0  0  0  0  0  0  0  0
    9.2023    2.8516   -4.4983 C   0  0  0  0  0  0  0  0  0  0  0  0
    8.6071    0.4178   -4.4238 C   0  0  0  0  0  0  0  0  0  0  0  0
    3.1377   -1.1150    0.6026 N   0  0  0  0  0  0  0  0  0  0  0  0
    2.7564   -2.5312    0.5371 C   0  0  0  0  0  0  0  0  0  0  0  0
    3.2734   -3.3038    1.7457 C   0  0  0  0  0  0  0  0  0  0  0  0
    2.8538   -4.7568    1.6946 C   0  0  0  0  0  0  0  0  0  0  0  0
    2.1508   -5.0605    0.5850 F   0  0  0  0  0  0  0  0  0  0  0  0
    3.9342   -5.5748    1.7280 F   0  0  0  0  0  0  0  0  0  0  0  0
    2.0838   -5.0678    2.7586 F   0  0  0  0  0  0  0  0  0  0  0  0
    0.4425   -1.1295    0.1784 H   0  0  0  0  0  0  0  0  0  0  0  0
    0.3717    0.4573   -0.4925 H   0  0  0  0  0  0  0  0  0  0  0  0
    0.5011    0.2605    1.2694 H   0  0  0  0  0  0  0  0  0  0  0  0
    2.6647    2.8304    1.8484 H   0  0  0  0  0  0  0  0  0  0  0  0
    1.0568    2.4226    1.2416 H   0  0  0  0  0  0  0  0  0  0  0  0
    1.7126    4.0277    0.9681 H   0  0  0  0  0  0  0  0  0  0  0  0
    4.5522    3.3654    0.2359 H   0  0  0  0  0  0  0  0  0  0  0  0
    3.5118    4.5022   -0.5949 H   0  0  0  0  0  0  0  0  0  0  0  0
    4.3324    3.2348   -1.5102 H   0  0  0  0  0  0  0  0  0  0  0  0
    0.6924    2.2783   -1.3726 H   0  0  0  0  0  0  0  0  0  0  0  0
    2.1033    2.4179   -2.4387 H   0  0  0  0  0  0  0  0  0  0  0  0
    1.4643    3.8346   -1.5976 H   0  0  0  0  0  0  0  0  0  0  0  0
    5.1527    1.2280   -0.7633 H   0  0  0  0  0  0  0  0  0  0  0  0
    5.9776    0.5209    2.3561 H   0  0  0  0  0  0  0  0  0  0  0  0
    7.2853    4.4000    1.0044 H   0  0  0  0  0  0  0  0  0  0  0  0
    8.4823    3.3729   -0.8389 H   0  0  0  0  0  0  0  0  0  0  0  0
   10.0010    1.2588   -2.4299 H   0  0  0  0  0  0  0  0  0  0  0  0
    6.8555    3.1408   -3.1317 H   0  0  0  0  0  0  0  0  0  0  0  0
    6.3892    1.4341   -3.0449 H   0  0  0  0  0  0  0  0  0  0  0  0
    6.5327    2.2308   -4.6109 H   0  0  0  0  0  0  0  0  0  0  0  0
    9.0305    3.8475   -4.0715 H   0  0  0  0  0  0  0  0  0  0  0  0
    8.8593    2.8800   -5.5393 H   0  0  0  0  0  0  0  0  0  0  0  0
   10.2849    2.6800   -4.5139 H   0  0  0  0  0  0  0  0  0  0  0  0
    8.0398   -0.3743   -3.9238 H   0  0  0  0  0  0  0  0  0  0  0  0
    9.6563    0.1036   -4.4722 H   0  0  0  0  0  0  0  0  0  0  0  0
    8.2396    0.4869   -5.4545 H   0  0  0  0  0  0  0  0  0  0  0  0
    3.1277   -2.9730   -0.3959 H   0  0  0  0  0  0  0  0  0  0  0  0
    1.6680   -2.6463    0.5221 H   0  0  0  0  0  0  0  0  0  0  0  0
    2.8938   -2.8457    2.6678 H   0  0  0  0  0  0  0  0  0  0  0  0
    4.3649   -3.2507    1.8036 H   0  0  0  0  0  0  0  0  0  0  0  0
  1  2  1  0  0  0  0
  1 36  1  0  0  0  0
  1 37  1  0  0  0  0
  1 38  1  0  0  0  0
  2 29  1  0  0  0  0
  2  3  1  0  0  0  0
  3  4  1  0  0  0  0
  3  8  2  0  0  0  0
  4  5  1  0  0  0  0
  4  6  1  0  0  0  0
  4  7  1  0  0  0  0
  5 39  1  0  0  0  0
  5 40  1  0  0  0  0
  5 41  1  0  0  0  0
  6 42  1  0  0  0  0
  6 43  1  0  0  0  0
  6 44  1  0  0  0  0
  7 45  1  0  0  0  0
  7 46  1  0  0  0  0
  7 47  1  0  0  0  0
  8  9  1  0  0  0  0
  8 48  1  0  0  0  0
  9 10  2  0  0  0  0
  9 29  1  0  0  0  0
 10 11  1  0  0  0  0
 11 12  2  0  0  0  0
 11 13  1  0  0  0  0
 13 22  2  0  0  0  0
 13 14  1  0  0  0  0
 14 15  2  0  0  0  0
 14 49  1  0  0  0  0
 15 16  1  0  0  0  0
 15 20  1  0  0  0  0
 16 17  1  0  0  0  0
 16 18  1  0  0  0  0
 16 19  1  0  0  0  0
 20 21  2  0  0  0  0
 20 50  1  0  0  0  0
 21 22  1  0  0  0  0
 21 51  1  0  0  0  0
 22 23  1  0  0  0  0
 23 24  1  0  0  0  0
 24 25  1  0  0  0  0
 24 52  1  0  0  0  0
 25 26  1  0  0  0  0
 25 27  1  0  0  0  0
 25 28  1  0  0  0  0
 26 53  1  0  0  0  0
 26 54  1  0  0  0  0
 26 55  1  0  0  0  0
 27 56  1  0  0  0  0
 27 57  1  0  0  0  0
 27 58  1  0  0  0  0
 28 59  1  0  0  0  0
 28 60  1  0  0  0  0
 28 61  1  0  0  0  0
 29 30  1  0  0  0  0
 30 31  1  0  0  0  0
 30 62  1  0  0  0  0
 30 63  1  0  0  0  0
 31 32  1  0  0  0  0
 31 64  1  0  0  0  0
 31 65  1  0  0  0  0
 32 33  1  0  0  0  0
 32 34  1  0  0  0  0
 32 35  1  0  0  0  0
M  END
$$$$
CHEMBL254730
 OpenBabel12022418093D

 56 58  0  0  0  0  0  0  0  0999 V2000
    1.4171    0.3445    0.3202 C   0  0  0  0  0  0  0  0  0  0  0  0
    2.2743   -0.7863   -0.2263 C   0  0  0  0  0  0  0  0  0  0  0  0
    3.3042   -0.3407   -1.2614 C   0  0  0  0  0  0  0  0  0  0  0  0
    2.8942   -1.7822    0.7388 C   0  0  0  0  0  0  0  0  0  0  0  0
    2.7301   -3.1144    0.2723 C   0  0  0  0  0  0  0  0  0  0  0  0
    3.1213   -4.2030    1.0131 C   0  0  0  0  0  0  0  0  0  0  0  0
    3.6715   -4.0011    2.2726 C   0  0  0  0  0  0  0  0  0  0  0  0
    3.8153   -5.2326    3.0608 C   0  0  0  0  0  0  0  0  0  0  0  0
    2.9910   -6.1290    2.9261 O   0  0  0  0  0  0  0  0  0  0  0  0
    4.9078   -5.3331    3.8859 N   0  0  0  0  0  0  0  0  0  0  0  0
    5.1189   -6.5704    4.6029 C   0  0  0  0  0  0  0  0  0  0  0  0
    6.6108   -6.7894    4.8275 C   0  0  0  0  0  0  0  0  0  0  0  0
    6.8593   -8.0576    5.6275 C   0  0  0  0  0  0  0  0  0  0  0  0
    6.0801   -8.0448    6.9441 C   0  0  0  0  0  0  0  0  0  0  0  0
    4.5846   -7.8524    6.7043 C   0  0  0  0  0  0  0  0  0  0  0  0
    4.3130   -6.5856    5.9054 C   0  0  0  0  0  0  0  0  0  0  0  0
    3.9678   -2.7179    2.7415 C   0  0  0  0  0  0  0  0  0  0  0  0
    3.6057   -1.5921    1.9559 C   0  0  0  0  0  0  0  0  0  0  0  0
    4.1555    0.0472    2.5298 S   0  0  0  0  0  0  0  0  0  0  0  0
    5.0556    0.5478    1.5134 O   0  0  0  0  0  0  0  0  0  0  0  0
    2.9757    0.7653    2.9617 O   0  0  0  0  0  0  0  0  0  0  0  0
    5.0622   -0.2366    3.9069 N   0  0  0  0  0  0  0  0  0  0  0  0
    6.5048    0.0087    4.0099 C   0  0  0  0  0  0  0  0  0  0  0  0
    6.8428   -0.7473    5.3023 C   0  0  0  0  0  0  0  0  0  0  0  0
    5.5329   -0.7950    6.1037 C   0  0  0  0  0  0  0  0  0  0  0  0
    4.5154   -0.0337    5.2551 C   0  0  0  0  0  0  0  0  0  0  0  0
    0.9597    0.8965   -0.5088 H   0  0  0  0  0  0  0  0  0  0  0  0
    1.9757    1.0717    0.9021 H   0  0  0  0  0  0  0  0  0  0  0  0
    0.5973   -0.0512    0.9338 H   0  0  0  0  0  0  0  0  0  0  0  0
    1.5301   -1.3543   -0.8029 H   0  0  0  0  0  0  0  0  0  0  0  0
    4.0250    0.3585   -0.8406 H   0  0  0  0  0  0  0  0  0  0  0  0
    2.8038    0.1370   -2.1089 H   0  0  0  0  0  0  0  0  0  0  0  0
    3.8553   -1.2039   -1.6540 H   0  0  0  0  0  0  0  0  0  0  0  0
    2.2589   -3.3156   -0.6909 H   0  0  0  0  0  0  0  0  0  0  0  0
    2.9574   -5.2086    0.6273 H   0  0  0  0  0  0  0  0  0  0  0  0
    5.5794   -4.5818    3.9569 H   0  0  0  0  0  0  0  0  0  0  0  0
    4.7536   -7.3959    3.9741 H   0  0  0  0  0  0  0  0  0  0  0  0
    7.0420   -5.9260    5.3487 H   0  0  0  0  0  0  0  0  0  0  0  0
    7.1218   -6.8568    3.8594 H   0  0  0  0  0  0  0  0  0  0  0  0
    7.9312   -8.1587    5.8289 H   0  0  0  0  0  0  0  0  0  0  0  0
    6.5588   -8.9303    5.0344 H   0  0  0  0  0  0  0  0  0  0  0  0
    6.4522   -7.2232    7.5717 H   0  0  0  0  0  0  0  0  0  0  0  0
    6.2539   -8.9733    7.4840 H   0  0  0  0  0  0  0  0  0  0  0  0
    4.0581   -7.8053    7.6656 H   0  0  0  0  0  0  0  0  0  0  0  0
    4.1844   -8.7200    6.1647 H   0  0  0  0  0  0  0  0  0  0  0  0
    3.2376   -6.5138    5.6914 H   0  0  0  0  0  0  0  0  0  0  0  0
    4.5623   -5.7036    6.5107 H   0  0  0  0  0  0  0  0  0  0  0  0
    4.4466   -2.5897    3.6954 H   0  0  0  0  0  0  0  0  0  0  0  0
    6.7060    1.0803    4.1500 H   0  0  0  0  0  0  0  0  0  0  0  0
    7.0796   -0.3630    3.1617 H   0  0  0  0  0  0  0  0  0  0  0  0
    7.6582   -0.2799    5.8632 H   0  0  0  0  0  0  0  0  0  0  0  0
    7.1546   -1.7708    5.0604 H   0  0  0  0  0  0  0  0  0  0  0  0
    5.6364   -0.3807    7.1106 H   0  0  0  0  0  0  0  0  0  0  0  0
    5.2106   -1.8388    6.2069 H   0  0  0  0  0  0  0  0  0  0  0  0
    3.5048   -0.4182    5.3796 H   0  0  0  0  0  0  0  0  0  0  0  0
    4.5385    1.0357    5.5173 H   0  0  0  0  0  0  0  0  0  0  0  0
  1  2  1  0  0  0  0
  1 27  1  0  0  0  0
  1 28  1  0  0  0  0
  1 29  1  0  0  0  0
  2  3  1  0  0  0  0
  2  4  1  0  0  0  0
  2 30  1  0  0  0  0
  3 31  1  0  0  0  0
  3 32  1  0  0  0  0
  3 33  1  0  0  0  0
  4 18  2  0  0  0  0
  4  5  1  0  0  0  0
  5  6  2  0  0  0  0
  5 34  1  0  0  0  0
  6  7  1  0  0  0  0
  6 35  1  0  0  0  0
  7  8  1  0  0  0  0
  7 17  2  0  0  0  0
  8  9  2  0  0  0  0
  8 10  1  0  0  0  0
 10 11  1  0  0  0  0
 10 36  1  0  0  0  0
 11 16  1  0  0  0  0
 11 12  1  0  0  0  0
 11 37  1  0  0  0  0
 12 13  1  0  0  0  0
 12 38  1  0  0  0  0
 12 39  1  0  0  0  0
 13 14  1  0  0  0  0
 13 40  1  0  0  0  0
 13 41  1  0  0  0  0
 14 15  1  0  0  0  0
 14 42  1  0  0  0  0
 14 43  1  0  0  0  0
 15 16  1  0  0  0  0
 15 44  1  0  0  0  0
 15 45  1  0  0  0  0
 16 46  1  0  0  0  0
 16 47  1  0  0  0  0
 17 18  1  0  0  0  0
 17 48  1  0  0  0  0
 18 19  1  0  0  0  0
 19 20  2  0  0  0  0
 19 21  2  0  0  0  0
 19 22  1  0  0  0  0
 22 26  1  0  0  0  0
 22 23  1  0  0  0  0
 23 24  1  0  0  0  0
 23 49  1  0  0  0  0
 23 50  1  0  0  0  0
 24 25  1  0  0  0  0
 24 51  1  0  0  0  0
 24 52  1  0  0  0  0
 25 26  1  0  0  0  0
 25 53  1  0  0  0  0
 25 54  1  0  0  0  0
 26 55  1  0  0  0  0
 26 56  1  0  0  0  0
M  END
$$$$
CHEMBL527031
 OpenBabel12022418093D

 71 76  0  0  1  0  0  0  0  0999 V2000
    2.6164    1.5217    2.6008 C   0  0  0  0  0  0  0  0  0  0  0  0
    3.1480    2.6803    3.1670 C   0  0  0  0  0  0  0  0  0  0  0  0
    2.4285    3.8904    3.2120 C   0  0  0  0  0  0  0  0  0  0  0  0
    1.1361    3.9042    2.6198 C   0  0  0  0  0  0  0  0  0  0  0  0
    0.5882    2.7255    2.0620 C   0  0  0  0  0  0  0  0  0  0  0  0
    1.3325    1.5321    2.0715 C   0  0  0  0  0  0  0  0  0  0  0  0
   -0.6971    3.0342    1.5518 C   0  0  0  0  0  0  0  0  0  0  0  0
   -0.8512    4.3993    1.6619 C   0  0  0  0  0  0  0  0  0  0  0  0
   -1.9199    5.1140    1.1003 C   0  0  0  0  0  0  0  0  0  0  0  0
   -2.8691    4.3770    0.5076 C   0  0  0  0  0  0  0  0  0  0  0  0
   -2.8698    2.9766    0.4684 N   0  0  0  0  0  0  0  0  0  0  0  0
   -1.7486    2.2264    0.9452 C   0  0  0  0  0  0  0  0  0  0  0  0
   -1.6716    1.0014    0.8981 O   0  0  0  0  0  0  0  0  0  0  0  0
   -4.0919    2.2193    0.1241 C   0  0  2  0  0  0  0  0  0  0  0  0
   -4.7953    2.4882   -1.2521 C   0  0  1  0  0  0  0  0  0  0  0  0
   -5.7076    1.2551   -1.5646 C   0  0  0  0  0  0  0  0  0  0  0  0
   -6.9018    1.4343   -0.6156 C   0  0  0  0  0  0  0  0  0  0  0  0
   -6.4955    2.6618    0.2063 C   0  0  1  0  0  0  0  0  0  0  0  0
   -5.2854    2.3543    1.1561 C   0  0  0  0  0  0  0  0  0  0  0  0
   -5.4253    1.0484    1.9609 C   0  0  0  0  0  0  0  0  0  0  0  0
   -5.1801    3.4783    2.2105 C   0  0  0  0  0  0  0  0  0  0  0  0
   -5.8719    3.5210   -0.9085 C   0  0  0  0  0  0  0  0  0  0  0  0
   -3.8806    2.7945   -2.4207 C   0  0  0  0  0  0  0  0  0  0  0  0
    0.1810    4.9051    2.4201 N   0  0  0  0  0  0  0  0  0  0  0  0
    0.2509    6.3038    2.8323 C   0  0  0  0  0  0  0  0  0  0  0  0
   -0.9120    6.7302    3.7624 C   0  0  0  0  0  0  0  0  0  0  0  0
   -0.9347    8.1636    4.1148 N   0  0  0  0  0  0  0  0  0  0  0  0
   -2.0977    8.4681    4.9853 C   0  0  0  0  0  0  0  0  0  0  0  0
   -2.0351    9.9320    5.4448 C   0  0  0  0  0  0  0  0  0  0  0  0
   -2.0618   10.8256    4.3219 O   0  0  0  0  0  0  0  0  0  0  0  0
   -0.9824   10.5347    3.4239 C   0  0  0  0  0  0  0  0  0  0  0  0
   -1.0214    9.0712    2.9499 C   0  0  0  0  0  0  0  0  0  0  0  0
    2.9356    5.0412    3.7649 O   0  0  0  0  0  0  0  0  0  0  0  0
    4.1943    4.9634    4.4315 C   0  0  0  0  0  0  0  0  0  0  0  0
    3.2040    0.6078    2.5643 H   0  0  0  0  0  0  0  0  0  0  0  0
    4.1584    2.5979    3.5578 H   0  0  0  0  0  0  0  0  0  0  0  0
    0.9167    0.6286    1.6279 H   0  0  0  0  0  0  0  0  0  0  0  0
   -2.0048    6.1915    1.1434 H   0  0  0  0  0  0  0  0  0  0  0  0
   -3.7149    4.8908    0.0777 H   0  0  0  0  0  0  0  0  0  0  0  0
   -3.7895    1.1661    0.0928 H   0  0  0  0  0  0  0  0  0  0  0  0
   -5.1980    0.3004   -1.3964 H   0  0  0  0  0  0  0  0  0  0  0  0
   -6.0609    1.2644   -2.6022 H   0  0  0  0  0  0  0  0  0  0  0  0
   -7.1178    0.5460   -0.0192 H   0  0  0  0  0  0  0  0  0  0  0  0
   -7.8066    1.6555   -1.1958 H   0  0  0  0  0  0  0  0  0  0  0  0
   -7.3420    3.1383    0.7080 H   0  0  0  0  0  0  0  0  0  0  0  0
   -5.4834    0.1617    1.3235 H   0  0  0  0  0  0  0  0  0  0  0  0
   -6.3195    1.0683    2.5932 H   0  0  0  0  0  0  0  0  0  0  0  0
   -4.5544    0.9064    2.6121 H   0  0  0  0  0  0  0  0  0  0  0  0
   -5.2251    4.4800    1.7754 H   0  0  0  0  0  0  0  0  0  0  0  0
   -4.2634    3.3905    2.8046 H   0  0  0  0  0  0  0  0  0  0  0  0
   -6.0186    3.4204    2.9162 H   0  0  0  0  0  0  0  0  0  0  0  0
   -6.5601    3.7058   -1.7430 H   0  0  0  0  0  0  0  0  0  0  0  0
   -5.5101    4.4881   -0.5675 H   0  0  0  0  0  0  0  0  0  0  0  0
   -3.2673    3.6818   -2.2467 H   0  0  0  0  0  0  0  0  0  0  0  0
   -4.4596    2.9731   -3.3337 H   0  0  0  0  0  0  0  0  0  0  0  0
   -3.2099    1.9504   -2.6177 H   0  0  0  0  0  0  0  0  0  0  0  0
    0.2405    6.8748    1.8973 H   0  0  0  0  0  0  0  0  0  0  0  0
    1.2030    6.5051    3.3216 H   0  0  0  0  0  0  0  0  0  0  0  0
   -0.8262    6.1482    4.6891 H   0  0  0  0  0  0  0  0  0  0  0  0
   -1.8866    6.4627    3.3384 H   0  0  0  0  0  0  0  0  0  0  0  0
   -2.1084    7.8131    5.8631 H   0  0  0  0  0  0  0  0  0  0  0  0
   -3.0334    8.3055    4.4318 H   0  0  0  0  0  0  0  0  0  0  0  0
   -1.1326   10.1185    6.0394 H   0  0  0  0  0  0  0  0  0  0  0  0
   -2.9021   10.1640    6.0711 H   0  0  0  0  0  0  0  0  0  0  0  0
   -0.0284   10.7589    3.9169 H   0  0  0  0  0  0  0  0  0  0  0  0
   -1.0771   11.2053    2.5638 H   0  0  0  0  0  0  0  0  0  0  0  0
   -1.9518    8.8888    2.3954 H   0  0  0  0  0  0  0  0  0  0  0  0
   -0.1833    8.9228    2.2637 H   0  0  0  0  0  0  0  0  0  0  0  0
    4.4869    5.9790    4.7162 H   0  0  0  0  0  0  0  0  0  0  0  0
    4.9862    4.5790    3.7785 H   0  0  0  0  0  0  0  0  0  0  0  0
    4.1230    4.3682    5.3507 H   0  0  0  0  0  0  0  0  0  0  0  0
  1  6  2  0  0  0  0
  1  2  1  0  0  0  0
  1 35  1  0  0  0  0
  2  3  2  0  0  0  0
  2 36  1  0  0  0  0
  3  4  1  0  0  0  0
  3 33  1  0  0  0  0
  4 24  1  0  0  0  0
  4  5  2  0  0  0  0
  5  6  1  0  0  0  0
  5  7  1  0  0  0  0
  6 37  1  0  0  0  0
  7 12  1  0  0  0  0
  7  8  2  0  0  0  0
  8  9  1  0  0  0  0
  8 24  1  0  0  0  0
  9 10  2  0  0  0  0
  9 38  1  0  0  0  0
 10 11  1  0  0  0  0
 10 39  1  0  0  0  0
 11 12  1  0  0  0  0
 12 13  2  0  0  0  0
 14 15  1  0  0  0  0
 14 19  1  0  0  0  0
 14 11  1  0  0  0  0
 14 40  1  6  0  0  0
 15 22  1  0  0  0  0
 15 16  1  0  0  0  0
 15 23  1  6  0  0  0
 16 17  1  0  0  0  0
 16 41  1  0  0  0  0
 16 42  1  0  0  0  0
 17 43  1  0  0  0  0
 17 44  1  0  0  0  0
 18 17  1  0  0  0  0
 18 19  1  0  0  0  0
 18 22  1  0  0  0  0
 18 45  1  1  0  0  0
 19 20  1  0  0  0  0
 19 21  1  0  0  0  0
 20 46  1  0  0  0  0
 20 47  1  0  0  0  0
 20 48  1  0  0  0  0
 21 49  1  0  0  0  0
 21 50  1  0  0  0  0
 21 51  1  0  0  0  0
 22 52  1  0  0  0  0
 22 53  1  0  0  0  0
 23 54  1  0  0  0  0
 23 55  1  0  0  0  0
 23 56  1  0  0  0  0
 24 25  1  0  0  0  0
 25 26  1  0  0  0  0
 25 57  1  0  0  0  0
 25 58  1  0  0  0  0
 26 27  1  0  0  0  0
 26 59  1  0  0  0  0
 26 60  1  0  0  0  0
 27 32  1  0  0  0  0
 27 28  1  0  0  0  0
 28 29  1  0  0  0  0
 28 61  1  0  0  0  0
 28 62  1  0  0  0  0
 29 30  1  0  0  0  0
 29 63  1  0  0  0  0
 29 64  1  0  0  0  0
 30 31  1  0  0  0  0
 31 32  1  0  0  0  0
 31 65  1  0  0  0  0
 31 66  1  0  0  0  0
 32 67  1  0  0  0  0
 32 68  1  0  0  0  0
 33 34  1  0  0  0  0
 34 69  1  0  0  0  0
 34 70  1  0  0  0  0
 34 71  1  0  0  0  0
M  END
$$$$
CHEMBL404650
 OpenBabel12022418093D

 61 64  0  0  1  0  0  0  0  0999 V2000
    2.0718   -0.8914    0.3478 C   0  0  0  0  0  0  0  0  0  0  0  0
    0.6461   -0.4280    0.2705 C   0  0  0  0  0  0  0  0  0  0  0  0
   -0.2970   -1.4505    0.5011 C   0  0  0  0  0  0  0  0  0  0  0  0
   -1.6576   -1.2162    0.3782 C   0  0  0  0  0  0  0  0  0  0  0  0
   -2.1195    0.0451    0.0013 C   0  0  0  0  0  0  0  0  0  0  0  0
   -3.5572    0.1276   -0.3287 C   0  0  0  0  0  0  0  0  0  0  0  0
   -4.1175   -0.8853   -0.7207 O   0  0  0  0  0  0  0  0  0  0  0  0
   -4.2084    1.3400   -0.1707 N   0  0  0  0  0  0  0  0  0  0  0  0
   -5.6313    1.3725   -0.4436 C   0  0  1  0  0  0  0  0  0  0  0  0
   -6.5817    0.9757    0.7379 C   0  0  0  0  0  0  0  0  0  0  0  0
   -7.2410   -0.3912    0.4477 C   0  0  0  0  0  0  0  0  0  0  0  0
   -5.9077    0.8686    2.1155 C   0  0  0  0  0  0  0  0  0  0  0  0
   -7.6481    2.1203    0.6634 C   0  0  1  0  0  0  0  0  0  0  0  0
   -7.0883    3.4503    1.1997 C   0  0  0  0  0  0  0  0  0  0  0  0
   -6.0284    3.8286    0.1542 C   0  0  0  0  0  0  0  0  0  0  0  0
   -6.1945    2.7364   -0.9233 C   0  0  1  0  0  0  0  0  0  0  0  0
   -5.7154    3.1355   -2.3060 C   0  0  0  0  0  0  0  0  0  0  0  0
   -7.7023    2.4484   -0.8367 C   0  0  0  0  0  0  0  0  0  0  0  0
   -1.2181    1.1029   -0.1549 C   0  0  0  0  0  0  0  0  0  0  0  0
    0.1788    0.8757   -0.0222 C   0  0  0  0  0  0  0  0  0  0  0  0
    1.2232    2.3591    0.0569 S   0  0  0  0  0  0  0  0  0  0  0  0
    0.3522    3.4082    0.5510 O   0  0  0  0  0  0  0  0  0  0  0  0
    2.4158    2.0147    0.7972 O   0  0  0  0  0  0  0  0  0  0  0  0
    1.6819    2.7947   -1.5000 N   0  0  0  0  0  0  0  0  0  0  0  0
    0.7254    3.4242   -2.4388 C   0  0  0  0  0  0  0  0  0  0  0  0
    0.1191    2.3603   -3.3564 C   0  0  0  0  0  0  0  0  0  0  0  0
    1.1352    1.6140   -4.0464 O   0  0  0  0  0  0  0  0  0  0  0  0
    2.0822    1.0135   -3.1459 C   0  0  0  0  0  0  0  0  0  0  0  0
    2.7311    2.0560   -2.2349 C   0  0  0  0  0  0  0  0  0  0  0  0
    2.8024   -0.1399    0.0760 H   0  0  0  0  0  0  0  0  0  0  0  0
    2.2105   -1.7155   -0.3687 H   0  0  0  0  0  0  0  0  0  0  0  0
    2.2873   -1.2758    1.3506 H   0  0  0  0  0  0  0  0  0  0  0  0
    0.0298   -2.4554    0.7705 H   0  0  0  0  0  0  0  0  0  0  0  0
   -2.3601   -2.0340    0.5436 H   0  0  0  0  0  0  0  0  0  0  0  0
   -3.7828    2.0674    0.3895 H   0  0  0  0  0  0  0  0  0  0  0  0
   -5.8008    0.6693   -1.2731 H   0  0  0  0  0  0  0  0  0  0  0  0
   -6.5023   -1.1997    0.4888 H   0  0  0  0  0  0  0  0  0  0  0  0
   -7.7048   -0.4285   -0.5427 H   0  0  0  0  0  0  0  0  0  0  0  0
   -8.0187   -0.6155    1.1854 H   0  0  0  0  0  0  0  0  0  0  0  0
   -5.2593   -0.0133    2.1748 H   0  0  0  0  0  0  0  0  0  0  0  0
   -6.6614    0.7716    2.9058 H   0  0  0  0  0  0  0  0  0  0  0  0
   -5.2839    1.7354    2.3520 H   0  0  0  0  0  0  0  0  0  0  0  0
   -8.6120    1.8540    1.1040 H   0  0  0  0  0  0  0  0  0  0  0  0
   -6.6847    3.3953    2.2129 H   0  0  0  0  0  0  0  0  0  0  0  0
   -7.8796    4.2102    1.2126 H   0  0  0  0  0  0  0  0  0  0  0  0
   -5.0237    3.8569    0.5848 H   0  0  0  0  0  0  0  0  0  0  0  0
   -6.2454    4.8256   -0.2468 H   0  0  0  0  0  0  0  0  0  0  0  0
   -4.6315    3.2880   -2.3217 H   0  0  0  0  0  0  0  0  0  0  0  0
   -6.1945    4.0616   -2.6392 H   0  0  0  0  0  0  0  0  0  0  0  0
   -5.9555    2.3588   -3.0411 H   0  0  0  0  0  0  0  0  0  0  0  0
   -8.3237    3.3202   -1.0669 H   0  0  0  0  0  0  0  0  0  0  0  0
   -8.0243    1.6107   -1.4630 H   0  0  0  0  0  0  0  0  0  0  0  0
   -1.5806    2.0965   -0.3988 H   0  0  0  0  0  0  0  0  0  0  0  0
    1.2939    4.1409   -3.0497 H   0  0  0  0  0  0  0  0  0  0  0  0
   -0.0408    4.0039   -1.9187 H   0  0  0  0  0  0  0  0  0  0  0  0
   -0.5061    2.8423   -4.1144 H   0  0  0  0  0  0  0  0  0  0  0  0
   -0.5147    1.6668   -2.7990 H   0  0  0  0  0  0  0  0  0  0  0  0
    2.8509    0.5311   -3.7579 H   0  0  0  0  0  0  0  0  0  0  0  0
    1.5807    0.2356   -2.5637 H   0  0  0  0  0  0  0  0  0  0  0  0
    3.4709    1.6138   -1.5632 H   0  0  0  0  0  0  0  0  0  0  0  0
    3.2723    2.7869   -2.8526 H   0  0  0  0  0  0  0  0  0  0  0  0
  1  2  1  0  0  0  0
  1 30  1  0  0  0  0
  1 31  1  0  0  0  0
  1 32  1  0  0  0  0
  2 20  2  0  0  0  0
  2  3  1  0  0  0  0
  3  4  2  0  0  0  0
  3 33  1  0  0  0  0
  4  5  1  0  0  0  0
  4 34  1  0  0  0  0
  5  6  1  0  0  0  0
  5 19  2  0  0  0  0
  6  7  2  0  0  0  0
  6  8  1  0  0  0  0
  8 35  1  0  0  0  0
  9  8  1  0  0  0  0
  9 10  1  0  0  0  0
  9 16  1  0  0  0  0
  9 36  1  6  0  0  0
 10 11  1  0  0  0  0
 10 12  1  0  0  0  0
 10 13  1  0  0  0  0
 11 37  1  0  0  0  0
 11 38  1  0  0  0  0
 11 39  1  0  0  0  0
 12 40  1  0  0  0  0
 12 41  1  0  0  0  0
 12 42  1  0  0  0  0
 13 14  1  0  0  0  0
 13 18  1  0  0  0  0
 13 43  1  1  0  0  0
 14 15  1  0  0  0  0
 14 44  1  0  0  0  0
 14 45  1  0  0  0  0
 15 16  1  0  0  0  0
 15 46  1  0  0  0  0
 15 47  1  0  0  0  0
 16 17  1  6  0  0  0
 16 18  1  0  0  0  0
 17 48  1  0  0  0  0
 17 49  1  0  0  0  0
 17 50  1  0  0  0  0
 18 51  1  0  0  0  0
 18 52  1  0  0  0  0
 19 20  1  0  0  0  0
 19 53  1  0  0  0  0
 20 21  1  0  0  0  0
 21 22  2  0  0  0  0
 21 23  2  0  0  0  0
 21 24  1  0  0  0  0
 24 29  1  0  0  0  0
 24 25  1  0  0  0  0
 25 26  1  0  0  0  0
 25 54  1  0  0  0  0
 25 55  1  0  0  0  0
 26 27  1  0  0  0  0
 26 56  1  0  0  0  0
 26 57  1  0  0  0  0
 27 28  1  0  0  0  0
 28 29  1  0  0  0  0
 28 58  1  0  0  0  0
 28 59  1  0  0  0  0
 29 60  1  0  0  0  0
 29 61  1  0  0  0  0
M  END
$$$$
CHEMBL371575
 OpenBabel12022418093D

 55 57  0  0  1  0  0  0  0  0999 V2000
   -5.1716   14.5760    4.2634 C   0  0  0  0  0  0  0  0  0  0  0  0
   -4.9179   13.1152    4.4994 C   0  0  0  0  0  0  0  0  0  0  0  0
   -3.6358   12.6512    4.7822 C   0  0  0  0  0  0  0  0  0  0  0  0
   -3.4015   11.2798    4.9315 C   0  0  0  0  0  0  0  0  0  0  0  0
   -4.4430   10.3366    4.7912 C   0  0  0  0  0  0  0  0  0  0  0  0
   -5.7462   10.8020    4.5680 C   0  0  0  0  0  0  0  0  0  0  0  0
   -5.9620   12.1883    4.4103 C   0  0  0  0  0  0  0  0  0  0  0  0
   -7.1499    9.7639    4.2132 S   0  0  0  0  0  0  0  0  0  0  0  0
   -8.0052   10.5224    3.3139 O   0  0  0  0  0  0  0  0  0  0  0  0
   -6.6313    8.5010    3.7347 O   0  0  0  0  0  0  0  0  0  0  0  0
   -8.1371    9.4324    5.6307 C   0  0  0  0  0  0  0  0  0  0  0  0
   -8.5164    8.1146    5.9106 C   0  0  0  0  0  0  0  0  0  0  0  0
   -9.4916    7.8656    6.8774 C   0  0  0  0  0  0  0  0  0  0  0  0
  -10.0815    8.9269    7.5649 C   0  0  0  0  0  0  0  0  0  0  0  0
   -9.6779   10.2373    7.3030 C   0  0  0  0  0  0  0  0  0  0  0  0
   -8.7062   10.4847    6.3348 C   0  0  0  0  0  0  0  0  0  0  0  0
   -8.3700   11.7556    6.0814 F   0  0  0  0  0  0  0  0  0  0  0  0
   -4.0350    8.6349    5.1522 S   0  0  0  0  0  0  0  0  0  0  0  0
   -2.6443    8.6382    5.5827 O   0  0  0  0  0  0  0  0  0  0  0  0
   -5.0608    8.1932    6.0836 O   0  0  0  0  0  0  0  0  0  0  0  0
   -4.0347    7.5445    3.7517 C   0  0  0  0  0  0  0  0  0  0  0  0
   -4.1038    6.1665    3.9969 C   0  0  0  0  0  0  0  0  0  0  0  0
   -3.9255    5.2642    2.9465 C   0  0  0  0  0  0  0  0  0  0  0  0
   -3.6764    5.7280    1.6442 C   0  0  0  0  0  0  0  0  0  0  0  0
   -3.2639    4.7427    0.5653 C   0  0  2  0  0  0  0  0  0  0  0  0
   -1.7298    4.6203    0.6281 C   0  0  0  0  0  0  0  0  0  0  0  0
   -3.6270    5.0885   -0.8458 N   0  0  0  0  0  0  0  0  0  0  0  0
   -5.2919    5.1546   -1.1795 S   0  0  0  0  0  0  0  0  0  0  0  0
   -5.8131    3.8232   -0.9403 O   0  0  0  0  0  0  0  0  0  0  0  0
   -5.8592    6.3277   -0.5595 O   0  0  0  0  0  0  0  0  0  0  0  0
   -5.2769    5.4347   -2.9356 C   0  0  0  0  0  0  0  0  0  0  0  0
   -3.6885    7.1146    1.4096 C   0  0  0  0  0  0  0  0  0  0  0  0
   -3.8753    8.0253    2.4539 C   0  0  0  0  0  0  0  0  0  0  0  0
   -6.2170   14.7608    3.9923 H   0  0  0  0  0  0  0  0  0  0  0  0
   -4.5514   14.9335    3.4346 H   0  0  0  0  0  0  0  0  0  0  0  0
   -4.9480   15.1595    5.1615 H   0  0  0  0  0  0  0  0  0  0  0  0
   -2.8077   13.3512    4.8848 H   0  0  0  0  0  0  0  0  0  0  0  0
   -2.3869   10.9639    5.1748 H   0  0  0  0  0  0  0  0  0  0  0  0
   -6.9646   12.5582    4.1909 H   0  0  0  0  0  0  0  0  0  0  0  0
   -8.0931    7.2823    5.3511 H   0  0  0  0  0  0  0  0  0  0  0  0
   -9.8123    6.8440    7.0703 H   0  0  0  0  0  0  0  0  0  0  0  0
  -10.8649    8.7324    8.2936 H   0  0  0  0  0  0  0  0  0  0  0  0
  -10.1390   11.0692    7.8274 H   0  0  0  0  0  0  0  0  0  0  0  0
   -4.2581    5.7930    5.0070 H   0  0  0  0  0  0  0  0  0  0  0  0
   -3.9359    4.1974    3.1606 H   0  0  0  0  0  0  0  0  0  0  0  0
   -3.6825    3.7505    0.7800 H   0  0  0  0  0  0  0  0  0  0  0  0
   -1.2431    5.5865    0.4440 H   0  0  0  0  0  0  0  0  0  0  0  0
   -1.3507    3.9147   -0.1186 H   0  0  0  0  0  0  0  0  0  0  0  0
   -1.3998    4.2711    1.6142 H   0  0  0  0  0  0  0  0  0  0  0  0
   -3.2043    4.3964   -1.4672 H   0  0  0  0  0  0  0  0  0  0  0  0
   -4.8976    4.5429   -3.4378 H   0  0  0  0  0  0  0  0  0  0  0  0
   -4.6578    6.3064   -3.1587 H   0  0  0  0  0  0  0  0  0  0  0  0
   -6.3059    5.6281   -3.2512 H   0  0  0  0  0  0  0  0  0  0  0  0
   -3.5396    7.4924    0.3998 H   0  0  0  0  0  0  0  0  0  0  0  0
   -3.8773    9.0866    2.2317 H   0  0  0  0  0  0  0  0  0  0  0  0
  1  2  1  0  0  0  0
  1 34  1  0  0  0  0
  1 35  1  0  0  0  0
  1 36  1  0  0  0  0
  2  7  2  0  0  0  0
  2  3  1  0  0  0  0
  3  4  2  0  0  0  0
  3 37  1  0  0  0  0
  4  5  1  0  0  0  0
  4 38  1  0  0  0  0
  5  6  2  0  0  0  0
  5 18  1  0  0  0  0
  6  7  1  0  0  0  0
  6  8  1  0  0  0  0
  7 39  1  0  0  0  0
  8  9  2  0  0  0  0
  8 10  2  0  0  0  0
  8 11  1  0  0  0  0
 11 16  2  0  0  0  0
 11 12  1  0  0  0  0
 12 13  2  0  0  0  0
 12 40  1  0  0  0  0
 13 14  1  0  0  0  0
 13 41  1  0  0  0  0
 14 15  2  0  0  0  0
 14 42  1  0  0  0  0
 15 16  1  0  0  0  0
 15 43  1  0  0  0  0
 16 17  1  0  0  0  0
 18 19  2  0  0  0  0
 18 20  2  0  0  0  0
 18 21  1  0  0  0  0
 21 33  2  0  0  0  0
 21 22  1  0  0  0  0
 22 23  2  0  0  0  0
 22 44  1  0  0  0  0
 23 24  1  0  0  0  0
 23 45  1  0  0  0  0
 24 32  2  0  0  0  0
 25 27  1  0  0  0  0
 25 26  1  0  0  0  0
 25 24  1  0  0  0  0
 25 46  1  1  0  0  0
 26 47  1  0  0  0  0
 26 48  1  0  0  0  0
 26 49  1  0  0  0  0
 27 28  1  0  0  0  0
 27 50  1  0  0  0  0
 28 29  2  0  0  0  0
 28 30  2  0  0  0  0
 28 31  1  0  0  0  0
 31 51  1  0  0  0  0
 31 52  1  0  0  0  0
 31 53  1  0  0  0  0
 32 33  1  0  0  0  0
 32 54  1  0  0  0  0
 33 55  1  0  0  0  0
M  END
$$$$
CHEMBL370445
 OpenBabel12022418093D

 57 59  0  0  1  0  0  0  0  0999 V2000
    2.7944   -8.2283   -5.3023 C   0  0  0  0  0  0  0  0  0  0  0  0
    2.5410   -7.1650   -4.5221 C   0  0  0  0  0  0  0  0  0  0  0  0
    3.5683   -6.1136   -4.3787 C   0  0  0  0  0  0  0  0  0  0  0  0
    4.5026   -6.1945   -3.3520 C   0  0  0  0  0  0  0  0  0  0  0  0
    5.2713   -5.0776   -3.0097 C   0  0  0  0  0  0  0  0  0  0  0  0
    4.9928   -3.8308   -3.5773 C   0  0  0  0  0  0  0  0  0  0  0  0
    5.2962   -2.5069   -2.8835 C   0  0  2  0  0  0  0  0  0  0  0  0
    6.4277   -1.7583   -3.5832 C   0  0  0  0  0  0  0  0  0  0  0  0
    5.5937   -2.5215   -1.4329 N   0  0  0  0  0  0  0  0  0  0  0  0
    4.5339   -3.1750   -0.3295 S   0  0  0  0  0  0  0  0  0  0  0  0
    4.2488   -4.5251   -0.6919 O   0  0  0  0  0  0  0  0  0  0  0  0
    5.0731   -2.8502    0.9845 O   0  0  0  0  0  0  0  0  0  0  0  0
    3.0193   -2.2817   -0.5287 C   0  0  0  0  0  0  0  0  0  0  0  0
    4.2476   -3.8212   -4.7647 C   0  0  0  0  0  0  0  0  0  0  0  0
    3.5419   -4.9595   -5.1669 C   0  0  0  0  0  0  0  0  0  0  0  0
    1.1950   -7.0495   -3.9127 C   0  0  0  0  0  0  0  0  0  0  0  0
    0.2622   -6.3013   -4.6635 C   0  0  0  0  0  0  0  0  0  0  0  0
   -1.0412   -6.1011   -4.2140 C   0  0  0  0  0  0  0  0  0  0  0  0
   -1.4714   -6.6670   -3.0175 C   0  0  0  0  0  0  0  0  0  0  0  0
   -0.5574   -7.3801   -2.2441 C   0  0  0  0  0  0  0  0  0  0  0  0
    0.7777   -7.5715   -2.6762 C   0  0  0  0  0  0  0  0  0  0  0  0
    1.7920   -8.6073   -1.6148 S   0  0  0  0  0  0  0  0  0  0  0  0
    0.8831   -9.4697   -0.8831 O   0  0  0  0  0  0  0  0  0  0  0  0
    2.8167   -9.2251   -2.4322 O   0  0  0  0  0  0  0  0  0  0  0  0
    2.6369   -7.6715   -0.3729 C   0  0  0  0  0  0  0  0  0  0  0  0
    3.9144   -8.0813    0.0375 C   0  0  0  0  0  0  0  0  0  0  0  0
    4.6377   -7.3106    0.9501 C   0  0  0  0  0  0  0  0  0  0  0  0
    4.0614   -6.1681    1.5015 C   0  0  0  0  0  0  0  0  0  0  0  0
    2.7592   -5.8005    1.1424 C   0  0  0  0  0  0  0  0  0  0  0  0
    2.0642   -6.5368    0.1828 C   0  0  0  0  0  0  0  0  0  0  0  0
    0.8618   -6.0911   -0.1983 F   0  0  0  0  0  0  0  0  0  0  0  0
   -2.7586   -6.3925   -2.6783 O   0  0  0  0  0  0  0  0  0  0  0  0
   -3.5224   -7.3573   -1.9649 C   0  0  0  0  0  0  0  0  0  0  0  0
   -2.8580   -8.4896   -1.6641 F   0  0  0  0  0  0  0  0  0  0  0  0
   -3.9685   -6.7979   -0.8194 F   0  0  0  0  0  0  0  0  0  0  0  0
   -4.5967   -7.6930   -2.7142 F   0  0  0  0  0  0  0  0  0  0  0  0
    3.7557   -8.3652   -5.7869 H   0  0  0  0  0  0  0  0  0  0  0  0
    2.0586   -9.0145   -5.4488 H   0  0  0  0  0  0  0  0  0  0  0  0
    4.5670   -7.0864   -2.7340 H   0  0  0  0  0  0  0  0  0  0  0  0
    5.9313   -5.1659   -2.1480 H   0  0  0  0  0  0  0  0  0  0  0  0
    4.3993   -1.8791   -2.9825 H   0  0  0  0  0  0  0  0  0  0  0  0
    7.3651   -2.3205   -3.5358 H   0  0  0  0  0  0  0  0  0  0  0  0
    6.5964   -0.7833   -3.1097 H   0  0  0  0  0  0  0  0  0  0  0  0
    6.1874   -1.5740   -4.6352 H   0  0  0  0  0  0  0  0  0  0  0  0
    6.0173   -1.6728   -1.0634 H   0  0  0  0  0  0  0  0  0  0  0  0
    2.6409   -2.4623   -1.5336 H   0  0  0  0  0  0  0  0  0  0  0  0
    3.1940   -1.2348   -0.3204 H   0  0  0  0  0  0  0  0  0  0  0  0
    2.3100   -2.7021    0.1946 H   0  0  0  0  0  0  0  0  0  0  0  0
    4.1401   -2.9049   -5.3397 H   0  0  0  0  0  0  0  0  0  0  0  0
    2.9034   -4.9046   -6.0439 H   0  0  0  0  0  0  0  0  0  0  0  0
    0.5528   -5.8671   -5.6189 H   0  0  0  0  0  0  0  0  0  0  0  0
   -1.7301   -5.5047   -4.8116 H   0  0  0  0  0  0  0  0  0  0  0  0
   -0.8499   -7.7772   -1.2769 H   0  0  0  0  0  0  0  0  0  0  0  0
    4.3666   -8.9807   -0.3752 H   0  0  0  0  0  0  0  0  0  0  0  0
    5.6671   -7.5658    1.1895 H   0  0  0  0  0  0  0  0  0  0  0  0
    4.6664   -5.4953    2.1077 H   0  0  0  0  0  0  0  0  0  0  0  0
    2.3460   -4.8598    1.4944 H   0  0  0  0  0  0  0  0  0  0  0  0
  1  2  2  0  0  0  0
  1 37  1  0  0  0  0
  1 38  1  0  0  0  0
  2  3  1  0  0  0  0
  2 16  1  0  0  0  0
  3 15  2  0  0  0  0
  3  4  1  0  0  0  0
  4  5  2  0  0  0  0
  4 39  1  0  0  0  0
  5  6  1  0  0  0  0
  5 40  1  0  0  0  0
  6 14  2  0  0  0  0
  7  9  1  0  0  0  0
  7  8  1  0  0  0  0
  7  6  1  0  0  0  0
  7 41  1  6  0  0  0
  8 42  1  0  0  0  0
  8 43  1  0  0  0  0
  8 44  1  0  0  0  0
  9 10  1  0  0  0  0
  9 45  1  0  0  0  0
 10 11  2  0  0  0  0
 10 12  2  0  0  0  0
 10 13  1  0  0  0  0
 13 46  1  0  0  0  0
 13 47  1  0  0  0  0
 13 48  1  0  0  0  0
 14 15  1  0  0  0  0
 14 49  1  0  0  0  0
 15 50  1  0  0  0  0
 16 21  2  0  0  0  0
 16 17  1  0  0  0  0
 17 18  2  0  0  0  0
 17 51  1  0  0  0  0
 18 19  1  0  0  0  0
 18 52  1  0  0  0  0
 19 20  2  0  0  0  0
 19 32  1  0  0  0  0
 20 21  1  0  0  0  0
 20 53  1  0  0  0  0
 21 22  1  0  0  0  0
 22 23  2  0  0  0  0
 22 24  2  0  0  0  0
 22 25  1  0  0  0  0
 25 30  2  0  0  0  0
 25 26  1  0  0  0  0
 26 27  2  0  0  0  0
 26 54  1  0  0  0  0
 27 28  1  0  0  0  0
 27 55  1  0  0  0  0
 28 29  2  0  0  0  0
 28 56  1  0  0  0  0
 29 30  1  0  0  0  0
 29 57  1  0  0  0  0
 30 31  1  0  0  0  0
 32 33  1  0  0  0  0
 33 34  1  0  0  0  0
 33 35  1  0  0  0  0
 33 36  1  0  0  0  0
M  END
$$$$
CHEMBL232928
 OpenBabel12022418093D

 44 46  0  0  0  0  0  0  0  0999 V2000
    2.0361   -0.3576   -2.3014 C   0  0  0  0  0  0  0  0  0  0  0  0
    3.2049   -0.1200   -0.9387 S   0  0  0  0  0  0  0  0  0  0  0  0
    3.7888    1.5305   -1.2717 C   0  0  0  0  0  0  0  0  0  0  0  0
    2.6315    2.7684   -1.3834 S   0  0  0  0  0  0  0  0  0  0  0  0
    5.2007    1.7104   -1.2487 N   0  0  0  0  0  0  0  0  0  0  0  0
    5.7343    3.0823   -1.1681 C   0  0  0  0  0  0  0  0  0  0  0  0
    6.7950    3.2205   -0.1127 C   0  0  0  0  0  0  0  0  0  0  0  0
    6.3799    3.4136    1.3371 C   0  0  0  0  0  0  0  0  0  0  0  0
    6.9913    4.5567    0.5822 C   0  0  0  0  0  0  0  0  0  0  0  0
    8.0348    2.4837   -0.4615 C   0  0  0  0  0  0  0  0  0  0  0  0
    7.6738    0.7663   -0.6752 S   0  0  0  0  0  0  0  0  0  0  0  0
    6.1326    0.6821   -1.5383 C   0  0  0  0  0  0  0  0  0  0  0  0
    5.8125   -0.2902   -2.3516 N   0  0  0  0  0  0  0  0  0  0  0  0
    6.6338   -1.4129   -2.6366 C   0  0  0  0  0  0  0  0  0  0  0  0
    7.2889   -2.1143   -1.6023 C   0  0  0  0  0  0  0  0  0  0  0  0
    8.2184   -3.1226   -1.8408 C   0  0  0  0  0  0  0  0  0  0  0  0
    8.4278   -3.5613   -3.1372 C   0  0  0  0  0  0  0  0  0  0  0  0
    7.6778   -3.0038   -4.1671 C   0  0  0  0  0  0  0  0  0  0  0  0
    6.7680   -1.9378   -3.9451 C   0  0  0  0  0  0  0  0  0  0  0  0
    5.9245   -1.5436   -5.1553 C   0  0  0  0  0  0  0  0  0  0  0  0
    4.6465   -2.3929   -5.2016 C   0  0  0  0  0  0  0  0  0  0  0  0
    5.5995   -0.0630   -5.3270 C   0  0  0  0  0  0  0  0  0  0  0  0
    1.9824   -1.4205   -2.5518 H   0  0  0  0  0  0  0  0  0  0  0  0
    2.3350    0.1878   -3.2011 H   0  0  0  0  0  0  0  0  0  0  0  0
    1.0377   -0.0309   -1.9950 H   0  0  0  0  0  0  0  0  0  0  0  0
    4.9619    3.8279   -0.9738 H   0  0  0  0  0  0  0  0  0  0  0  0
    6.1569    3.3296   -2.1503 H   0  0  0  0  0  0  0  0  0  0  0  0
    6.9664    2.9408    2.1174 H   0  0  0  0  0  0  0  0  0  0  0  0
    5.3237    3.4911    1.5807 H   0  0  0  0  0  0  0  0  0  0  0  0
    6.3578    5.3943    0.3094 H   0  0  0  0  0  0  0  0  0  0  0  0
    7.9966    4.8588    0.8678 H   0  0  0  0  0  0  0  0  0  0  0  0
    8.7913    2.5738    0.3262 H   0  0  0  0  0  0  0  0  0  0  0  0
    8.4758    2.8843   -1.3797 H   0  0  0  0  0  0  0  0  0  0  0  0
    7.1003   -1.8442   -0.5660 H   0  0  0  0  0  0  0  0  0  0  0  0
    8.7666   -3.5594   -1.0119 H   0  0  0  0  0  0  0  0  0  0  0  0
    9.1402   -4.3550   -3.3364 H   0  0  0  0  0  0  0  0  0  0  0  0
    7.7935   -3.4252   -5.1655 H   0  0  0  0  0  0  0  0  0  0  0  0
    6.5071   -1.8032   -6.0521 H   0  0  0  0  0  0  0  0  0  0  0  0
    4.0753   -2.3181   -4.2701 H   0  0  0  0  0  0  0  0  0  0  0  0
    4.8874   -3.4518   -5.3565 H   0  0  0  0  0  0  0  0  0  0  0  0
    3.9955   -2.0840   -6.0269 H   0  0  0  0  0  0  0  0  0  0  0  0
    4.8084    0.2698   -4.6506 H   0  0  0  0  0  0  0  0  0  0  0  0
    5.2403    0.1168   -6.3489 H   0  0  0  0  0  0  0  0  0  0  0  0
    6.4865    0.5596   -5.1760 H   0  0  0  0  0  0  0  0  0  0  0  0
  1  2  1  0  0  0  0
  1 23  1  0  0  0  0
  1 24  1  0  0  0  0
  1 25  1  0  0  0  0
  2  3  1  0  0  0  0
  3  4  2  0  0  0  0
  3  5  1  0  0  0  0
  5 12  1  0  0  0  0
  5  6  1  0  0  0  0
  6  7  1  0  0  0  0
  6 26  1  0  0  0  0
  6 27  1  0  0  0  0
  7  9  1  0  0  0  0
  7  8  1  0  0  0  0
  7 10  1  0  0  0  0
  8  9  1  0  0  0  0
  8 28  1  0  0  0  0
  8 29  1  0  0  0  0
  9 30  1  0  0  0  0
  9 31  1  0  0  0  0
 10 11  1  0  0  0  0
 10 32  1  0  0  0  0
 10 33  1  0  0  0  0
 11 12  1  0  0  0  0
 12 13  2  0  0  0  0
 13 14  1  0  0  0  0
 14 19  2  0  0  0  0
 14 15  1  0  0  0  0
 15 16  2  0  0  0  0
 15 34  1  0  0  0  0
 16 17  1  0  0  0  0
 16 35  1  0  0  0  0
 17 18  2  0  0  0  0
 17 36  1  0  0  0  0
 18 19  1  0  0  0  0
 18 37  1  0  0  0  0
 19 20  1  0  0  0  0
 20 21  1  0  0  0  0
 20 22  1  0  0  0  0
 20 38  1  0  0  0  0
 21 39  1  0  0  0  0
 21 40  1  0  0  0  0
 21 41  1  0  0  0  0
 22 42  1  0  0  0  0
 22 43  1  0  0  0  0
 22 44  1  0  0  0  0
M  END
$$$$
CHEMBL3590293
 OpenBabel12022418093D

 60 62  0  0  0  0  0  0  0  0999 V2000
    4.8622    2.5283   -2.6153 C   0  0  0  0  0  0  0  0  0  0  0  0
    4.4276    2.9603   -1.2245 C   0  0  0  0  0  0  0  0  0  0  0  0
    4.9616    2.0096   -0.1529 C   0  0  0  0  0  0  0  0  0  0  0  0
    4.5279    2.4545    1.2484 C   0  0  0  0  0  0  0  0  0  0  0  0
    5.0820    1.5459    2.3683 C   0  0  0  0  0  0  0  0  0  0  0  0
    6.5412    1.4390    2.3681 N   0  0  0  0  0  0  0  0  0  0  0  0
    7.1909    2.6826    2.4075 C   0  0  0  0  0  0  0  0  0  0  0  0
    6.7140    3.6992    2.9207 O   0  0  0  0  0  0  0  0  0  0  0  0
    8.4052    2.7378    1.5827 C   0  0  0  0  0  0  0  0  0  0  0  0
    8.5106    3.7361    0.6899 C   0  0  0  0  0  0  0  0  0  0  0  0
    9.3960    3.8446   -0.3619 N   0  0  0  0  0  0  0  0  0  0  0  0
    9.4924    4.9491   -1.3010 C   0  0  0  0  0  0  0  0  0  0  0  0
   10.4182    6.0325   -0.7409 C   0  0  0  0  0  0  0  0  0  0  0  0
   10.6117    7.1722   -1.7387 C   0  0  0  0  0  0  0  0  0  0  0  0
   11.1094    6.6635   -3.0891 C   0  0  0  0  0  0  0  0  0  0  0  0
   10.1995    5.5728   -3.6471 C   0  0  0  0  0  0  0  0  0  0  0  0
   10.0170    4.4318   -2.6479 C   0  0  0  0  0  0  0  0  0  0  0  0
    9.2851    1.5790    1.5061 C   0  0  0  0  0  0  0  0  0  0  0  0
   10.4724    1.6590    1.2039 O   0  0  0  0  0  0  0  0  0  0  0  0
    8.6229    0.2832    1.7541 C   0  0  0  0  0  0  0  0  0  0  0  0
    9.4192   -0.8464    1.5015 C   0  0  0  0  0  0  0  0  0  0  0  0
    8.8749   -2.1114    1.5897 C   0  0  0  0  0  0  0  0  0  0  0  0
    7.5459   -2.2296    1.9786 C   0  0  0  0  0  0  0  0  0  0  0  0
    6.7355   -1.1080    2.2973 C   0  0  0  0  0  0  0  0  0  0  0  0
    5.3929   -1.4756    2.8790 C   0  0  0  0  0  0  0  0  0  0  0  0
    7.2572    0.2021    2.1313 C   0  0  0  0  0  0  0  0  0  0  0  0
    9.5213   -3.2854    1.3379 O   0  0  0  0  0  0  0  0  0  0  0  0
   10.8881   -3.1894    0.9492 C   0  0  0  0  0  0  0  0  0  0  0  0
    4.4503    3.2069   -3.3691 H   0  0  0  0  0  0  0  0  0  0  0  0
    4.5083    1.5165   -2.8385 H   0  0  0  0  0  0  0  0  0  0  0  0
    5.9499    2.5398   -2.7044 H   0  0  0  0  0  0  0  0  0  0  0  0
    3.3325    2.9959   -1.1785 H   0  0  0  0  0  0  0  0  0  0  0  0
    4.7940    3.9771   -1.0340 H   0  0  0  0  0  0  0  0  0  0  0  0
    6.0543    1.9829   -0.2249 H   0  0  0  0  0  0  0  0  0  0  0  0
    4.6050    0.9908   -0.3439 H   0  0  0  0  0  0  0  0  0  0  0  0
    3.4325    2.4499    1.3084 H   0  0  0  0  0  0  0  0  0  0  0  0
    4.8335    3.4933    1.4087 H   0  0  0  0  0  0  0  0  0  0  0  0
    4.5938    0.5967    2.2214 H   0  0  0  0  0  0  0  0  0  0  0  0
    4.7652    1.9280    3.3454 H   0  0  0  0  0  0  0  0  0  0  0  0
    7.7764    4.5422    0.6988 H   0  0  0  0  0  0  0  0  0  0  0  0
   10.1615    3.1648   -0.3548 H   0  0  0  0  0  0  0  0  0  0  0  0
    8.4934    5.3751   -1.4637 H   0  0  0  0  0  0  0  0  0  0  0  0
   11.3950    5.5974   -0.4919 H   0  0  0  0  0  0  0  0  0  0  0  0
   10.0080    6.4320    0.1941 H   0  0  0  0  0  0  0  0  0  0  0  0
   11.3240    7.8990   -1.3333 H   0  0  0  0  0  0  0  0  0  0  0  0
    9.6598    7.6993   -1.8777 H   0  0  0  0  0  0  0  0  0  0  0  0
   12.1267    6.2684   -2.9779 H   0  0  0  0  0  0  0  0  0  0  0  0
   11.1664    7.4965   -3.7989 H   0  0  0  0  0  0  0  0  0  0  0  0
   10.6190    5.1851   -4.5823 H   0  0  0  0  0  0  0  0  0  0  0  0
    9.2205    6.0040   -3.8906 H   0  0  0  0  0  0  0  0  0  0  0  0
    9.3262    3.6873   -3.0632 H   0  0  0  0  0  0  0  0  0  0  0  0
   10.9775    3.9179   -2.5071 H   0  0  0  0  0  0  0  0  0  0  0  0
   10.4577   -0.7030    1.2153 H   0  0  0  0  0  0  0  0  0  0  0  0
    7.1377   -3.2369    2.0688 H   0  0  0  0  0  0  0  0  0  0  0  0
    5.3198   -2.5513    3.0812 H   0  0  0  0  0  0  0  0  0  0  0  0
    4.5795   -1.2756    2.1790 H   0  0  0  0  0  0  0  0  0  0  0  0
    5.2412   -0.9736    3.8397 H   0  0  0  0  0  0  0  0  0  0  0  0
   11.2642   -4.2036    0.7851 H   0  0  0  0  0  0  0  0  0  0  0  0
   11.4906   -2.7344    1.7425 H   0  0  0  0  0  0  0  0  0  0  0  0
   10.9923   -2.6381    0.0085 H   0  0  0  0  0  0  0  0  0  0  0  0
  1  2  1  0  0  0  0
  1 29  1  0  0  0  0
  1 30  1  0  0  0  0
  1 31  1  0  0  0  0
  2  3  1  0  0  0  0
  2 32  1  0  0  0  0
  2 33  1  0  0  0  0
  3  4  1  0  0  0  0
  3 34  1  0  0  0  0
  3 35  1  0  0  0  0
  4  5  1  0  0  0  0
  4 36  1  0  0  0  0
  4 37  1  0  0  0  0
  5  6  1  0  0  0  0
  5 38  1  0  0  0  0
  5 39  1  0  0  0  0
  6 26  1  0  0  0  0
  6  7  1  0  0  0  0
  7  8  2  0  0  0  0
  7  9  1  0  0  0  0
  9 10  2  0  0  0  0
  9 18  1  0  0  0  0
 10 11  1  0  0  0  0
 10 40  1  0  0  0  0
 11 12  1  0  0  0  0
 11 41  1  0  0  0  0
 12 17  1  0  0  0  0
 12 13  1  0  0  0  0
 12 42  1  0  0  0  0
 13 14  1  0  0  0  0
 13 43  1  0  0  0  0
 13 44  1  0  0  0  0
 14 15  1  0  0  0  0
 14 45  1  0  0  0  0
 14 46  1  0  0  0  0
 15 16  1  0  0  0  0
 15 47  1  0  0  0  0
 15 48  1  0  0  0  0
 16 17  1  0  0  0  0
 16 49  1  0  0  0  0
 16 50  1  0  0  0  0
 17 51  1  0  0  0  0
 17 52  1  0  0  0  0
 18 19  2  0  0  0  0
 18 20  1  0  0  0  0
 20 26  2  0  0  0  0
 20 21  1  0  0  0  0
 21 22  2  0  0  0  0
 21 53  1  0  0  0  0
 22 23  1  0  0  0  0
 22 27  1  0  0  0  0
 23 24  2  0  0  0  0
 23 54  1  0  0  0  0
 24 25  1  0  0  0  0
 24 26  1  0  0  0  0
 25 55  1  0  0  0  0
 25 56  1  0  0  0  0
 25 57  1  0  0  0  0
 27 28  1  0  0  0  0
 28 58  1  0  0  0  0
 28 59  1  0  0  0  0
 28 60  1  0  0  0  0
M  END
$$$$
CHEMBL3897056
 OpenBabel12022418093D

 53 55  0  0  1  0  0  0  0  0999 V2000
   -2.2207    0.2248   -0.0602 C   0  0  0  0  0  0  0  0  0  0  0  0
   -0.7505    0.2751   -0.0086 C   0  0  0  0  0  0  0  0  0  0  0  0
    0.0363    1.3170    0.1287 N   0  0  0  0  0  0  0  0  0  0  0  0
    1.2871    0.7661   -0.0399 C   0  0  0  0  0  0  0  0  0  0  0  0
    2.5420    1.6360   -0.1320 C   0  0  2  0  0  0  0  0  0  0  0  0
    3.1459    1.4593   -1.5566 C   0  0  0  0  0  0  0  0  0  0  0  0
    3.5836    1.2452    0.9382 C   0  0  0  0  0  0  0  0  0  0  0  0
    3.0422    1.4621    2.6332 S   0  0  0  0  0  0  0  0  0  0  0  0
    2.6947    2.8612    2.8677 O   0  0  0  0  0  0  0  0  0  0  0  0
    2.1328    0.4036    2.9839 O   0  0  0  0  0  0  0  0  0  0  0  0
    4.5181    1.1878    3.5826 C   0  0  0  0  0  0  0  0  0  0  0  0
    2.1528    3.0676   -0.0279 N   0  0  0  0  0  0  0  0  0  0  0  0
    3.0516    4.1189   -0.1517 C   0  0  0  0  0  0  0  0  0  0  0  0
    4.2489    3.9551   -0.3506 O   0  0  0  0  0  0  0  0  0  0  0  0
    2.5001    5.5174   -0.0444 C   0  0  0  0  0  0  0  0  0  0  0  0
    3.3377    6.6320   -0.1744 C   0  0  0  0  0  0  0  0  0  0  0  0
    2.7688    7.9059   -0.0634 C   0  0  0  0  0  0  0  0  0  0  0  0
    1.3892    8.0059    0.1307 C   0  0  0  0  0  0  0  0  0  0  0  0
    0.6416    6.8394    0.2316 C   0  0  0  0  0  0  0  0  0  0  0  0
    1.1611    5.5972    0.1523 N   0  0  0  0  0  0  0  0  0  0  0  0
    0.6962    9.3145    0.2468 C   0  0  0  0  0  0  0  0  0  0  0  0
   -0.5845    9.6691    0.4807 C   0  0  0  0  0  0  0  0  0  0  0  0
   -0.2806   11.1484    0.4823 C   0  0  0  0  0  0  0  0  0  0  0  0
    1.1479   10.7539    0.0686 C   0  0  0  0  0  0  0  0  0  0  0  0
    3.4695    9.0773   -0.1578 O   0  0  0  0  0  0  0  0  0  0  0  0
    4.8121    9.0889    0.3358 C   0  0  0  0  0  0  0  0  0  0  0  0
    5.4304   10.4760    0.1883 C   0  0  0  0  0  0  0  0  0  0  0  0
    4.5752   11.3711   -0.3515 F   0  0  0  0  0  0  0  0  0  0  0  0
    5.8378   10.9685    1.3804 F   0  0  0  0  0  0  0  0  0  0  0  0
    6.5215   10.4224   -0.6155 F   0  0  0  0  0  0  0  0  0  0  0  0
    1.2882   -0.5727   -0.1819 N   0  0  0  0  0  0  0  0  0  0  0  0
   -0.0762   -0.8996   -0.1781 O   0  0  0  0  0  0  0  0  0  0  0  0
   -2.5835   -0.8026   -0.1537 H   0  0  0  0  0  0  0  0  0  0  0  0
   -2.5896    0.7946   -0.9201 H   0  0  0  0  0  0  0  0  0  0  0  0
   -2.6430    0.6612    0.8484 H   0  0  0  0  0  0  0  0  0  0  0  0
    4.0470    2.0672   -1.6852 H   0  0  0  0  0  0  0  0  0  0  0  0
    2.4348    1.7802   -2.3308 H   0  0  0  0  0  0  0  0  0  0  0  0
    3.4172    0.4237   -1.7896 H   0  0  0  0  0  0  0  0  0  0  0  0
    4.4924    1.8421    0.8509 H   0  0  0  0  0  0  0  0  0  0  0  0
    3.8650    0.1893    0.8423 H   0  0  0  0  0  0  0  0  0  0  0  0
    5.2741    1.9218    3.2993 H   0  0  0  0  0  0  0  0  0  0  0  0
    4.8710    0.1695    3.4113 H   0  0  0  0  0  0  0  0  0  0  0  0
    4.2599    1.3175    4.6378 H   0  0  0  0  0  0  0  0  0  0  0  0
    1.1875    3.2839    0.2249 H   0  0  0  0  0  0  0  0  0  0  0  0
    4.3956    6.4830   -0.3591 H   0  0  0  0  0  0  0  0  0  0  0  0
   -0.4351    6.8674    0.3618 H   0  0  0  0  0  0  0  0  0  0  0  0
   -1.4982    9.1150    0.6733 H   0  0  0  0  0  0  0  0  0  0  0  0
   -0.3466   11.6470    1.4550 H   0  0  0  0  0  0  0  0  0  0  0  0
   -0.8178   11.7535   -0.2548 H   0  0  0  0  0  0  0  0  0  0  0  0
    1.4075   11.0364   -0.9582 H   0  0  0  0  0  0  0  0  0  0  0  0
    1.9339   11.1194    0.7376 H   0  0  0  0  0  0  0  0  0  0  0  0
    5.4168    8.3835   -0.2408 H   0  0  0  0  0  0  0  0  0  0  0  0
    4.8272    8.8079    1.3960 H   0  0  0  0  0  0  0  0  0  0  0  0
  1  2  1  0  0  0  0
  1 33  1  0  0  0  0
  1 34  1  0  0  0  0
  1 35  1  0  0  0  0
  2 32  1  0  0  0  0
  2  3  2  0  0  0  0
  3  4  1  0  0  0  0
  4 31  2  0  0  0  0
  5  7  1  1  0  0  0
  5 12  1  0  0  0  0
  5  6  1  0  0  0  0
  5  4  1  0  0  0  0
  6 36  1  0  0  0  0
  6 37  1  0  0  0  0
  6 38  1  0  0  0  0
  7  8  1  0  0  0  0
  7 39  1  0  0  0  0
  7 40  1  0  0  0  0
  8  9  2  0  0  0  0
  8 10  2  0  0  0  0
  8 11  1  0  0  0  0
 11 41  1  0  0  0  0
 11 42  1  0  0  0  0
 11 43  1  0  0  0  0
 12 13  1  0  0  0  0
 12 44  1  0  0  0  0
 13 14  2  0  0  0  0
 13 15  1  0  0  0  0
 15 20  2  0  0  0  0
 15 16  1  0  0  0  0
 16 17  2  0  0  0  0
 16 45  1  0  0  0  0
 17 18  1  0  0  0  0
 17 25  1  0  0  0  0
 18 19  2  0  0  0  0
 18 21  1  0  0  0  0
 19 20  1  0  0  0  0
 19 46  1  0  0  0  0
 21 24  1  0  0  0  0
 21 22  2  0  0  0  0
 22 23  1  0  0  0  0
 22 47  1  0  0  0  0
 23 24  1  0  0  0  0
 23 48  1  0  0  0  0
 23 49  1  0  0  0  0
 24 50  1  0  0  0  0
 24 51  1  0  0  0  0
 25 26  1  0  0  0  0
 26 27  1  0  0  0  0
 26 52  1  0  0  0  0
 26 53  1  0  0  0  0
 27 28  1  0  0  0  0
 27 29  1  0  0  0  0
 27 30  1  0  0  0  0
 31 32  1  0  0  0  0
M  END
$$$$
CHEMBL3590621
 OpenBabel12022418093D

 50 52  0  0  0  0  0  0  0  0999 V2000
    1.3375   -3.1151    0.2601 C   0  0  0  0  0  0  0  0  0  0  0  0
    2.3106   -2.2688    1.0649 C   0  0  0  0  0  0  0  0  0  0  0  0
    3.5756   -1.9541    0.2590 C   0  0  0  0  0  0  0  0  0  0  0  0
    4.6637   -1.2324    1.0898 C   0  0  0  0  0  0  0  0  0  0  0  0
    5.0436   -1.9553    2.2997 N   0  0  0  0  0  0  0  0  0  0  0  0
    5.4114   -3.2892    2.0599 C   0  0  0  0  0  0  0  0  0  0  0  0
    5.9152   -3.6984    1.0170 O   0  0  0  0  0  0  0  0  0  0  0  0
    4.8968   -4.2123    3.0812 C   0  0  0  0  0  0  0  0  0  0  0  0
    4.0924   -5.2031    2.6560 C   0  0  0  0  0  0  0  0  0  0  0  0
    3.2563   -5.9959    3.4085 N   0  0  0  0  0  0  0  0  0  0  0  0
    2.3398   -6.9930    2.9067 C   0  0  0  0  0  0  0  0  0  0  0  0
    2.9536   -8.3821    2.9553 C   0  0  0  0  0  0  0  0  0  0  0  0
    1.7471   -9.3068    2.8816 C   0  0  0  0  0  0  0  0  0  0  0  0
    0.5993   -8.5445    3.5451 C   0  0  0  0  0  0  0  0  0  0  0  0
    1.1197   -7.1336    3.8129 C   0  0  0  0  0  0  0  0  0  0  0  0
    4.9180   -3.8246    4.4901 C   0  0  0  0  0  0  0  0  0  0  0  0
    4.8936   -4.6366    5.4077 O   0  0  0  0  0  0  0  0  0  0  0  0
    4.8962   -2.3654    4.7246 C   0  0  0  0  0  0  0  0  0  0  0  0
    4.7853   -1.9700    6.0679 C   0  0  0  0  0  0  0  0  0  0  0  0
    4.6458   -0.6342    6.3863 C   0  0  0  0  0  0  0  0  0  0  0  0
    4.6395    0.3027    5.3630 C   0  0  0  0  0  0  0  0  0  0  0  0
    4.7874   -0.0630    3.9994 C   0  0  0  0  0  0  0  0  0  0  0  0
    4.8692    1.1154    3.0632 C   0  0  0  0  0  0  0  0  0  0  0  0
    4.8880   -1.4381    3.6470 C   0  0  0  0  0  0  0  0  0  0  0  0
    0.4502   -3.3435    0.8588 H   0  0  0  0  0  0  0  0  0  0  0  0
    1.7964   -4.0650   -0.0349 H   0  0  0  0  0  0  0  0  0  0  0  0
    1.0169   -2.5906   -0.6448 H   0  0  0  0  0  0  0  0  0  0  0  0
    2.5518   -2.8161    1.9802 H   0  0  0  0  0  0  0  0  0  0  0  0
    1.8262   -1.3367    1.3743 H   0  0  0  0  0  0  0  0  0  0  0  0
    3.3112   -1.3177   -0.5942 H   0  0  0  0  0  0  0  0  0  0  0  0
    3.9728   -2.8790   -0.1734 H   0  0  0  0  0  0  0  0  0  0  0  0
    4.2577   -0.2542    1.2991 H   0  0  0  0  0  0  0  0  0  0  0  0
    5.5620   -1.0986    0.4765 H   0  0  0  0  0  0  0  0  0  0  0  0
    3.9765   -5.3756    1.5852 H   0  0  0  0  0  0  0  0  0  0  0  0
    3.4386   -5.9824    4.4168 H   0  0  0  0  0  0  0  0  0  0  0  0
    2.0077   -6.7509    1.8881 H   0  0  0  0  0  0  0  0  0  0  0  0
    3.4934   -8.5400    3.8977 H   0  0  0  0  0  0  0  0  0  0  0  0
    3.6584   -8.5532    2.1362 H   0  0  0  0  0  0  0  0  0  0  0  0
    1.9400  -10.2669    3.3704 H   0  0  0  0  0  0  0  0  0  0  0  0
    1.4966   -9.5134    1.8340 H   0  0  0  0  0  0  0  0  0  0  0  0
    0.2841   -9.0252    4.4772 H   0  0  0  0  0  0  0  0  0  0  0  0
   -0.2709   -8.5197    2.8798 H   0  0  0  0  0  0  0  0  0  0  0  0
    0.3605   -6.3709    3.6081 H   0  0  0  0  0  0  0  0  0  0  0  0
    1.3977   -7.0387    4.8705 H   0  0  0  0  0  0  0  0  0  0  0  0
    4.7847   -2.7114    6.8655 H   0  0  0  0  0  0  0  0  0  0  0  0
    4.5463   -0.3226    7.4225 H   0  0  0  0  0  0  0  0  0  0  0  0
    4.5413    1.3525    5.6411 H   0  0  0  0  0  0  0  0  0  0  0  0
    5.0298    2.0538    3.6086 H   0  0  0  0  0  0  0  0  0  0  0  0
    3.9272    1.2482    2.5233 H   0  0  0  0  0  0  0  0  0  0  0  0
    5.7196    1.0180    2.3820 H   0  0  0  0  0  0  0  0  0  0  0  0
  1  2  1  0  0  0  0
  1 25  1  0  0  0  0
  1 26  1  0  0  0  0
  1 27  1  0  0  0  0
  2  3  1  0  0  0  0
  2 28  1  0  0  0  0
  2 29  1  0  0  0  0
  3  4  1  0  0  0  0
  3 30  1  0  0  0  0
  3 31  1  0  0  0  0
  4  5  1  0  0  0  0
  4 32  1  0  0  0  0
  4 33  1  0  0  0  0
  5 24  1  0  0  0  0
  5  6  1  0  0  0  0
  6  7  2  0  0  0  0
  6  8  1  0  0  0  0
  8  9  2  0  0  0  0
  8 16  1  0  0  0  0
  9 10  1  0  0  0  0
  9 34  1  0  0  0  0
 10 11  1  0  0  0  0
 10 35  1  0  0  0  0
 11 15  1  0  0  0  0
 11 12  1  0  0  0  0
 11 36  1  0  0  0  0
 12 13  1  0  0  0  0
 12 37  1  0  0  0  0
 12 38  1  0  0  0  0
 13 14  1  0  0  0  0
 13 39  1  0  0  0  0
 13 40  1  0  0  0  0
 14 15  1  0  0  0  0
 14 41  1  0  0  0  0
 14 42  1  0  0  0  0
 15 43  1  0  0  0  0
 15 44  1  0  0  0  0
 16 17  2  0  0  0  0
 16 18  1  0  0  0  0
 18 24  2  0  0  0  0
 18 19  1  0  0  0  0
 19 20  2  0  0  0  0
 19 45  1  0  0  0  0
 20 21  1  0  0  0  0
 20 46  1  0  0  0  0
 21 22  2  0  0  0  0
 21 47  1  0  0  0  0
 22 23  1  0  0  0  0
 22 24  1  0  0  0  0
 23 48  1  0  0  0  0
 23 49  1  0  0  0  0
 23 50  1  0  0  0  0
M  END
$$$$
CHEMBL410243
 OpenBabel12022418093D

 54 55  0  0  0  0  0  0  0  0999 V2000
    0.7379   -1.5039    4.2121 C   0  0  0  0  0  0  0  0  0  0  0  0
    2.2333   -1.5251    4.4576 C   0  0  0  0  0  0  0  0  0  0  0  0
    2.8492   -0.6314    3.5340 O   0  0  0  0  0  0  0  0  0  0  0  0
    4.2717   -0.6021    3.7034 C   0  0  0  0  0  0  0  0  0  0  0  0
    4.8798    0.3550    2.6777 C   0  0  0  0  0  0  0  0  0  0  0  0
    6.3241    0.4420    2.8162 N   0  0  0  0  0  0  0  0  0  0  0  0
    7.1933   -0.6522    2.8654 C   0  0  0  0  0  0  0  0  0  0  0  0
    6.8204   -1.8905    3.0017 N   0  0  0  0  0  0  0  0  0  0  0  0
    7.7190   -2.9050    3.0843 C   0  0  0  0  0  0  0  0  0  0  0  0
    8.8531   -2.8263    3.5678 O   0  0  0  0  0  0  0  0  0  0  0  0
    7.2610   -4.2428    2.6677 C   0  0  0  0  0  0  0  0  0  0  0  0
    7.7670   -5.3650    3.3405 C   0  0  0  0  0  0  0  0  0  0  0  0
    7.3917   -6.6455    2.9461 C   0  0  0  0  0  0  0  0  0  0  0  0
    6.5226   -6.8042    1.8695 C   0  0  0  0  0  0  0  0  0  0  0  0
    6.0248   -5.6900    1.1701 C   0  0  0  0  0  0  0  0  0  0  0  0
    5.1050   -5.8822    0.0001 C   0  0  0  0  0  0  0  0  0  0  0  0
    4.8787   -7.2044   -0.2599 F   0  0  0  0  0  0  0  0  0  0  0  0
    3.8764   -5.3385    0.2005 F   0  0  0  0  0  0  0  0  0  0  0  0
    5.5727   -5.3641   -1.1665 F   0  0  0  0  0  0  0  0  0  0  0  0
    6.3950   -4.4079    1.5847 C   0  0  0  0  0  0  0  0  0  0  0  0
    5.9536   -3.3466    0.8983 F   0  0  0  0  0  0  0  0  0  0  0  0
    8.5797   -0.1340    2.7325 C   0  0  0  0  0  0  0  0  0  0  0  0
    8.4516    1.2032    2.5527 C   0  0  0  0  0  0  0  0  0  0  0  0
    9.6424    2.1635    2.4499 C   0  0  0  0  0  0  0  0  0  0  0  0
   10.9856    1.3989    2.5763 C   0  0  0  0  0  0  0  0  0  0  0  0
    9.6259    2.9357    1.1198 C   0  0  0  0  0  0  0  0  0  0  0  0
    9.6391    3.2092    3.5853 C   0  0  0  0  0  0  0  0  0  0  0  0
    7.0888    1.5599    2.5003 N   0  0  0  0  0  0  0  0  0  0  0  0
    6.5146    2.8888    2.3875 C   0  0  0  0  0  0  0  0  0  0  0  0
    0.2194   -2.1709    4.9062 H   0  0  0  0  0  0  0  0  0  0  0  0
    0.5093   -1.8137    3.1869 H   0  0  0  0  0  0  0  0  0  0  0  0
    0.3417   -0.4902    4.3338 H   0  0  0  0  0  0  0  0  0  0  0  0
    2.6207   -2.5400    4.3136 H   0  0  0  0  0  0  0  0  0  0  0  0
    2.4465   -1.1995    5.4810 H   0  0  0  0  0  0  0  0  0  0  0  0
    4.6460   -1.6176    3.5682 H   0  0  0  0  0  0  0  0  0  0  0  0
    4.5177   -0.2755    4.7210 H   0  0  0  0  0  0  0  0  0  0  0  0
    4.4079    1.3322    2.8263 H   0  0  0  0  0  0  0  0  0  0  0  0
    4.5976    0.0531    1.6616 H   0  0  0  0  0  0  0  0  0  0  0  0
    8.4622   -5.2391    4.1701 H   0  0  0  0  0  0  0  0  0  0  0  0
    7.7852   -7.5149    3.4682 H   0  0  0  0  0  0  0  0  0  0  0  0
    6.2396   -7.8118    1.5622 H   0  0  0  0  0  0  0  0  0  0  0  0
    9.4695   -0.7221    2.8086 H   0  0  0  0  0  0  0  0  0  0  0  0
   11.1566    0.7087    1.7409 H   0  0  0  0  0  0  0  0  0  0  0  0
   11.0211    0.8136    3.5054 H   0  0  0  0  0  0  0  0  0  0  0  0
   11.8371    2.0886    2.6025 H   0  0  0  0  0  0  0  0  0  0  0  0
    9.7525    2.2870    0.2491 H   0  0  0  0  0  0  0  0  0  0  0  0
   10.4173    3.6910    1.0910 H   0  0  0  0  0  0  0  0  0  0  0  0
    8.6906    3.4780    0.9888 H   0  0  0  0  0  0  0  0  0  0  0  0
    9.6877    2.7395    4.5730 H   0  0  0  0  0  0  0  0  0  0  0  0
    8.7521    3.8421    3.5506 H   0  0  0  0  0  0  0  0  0  0  0  0
   10.4983    3.8851    3.5009 H   0  0  0  0  0  0  0  0  0  0  0  0
    5.4269    2.8881    2.3164 H   0  0  0  0  0  0  0  0  0  0  0  0
    6.8378    3.3812    1.4706 H   0  0  0  0  0  0  0  0  0  0  0  0
    6.7655    3.5101    3.2477 H   0  0  0  0  0  0  0  0  0  0  0  0
  1  2  1  0  0  0  0
  1 30  1  0  0  0  0
  1 31  1  0  0  0  0
  1 32  1  0  0  0  0
  2  3  1  0  0  0  0
  2 33  1  0  0  0  0
  2 34  1  0  0  0  0
  3  4  1  0  0  0  0
  4  5  1  0  0  0  0
  4 35  1  0  0  0  0
  4 36  1  0  0  0  0
  5  6  1  0  0  0  0
  5 37  1  0  0  0  0
  5 38  1  0  0  0  0
  6 28  1  0  0  0  0
  6  7  1  0  0  0  0
  7  8  2  0  0  0  0
  7 22  1  0  0  0  0
  8  9  1  0  0  0  0
  9 10  2  0  0  0  0
  9 11  1  0  0  0  0
 11 20  2  0  0  0  0
 11 12  1  0  0  0  0
 12 13  2  0  0  0  0
 12 39  1  0  0  0  0
 13 14  1  0  0  0  0
 13 40  1  0  0  0  0
 14 15  2  0  0  0  0
 14 41  1  0  0  0  0
 15 16  1  0  0  0  0
 15 20  1  0  0  0  0
 16 17  1  0  0  0  0
 16 18  1  0  0  0  0
 16 19  1  0  0  0  0
 20 21  1  0  0  0  0
 22 23  2  0  0  0  0
 22 42  1  0  0  0  0
 23 24  1  0  0  0  0
 23 28  1  0  0  0  0
 24 25  1  0  0  0  0
 24 26  1  0  0  0  0
 24 27  1  0  0  0  0
 25 43  1  0  0  0  0
 25 44  1  0  0  0  0
 25 45  1  0  0  0  0
 26 46  1  0  0  0  0
 26 47  1  0  0  0  0
 26 48  1  0  0  0  0
 27 49  1  0  0  0  0
 27 50  1  0  0  0  0
 27 51  1  0  0  0  0
 28 29  1  0  0  0  0
 29 52  1  0  0  0  0
 29 53  1  0  0  0  0
 29 54  1  0  0  0  0
M  END
$$$$
CHEMBL3910524
 OpenBabel12022418093D

 53 56  0  0  1  0  0  0  0  0999 V2000
    8.9117    4.0807   -3.1439 C   0  0  0  0  0  0  0  0  0  0  0  0
    7.7465    3.3444   -2.6193 C   0  0  0  0  0  0  0  0  0  0  0  0
    6.7732    3.7417   -1.8274 N   0  0  0  0  0  0  0  0  0  0  0  0
    6.0271    2.5853   -1.6882 C   0  0  0  0  0  0  0  0  0  0  0  0
    4.7915    2.4707   -0.7852 C   0  0  1  0  0  0  0  0  0  0  0  0
    3.8148    1.4519   -1.4310 C   0  0  0  0  0  0  0  0  0  0  0  0
    5.1048    2.0297    0.6510 C   0  0  0  0  0  0  0  0  0  0  0  0
    6.4402    1.4694    1.1032 C   0  0  0  0  0  0  0  0  0  0  0  0
    6.0158    2.8414    1.5469 C   0  0  0  0  0  0  0  0  0  0  0  0
    4.1427    3.7964   -0.7202 N   0  0  0  0  0  0  0  0  0  0  0  0
    2.9656    4.0655   -0.0490 C   0  0  0  0  0  0  0  0  0  0  0  0
    2.3150    3.2318    0.5724 O   0  0  0  0  0  0  0  0  0  0  0  0
    2.5046    5.4922   -0.0812 C   0  0  0  0  0  0  0  0  0  0  0  0
    1.4555    5.8916    0.7412 C   0  0  0  0  0  0  0  0  0  0  0  0
    1.1237    7.2497    0.7991 C   0  0  0  0  0  0  0  0  0  0  0  0
    1.7541    8.1621   -0.0716 C   0  0  0  0  0  0  0  0  0  0  0  0
    2.7738    7.6231   -0.8741 C   0  0  0  0  0  0  0  0  0  0  0  0
    3.1885    6.3349   -0.8887 N   0  0  0  0  0  0  0  0  0  0  0  0
    1.4990    9.6569   -0.1299 C   0  0  0  0  0  0  0  0  0  0  0  0
    0.8687   10.2356   -1.3838 C   0  0  0  0  0  0  0  0  0  0  0  0
    0.1378   10.3013   -0.0792 C   0  0  0  0  0  0  0  0  0  0  0  0
    0.2244    7.7724    1.6990 O   0  0  0  0  0  0  0  0  0  0  0  0
   -0.0206    7.0636    2.9363 C   0  0  1  0  0  0  0  0  0  0  0  0
    1.2472    6.9911    3.7953 C   0  0  0  0  0  0  0  0  0  0  0  0
   -1.1433    7.7547    3.7474 C   0  0  0  0  0  0  0  0  0  0  0  0
   -1.7334    8.7646    3.0700 F   0  0  0  0  0  0  0  0  0  0  0  0
   -2.1185    6.8627    4.0555 F   0  0  0  0  0  0  0  0  0  0  0  0
   -0.6998    8.2678    4.9203 F   0  0  0  0  0  0  0  0  0  0  0  0
    6.5113    1.5357   -2.3761 N   0  0  0  0  0  0  0  0  0  0  0  0
    7.6459    2.0406   -2.9957 O   0  0  0  0  0  0  0  0  0  0  0  0
    9.6073    3.4058   -3.6632 H   0  0  0  0  0  0  0  0  0  0  0  0
    9.4621    4.5621   -2.3327 H   0  0  0  0  0  0  0  0  0  0  0  0
    8.5931    4.8442   -3.8569 H   0  0  0  0  0  0  0  0  0  0  0  0
    4.2582    0.4499   -1.4766 H   0  0  0  0  0  0  0  0  0  0  0  0
    3.5534    1.7528   -2.4533 H   0  0  0  0  0  0  0  0  0  0  0  0
    2.8801    1.3495   -0.8725 H   0  0  0  0  0  0  0  0  0  0  0  0
    4.2238    1.6101    1.1314 H   0  0  0  0  0  0  0  0  0  0  0  0
    7.2730    1.4046    0.4139 H   0  0  0  0  0  0  0  0  0  0  0  0
    6.4264    0.6716    1.8383 H   0  0  0  0  0  0  0  0  0  0  0  0
    5.7115    2.9732    2.5804 H   0  0  0  0  0  0  0  0  0  0  0  0
    6.5337    3.6963    1.1282 H   0  0  0  0  0  0  0  0  0  0  0  0
    4.6373    4.5860   -1.1290 H   0  0  0  0  0  0  0  0  0  0  0  0
    0.9547    5.1431    1.3439 H   0  0  0  0  0  0  0  0  0  0  0  0
    3.3297    8.2795   -1.5400 H   0  0  0  0  0  0  0  0  0  0  0  0
    2.3024   10.2524    0.3022 H   0  0  0  0  0  0  0  0  0  0  0  0
    0.4555    9.5759   -2.1397 H   0  0  0  0  0  0  0  0  0  0  0  0
    1.2859   11.1529   -1.7852 H   0  0  0  0  0  0  0  0  0  0  0  0
    0.0623   11.2703    0.4051 H   0  0  0  0  0  0  0  0  0  0  0  0
   -0.7490    9.6899    0.0324 H   0  0  0  0  0  0  0  0  0  0  0  0
   -0.3828    6.0547    2.7117 H   0  0  0  0  0  0  0  0  0  0  0  0
    1.6232    7.9984    4.0062 H   0  0  0  0  0  0  0  0  0  0  0  0
    2.0582    6.4581    3.2928 H   0  0  0  0  0  0  0  0  0  0  0  0
    1.0543    6.4795    4.7436 H   0  0  0  0  0  0  0  0  0  0  0  0
  1  2  1  0  0  0  0
  1 31  1  0  0  0  0
  1 32  1  0  0  0  0
  1 33  1  0  0  0  0
  2 30  1  0  0  0  0
  2  3  2  0  0  0  0
  3  4  1  0  0  0  0
  4  5  1  0  0  0  0
  4 29  2  0  0  0  0
  5  6  1  6  0  0  0
  5  7  1  0  0  0  0
  5 10  1  0  0  0  0
  6 34  1  0  0  0  0
  6 35  1  0  0  0  0
  6 36  1  0  0  0  0
  7  9  1  0  0  0  0
  7  8  1  0  0  0  0
  7 37  1  0  0  0  0
  8  9  1  0  0  0  0
  8 38  1  0  0  0  0
  8 39  1  0  0  0  0
  9 40  1  0  0  0  0
  9 41  1  0  0  0  0
 10 11  1  0  0  0  0
 10 42  1  0  0  0  0
 11 12  2  0  0  0  0
 11 13  1  0  0  0  0
 13 18  2  0  0  0  0
 13 14  1  0  0  0  0
 14 15  2  0  0  0  0
 14 43  1  0  0  0  0
 15 16  1  0  0  0  0
 15 22  1  0  0  0  0
 16 17  2  0  0  0  0
 16 19  1  0  0  0  0
 17 18  1  0  0  0  0
 17 44  1  0  0  0  0
 19 21  1  0  0  0  0
 19 20  1  0  0  0  0
 19 45  1  0  0  0  0
 20 21  1  0  0  0  0
 20 46  1  0  0  0  0
 20 47  1  0  0  0  0
 21 48  1  0  0  0  0
 21 49  1  0  0  0  0
 22 23  1  0  0  0  0
 23 24  1  0  0  0  0
 23 25  1  0  0  0  0
 23 50  1  6  0  0  0
 24 51  1  0  0  0  0
 24 52  1  0  0  0  0
 24 53  1  0  0  0  0
 25 26  1  0  0  0  0
 25 27  1  0  0  0  0
 25 28  1  0  0  0  0
 29 30  1  0  0  0  0
M  END
$$$$
CHEMBL582810
 OpenBabel12022418093D

 52 55  0  0  0  0  0  0  0  0999 V2000
    1.9048    1.6181   -2.4643 C   0  0  0  0  0  0  0  0  0  0  0  0
    1.0642    0.7673   -1.5316 C   0  0  0  0  0  0  0  0  0  0  0  0
   -0.4018    1.1414   -1.6439 C   0  0  0  0  0  0  0  0  0  0  0  0
    1.3824   -0.7229   -1.3606 C   0  0  0  0  0  0  0  0  0  0  0  0
    2.4915   -1.4290   -2.0881 C   0  0  0  0  0  0  0  0  0  0  0  0
    3.3237   -0.8184   -2.7494 O   0  0  0  0  0  0  0  0  0  0  0  0
    2.4802   -2.8894   -2.0309 C   0  0  0  0  0  0  0  0  0  0  0  0
    2.9581   -3.6807   -3.0633 C   0  0  0  0  0  0  0  0  0  0  0  0
    2.8075   -5.0004   -2.7252 N   0  0  0  0  0  0  0  0  0  0  0  0
    3.1498   -6.1119   -3.6060 C   0  0  0  0  0  0  0  0  0  0  0  0
    4.6299   -6.1462   -3.9940 C   0  0  0  0  0  0  0  0  0  0  0  0
    4.9884   -7.3122   -4.8867 C   0  0  0  0  0  0  0  0  0  0  0  0
    6.2930   -7.4359   -5.3618 C   0  0  0  0  0  0  0  0  0  0  0  0
    6.6070   -8.4960   -6.2087 C   0  0  0  0  0  0  0  0  0  0  0  0
    5.6176   -9.4069   -6.5557 C   0  0  0  0  0  0  0  0  0  0  0  0
    4.3502   -9.2208   -6.0325 C   0  0  0  0  0  0  0  0  0  0  0  0
    4.0172   -8.1992   -5.2113 N   0  0  0  0  0  0  0  0  0  0  0  0
    2.2258   -5.1008   -1.4767 C   0  0  0  0  0  0  0  0  0  0  0  0
    1.8604   -6.2226   -0.7129 C   0  0  0  0  0  0  0  0  0  0  0  0
    1.2880   -6.0184    0.5433 C   0  0  0  0  0  0  0  0  0  0  0  0
    1.0999   -4.7361    1.0381 C   0  0  0  0  0  0  0  0  0  0  0  0
    1.4713   -3.6243    0.2774 C   0  0  0  0  0  0  0  0  0  0  0  0
    2.0265   -3.7900   -1.0107 C   0  0  0  0  0  0  0  0  0  0  0  0
    1.6303    0.2359   -0.1967 C   0  0  0  0  0  0  0  0  0  0  0  0
    3.0416    0.5871    0.2217 C   0  0  0  0  0  0  0  0  0  0  0  0
    0.7207    0.1018    1.0100 C   0  0  0  0  0  0  0  0  0  0  0  0
    1.6324    2.6744   -2.3650 H   0  0  0  0  0  0  0  0  0  0  0  0
    1.7166    1.3224   -3.5027 H   0  0  0  0  0  0  0  0  0  0  0  0
    2.9796    1.5586   -2.2896 H   0  0  0  0  0  0  0  0  0  0  0  0
   -0.5330    2.2169   -1.4806 H   0  0  0  0  0  0  0  0  0  0  0  0
   -1.0446    0.6205   -0.9313 H   0  0  0  0  0  0  0  0  0  0  0  0
   -0.7702    0.9012   -2.6470 H   0  0  0  0  0  0  0  0  0  0  0  0
    0.4943   -1.3500   -1.2926 H   0  0  0  0  0  0  0  0  0  0  0  0
    3.3774   -3.3887   -4.0177 H   0  0  0  0  0  0  0  0  0  0  0  0
    2.5088   -6.0121   -4.4901 H   0  0  0  0  0  0  0  0  0  0  0  0
    2.8717   -7.0439   -3.1051 H   0  0  0  0  0  0  0  0  0  0  0  0
    5.2495   -6.1890   -3.0897 H   0  0  0  0  0  0  0  0  0  0  0  0
    4.8934   -5.2240   -4.5265 H   0  0  0  0  0  0  0  0  0  0  0  0
    7.0562   -6.7149   -5.0862 H   0  0  0  0  0  0  0  0  0  0  0  0
    7.6148   -8.6065   -6.5990 H   0  0  0  0  0  0  0  0  0  0  0  0
    5.8276  -10.2393   -7.2166 H   0  0  0  0  0  0  0  0  0  0  0  0
    3.5419   -9.9059   -6.2705 H   0  0  0  0  0  0  0  0  0  0  0  0
    2.0091   -7.2335   -1.0799 H   0  0  0  0  0  0  0  0  0  0  0  0
    0.9927   -6.8763    1.1424 H   0  0  0  0  0  0  0  0  0  0  0  0
    0.6619   -4.5924    2.0226 H   0  0  0  0  0  0  0  0  0  0  0  0
    1.3270   -2.6349    0.6938 H   0  0  0  0  0  0  0  0  0  0  0  0
    3.7566    0.6352   -0.6003 H   0  0  0  0  0  0  0  0  0  0  0  0
    3.4205   -0.1602    0.9274 H   0  0  0  0  0  0  0  0  0  0  0  0
    3.0450    1.5593    0.7269 H   0  0  0  0  0  0  0  0  0  0  0  0
   -0.2415   -0.3605    0.7716 H   0  0  0  0  0  0  0  0  0  0  0  0
    0.5336    1.0841    1.4566 H   0  0  0  0  0  0  0  0  0  0  0  0
    1.1893   -0.5304    1.7717 H   0  0  0  0  0  0  0  0  0  0  0  0
  1  2  1  0  0  0  0
  1 27  1  0  0  0  0
  1 28  1  0  0  0  0
  1 29  1  0  0  0  0
  2 24  1  0  0  0  0
  2  3  1  0  0  0  0
  2  4  1  0  0  0  0
  3 30  1  0  0  0  0
  3 31  1  0  0  0  0
  3 32  1  0  0  0  0
  4  5  1  0  0  0  0
  4 24  1  0  0  0  0
  4 33  1  0  0  0  0
  5  6  2  0  0  0  0
  5  7  1  0  0  0  0
  7 23  1  0  0  0  0
  7  8  2  0  0  0  0
  8  9  1  0  0  0  0
  8 34  1  0  0  0  0
  9 10  1  0  0  0  0
  9 18  1  0  0  0  0
 10 11  1  0  0  0  0
 10 35  1  0  0  0  0
 10 36  1  0  0  0  0
 11 12  1  0  0  0  0
 11 37  1  0  0  0  0
 11 38  1  0  0  0  0
 12 17  2  0  0  0  0
 12 13  1  0  0  0  0
 13 14  2  0  0  0  0
 13 39  1  0  0  0  0
 14 15  1  0  0  0  0
 14 40  1  0  0  0  0
 15 16  2  0  0  0  0
 15 41  1  0  0  0  0
 16 17  1  0  0  0  0
 16 42  1  0  0  0  0
 18 23  2  0  0  0  0
 18 19  1  0  0  0  0
 19 20  2  0  0  0  0
 19 43  1  0  0  0  0
 20 21  1  0  0  0  0
 20 44  1  0  0  0  0
 21 22  2  0  0  0  0
 21 45  1  0  0  0  0
 22 23  1  0  0  0  0
 22 46  1  0  0  0  0
 24 25  1  0  0  0  0
 24 26  1  0  0  0  0
 25 47  1  0  0  0  0
 25 48  1  0  0  0  0
 25 49  1  0  0  0  0
 26 50  1  0  0  0  0
 26 51  1  0  0  0  0
 26 52  1  0  0  0  0
M  END
$$$$
CHEMBL67006
 OpenBabel12022418093D

 64 67  0  0  0  0  0  0  0  0999 V2000
    1.2955    1.0103    0.3587 C   0  0  0  0  0  0  0  0  0  0  0  0
   -0.0252    0.4560    0.0574 C   0  0  0  0  0  0  0  0  0  0  0  0
    0.1535   -0.9354   -0.0295 C   0  0  0  0  0  0  0  0  0  0  0  0
   -0.8771   -1.8471   -0.3816 C   0  0  0  0  0  0  0  0  0  0  0  0
   -2.1478   -1.3101   -0.6080 C   0  0  0  0  0  0  0  0  0  0  0  0
   -2.3636    0.0678   -0.5285 C   0  0  0  0  0  0  0  0  0  0  0  0
   -1.3155    0.9529   -0.2223 C   0  0  0  0  0  0  0  0  0  0  0  0
   -0.6074   -3.1900   -0.3955 O   0  0  0  0  0  0  0  0  0  0  0  0
   -1.3199   -4.0170   -1.3198 C   0  0  0  0  0  0  0  0  0  0  0  0
    1.4883   -1.1481    0.2387 N   0  0  0  0  0  0  0  0  0  0  0  0
    2.1734   -2.4391    0.1123 C   0  0  0  0  0  0  0  0  0  0  0  0
    3.6961   -2.4433    0.3478 C   0  0  0  0  0  0  0  0  0  0  0  0
    4.4552   -3.6933    0.1314 N   0  0  0  0  0  0  0  0  0  0  0  0
    4.5207   -4.6161    1.2751 C   0  0  0  0  0  0  0  0  0  0  0  0
    5.5763   -5.7079    0.9913 C   0  0  0  0  0  0  0  0  0  0  0  0
    5.2583   -6.4441   -0.2004 O   0  0  0  0  0  0  0  0  0  0  0  0
    5.1762   -5.5522   -1.3228 C   0  0  0  0  0  0  0  0  0  0  0  0
    4.1248   -4.4501   -1.0856 C   0  0  0  0  0  0  0  0  0  0  0  0
    2.1611   -0.0249    0.5470 N   0  0  0  0  0  0  0  0  0  0  0  0
    1.9158    2.4051    0.3039 C   0  0  0  0  0  0  0  0  0  0  0  0
    3.0591    2.4829   -0.1783 O   0  0  0  0  0  0  0  0  0  0  0  0
    1.3133    3.6278    0.7123 N   0  0  0  0  0  0  0  0  0  0  0  0
    2.0983    4.8569    0.4172 C   0  0  0  0  0  0  0  0  0  0  0  0
    2.1264    5.3779   -1.0053 C   0  0  0  0  0  0  0  0  0  0  0  0
    1.4588    4.7452   -2.0611 C   0  0  0  0  0  0  0  0  0  0  0  0
    1.4910    5.2397   -3.3673 C   0  0  0  0  0  0  0  0  0  0  0  0
    2.1606    6.4287   -3.6444 C   0  0  0  0  0  0  0  0  0  0  0  0
    2.8206    7.0968   -2.6187 C   0  0  0  0  0  0  0  0  0  0  0  0
    2.8181    6.5710   -1.3190 C   0  0  0  0  0  0  0  0  0  0  0  0
    3.6807    7.4714   -0.1152 Cl  0  0  0  0  0  0  0  0  0  0  0  0
    0.7312    3.6381   -1.8537 F   0  0  0  0  0  0  0  0  0  0  0  0
    0.2030    3.7741    1.6733 C   0  0  0  0  0  0  0  0  0  0  0  0
    0.6558    4.3880    3.0182 C   0  0  0  0  0  0  0  0  0  0  0  0
   -0.9049    4.6592    1.0827 C   0  0  0  0  0  0  0  0  0  0  0  0
   -2.9995   -1.9494   -0.8208 H   0  0  0  0  0  0  0  0  0  0  0  0
   -3.3653    0.4470   -0.7069 H   0  0  0  0  0  0  0  0  0  0  0  0
   -1.5241    2.0146   -0.1931 H   0  0  0  0  0  0  0  0  0  0  0  0
   -1.1752   -5.0590   -1.0107 H   0  0  0  0  0  0  0  0  0  0  0  0
   -0.9036   -3.9104   -2.3265 H   0  0  0  0  0  0  0  0  0  0  0  0
   -2.3989   -3.8470   -1.3339 H   0  0  0  0  0  0  0  0  0  0  0  0
    1.9669   -2.7741   -0.9113 H   0  0  0  0  0  0  0  0  0  0  0  0
    1.6880   -3.1209    0.8181 H   0  0  0  0  0  0  0  0  0  0  0  0
    3.9078   -2.0706    1.3580 H   0  0  0  0  0  0  0  0  0  0  0  0
    4.1444   -1.7036   -0.3273 H   0  0  0  0  0  0  0  0  0  0  0  0
    3.5449   -5.0888    1.4440 H   0  0  0  0  0  0  0  0  0  0  0  0
    4.8097   -4.0873    2.1893 H   0  0  0  0  0  0  0  0  0  0  0  0
    5.6181   -6.4228    1.8195 H   0  0  0  0  0  0  0  0  0  0  0  0
    6.5780   -5.2710    0.8850 H   0  0  0  0  0  0  0  0  0  0  0  0
    4.9038   -6.1502   -2.1986 H   0  0  0  0  0  0  0  0  0  0  0  0
    6.1665   -5.1196   -1.5129 H   0  0  0  0  0  0  0  0  0  0  0  0
    4.1011   -3.7908   -1.9590 H   0  0  0  0  0  0  0  0  0  0  0  0
    3.1387   -4.9220   -0.9817 H   0  0  0  0  0  0  0  0  0  0  0  0
    3.1218    4.7016    0.7858 H   0  0  0  0  0  0  0  0  0  0  0  0
    1.6797    5.6805    1.0021 H   0  0  0  0  0  0  0  0  0  0  0  0
    0.9711    4.7006   -4.1435 H   0  0  0  0  0  0  0  0  0  0  0  0
    2.1704    6.8255   -4.6563 H   0  0  0  0  0  0  0  0  0  0  0  0
    3.3355    8.0308   -2.8385 H   0  0  0  0  0  0  0  0  0  0  0  0
   -0.2050    2.7832    1.8886 H   0  0  0  0  0  0  0  0  0  0  0  0
    1.0280    5.4152    2.9152 H   0  0  0  0  0  0  0  0  0  0  0  0
    1.4568    3.8020    3.4777 H   0  0  0  0  0  0  0  0  0  0  0  0
   -0.1819    4.4444    3.7223 H   0  0  0  0  0  0  0  0  0  0  0  0
   -0.5790    5.6956    0.9534 H   0  0  0  0  0  0  0  0  0  0  0  0
   -1.7821    4.6742    1.7373 H   0  0  0  0  0  0  0  0  0  0  0  0
   -1.2146    4.2955    0.0991 H   0  0  0  0  0  0  0  0  0  0  0  0
  1 19  2  0  0  0  0
  1  2  1  0  0  0  0
  1 20  1  0  0  0  0
  2  7  2  0  0  0  0
  2  3  1  0  0  0  0
  3  4  2  0  0  0  0
  3 10  1  0  0  0  0
  4  5  1  0  0  0  0
  4  8  1  0  0  0  0
  5  6  2  0  0  0  0
  5 35  1  0  0  0  0
  6  7  1  0  0  0  0
  6 36  1  0  0  0  0
  7 37  1  0  0  0  0
  8  9  1  0  0  0  0
  9 38  1  0  0  0  0
  9 39  1  0  0  0  0
  9 40  1  0  0  0  0
 10 11  1  0  0  0  0
 10 19  1  0  0  0  0
 11 12  1  0  0  0  0
 11 41  1  0  0  0  0
 11 42  1  0  0  0  0
 12 13  1  0  0  0  0
 12 43  1  0  0  0  0
 12 44  1  0  0  0  0
 13 18  1  0  0  0  0
 13 14  1  0  0  0  0
 14 15  1  0  0  0  0
 14 45  1  0  0  0  0
 14 46  1  0  0  0  0
 15 16  1  0  0  0  0
 15 47  1  0  0  0  0
 15 48  1  0  0  0  0
 16 17  1  0  0  0  0
 17 18  1  0  0  0  0
 17 49  1  0  0  0  0
 17 50  1  0  0  0  0
 18 51  1  0  0  0  0
 18 52  1  0  0  0  0
 20 21  2  0  0  0  0
 20 22  1  0  0  0  0
 22 23  1  0  0  0  0
 22 32  1  0  0  0  0
 23 24  1  0  0  0  0
 23 53  1  0  0  0  0
 23 54  1  0  0  0  0
 24 29  2  0  0  0  0
 24 25  1  0  0  0  0
 25 26  2  0  0  0  0
 25 31  1  0  0  0  0
 26 27  1  0  0  0  0
 26 55  1  0  0  0  0
 27 28  2  0  0  0  0
 27 56  1  0  0  0  0
 28 29  1  0  0  0  0
 28 57  1  0  0  0  0
 29 30  1  0  0  0  0
 32 33  1  0  0  0  0
 32 34  1  0  0  0  0
 32 58  1  0  0  0  0
 33 59  1  0  0  0  0
 33 60  1  0  0  0  0
 33 61  1  0  0  0  0
 34 62  1  0  0  0  0
 34 63  1  0  0  0  0
 34 64  1  0  0  0  0
M  END
$$$$
CHEMBL3943239
 OpenBabel12022418093D

 55 57  0  0  1  0  0  0  0  0999 V2000
   -2.1016   -0.0709    0.8576 C   0  0  0  0  0  0  0  0  0  0  0  0
   -0.7032    0.1326    0.4407 C   0  0  0  0  0  0  0  0  0  0  0  0
    0.0615    1.1988    0.5341 N   0  0  0  0  0  0  0  0  0  0  0  0
    1.2536    0.7421    0.0135 C   0  0  0  0  0  0  0  0  0  0  0  0
    2.5077    1.5982   -0.0883 C   0  0  1  0  0  0  0  0  0  0  0  0
    3.3703    1.2806    1.1601 C   0  0  0  0  0  0  0  0  0  0  0  0
    3.3063    1.2550   -1.3682 C   0  0  0  0  0  0  0  0  0  0  0  0
    2.4270    1.6270   -2.8909 S   0  0  0  0  0  0  0  0  0  0  0  0
    1.2037    0.8540   -2.9674 O   0  0  0  0  0  0  0  0  0  0  0  0
    2.3929    3.0686   -3.0763 O   0  0  0  0  0  0  0  0  0  0  0  0
    3.5046    0.9781   -4.1371 C   0  0  0  0  0  0  0  0  0  0  0  0
    2.1302    3.0236   -0.0312 N   0  0  0  0  0  0  0  0  0  0  0  0
    3.0203    4.0769   -0.1132 C   0  0  0  0  0  0  0  0  0  0  0  0
    4.2327    3.9364   -0.1701 O   0  0  0  0  0  0  0  0  0  0  0  0
    2.3996    5.4442   -0.1602 C   0  0  0  0  0  0  0  0  0  0  0  0
    3.1983    6.5652   -0.3562 C   0  0  0  0  0  0  0  0  0  0  0  0
    2.5837    7.8157   -0.5058 C   0  0  0  0  0  0  0  0  0  0  0  0
    1.1883    7.9356   -0.3348 C   0  0  0  0  0  0  0  0  0  0  0  0
    0.5056    6.7281   -0.1193 C   0  0  0  0  0  0  0  0  0  0  0  0
    1.0539    5.4944   -0.0412 N   0  0  0  0  0  0  0  0  0  0  0  0
    0.3949    9.2272   -0.2679 C   0  0  0  0  0  0  0  0  0  0  0  0
    0.4611   10.3392   -1.2798 C   0  0  0  0  0  0  0  0  0  0  0  0
   -0.7394    9.4445   -1.2540 C   0  0  0  0  0  0  0  0  0  0  0  0
    3.2887    8.9600   -0.8098 O   0  0  0  0  0  0  0  0  0  0  0  0
    4.5032    8.8228   -1.5841 C   0  0  1  0  0  0  0  0  0  0  0  0
    4.2454    8.2080   -2.9645 C   0  0  0  0  0  0  0  0  0  0  0  0
    5.1042   10.2178   -1.7852 C   0  0  0  0  0  0  0  0  0  0  0  0
    6.2501   10.1264   -2.5161 F   0  0  0  0  0  0  0  0  0  0  0  0
    1.2498   -0.5596   -0.3219 N   0  0  0  0  0  0  0  0  0  0  0  0
   -0.0634   -0.9530   -0.0799 O   0  0  0  0  0  0  0  0  0  0  0  0
   -2.5496   -0.9255    0.3399 H   0  0  0  0  0  0  0  0  0  0  0  0
   -2.7047    0.8142    0.6395 H   0  0  0  0  0  0  0  0  0  0  0  0
   -2.1467   -0.2647    1.9338 H   0  0  0  0  0  0  0  0  0  0  0  0
    3.5961    0.2103    1.2433 H   0  0  0  0  0  0  0  0  0  0  0  0
    2.8426    1.5731    2.0796 H   0  0  0  0  0  0  0  0  0  0  0  0
    4.3243    1.8168    1.1554 H   0  0  0  0  0  0  0  0  0  0  0  0
    3.5586    0.1888   -1.4042 H   0  0  0  0  0  0  0  0  0  0  0  0
    4.2484    1.8111   -1.4200 H   0  0  0  0  0  0  0  0  0  0  0  0
    3.6575   -0.0886   -3.9584 H   0  0  0  0  0  0  0  0  0  0  0  0
    4.4519    1.5181   -4.1045 H   0  0  0  0  0  0  0  0  0  0  0  0
    3.0233    1.1226   -5.1066 H   0  0  0  0  0  0  0  0  0  0  0  0
    1.1379    3.2615   -0.0072 H   0  0  0  0  0  0  0  0  0  0  0  0
    4.2726    6.4366   -0.4071 H   0  0  0  0  0  0  0  0  0  0  0  0
   -0.5758    6.7380    0.0090 H   0  0  0  0  0  0  0  0  0  0  0  0
    0.1781    9.5443    0.7528 H   0  0  0  0  0  0  0  0  0  0  0  0
    1.1337   10.2567   -2.1235 H   0  0  0  0  0  0  0  0  0  0  0  0
    0.3292   11.3534   -0.9163 H   0  0  0  0  0  0  0  0  0  0  0  0
   -1.6726    9.8448   -0.8710 H   0  0  0  0  0  0  0  0  0  0  0  0
   -0.8669    8.7724   -2.0961 H   0  0  0  0  0  0  0  0  0  0  0  0
    5.2456    8.2305   -1.0362 H   0  0  0  0  0  0  0  0  0  0  0  0
    3.5189    8.8063   -3.5247 H   0  0  0  0  0  0  0  0  0  0  0  0
    3.8352    7.1972   -2.8954 H   0  0  0  0  0  0  0  0  0  0  0  0
    5.1707    8.1446   -3.5462 H   0  0  0  0  0  0  0  0  0  0  0  0
    5.3553   10.6873   -0.8286 H   0  0  0  0  0  0  0  0  0  0  0  0
    4.4145   10.8845   -2.3121 H   0  0  0  0  0  0  0  0  0  0  0  0
  1  2  1  0  0  0  0
  1 31  1  0  0  0  0
  1 32  1  0  0  0  0
  1 33  1  0  0  0  0
  2 30  1  0  0  0  0
  2  3  2  0  0  0  0
  3  4  1  0  0  0  0
  4  5  1  0  0  0  0
  4 29  2  0  0  0  0
  5  6  1  1  0  0  0
  5  7  1  0  0  0  0
  5 12  1  0  0  0  0
  6 34  1  0  0  0  0
  6 35  1  0  0  0  0
  6 36  1  0  0  0  0
  7  8  1  0  0  0  0
  7 37  1  0  0  0  0
  7 38  1  0  0  0  0
  8  9  2  0  0  0  0
  8 10  2  0  0  0  0
  8 11  1  0  0  0  0
 11 39  1  0  0  0  0
 11 40  1  0  0  0  0
 11 41  1  0  0  0  0
 12 13  1  0  0  0  0
 12 42  1  0  0  0  0
 13 14  2  0  0  0  0
 13 15  1  0  0  0  0
 15 20  2  0  0  0  0
 15 16  1  0  0  0  0
 16 17  2  0  0  0  0
 16 43  1  0  0  0  0
 17 18  1  0  0  0  0
 17 24  1  0  0  0  0
 18 19  2  0  0  0  0
 18 21  1  0  0  0  0
 19 20  1  0  0  0  0
 19 44  1  0  0  0  0
 21 23  1  0  0  0  0
 21 22  1  0  0  0  0
 21 45  1  0  0  0  0
 22 23  1  0  0  0  0
 22 46  1  0  0  0  0
 22 47  1  0  0  0  0
 23 48  1  0  0  0  0
 23 49  1  0  0  0  0
 24 25  1  0  0  0  0
 25 26  1  0  0  0  0
 25 27  1  0  0  0  0
 25 50  1  1  0  0  0
 26 51  1  0  0  0  0
 26 52  1  0  0  0  0
 26 53  1  0  0  0  0
 27 28  1  0  0  0  0
 27 54  1  0  0  0  0
 27 55  1  0  0  0  0
 29 30  1  0  0  0  0
M  END
$$$$
CHEMBL427843
 OpenBabel12022418093D

 58 59  0  0  0  0  0  0  0  0999 V2000
    6.3629   -3.9983   -4.4238 C   0  0  0  0  0  0  0  0  0  0  0  0
    5.9741   -4.5427   -3.0578 C   0  0  0  0  0  0  0  0  0  0  0  0
    6.5661   -3.6811   -1.9473 C   0  0  0  0  0  0  0  0  0  0  0  0
    6.1923   -4.1986   -0.5597 C   0  0  0  0  0  0  0  0  0  0  0  0
    6.7981   -3.2995    0.5153 C   0  0  0  0  0  0  0  0  0  0  0  0
    6.4430   -3.7810    1.9281 C   0  0  0  0  0  0  0  0  0  0  0  0
    7.0401   -2.9098    3.0748 C   0  0  0  0  0  0  0  0  0  0  0  0
    6.4111   -1.4948    3.0217 C   0  0  0  0  0  0  0  0  0  0  0  0
    6.5982   -3.5198    4.4270 C   0  0  0  0  0  0  0  0  0  0  0  0
    8.5753   -2.8965    3.0107 C   0  0  0  0  0  0  0  0  0  0  0  0
    9.3187   -4.0800    3.1369 C   0  0  0  0  0  0  0  0  0  0  0  0
   10.7259   -4.0657    3.1551 C   0  0  0  0  0  0  0  0  0  0  0  0
   11.4668   -2.8789    3.0177 C   0  0  0  0  0  0  0  0  0  0  0  0
   12.9517   -2.8476    3.2276 C   0  0  0  0  0  0  0  0  0  0  0  0
   13.4943   -1.7253    3.8930 C   0  0  0  0  0  0  0  0  0  0  0  0
   14.8586   -1.5526    4.0894 C   0  0  0  0  0  0  0  0  0  0  0  0
   15.7342   -2.5407    3.6787 C   0  0  0  0  0  0  0  0  0  0  0  0
   15.2669   -3.7127    3.0776 C   0  0  0  0  0  0  0  0  0  0  0  0
   13.8678   -3.8821    2.8637 C   0  0  0  0  0  0  0  0  0  0  0  0
   13.3373   -4.9905    2.2357 O   0  0  0  0  0  0  0  0  0  0  0  0
   13.9291   -6.2546    2.5401 C   0  0  0  0  0  0  0  0  0  0  0  0
   16.1077   -4.7291    2.7062 O   0  0  0  0  0  0  0  0  0  0  0  0
   17.4758   -4.4021    2.4955 C   0  0  0  0  0  0  0  0  0  0  0  0
   10.6986   -1.7173    2.7873 C   0  0  0  0  0  0  0  0  0  0  0  0
    9.2999   -1.7185    2.8129 C   0  0  0  0  0  0  0  0  0  0  0  0
   11.2405   -0.4819    2.5174 O   0  0  0  0  0  0  0  0  0  0  0  0
    5.9350   -4.6223   -5.2181 H   0  0  0  0  0  0  0  0  0  0  0  0
    7.4520   -3.9916   -4.5464 H   0  0  0  0  0  0  0  0  0  0  0  0
    5.9970   -2.9762   -4.5569 H   0  0  0  0  0  0  0  0  0  0  0  0
    6.3298   -5.5730   -2.9616 H   0  0  0  0  0  0  0  0  0  0  0  0
    4.8819   -4.5644   -2.9753 H   0  0  0  0  0  0  0  0  0  0  0  0
    6.2137   -2.6483   -2.0582 H   0  0  0  0  0  0  0  0  0  0  0  0
    7.6586   -3.6586   -2.0466 H   0  0  0  0  0  0  0  0  0  0  0  0
    6.5558   -5.2265   -0.4350 H   0  0  0  0  0  0  0  0  0  0  0  0
    5.1011   -4.2242   -0.4534 H   0  0  0  0  0  0  0  0  0  0  0  0
    6.4325   -2.2777    0.3620 H   0  0  0  0  0  0  0  0  0  0  0  0
    7.8868   -3.2775    0.3873 H   0  0  0  0  0  0  0  0  0  0  0  0
    6.7706   -4.8221    2.0330 H   0  0  0  0  0  0  0  0  0  0  0  0
    5.3482   -3.8014    2.0255 H   0  0  0  0  0  0  0  0  0  0  0  0
    5.3199   -1.5393    3.0973 H   0  0  0  0  0  0  0  0  0  0  0  0
    6.6502   -0.9640    2.0935 H   0  0  0  0  0  0  0  0  0  0  0  0
    6.7685   -0.8700    3.8518 H   0  0  0  0  0  0  0  0  0  0  0  0
    5.5055   -3.5358    4.5141 H   0  0  0  0  0  0  0  0  0  0  0  0
    6.9907   -2.9383    5.2706 H   0  0  0  0  0  0  0  0  0  0  0  0
    6.9443   -4.5519    4.5517 H   0  0  0  0  0  0  0  0  0  0  0  0
    8.8199   -5.0391    3.2427 H   0  0  0  0  0  0  0  0  0  0  0  0
   11.2273   -5.0164    3.3141 H   0  0  0  0  0  0  0  0  0  0  0  0
   12.8365   -0.9478    4.2846 H   0  0  0  0  0  0  0  0  0  0  0  0
   15.2253   -0.6536    4.5736 H   0  0  0  0  0  0  0  0  0  0  0  0
   16.7927   -2.3760    3.8730 H   0  0  0  0  0  0  0  0  0  0  0  0
   13.1403   -7.0124    2.5091 H   0  0  0  0  0  0  0  0  0  0  0  0
   14.3727   -6.2975    3.5419 H   0  0  0  0  0  0  0  0  0  0  0  0
   14.6611   -6.5163    1.7702 H   0  0  0  0  0  0  0  0  0  0  0  0
   18.0012   -5.3280    2.2323 H   0  0  0  0  0  0  0  0  0  0  0  0
   17.9584   -4.0187    3.3996 H   0  0  0  0  0  0  0  0  0  0  0  0
   17.5756   -3.7037    1.6610 H   0  0  0  0  0  0  0  0  0  0  0  0
    8.8036   -0.7622    2.6718 H   0  0  0  0  0  0  0  0  0  0  0  0
   12.1348   -0.6212    2.1658 H   0  0  0  0  0  0  0  0  0  0  0  0
  1  2  1  0  0  0  0
  1 27  1  0  0  0  0
  1 28  1  0  0  0  0
  1 29  1  0  0  0  0
  2  3  1  0  0  0  0
  2 30  1  0  0  0  0
  2 31  1  0  0  0  0
  3  4  1  0  0  0  0
  3 32  1  0  0  0  0
  3 33  1  0  0  0  0
  4  5  1  0  0  0  0
  4 34  1  0  0  0  0
  4 35  1  0  0  0  0
  5  6  1  0  0  0  0
  5 36  1  0  0  0  0
  5 37  1  0  0  0  0
  6  7  1  0  0  0  0
  6 38  1  0  0  0  0
  6 39  1  0  0  0  0
  7  8  1  0  0  0  0
  7  9  1  0  0  0  0
  7 10  1  0  0  0  0
  8 40  1  0  0  0  0
  8 41  1  0  0  0  0
  8 42  1  0  0  0  0
  9 43  1  0  0  0  0
  9 44  1  0  0  0  0
  9 45  1  0  0  0  0
 10 25  2  0  0  0  0
 10 11  1  0  0  0  0
 11 12  2  0  0  0  0
 11 46  1  0  0  0  0
 12 13  1  0  0  0  0
 12 47  1  0  0  0  0
 13 14  1  0  0  0  0
 13 24  2  0  0  0  0
 14 19  2  0  0  0  0
 14 15  1  0  0  0  0
 15 16  2  0  0  0  0
 15 48  1  0  0  0  0
 16 17  1  0  0  0  0
 16 49  1  0  0  0  0
 17 18  2  0  0  0  0
 17 50  1  0  0  0  0
 18 19  1  0  0  0  0
 18 22  1  0  0  0  0
 19 20  1  0  0  0  0
 20 21  1  0  0  0  0
 21 51  1  0  0  0  0
 21 52  1  0  0  0  0
 21 53  1  0  0  0  0
 22 23  1  0  0  0  0
 23 54  1  0  0  0  0
 23 55  1  0  0  0  0
 23 56  1  0  0  0  0
 24 25  1  0  0  0  0
 24 26  1  0  0  0  0
 25 57  1  0  0  0  0
 26 58  1  0  0  0  0
M  END
$$$$
CHEMBL80439
 OpenBabel12022418093D

 72 76  0  0  1  0  0  0  0  0999 V2000
    1.6337   -1.2650    0.0539 C   0  0  0  0  0  0  0  0  0  0  0  0
    2.4001   -0.0995    0.0220 C   0  0  0  0  0  0  0  0  0  0  0  0
    3.8803    0.0647   -0.0085 C   0  0  0  0  0  0  0  0  0  0  0  0
    1.5310    0.9883   -0.0509 N   0  0  0  0  0  0  0  0  0  0  0  0
    0.2077    0.5507   -0.0165 C   0  0  0  0  0  0  0  0  0  0  0  0
    0.2587   -0.8504   -0.0202 C   0  0  0  0  0  0  0  0  0  0  0  0
   -0.9516   -1.5788   -0.0518 C   0  0  0  0  0  0  0  0  0  0  0  0
   -2.1744   -0.9129   -0.0401 C   0  0  0  0  0  0  0  0  0  0  0  0
   -2.2137    0.4717    0.0141 C   0  0  0  0  0  0  0  0  0  0  0  0
   -1.0382    1.2423    0.0215 C   0  0  0  0  0  0  0  0  0  0  0  0
   -1.0509    2.6107    0.1231 O   0  0  0  0  0  0  0  0  0  0  0  0
   -2.2442    3.2825   -0.2641 C   0  0  0  0  0  0  0  0  0  0  0  0
    1.9492    2.3791    0.0313 C   0  0  0  0  0  0  0  0  0  0  0  0
    2.8717    2.9676   -1.0532 C   0  0  0  0  0  0  0  0  0  0  0  0
    2.4735    3.1534   -2.4344 N   0  0  0  0  0  0  0  0  0  0  0  0
    2.7068    2.0737   -3.3927 C   0  0  0  0  0  0  0  0  0  0  0  0
    2.7598    2.6999   -4.8046 C   0  0  0  0  0  0  0  0  0  0  0  0
    1.5643    3.4393   -5.1109 O   0  0  0  0  0  0  0  0  0  0  0  0
    1.3218    4.4459   -4.1136 C   0  0  0  0  0  0  0  0  0  0  0  0
    1.2062    3.8241   -2.7102 C   0  0  0  0  0  0  0  0  0  0  0  0
    2.0974   -2.6669    0.0828 C   0  0  0  0  0  0  0  0  0  0  0  0
    1.4915   -3.5529   -0.5138 O   0  0  0  0  0  0  0  0  0  0  0  0
    3.2378   -2.9276    0.8258 N   0  0  0  0  0  0  0  0  0  0  0  0
    3.9143   -4.2132    0.7474 C   0  0  1  0  0  0  0  0  0  0  0  0
    5.4741   -4.1316    0.7618 C   0  0  2  0  0  0  0  0  0  0  0  0
    5.8145   -5.6254    0.8925 C   0  0  0  0  0  0  0  0  0  0  0  0
    5.0598   -5.7767    2.2203 C   0  0  2  0  0  0  0  0  0  0  0  0
    3.6151   -5.2695    1.8685 C   0  0  0  0  0  0  0  0  0  0  0  0
    2.8554   -4.7382    3.0913 C   0  0  0  0  0  0  0  0  0  0  0  0
    2.7906   -6.4390    1.2890 C   0  0  0  0  0  0  0  0  0  0  0  0
    5.8326   -4.7557    3.0703 C   0  0  0  0  0  0  0  0  0  0  0  0
    6.0108   -3.5777    2.1041 C   0  0  0  0  0  0  0  0  0  0  0  0
    6.0859   -3.4641   -0.4549 C   0  0  0  0  0  0  0  0  0  0  0  0
    4.4123   -0.8786    0.0769 H   0  0  0  0  0  0  0  0  0  0  0  0
    4.2204    0.7059    0.8108 H   0  0  0  0  0  0  0  0  0  0  0  0
    4.2014    0.4846   -0.9635 H   0  0  0  0  0  0  0  0  0  0  0  0
   -0.9312   -2.6663   -0.0741 H   0  0  0  0  0  0  0  0  0  0  0  0
   -3.0985   -1.4854   -0.0547 H   0  0  0  0  0  0  0  0  0  0  0  0
   -3.1937    0.9380    0.0638 H   0  0  0  0  0  0  0  0  0  0  0  0
   -2.0451    4.3585   -0.2328 H   0  0  0  0  0  0  0  0  0  0  0  0
   -3.0629    3.0867    0.4363 H   0  0  0  0  0  0  0  0  0  0  0  0
   -2.5261    3.0229   -1.2893 H   0  0  0  0  0  0  0  0  0  0  0  0
    2.4709    2.4641    0.9961 H   0  0  0  0  0  0  0  0  0  0  0  0
    1.0866    3.0306    0.1277 H   0  0  0  0  0  0  0  0  0  0  0  0
    3.8516    2.4879   -1.0320 H   0  0  0  0  0  0  0  0  0  0  0  0
    3.1013    3.9824   -0.6985 H   0  0  0  0  0  0  0  0  0  0  0  0
    1.9076    1.3236   -3.3452 H   0  0  0  0  0  0  0  0  0  0  0  0
    3.6599    1.5683   -3.2046 H   0  0  0  0  0  0  0  0  0  0  0  0
    2.8728    1.9208   -5.5650 H   0  0  0  0  0  0  0  0  0  0  0  0
    3.6233    3.3720   -4.8951 H   0  0  0  0  0  0  0  0  0  0  0  0
    0.3970    4.9669   -4.3788 H   0  0  0  0  0  0  0  0  0  0  0  0
    2.1353    5.1837   -4.1437 H   0  0  0  0  0  0  0  0  0  0  0  0
    1.0067    4.6176   -1.9828 H   0  0  0  0  0  0  0  0  0  0  0  0
    0.3723    3.1114   -2.6804 H   0  0  0  0  0  0  0  0  0  0  0  0
    3.5658   -2.2109    1.4586 H   0  0  0  0  0  0  0  0  0  0  0  0
    3.6319   -4.6448   -0.2202 H   0  0  0  0  0  0  0  0  0  0  0  0
    6.8899   -5.8195    0.9822 H   0  0  0  0  0  0  0  0  0  0  0  0
    5.4144   -6.2413    0.0809 H   0  0  0  0  0  0  0  0  0  0  0  0
    5.0870   -6.7851    2.6422 H   0  0  0  0  0  0  0  0  0  0  0  0
    3.3197   -3.8494    3.5275 H   0  0  0  0  0  0  0  0  0  0  0  0
    2.8046   -5.5059    3.8731 H   0  0  0  0  0  0  0  0  0  0  0  0
    1.8266   -4.4659    2.8313 H   0  0  0  0  0  0  0  0  0  0  0  0
    3.2478   -6.8647    0.3900 H   0  0  0  0  0  0  0  0  0  0  0  0
    1.7804   -6.1119    1.0202 H   0  0  0  0  0  0  0  0  0  0  0  0
    2.6975   -7.2504    2.0206 H   0  0  0  0  0  0  0  0  0  0  0  0
    6.8160   -5.1624    3.3410 H   0  0  0  0  0  0  0  0  0  0  0  0
    5.3406   -4.4761    4.0042 H   0  0  0  0  0  0  0  0  0  0  0  0
    5.4716   -2.6894    2.4446 H   0  0  0  0  0  0  0  0  0  0  0  0
    7.0734   -3.3157    2.0366 H   0  0  0  0  0  0  0  0  0  0  0  0
    5.9375   -2.3812   -0.4326 H   0  0  0  0  0  0  0  0  0  0  0  0
    5.6459   -3.8465   -1.3812 H   0  0  0  0  0  0  0  0  0  0  0  0
    7.1653   -3.6467   -0.5002 H   0  0  0  0  0  0  0  0  0  0  0  0
  1  6  1  0  0  0  0
  1  2  2  0  0  0  0
  1 21  1  0  0  0  0
  2  3  1  0  0  0  0
  2  4  1  0  0  0  0
  3 34  1  0  0  0  0
  3 35  1  0  0  0  0
  3 36  1  0  0  0  0
  4  5  1  0  0  0  0
  4 13  1  0  0  0  0
  5 10  2  0  0  0  0
  5  6  1  0  0  0  0
  6  7  2  0  0  0  0
  7  8  1  0  0  0  0
  7 37  1  0  0  0  0
  8  9  2  0  0  0  0
  8 38  1  0  0  0  0
  9 10  1  0  0  0  0
  9 39  1  0  0  0  0
 10 11  1  0  0  0  0
 11 12  1  0  0  0  0
 12 40  1  0  0  0  0
 12 41  1  0  0  0  0
 12 42  1  0  0  0  0
 13 14  1  0  0  0  0
 13 43  1  0  0  0  0
 13 44  1  0  0  0  0
 14 15  1  0  0  0  0
 14 45  1  0  0  0  0
 14 46  1  0  0  0  0
 15 20  1  0  0  0  0
 15 16  1  0  0  0  0
 16 17  1  0  0  0  0
 16 47  1  0  0  0  0
 16 48  1  0  0  0  0
 17 18  1  0  0  0  0
 17 49  1  0  0  0  0
 17 50  1  0  0  0  0
 18 19  1  0  0  0  0
 19 20  1  0  0  0  0
 19 51  1  0  0  0  0
 19 52  1  0  0  0  0
 20 53  1  0  0  0  0
 20 54  1  0  0  0  0
 21 22  2  0  0  0  0
 21 23  1  0  0  0  0
 23 55  1  0  0  0  0
 24 23  1  0  0  0  0
 24 25  1  0  0  0  0
 24 28  1  0  0  0  0
 24 56  1  6  0  0  0
 25 32  1  0  0  0  0
 25 26  1  0  0  0  0
 25 33  1  6  0  0  0
 26 57  1  0  0  0  0
 26 58  1  0  0  0  0
 27 26  1  0  0  0  0
 27 28  1  0  0  0  0
 27 31  1  0  0  0  0
 27 59  1  1  0  0  0
 28 29  1  0  0  0  0
 28 30  1  0  0  0  0
 29 60  1  0  0  0  0
 29 61  1  0  0  0  0
 29 62  1  0  0  0  0
 30 63  1  0  0  0  0
 30 64  1  0  0  0  0
 30 65  1  0  0  0  0
 31 32  1  0  0  0  0
 31 66  1  0  0  0  0
 31 67  1  0  0  0  0
 32 68  1  0  0  0  0
 32 69  1  0  0  0  0
 33 70  1  0  0  0  0
 33 71  1  0  0  0  0
 33 72  1  0  0  0  0
M  END
$$$$
CHEMBL4846991
 OpenBabel12022418093D

 55 57  0  0  0  0  0  0  0  0999 V2000
    1.0037   -0.1548   -0.4511 C   0  0  0  0  0  0  0  0  0  0  0  0
    2.5155   -0.0597   -0.3192 C   0  0  0  0  0  0  0  0  0  0  0  0
    3.0387   -1.1539    0.6049 C   0  0  0  0  0  0  0  0  0  0  0  0
    4.5637   -1.1215    0.7241 C   0  0  0  0  0  0  0  0  0  0  0  0
    5.0703   -2.1967    1.6545 C   0  0  0  0  0  0  0  0  0  0  0  0
    5.6997   -1.9080    2.8031 C   0  0  0  0  0  0  0  0  0  0  0  0
    6.1076   -2.9636    3.7256 C   0  0  0  0  0  0  0  0  0  0  0  0
    6.7708   -2.7621    4.9365 C   0  0  0  0  0  0  0  0  0  0  0  0
    7.0475   -3.8394    5.7926 C   0  0  0  0  0  0  0  0  0  0  0  0
    6.6555   -5.1532    5.4742 C   0  0  0  0  0  0  0  0  0  0  0  0
    6.0257   -5.3527    4.2384 C   0  0  0  0  0  0  0  0  0  0  0  0
    5.7647   -4.2702    3.3948 C   0  0  0  0  0  0  0  0  0  0  0  0
    5.1322   -4.5819    2.1779 O   0  0  0  0  0  0  0  0  0  0  0  0
    4.8367   -3.6066    1.2420 C   0  0  0  0  0  0  0  0  0  0  0  0
    4.3850   -3.8969    0.1411 O   0  0  0  0  0  0  0  0  0  0  0  0
    6.9169   -6.3207    6.4313 C   0  0  0  0  0  0  0  0  0  0  0  0
    6.7091   -5.8834    7.9062 C   0  0  0  0  0  0  0  0  0  0  0  0
    6.3627   -7.1421    8.6903 C   0  0  0  0  0  0  0  0  0  0  0  0
    5.7666   -8.1158    7.6871 C   0  0  0  0  0  0  0  0  0  0  0  0
    5.8503   -7.4397    6.3231 C   0  0  0  0  0  0  0  0  0  0  0  0
    8.3692   -6.8585    6.2391 C   0  0  0  0  0  0  0  0  0  0  0  0
    8.6974   -7.4122    4.8422 C   0  0  0  0  0  0  0  0  0  0  0  0
   10.1421   -7.9129    4.7569 C   0  0  0  0  0  0  0  0  0  0  0  0
   10.4506   -8.4546    3.3686 C   0  0  0  0  0  0  0  0  0  0  0  0
    7.1835   -1.5396    5.3912 O   0  0  0  0  0  0  0  0  0  0  0  0
    0.6277    0.6274   -1.1153 H   0  0  0  0  0  0  0  0  0  0  0  0
    0.5199   -0.0404    0.5247 H   0  0  0  0  0  0  0  0  0  0  0  0
    0.7090   -1.1254   -0.8648 H   0  0  0  0  0  0  0  0  0  0  0  0
    2.7886    0.9264    0.0727 H   0  0  0  0  0  0  0  0  0  0  0  0
    2.9724   -0.1581   -1.3108 H   0  0  0  0  0  0  0  0  0  0  0  0
    2.7071   -2.1219    0.2129 H   0  0  0  0  0  0  0  0  0  0  0  0
    2.5863   -1.0469    1.5990 H   0  0  0  0  0  0  0  0  0  0  0  0
    4.8630   -0.1304    1.1008 H   0  0  0  0  0  0  0  0  0  0  0  0
    5.0364   -1.2284   -0.2571 H   0  0  0  0  0  0  0  0  0  0  0  0
    5.8635   -0.8746    3.0803 H   0  0  0  0  0  0  0  0  0  0  0  0
    7.5649   -3.6279    6.7253 H   0  0  0  0  0  0  0  0  0  0  0  0
    5.7251   -6.3465    3.9142 H   0  0  0  0  0  0  0  0  0  0  0  0
    5.8688   -5.1810    7.9916 H   0  0  0  0  0  0  0  0  0  0  0  0
    7.5889   -5.3881    8.3330 H   0  0  0  0  0  0  0  0  0  0  0  0
    5.6612   -6.9187    9.5019 H   0  0  0  0  0  0  0  0  0  0  0  0
    7.2598   -7.5742    9.1472 H   0  0  0  0  0  0  0  0  0  0  0  0
    4.7253   -8.3528    7.9338 H   0  0  0  0  0  0  0  0  0  0  0  0
    6.3237   -9.0582    7.6938 H   0  0  0  0  0  0  0  0  0  0  0  0
    6.0598   -8.1720    5.5378 H   0  0  0  0  0  0  0  0  0  0  0  0
    4.8626   -7.0154    6.0989 H   0  0  0  0  0  0  0  0  0  0  0  0
    8.5698   -7.6478    6.9746 H   0  0  0  0  0  0  0  0  0  0  0  0
    9.0805   -6.0505    6.4597 H   0  0  0  0  0  0  0  0  0  0  0  0
    8.5567   -6.6357    4.0824 H   0  0  0  0  0  0  0  0  0  0  0  0
    8.0243   -8.2387    4.5922 H   0  0  0  0  0  0  0  0  0  0  0  0
   10.3101   -8.7028    5.4979 H   0  0  0  0  0  0  0  0  0  0  0  0
   10.8365   -7.0964    4.9870 H   0  0  0  0  0  0  0  0  0  0  0  0
    9.7854   -9.2873    3.1171 H   0  0  0  0  0  0  0  0  0  0  0  0
   11.4822   -8.8165    3.3182 H   0  0  0  0  0  0  0  0  0  0  0  0
   10.3261   -7.6761    2.6088 H   0  0  0  0  0  0  0  0  0  0  0  0
    7.0513   -0.8692    4.7042 H   0  0  0  0  0  0  0  0  0  0  0  0
  1  2  1  0  0  0  0
  1 26  1  0  0  0  0
  1 27  1  0  0  0  0
  1 28  1  0  0  0  0
  2  3  1  0  0  0  0
  2 29  1  0  0  0  0
  2 30  1  0  0  0  0
  3  4  1  0  0  0  0
  3 31  1  0  0  0  0
  3 32  1  0  0  0  0
  4  5  1  0  0  0  0
  4 33  1  0  0  0  0
  4 34  1  0  0  0  0
  5 14  1  0  0  0  0
  5  6  2  0  0  0  0
  6  7  1  0  0  0  0
  6 35  1  0  0  0  0
  7 12  2  0  0  0  0
  7  8  1  0  0  0  0
  8  9  2  0  0  0  0
  8 25  1  0  0  0  0
  9 10  1  0  0  0  0
  9 36  1  0  0  0  0
 10 11  2  0  0  0  0
 10 16  1  0  0  0  0
 11 12  1  0  0  0  0
 11 37  1  0  0  0  0
 12 13  1  0  0  0  0
 13 14  1  0  0  0  0
 14 15  2  0  0  0  0
 16 20  1  0  0  0  0
 16 17  1  0  0  0  0
 16 21  1  0  0  0  0
 17 18  1  0  0  0  0
 17 38  1  0  0  0  0
 17 39  1  0  0  0  0
 18 19  1  0  0  0  0
 18 40  1  0  0  0  0
 18 41  1  0  0  0  0
 19 20  1  0  0  0  0
 19 42  1  0  0  0  0
 19 43  1  0  0  0  0
 20 44  1  0  0  0  0
 20 45  1  0  0  0  0
 21 22  1  0  0  0  0
 21 46  1  0  0  0  0
 21 47  1  0  0  0  0
 22 23  1  0  0  0  0
 22 48  1  0  0  0  0
 22 49  1  0  0  0  0
 23 24  1  0  0  0  0
 23 50  1  0  0  0  0
 23 51  1  0  0  0  0
 24 52  1  0  0  0  0
 24 53  1  0  0  0  0
 24 54  1  0  0  0  0
 25 55  1  0  0  0  0
M  END
$$$$
CHEMBL3353429
 OpenBabel12022418093D

 59 61  0  0  1  0  0  0  0  0999 V2000
   -2.3952    0.6504   -0.0526 C   0  0  0  0  0  0  0  0  0  0  0  0
   -2.3034   -0.7284   -0.0505 C   0  0  0  0  0  0  0  0  0  0  0  0
   -1.1336   -1.3980    0.0096 N   0  0  0  0  0  0  0  0  0  0  0  0
    0.0131   -0.6778    0.0460 C   0  0  0  0  0  0  0  0  0  0  0  0
    0.0144    0.7190    0.0464 C   0  0  0  0  0  0  0  0  0  0  0  0
   -1.2143    1.3853    0.0048 C   0  0  0  0  0  0  0  0  0  0  0  0
    1.2743    1.4569    0.0524 C   0  0  0  0  0  0  0  0  0  0  0  0
    2.4523    0.8062    0.0055 C   0  0  0  0  0  0  0  0  0  0  0  0
    2.4650   -0.6876   -0.0286 C   0  0  0  0  0  0  0  0  0  0  0  0
    3.5447   -1.2766   -0.1284 O   0  0  0  0  0  0  0  0  0  0  0  0
    1.2551   -1.3626    0.0512 N   0  0  0  0  0  0  0  0  0  0  0  0
    1.2508   -2.8236   -0.0352 C   0  0  0  0  0  0  0  0  0  0  0  0
    1.9844   -3.5357    1.1067 C   0  0  0  0  0  0  0  0  0  0  0  0
    1.4208   -3.2441    2.4983 C   0  0  0  0  0  0  0  0  0  0  0  0
    2.2314   -4.0114    3.5463 C   0  0  0  0  0  0  0  0  0  0  0  0
    1.7333   -3.7644    4.9652 C   0  0  0  0  0  0  0  0  0  0  0  0
    2.5712   -4.5362    5.9775 C   0  0  0  0  0  0  0  0  0  0  0  0
    2.0858   -4.2977    7.2907 O   0  0  0  0  0  0  0  0  0  0  0  0
    3.7032    1.6374   -0.0707 C   0  0  0  0  0  0  0  0  0  0  0  0
    3.6595    2.8652   -0.0830 O   0  0  0  0  0  0  0  0  0  0  0  0
    4.8797    0.9320   -0.1609 N   0  0  0  0  0  0  0  0  0  0  0  0
    6.1791    1.5440   -0.3976 C   0  0  2  0  0  0  0  0  0  0  0  0
    7.0964    0.5856   -1.1713 C   0  0  0  0  0  0  0  0  0  0  0  0
    7.6703   -0.5420   -0.3116 C   0  0  0  0  0  0  0  0  0  0  0  0
    8.3605   -0.0071    0.9474 C   0  0  1  0  0  0  0  0  0  0  0  0
    7.4104    0.8891    1.7499 C   0  0  0  0  0  0  0  0  0  0  0  0
    6.8353    2.0245    0.9025 C   0  0  0  0  0  0  0  0  0  0  0  0
    8.8748   -1.1588    1.8120 C   0  0  0  0  0  0  0  0  0  0  0  0
   -3.3616    1.1395   -0.1076 H   0  0  0  0  0  0  0  0  0  0  0  0
   -3.1919   -1.3521   -0.1054 H   0  0  0  0  0  0  0  0  0  0  0  0
   -1.2640    2.4711   -0.0009 H   0  0  0  0  0  0  0  0  0  0  0  0
    1.2273    2.5418    0.0610 H   0  0  0  0  0  0  0  0  0  0  0  0
    1.7488   -3.0853   -0.9777 H   0  0  0  0  0  0  0  0  0  0  0  0
    0.2372   -3.2300   -0.1022 H   0  0  0  0  0  0  0  0  0  0  0  0
    3.0500   -3.2835    1.0939 H   0  0  0  0  0  0  0  0  0  0  0  0
    1.9296   -4.6155    0.9187 H   0  0  0  0  0  0  0  0  0  0  0  0
    0.3668   -3.5412    2.5458 H   0  0  0  0  0  0  0  0  0  0  0  0
    1.4695   -2.1701    2.7125 H   0  0  0  0  0  0  0  0  0  0  0  0
    3.2856   -3.7146    3.4770 H   0  0  0  0  0  0  0  0  0  0  0  0
    2.1863   -5.0852    3.3261 H   0  0  0  0  0  0  0  0  0  0  0  0
    0.6816   -4.0610    5.0595 H   0  0  0  0  0  0  0  0  0  0  0  0
    1.7689   -2.6937    5.2005 H   0  0  0  0  0  0  0  0  0  0  0  0
    3.6235   -4.2355    5.9354 H   0  0  0  0  0  0  0  0  0  0  0  0
    2.5176   -5.6133    5.7876 H   0  0  0  0  0  0  0  0  0  0  0  0
    2.1296   -3.3391    7.4478 H   0  0  0  0  0  0  0  0  0  0  0  0
    4.8260   -0.0867   -0.1151 H   0  0  0  0  0  0  0  0  0  0  0  0
    5.9977    2.4226   -1.0293 H   0  0  0  0  0  0  0  0  0  0  0  0
    7.9322    1.1606   -1.5902 H   0  0  0  0  0  0  0  0  0  0  0  0
    6.5575    0.1491   -2.0213 H   0  0  0  0  0  0  0  0  0  0  0  0
    8.3895   -1.1146   -0.9106 H   0  0  0  0  0  0  0  0  0  0  0  0
    6.8704   -1.2394   -0.0339 H   0  0  0  0  0  0  0  0  0  0  0  0
    9.2274    0.5928    0.6385 H   0  0  0  0  0  0  0  0  0  0  0  0
    7.9484    1.3214    2.6028 H   0  0  0  0  0  0  0  0  0  0  0  0
    6.5902    0.2905    2.1650 H   0  0  0  0  0  0  0  0  0  0  0  0
    6.1214    2.5980    1.5052 H   0  0  0  0  0  0  0  0  0  0  0  0
    7.6528    2.7109    0.6461 H   0  0  0  0  0  0  0  0  0  0  0  0
    8.0532   -1.7960    2.1568 H   0  0  0  0  0  0  0  0  0  0  0  0
    9.4002   -0.7781    2.6944 H   0  0  0  0  0  0  0  0  0  0  0  0
    9.5757   -1.7856    1.2504 H   0  0  0  0  0  0  0  0  0  0  0  0
  1  6  2  0  0  0  0
  1  2  1  0  0  0  0
  1 29  1  0  0  0  0
  2  3  2  0  0  0  0
  2 30  1  0  0  0  0
  3  4  1  0  0  0  0
  4 11  1  0  0  0  0
  4  5  2  0  0  0  0
  5  6  1  0  0  0  0
  5  7  1  0  0  0  0
  6 31  1  0  0  0  0
  7  8  2  0  0  0  0
  7 32  1  0  0  0  0
  8  9  1  0  0  0  0
  8 19  1  0  0  0  0
  9 10  2  0  0  0  0
  9 11  1  0  0  0  0
 11 12  1  0  0  0  0
 12 13  1  0  0  0  0
 12 33  1  0  0  0  0
 12 34  1  0  0  0  0
 13 14  1  0  0  0  0
 13 35  1  0  0  0  0
 13 36  1  0  0  0  0
 14 15  1  0  0  0  0
 14 37  1  0  0  0  0
 14 38  1  0  0  0  0
 15 16  1  0  0  0  0
 15 39  1  0  0  0  0
 15 40  1  0  0  0  0
 16 17  1  0  0  0  0
 16 41  1  0  0  0  0
 16 42  1  0  0  0  0
 17 18  1  0  0  0  0
 17 43  1  0  0  0  0
 17 44  1  0  0  0  0
 18 45  1  0  0  0  0
 19 20  2  0  0  0  0
 19 21  1  0  0  0  0
 21 46  1  0  0  0  0
 22 21  1  0  0  0  0
 22 23  1  0  0  0  0
 22 27  1  0  0  0  0
 22 47  1  6  0  0  0
 23 24  1  0  0  0  0
 23 48  1  0  0  0  0
 23 49  1  0  0  0  0
 24 25  1  0  0  0  0
 24 50  1  0  0  0  0
 24 51  1  0  0  0  0
 25 26  1  0  0  0  0
 25 28  1  0  0  0  0
 25 52  1  6  0  0  0
 26 27  1  0  0  0  0
 26 53  1  0  0  0  0
 26 54  1  0  0  0  0
 27 55  1  0  0  0  0
 27 56  1  0  0  0  0
 28 57  1  0  0  0  0
 28 58  1  0  0  0  0
 28 59  1  0  0  0  0
M  END
$$$$
CHEMBL574052
 OpenBabel12022418093D

 59 62  0  0  0  0  0  0  0  0999 V2000
   -0.0981   -0.9624    0.0167 N   0  0  0  0  0  0  0  0  0  0  0  0
   -0.9593    0.0941   -0.2083 N   0  0  0  0  0  0  0  0  0  0  0  0
   -0.1786    1.1888   -0.1989 C   0  0  0  0  0  0  0  0  0  0  0  0
    1.2057    0.8271   -0.2058 C   0  0  0  0  0  0  0  0  0  0  0  0
    1.2259   -0.5499   -0.0387 C   0  0  0  0  0  0  0  0  0  0  0  0
    2.3742   -1.3674   -0.0245 N   0  0  0  0  0  0  0  0  0  0  0  0
    2.6074   -2.5419   -0.7524 C   0  0  0  0  0  0  0  0  0  0  0  0
    3.8986   -2.9694   -0.5019 C   0  0  0  0  0  0  0  0  0  0  0  0
    4.4910   -2.0674    0.3881 C   0  0  0  0  0  0  0  0  0  0  0  0
    3.5420   -1.1198    0.7128 C   0  0  0  0  0  0  0  0  0  0  0  0
    3.6962   -0.0725    1.7645 C   0  0  0  0  0  0  0  0  0  0  0  0
    1.6681   -3.1911   -1.7085 C   0  0  0  0  0  0  0  0  0  0  0  0
    2.3520    1.7607   -0.4188 C   0  0  0  0  0  0  0  0  0  0  0  0
   -0.7010    2.5784   -0.2196 C   0  0  0  0  0  0  0  0  0  0  0  0
    0.0392    3.5571   -0.1153 O   0  0  0  0  0  0  0  0  0  0  0  0
   -2.0813    2.7413   -0.3581 N   0  0  0  0  0  0  0  0  0  0  0  0
   -2.6513    4.0913   -0.5226 C   0  0  0  0  0  0  0  0  0  0  0  0
   -2.5214    4.5695   -1.9840 C   0  0  0  0  0  0  0  0  0  0  0  0
   -3.8184    4.7316   -2.7744 C   0  0  0  0  0  0  0  0  0  0  0  0
   -4.5362    6.0479   -2.4796 C   0  0  0  0  0  0  0  0  0  0  0  0
   -5.3265    6.0775   -1.1762 C   0  0  0  0  0  0  0  0  0  0  0  0
   -4.5630    5.6763    0.0836 C   0  0  0  0  0  0  0  0  0  0  0  0
   -4.0518    4.2273    0.0922 C   0  0  0  0  0  0  0  0  0  0  0  0
   -0.6685   -2.2467    0.2665 C   0  0  0  0  0  0  0  0  0  0  0  0
   -0.1778   -3.1525    1.2204 C   0  0  0  0  0  0  0  0  0  0  0  0
   -0.7451   -4.4312    1.3295 C   0  0  0  0  0  0  0  0  0  0  0  0
   -1.8216   -4.7930    0.5245 C   0  0  0  0  0  0  0  0  0  0  0  0
   -2.3456   -3.8935   -0.3953 C   0  0  0  0  0  0  0  0  0  0  0  0
   -1.7789   -2.6206   -0.5200 C   0  0  0  0  0  0  0  0  0  0  0  0
   -2.5311   -6.3523    0.6978 Cl  0  0  0  0  0  0  0  0  0  0  0  0
    0.9822   -2.7484    2.4352 Cl  0  0  0  0  0  0  0  0  0  0  0  0
    4.3665   -3.8457   -0.9343 H   0  0  0  0  0  0  0  0  0  0  0  0
    5.4915   -2.1194    0.7988 H   0  0  0  0  0  0  0  0  0  0  0  0
    2.7510    0.3776    2.0749 H   0  0  0  0  0  0  0  0  0  0  0  0
    4.3756    0.7138    1.4168 H   0  0  0  0  0  0  0  0  0  0  0  0
    4.1415   -0.5122    2.6639 H   0  0  0  0  0  0  0  0  0  0  0  0
    0.8347   -2.5562   -2.0052 H   0  0  0  0  0  0  0  0  0  0  0  0
    1.2816   -4.1203   -1.2736 H   0  0  0  0  0  0  0  0  0  0  0  0
    2.1991   -3.4616   -2.6276 H   0  0  0  0  0  0  0  0  0  0  0  0
    2.0686    2.6145   -1.0407 H   0  0  0  0  0  0  0  0  0  0  0  0
    3.1697    1.2615   -0.9483 H   0  0  0  0  0  0  0  0  0  0  0  0
    2.7241    2.1524    0.5311 H   0  0  0  0  0  0  0  0  0  0  0  0
   -2.6229    1.9077   -0.5697 H   0  0  0  0  0  0  0  0  0  0  0  0
   -2.0037    4.7501    0.0722 H   0  0  0  0  0  0  0  0  0  0  0  0
   -1.8689    3.8839   -2.5378 H   0  0  0  0  0  0  0  0  0  0  0  0
   -1.9906    5.5317   -1.9824 H   0  0  0  0  0  0  0  0  0  0  0  0
   -4.4867    3.8746   -2.6371 H   0  0  0  0  0  0  0  0  0  0  0  0
   -3.5530    4.7403   -3.8393 H   0  0  0  0  0  0  0  0  0  0  0  0
   -5.2398    6.2464   -3.2978 H   0  0  0  0  0  0  0  0  0  0  0  0
   -3.8182    6.8771   -2.4955 H   0  0  0  0  0  0  0  0  0  0  0  0
   -6.2148    5.4433   -1.2786 H   0  0  0  0  0  0  0  0  0  0  0  0
   -5.7027    7.1013   -1.0380 H   0  0  0  0  0  0  0  0  0  0  0  0
   -5.2535    5.7985    0.9285 H   0  0  0  0  0  0  0  0  0  0  0  0
   -3.7398    6.3791    0.2614 H   0  0  0  0  0  0  0  0  0  0  0  0
   -3.9934    3.9011    1.1392 H   0  0  0  0  0  0  0  0  0  0  0  0
   -4.7726    3.5540   -0.3858 H   0  0  0  0  0  0  0  0  0  0  0  0
   -0.3636   -5.1362    2.0651 H   0  0  0  0  0  0  0  0  0  0  0  0
   -3.1894   -4.1745   -1.0217 H   0  0  0  0  0  0  0  0  0  0  0  0
   -2.1853   -1.9405   -1.2674 H   0  0  0  0  0  0  0  0  0  0  0  0
  1  5  1  0  0  0  0
  1  2  1  0  0  0  0
  1 24  1  0  0  0  0
  2  3  2  0  0  0  0
  3  4  1  0  0  0  0
  3 14  1  0  0  0  0
  4  5  2  0  0  0  0
  4 13  1  0  0  0  0
  5  6  1  0  0  0  0
  6 10  1  0  0  0  0
  6  7  1  0  0  0  0
  7  8  2  0  0  0  0
  7 12  1  0  0  0  0
  8  9  1  0  0  0  0
  8 32  1  0  0  0  0
  9 10  2  0  0  0  0
  9 33  1  0  0  0  0
 10 11  1  0  0  0  0
 11 34  1  0  0  0  0
 11 35  1  0  0  0  0
 11 36  1  0  0  0  0
 12 37  1  0  0  0  0
 12 38  1  0  0  0  0
 12 39  1  0  0  0  0
 13 40  1  0  0  0  0
 13 41  1  0  0  0  0
 13 42  1  0  0  0  0
 14 15  2  0  0  0  0
 14 16  1  0  0  0  0
 16 17  1  0  0  0  0
 16 43  1  0  0  0  0
 17 23  1  0  0  0  0
 17 18  1  0  0  0  0
 17 44  1  0  0  0  0
 18 19  1  0  0  0  0
 18 45  1  0  0  0  0
 18 46  1  0  0  0  0
 19 20  1  0  0  0  0
 19 47  1  0  0  0  0
 19 48  1  0  0  0  0
 20 21  1  0  0  0  0
 20 49  1  0  0  0  0
 20 50  1  0  0  0  0
 21 22  1  0  0  0  0
 21 51  1  0  0  0  0
 21 52  1  0  0  0  0
 22 23  1  0  0  0  0
 22 53  1  0  0  0  0
 22 54  1  0  0  0  0
 23 55  1  0  0  0  0
 23 56  1  0  0  0  0
 24 29  2  0  0  0  0
 24 25  1  0  0  0  0
 25 26  2  0  0  0  0
 25 31  1  0  0  0  0
 26 27  1  0  0  0  0
 26 57  1  0  0  0  0
 27 28  2  0  0  0  0
 27 30  1  0  0  0  0
 28 29  1  0  0  0  0
 28 58  1  0  0  0  0
 29 59  1  0  0  0  0
M  END
$$$$
CHEMBL190469
 OpenBabel12022418093D

 49 51  0  0  0  0  0  0  0  0999 V2000
    1.6225   -1.1562   -0.0258 C   0  0  0  0  0  0  0  0  0  0  0  0
    2.3693    0.0261   -0.0168 C   0  0  0  0  0  0  0  0  0  0  0  0
    3.8438    0.2670   -0.0927 C   0  0  0  0  0  0  0  0  0  0  0  0
    1.4722    1.0969    0.0308 N   0  0  0  0  0  0  0  0  0  0  0  0
    0.1703    0.6287   -0.0135 C   0  0  0  0  0  0  0  0  0  0  0  0
    0.2400   -0.7676   -0.0202 C   0  0  0  0  0  0  0  0  0  0  0  0
   -0.9655   -1.5116   -0.0305 C   0  0  0  0  0  0  0  0  0  0  0  0
   -2.2007   -0.8625   -0.0300 C   0  0  0  0  0  0  0  0  0  0  0  0
   -2.2528    0.5195   -0.0408 C   0  0  0  0  0  0  0  0  0  0  0  0
   -1.0798    1.2794   -0.0468 C   0  0  0  0  0  0  0  0  0  0  0  0
    1.9147    2.4883   -0.0021 C   0  0  0  0  0  0  0  0  0  0  0  0
    1.1074    3.5867    0.6898 C   0  0  0  0  0  0  0  0  0  0  0  0
    0.8277    3.3283    2.1704 C   0  0  0  0  0  0  0  0  0  0  0  0
   -0.0810    4.4216    2.7347 C   0  0  0  0  0  0  0  0  0  0  0  0
   -0.3785    4.2086    4.2090 C   0  0  0  0  0  0  0  0  0  0  0  0
    2.0860   -2.5595   -0.0833 C   0  0  0  0  0  0  0  0  0  0  0  0
    1.3828   -3.4230   -0.6186 O   0  0  0  0  0  0  0  0  0  0  0  0
    3.4173   -2.9588    0.5098 C   0  0  0  0  0  0  0  0  0  0  0  0
    3.3133   -4.0314    1.5607 C   0  0  0  0  0  0  0  0  0  0  0  0
    3.1543   -3.6673    2.9010 C   0  0  0  0  0  0  0  0  0  0  0  0
    3.1300   -4.6202    3.9125 C   0  0  0  0  0  0  0  0  0  0  0  0
    3.2538   -5.9689    3.5884 C   0  0  0  0  0  0  0  0  0  0  0  0
    3.3752   -6.3548    2.2515 C   0  0  0  0  0  0  0  0  0  0  0  0
    3.4000   -5.3911    1.2390 C   0  0  0  0  0  0  0  0  0  0  0  0
    3.0487   -2.3716    3.2297 F   0  0  0  0  0  0  0  0  0  0  0  0
    4.4212   -0.6328   -0.3063 H   0  0  0  0  0  0  0  0  0  0  0  0
    4.2053    0.6887    0.8512 H   0  0  0  0  0  0  0  0  0  0  0  0
    4.0790    0.9674   -0.9025 H   0  0  0  0  0  0  0  0  0  0  0  0
   -0.9350   -2.5984   -0.0392 H   0  0  0  0  0  0  0  0  0  0  0  0
   -3.1160   -1.4467   -0.0314 H   0  0  0  0  0  0  0  0  0  0  0  0
   -3.2163    1.0231   -0.0433 H   0  0  0  0  0  0  0  0  0  0  0  0
   -1.1750    2.3561   -0.0634 H   0  0  0  0  0  0  0  0  0  0  0  0
    2.0320    2.7363   -1.0637 H   0  0  0  0  0  0  0  0  0  0  0  0
    2.9140    2.5228    0.4486 H   0  0  0  0  0  0  0  0  0  0  0  0
    0.1840    3.7858    0.1433 H   0  0  0  0  0  0  0  0  0  0  0  0
    1.6802    4.5202    0.6068 H   0  0  0  0  0  0  0  0  0  0  0  0
    1.7748    3.3050    2.7233 H   0  0  0  0  0  0  0  0  0  0  0  0
    0.3493    2.3541    2.3157 H   0  0  0  0  0  0  0  0  0  0  0  0
   -1.0254    4.4372    2.1798 H   0  0  0  0  0  0  0  0  0  0  0  0
    0.3900    5.4019    2.5999 H   0  0  0  0  0  0  0  0  0  0  0  0
   -0.8845    3.2524    4.3722 H   0  0  0  0  0  0  0  0  0  0  0  0
   -1.0298    5.0059    4.5791 H   0  0  0  0  0  0  0  0  0  0  0  0
    0.5417    4.2178    4.8013 H   0  0  0  0  0  0  0  0  0  0  0  0
    3.9193   -2.1107    0.9759 H   0  0  0  0  0  0  0  0  0  0  0  0
    4.0620   -3.2905   -0.3111 H   0  0  0  0  0  0  0  0  0  0  0  0
    3.0255   -4.3033    4.9454 H   0  0  0  0  0  0  0  0  0  0  0  0
    3.2500   -6.7198    4.3740 H   0  0  0  0  0  0  0  0  0  0  0  0
    3.4573   -7.4087    1.9977 H   0  0  0  0  0  0  0  0  0  0  0  0
    3.4899   -5.7080    0.2019 H   0  0  0  0  0  0  0  0  0  0  0  0
  1  6  1  0  0  0  0
  1  2  2  0  0  0  0
  1 16  1  0  0  0  0
  2  3  1  0  0  0  0
  2  4  1  0  0  0  0
  3 26  1  0  0  0  0
  3 27  1  0  0  0  0
  3 28  1  0  0  0  0
  4  5  1  0  0  0  0
  4 11  1  0  0  0  0
  5 10  2  0  0  0  0
  5  6  1  0  0  0  0
  6  7  2  0  0  0  0
  7  8  1  0  0  0  0
  7 29  1  0  0  0  0
  8  9  2  0  0  0  0
  8 30  1  0  0  0  0
  9 10  1  0  0  0  0
  9 31  1  0  0  0  0
 10 32  1  0  0  0  0
 11 12  1  0  0  0  0
 11 33  1  0  0  0  0
 11 34  1  0  0  0  0
 12 13  1  0  0  0  0
 12 35  1  0  0  0  0
 12 36  1  0  0  0  0
 13 14  1  0  0  0  0
 13 37  1  0  0  0  0
 13 38  1  0  0  0  0
 14 15  1  0  0  0  0
 14 39  1  0  0  0  0
 14 40  1  0  0  0  0
 15 41  1  0  0  0  0
 15 42  1  0  0  0  0
 15 43  1  0  0  0  0
 16 17  2  0  0  0  0
 16 18  1  0  0  0  0
 18 19  1  0  0  0  0
 18 44  1  0  0  0  0
 18 45  1  0  0  0  0
 19 24  2  0  0  0  0
 19 20  1  0  0  0  0
 20 21  2  0  0  0  0
 20 25  1  0  0  0  0
 21 22  1  0  0  0  0
 21 46  1  0  0  0  0
 22 23  2  0  0  0  0
 22 47  1  0  0  0  0
 23 24  1  0  0  0  0
 23 48  1  0  0  0  0
 24 49  1  0  0  0  0
M  END
$$$$
CHEMBL232131
 OpenBabel12022418093D

 47 49  0  0  0  0  0  0  0  0999 V2000
    1.8527   -3.2423    0.2015 C   0  0  0  0  0  0  0  0  0  0  0  0
    2.5970   -2.5531    1.6964 S   0  0  0  0  0  0  0  0  0  0  0  0
    3.7441   -1.3928    0.9832 C   0  0  0  0  0  0  0  0  0  0  0  0
    3.1493   -0.0346    0.1743 S   0  0  0  0  0  0  0  0  0  0  0  0
    5.0842   -1.5972    1.3812 N   0  0  0  0  0  0  0  0  0  0  0  0
    5.9676   -0.4127    1.5671 C   0  0  0  0  0  0  0  0  0  0  0  0
    6.8361   -0.4604    2.8471 C   0  0  0  0  0  0  0  0  0  0  0  0
    7.7568    0.7821    2.9992 C   0  0  0  0  0  0  0  0  0  0  0  0
    8.5616    0.7467    4.3136 C   0  0  0  0  0  0  0  0  0  0  0  0
    7.6814    0.5560    5.5491 C   0  0  0  0  0  0  0  0  0  0  0  0
    6.6590   -0.5657    5.4031 C   0  0  0  0  0  0  0  0  0  0  0  0
    5.8999   -0.4728    4.0855 C   0  0  0  0  0  0  0  0  0  0  0  0
    7.7578   -1.6673    2.6785 C   0  0  0  0  0  0  0  0  0  0  0  0
    6.8658   -3.1863    2.6160 S   0  0  0  0  0  0  0  0  0  0  0  0
    5.6402   -2.8925    1.3955 C   0  0  0  0  0  0  0  0  0  0  0  0
    5.2068   -3.8189    0.5874 N   0  0  0  0  0  0  0  0  0  0  0  0
    5.7106   -5.1456    0.5578 C   0  0  0  0  0  0  0  0  0  0  0  0
    5.8668   -5.8925    1.7411 C   0  0  0  0  0  0  0  0  0  0  0  0
    6.5501   -7.1110    1.7710 C   0  0  0  0  0  0  0  0  0  0  0  0
    6.9661   -7.6895    0.5869 C   0  0  0  0  0  0  0  0  0  0  0  0
    6.6656   -7.0551   -0.6171 C   0  0  0  0  0  0  0  0  0  0  0  0
    6.0454   -5.7799   -0.6490 C   0  0  0  0  0  0  0  0  0  0  0  0
    5.7422   -5.2144   -2.0121 C   0  0  0  0  0  0  0  0  0  0  0  0
    5.1715   -3.9824   -2.0469 F   0  0  0  0  0  0  0  0  0  0  0  0
    6.8695   -5.1162   -2.7791 F   0  0  0  0  0  0  0  0  0  0  0  0
    4.9016   -6.0271   -2.7205 F   0  0  0  0  0  0  0  0  0  0  0  0
    1.1515   -4.0306    0.4896 H   0  0  0  0  0  0  0  0  0  0  0  0
    2.6120   -3.6775   -0.4522 H   0  0  0  0  0  0  0  0  0  0  0  0
    1.2932   -2.4813   -0.3486 H   0  0  0  0  0  0  0  0  0  0  0  0
    5.3741    0.5068    1.6022 H   0  0  0  0  0  0  0  0  0  0  0  0
    6.6046   -0.3469    0.6744 H   0  0  0  0  0  0  0  0  0  0  0  0
    7.1568    1.6996    2.9775 H   0  0  0  0  0  0  0  0  0  0  0  0
    8.4572    0.8458    2.1565 H   0  0  0  0  0  0  0  0  0  0  0  0
    9.1362    1.6733    4.4181 H   0  0  0  0  0  0  0  0  0  0  0  0
    9.3102   -0.0533    4.2809 H   0  0  0  0  0  0  0  0  0  0  0  0
    7.1525    1.4941    5.7511 H   0  0  0  0  0  0  0  0  0  0  0  0
    8.3117    0.3548    6.4242 H   0  0  0  0  0  0  0  0  0  0  0  0
    5.9459   -0.5164    6.2350 H   0  0  0  0  0  0  0  0  0  0  0  0
    7.1530   -1.5405    5.4790 H   0  0  0  0  0  0  0  0  0  0  0  0
    5.1633   -1.2820    4.0394 H   0  0  0  0  0  0  0  0  0  0  0  0
    5.3097    0.4560    4.0914 H   0  0  0  0  0  0  0  0  0  0  0  0
    8.4728   -1.7759    3.4942 H   0  0  0  0  0  0  0  0  0  0  0  0
    8.3498   -1.5798    1.7590 H   0  0  0  0  0  0  0  0  0  0  0  0
    5.5101   -5.4955    2.6873 H   0  0  0  0  0  0  0  0  0  0  0  0
    6.7576   -7.5867    2.7267 H   0  0  0  0  0  0  0  0  0  0  0  0
    7.4940   -8.6427    0.5996 H   0  0  0  0  0  0  0  0  0  0  0  0
    6.9453   -7.5483   -1.5468 H   0  0  0  0  0  0  0  0  0  0  0  0
  1  2  1  0  0  0  0
  1 27  1  0  0  0  0
  1 28  1  0  0  0  0
  1 29  1  0  0  0  0
  2  3  1  0  0  0  0
  3  4  2  0  0  0  0
  3  5  1  0  0  0  0
  5 15  1  0  0  0  0
  5  6  1  0  0  0  0
  6  7  1  0  0  0  0
  6 30  1  0  0  0  0
  6 31  1  0  0  0  0
  7 12  1  0  0  0  0
  7  8  1  0  0  0  0
  7 13  1  0  0  0  0
  8  9  1  0  0  0  0
  8 32  1  0  0  0  0
  8 33  1  0  0  0  0
  9 10  1  0  0  0  0
  9 34  1  0  0  0  0
  9 35  1  0  0  0  0
 10 11  1  0  0  0  0
 10 36  1  0  0  0  0
 10 37  1  0  0  0  0
 11 12  1  0  0  0  0
 11 38  1  0  0  0  0
 11 39  1  0  0  0  0
 12 40  1  0  0  0  0
 12 41  1  0  0  0  0
 13 14  1  0  0  0  0
 13 42  1  0  0  0  0
 13 43  1  0  0  0  0
 14 15  1  0  0  0  0
 15 16  2  0  0  0  0
 16 17  1  0  0  0  0
 17 22  2  0  0  0  0
 17 18  1  0  0  0  0
 18 19  2  0  0  0  0
 18 44  1  0  0  0  0
 19 20  1  0  0  0  0
 19 45  1  0  0  0  0
 20 21  2  0  0  0  0
 20 46  1  0  0  0  0
 21 22  1  0  0  0  0
 21 47  1  0  0  0  0
 22 23  1  0  0  0  0
 23 24  1  0  0  0  0
 23 25  1  0  0  0  0
 23 26  1  0  0  0  0
M  END
$$$$
CHEMBL4783200
 OpenBabel12022418093D

 53 53  0  0  0  0  0  0  0  0999 V2000
   -0.2215   -1.1362   -0.0555 C   0  0  0  0  0  0  0  0  0  0  0  0
   -1.0947   -0.0435   -0.1445 C   0  0  0  0  0  0  0  0  0  0  0  0
   -0.3140    1.1438   -0.0752 C   0  0  0  0  0  0  0  0  0  0  0  0
   -0.7837    2.5448   -0.0086 C   0  0  0  0  0  0  0  0  0  0  0  0
   -1.9734    2.8464    0.0325 O   0  0  0  0  0  0  0  0  0  0  0  0
    0.2152    3.5017    0.0187 N   0  0  0  0  0  0  0  0  0  0  0  0
   -0.0356    4.9609    0.0255 C   0  0  0  0  0  0  0  0  0  0  0  0
    1.3169    5.7003    0.0216 C   0  0  0  0  0  0  0  0  0  0  0  0
   -0.8103    5.3903   -1.2355 C   0  0  0  0  0  0  0  0  0  0  0  0
   -0.8373    5.3962    1.2851 C   0  0  0  0  0  0  0  0  0  0  0  0
   -0.1406    5.0606    2.4849 O   0  0  0  0  0  0  0  0  0  0  0  0
    0.9894    0.8312   -0.0481 N   0  0  0  0  0  0  0  0  0  0  0  0
    1.0350   -0.5279   -0.0675 N   0  0  0  0  0  0  0  0  0  0  0  0
    2.3841   -1.0638    0.0024 C   0  0  0  0  0  0  0  0  0  0  0  0
    3.0252   -1.4553   -1.3316 C   0  0  0  0  0  0  0  0  0  0  0  0
    3.2302   -0.3066   -2.3337 C   0  0  0  0  0  0  0  0  0  0  0  0
    3.9148   -0.8389   -3.6004 C   0  0  0  0  0  0  0  0  0  0  0  0
    4.1020    0.2144   -4.6812 C   0  0  0  0  0  0  0  0  0  0  0  0
   -2.7945   -0.0345   -0.2808 Cl  0  0  0  0  0  0  0  0  0  0  0  0
   -0.5661   -2.6578    0.0160 C   0  0  0  0  0  0  0  0  0  0  0  0
    0.4602   -3.5124    0.7809 C   0  0  0  0  0  0  0  0  0  0  0  0
   -1.9073   -2.9034    0.7638 C   0  0  0  0  0  0  0  0  0  0  0  0
   -0.7278   -3.2645   -1.3924 C   0  0  0  0  0  0  0  0  0  0  0  0
    1.1650    3.1366   -0.0493 H   0  0  0  0  0  0  0  0  0  0  0  0
    1.9061    5.4429   -0.8658 H   0  0  0  0  0  0  0  0  0  0  0  0
    1.9211    5.4468    0.8991 H   0  0  0  0  0  0  0  0  0  0  0  0
    1.1713    6.7878    0.0191 H   0  0  0  0  0  0  0  0  0  0  0  0
   -0.2750    5.0998   -2.1459 H   0  0  0  0  0  0  0  0  0  0  0  0
   -0.9530    6.4776   -1.2603 H   0  0  0  0  0  0  0  0  0  0  0  0
   -1.8059    4.9375   -1.2827 H   0  0  0  0  0  0  0  0  0  0  0  0
   -1.8282    4.9349    1.3315 H   0  0  0  0  0  0  0  0  0  0  0  0
   -0.9884    6.4820    1.2875 H   0  0  0  0  0  0  0  0  0  0  0  0
   -0.0729    4.0894    2.4886 H   0  0  0  0  0  0  0  0  0  0  0  0
    2.3912   -1.8978    0.7021 H   0  0  0  0  0  0  0  0  0  0  0  0
    3.0104   -0.3013    0.4855 H   0  0  0  0  0  0  0  0  0  0  0  0
    2.4381   -2.2481   -1.8059 H   0  0  0  0  0  0  0  0  0  0  0  0
    4.0117   -1.8830   -1.1070 H   0  0  0  0  0  0  0  0  0  0  0  0
    3.8471    0.4820   -1.8843 H   0  0  0  0  0  0  0  0  0  0  0  0
    2.2672    0.1433   -2.5994 H   0  0  0  0  0  0  0  0  0  0  0  0
    3.3197   -1.6603   -4.0159 H   0  0  0  0  0  0  0  0  0  0  0  0
    4.8963   -1.2530   -3.3400 H   0  0  0  0  0  0  0  0  0  0  0  0
    3.1424    0.6331   -4.9991 H   0  0  0  0  0  0  0  0  0  0  0  0
    4.5767   -0.2376   -5.5597 H   0  0  0  0  0  0  0  0  0  0  0  0
    4.7435    1.0313   -4.3374 H   0  0  0  0  0  0  0  0  0  0  0  0
    0.6425   -3.1180    1.7863 H   0  0  0  0  0  0  0  0  0  0  0  0
    1.4073   -3.6019    0.2445 H   0  0  0  0  0  0  0  0  0  0  0  0
    0.1027   -4.5448    0.8990 H   0  0  0  0  0  0  0  0  0  0  0  0
   -1.9164   -2.4189    1.7463 H   0  0  0  0  0  0  0  0  0  0  0  0
   -2.0901   -3.9743    0.9209 H   0  0  0  0  0  0  0  0  0  0  0  0
   -2.7737   -2.5606    0.1938 H   0  0  0  0  0  0  0  0  0  0  0  0
    0.2119   -3.2548   -1.9525 H   0  0  0  0  0  0  0  0  0  0  0  0
   -1.4822   -2.7337   -1.9829 H   0  0  0  0  0  0  0  0  0  0  0  0
   -1.0526   -4.3130   -1.3253 H   0  0  0  0  0  0  0  0  0  0  0  0
  1 13  1  0  0  0  0
  1  2  2  0  0  0  0
  1 20  1  0  0  0  0
  2  3  1  0  0  0  0
  2 19  1  0  0  0  0
  3  4  1  0  0  0  0
  3 12  2  0  0  0  0
  4  5  2  0  0  0  0
  4  6  1  0  0  0  0
  6  7  1  0  0  0  0
  6 24  1  0  0  0  0
  7  8  1  0  0  0  0
  7  9  1  0  0  0  0
  7 10  1  0  0  0  0
  8 25  1  0  0  0  0
  8 26  1  0  0  0  0
  8 27  1  0  0  0  0
  9 28  1  0  0  0  0
  9 29  1  0  0  0  0
  9 30  1  0  0  0  0
 10 11  1  0  0  0  0
 10 31  1  0  0  0  0
 10 32  1  0  0  0  0
 11 33  1  0  0  0  0
 12 13  1  0  0  0  0
 13 14  1  0  0  0  0
 14 15  1  0  0  0  0
 14 34  1  0  0  0  0
 14 35  1  0  0  0  0
 15 16  1  0  0  0  0
 15 36  1  0  0  0  0
 15 37  1  0  0  0  0
 16 17  1  0  0  0  0
 16 38  1  0  0  0  0
 16 39  1  0  0  0  0
 17 18  1  0  0  0  0
 17 40  1  0  0  0  0
 17 41  1  0  0  0  0
 18 42  1  0  0  0  0
 18 43  1  0  0  0  0
 18 44  1  0  0  0  0
 20 21  1  0  0  0  0
 20 22  1  0  0  0  0
 20 23  1  0  0  0  0
 21 45  1  0  0  0  0
 21 46  1  0  0  0  0
 21 47  1  0  0  0  0
 22 48  1  0  0  0  0
 22 49  1  0  0  0  0
 22 50  1  0  0  0  0
 23 51  1  0  0  0  0
 23 52  1  0  0  0  0
 23 53  1  0  0  0  0
M  END
$$$$
CHEMBL111702
 OpenBabel12022418093D

 66 68  0  0  0  0  0  0  0  0999 V2000
    6.8425    3.7470    2.1929 C   0  0  0  0  0  0  0  0  0  0  0  0
    6.4108    2.5118    1.4169 C   0  0  0  0  0  0  0  0  0  0  0  0
    6.9003    1.2429    2.1060 C   0  0  0  0  0  0  0  0  0  0  0  0
    6.4867   -0.0225    1.3515 C   0  0  0  0  0  0  0  0  0  0  0  0
    7.0007   -1.2500    2.1021 C   0  0  0  0  0  0  0  0  0  0  0  0
    6.6164   -2.5715    1.4223 C   0  0  0  0  0  0  0  0  0  0  0  0
    7.1418   -3.8361    2.1736 C   0  0  0  0  0  0  0  0  0  0  0  0
    6.4640   -3.9062    3.5678 C   0  0  0  0  0  0  0  0  0  0  0  0
    6.6844   -5.1027    1.4141 C   0  0  0  0  0  0  0  0  0  0  0  0
    8.6787   -3.8255    2.2362 C   0  0  0  0  0  0  0  0  0  0  0  0
    9.3689   -3.8212    3.4478 C   0  0  0  0  0  0  0  0  0  0  0  0
   10.7711   -3.7553    3.5026 C   0  0  0  0  0  0  0  0  0  0  0  0
   11.5777   -3.7499    2.3370 C   0  0  0  0  0  0  0  0  0  0  0  0
   13.0601   -3.7413    2.2878 C   0  0  0  0  0  0  0  0  0  0  0  0
   13.7011   -3.7551    1.0349 C   0  0  0  0  0  0  0  0  0  0  0  0
   12.8759   -3.7940   -0.2506 C   0  0  0  0  0  0  0  0  0  0  0  0
   13.1462   -5.1096   -1.0027 C   0  0  0  0  0  0  0  0  0  0  0  0
   13.2282   -2.5999   -1.1591 C   0  0  0  0  0  0  0  0  0  0  0  0
   11.4460   -3.7282   -0.1107 O   0  0  0  0  0  0  0  0  0  0  0  0
   10.8706   -3.7598    1.1259 C   0  0  0  0  0  0  0  0  0  0  0  0
    9.4628   -3.7906    1.0762 C   0  0  0  0  0  0  0  0  0  0  0  0
   15.1175   -3.7484    0.9565 C   0  0  0  0  0  0  0  0  0  0  0  0
   15.9116   -3.7249    2.1005 C   0  0  0  0  0  0  0  0  0  0  0  0
   15.2976   -3.7287    3.3430 C   0  0  0  0  0  0  0  0  0  0  0  0
   16.0554   -3.6956    4.6210 C   0  0  0  0  0  0  0  0  0  0  0  0
   15.6063   -3.2011    5.6412 O   0  0  0  0  0  0  0  0  0  0  0  0
   17.2556   -4.3064    4.5678 O   0  0  0  0  0  0  0  0  0  0  0  0
   13.8932   -3.7259    3.4238 C   0  0  0  0  0  0  0  0  0  0  0  0
   11.3760   -3.7797    4.7898 O   0  0  0  0  0  0  0  0  0  0  0  0
   10.8528   -3.1574    5.9277 C   0  0  0  0  0  0  0  0  0  0  0  0
    9.8177   -2.5101    6.0018 O   0  0  0  0  0  0  0  0  0  0  0  0
   11.7656   -3.4054    7.0952 C   0  0  0  0  0  0  0  0  0  0  0  0
    6.4878    4.6535    1.6937 H   0  0  0  0  0  0  0  0  0  0  0  0
    7.9333    3.8014    2.2658 H   0  0  0  0  0  0  0  0  0  0  0  0
    6.4326    3.7338    3.2081 H   0  0  0  0  0  0  0  0  0  0  0  0
    6.8127    2.5633    0.3988 H   0  0  0  0  0  0  0  0  0  0  0  0
    5.3179    2.4962    1.3381 H   0  0  0  0  0  0  0  0  0  0  0  0
    6.4992    1.2058    3.1268 H   0  0  0  0  0  0  0  0  0  0  0  0
    7.9936    1.2732    2.1942 H   0  0  0  0  0  0  0  0  0  0  0  0
    6.8965   -0.0048    0.3349 H   0  0  0  0  0  0  0  0  0  0  0  0
    5.3945   -0.0669    1.2665 H   0  0  0  0  0  0  0  0  0  0  0  0
    6.5948   -1.2204    3.1182 H   0  0  0  0  0  0  0  0  0  0  0  0
    8.0907   -1.1759    2.1878 H   0  0  0  0  0  0  0  0  0  0  0  0
    6.9871   -2.5602    0.3892 H   0  0  0  0  0  0  0  0  0  0  0  0
    5.5219   -2.6250    1.3471 H   0  0  0  0  0  0  0  0  0  0  0  0
    5.3718   -3.9114    3.4768 H   0  0  0  0  0  0  0  0  0  0  0  0
    6.7299   -3.0582    4.2077 H   0  0  0  0  0  0  0  0  0  0  0  0
    6.7493   -4.8180    4.1061 H   0  0  0  0  0  0  0  0  0  0  0  0
    5.5916   -5.1919    1.4185 H   0  0  0  0  0  0  0  0  0  0  0  0
    7.0915   -6.0084    1.8804 H   0  0  0  0  0  0  0  0  0  0  0  0
    7.0051   -5.0981    0.3670 H   0  0  0  0  0  0  0  0  0  0  0  0
    8.8185   -3.8667    4.3812 H   0  0  0  0  0  0  0  0  0  0  0  0
   14.2055   -5.2557   -1.2378 H   0  0  0  0  0  0  0  0  0  0  0  0
   12.5845   -5.1451   -1.9437 H   0  0  0  0  0  0  0  0  0  0  0  0
   12.8090   -5.9685   -0.4098 H   0  0  0  0  0  0  0  0  0  0  0  0
   14.2920   -2.5468   -1.4105 H   0  0  0  0  0  0  0  0  0  0  0  0
   12.9453   -1.6545   -0.6804 H   0  0  0  0  0  0  0  0  0  0  0  0
   12.6673   -2.6475   -2.1006 H   0  0  0  0  0  0  0  0  0  0  0  0
    8.9870   -3.7869    0.0959 H   0  0  0  0  0  0  0  0  0  0  0  0
   15.6154   -3.7537   -0.0120 H   0  0  0  0  0  0  0  0  0  0  0  0
   16.9916   -3.6770    1.9930 H   0  0  0  0  0  0  0  0  0  0  0  0
   17.4192   -4.8348    3.7665 H   0  0  0  0  0  0  0  0  0  0  0  0
   13.4871   -3.7062    4.4235 H   0  0  0  0  0  0  0  0  0  0  0  0
   12.6596   -3.9529    6.7853 H   0  0  0  0  0  0  0  0  0  0  0  0
   11.2387   -3.9976    7.8461 H   0  0  0  0  0  0  0  0  0  0  0  0
   12.0794   -2.4452    7.5131 H   0  0  0  0  0  0  0  0  0  0  0  0
  1  2  1  0  0  0  0
  1 33  1  0  0  0  0
  1 34  1  0  0  0  0
  1 35  1  0  0  0  0
  2  3  1  0  0  0  0
  2 36  1  0  0  0  0
  2 37  1  0  0  0  0
  3  4  1  0  0  0  0
  3 38  1  0  0  0  0
  3 39  1  0  0  0  0
  4  5  1  0  0  0  0
  4 40  1  0  0  0  0
  4 41  1  0  0  0  0
  5  6  1  0  0  0  0
  5 42  1  0  0  0  0
  5 43  1  0  0  0  0
  6  7  1  0  0  0  0
  6 44  1  0  0  0  0
  6 45  1  0  0  0  0
  7  8  1  0  0  0  0
  7  9  1  0  0  0  0
  7 10  1  0  0  0  0
  8 46  1  0  0  0  0
  8 47  1  0  0  0  0
  8 48  1  0  0  0  0
  9 49  1  0  0  0  0
  9 50  1  0  0  0  0
  9 51  1  0  0  0  0
 10 21  2  0  0  0  0
 10 11  1  0  0  0  0
 11 12  2  0  0  0  0
 11 52  1  0  0  0  0
 12 13  1  0  0  0  0
 12 29  1  0  0  0  0
 13 20  2  0  0  0  0
 13 14  1  0  0  0  0
 14 28  2  0  0  0  0
 14 15  1  0  0  0  0
 15 16  1  0  0  0  0
 15 22  2  0  0  0  0
 16 17  1  0  0  0  0
 16 18  1  0  0  0  0
 16 19  1  0  0  0  0
 17 53  1  0  0  0  0
 17 54  1  0  0  0  0
 17 55  1  0  0  0  0
 18 56  1  0  0  0  0
 18 57  1  0  0  0  0
 18 58  1  0  0  0  0
 19 20  1  0  0  0  0
 20 21  1  0  0  0  0
 21 59  1  0  0  0  0
 22 23  1  0  0  0  0
 22 60  1  0  0  0  0
 23 24  2  0  0  0  0
 23 61  1  0  0  0  0
 24 25  1  0  0  0  0
 24 28  1  0  0  0  0
 25 26  2  0  0  0  0
 25 27  1  0  0  0  0
 27 62  1  0  0  0  0
 28 63  1  0  0  0  0
 29 30  1  0  0  0  0
 30 31  2  0  0  0  0
 30 32  1  0  0  0  0
 32 64  1  0  0  0  0
 32 65  1  0  0  0  0
 32 66  1  0  0  0  0
M  END
$$$$
CHEMBL3780166
 OpenBabel12022418093D

 62 66  0  0  1  0  0  0  0  0999 V2000
    0.0540    0.7825   -0.0045 C   0  0  0  0  0  0  0  0  0  0  0  0
   -1.2118    1.4103   -0.0008 C   0  0  0  0  0  0  0  0  0  0  0  0
   -2.3988    0.6748   -0.0227 C   0  0  0  0  0  0  0  0  0  0  0  0
   -2.3501   -0.7068   -0.0043 C   0  0  0  0  0  0  0  0  0  0  0  0
   -1.1149   -1.3479    0.0224 C   0  0  0  0  0  0  0  0  0  0  0  0
    0.0938   -0.6232   -0.0033 C   0  0  0  0  0  0  0  0  0  0  0  0
    1.3555   -1.2913   -0.0488 N   0  0  0  0  0  0  0  0  0  0  0  0
    1.4148   -2.7688   -0.0016 C   0  0  0  0  0  0  0  0  0  0  0  0
    1.3325   -3.4014   -1.3954 C   0  0  0  0  0  0  0  0  0  0  0  0
    1.3376   -4.9362   -1.3783 C   0  0  0  0  0  0  0  0  0  0  0  0
    1.2604   -5.4521   -2.8193 C   0  0  0  0  0  0  0  0  0  0  0  0
    1.2666   -6.9671   -2.9097 C   0  0  0  0  0  0  0  0  0  0  0  0
    2.5507   -0.5864   -0.1723 C   0  0  0  0  0  0  0  0  0  0  0  0
    3.6503   -1.1604   -0.1785 O   0  0  0  0  0  0  0  0  0  0  0  0
    2.5067    0.9051   -0.2912 C   0  0  0  0  0  0  0  0  0  0  0  0
    3.7398    1.7271   -0.6582 C   0  0  0  0  0  0  0  0  0  0  0  0
    3.6989    2.9372   -0.8074 O   0  0  0  0  0  0  0  0  0  0  0  0
    4.9155    1.0113   -0.8778 N   0  0  0  0  0  0  0  0  0  0  0  0
    6.1951    1.6416   -1.2539 C   0  0  1  0  0  0  0  0  0  0  0  0
    6.0648    2.4352   -2.5837 C   0  0  0  0  0  0  0  0  0  0  0  0
    7.3792    3.1492   -2.9322 C   0  0  2  0  0  0  0  0  0  0  0  0
    8.4812    2.0992   -3.1252 C   0  0  0  0  0  0  0  0  0  0  0  0
    8.6665    1.2940   -1.8278 C   0  0  1  0  0  0  0  0  0  0  0  0
    9.0653    2.2547   -0.6938 C   0  0  0  0  0  0  0  0  0  0  0  0
    7.9611    3.2981   -0.4828 C   0  0  2  0  0  0  0  0  0  0  0  0
    6.6565    2.5824   -0.1177 C   0  0  0  0  0  0  0  0  0  0  0  0
    7.7585    4.0955   -1.7809 C   0  0  0  0  0  0  0  0  0  0  0  0
    7.3331    0.5901   -1.4643 C   0  0  0  0  0  0  0  0  0  0  0  0
    1.3271    1.5383   -0.0910 C   0  0  0  0  0  0  0  0  0  0  0  0
    1.2639    2.9185    0.0037 O   0  0  0  0  0  0  0  0  0  0  0  0
   -1.3308    2.4891   -0.0110 H   0  0  0  0  0  0  0  0  0  0  0  0
   -3.3591    1.1838   -0.0670 H   0  0  0  0  0  0  0  0  0  0  0  0
   -3.2665   -1.2919   -0.0235 H   0  0  0  0  0  0  0  0  0  0  0  0
   -1.1452   -2.4330    0.0359 H   0  0  0  0  0  0  0  0  0  0  0  0
    0.6262   -3.1574    0.6502 H   0  0  0  0  0  0  0  0  0  0  0  0
    2.3506   -3.0741    0.4831 H   0  0  0  0  0  0  0  0  0  0  0  0
    2.1742   -3.0506   -2.0039 H   0  0  0  0  0  0  0  0  0  0  0  0
    0.4195   -3.0665   -1.9026 H   0  0  0  0  0  0  0  0  0  0  0  0
    0.4853   -5.3152   -0.8009 H   0  0  0  0  0  0  0  0  0  0  0  0
    2.2484   -5.3095   -0.8949 H   0  0  0  0  0  0  0  0  0  0  0  0
    2.1087   -5.0601   -3.3929 H   0  0  0  0  0  0  0  0  0  0  0  0
    0.3485   -5.0729   -3.2958 H   0  0  0  0  0  0  0  0  0  0  0  0
    2.1821   -7.3834   -2.4790 H   0  0  0  0  0  0  0  0  0  0  0  0
    1.2145   -7.2769   -3.9591 H   0  0  0  0  0  0  0  0  0  0  0  0
    0.4067   -7.3967   -2.3870 H   0  0  0  0  0  0  0  0  0  0  0  0
    4.9191    0.0323   -0.5904 H   0  0  0  0  0  0  0  0  0  0  0  0
    5.2740    3.1879   -2.5230 H   0  0  0  0  0  0  0  0  0  0  0  0
    5.7787    1.7604   -3.4021 H   0  0  0  0  0  0  0  0  0  0  0  0
    7.2501    3.7256   -3.8553 H   0  0  0  0  0  0  0  0  0  0  0  0
    9.4203    2.5913   -3.4078 H   0  0  0  0  0  0  0  0  0  0  0  0
    8.2165    1.4248   -3.9489 H   0  0  0  0  0  0  0  0  0  0  0  0
    9.4612    0.5524   -1.9707 H   0  0  0  0  0  0  0  0  0  0  0  0
   10.0094    2.7592   -0.9351 H   0  0  0  0  0  0  0  0  0  0  0  0
    9.2334    1.6925    0.2326 H   0  0  0  0  0  0  0  0  0  0  0  0
    8.2392    3.9771    0.3305 H   0  0  0  0  0  0  0  0  0  0  0  0
    6.7881    2.0037    0.8067 H   0  0  0  0  0  0  0  0  0  0  0  0
    5.8931    3.3349    0.1009 H   0  0  0  0  0  0  0  0  0  0  0  0
    6.9715    4.8470   -1.6397 H   0  0  0  0  0  0  0  0  0  0  0  0
    8.6772    4.6395   -2.0308 H   0  0  0  0  0  0  0  0  0  0  0  0
    7.0686   -0.1206   -2.2589 H   0  0  0  0  0  0  0  0  0  0  0  0
    7.4770   -0.0079   -0.5548 H   0  0  0  0  0  0  0  0  0  0  0  0
    0.3651    3.2620   -0.0361 H   0  0  0  0  0  0  0  0  0  0  0  0
  1  6  2  0  0  0  0
  1 29  1  0  0  0  0
  1  2  1  0  0  0  0
  2  3  2  0  0  0  0
  2 31  1  0  0  0  0
  3  4  1  0  0  0  0
  3 32  1  0  0  0  0
  4  5  2  0  0  0  0
  4 33  1  0  0  0  0
  5  6  1  0  0  0  0
  5 34  1  0  0  0  0
  6  7  1  0  0  0  0
  7  8  1  0  0  0  0
  7 13  1  0  0  0  0
  8  9  1  0  0  0  0
  8 35  1  0  0  0  0
  8 36  1  0  0  0  0
  9 10  1  0  0  0  0
  9 37  1  0  0  0  0
  9 38  1  0  0  0  0
 10 11  1  0  0  0  0
 10 39  1  0  0  0  0
 10 40  1  0  0  0  0
 11 12  1  0  0  0  0
 11 41  1  0  0  0  0
 11 42  1  0  0  0  0
 12 43  1  0  0  0  0
 12 44  1  0  0  0  0
 12 45  1  0  0  0  0
 13 14  2  0  0  0  0
 13 15  1  0  0  0  0
 15 16  1  0  0  0  0
 15 29  2  0  0  0  0
 16 17  2  0  0  0  0
 16 18  1  0  0  0  0
 18 46  1  0  0  0  0
 19 18  1  1  0  0  0
 19 26  1  0  0  0  0
 19 28  1  0  0  0  0
 19 20  1  0  0  0  0
 20 47  1  0  0  0  0
 20 48  1  0  0  0  0
 21 20  1  0  0  0  0
 21 22  1  0  0  0  0
 21 27  1  0  0  0  0
 21 49  1  6  0  0  0
 22 50  1  0  0  0  0
 22 51  1  0  0  0  0
 23 22  1  0  0  0  0
 23 24  1  0  0  0  0
 23 28  1  0  0  0  0
 23 52  1  6  0  0  0
 24 53  1  0  0  0  0
 24 54  1  0  0  0  0
 25 24  1  0  0  0  0
 25 26  1  0  0  0  0
 25 27  1  0  0  0  0
 25 55  1  1  0  0  0
 26 56  1  0  0  0  0
 26 57  1  0  0  0  0
 27 58  1  0  0  0  0
 27 59  1  0  0  0  0
 28 60  1  0  0  0  0
 28 61  1  0  0  0  0
 29 30  1  0  0  0  0
 30 62  1  0  0  0  0
M  END
$$$$
CHEMBL1909844
 OpenBabel12022418093D

 50 53  0  0  0  0  0  0  0  0999 V2000
    1.0549    0.3194    0.0655 C   0  0  0  0  0  0  0  0  0  0  0  0
    2.5238    0.0736    0.0682 C   0  0  0  0  0  0  0  0  0  0  0  0
    3.5219    1.1029    0.1323 C   0  0  0  0  0  0  0  0  0  0  0  0
    3.3328    2.5842    0.1510 C   0  0  0  0  0  0  0  0  0  0  0  0
    2.2283    3.1129    0.0590 O   0  0  0  0  0  0  0  0  0  0  0  0
    4.5119    3.2921    0.2769 N   0  0  0  0  0  0  0  0  0  0  0  0
    4.6808    4.7457    0.3218 C   0  0  0  0  0  0  0  0  0  0  0  0
    4.3326    5.4401   -1.0023 C   0  0  0  0  0  0  0  0  0  0  0  0
    4.6290    6.9426   -0.9423 C   0  0  0  0  0  0  0  0  0  0  0  0
    3.9332    7.6186    0.2366 C   0  0  0  0  0  0  0  0  0  0  0  0
    4.2518    6.9196    1.5556 C   0  0  0  0  0  0  0  0  0  0  0  0
    3.9543    5.4175    1.4965 C   0  0  0  0  0  0  0  0  0  0  0  0
    4.7552    0.5693    0.1974 N   0  0  0  0  0  0  0  0  0  0  0  0
    4.5871   -0.7778    0.1201 N   0  0  0  0  0  0  0  0  0  0  0  0
    5.7284   -1.5799   -0.1891 C   0  0  0  0  0  0  0  0  0  0  0  0
    5.6178   -2.6067   -1.1480 C   0  0  0  0  0  0  0  0  0  0  0  0
    6.7255   -3.3973   -1.4689 C   0  0  0  0  0  0  0  0  0  0  0  0
    7.9494   -3.1574   -0.8521 C   0  0  0  0  0  0  0  0  0  0  0  0
    8.0743   -2.1488    0.0991 C   0  0  0  0  0  0  0  0  0  0  0  0
    6.9682   -1.3588    0.4382 C   0  0  0  0  0  0  0  0  0  0  0  0
    7.2040   -0.2516    1.7493 Cl  0  0  0  0  0  0  0  0  0  0  0  0
    9.3159   -4.1182   -1.2631 Cl  0  0  0  0  0  0  0  0  0  0  0  0
    3.2394   -1.1193    0.1186 C   0  0  0  0  0  0  0  0  0  0  0  0
    2.7435   -2.4377    0.1799 N   0  0  0  0  0  0  0  0  0  0  0  0
    1.6183   -2.8957   -0.5003 C   0  0  0  0  0  0  0  0  0  0  0  0
    1.4857   -4.2590   -0.3351 C   0  0  0  0  0  0  0  0  0  0  0  0
    2.5320   -4.6791    0.5074 C   0  0  0  0  0  0  0  0  0  0  0  0
    3.2307   -3.5492    0.8555 C   0  0  0  0  0  0  0  0  0  0  0  0
    4.4379   -3.4391    2.0638 Cl  0  0  0  0  0  0  0  0  0  0  0  0
    0.4692   -0.5890    0.2130 H   0  0  0  0  0  0  0  0  0  0  0  0
    0.7497    0.7722   -0.8829 H   0  0  0  0  0  0  0  0  0  0  0  0
    0.7805    0.9954    0.8811 H   0  0  0  0  0  0  0  0  0  0  0  0
    5.3406    2.7043    0.3181 H   0  0  0  0  0  0  0  0  0  0  0  0
    5.7585    4.8819    0.4870 H   0  0  0  0  0  0  0  0  0  0  0  0
    3.2731    5.2926   -1.2436 H   0  0  0  0  0  0  0  0  0  0  0  0
    4.9076    4.9946   -1.8227 H   0  0  0  0  0  0  0  0  0  0  0  0
    4.3130    7.4208   -1.8770 H   0  0  0  0  0  0  0  0  0  0  0  0
    5.7122    7.0990   -0.8586 H   0  0  0  0  0  0  0  0  0  0  0  0
    2.8490    7.6143    0.0715 H   0  0  0  0  0  0  0  0  0  0  0  0
    4.2407    8.6705    0.2912 H   0  0  0  0  0  0  0  0  0  0  0  0
    3.6718    7.3809    2.3633 H   0  0  0  0  0  0  0  0  0  0  0  0
    5.3106    7.0743    1.7987 H   0  0  0  0  0  0  0  0  0  0  0  0
    4.2580    4.9533    2.4419 H   0  0  0  0  0  0  0  0  0  0  0  0
    2.8707    5.2748    1.4093 H   0  0  0  0  0  0  0  0  0  0  0  0
    4.6882   -2.7985   -1.6793 H   0  0  0  0  0  0  0  0  0  0  0  0
    6.6277   -4.1939   -2.2033 H   0  0  0  0  0  0  0  0  0  0  0  0
    9.0287   -1.9912    0.5958 H   0  0  0  0  0  0  0  0  0  0  0  0
    1.0270   -2.2226   -1.1041 H   0  0  0  0  0  0  0  0  0  0  0  0
    0.7089   -4.8780   -0.7683 H   0  0  0  0  0  0  0  0  0  0  0  0
    2.7180   -5.6826    0.8697 H   0  0  0  0  0  0  0  0  0  0  0  0
  1  2  1  0  0  0  0
  1 30  1  0  0  0  0
  1 31  1  0  0  0  0
  1 32  1  0  0  0  0
  2 23  2  0  0  0  0
  2  3  1  0  0  0  0
  3  4  1  0  0  0  0
  3 13  2  0  0  0  0
  4  5  2  0  0  0  0
  4  6  1  0  0  0  0
  6  7  1  0  0  0  0
  6 33  1  0  0  0  0
  7 12  1  0  0  0  0
  7  8  1  0  0  0  0
  7 34  1  0  0  0  0
  8  9  1  0  0  0  0
  8 35  1  0  0  0  0
  8 36  1  0  0  0  0
  9 10  1  0  0  0  0
  9 37  1  0  0  0  0
  9 38  1  0  0  0  0
 10 11  1  0  0  0  0
 10 39  1  0  0  0  0
 10 40  1  0  0  0  0
 11 12  1  0  0  0  0
 11 41  1  0  0  0  0
 11 42  1  0  0  0  0
 12 43  1  0  0  0  0
 12 44  1  0  0  0  0
 13 14  1  0  0  0  0
 14 15  1  0  0  0  0
 14 23  1  0  0  0  0
 15 20  2  0  0  0  0
 15 16  1  0  0  0  0
 16 17  2  0  0  0  0
 16 45  1  0  0  0  0
 17 18  1  0  0  0  0
 17 46  1  0  0  0  0
 18 19  2  0  0  0  0
 18 22  1  0  0  0  0
 19 20  1  0  0  0  0
 19 47  1  0  0  0  0
 20 21  1  0  0  0  0
 23 24  1  0  0  0  0
 24 28  1  0  0  0  0
 24 25  1  0  0  0  0
 25 26  2  0  0  0  0
 25 48  1  0  0  0  0
 26 27  1  0  0  0  0
 26 49  1  0  0  0  0
 27 28  2  0  0  0  0
 27 50  1  0  0  0  0
 28 29  1  0  0  0  0
M  END
$$$$
CHEMBL2380416
 OpenBabel12022418093D

 46 49  0  0  0  0  0  0  0  0999 V2000
    7.5692   -0.0208    1.0651 C   0  0  0  0  0  0  0  0  0  0  0  0
    6.6984   -0.3096   -0.1481 C   0  0  0  0  0  0  0  0  0  0  0  0
    5.3370   -0.8014    0.2976 C   0  0  0  0  0  0  0  0  0  0  0  0
    4.4295   -1.1040   -0.8791 C   0  0  0  0  0  0  0  0  0  0  0  0
    4.9635   -2.1449   -1.7823 N   0  0  0  0  0  0  0  0  0  0  0  0
    5.6344   -1.9265   -2.9229 C   0  0  0  0  0  0  0  0  0  0  0  0
    5.8778   -3.1666   -3.5059 C   0  0  0  0  0  0  0  0  0  0  0  0
    6.6639   -3.4296   -4.7108 C   0  0  0  0  0  0  0  0  0  0  0  0
    6.3674   -4.3936   -5.4120 O   0  0  0  0  0  0  0  0  0  0  0  0
    7.7555   -2.4700   -5.1650 C   0  0  0  0  0  0  0  0  0  0  0  0
    7.7808   -2.4399   -6.7137 C   0  0  0  0  0  0  0  0  0  0  0  0
    6.9378   -3.0073   -7.7785 C   0  0  0  0  0  0  0  0  0  0  0  0
    7.4649   -3.3402   -9.0628 C   0  0  0  0  0  0  0  0  0  0  0  0
    8.7086   -2.8894   -9.4430 C   0  0  0  0  0  0  0  0  0  0  0  0
    9.3825   -2.0386   -8.5533 C   0  0  0  0  0  0  0  0  0  0  0  0
    8.9140   -1.8143   -7.2496 C   0  0  0  0  0  0  0  0  0  0  0  0
    9.6513   -1.0052   -6.4058 C   0  0  0  0  0  0  0  0  0  0  0  0
    9.1470   -0.8317   -5.1019 C   0  0  0  0  0  0  0  0  0  0  0  0
    8.6417   -1.8165   -4.2809 C   0  0  0  0  0  0  0  0  0  0  0  0
    5.1714   -4.1477   -2.7231 C   0  0  0  0  0  0  0  0  0  0  0  0
    4.9584   -5.5377   -2.8532 C   0  0  0  0  0  0  0  0  0  0  0  0
    4.3189   -6.2032   -1.8060 C   0  0  0  0  0  0  0  0  0  0  0  0
    3.9012   -5.5239   -0.6583 C   0  0  0  0  0  0  0  0  0  0  0  0
    4.0405   -4.1655   -0.5123 C   0  0  0  0  0  0  0  0  0  0  0  0
    4.6738   -3.4920   -1.5835 C   0  0  0  0  0  0  0  0  0  0  0  0
    8.5590    0.3461    0.7761 H   0  0  0  0  0  0  0  0  0  0  0  0
    7.7078   -0.9253    1.6661 H   0  0  0  0  0  0  0  0  0  0  0  0
    7.0928    0.7326    1.6998 H   0  0  0  0  0  0  0  0  0  0  0  0
    7.1752   -1.0712   -0.7760 H   0  0  0  0  0  0  0  0  0  0  0  0
    6.5776    0.5963   -0.7490 H   0  0  0  0  0  0  0  0  0  0  0  0
    4.8451   -0.0745    0.9554 H   0  0  0  0  0  0  0  0  0  0  0  0
    5.4698   -1.7066    0.8985 H   0  0  0  0  0  0  0  0  0  0  0  0
    4.2233   -0.2247   -1.4957 H   0  0  0  0  0  0  0  0  0  0  0  0
    3.4548   -1.4716   -0.4480 H   0  0  0  0  0  0  0  0  0  0  0  0
    5.8870   -0.9454   -3.2504 H   0  0  0  0  0  0  0  0  0  0  0  0
    5.8936   -3.2864   -7.6213 H   0  0  0  0  0  0  0  0  0  0  0  0
    6.9215   -4.0084   -9.7346 H   0  0  0  0  0  0  0  0  0  0  0  0
    9.1995   -3.2690  -10.3346 H   0  0  0  0  0  0  0  0  0  0  0  0
   10.3256   -1.6134   -8.8886 H   0  0  0  0  0  0  0  0  0  0  0  0
   10.7348   -0.8174   -6.5390 H   0  0  0  0  0  0  0  0  0  0  0  0
    8.2223   -0.1944   -5.0514 H   0  0  0  0  0  0  0  0  0  0  0  0
    9.3691   -1.2812   -3.6023 H   0  0  0  0  0  0  0  0  0  0  0  0
    5.2942   -6.0865   -3.7346 H   0  0  0  0  0  0  0  0  0  0  0  0
    4.1180   -7.2673   -1.8799 H   0  0  0  0  0  0  0  0  0  0  0  0
    3.3751   -6.0530    0.1157 H   0  0  0  0  0  0  0  0  0  0  0  0
    3.6848   -3.6234    0.3701 H   0  0  0  0  0  0  0  0  0  0  0  0
  1  2  1  0  0  0  0
  1 26  1  0  0  0  0
  1 27  1  0  0  0  0
  1 28  1  0  0  0  0
  2  3  1  0  0  0  0
  2 29  1  0  0  0  0
  2 30  1  0  0  0  0
  3  4  1  0  0  0  0
  3 31  1  0  0  0  0
  3 32  1  0  0  0  0
  4  5  1  0  0  0  0
  4 33  1  0  0  0  0
  4 34  1  0  0  0  0
  5 25  1  0  0  0  0
  5  6  1  0  0  0  0
  6  7  2  0  0  0  0
  6 35  1  0  0  0  0
  7  8  1  0  0  0  0
  7 20  1  0  0  0  0
  8  9  2  0  0  0  0
  8 10  1  0  0  0  0
 10 19  2  0  0  0  0
 10 11  1  0  0  0  0
 11 16  2  0  0  0  0
 11 12  1  0  0  0  0
 12 13  2  0  0  0  0
 12 36  1  0  0  0  0
 13 14  1  0  0  0  0
 13 37  1  0  0  0  0
 14 15  2  0  0  0  0
 14 38  1  0  0  0  0
 15 16  1  0  0  0  0
 15 39  1  0  0  0  0
 16 17  1  0  0  0  0
 17 18  2  0  0  0  0
 17 40  1  0  0  0  0
 18 19  1  0  0  0  0
 18 41  1  0  0  0  0
 19 42  1  0  0  0  0
 20 25  2  0  0  0  0
 20 21  1  0  0  0  0
 21 22  2  0  0  0  0
 21 43  1  0  0  0  0
 22 23  1  0  0  0  0
 22 44  1  0  0  0  0
 23 24  2  0  0  0  0
 23 45  1  0  0  0  0
 24 25  1  0  0  0  0
 24 46  1  0  0  0  0
M  END
$$$$
CHEMBL3410832
 OpenBabel12022418093D

 61 63  0  0  0  0  0  0  0  0999 V2000
    2.9733   -0.1561   -0.0250 C   0  0  0  0  0  0  0  0  0  0  0  0
    2.6021    1.1907    0.0516 C   0  0  0  0  0  0  0  0  0  0  0  0
    1.2274    1.5629    0.1483 C   0  0  0  0  0  0  0  0  0  0  0  0
    0.2139    0.5252    0.0882 C   0  0  0  0  0  0  0  0  0  0  0  0
    0.6586   -0.8281    0.0745 C   0  0  0  0  0  0  0  0  0  0  0  0
    2.0181   -1.1607    0.0107 C   0  0  0  0  0  0  0  0  0  0  0  0
   -0.2731   -1.9687    0.1340 C   0  0  0  0  0  0  0  0  0  0  0  0
   -1.5968   -1.7827    0.1964 C   0  0  0  0  0  0  0  0  0  0  0  0
   -2.1205   -0.4093    0.0905 C   0  0  0  0  0  0  0  0  0  0  0  0
   -3.3377   -0.2511    0.0911 O   0  0  0  0  0  0  0  0  0  0  0  0
   -1.2319    0.6596   -0.0071 N   0  0  0  0  0  0  0  0  0  0  0  0
   -1.9339    1.8576   -0.3966 C   0  0  0  0  0  0  0  0  0  0  0  0
   -2.5532   -2.9348    0.2985 C   0  0  0  0  0  0  0  0  0  0  0  0
   -2.2051   -4.0785   -0.0082 O   0  0  0  0  0  0  0  0  0  0  0  0
   -3.8018   -2.6195    0.7762 N   0  0  0  0  0  0  0  0  0  0  0  0
   -4.9186   -3.5442    0.8630 C   0  0  0  0  0  0  0  0  0  0  0  0
   -4.6636   -4.6810    1.8479 C   0  0  0  0  0  0  0  0  0  0  0  0
   -5.8424   -5.6202    1.9580 C   0  0  0  0  0  0  0  0  0  0  0  0
   -6.8553   -5.3969    2.9031 C   0  0  0  0  0  0  0  0  0  0  0  0
   -7.9484   -6.2611    2.9840 C   0  0  0  0  0  0  0  0  0  0  0  0
   -8.0304   -7.3458    2.1198 C   0  0  0  0  0  0  0  0  0  0  0  0
   -7.0389   -7.5836    1.1767 C   0  0  0  0  0  0  0  0  0  0  0  0
   -5.9457   -6.7215    1.0927 C   0  0  0  0  0  0  0  0  0  0  0  0
   -9.0823   -8.1719    2.1968 F   0  0  0  0  0  0  0  0  0  0  0  0
    1.0965    2.9315    0.3197 O   0  0  0  0  0  0  0  0  0  0  0  0
    0.0202    3.4330    1.0632 C   0  0  0  0  0  0  0  0  0  0  0  0
    0.1463    4.7173    1.8941 C   0  0  0  0  0  0  0  0  0  0  0  0
   -1.2698    4.9308    2.4781 C   0  0  0  0  0  0  0  0  0  0  0  0
   -1.4231    6.1546    3.3628 C   0  0  0  0  0  0  0  0  0  0  0  0
   -2.8510    6.2741    3.8893 C   0  0  0  0  0  0  0  0  0  0  0  0
    3.7156    1.9961    0.0435 O   0  0  0  0  0  0  0  0  0  0  0  0
    3.5916    3.4122    0.1136 C   0  0  0  0  0  0  0  0  0  0  0  0
    4.0266   -0.4234   -0.0906 H   0  0  0  0  0  0  0  0  0  0  0  0
    2.3492   -2.1953   -0.0260 H   0  0  0  0  0  0  0  0  0  0  0  0
    0.1294   -2.9741    0.1754 H   0  0  0  0  0  0  0  0  0  0  0  0
   -1.3726    2.3899   -1.1644 H   0  0  0  0  0  0  0  0  0  0  0  0
   -2.1867    2.4189    0.5050 H   0  0  0  0  0  0  0  0  0  0  0  0
   -2.9068    1.6466   -0.8627 H   0  0  0  0  0  0  0  0  0  0  0  0
   -4.0436   -1.6296    0.8064 H   0  0  0  0  0  0  0  0  0  0  0  0
   -5.1297   -3.9222   -0.1441 H   0  0  0  0  0  0  0  0  0  0  0  0
   -5.7862   -2.9530    1.1837 H   0  0  0  0  0  0  0  0  0  0  0  0
   -4.4219   -4.2739    2.8387 H   0  0  0  0  0  0  0  0  0  0  0  0
   -3.7798   -5.2541    1.5464 H   0  0  0  0  0  0  0  0  0  0  0  0
   -6.8029   -4.5529    3.5875 H   0  0  0  0  0  0  0  0  0  0  0  0
   -8.7339   -6.0936    3.7133 H   0  0  0  0  0  0  0  0  0  0  0  0
   -7.1236   -8.4375    0.5129 H   0  0  0  0  0  0  0  0  0  0  0  0
   -5.1690   -6.9132    0.3535 H   0  0  0  0  0  0  0  0  0  0  0  0
   -0.3299    2.6598    1.7502 H   0  0  0  0  0  0  0  0  0  0  0  0
   -0.6909    3.7295    0.2985 H   0  0  0  0  0  0  0  0  0  0  0  0
    0.4388    5.5767    1.2740 H   0  0  0  0  0  0  0  0  0  0  0  0
    0.8983    4.6304    2.6868 H   0  0  0  0  0  0  0  0  0  0  0  0
   -1.5558    4.0369    3.0517 H   0  0  0  0  0  0  0  0  0  0  0  0
   -1.9894    5.0008    1.6499 H   0  0  0  0  0  0  0  0  0  0  0  0
   -1.1739    7.0541    2.7919 H   0  0  0  0  0  0  0  0  0  0  0  0
   -0.7326    6.0849    4.2083 H   0  0  0  0  0  0  0  0  0  0  0  0
   -3.5707    6.3811    3.0707 H   0  0  0  0  0  0  0  0  0  0  0  0
   -2.9407    7.1530    4.5354 H   0  0  0  0  0  0  0  0  0  0  0  0
   -3.1343    5.3931    4.4749 H   0  0  0  0  0  0  0  0  0  0  0  0
    4.5915    3.8483    0.0313 H   0  0  0  0  0  0  0  0  0  0  0  0
    3.1930    3.7243    1.0847 H   0  0  0  0  0  0  0  0  0  0  0  0
    3.0067    3.8045   -0.7248 H   0  0  0  0  0  0  0  0  0  0  0  0
  1  6  2  0  0  0  0
  1  2  1  0  0  0  0
  1 33  1  0  0  0  0
  2  3  2  0  0  0  0
  2 31  1  0  0  0  0
  3  4  1  0  0  0  0
  3 25  1  0  0  0  0
  4 11  1  0  0  0  0
  4  5  2  0  0  0  0
  5  6  1  0  0  0  0
  5  7  1  0  0  0  0
  6 34  1  0  0  0  0
  7  8  2  0  0  0  0
  7 35  1  0  0  0  0
  8  9  1  0  0  0  0
  8 13  1  0  0  0  0
  9 10  2  0  0  0  0
  9 11  1  0  0  0  0
 11 12  1  0  0  0  0
 12 36  1  0  0  0  0
 12 37  1  0  0  0  0
 12 38  1  0  0  0  0
 13 14  2  0  0  0  0
 13 15  1  0  0  0  0
 15 16  1  0  0  0  0
 15 39  1  0  0  0  0
 16 17  1  0  0  0  0
 16 40  1  0  0  0  0
 16 41  1  0  0  0  0
 17 18  1  0  0  0  0
 17 42  1  0  0  0  0
 17 43  1  0  0  0  0
 18 23  2  0  0  0  0
 18 19  1  0  0  0  0
 19 20  2  0  0  0  0
 19 44  1  0  0  0  0
 20 21  1  0  0  0  0
 20 45  1  0  0  0  0
 21 22  2  0  0  0  0
 21 24  1  0  0  0  0
 22 23  1  0  0  0  0
 22 46  1  0  0  0  0
 23 47  1  0  0  0  0
 25 26  1  0  0  0  0
 26 27  1  0  0  0  0
 26 48  1  0  0  0  0
 26 49  1  0  0  0  0
 27 28  1  0  0  0  0
 27 50  1  0  0  0  0
 27 51  1  0  0  0  0
 28 29  1  0  0  0  0
 28 52  1  0  0  0  0
 28 53  1  0  0  0  0
 29 30  1  0  0  0  0
 29 54  1  0  0  0  0
 29 55  1  0  0  0  0
 30 56  1  0  0  0  0
 30 57  1  0  0  0  0
 30 58  1  0  0  0  0
 31 32  1  0  0  0  0
 32 59  1  0  0  0  0
 32 60  1  0  0  0  0
 32 61  1  0  0  0  0
M  END
$$$$
CHEMBL306529
 OpenBabel12022418093D

 52 55  0  0  0  0  0  0  0  0999 V2000
    4.4375    3.0486    1.7670 C   0  0  0  0  0  0  0  0  0  0  0  0
    3.9821    1.7514    2.4223 C   0  0  0  0  0  0  0  0  0  0  0  0
    4.8607    0.5747    2.0292 C   0  0  0  0  0  0  0  0  0  0  0  0
    4.4932   -0.6957    2.7954 C   0  0  0  0  0  0  0  0  0  0  0  0
    5.3603   -1.9187    2.4569 C   0  0  0  0  0  0  0  0  0  0  0  0
    6.8137   -1.8028    2.6598 N   0  0  0  0  0  0  0  0  0  0  0  0
    7.5121   -1.9063    3.8644 C   0  0  0  0  0  0  0  0  0  0  0  0
    6.7686   -2.0246    5.1610 C   0  0  0  0  0  0  0  0  0  0  0  0
    8.9113   -1.9947    3.6006 C   0  0  0  0  0  0  0  0  0  0  0  0
    9.9319   -2.6368    4.5178 C   0  0  0  0  0  0  0  0  0  0  0  0
    9.6546   -3.8027    4.8407 O   0  0  0  0  0  0  0  0  0  0  0  0
   11.1054   -2.0468    5.3688 C   0  0  0  0  0  0  0  0  0  0  0  0
   10.8664   -2.4661    6.6936 C   0  0  0  0  0  0  0  0  0  0  0  0
   11.8902   -2.6010    7.6093 C   0  0  0  0  0  0  0  0  0  0  0  0
   12.7913   -1.5878    7.6213 C   0  0  0  0  0  0  0  0  0  0  0  0
   13.1523   -1.0583    6.4010 C   0  0  0  0  0  0  0  0  0  0  0  0
   14.3386   -0.3036    6.4872 C   0  0  0  0  0  0  0  0  0  0  0  0
   15.1191   -0.0939    5.3845 C   0  0  0  0  0  0  0  0  0  0  0  0
   14.6683   -0.6374    4.1956 C   0  0  0  0  0  0  0  0  0  0  0  0
   13.3795   -1.2678    4.0610 C   0  0  0  0  0  0  0  0  0  0  0  0
   12.4735   -1.4562    5.1783 C   0  0  0  0  0  0  0  0  0  0  0  0
    9.0067   -1.9187    2.1565 C   0  0  0  0  0  0  0  0  0  0  0  0
   10.0839   -2.0419    1.2510 C   0  0  0  0  0  0  0  0  0  0  0  0
    9.8510   -2.0776   -0.1315 C   0  0  0  0  0  0  0  0  0  0  0  0
    8.5627   -2.0526   -0.6276 C   0  0  0  0  0  0  0  0  0  0  0  0
    7.4749   -1.9258    0.2184 C   0  0  0  0  0  0  0  0  0  0  0  0
    7.7136   -1.8542    1.6085 C   0  0  0  0  0  0  0  0  0  0  0  0
    3.7877    3.8746    2.0722 H   0  0  0  0  0  0  0  0  0  0  0  0
    4.4011    2.9710    0.6764 H   0  0  0  0  0  0  0  0  0  0  0  0
    5.4628    3.2970    2.0612 H   0  0  0  0  0  0  0  0  0  0  0  0
    2.9436    1.5499    2.1368 H   0  0  0  0  0  0  0  0  0  0  0  0
    3.9981    1.8846    3.5120 H   0  0  0  0  0  0  0  0  0  0  0  0
    5.9139    0.8284    2.2513 H   0  0  0  0  0  0  0  0  0  0  0  0
    4.7985    0.3986    0.9481 H   0  0  0  0  0  0  0  0  0  0  0  0
    3.4480   -0.9405    2.5548 H   0  0  0  0  0  0  0  0  0  0  0  0
    4.5251   -0.4977    3.8695 H   0  0  0  0  0  0  0  0  0  0  0  0
    5.1695   -2.1935    1.4112 H   0  0  0  0  0  0  0  0  0  0  0  0
    5.0164   -2.7884    3.0306 H   0  0  0  0  0  0  0  0  0  0  0  0
    5.6821   -2.1170    5.0336 H   0  0  0  0  0  0  0  0  0  0  0  0
    6.9348   -1.1276    5.7642 H   0  0  0  0  0  0  0  0  0  0  0  0
    7.0828   -2.9047    5.7272 H   0  0  0  0  0  0  0  0  0  0  0  0
    9.9002   -2.8704    6.9825 H   0  0  0  0  0  0  0  0  0  0  0  0
   12.4143   -3.5797    7.5328 H   0  0  0  0  0  0  0  0  0  0  0  0
   13.3922   -1.4291    8.5201 H   0  0  0  0  0  0  0  0  0  0  0  0
   14.7045    0.0158    7.4639 H   0  0  0  0  0  0  0  0  0  0  0  0
   16.0747    0.4094    5.4877 H   0  0  0  0  0  0  0  0  0  0  0  0
   15.3665   -0.5919    3.3516 H   0  0  0  0  0  0  0  0  0  0  0  0
   13.1564   -1.6824    3.0846 H   0  0  0  0  0  0  0  0  0  0  0  0
   11.0965   -2.1276    1.6271 H   0  0  0  0  0  0  0  0  0  0  0  0
   10.6938   -2.1667   -0.8136 H   0  0  0  0  0  0  0  0  0  0  0  0
    8.4020   -2.0975   -1.7121 H   0  0  0  0  0  0  0  0  0  0  0  0
    6.4723   -1.9453   -0.2010 H   0  0  0  0  0  0  0  0  0  0  0  0
  1  2  1  0  0  0  0
  1 28  1  0  0  0  0
  1 29  1  0  0  0  0
  1 30  1  0  0  0  0
  2  3  1  0  0  0  0
  2 31  1  0  0  0  0
  2 32  1  0  0  0  0
  3  4  1  0  0  0  0
  3 33  1  0  0  0  0
  3 34  1  0  0  0  0
  4  5  1  0  0  0  0
  4 35  1  0  0  0  0
  4 36  1  0  0  0  0
  5  6  1  0  0  0  0
  5 37  1  0  0  0  0
  5 38  1  0  0  0  0
  6 27  1  0  0  0  0
  6  7  1  0  0  0  0
  7  8  1  0  0  0  0
  7  9  2  0  0  0  0
  8 39  1  0  0  0  0
  8 40  1  0  0  0  0
  8 41  1  0  0  0  0
  9 10  1  0  0  0  0
  9 22  1  0  0  0  0
 10 11  2  0  0  0  0
 10 12  1  0  0  0  0
 12 21  2  0  0  0  0
 12 13  1  0  0  0  0
 13 14  2  0  0  0  0
 13 42  1  0  0  0  0
 14 15  1  0  0  0  0
 14 43  1  0  0  0  0
 15 16  2  0  0  0  0
 15 44  1  0  0  0  0
 16 21  1  0  0  0  0
 16 17  1  0  0  0  0
 17 18  2  0  0  0  0
 17 45  1  0  0  0  0
 18 19  1  0  0  0  0
 18 46  1  0  0  0  0
 19 20  2  0  0  0  0
 19 47  1  0  0  0  0
 20 21  1  0  0  0  0
 20 48  1  0  0  0  0
 22 27  2  0  0  0  0
 22 23  1  0  0  0  0
 23 24  2  0  0  0  0
 23 49  1  0  0  0  0
 24 25  1  0  0  0  0
 24 50  1  0  0  0  0
 25 26  2  0  0  0  0
 25 51  1  0  0  0  0
 26 27  1  0  0  0  0
 26 52  1  0  0  0  0
M  END
$$$$
CHEMBL3410812
 OpenBabel12022418093D

 66 67  0  0  0  0  0  0  0  0999 V2000
    1.7505    0.0307    2.6661 C   0  0  0  0  0  0  0  0  0  0  0  0
    2.9556   -0.0020    1.7383 C   0  0  0  0  0  0  0  0  0  0  0  0
    3.5459    1.3923    1.5413 C   0  0  0  0  0  0  0  0  0  0  0  0
    4.7497    1.3773    0.5947 C   0  0  0  0  0  0  0  0  0  0  0  0
    5.3133    2.7867    0.4310 C   0  0  0  0  0  0  0  0  0  0  0  0
    6.3931    2.7884   -0.5076 O   0  0  0  0  0  0  0  0  0  0  0  0
    7.0687    3.9803   -0.6634 C   0  0  0  0  0  0  0  0  0  0  0  0
    8.1660    4.0101   -1.5523 C   0  0  0  0  0  0  0  0  0  0  0  0
    8.9204    5.1908   -1.6701 C   0  0  0  0  0  0  0  0  0  0  0  0
    8.5563    6.3537   -0.9797 C   0  0  0  0  0  0  0  0  0  0  0  0
    7.4546    6.3312   -0.1278 C   0  0  0  0  0  0  0  0  0  0  0  0
    6.7212    5.1524    0.0286 C   0  0  0  0  0  0  0  0  0  0  0  0
    9.3791    7.5805   -1.1560 C   0  0  0  0  0  0  0  0  0  0  0  0
   10.5620    7.4864   -1.4501 O   0  0  0  0  0  0  0  0  0  0  0  0
    8.7267    8.7874   -1.0125 N   0  0  0  0  0  0  0  0  0  0  0  0
    9.4298   10.0383   -1.2467 C   0  0  0  0  0  0  0  0  0  0  0  0
    8.5061   11.2474   -1.0993 C   0  0  0  0  0  0  0  0  0  0  0  0
    9.1989   12.5708   -1.3114 C   0  0  0  0  0  0  0  0  0  0  0  0
   10.1961   13.0072   -0.4311 C   0  0  0  0  0  0  0  0  0  0  0  0
   10.7986   14.2586   -0.6016 C   0  0  0  0  0  0  0  0  0  0  0  0
   10.4492   15.0819   -1.6728 C   0  0  0  0  0  0  0  0  0  0  0  0
    9.4176   14.6702   -2.5180 C   0  0  0  0  0  0  0  0  0  0  0  0
    8.8119   13.4196   -2.3556 C   0  0  0  0  0  0  0  0  0  0  0  0
   10.9487   16.3878   -1.7512 N   0  0  0  0  0  0  0  0  0  0  0  0
    8.6690    2.5682   -2.5124 S   0  0  0  0  0  0  0  0  0  0  0  0
    8.6729    3.2721   -4.2074 C   0  0  0  0  0  0  0  0  0  0  0  0
    9.1589    2.2456   -5.2358 C   0  0  0  0  0  0  0  0  0  0  0  0
    9.1177    2.8278   -6.6574 C   0  0  0  0  0  0  0  0  0  0  0  0
    9.5945    1.8172   -7.7035 C   0  0  0  0  0  0  0  0  0  0  0  0
    9.5403    2.3934   -9.1114 C   0  0  0  0  0  0  0  0  0  0  0  0
    1.3410   -0.9763    2.7921 H   0  0  0  0  0  0  0  0  0  0  0  0
    0.9592    0.6700    2.2608 H   0  0  0  0  0  0  0  0  0  0  0  0
    2.0251    0.4116    3.6552 H   0  0  0  0  0  0  0  0  0  0  0  0
    2.6526   -0.4177    0.7704 H   0  0  0  0  0  0  0  0  0  0  0  0
    3.7150   -0.6715    2.1582 H   0  0  0  0  0  0  0  0  0  0  0  0
    3.8476    1.8014    2.5137 H   0  0  0  0  0  0  0  0  0  0  0  0
    2.7744    2.0613    1.1397 H   0  0  0  0  0  0  0  0  0  0  0  0
    4.4649    0.9754   -0.3847 H   0  0  0  0  0  0  0  0  0  0  0  0
    5.5327    0.7146    0.9834 H   0  0  0  0  0  0  0  0  0  0  0  0
    5.6644    3.1256    1.4137 H   0  0  0  0  0  0  0  0  0  0  0  0
    4.5192    3.4488    0.0658 H   0  0  0  0  0  0  0  0  0  0  0  0
    9.8100    5.2144   -2.2960 H   0  0  0  0  0  0  0  0  0  0  0  0
    7.1737    7.2032    0.4572 H   0  0  0  0  0  0  0  0  0  0  0  0
    5.8825    5.1874    0.7169 H   0  0  0  0  0  0  0  0  0  0  0  0
    7.7163    8.8002   -0.9698 H   0  0  0  0  0  0  0  0  0  0  0  0
    9.8635   10.0012   -2.2527 H   0  0  0  0  0  0  0  0  0  0  0  0
   10.2622   10.0821   -0.5344 H   0  0  0  0  0  0  0  0  0  0  0  0
    8.0439   11.2517   -0.1036 H   0  0  0  0  0  0  0  0  0  0  0  0
    7.6744   11.1458   -1.8093 H   0  0  0  0  0  0  0  0  0  0  0  0
   10.4987   12.3900    0.4117 H   0  0  0  0  0  0  0  0  0  0  0  0
   11.5427   14.5866    0.1195 H   0  0  0  0  0  0  0  0  0  0  0  0
    9.0690   15.3257   -3.3120 H   0  0  0  0  0  0  0  0  0  0  0  0
    8.0188   13.1289   -3.0405 H   0  0  0  0  0  0  0  0  0  0  0  0
   11.8666   16.4988   -1.3320 H   0  0  0  0  0  0  0  0  0  0  0  0
   10.9012   16.7875   -2.6829 H   0  0  0  0  0  0  0  0  0  0  0  0
    9.3274    4.1479   -4.2446 H   0  0  0  0  0  0  0  0  0  0  0  0
    7.6546    3.5949   -4.4477 H   0  0  0  0  0  0  0  0  0  0  0  0
    8.5329    1.3458   -5.1981 H   0  0  0  0  0  0  0  0  0  0  0  0
   10.1870    1.9419   -5.0039 H   0  0  0  0  0  0  0  0  0  0  0  0
    9.7472    3.7248   -6.7050 H   0  0  0  0  0  0  0  0  0  0  0  0
    8.0936    3.1403   -6.8944 H   0  0  0  0  0  0  0  0  0  0  0  0
    8.9704    0.9169   -7.6629 H   0  0  0  0  0  0  0  0  0  0  0  0
   10.6231    1.5095   -7.4830 H   0  0  0  0  0  0  0  0  0  0  0  0
    8.5191    2.6834   -9.3799 H   0  0  0  0  0  0  0  0  0  0  0  0
    9.8824    1.6499   -9.8392 H   0  0  0  0  0  0  0  0  0  0  0  0
   10.1829    3.2751   -9.2020 H   0  0  0  0  0  0  0  0  0  0  0  0
  1  2  1  0  0  0  0
  1 31  1  0  0  0  0
  1 32  1  0  0  0  0
  1 33  1  0  0  0  0
  2  3  1  0  0  0  0
  2 34  1  0  0  0  0
  2 35  1  0  0  0  0
  3  4  1  0  0  0  0
  3 36  1  0  0  0  0
  3 37  1  0  0  0  0
  4  5  1  0  0  0  0
  4 38  1  0  0  0  0
  4 39  1  0  0  0  0
  5  6  1  0  0  0  0
  5 40  1  0  0  0  0
  5 41  1  0  0  0  0
  6  7  1  0  0  0  0
  7 12  2  0  0  0  0
  7  8  1  0  0  0  0
  8  9  2  0  0  0  0
  8 25  1  0  0  0  0
  9 10  1  0  0  0  0
  9 42  1  0  0  0  0
 10 11  2  0  0  0  0
 10 13  1  0  0  0  0
 11 12  1  0  0  0  0
 11 43  1  0  0  0  0
 12 44  1  0  0  0  0
 13 14  2  0  0  0  0
 13 15  1  0  0  0  0
 15 16  1  0  0  0  0
 15 45  1  0  0  0  0
 16 17  1  0  0  0  0
 16 46  1  0  0  0  0
 16 47  1  0  0  0  0
 17 18  1  0  0  0  0
 17 48  1  0  0  0  0
 17 49  1  0  0  0  0
 18 23  2  0  0  0  0
 18 19  1  0  0  0  0
 19 20  2  0  0  0  0
 19 50  1  0  0  0  0
 20 21  1  0  0  0  0
 20 51  1  0  0  0  0
 21 22  2  0  0  0  0
 21 24  1  0  0  0  0
 22 23  1  0  0  0  0
 22 52  1  0  0  0  0
 23 53  1  0  0  0  0
 24 54  1  0  0  0  0
 24 55  1  0  0  0  0
 25 26  1  0  0  0  0
 26 27  1  0  0  0  0
 26 56  1  0  0  0  0
 26 57  1  0  0  0  0
 27 28  1  0  0  0  0
 27 58  1  0  0  0  0
 27 59  1  0  0  0  0
 28 29  1  0  0  0  0
 28 60  1  0  0  0  0
 28 61  1  0  0  0  0
 29 30  1  0  0  0  0
 29 62  1  0  0  0  0
 29 63  1  0  0  0  0
 30 64  1  0  0  0  0
 30 65  1  0  0  0  0
 30 66  1  0  0  0  0
M  END
$$$$
CHEMBL3085421
 OpenBabel12022418093D

 57 61  0  0  1  0  0  0  0  0999 V2000
    4.6561   -0.1005    1.8495 O   0  0  0  0  0  0  0  0  0  0  0  0
    4.3686   -0.3693    0.6848 C   0  0  0  0  0  0  0  0  0  0  0  0
    5.1451   -1.3156   -0.1236 C   0  0  0  0  0  0  0  0  0  0  0  0
    4.6530   -2.1254   -1.1309 C   0  0  0  0  0  0  0  0  0  0  0  0
    5.6558   -2.9703   -1.5393 N   0  0  0  0  0  0  0  0  0  0  0  0
    5.4772   -4.0643   -2.4908 C   0  0  0  0  0  0  0  0  0  0  0  0
    5.0675   -5.3688   -1.7841 C   0  0  0  0  0  0  0  0  0  0  0  0
    4.8945   -6.5429   -2.6709 N   0  0  0  0  0  0  0  0  0  0  0  0
    3.8621   -6.3575   -3.7162 C   0  0  0  0  0  0  0  0  0  0  0  0
    2.4347   -6.2792   -3.1530 C   0  0  0  0  0  0  0  0  0  0  0  0
    2.1095   -7.4658   -2.4188 O   0  0  0  0  0  0  0  0  0  0  0  0
    3.0475   -7.6870   -1.3567 C   0  0  0  0  0  0  0  0  0  0  0  0
    4.4981   -7.7386   -1.8789 C   0  0  0  0  0  0  0  0  0  0  0  0
    6.8389   -2.6378   -0.9173 C   0  0  0  0  0  0  0  0  0  0  0  0
    8.1305   -3.1732   -1.0531 C   0  0  0  0  0  0  0  0  0  0  0  0
    9.1580   -2.6232   -0.2843 C   0  0  0  0  0  0  0  0  0  0  0  0
    8.9057   -1.5776    0.5961 C   0  0  0  0  0  0  0  0  0  0  0  0
    7.6114   -1.0628    0.7405 C   0  0  0  0  0  0  0  0  0  0  0  0
    6.5516   -1.5995   -0.0234 C   0  0  0  0  0  0  0  0  0  0  0  0
    3.2186    0.2927   -0.0025 C   0  0  2  0  0  0  0  0  0  0  0  0
    2.6801    1.5983    0.5471 C   0  0  0  0  0  0  0  0  0  0  0  0
    1.7885    0.3789    0.5378 C   0  0  0  0  0  0  0  0  0  0  0  0
    0.6836    0.3005   -0.5042 C   0  0  0  0  0  0  0  0  0  0  0  0
   -0.6417    0.8358    0.0339 C   0  0  0  0  0  0  0  0  0  0  0  0
   -1.0316    0.1184    1.3219 C   0  0  0  0  0  0  0  0  0  0  0  0
    0.0582    0.3013    2.3748 C   0  0  0  0  0  0  0  0  0  0  0  0
    1.4089   -0.2326    1.8768 C   0  0  0  0  0  0  0  0  0  0  0  0
    3.6579   -2.2093   -1.5455 H   0  0  0  0  0  0  0  0  0  0  0  0
    6.4116   -4.1905   -3.0474 H   0  0  0  0  0  0  0  0  0  0  0  0
    4.7116   -3.7315   -3.1988 H   0  0  0  0  0  0  0  0  0  0  0  0
    4.1623   -5.1762   -1.1977 H   0  0  0  0  0  0  0  0  0  0  0  0
    5.8497   -5.6170   -1.0536 H   0  0  0  0  0  0  0  0  0  0  0  0
    3.9192   -7.2239   -4.3911 H   0  0  0  0  0  0  0  0  0  0  0  0
    4.0826   -5.4880   -4.3413 H   0  0  0  0  0  0  0  0  0  0  0  0
    1.7166   -6.1897   -3.9742 H   0  0  0  0  0  0  0  0  0  0  0  0
    2.3007   -5.4045   -2.5067 H   0  0  0  0  0  0  0  0  0  0  0  0
    2.7899   -8.6400   -0.8838 H   0  0  0  0  0  0  0  0  0  0  0  0
    2.9170   -6.9060   -0.5995 H   0  0  0  0  0  0  0  0  0  0  0  0
    5.1955   -7.8998   -1.0488 H   0  0  0  0  0  0  0  0  0  0  0  0
    4.5970   -8.6159   -2.5331 H   0  0  0  0  0  0  0  0  0  0  0  0
    8.3402   -3.9900   -1.7366 H   0  0  0  0  0  0  0  0  0  0  0  0
   10.1657   -3.0205   -0.3769 H   0  0  0  0  0  0  0  0  0  0  0  0
    9.7197   -1.1579    1.1832 H   0  0  0  0  0  0  0  0  0  0  0  0
    7.4288   -0.2439    1.4313 H   0  0  0  0  0  0  0  0  0  0  0  0
    3.3088    0.2706   -1.0883 H   0  0  0  0  0  0  0  0  0  0  0  0
    2.4938    2.3983   -0.1594 H   0  0  0  0  0  0  0  0  0  0  0  0
    3.0687    1.9501    1.4986 H   0  0  0  0  0  0  0  0  0  0  0  0
    0.5618   -0.7440   -0.8125 H   0  0  0  0  0  0  0  0  0  0  0  0
    0.9540    0.8671   -1.4031 H   0  0  0  0  0  0  0  0  0  0  0  0
   -1.4268    0.7067   -0.7181 H   0  0  0  0  0  0  0  0  0  0  0  0
   -0.5546    1.9121    0.2301 H   0  0  0  0  0  0  0  0  0  0  0  0
   -1.1788   -0.9500    1.1220 H   0  0  0  0  0  0  0  0  0  0  0  0
   -1.9853    0.5106    1.6935 H   0  0  0  0  0  0  0  0  0  0  0  0
   -0.2304   -0.2158    3.2968 H   0  0  0  0  0  0  0  0  0  0  0  0
    0.1465    1.3674    2.6197 H   0  0  0  0  0  0  0  0  0  0  0  0
    2.1627   -0.0265    2.6442 H   0  0  0  0  0  0  0  0  0  0  0  0
    1.3462   -1.3212    1.7684 H   0  0  0  0  0  0  0  0  0  0  0  0
  1  2  2  0  0  0  0
  2  3  1  0  0  0  0
  3 19  1  0  0  0  0
  3  4  2  0  0  0  0
  4  5  1  0  0  0  0
  4 28  1  0  0  0  0
  5  6  1  0  0  0  0
  5 14  1  0  0  0  0
  6  7  1  0  0  0  0
  6 29  1  0  0  0  0
  6 30  1  0  0  0  0
  7  8  1  0  0  0  0
  7 31  1  0  0  0  0
  7 32  1  0  0  0  0
  8 13  1  0  0  0  0
  8  9  1  0  0  0  0
  9 10  1  0  0  0  0
  9 33  1  0  0  0  0
  9 34  1  0  0  0  0
 10 11  1  0  0  0  0
 10 35  1  0  0  0  0
 10 36  1  0  0  0  0
 11 12  1  0  0  0  0
 12 13  1  0  0  0  0
 12 37  1  0  0  0  0
 12 38  1  0  0  0  0
 13 39  1  0  0  0  0
 13 40  1  0  0  0  0
 14 19  2  0  0  0  0
 14 15  1  0  0  0  0
 15 16  2  0  0  0  0
 15 41  1  0  0  0  0
 16 17  1  0  0  0  0
 16 42  1  0  0  0  0
 17 18  2  0  0  0  0
 17 43  1  0  0  0  0
 18 19  1  0  0  0  0
 18 44  1  0  0  0  0
 20 21  1  0  0  0  0
 20 22  1  0  0  0  0
 20  2  1  0  0  0  0
 20 45  1  6  0  0  0
 21 22  1  0  0  0  0
 21 46  1  0  0  0  0
 21 47  1  0  0  0  0
 22 27  1  0  0  0  0
 22 23  1  0  0  0  0
 23 24  1  0  0  0  0
 23 48  1  0  0  0  0
 23 49  1  0  0  0  0
 24 25  1  0  0  0  0
 24 50  1  0  0  0  0
 24 51  1  0  0  0  0
 25 26  1  0  0  0  0
 25 52  1  0  0  0  0
 25 53  1  0  0  0  0
 26 27  1  0  0  0  0
 26 54  1  0  0  0  0
 26 55  1  0  0  0  0
 27 56  1  0  0  0  0
 27 57  1  0  0  0  0
M  END
$$$$
CHEMBL579241
 OpenBabel12022418093D

 46 48  0  0  0  0  0  0  0  0999 V2000
    3.1477    2.2124    0.7389 C   0  0  0  0  0  0  0  0  0  0  0  0
    2.7214    1.0448    1.6173 C   0  0  0  0  0  0  0  0  0  0  0  0
    3.1662   -0.3243    1.0866 C   0  0  0  0  0  0  0  0  0  0  0  0
    4.6090   -0.5099    1.1176 N   0  0  0  0  0  0  0  0  0  0  0  0
    5.2870   -0.8634    2.2610 C   0  0  0  0  0  0  0  0  0  0  0  0
    6.6342   -0.5985    2.0677 C   0  0  0  0  0  0  0  0  0  0  0  0
    7.6866   -0.5893    3.0970 C   0  0  0  0  0  0  0  0  0  0  0  0
    8.8419   -0.2738    2.8225 O   0  0  0  0  0  0  0  0  0  0  0  0
    7.2664   -0.8865    4.5300 C   0  0  0  0  0  0  0  0  0  0  0  0
    8.2347   -1.0621    5.7197 C   0  0  0  0  0  0  0  0  0  0  0  0
    7.8806   -2.0508    6.8258 C   0  0  0  0  0  0  0  0  0  0  0  0
    9.7297   -1.0924    5.4570 C   0  0  0  0  0  0  0  0  0  0  0  0
    7.3439    0.2086    5.6003 C   0  0  0  0  0  0  0  0  0  0  0  0
    7.8861    1.5769    5.2360 C   0  0  0  0  0  0  0  0  0  0  0  0
    6.1557    0.3613    6.5395 C   0  0  0  0  0  0  0  0  0  0  0  0
    6.7783   -0.3577    0.6507 C   0  0  0  0  0  0  0  0  0  0  0  0
    7.8851   -0.1466   -0.2053 C   0  0  0  0  0  0  0  0  0  0  0  0
    7.6977    0.0112   -1.5834 C   0  0  0  0  0  0  0  0  0  0  0  0
    6.4157    0.0164   -2.1244 C   0  0  0  0  0  0  0  0  0  0  0  0
    5.2839   -0.1325   -1.2988 C   0  0  0  0  0  0  0  0  0  0  0  0
    5.4931   -0.3379    0.0773 C   0  0  0  0  0  0  0  0  0  0  0  0
    2.7705    3.1535    1.1537 H   0  0  0  0  0  0  0  0  0  0  0  0
    2.7492    2.1068   -0.2748 H   0  0  0  0  0  0  0  0  0  0  0  0
    4.2367    2.2947    0.6791 H   0  0  0  0  0  0  0  0  0  0  0  0
    1.6270    1.0523    1.6947 H   0  0  0  0  0  0  0  0  0  0  0  0
    3.1094    1.2047    2.6306 H   0  0  0  0  0  0  0  0  0  0  0  0
    2.8035   -0.4996    0.0691 H   0  0  0  0  0  0  0  0  0  0  0  0
    2.7371   -1.1090    1.7244 H   0  0  0  0  0  0  0  0  0  0  0  0
    4.7373   -1.1881    3.1339 H   0  0  0  0  0  0  0  0  0  0  0  0
    6.4141   -1.5511    4.5746 H   0  0  0  0  0  0  0  0  0  0  0  0
    8.3566   -3.0219    6.6502 H   0  0  0  0  0  0  0  0  0  0  0  0
    6.8104   -2.2482    6.9142 H   0  0  0  0  0  0  0  0  0  0  0  0
    8.2384   -1.6665    7.7874 H   0  0  0  0  0  0  0  0  0  0  0  0
   10.2218   -1.8060    6.1326 H   0  0  0  0  0  0  0  0  0  0  0  0
   10.2087   -0.1255    5.6224 H   0  0  0  0  0  0  0  0  0  0  0  0
    9.9672   -1.4682    4.4583 H   0  0  0  0  0  0  0  0  0  0  0  0
    8.6261    1.5806    4.4363 H   0  0  0  0  0  0  0  0  0  0  0  0
    8.3298    2.0588    6.1142 H   0  0  0  0  0  0  0  0  0  0  0  0
    7.0545    2.2166    4.9078 H   0  0  0  0  0  0  0  0  0  0  0  0
    5.6534   -0.5777    6.7751 H   0  0  0  0  0  0  0  0  0  0  0  0
    5.3966    1.0118    6.0912 H   0  0  0  0  0  0  0  0  0  0  0  0
    6.4812    0.8179    7.4831 H   0  0  0  0  0  0  0  0  0  0  0  0
    8.8939   -0.1379    0.2034 H   0  0  0  0  0  0  0  0  0  0  0  0
    8.5595    0.1299   -2.2329 H   0  0  0  0  0  0  0  0  0  0  0  0
    6.2863    0.1371   -3.1912 H   0  0  0  0  0  0  0  0  0  0  0  0
    4.3003   -0.1112   -1.7371 H   0  0  0  0  0  0  0  0  0  0  0  0
  1  2  1  0  0  0  0
  1 22  1  0  0  0  0
  1 23  1  0  0  0  0
  1 24  1  0  0  0  0
  2  3  1  0  0  0  0
  2 25  1  0  0  0  0
  2 26  1  0  0  0  0
  3  4  1  0  0  0  0
  3 27  1  0  0  0  0
  3 28  1  0  0  0  0
  4 21  1  0  0  0  0
  4  5  1  0  0  0  0
  5  6  2  0  0  0  0
  5 29  1  0  0  0  0
  6  7  1  0  0  0  0
  6 16  1  0  0  0  0
  7  8  2  0  0  0  0
  7  9  1  0  0  0  0
  9 13  1  0  0  0  0
  9 10  1  0  0  0  0
  9 30  1  0  0  0  0
 10 11  1  0  0  0  0
 10 12  1  0  0  0  0
 10 13  1  0  0  0  0
 11 31  1  0  0  0  0
 11 32  1  0  0  0  0
 11 33  1  0  0  0  0
 12 34  1  0  0  0  0
 12 35  1  0  0  0  0
 12 36  1  0  0  0  0
 13 14  1  0  0  0  0
 13 15  1  0  0  0  0
 14 37  1  0  0  0  0
 14 38  1  0  0  0  0
 14 39  1  0  0  0  0
 15 40  1  0  0  0  0
 15 41  1  0  0  0  0
 15 42  1  0  0  0  0
 16 21  2  0  0  0  0
 16 17  1  0  0  0  0
 17 18  2  0  0  0  0
 17 43  1  0  0  0  0
 18 19  1  0  0  0  0
 18 44  1  0  0  0  0
 19 20  2  0  0  0  0
 19 45  1  0  0  0  0
 20 21  1  0  0  0  0
 20 46  1  0  0  0  0
M  END
$$$$
CHEMBL1828811
 OpenBabel12022418093D

 43 46  0  0  0  0  0  0  0  0999 V2000
    1.0101    0.0413    0.1803 C   0  0  0  0  0  0  0  0  0  0  0  0
    0.4278    1.0704   -0.1527 O   0  0  0  0  0  0  0  0  0  0  0  0
    0.2273   -1.0958    0.7591 C   0  0  0  0  0  0  0  0  0  0  0  0
    0.7960   -1.8086    1.8314 C   0  0  0  0  0  0  0  0  0  0  0  0
    0.1560   -2.9183    2.3673 C   0  0  0  0  0  0  0  0  0  0  0  0
   -1.0932   -3.2886    1.8847 C   0  0  0  0  0  0  0  0  0  0  0  0
   -1.7306   -2.5451    0.8802 C   0  0  0  0  0  0  0  0  0  0  0  0
   -3.0237   -2.9119    0.4701 C   0  0  0  0  0  0  0  0  0  0  0  0
   -3.7037   -2.1859   -0.5044 C   0  0  0  0  0  0  0  0  0  0  0  0
   -3.0905   -1.0937   -1.0976 C   0  0  0  0  0  0  0  0  0  0  0  0
   -1.7963   -0.7299   -0.7164 C   0  0  0  0  0  0  0  0  0  0  0  0
   -1.0796   -1.4283    0.2913 C   0  0  0  0  0  0  0  0  0  0  0  0
    2.4747   -0.0393    0.0959 C   0  0  0  0  0  0  0  0  0  0  0  0
    3.3831   -1.1549    0.0006 C   0  0  0  0  0  0  0  0  0  0  0  0
    4.6856   -0.6407    0.0592 C   0  0  0  0  0  0  0  0  0  0  0  0
    5.8051   -1.4704    0.0674 C   0  0  0  0  0  0  0  0  0  0  0  0
    5.6420   -2.8106    0.0205 N   0  0  0  0  0  0  0  0  0  0  0  0
    4.3957   -3.3140   -0.0718 C   0  0  0  0  0  0  0  0  0  0  0  0
    3.2389   -2.5506   -0.1086 C   0  0  0  0  0  0  0  0  0  0  0  0
    4.5768    0.7319    0.0895 N   0  0  0  0  0  0  0  0  0  0  0  0
    3.2642    1.0976    0.1024 C   0  0  0  0  0  0  0  0  0  0  0  0
    5.6801    1.6769    0.0898 C   0  0  0  0  0  0  0  0  0  0  0  0
    6.0944    2.0623   -1.3238 C   0  0  0  0  0  0  0  0  0  0  0  0
    7.1908    2.9752   -1.2547 O   0  0  0  0  0  0  0  0  0  0  0  0
    7.6166    3.3706   -2.5536 C   0  0  0  0  0  0  0  0  0  0  0  0
    1.7562   -1.5171    2.2525 H   0  0  0  0  0  0  0  0  0  0  0  0
    0.6284   -3.4899    3.1624 H   0  0  0  0  0  0  0  0  0  0  0  0
   -1.5813   -4.1589    2.3197 H   0  0  0  0  0  0  0  0  0  0  0  0
   -3.5241   -3.7645    0.9242 H   0  0  0  0  0  0  0  0  0  0  0  0
   -4.7111   -2.4718   -0.7947 H   0  0  0  0  0  0  0  0  0  0  0  0
   -3.6153   -0.5132   -1.8523 H   0  0  0  0  0  0  0  0  0  0  0  0
   -1.3654    0.1376   -1.2119 H   0  0  0  0  0  0  0  0  0  0  0  0
    6.8243   -1.1065    0.1210 H   0  0  0  0  0  0  0  0  0  0  0  0
    4.3428   -4.3989   -0.1095 H   0  0  0  0  0  0  0  0  0  0  0  0
    2.2744   -3.0361   -0.1962 H   0  0  0  0  0  0  0  0  0  0  0  0
    2.9696    2.1420    0.1419 H   0  0  0  0  0  0  0  0  0  0  0  0
    6.5177    1.2408    0.6452 H   0  0  0  0  0  0  0  0  0  0  0  0
    5.3686    2.5632    0.6558 H   0  0  0  0  0  0  0  0  0  0  0  0
    5.2565    2.5371   -1.8486 H   0  0  0  0  0  0  0  0  0  0  0  0
    6.3973    1.1724   -1.8887 H   0  0  0  0  0  0  0  0  0  0  0  0
    8.4499    4.0699   -2.4463 H   0  0  0  0  0  0  0  0  0  0  0  0
    6.8036    3.8733   -3.0865 H   0  0  0  0  0  0  0  0  0  0  0  0
    7.9595    2.5014   -3.1231 H   0  0  0  0  0  0  0  0  0  0  0  0
  1  2  2  0  0  0  0
  1  3  1  0  0  0  0
  1 13  1  0  0  0  0
  3 12  2  0  0  0  0
  3  4  1  0  0  0  0
  4  5  2  0  0  0  0
  4 26  1  0  0  0  0
  5  6  1  0  0  0  0
  5 27  1  0  0  0  0
  6  7  2  0  0  0  0
  6 28  1  0  0  0  0
  7 12  1  0  0  0  0
  7  8  1  0  0  0  0
  8  9  2  0  0  0  0
  8 29  1  0  0  0  0
  9 10  1  0  0  0  0
  9 30  1  0  0  0  0
 10 11  2  0  0  0  0
 10 31  1  0  0  0  0
 11 12  1  0  0  0  0
 11 32  1  0  0  0  0
 13 21  2  0  0  0  0
 13 14  1  0  0  0  0
 14 19  2  0  0  0  0
 14 15  1  0  0  0  0
 15 16  2  0  0  0  0
 15 20  1  0  0  0  0
 16 17  1  0  0  0  0
 16 33  1  0  0  0  0
 17 18  2  0  0  0  0
 18 19  1  0  0  0  0
 18 34  1  0  0  0  0
 19 35  1  0  0  0  0
 20 21  1  0  0  0  0
 20 22  1  0  0  0  0
 21 36  1  0  0  0  0
 22 23  1  0  0  0  0
 22 37  1  0  0  0  0
 22 38  1  0  0  0  0
 23 24  1  0  0  0  0
 23 39  1  0  0  0  0
 23 40  1  0  0  0  0
 24 25  1  0  0  0  0
 25 41  1  0  0  0  0
 25 42  1  0  0  0  0
 25 43  1  0  0  0  0
M  END
$$$$
CHEMBL583654
 OpenBabel12022418093D

 67 70  0  0  1  0  0  0  0  0999 V2000
   -0.4926   -0.7499   -3.9801 C   0  0  0  0  0  0  0  0  0  0  0  0
   -1.5995   -0.6816   -2.9634 C   0  0  0  0  0  0  0  0  0  0  0  0
   -2.1101   -1.9508   -2.6038 C   0  0  0  0  0  0  0  0  0  0  0  0
   -3.1738   -2.1041   -1.7186 C   0  0  0  0  0  0  0  0  0  0  0  0
   -3.7505   -0.9785   -1.1473 C   0  0  0  0  0  0  0  0  0  0  0  0
   -4.9289   -1.0899   -0.2392 C   0  0  0  0  0  0  0  0  0  0  0  0
   -5.0959   -0.2725    0.6577 O   0  0  0  0  0  0  0  0  0  0  0  0
   -5.7938   -2.1365   -0.5026 N   0  0  0  0  0  0  0  0  0  0  0  0
   -6.9659   -2.3879    0.3161 C   0  0  1  0  0  0  0  0  0  0  0  0
   -8.2951   -1.7365   -0.2129 C   0  0  0  0  0  0  0  0  0  0  0  0
   -8.7576   -0.5725    0.6778 C   0  0  0  0  0  0  0  0  0  0  0  0
   -8.2024   -1.1896   -1.6567 C   0  0  0  0  0  0  0  0  0  0  0  0
   -9.2748   -2.9545   -0.1751 C   0  0  2  0  0  0  0  0  0  0  0  0
   -9.5501   -3.4323    1.2661 C   0  0  0  0  0  0  0  0  0  0  0  0
   -8.2194   -4.0712    1.6864 C   0  0  0  0  0  0  0  0  0  0  0  0
   -7.3401   -3.9089    0.4209 C   0  0  2  0  0  0  0  0  0  0  0  0
   -6.1922   -4.8995    0.3721 C   0  0  0  0  0  0  0  0  0  0  0  0
   -8.3886   -4.0973   -0.6813 C   0  0  0  0  0  0  0  0  0  0  0  0
   -3.1990    0.2790   -1.4151 C   0  0  0  0  0  0  0  0  0  0  0  0
   -2.1274    0.4658   -2.3348 C   0  0  0  0  0  0  0  0  0  0  0  0
   -1.7398    1.9276   -2.4947 C   0  0  0  0  0  0  0  0  0  0  0  0
   -0.7725    2.4363   -3.5570 C   0  0  0  0  0  0  0  0  0  0  0  0
    0.7009    2.1779   -3.2221 C   0  0  0  0  0  0  0  0  0  0  0  0
    1.5543    2.4565   -4.3925 N   0  0  0  0  0  0  0  0  0  0  0  0
    1.6639    3.9041   -4.6830 C   0  0  0  0  0  0  0  0  0  0  0  0
    2.4440    4.6726   -3.6042 C   0  0  0  0  0  0  0  0  0  0  0  0
    3.7617    4.1330   -3.4338 O   0  0  0  0  0  0  0  0  0  0  0  0
    3.7237    2.7292   -3.1391 C   0  0  0  0  0  0  0  0  0  0  0  0
    2.9291    1.9450   -4.1961 C   0  0  0  0  0  0  0  0  0  0  0  0
   -0.3347    0.1625   -4.5388 H   0  0  0  0  0  0  0  0  0  0  0  0
   -0.7347   -1.4972   -4.7458 H   0  0  0  0  0  0  0  0  0  0  0  0
    0.4439   -1.0535   -3.4968 H   0  0  0  0  0  0  0  0  0  0  0  0
   -1.6699   -2.8487   -3.0376 H   0  0  0  0  0  0  0  0  0  0  0  0
   -3.5208   -3.1021   -1.4782 H   0  0  0  0  0  0  0  0  0  0  0  0
   -5.7107   -2.6253   -1.3835 H   0  0  0  0  0  0  0  0  0  0  0  0
   -6.7356   -2.0104    1.3206 H   0  0  0  0  0  0  0  0  0  0  0  0
   -8.1353    0.3151    0.5212 H   0  0  0  0  0  0  0  0  0  0  0  0
   -8.7011   -0.8130    1.7436 H   0  0  0  0  0  0  0  0  0  0  0  0
   -9.7946   -0.2983    0.4497 H   0  0  0  0  0  0  0  0  0  0  0  0
   -7.5160   -0.3376   -1.7163 H   0  0  0  0  0  0  0  0  0  0  0  0
   -9.1840   -0.8416   -2.0000 H   0  0  0  0  0  0  0  0  0  0  0  0
   -7.8564   -1.9372   -2.3760 H   0  0  0  0  0  0  0  0  0  0  0  0
  -10.1920   -2.8009   -0.7499 H   0  0  0  0  0  0  0  0  0  0  0  0
  -10.3387   -4.1946    1.2689 H   0  0  0  0  0  0  0  0  0  0  0  0
   -9.8683   -2.6407    1.9481 H   0  0  0  0  0  0  0  0  0  0  0  0
   -8.3744   -5.1270    1.9381 H   0  0  0  0  0  0  0  0  0  0  0  0
   -7.7873   -3.5802    2.5648 H   0  0  0  0  0  0  0  0  0  0  0  0
   -5.4663   -4.6932    1.1570 H   0  0  0  0  0  0  0  0  0  0  0  0
   -5.6742   -4.8576   -0.5925 H   0  0  0  0  0  0  0  0  0  0  0  0
   -6.5542   -5.9279    0.5000 H   0  0  0  0  0  0  0  0  0  0  0  0
   -7.9936   -3.9581   -1.6903 H   0  0  0  0  0  0  0  0  0  0  0  0
   -8.8883   -5.0729   -0.6361 H   0  0  0  0  0  0  0  0  0  0  0  0
   -3.6301    1.1468   -0.9116 H   0  0  0  0  0  0  0  0  0  0  0  0
   -1.3976    2.2952   -1.5168 H   0  0  0  0  0  0  0  0  0  0  0  0
   -2.6826    2.4573   -2.7014 H   0  0  0  0  0  0  0  0  0  0  0  0
   -0.9145    3.5239   -3.6138 H   0  0  0  0  0  0  0  0  0  0  0  0
   -1.0533    2.0554   -4.5441 H   0  0  0  0  0  0  0  0  0  0  0  0
    0.8389    1.1386   -2.9148 H   0  0  0  0  0  0  0  0  0  0  0  0
    0.9826    2.7651   -2.3417 H   0  0  0  0  0  0  0  0  0  0  0  0
    0.6792    4.3542   -4.8429 H   0  0  0  0  0  0  0  0  0  0  0  0
    2.1931    4.0102   -5.6394 H   0  0  0  0  0  0  0  0  0  0  0  0
    1.9226    4.6685   -2.6402 H   0  0  0  0  0  0  0  0  0  0  0  0
    2.5489    5.7192   -3.9041 H   0  0  0  0  0  0  0  0  0  0  0  0
    3.3084    2.5801   -2.1361 H   0  0  0  0  0  0  0  0  0  0  0  0
    4.7581    2.3720   -3.1203 H   0  0  0  0  0  0  0  0  0  0  0  0
    3.4522    2.0252   -5.1590 H   0  0  0  0  0  0  0  0  0  0  0  0
    2.9112    0.8759   -3.9539 H   0  0  0  0  0  0  0  0  0  0  0  0
  1  2  1  0  0  0  0
  1 30  1  0  0  0  0
  1 31  1  0  0  0  0
  1 32  1  0  0  0  0
  2 20  2  0  0  0  0
  2  3  1  0  0  0  0
  3  4  2  0  0  0  0
  3 33  1  0  0  0  0
  4  5  1  0  0  0  0
  4 34  1  0  0  0  0
  5  6  1  0  0  0  0
  5 19  2  0  0  0  0
  6  7  2  0  0  0  0
  6  8  1  0  0  0  0
  8 35  1  0  0  0  0
  9 10  1  0  0  0  0
  9 16  1  0  0  0  0
  9  8  1  0  0  0  0
  9 36  1  1  0  0  0
 10 11  1  0  0  0  0
 10 12  1  0  0  0  0
 10 13  1  0  0  0  0
 11 37  1  0  0  0  0
 11 38  1  0  0  0  0
 11 39  1  0  0  0  0
 12 40  1  0  0  0  0
 12 41  1  0  0  0  0
 12 42  1  0  0  0  0
 13 14  1  0  0  0  0
 13 18  1  0  0  0  0
 13 43  1  6  0  0  0
 14 15  1  0  0  0  0
 14 44  1  0  0  0  0
 14 45  1  0  0  0  0
 15 16  1  0  0  0  0
 15 46  1  0  0  0  0
 15 47  1  0  0  0  0
 16 17  1  6  0  0  0
 16 18  1  0  0  0  0
 17 48  1  0  0  0  0
 17 49  1  0  0  0  0
 17 50  1  0  0  0  0
 18 51  1  0  0  0  0
 18 52  1  0  0  0  0
 19 20  1  0  0  0  0
 19 53  1  0  0  0  0
 20 21  1  0  0  0  0
 21 22  1  0  0  0  0
 21 54  1  0  0  0  0
 21 55  1  0  0  0  0
 22 23  1  0  0  0  0
 22 56  1  0  0  0  0
 22 57  1  0  0  0  0
 23 24  1  0  0  0  0
 23 58  1  0  0  0  0
 23 59  1  0  0  0  0
 24 29  1  0  0  0  0
 24 25  1  0  0  0  0
 25 26  1  0  0  0  0
 25 60  1  0  0  0  0
 25 61  1  0  0  0  0
 26 27  1  0  0  0  0
 26 62  1  0  0  0  0
 26 63  1  0  0  0  0
 27 28  1  0  0  0  0
 28 29  1  0  0  0  0
 28 64  1  0  0  0  0
 28 65  1  0  0  0  0
 29 66  1  0  0  0  0
 29 67  1  0  0  0  0
M  END
$$$$
CHEMBL3354956
 OpenBabel12022418093D

 48 52  0  0  1  0  0  0  0  0999 V2000
    1.3256   -0.1050   -0.8241 C   0  0  2  0  0  0  0  0  0  0  0  0
    0.8244   -0.9117    0.3967 C   0  0  0  0  0  0  0  0  0  0  0  0
    1.3368   -2.2423    0.4430 O   0  0  0  0  0  0  0  0  0  0  0  0
    0.7322   -0.5925   -2.1362 C   0  0  0  0  0  0  0  0  0  0  0  0
   -0.1971    0.2128   -2.8203 C   0  0  0  0  0  0  0  0  0  0  0  0
   -0.8013   -0.2304   -3.9989 C   0  0  0  0  0  0  0  0  0  0  0  0
   -0.4831   -1.4834   -4.5149 C   0  0  0  0  0  0  0  0  0  0  0  0
    0.4381   -2.2920   -3.8529 C   0  0  0  0  0  0  0  0  0  0  0  0
    1.0413   -1.8507   -2.6722 C   0  0  0  0  0  0  0  0  0  0  0  0
    2.7845   -0.0219   -0.8664 N   0  0  0  0  0  0  0  0  0  0  0  0
    3.4425    1.1649   -0.6153 C   0  0  0  0  0  0  0  0  0  0  0  0
    2.8462    2.2085   -0.3560 O   0  0  0  0  0  0  0  0  0  0  0  0
    4.9154    1.1196   -0.6698 C   0  0  0  0  0  0  0  0  0  0  0  0
    5.7571    2.2376   -0.5978 C   0  0  0  0  0  0  0  0  0  0  0  0
    7.0303    1.7587   -0.7064 C   0  0  0  0  0  0  0  0  0  0  0  0
    8.0174    2.8984   -0.8405 C   0  0  1  0  0  0  0  0  0  0  0  0
    7.1084    4.1465   -0.8408 C   0  0  1  0  0  0  0  0  0  0  0  0
    5.6509    3.7173   -0.5990 C   0  0  0  0  0  0  0  0  0  0  0  0
    8.1362    3.9585    0.2289 C   0  0  0  0  0  0  0  0  0  0  0  0
    6.9716    0.3995   -0.8262 N   0  0  0  0  0  0  0  0  0  0  0  0
    8.0697   -0.5077   -0.8488 C   0  0  0  0  0  0  0  0  0  0  0  0
    9.3768   -0.0491   -0.5892 C   0  0  0  0  0  0  0  0  0  0  0  0
   10.4581   -0.9349   -0.5820 C   0  0  0  0  0  0  0  0  0  0  0  0
   10.2395   -2.2817   -0.8235 C   0  0  0  0  0  0  0  0  0  0  0  0
    8.9608   -2.7587   -1.0771 C   0  0  0  0  0  0  0  0  0  0  0  0
    7.8801   -1.8742   -1.0886 C   0  0  0  0  0  0  0  0  0  0  0  0
    6.6699   -2.3856   -1.3481 F   0  0  0  0  0  0  0  0  0  0  0  0
   11.2737   -3.1311   -0.8063 F   0  0  0  0  0  0  0  0  0  0  0  0
    5.6513   -0.0117   -0.8202 N   0  0  0  0  0  0  0  0  0  0  0  0
    0.9421    0.9109   -0.6653 H   0  0  0  0  0  0  0  0  0  0  0  0
    1.1303   -0.4195    1.3269 H   0  0  0  0  0  0  0  0  0  0  0  0
   -0.2701   -0.9711    0.3970 H   0  0  0  0  0  0  0  0  0  0  0  0
    2.2992   -2.1681    0.5594 H   0  0  0  0  0  0  0  0  0  0  0  0
   -0.4702    1.1924   -2.4320 H   0  0  0  0  0  0  0  0  0  0  0  0
   -1.5253    0.3998   -4.5091 H   0  0  0  0  0  0  0  0  0  0  0  0
   -0.9570   -1.8326   -5.4282 H   0  0  0  0  0  0  0  0  0  0  0  0
    0.6799   -3.2751   -4.2484 H   0  0  0  0  0  0  0  0  0  0  0  0
    1.7381   -2.5109   -2.1618 H   0  0  0  0  0  0  0  0  0  0  0  0
    3.3506   -0.8143   -1.1507 H   0  0  0  0  0  0  0  0  0  0  0  0
    8.8752    2.7844   -1.4885 H   0  0  0  0  0  0  0  0  0  0  0  0
    7.2435    4.8923   -1.6091 H   0  0  0  0  0  0  0  0  0  0  0  0
    5.2885    4.0979    0.3604 H   0  0  0  0  0  0  0  0  0  0  0  0
    5.0094    4.0731   -1.4098 H   0  0  0  0  0  0  0  0  0  0  0  0
    9.0123    4.5985    0.2050 H   0  0  0  0  0  0  0  0  0  0  0  0
    7.8142    3.7136    1.2354 H   0  0  0  0  0  0  0  0  0  0  0  0
    9.5925    0.9868   -0.3519 H   0  0  0  0  0  0  0  0  0  0  0  0
   11.4637   -0.5809   -0.3754 H   0  0  0  0  0  0  0  0  0  0  0  0
    8.8001   -3.8147   -1.2628 H   0  0  0  0  0  0  0  0  0  0  0  0
  1 10  1  0  0  0  0
  1  4  1  0  0  0  0
  1  2  1  0  0  0  0
  1 30  1  1  0  0  0
  2  3  1  0  0  0  0
  2 31  1  0  0  0  0
  2 32  1  0  0  0  0
  3 33  1  0  0  0  0
  4  9  2  0  0  0  0
  4  5  1  0  0  0  0
  5  6  2  0  0  0  0
  5 34  1  0  0  0  0
  6  7  1  0  0  0  0
  6 35  1  0  0  0  0
  7  8  2  0  0  0  0
  7 36  1  0  0  0  0
  8  9  1  0  0  0  0
  8 37  1  0  0  0  0
  9 38  1  0  0  0  0
 10 11  1  0  0  0  0
 10 39  1  0  0  0  0
 11 12  2  0  0  0  0
 11 13  1  0  0  0  0
 13 29  2  0  0  0  0
 13 14  1  0  0  0  0
 14 18  1  0  0  0  0
 14 15  2  0  0  0  0
 15 16  1  0  0  0  0
 15 20  1  0  0  0  0
 16 17  1  0  0  0  0
 16 19  1  0  0  0  0
 16 40  1  6  0  0  0
 17 18  1  0  0  0  0
 17 19  1  0  0  0  0
 17 41  1  6  0  0  0
 18 42  1  0  0  0  0
 18 43  1  0  0  0  0
 19 44  1  0  0  0  0
 19 45  1  0  0  0  0
 20 21  1  0  0  0  0
 20 29  1  0  0  0  0
 21 26  2  0  0  0  0
 21 22  1  0  0  0  0
 22 23  2  0  0  0  0
 22 46  1  0  0  0  0
 23 24  1  0  0  0  0
 23 47  1  0  0  0  0
 24 25  2  0  0  0  0
 24 28  1  0  0  0  0
 25 26  1  0  0  0  0
 25 48  1  0  0  0  0
 26 27  1  0  0  0  0
M  END
$$$$
CHEMBL3970254
 OpenBabel12022418093D

 61 63  0  0  0  0  0  0  0  0999 V2000
    3.0981   -1.2159   -2.1416 C   0  0  0  0  0  0  0  0  0  0  0  0
    2.5718   -1.9527   -0.9120 C   0  0  0  0  0  0  0  0  0  0  0  0
    3.1629   -1.5072    0.4717 C   0  0  0  0  0  0  0  0  0  0  0  0
    2.7509   -0.0202    0.7083 C   0  0  0  0  0  0  0  0  0  0  0  0
    3.1829    0.6268    2.0178 C   0  0  0  0  0  0  0  0  0  0  0  0
    2.4633   -2.4055    1.5833 C   0  0  0  0  0  0  0  0  0  0  0  0
    1.3202   -2.8322    1.3538 O   0  0  0  0  0  0  0  0  0  0  0  0
    3.0094   -2.5973    2.8568 N   0  0  0  0  0  0  0  0  0  0  0  0
    4.2886   -2.1176    3.3605 C   0  0  0  0  0  0  0  0  0  0  0  0
    2.3312   -3.5554    3.7343 C   0  0  0  0  0  0  0  0  0  0  0  0
    2.8427   -4.9773    3.5383 C   0  0  0  0  0  0  0  0  0  0  0  0
    4.6278   -1.6287    0.4376 N   0  0  0  0  0  0  0  0  0  0  0  0
    5.2809   -2.8470    0.4017 C   0  0  0  0  0  0  0  0  0  0  0  0
    4.7287   -3.9341    0.4961 O   0  0  0  0  0  0  0  0  0  0  0  0
    6.7725   -2.7508    0.3462 C   0  0  0  0  0  0  0  0  0  0  0  0
    7.5415   -3.8329    0.7271 C   0  0  0  0  0  0  0  0  0  0  0  0
    8.9229   -3.6697    0.7461 C   0  0  0  0  0  0  0  0  0  0  0  0
    9.5209   -2.4528    0.3662 C   0  0  0  0  0  0  0  0  0  0  0  0
    8.6355   -1.4310   -0.0207 C   0  0  0  0  0  0  0  0  0  0  0  0
    9.1653   -0.2038   -0.4069 O   0  0  0  0  0  0  0  0  0  0  0  0
    8.1972    0.5726   -1.1311 C   0  0  0  0  0  0  0  0  0  0  0  0
    8.6638    1.9611   -1.4600 C   0  0  0  0  0  0  0  0  0  0  0  0
    9.8840    2.6015   -0.8475 C   0  0  0  0  0  0  0  0  0  0  0  0
    9.8896    2.2055   -2.2999 C   0  0  0  0  0  0  0  0  0  0  0  0
    7.2828   -1.5496   -0.0150 N   0  0  0  0  0  0  0  0  0  0  0  0
   11.0263   -2.3080    0.4296 C   0  0  0  0  0  0  0  0  0  0  0  0
   11.9106   -3.4011   -0.1410 C   0  0  0  0  0  0  0  0  0  0  0  0
   11.8364   -2.0690   -0.8191 C   0  0  0  0  0  0  0  0  0  0  0  0
    2.6805   -1.6695   -3.0478 H   0  0  0  0  0  0  0  0  0  0  0  0
    4.1876   -1.2703   -2.2161 H   0  0  0  0  0  0  0  0  0  0  0  0
    2.7975   -0.1644   -2.1444 H   0  0  0  0  0  0  0  0  0  0  0  0
    2.7510   -3.0249   -1.0584 H   0  0  0  0  0  0  0  0  0  0  0  0
    1.4797   -1.8318   -0.9042 H   0  0  0  0  0  0  0  0  0  0  0  0
    1.6578    0.0641    0.6461 H   0  0  0  0  0  0  0  0  0  0  0  0
    3.1594    0.6061   -0.0938 H   0  0  0  0  0  0  0  0  0  0  0  0
    2.7341    0.1314    2.8824 H   0  0  0  0  0  0  0  0  0  0  0  0
    2.8527    1.6703    2.0440 H   0  0  0  0  0  0  0  0  0  0  0  0
    4.2713    0.6334    2.1227 H   0  0  0  0  0  0  0  0  0  0  0  0
    4.7750   -1.3904    2.7231 H   0  0  0  0  0  0  0  0  0  0  0  0
    4.9652   -2.9650    3.5008 H   0  0  0  0  0  0  0  0  0  0  0  0
    4.1155   -1.6355    4.3282 H   0  0  0  0  0  0  0  0  0  0  0  0
    1.2515   -3.5377    3.5541 H   0  0  0  0  0  0  0  0  0  0  0  0
    2.4798   -3.2408    4.7739 H   0  0  0  0  0  0  0  0  0  0  0  0
    2.6811   -5.3198    2.5123 H   0  0  0  0  0  0  0  0  0  0  0  0
    2.3231   -5.6624    4.2157 H   0  0  0  0  0  0  0  0  0  0  0  0
    3.9153   -5.0484    3.7482 H   0  0  0  0  0  0  0  0  0  0  0  0
    5.1877   -0.8317    0.1485 H   0  0  0  0  0  0  0  0  0  0  0  0
    7.0826   -4.7686    1.0299 H   0  0  0  0  0  0  0  0  0  0  0  0
    9.5451   -4.5032    1.0663 H   0  0  0  0  0  0  0  0  0  0  0  0
    7.2868    0.7021   -0.5335 H   0  0  0  0  0  0  0  0  0  0  0  0
    7.9491    0.0563   -2.0674 H   0  0  0  0  0  0  0  0  0  0  0  0
    7.8115    2.6021   -1.6641 H   0  0  0  0  0  0  0  0  0  0  0  0
   10.4989    2.0261   -0.1679 H   0  0  0  0  0  0  0  0  0  0  0  0
    9.8256    3.6570   -0.6089 H   0  0  0  0  0  0  0  0  0  0  0  0
    9.8373    2.9941   -3.0442 H   0  0  0  0  0  0  0  0  0  0  0  0
   10.4992    1.3597   -2.5900 H   0  0  0  0  0  0  0  0  0  0  0  0
   11.3984   -1.8361    1.3382 H   0  0  0  0  0  0  0  0  0  0  0  0
   11.4610   -4.2447   -0.6540 H   0  0  0  0  0  0  0  0  0  0  0  0
   12.8175   -3.6535    0.3986 H   0  0  0  0  0  0  0  0  0  0  0  0
   12.6977   -1.4146   -0.7428 H   0  0  0  0  0  0  0  0  0  0  0  0
   11.3224   -2.0137   -1.7718 H   0  0  0  0  0  0  0  0  0  0  0  0
  1  2  1  0  0  0  0
  1 29  1  0  0  0  0
  1 30  1  0  0  0  0
  1 31  1  0  0  0  0
  2  3  1  0  0  0  0
  2 32  1  0  0  0  0
  2 33  1  0  0  0  0
  3  4  1  0  0  0  0
  3  6  1  0  0  0  0
  3 12  1  0  0  0  0
  4  5  1  0  0  0  0
  4 34  1  0  0  0  0
  4 35  1  0  0  0  0
  5 36  1  0  0  0  0
  5 37  1  0  0  0  0
  5 38  1  0  0  0  0
  6  7  2  0  0  0  0
  6  8  1  0  0  0  0
  8  9  1  0  0  0  0
  8 10  1  0  0  0  0
  9 39  1  0  0  0  0
  9 40  1  0  0  0  0
  9 41  1  0  0  0  0
 10 11  1  0  0  0  0
 10 42  1  0  0  0  0
 10 43  1  0  0  0  0
 11 44  1  0  0  0  0
 11 45  1  0  0  0  0
 11 46  1  0  0  0  0
 12 13  1  0  0  0  0
 12 47  1  0  0  0  0
 13 14  2  0  0  0  0
 13 15  1  0  0  0  0
 15 25  2  0  0  0  0
 15 16  1  0  0  0  0
 16 17  2  0  0  0  0
 16 48  1  0  0  0  0
 17 18  1  0  0  0  0
 17 49  1  0  0  0  0
 18 19  2  0  0  0  0
 18 26  1  0  0  0  0
 19 20  1  0  0  0  0
 19 25  1  0  0  0  0
 20 21  1  0  0  0  0
 21 22  1  0  0  0  0
 21 50  1  0  0  0  0
 21 51  1  0  0  0  0
 22 24  1  0  0  0  0
 22 23  1  0  0  0  0
 22 52  1  0  0  0  0
 23 24  1  0  0  0  0
 23 53  1  0  0  0  0
 23 54  1  0  0  0  0
 24 55  1  0  0  0  0
 24 56  1  0  0  0  0
 26 28  1  0  0  0  0
 26 27  1  0  0  0  0
 26 57  1  0  0  0  0
 27 28  1  0  0  0  0
 27 58  1  0  0  0  0
 27 59  1  0  0  0  0
 28 60  1  0  0  0  0
 28 61  1  0  0  0  0
M  END
$$$$
CHEMBL108085
 OpenBabel12022418093D

 65 68  0  0  1  0  0  0  0  0999 V2000
    5.5917    2.1241    5.1916 C   0  0  0  0  0  0  0  0  0  0  0  0
    5.7229    2.0911    3.6765 C   0  0  0  0  0  0  0  0  0  0  0  0
    4.4509    1.5790    3.0385 C   0  0  0  0  0  0  0  0  0  0  0  0
    4.5989    1.4667    1.5233 C   0  0  0  0  0  0  0  0  0  0  0  0
    3.2426    1.0828    0.9798 C   0  0  0  0  0  0  0  0  0  0  0  0
    3.1457    0.9969   -0.5321 C   0  0  0  0  0  0  0  0  0  0  0  0
    1.7390    0.5936   -1.0257 C   0  0  0  0  0  0  0  0  0  0  0  0
    0.6348    1.5674   -0.5869 C   0  0  0  0  0  0  0  0  0  0  0  0
    0.2673    1.7741    0.7738 C   0  0  0  0  0  0  0  0  0  0  0  0
   -0.7551    2.6222    1.1669 C   0  0  0  0  0  0  0  0  0  0  0  0
   -1.6546    3.0590    0.2185 C   0  0  0  0  0  0  0  0  0  0  0  0
   -1.2893    2.8557   -1.1413 C   0  0  0  0  0  0  0  0  0  0  0  0
   -0.1176    2.2327   -1.5460 C   0  0  0  0  0  0  0  0  0  0  0  0
   -2.2473    2.9315   -2.1361 O   0  0  0  0  0  0  0  0  0  0  0  0
   -3.3628    2.1660   -1.6771 C   0  0  0  0  0  0  0  0  0  0  0  0
   -4.3310    1.9010   -2.8267 C   0  0  0  0  0  0  0  0  0  0  0  0
   -2.9754    0.7201   -1.1550 C   0  0  0  0  0  0  0  0  0  0  0  0
   -4.0156    2.9480   -0.5462 C   0  0  2  0  0  0  0  0  0  0  0  0
   -5.0775    4.0409   -0.7722 C   0  0  0  0  0  0  0  0  0  0  0  0
   -5.9400    3.9397    0.4751 C   0  0  0  0  0  0  0  0  0  0  0  0
   -5.3729    3.4092    1.5932 C   0  0  0  0  0  0  0  0  0  0  0  0
   -6.0491    2.1369    2.0803 C   0  0  0  0  0  0  0  0  0  0  0  0
   -3.8294    3.5197    1.8265 C   0  0  0  0  0  0  0  0  0  0  0  0
   -3.0425    3.6038    0.4776 C   0  0  1  0  0  0  0  0  0  0  0  0
   -0.8873    2.9436    2.4805 O   0  0  0  0  0  0  0  0  0  0  0  0
    1.4104   -0.7258   -0.5365 O   0  0  0  0  0  0  0  0  0  0  0  0
    1.0820   -1.4884   -1.7011 C   0  0  0  0  0  0  0  0  0  0  0  0
    1.9219   -0.8615   -2.7748 C   0  0  0  0  0  0  0  0  0  0  0  0
    1.8340    0.5283   -2.4709 O   0  0  0  0  0  0  0  0  0  0  0  0
    4.6871    2.6604    5.4952 H   0  0  0  0  0  0  0  0  0  0  0  0
    5.5396    1.1095    5.6007 H   0  0  0  0  0  0  0  0  0  0  0  0
    6.4550    2.6284    5.6359 H   0  0  0  0  0  0  0  0  0  0  0  0
    5.9467    3.0962    3.3078 H   0  0  0  0  0  0  0  0  0  0  0  0
    6.5691    1.4475    3.4049 H   0  0  0  0  0  0  0  0  0  0  0  0
    3.6380    2.2637    3.2945 H   0  0  0  0  0  0  0  0  0  0  0  0
    4.1868    0.6005    3.4589 H   0  0  0  0  0  0  0  0  0  0  0  0
    4.8992    2.4332    1.1004 H   0  0  0  0  0  0  0  0  0  0  0  0
    5.3536    0.7237    1.2534 H   0  0  0  0  0  0  0  0  0  0  0  0
    2.9060    0.1420    1.4329 H   0  0  0  0  0  0  0  0  0  0  0  0
    2.5950    1.8897    1.3200 H   0  0  0  0  0  0  0  0  0  0  0  0
    3.4261    1.9573   -0.9819 H   0  0  0  0  0  0  0  0  0  0  0  0
    3.8797    0.2632   -0.8901 H   0  0  0  0  0  0  0  0  0  0  0  0
    0.7637    1.1872    1.5540 H   0  0  0  0  0  0  0  0  0  0  0  0
    0.0675    2.0976   -2.6048 H   0  0  0  0  0  0  0  0  0  0  0  0
   -3.8495    1.2920   -3.6010 H   0  0  0  0  0  0  0  0  0  0  0  0
   -5.2111    1.3371   -2.4656 H   0  0  0  0  0  0  0  0  0  0  0  0
   -4.6679    2.8123   -3.3124 H   0  0  0  0  0  0  0  0  0  0  0  0
   -3.8619    0.0968   -0.9999 H   0  0  0  0  0  0  0  0  0  0  0  0
   -2.3032    0.2137   -1.8532 H   0  0  0  0  0  0  0  0  0  0  0  0
   -2.4769    0.7272   -0.1792 H   0  0  0  0  0  0  0  0  0  0  0  0
   -4.5141    2.1069   -0.0568 H   0  0  0  0  0  0  0  0  0  0  0  0
   -4.6669    5.0527   -0.8794 H   0  0  0  0  0  0  0  0  0  0  0  0
   -5.6911    3.8425   -1.6521 H   0  0  0  0  0  0  0  0  0  0  0  0
   -6.9908    3.7521    0.2547 H   0  0  0  0  0  0  0  0  0  0  0  0
   -6.1449    1.4379    1.2311 H   0  0  0  0  0  0  0  0  0  0  0  0
   -5.4507    1.6056    2.8237 H   0  0  0  0  0  0  0  0  0  0  0  0
   -7.0564    2.3096    2.4622 H   0  0  0  0  0  0  0  0  0  0  0  0
   -3.6514    4.4286    2.4173 H   0  0  0  0  0  0  0  0  0  0  0  0
   -3.4832    2.6777    2.4330 H   0  0  0  0  0  0  0  0  0  0  0  0
   -2.9206    4.6800    0.2728 H   0  0  0  0  0  0  0  0  0  0  0  0
    0.0172    3.0872    2.8178 H   0  0  0  0  0  0  0  0  0  0  0  0
    1.2992   -2.5488   -1.5481 H   0  0  0  0  0  0  0  0  0  0  0  0
    0.0128   -1.3663   -1.9079 H   0  0  0  0  0  0  0  0  0  0  0  0
    2.9719   -1.1647   -2.6955 H   0  0  0  0  0  0  0  0  0  0  0  0
    1.5674   -1.0645   -3.7888 H   0  0  0  0  0  0  0  0  0  0  0  0
  1  2  1  0  0  0  0
  1 30  1  0  0  0  0
  1 31  1  0  0  0  0
  1 32  1  0  0  0  0
  2  3  1  0  0  0  0
  2 33  1  0  0  0  0
  2 34  1  0  0  0  0
  3  4  1  0  0  0  0
  3 35  1  0  0  0  0
  3 36  1  0  0  0  0
  4  5  1  0  0  0  0
  4 37  1  0  0  0  0
  4 38  1  0  0  0  0
  5  6  1  0  0  0  0
  5 39  1  0  0  0  0
  5 40  1  0  0  0  0
  6  7  1  0  0  0  0
  6 41  1  0  0  0  0
  6 42  1  0  0  0  0
  7 29  1  0  0  0  0
  7  8  1  0  0  0  0
  7 26  1  0  0  0  0
  8 13  2  0  0  0  0
  8  9  1  0  0  0  0
  9 10  2  0  0  0  0
  9 43  1  0  0  0  0
 10 11  1  0  0  0  0
 10 25  1  0  0  0  0
 11 24  1  0  0  0  0
 11 12  2  0  0  0  0
 12 13  1  0  0  0  0
 12 14  1  0  0  0  0
 13 44  1  0  0  0  0
 14 15  1  0  0  0  0
 15 16  1  0  0  0  0
 15 17  1  0  0  0  0
 15 18  1  0  0  0  0
 16 45  1  0  0  0  0
 16 46  1  0  0  0  0
 16 47  1  0  0  0  0
 17 48  1  0  0  0  0
 17 49  1  0  0  0  0
 17 50  1  0  0  0  0
 18 19  1  0  0  0  0
 18 24  1  0  0  0  0
 18 51  1  1  0  0  0
 19 20  1  0  0  0  0
 19 52  1  0  0  0  0
 19 53  1  0  0  0  0
 20 21  2  0  0  0  0
 20 54  1  0  0  0  0
 21 22  1  0  0  0  0
 21 23  1  0  0  0  0
 22 55  1  0  0  0  0
 22 56  1  0  0  0  0
 22 57  1  0  0  0  0
 23 58  1  0  0  0  0
 23 59  1  0  0  0  0
 24 23  1  0  0  0  0
 24 60  1  6  0  0  0
 25 61  1  0  0  0  0
 26 27  1  0  0  0  0
 27 28  1  0  0  0  0
 27 62  1  0  0  0  0
 27 63  1  0  0  0  0
 28 29  1  0  0  0  0
 28 64  1  0  0  0  0
 28 65  1  0  0  0  0
M  END
$$$$
CHEMBL2112293
 OpenBabel12022418093D

 72 76  0  0  1  0  0  0  0  0999 V2000
    1.6525   -4.9317    1.4303 C   0  0  0  0  0  0  0  0  0  0  0  0
    1.5101   -3.5494    1.2804 C   0  0  0  0  0  0  0  0  0  0  0  0
    2.1325   -2.5779    0.3330 C   0  0  0  0  0  0  0  0  0  0  0  0
    0.5081   -3.1259    2.1547 N   0  0  0  0  0  0  0  0  0  0  0  0
   -0.1571   -4.2095    2.7079 C   0  0  0  0  0  0  0  0  0  0  0  0
    0.5200   -5.3458    2.2435 C   0  0  0  0  0  0  0  0  0  0  0  0
    0.0009   -6.6133    2.5963 C   0  0  0  0  0  0  0  0  0  0  0  0
   -1.1579   -6.6999    3.3604 C   0  0  0  0  0  0  0  0  0  0  0  0
   -1.8007   -5.5706    3.8367 C   0  0  0  0  0  0  0  0  0  0  0  0
   -1.3100   -4.2936    3.5413 C   0  0  0  0  0  0  0  0  0  0  0  0
   -1.8935   -3.1337    3.9801 O   0  0  0  0  0  0  0  0  0  0  0  0
   -3.0278   -3.2265    4.8350 C   0  0  0  0  0  0  0  0  0  0  0  0
   -1.6718   -7.9060    3.6398 F   0  0  0  0  0  0  0  0  0  0  0  0
    0.0858   -1.7389    2.3001 C   0  0  0  0  0  0  0  0  0  0  0  0
    0.8713   -0.9203    3.3451 C   0  0  0  0  0  0  0  0  0  0  0  0
    0.4894    0.4811    3.2204 N   0  0  0  0  0  0  0  0  0  0  0  0
    1.5028    1.5187    3.3692 C   0  0  0  0  0  0  0  0  0  0  0  0
    1.3258    2.4535    4.5793 C   0  0  0  0  0  0  0  0  0  0  0  0
   -0.0281    2.8935    4.7242 O   0  0  0  0  0  0  0  0  0  0  0  0
   -0.8883    1.7644    4.8933 C   0  0  0  0  0  0  0  0  0  0  0  0
   -0.8542    0.8534    3.6602 C   0  0  0  0  0  0  0  0  0  0  0  0
    2.6264   -5.8869    0.8369 C   0  0  0  0  0  0  0  0  0  0  0  0
    2.4189   -7.0995    0.8816 O   0  0  0  0  0  0  0  0  0  0  0  0
    3.8055   -5.4083    0.2666 N   0  0  0  0  0  0  0  0  0  0  0  0
    4.8151   -6.3416   -0.2376 C   0  0  1  0  0  0  0  0  0  0  0  0
    5.6755   -5.8114   -1.4379 C   0  0  1  0  0  0  0  0  0  0  0  0
    6.9015   -5.2076   -0.7455 C   0  0  0  0  0  0  0  0  0  0  0  0
    7.2341   -6.5030    0.0136 C   0  0  1  0  0  0  0  0  0  0  0  0
    5.9140   -6.7629    0.8115 C   0  0  0  0  0  0  0  0  0  0  0  0
    5.9430   -5.9172    2.1025 C   0  0  0  0  0  0  0  0  0  0  0  0
    5.7417   -8.2269    1.2500 C   0  0  0  0  0  0  0  0  0  0  0  0
    7.4017   -7.4925   -1.1550 C   0  0  0  0  0  0  0  0  0  0  0  0
    6.3377   -7.0225   -2.1532 C   0  0  0  0  0  0  0  0  0  0  0  0
    4.9503   -4.9131   -2.4168 C   0  0  0  0  0  0  0  0  0  0  0  0
    2.8395   -3.0358   -0.3570 H   0  0  0  0  0  0  0  0  0  0  0  0
    2.6434   -1.7788    0.8775 H   0  0  0  0  0  0  0  0  0  0  0  0
    1.3557   -2.1246   -0.2956 H   0  0  0  0  0  0  0  0  0  0  0  0
    0.4621   -7.5307    2.2415 H   0  0  0  0  0  0  0  0  0  0  0  0
   -2.6955   -5.7256    4.4279 H   0  0  0  0  0  0  0  0  0  0  0  0
   -3.4076   -2.2111    4.9935 H   0  0  0  0  0  0  0  0  0  0  0  0
   -2.7452   -3.6335    5.8110 H   0  0  0  0  0  0  0  0  0  0  0  0
   -3.8395   -3.8055    4.3819 H   0  0  0  0  0  0  0  0  0  0  0  0
   -0.9863   -1.7162    2.5022 H   0  0  0  0  0  0  0  0  0  0  0  0
    0.1734   -1.2617    1.3189 H   0  0  0  0  0  0  0  0  0  0  0  0
    1.9409   -1.0452    3.1433 H   0  0  0  0  0  0  0  0  0  0  0  0
    0.7049   -1.2979    4.3618 H   0  0  0  0  0  0  0  0  0  0  0  0
    1.4286    2.1390    2.4668 H   0  0  0  0  0  0  0  0  0  0  0  0
    2.5213    1.1134    3.3692 H   0  0  0  0  0  0  0  0  0  0  0  0
    1.9441    3.3457    4.4433 H   0  0  0  0  0  0  0  0  0  0  0  0
    1.6443    1.9646    5.5071 H   0  0  0  0  0  0  0  0  0  0  0  0
   -1.9061    2.1393    5.0393 H   0  0  0  0  0  0  0  0  0  0  0  0
   -0.6004    1.2192    5.7999 H   0  0  0  0  0  0  0  0  0  0  0  0
   -1.4833   -0.0205    3.8561 H   0  0  0  0  0  0  0  0  0  0  0  0
   -1.3150    1.3893    2.8229 H   0  0  0  0  0  0  0  0  0  0  0  0
    4.0475   -4.4391    0.4124 H   0  0  0  0  0  0  0  0  0  0  0  0
    4.2760   -7.2303   -0.5894 H   0  0  0  0  0  0  0  0  0  0  0  0
    6.6629   -4.3531   -0.1094 H   0  0  0  0  0  0  0  0  0  0  0  0
    7.6935   -4.9149   -1.4452 H   0  0  0  0  0  0  0  0  0  0  0  0
    8.1248   -6.4460    0.6436 H   0  0  0  0  0  0  0  0  0  0  0  0
    6.0751   -4.8503    1.9076 H   0  0  0  0  0  0  0  0  0  0  0  0
    6.7788   -6.2312    2.7424 H   0  0  0  0  0  0  0  0  0  0  0  0
    5.0252   -6.0407    2.6857 H   0  0  0  0  0  0  0  0  0  0  0  0
    5.5981   -8.9076    0.4004 H   0  0  0  0  0  0  0  0  0  0  0  0
    4.8603   -8.3454    1.8910 H   0  0  0  0  0  0  0  0  0  0  0  0
    6.6188   -8.5756    1.8052 H   0  0  0  0  0  0  0  0  0  0  0  0
    7.2844   -8.5430   -0.8772 H   0  0  0  0  0  0  0  0  0  0  0  0
    8.4000   -7.3930   -1.5958 H   0  0  0  0  0  0  0  0  0  0  0  0
    6.8334   -6.7149   -3.0837 H   0  0  0  0  0  0  0  0  0  0  0  0
    5.6261   -7.8158   -2.4029 H   0  0  0  0  0  0  0  0  0  0  0  0
    4.0706   -5.4214   -2.8263 H   0  0  0  0  0  0  0  0  0  0  0  0
    5.5987   -4.6424   -3.2577 H   0  0  0  0  0  0  0  0  0  0  0  0
    4.6225   -3.9853   -1.9449 H   0  0  0  0  0  0  0  0  0  0  0  0
  1  6  1  0  0  0  0
  1  2  2  0  0  0  0
  1 22  1  0  0  0  0
  2  3  1  0  0  0  0
  2  4  1  0  0  0  0
  3 35  1  0  0  0  0
  3 36  1  0  0  0  0
  3 37  1  0  0  0  0
  4  5  1  0  0  0  0
  4 14  1  0  0  0  0
  5 10  2  0  0  0  0
  5  6  1  0  0  0  0
  6  7  2  0  0  0  0
  7  8  1  0  0  0  0
  7 38  1  0  0  0  0
  8  9  2  0  0  0  0
  8 13  1  0  0  0  0
  9 10  1  0  0  0  0
  9 39  1  0  0  0  0
 10 11  1  0  0  0  0
 11 12  1  0  0  0  0
 12 40  1  0  0  0  0
 12 41  1  0  0  0  0
 12 42  1  0  0  0  0
 14 15  1  0  0  0  0
 14 43  1  0  0  0  0
 14 44  1  0  0  0  0
 15 16  1  0  0  0  0
 15 45  1  0  0  0  0
 15 46  1  0  0  0  0
 16 21  1  0  0  0  0
 16 17  1  0  0  0  0
 17 18  1  0  0  0  0
 17 47  1  0  0  0  0
 17 48  1  0  0  0  0
 18 19  1  0  0  0  0
 18 49  1  0  0  0  0
 18 50  1  0  0  0  0
 19 20  1  0  0  0  0
 20 21  1  0  0  0  0
 20 51  1  0  0  0  0
 20 52  1  0  0  0  0
 21 53  1  0  0  0  0
 21 54  1  0  0  0  0
 22 23  2  0  0  0  0
 22 24  1  0  0  0  0
 24 55  1  0  0  0  0
 25 26  1  0  0  0  0
 25 29  1  0  0  0  0
 25 24  1  0  0  0  0
 25 56  1  6  0  0  0
 26 33  1  0  0  0  0
 26 27  1  0  0  0  0
 26 34  1  6  0  0  0
 27 57  1  0  0  0  0
 27 58  1  0  0  0  0
 28 27  1  0  0  0  0
 28 29  1  0  0  0  0
 28 32  1  0  0  0  0
 28 59  1  1  0  0  0
 29 30  1  0  0  0  0
 29 31  1  0  0  0  0
 30 60  1  0  0  0  0
 30 61  1  0  0  0  0
 30 62  1  0  0  0  0
 31 63  1  0  0  0  0
 31 64  1  0  0  0  0
 31 65  1  0  0  0  0
 32 33  1  0  0  0  0
 32 66  1  0  0  0  0
 32 67  1  0  0  0  0
 33 68  1  0  0  0  0
 33 69  1  0  0  0  0
 34 70  1  0  0  0  0
 34 71  1  0  0  0  0
 34 72  1  0  0  0  0
M  END
$$$$
CHEMBL2326297
 OpenBabel12022418093D

 61 63  0  0  0  0  0  0  0  0999 V2000
    2.2667   -0.4677    1.4634 O   0  0  0  0  0  0  0  0  0  0  0  0
    2.3564   -0.0303    0.0858 S   0  0  0  0  0  0  0  0  0  0  0  0
    2.9482    1.2614   -0.2197 O   0  0  0  0  0  0  0  0  0  0  0  0
    3.2065   -1.2189   -0.8231 N   0  0  0  0  0  0  0  0  0  0  0  0
    3.6048   -0.8933   -2.2354 C   0  0  0  0  0  0  0  0  0  0  0  0
    4.8904   -0.1237   -2.5194 C   0  0  0  0  0  0  0  0  0  0  0  0
    5.0319    0.5845   -3.7302 C   0  0  0  0  0  0  0  0  0  0  0  0
    6.2677    1.1448   -4.1408 C   0  0  0  0  0  0  0  0  0  0  0  0
    7.4314    0.9832   -3.3881 C   0  0  0  0  0  0  0  0  0  0  0  0
    8.7044    1.4059   -3.8052 N   0  0  0  0  0  0  0  0  0  0  0  0
    8.9284    2.4980   -4.7799 C   0  0  0  0  0  0  0  0  0  0  0  0
    8.5167    3.8967   -4.3392 C   0  0  0  0  0  0  0  0  0  0  0  0
    9.7021    0.3031   -3.9150 C   0  0  0  0  0  0  0  0  0  0  0  0
    9.7575   -0.3587   -5.2952 C   0  0  0  0  0  0  0  0  0  0  0  0
    7.2650    0.3098   -2.1556 C   0  0  0  0  0  0  0  0  0  0  0  0
    6.0308   -0.2364   -1.7274 C   0  0  0  0  0  0  0  0  0  0  0  0
    2.7091   -2.5572   -0.6256 C   0  0  0  0  0  0  0  0  0  0  0  0
    1.7626   -3.0915   -1.5059 C   0  0  0  0  0  0  0  0  0  0  0  0
    1.2679   -4.3766   -1.3255 C   0  0  0  0  0  0  0  0  0  0  0  0
    1.6985   -5.1546   -0.2477 C   0  0  0  0  0  0  0  0  0  0  0  0
    2.6210   -4.6123    0.6586 C   0  0  0  0  0  0  0  0  0  0  0  0
    3.1178   -3.3154    0.4800 C   0  0  0  0  0  0  0  0  0  0  0  0
    1.1953   -6.5550   -0.0763 C   0  0  0  0  0  0  0  0  0  0  0  0
    0.6593    0.0468   -0.5328 C   0  0  0  0  0  0  0  0  0  0  0  0
   -0.3764   -0.6646    0.0973 C   0  0  0  0  0  0  0  0  0  0  0  0
   -1.7168   -0.4043   -0.2476 C   0  0  0  0  0  0  0  0  0  0  0  0
   -2.0389    0.5882   -1.1748 C   0  0  0  0  0  0  0  0  0  0  0  0
   -3.3805    0.7924   -1.3933 O   0  0  0  0  0  0  0  0  0  0  0  0
   -3.7617    2.1124   -1.7760 C   0  0  0  0  0  0  0  0  0  0  0  0
   -1.0127    1.2862   -1.8037 C   0  0  0  0  0  0  0  0  0  0  0  0
    0.3277    1.0231   -1.4783 C   0  0  0  0  0  0  0  0  0  0  0  0
    2.7576   -0.4343   -2.7575 H   0  0  0  0  0  0  0  0  0  0  0  0
    3.7840   -1.8511   -2.7506 H   0  0  0  0  0  0  0  0  0  0  0  0
    4.1821    0.6798   -4.4042 H   0  0  0  0  0  0  0  0  0  0  0  0
    6.3029    1.6601   -5.0960 H   0  0  0  0  0  0  0  0  0  0  0  0
    8.4806    2.2619   -5.7497 H   0  0  0  0  0  0  0  0  0  0  0  0
   10.0123    2.5685   -4.9519 H   0  0  0  0  0  0  0  0  0  0  0  0
    7.4319    4.0221   -4.3048 H   0  0  0  0  0  0  0  0  0  0  0  0
    8.8994    4.6211   -5.0724 H   0  0  0  0  0  0  0  0  0  0  0  0
    8.9377    4.1752   -3.3680 H   0  0  0  0  0  0  0  0  0  0  0  0
    9.5402   -0.4790   -3.1660 H   0  0  0  0  0  0  0  0  0  0  0  0
   10.6944    0.7186   -3.7008 H   0  0  0  0  0  0  0  0  0  0  0  0
    8.7889   -0.7642   -5.6025 H   0  0  0  0  0  0  0  0  0  0  0  0
   10.4767   -1.1869   -5.2772 H   0  0  0  0  0  0  0  0  0  0  0  0
   10.0975    0.3356   -6.0717 H   0  0  0  0  0  0  0  0  0  0  0  0
    8.1207    0.1960   -1.4923 H   0  0  0  0  0  0  0  0  0  0  0  0
    5.9877   -0.7738   -0.7821 H   0  0  0  0  0  0  0  0  0  0  0  0
    1.4086   -2.5091   -2.3511 H   0  0  0  0  0  0  0  0  0  0  0  0
    0.5387   -4.7630   -2.0385 H   0  0  0  0  0  0  0  0  0  0  0  0
    2.9605   -5.2016    1.5103 H   0  0  0  0  0  0  0  0  0  0  0  0
    3.8240   -2.9083    1.1995 H   0  0  0  0  0  0  0  0  0  0  0  0
    0.4463   -6.8032   -0.8360 H   0  0  0  0  0  0  0  0  0  0  0  0
    0.7264   -6.6732    0.9088 H   0  0  0  0  0  0  0  0  0  0  0  0
    2.0226   -7.2651   -0.1765 H   0  0  0  0  0  0  0  0  0  0  0  0
   -0.1664   -1.3848    0.8882 H   0  0  0  0  0  0  0  0  0  0  0  0
   -2.5193   -0.9456    0.2528 H   0  0  0  0  0  0  0  0  0  0  0  0
   -4.8522    2.1888   -1.6779 H   0  0  0  0  0  0  0  0  0  0  0  0
   -3.5133    2.3109   -2.8230 H   0  0  0  0  0  0  0  0  0  0  0  0
   -3.3216    2.8717   -1.1191 H   0  0  0  0  0  0  0  0  0  0  0  0
   -1.2253    2.0598   -2.5361 H   0  0  0  0  0  0  0  0  0  0  0  0
    1.1077    1.6297   -1.9311 H   0  0  0  0  0  0  0  0  0  0  0  0
  1  2  2  0  0  0  0
  2  3  2  0  0  0  0
  2  4  1  0  0  0  0
  2 24  1  0  0  0  0
  4  5  1  0  0  0  0
  4 17  1  0  0  0  0
  5  6  1  0  0  0  0
  5 32  1  0  0  0  0
  5 33  1  0  0  0  0
  6 16  2  0  0  0  0
  6  7  1  0  0  0  0
  7  8  2  0  0  0  0
  7 34  1  0  0  0  0
  8  9  1  0  0  0  0
  8 35  1  0  0  0  0
  9 10  1  0  0  0  0
  9 15  2  0  0  0  0
 10 11  1  0  0  0  0
 10 13  1  0  0  0  0
 11 12  1  0  0  0  0
 11 36  1  0  0  0  0
 11 37  1  0  0  0  0
 12 38  1  0  0  0  0
 12 39  1  0  0  0  0
 12 40  1  0  0  0  0
 13 14  1  0  0  0  0
 13 41  1  0  0  0  0
 13 42  1  0  0  0  0
 14 43  1  0  0  0  0
 14 44  1  0  0  0  0
 14 45  1  0  0  0  0
 15 16  1  0  0  0  0
 15 46  1  0  0  0  0
 16 47  1  0  0  0  0
 17 22  2  0  0  0  0
 17 18  1  0  0  0  0
 18 19  2  0  0  0  0
 18 48  1  0  0  0  0
 19 20  1  0  0  0  0
 19 49  1  0  0  0  0
 20 21  2  0  0  0  0
 20 23  1  0  0  0  0
 21 22  1  0  0  0  0
 21 50  1  0  0  0  0
 22 51  1  0  0  0  0
 23 52  1  0  0  0  0
 23 53  1  0  0  0  0
 23 54  1  0  0  0  0
 24 31  2  0  0  0  0
 24 25  1  0  0  0  0
 25 26  2  0  0  0  0
 25 55  1  0  0  0  0
 26 27  1  0  0  0  0
 26 56  1  0  0  0  0
 27 28  1  0  0  0  0
 27 30  2  0  0  0  0
 28 29  1  0  0  0  0
 29 57  1  0  0  0  0
 29 58  1  0  0  0  0
 29 59  1  0  0  0  0
 30 31  1  0  0  0  0
 30 60  1  0  0  0  0
 31 61  1  0  0  0  0
M  END
$$$$
CHEMBL431363
 OpenBabel12022418093D

 72 76  0  0  1  0  0  0  0  0999 V2000
    1.8250   -0.5549   -3.3375 C   0  0  2  0  0  0  0  0  0  0  0  0
    0.4313   -1.1821   -3.1455 C   0  0  0  0  0  0  0  0  0  0  0  0
    0.2957   -1.2718   -1.6216 C   0  0  0  0  0  0  0  0  0  0  0  0
    1.6724   -0.7757   -1.1173 C   0  0  1  0  0  0  0  0  0  0  0  0
    2.0050   -1.3024    0.2676 C   0  0  0  0  0  0  0  0  0  0  0  0
    2.6032   -1.2734   -2.2280 C   0  0  0  0  0  0  0  0  0  0  0  0
    1.7106    0.7757   -1.3075 C   0  0  2  0  0  0  0  0  0  0  0  0
    1.8692    0.9357   -2.8659 C   0  0  0  0  0  0  0  0  0  0  0  0
    0.7432    1.7992   -3.4565 C   0  0  0  0  0  0  0  0  0  0  0  0
    3.1995    1.5721   -3.3261 C   0  0  0  0  0  0  0  0  0  0  0  0
    2.7588    1.4004   -0.5285 N   0  0  0  0  0  0  0  0  0  0  0  0
    2.7235    2.7203   -0.1455 C   0  0  0  0  0  0  0  0  0  0  0  0
    1.7990    3.4647   -0.4450 O   0  0  0  0  0  0  0  0  0  0  0  0
    3.8752    3.1444    0.6536 C   0  0  0  0  0  0  0  0  0  0  0  0
    3.8435    4.1000    1.6610 C   0  0  0  0  0  0  0  0  0  0  0  0
    2.6632    4.8722    2.1561 C   0  0  0  0  0  0  0  0  0  0  0  0
    5.1340    4.2578    2.1581 N   0  0  0  0  0  0  0  0  0  0  0  0
    5.5300    5.2950    3.1010 C   0  0  0  0  0  0  0  0  0  0  0  0
    4.9207    5.3262    4.5232 C   0  0  0  0  0  0  0  0  0  0  0  0
    5.0467    4.1367    5.3895 N   0  0  0  0  0  0  0  0  0  0  0  0
    6.4479    3.7451    5.6578 C   0  0  0  0  0  0  0  0  0  0  0  0
    7.2016    4.7200    6.5789 C   0  0  0  0  0  0  0  0  0  0  0  0
    6.5198    4.8962    7.8279 O   0  0  0  0  0  0  0  0  0  0  0  0
    5.1738    5.3426    7.6188 C   0  0  0  0  0  0  0  0  0  0  0  0
    4.3963    4.3755    6.7044 C   0  0  0  0  0  0  0  0  0  0  0  0
    6.0216    3.4593    1.4244 C   0  0  0  0  0  0  0  0  0  0  0  0
    7.4421    3.3294    1.4316 C   0  0  0  0  0  0  0  0  0  0  0  0
    8.0219    2.4028    0.5418 C   0  0  0  0  0  0  0  0  0  0  0  0
    7.2603    1.6568   -0.3391 C   0  0  0  0  0  0  0  0  0  0  0  0
    5.8837    1.8274   -0.3684 C   0  0  0  0  0  0  0  0  0  0  0  0
    5.2442    2.7318    0.5130 C   0  0  0  0  0  0  0  0  0  0  0  0
    8.1911    4.1074    2.2798 O   0  0  0  0  0  0  0  0  0  0  0  0
    9.6082    4.0146    2.1713 C   0  0  0  0  0  0  0  0  0  0  0  0
    2.2231   -0.7123   -4.3436 H   0  0  0  0  0  0  0  0  0  0  0  0
    0.4120   -2.1915   -3.5741 H   0  0  0  0  0  0  0  0  0  0  0  0
   -0.3818   -0.6224   -3.6107 H   0  0  0  0  0  0  0  0  0  0  0  0
    0.0987   -2.3074   -1.3224 H   0  0  0  0  0  0  0  0  0  0  0  0
   -0.5293   -0.6548   -1.2482 H   0  0  0  0  0  0  0  0  0  0  0  0
    1.9224   -2.3944    0.3008 H   0  0  0  0  0  0  0  0  0  0  0  0
    1.3220   -0.8913    1.0191 H   0  0  0  0  0  0  0  0  0  0  0  0
    3.0284   -1.0591    0.5676 H   0  0  0  0  0  0  0  0  0  0  0  0
    3.6380   -0.9400   -2.1119 H   0  0  0  0  0  0  0  0  0  0  0  0
    2.5975   -2.3642   -2.3390 H   0  0  0  0  0  0  0  0  0  0  0  0
    0.7616    1.2104   -0.9681 H   0  0  0  0  0  0  0  0  0  0  0  0
   -0.2497    1.4805   -3.1253 H   0  0  0  0  0  0  0  0  0  0  0  0
    0.7599    1.7668   -4.5519 H   0  0  0  0  0  0  0  0  0  0  0  0
    0.8541    2.8452   -3.1513 H   0  0  0  0  0  0  0  0  0  0  0  0
    4.0756    1.0275   -2.9684 H   0  0  0  0  0  0  0  0  0  0  0  0
    3.2870    2.6111   -2.9897 H   0  0  0  0  0  0  0  0  0  0  0  0
    3.2614    1.5827   -4.4215 H   0  0  0  0  0  0  0  0  0  0  0  0
    3.5056    0.8308   -0.1610 H   0  0  0  0  0  0  0  0  0  0  0  0
    1.7305    4.5672    1.6724 H   0  0  0  0  0  0  0  0  0  0  0  0
    2.7950    5.9431    1.9659 H   0  0  0  0  0  0  0  0  0  0  0  0
    2.4970    4.7038    3.2225 H   0  0  0  0  0  0  0  0  0  0  0  0
    5.2891    6.2438    2.6048 H   0  0  0  0  0  0  0  0  0  0  0  0
    6.6092    5.2967    3.2127 H   0  0  0  0  0  0  0  0  0  0  0  0
    3.8589    5.5732    4.4437 H   0  0  0  0  0  0  0  0  0  0  0  0
    5.3640    6.2007    5.0148 H   0  0  0  0  0  0  0  0  0  0  0  0
    7.0027    3.5930    4.7247 H   0  0  0  0  0  0  0  0  0  0  0  0
    6.4208    2.7620    6.1511 H   0  0  0  0  0  0  0  0  0  0  0  0
    7.3433    5.6978    6.1046 H   0  0  0  0  0  0  0  0  0  0  0  0
    8.1956    4.3197    6.8042 H   0  0  0  0  0  0  0  0  0  0  0  0
    5.1935    6.3606    7.2141 H   0  0  0  0  0  0  0  0  0  0  0  0
    4.6884    5.3969    8.5984 H   0  0  0  0  0  0  0  0  0  0  0  0
    4.3184    3.4062    7.2149 H   0  0  0  0  0  0  0  0  0  0  0  0
    3.3683    4.7299    6.5664 H   0  0  0  0  0  0  0  0  0  0  0  0
    9.0965    2.2498    0.5027 H   0  0  0  0  0  0  0  0  0  0  0  0
    7.7344    0.9596   -1.0219 H   0  0  0  0  0  0  0  0  0  0  0  0
    5.3208    1.2702   -1.1093 H   0  0  0  0  0  0  0  0  0  0  0  0
   10.0463    4.7433    2.8614 H   0  0  0  0  0  0  0  0  0  0  0  0
    9.9529    4.2710    1.1621 H   0  0  0  0  0  0  0  0  0  0  0  0
    9.9547    3.0225    2.4715 H   0  0  0  0  0  0  0  0  0  0  0  0
  1  2  1  0  0  0  0
  1  6  1  0  0  0  0
  1  8  1  0  0  0  0
  1 34  1  6  0  0  0
  2  3  1  0  0  0  0
  2 35  1  0  0  0  0
  2 36  1  0  0  0  0
  3  4  1  0  0  0  0
  3 37  1  0  0  0  0
  3 38  1  0  0  0  0
  4  5  1  1  0  0  0
  4  6  1  0  0  0  0
  4  7  1  0  0  0  0
  5 39  1  0  0  0  0
  5 40  1  0  0  0  0
  5 41  1  0  0  0  0
  6 42  1  0  0  0  0
  6 43  1  0  0  0  0
  7  8  1  0  0  0  0
  7 11  1  0  0  0  0
  7 44  1  1  0  0  0
  8  9  1  0  0  0  0
  8 10  1  0  0  0  0
  9 45  1  0  0  0  0
  9 46  1  0  0  0  0
  9 47  1  0  0  0  0
 10 48  1  0  0  0  0
 10 49  1  0  0  0  0
 10 50  1  0  0  0  0
 11 12  1  0  0  0  0
 11 51  1  0  0  0  0
 12 13  2  0  0  0  0
 12 14  1  0  0  0  0
 14 31  1  0  0  0  0
 14 15  2  0  0  0  0
 15 16  1  0  0  0  0
 15 17  1  0  0  0  0
 16 52  1  0  0  0  0
 16 53  1  0  0  0  0
 16 54  1  0  0  0  0
 17 18  1  0  0  0  0
 17 26  1  0  0  0  0
 18 19  1  0  0  0  0
 18 55  1  0  0  0  0
 18 56  1  0  0  0  0
 19 20  1  0  0  0  0
 19 57  1  0  0  0  0
 19 58  1  0  0  0  0
 20 25  1  0  0  0  0
 20 21  1  0  0  0  0
 21 22  1  0  0  0  0
 21 59  1  0  0  0  0
 21 60  1  0  0  0  0
 22 23  1  0  0  0  0
 22 61  1  0  0  0  0
 22 62  1  0  0  0  0
 23 24  1  0  0  0  0
 24 25  1  0  0  0  0
 24 63  1  0  0  0  0
 24 64  1  0  0  0  0
 25 65  1  0  0  0  0
 25 66  1  0  0  0  0
 26 31  2  0  0  0  0
 26 27  1  0  0  0  0
 27 28  2  0  0  0  0
 27 32  1  0  0  0  0
 28 29  1  0  0  0  0
 28 67  1  0  0  0  0
 29 30  2  0  0  0  0
 29 68  1  0  0  0  0
 30 31  1  0  0  0  0
 30 69  1  0  0  0  0
 32 33  1  0  0  0  0
 33 70  1  0  0  0  0
 33 71  1  0  0  0  0
 33 72  1  0  0  0  0
M  END
$$$$
CHEMBL1629731
 OpenBabel12022418093D

 49 51  0  0  0  0  0  0  0  0999 V2000
    3.0068    0.2174   -0.9730 C   0  0  0  0  0  0  0  0  0  0  0  0
    2.6109   -1.2533   -1.0313 C   0  0  0  0  0  0  0  0  0  0  0  0
    3.2942   -2.1636    0.0289 C   0  0  0  0  0  0  0  0  0  0  0  0
    2.8837   -1.7099    1.4434 C   0  0  0  0  0  0  0  0  0  0  0  0
    2.7705   -3.6053   -0.1545 C   0  0  0  0  0  0  0  0  0  0  0  0
    4.7630   -2.1372   -0.0794 N   0  0  0  0  0  0  0  0  0  0  0  0
    5.4740   -2.4856   -1.2133 C   0  0  0  0  0  0  0  0  0  0  0  0
    4.9200   -2.7939   -2.2681 O   0  0  0  0  0  0  0  0  0  0  0  0
    6.9540   -2.4726   -1.0768 C   0  0  0  0  0  0  0  0  0  0  0  0
    7.9188   -2.8756   -2.0518 C   0  0  0  0  0  0  0  0  0  0  0  0
    9.1467   -2.7200   -1.4179 C   0  0  0  0  0  0  0  0  0  0  0  0
    8.8861   -2.2380   -0.1388 N   0  0  0  0  0  0  0  0  0  0  0  0
    9.7984   -1.7875    0.8677 C   0  0  0  0  0  0  0  0  0  0  0  0
   10.9936   -1.1449    0.4820 C   0  0  0  0  0  0  0  0  0  0  0  0
   11.9783   -0.8376    1.4239 C   0  0  0  0  0  0  0  0  0  0  0  0
   11.7544   -1.1126    2.7685 C   0  0  0  0  0  0  0  0  0  0  0  0
   10.5471   -1.6686    3.1797 C   0  0  0  0  0  0  0  0  0  0  0  0
    9.5627   -2.0076    2.2378 C   0  0  0  0  0  0  0  0  0  0  0  0
    8.1726   -2.8170    2.8790 Cl  0  0  0  0  0  0  0  0  0  0  0  0
   12.9849   -0.7854    3.9243 Cl  0  0  0  0  0  0  0  0  0  0  0  0
    7.5472   -2.0930    0.0695 N   0  0  0  0  0  0  0  0  0  0  0  0
   10.4015   -3.0935   -1.9254 N   0  0  0  0  0  0  0  0  0  0  0  0
   10.7918   -3.0623   -3.2542 C   0  0  0  0  0  0  0  0  0  0  0  0
   12.1055   -3.4594   -3.3677 C   0  0  0  0  0  0  0  0  0  0  0  0
   12.5529   -3.7749   -2.0738 C   0  0  0  0  0  0  0  0  0  0  0  0
   11.4852   -3.5871   -1.2210 C   0  0  0  0  0  0  0  0  0  0  0  0
    7.6392   -3.4684   -3.3904 C   0  0  0  0  0  0  0  0  0  0  0  0
    2.5351    0.7607   -1.7972 H   0  0  0  0  0  0  0  0  0  0  0  0
    4.0890    0.3481   -1.0619 H   0  0  0  0  0  0  0  0  0  0  0  0
    2.6730    0.6860   -0.0416 H   0  0  0  0  0  0  0  0  0  0  0  0
    2.8223   -1.6191   -2.0425 H   0  0  0  0  0  0  0  0  0  0  0  0
    1.5202   -1.3176   -0.9195 H   0  0  0  0  0  0  0  0  0  0  0  0
    1.7930   -1.7178    1.5591 H   0  0  0  0  0  0  0  0  0  0  0  0
    3.2403   -0.7009    1.6705 H   0  0  0  0  0  0  0  0  0  0  0  0
    3.3021   -2.3751    2.2087 H   0  0  0  0  0  0  0  0  0  0  0  0
    1.6820   -3.6487   -0.0267 H   0  0  0  0  0  0  0  0  0  0  0  0
    3.2206   -4.2853    0.5764 H   0  0  0  0  0  0  0  0  0  0  0  0
    2.9941   -4.0015   -1.1501 H   0  0  0  0  0  0  0  0  0  0  0  0
    5.3386   -1.9435    0.7371 H   0  0  0  0  0  0  0  0  0  0  0  0
   11.1922   -0.8902   -0.5585 H   0  0  0  0  0  0  0  0  0  0  0  0
   12.9205   -0.4013    1.1000 H   0  0  0  0  0  0  0  0  0  0  0  0
   10.3834   -1.8741    4.2343 H   0  0  0  0  0  0  0  0  0  0  0  0
   10.1260   -2.7053   -4.0223 H   0  0  0  0  0  0  0  0  0  0  0  0
   12.6738   -3.5104   -4.2880 H   0  0  0  0  0  0  0  0  0  0  0  0
   13.5390   -4.1272   -1.7872 H   0  0  0  0  0  0  0  0  0  0  0  0
   11.4193   -3.7857   -0.1582 H   0  0  0  0  0  0  0  0  0  0  0  0
    6.5820   -3.6711   -3.5654 H   0  0  0  0  0  0  0  0  0  0  0  0
    8.1541   -4.4287   -3.4920 H   0  0  0  0  0  0  0  0  0  0  0  0
    7.9685   -2.7980   -4.1897 H   0  0  0  0  0  0  0  0  0  0  0  0
  1  2  1  0  0  0  0
  1 28  1  0  0  0  0
  1 29  1  0  0  0  0
  1 30  1  0  0  0  0
  2  3  1  0  0  0  0
  2 31  1  0  0  0  0
  2 32  1  0  0  0  0
  3  4  1  0  0  0  0
  3  5  1  0  0  0  0
  3  6  1  0  0  0  0
  4 33  1  0  0  0  0
  4 34  1  0  0  0  0
  4 35  1  0  0  0  0
  5 36  1  0  0  0  0
  5 37  1  0  0  0  0
  5 38  1  0  0  0  0
  6  7  1  0  0  0  0
  6 39  1  0  0  0  0
  7  8  2  0  0  0  0
  7  9  1  0  0  0  0
  9 21  2  0  0  0  0
  9 10  1  0  0  0  0
 10 11  2  0  0  0  0
 10 27  1  0  0  0  0
 11 12  1  0  0  0  0
 11 22  1  0  0  0  0
 12 13  1  0  0  0  0
 12 21  1  0  0  0  0
 13 18  2  0  0  0  0
 13 14  1  0  0  0  0
 14 15  2  0  0  0  0
 14 40  1  0  0  0  0
 15 16  1  0  0  0  0
 15 41  1  0  0  0  0
 16 17  2  0  0  0  0
 16 20  1  0  0  0  0
 17 18  1  0  0  0  0
 17 42  1  0  0  0  0
 18 19  1  0  0  0  0
 22 26  1  0  0  0  0
 22 23  1  0  0  0  0
 23 24  2  0  0  0  0
 23 43  1  0  0  0  0
 24 25  1  0  0  0  0
 24 44  1  0  0  0  0
 25 26  2  0  0  0  0
 25 45  1  0  0  0  0
 26 46  1  0  0  0  0
 27 47  1  0  0  0  0
 27 48  1  0  0  0  0
 27 49  1  0  0  0  0
M  END
$$$$
CHEMBL4089773
 OpenBabel12022418093D

 52 53  0  0  0  0  0  0  0  0999 V2000
   -2.5251    0.7672    0.0270 C   0  0  0  0  0  0  0  0  0  0  0  0
   -2.5534   -0.6191    0.0975 C   0  0  0  0  0  0  0  0  0  0  0  0
   -1.3649   -1.3745    0.1734 C   0  0  0  0  0  0  0  0  0  0  0  0
   -0.0983   -0.7422    0.1343 C   0  0  0  0  0  0  0  0  0  0  0  0
   -0.1143    0.6664    0.1675 C   0  0  0  0  0  0  0  0  0  0  0  0
   -1.3037    1.4126    0.0980 C   0  0  0  0  0  0  0  0  0  0  0  0
    1.1536    1.4113    0.2878 C   0  0  0  0  0  0  0  0  0  0  0  0
    1.1253    2.6159    0.5297 O   0  0  0  0  0  0  0  0  0  0  0  0
    2.3052    0.6913    0.0752 N   0  0  0  0  0  0  0  0  0  0  0  0
    2.2632   -0.5691   -0.4690 C   0  0  0  0  0  0  0  0  0  0  0  0
    3.1349   -0.9451   -1.2485 O   0  0  0  0  0  0  0  0  0  0  0  0
    1.1939   -1.3741   -0.0432 N   0  0  0  0  0  0  0  0  0  0  0  0
    1.3143   -2.8380   -0.1733 C   0  0  0  0  0  0  0  0  0  0  0  0
    2.7363   -3.4179   -0.2421 C   0  0  0  0  0  0  0  0  0  0  0  0
    2.7632   -4.9422   -0.3182 C   0  0  0  0  0  0  0  0  0  0  0  0
    4.2108   -5.4146   -0.4849 C   0  0  0  0  0  0  0  0  0  0  0  0
    4.3061   -6.9202   -0.6345 C   0  0  0  0  0  0  0  0  0  0  0  0
    3.5715    1.4165   -0.0362 C   0  0  0  0  0  0  0  0  0  0  0  0
    4.6305    1.0680    1.0204 C   0  0  0  0  0  0  0  0  0  0  0  0
    5.7431    1.5934    0.9615 O   0  0  0  0  0  0  0  0  0  0  0  0
    4.2759    0.1795    2.0151 N   0  0  0  0  0  0  0  0  0  0  0  0
    5.1779   -0.2458    3.1065 C   0  0  0  0  0  0  0  0  0  0  0  0
    5.5649    0.9452    4.0002 C   0  0  0  0  0  0  0  0  0  0  0  0
    4.4449   -1.2814    3.9808 C   0  0  0  0  0  0  0  0  0  0  0  0
    6.4486   -0.9190    2.5548 C   0  0  0  0  0  0  0  0  0  0  0  0
   -1.6533   -3.0771    0.3027 Cl  0  0  0  0  0  0  0  0  0  0  0  0
   -3.4466    1.3364   -0.0640 H   0  0  0  0  0  0  0  0  0  0  0  0
   -3.5210   -1.1202    0.0768 H   0  0  0  0  0  0  0  0  0  0  0  0
   -1.2716    2.5021    0.0780 H   0  0  0  0  0  0  0  0  0  0  0  0
    0.7588   -3.1483   -1.0632 H   0  0  0  0  0  0  0  0  0  0  0  0
    0.8732   -3.2678    0.7317 H   0  0  0  0  0  0  0  0  0  0  0  0
    3.3234   -3.0709    0.6172 H   0  0  0  0  0  0  0  0  0  0  0  0
    3.2389   -3.0771   -1.1498 H   0  0  0  0  0  0  0  0  0  0  0  0
    2.1666   -5.2753   -1.1761 H   0  0  0  0  0  0  0  0  0  0  0  0
    2.3194   -5.3784    0.5835 H   0  0  0  0  0  0  0  0  0  0  0  0
    4.8050   -5.0950    0.3791 H   0  0  0  0  0  0  0  0  0  0  0  0
    4.6556   -4.9429   -1.3704 H   0  0  0  0  0  0  0  0  0  0  0  0
    3.8911   -7.4277    0.2411 H   0  0  0  0  0  0  0  0  0  0  0  0
    5.3535   -7.2199   -0.7403 H   0  0  0  0  0  0  0  0  0  0  0  0
    3.7648   -7.2595   -1.5232 H   0  0  0  0  0  0  0  0  0  0  0  0
    3.4062    2.4947    0.0257 H   0  0  0  0  0  0  0  0  0  0  0  0
    4.0213    1.2104   -1.0159 H   0  0  0  0  0  0  0  0  0  0  0  0
    3.3057   -0.1034    2.0639 H   0  0  0  0  0  0  0  0  0  0  0  0
    4.6808    1.3812    4.4794 H   0  0  0  0  0  0  0  0  0  0  0  0
    6.0564    1.7439    3.4368 H   0  0  0  0  0  0  0  0  0  0  0  0
    6.2563    0.6357    4.7927 H   0  0  0  0  0  0  0  0  0  0  0  0
    3.5184   -0.8681    4.3952 H   0  0  0  0  0  0  0  0  0  0  0  0
    5.0707   -1.6067    4.8209 H   0  0  0  0  0  0  0  0  0  0  0  0
    4.1757   -2.1716    3.4004 H   0  0  0  0  0  0  0  0  0  0  0  0
    7.0471   -0.2397    1.9413 H   0  0  0  0  0  0  0  0  0  0  0  0
    6.1963   -1.7859    1.9332 H   0  0  0  0  0  0  0  0  0  0  0  0
    7.0946   -1.2678    3.3691 H   0  0  0  0  0  0  0  0  0  0  0  0
  1  6  2  0  0  0  0
  1  2  1  0  0  0  0
  1 27  1  0  0  0  0
  2  3  2  0  0  0  0
  2 28  1  0  0  0  0
  3  4  1  0  0  0  0
  3 26  1  0  0  0  0
  4 12  1  0  0  0  0
  4  5  2  0  0  0  0
  5  6  1  0  0  0  0
  5  7  1  0  0  0  0
  6 29  1  0  0  0  0
  7  8  2  0  0  0  0
  7  9  1  0  0  0  0
  9 10  1  0  0  0  0
  9 18  1  0  0  0  0
 10 11  2  0  0  0  0
 10 12  1  0  0  0  0
 12 13  1  0  0  0  0
 13 14  1  0  0  0  0
 13 30  1  0  0  0  0
 13 31  1  0  0  0  0
 14 15  1  0  0  0  0
 14 32  1  0  0  0  0
 14 33  1  0  0  0  0
 15 16  1  0  0  0  0
 15 34  1  0  0  0  0
 15 35  1  0  0  0  0
 16 17  1  0  0  0  0
 16 36  1  0  0  0  0
 16 37  1  0  0  0  0
 17 38  1  0  0  0  0
 17 39  1  0  0  0  0
 17 40  1  0  0  0  0
 18 19  1  0  0  0  0
 18 41  1  0  0  0  0
 18 42  1  0  0  0  0
 19 20  2  0  0  0  0
 19 21  1  0  0  0  0
 21 22  1  0  0  0  0
 21 43  1  0  0  0  0
 22 23  1  0  0  0  0
 22 24  1  0  0  0  0
 22 25  1  0  0  0  0
 23 44  1  0  0  0  0
 23 45  1  0  0  0  0
 23 46  1  0  0  0  0
 24 47  1  0  0  0  0
 24 48  1  0  0  0  0
 24 49  1  0  0  0  0
 25 50  1  0  0  0  0
 25 51  1  0  0  0  0
 25 52  1  0  0  0  0
M  END
$$$$
CHEMBL1800174
 OpenBabel12022418093D

 44 47  0  0  0  0  0  0  0  0999 V2000
    1.1549   -2.5158   -1.0007 C   0  0  0  0  0  0  0  0  0  0  0  0
    2.6502   -2.4629   -0.7560 C   0  0  0  0  0  0  0  0  0  0  0  0
    3.0446   -1.6692    0.7965 S   0  0  0  0  0  0  0  0  0  0  0  0
    2.4948   -0.3250    0.7563 O   0  0  0  0  0  0  0  0  0  0  0  0
    2.7146   -2.5766    1.8772 O   0  0  0  0  0  0  0  0  0  0  0  0
    4.8159   -1.5131    0.7744 C   0  0  0  0  0  0  0  0  0  0  0  0
    5.4094   -0.2500    0.8624 C   0  0  0  0  0  0  0  0  0  0  0  0
    6.8050   -0.1086    0.8442 C   0  0  0  0  0  0  0  0  0  0  0  0
    7.5721   -1.2782    0.7266 C   0  0  0  0  0  0  0  0  0  0  0  0
    6.9830   -2.5331    0.6265 C   0  0  0  0  0  0  0  0  0  0  0  0
    5.5891   -2.6731    0.6707 C   0  0  0  0  0  0  0  0  0  0  0  0
    7.9293   -3.5017    0.4961 N   0  0  0  0  0  0  0  0  0  0  0  0
    9.1041   -2.9057    0.6011 C   0  0  0  0  0  0  0  0  0  0  0  0
   10.3674   -3.8071    0.6273 C   0  0  0  0  0  0  0  0  0  0  0  0
   10.1452   -5.2082    0.0962 C   0  0  0  0  0  0  0  0  0  0  0  0
   11.7748   -3.2615    0.5085 C   0  0  0  0  0  0  0  0  0  0  0  0
   11.2664   -3.6756    1.8490 C   0  0  0  0  0  0  0  0  0  0  0  0
    8.9370   -1.5366    0.7019 N   0  0  0  0  0  0  0  0  0  0  0  0
    9.9627   -0.5148    0.8680 C   0  0  0  0  0  0  0  0  0  0  0  0
   10.7008   -0.0657   -0.3657 C   0  0  0  0  0  0  0  0  0  0  0  0
   10.5959   -0.7015   -1.7346 C   0  0  0  0  0  0  0  0  0  0  0  0
    9.9917    0.6525   -1.4885 C   0  0  0  0  0  0  0  0  0  0  0  0
    0.9440   -3.0241   -1.9470 H   0  0  0  0  0  0  0  0  0  0  0  0
    0.7257   -1.5098   -1.0545 H   0  0  0  0  0  0  0  0  0  0  0  0
    0.6400   -3.0563   -0.2005 H   0  0  0  0  0  0  0  0  0  0  0  0
    3.1409   -1.8912   -1.5513 H   0  0  0  0  0  0  0  0  0  0  0  0
    3.0635   -3.4732   -0.7288 H   0  0  0  0  0  0  0  0  0  0  0  0
    4.7915    0.6422    0.9587 H   0  0  0  0  0  0  0  0  0  0  0  0
    7.2592    0.8736    0.9238 H   0  0  0  0  0  0  0  0  0  0  0  0
    5.1486   -3.6639    0.6411 H   0  0  0  0  0  0  0  0  0  0  0  0
    9.3070   -5.6988    0.6015 H   0  0  0  0  0  0  0  0  0  0  0  0
   11.0276   -5.8430    0.2297 H   0  0  0  0  0  0  0  0  0  0  0  0
    9.9277   -5.1644   -0.9770 H   0  0  0  0  0  0  0  0  0  0  0  0
   11.9732   -2.2167    0.3429 H   0  0  0  0  0  0  0  0  0  0  0  0
   12.5264   -3.8906    0.0394 H   0  0  0  0  0  0  0  0  0  0  0  0
   11.6643   -4.5854    2.2892 H   0  0  0  0  0  0  0  0  0  0  0  0
   11.0425   -2.9178    2.5892 H   0  0  0  0  0  0  0  0  0  0  0  0
   10.6701   -0.8887    1.6119 H   0  0  0  0  0  0  0  0  0  0  0  0
    9.4982    0.3615    1.3329 H   0  0  0  0  0  0  0  0  0  0  0  0
   11.6719    0.3366   -0.0864 H   0  0  0  0  0  0  0  0  0  0  0  0
    9.9206   -1.5291   -1.9069 H   0  0  0  0  0  0  0  0  0  0  0  0
   11.4975   -0.7470   -2.3411 H   0  0  0  0  0  0  0  0  0  0  0  0
   10.4829    1.5146   -1.9278 H   0  0  0  0  0  0  0  0  0  0  0  0
    8.9106    0.7206   -1.4806 H   0  0  0  0  0  0  0  0  0  0  0  0
  1  2  1  0  0  0  0
  1 23  1  0  0  0  0
  1 24  1  0  0  0  0
  1 25  1  0  0  0  0
  2  3  1  0  0  0  0
  2 26  1  0  0  0  0
  2 27  1  0  0  0  0
  3  4  2  0  0  0  0
  3  5  2  0  0  0  0
  3  6  1  0  0  0  0
  6 11  2  0  0  0  0
  6  7  1  0  0  0  0
  7  8  2  0  0  0  0
  7 28  1  0  0  0  0
  8  9  1  0  0  0  0
  8 29  1  0  0  0  0
  9 18  1  0  0  0  0
  9 10  2  0  0  0  0
 10 11  1  0  0  0  0
 10 12  1  0  0  0  0
 11 30  1  0  0  0  0
 12 13  2  0  0  0  0
 13 14  1  0  0  0  0
 13 18  1  0  0  0  0
 14 17  1  0  0  0  0
 14 15  1  0  0  0  0
 14 16  1  0  0  0  0
 15 31  1  0  0  0  0
 15 32  1  0  0  0  0
 15 33  1  0  0  0  0
 16 17  1  0  0  0  0
 16 34  1  0  0  0  0
 16 35  1  0  0  0  0
 17 36  1  0  0  0  0
 17 37  1  0  0  0  0
 18 19  1  0  0  0  0
 19 20  1  0  0  0  0
 19 38  1  0  0  0  0
 19 39  1  0  0  0  0
 20 22  1  0  0  0  0
 20 21  1  0  0  0  0
 20 40  1  0  0  0  0
 21 22  1  0  0  0  0
 21 41  1  0  0  0  0
 21 42  1  0  0  0  0
 22 43  1  0  0  0  0
 22 44  1  0  0  0  0
M  END
$$$$
CHEMBL460754
 OpenBabel12022418093D

 39 41  0  0  0  0  0  0  0  0999 V2000
    3.0309   -1.0474    0.5538 C   0  0  0  0  0  0  0  0  0  0  0  0
    2.3346    0.1392    0.1860 O   0  0  0  0  0  0  0  0  0  0  0  0
    3.0810    1.2845    0.0236 C   0  0  0  0  0  0  0  0  0  0  0  0
    4.4819    1.2431   -0.0918 C   0  0  0  0  0  0  0  0  0  0  0  0
    5.2329    2.4146   -0.1961 C   0  0  0  0  0  0  0  0  0  0  0  0
    6.7139    2.3008   -0.2583 C   0  0  0  0  0  0  0  0  0  0  0  0
    7.2137    1.3047   -0.7707 O   0  0  0  0  0  0  0  0  0  0  0  0
    7.5956    3.3618    0.2852 C   0  0  0  0  0  0  0  0  0  0  0  0
    8.8157    3.6004   -0.3586 C   0  0  0  0  0  0  0  0  0  0  0  0
    9.6628    4.6070    0.1047 C   0  0  0  0  0  0  0  0  0  0  0  0
    9.2975    5.3705    1.2129 C   0  0  0  0  0  0  0  0  0  0  0  0
    8.0957    5.1130    1.8759 C   0  0  0  0  0  0  0  0  0  0  0  0
    7.2488    4.1020    1.4228 C   0  0  0  0  0  0  0  0  0  0  0  0
    4.5829    3.6415   -0.2710 C   0  0  0  0  0  0  0  0  0  0  0  0
    3.1888    3.6886   -0.1855 C   0  0  0  0  0  0  0  0  0  0  0  0
    2.3886    2.5277   -0.0201 C   0  0  0  0  0  0  0  0  0  0  0  0
    0.8988    2.6397    0.1200 C   0  0  0  0  0  0  0  0  0  0  0  0
    0.0079    1.7411   -0.4973 C   0  0  0  0  0  0  0  0  0  0  0  0
   -1.3792    1.8876   -0.3704 C   0  0  0  0  0  0  0  0  0  0  0  0
   -1.9259    2.9479    0.3421 C   0  0  0  0  0  0  0  0  0  0  0  0
   -1.0693    3.8497    0.9542 C   0  0  0  0  0  0  0  0  0  0  0  0
    0.3152    3.6845    0.8685 C   0  0  0  0  0  0  0  0  0  0  0  0
   -1.7143    5.1946    1.8151 Cl  0  0  0  0  0  0  0  0  0  0  0  0
   -2.4304    0.7433   -1.1148 Cl  0  0  0  0  0  0  0  0  0  0  0  0
    2.5974    4.9252   -0.2816 O   0  0  0  0  0  0  0  0  0  0  0  0
    2.2918   -1.8314    0.7423 H   0  0  0  0  0  0  0  0  0  0  0  0
    3.6009   -0.8967    1.4781 H   0  0  0  0  0  0  0  0  0  0  0  0
    3.6795   -1.4016   -0.2556 H   0  0  0  0  0  0  0  0  0  0  0  0
    5.0234    0.3002   -0.0974 H   0  0  0  0  0  0  0  0  0  0  0  0
    9.1059    3.0039   -1.2209 H   0  0  0  0  0  0  0  0  0  0  0  0
   10.6075    4.7945   -0.3998 H   0  0  0  0  0  0  0  0  0  0  0  0
    9.9574    6.1590    1.5695 H   0  0  0  0  0  0  0  0  0  0  0  0
    7.8263    5.6992    2.7519 H   0  0  0  0  0  0  0  0  0  0  0  0
    6.3346    3.8957    1.9742 H   0  0  0  0  0  0  0  0  0  0  0  0
    5.1511    4.5534   -0.4121 H   0  0  0  0  0  0  0  0  0  0  0  0
    0.3903    0.9136   -1.0907 H   0  0  0  0  0  0  0  0  0  0  0  0
   -3.0022    3.0712    0.4174 H   0  0  0  0  0  0  0  0  0  0  0  0
    0.9489    4.4047    1.3815 H   0  0  0  0  0  0  0  0  0  0  0  0
    3.2720    5.6232   -0.2746 H   0  0  0  0  0  0  0  0  0  0  0  0
  1  2  1  0  0  0  0
  1 26  1  0  0  0  0
  1 27  1  0  0  0  0
  1 28  1  0  0  0  0
  2  3  1  0  0  0  0
  3 16  2  0  0  0  0
  3  4  1  0  0  0  0
  4  5  2  0  0  0  0
  4 29  1  0  0  0  0
  5  6  1  0  0  0  0
  5 14  1  0  0  0  0
  6  7  2  0  0  0  0
  6  8  1  0  0  0  0
  8 13  2  0  0  0  0
  8  9  1  0  0  0  0
  9 10  2  0  0  0  0
  9 30  1  0  0  0  0
 10 11  1  0  0  0  0
 10 31  1  0  0  0  0
 11 12  2  0  0  0  0
 11 32  1  0  0  0  0
 12 13  1  0  0  0  0
 12 33  1  0  0  0  0
 13 34  1  0  0  0  0
 14 15  2  0  0  0  0
 14 35  1  0  0  0  0
 15 16  1  0  0  0  0
 15 25  1  0  0  0  0
 16 17  1  0  0  0  0
 17 22  2  0  0  0  0
 17 18  1  0  0  0  0
 18 19  2  0  0  0  0
 18 36  1  0  0  0  0
 19 20  1  0  0  0  0
 19 24  1  0  0  0  0
 20 21  2  0  0  0  0
 20 37  1  0  0  0  0
 21 22  1  0  0  0  0
 21 23  1  0  0  0  0
 22 38  1  0  0  0  0
 25 39  1  0  0  0  0
M  END
$$$$
CHEMBL406924
 OpenBabel12022418093D

 50 53  0  0  0  0  0  0  0  0999 V2000
    1.1042    0.4986   -0.0454 C   0  0  0  0  0  0  0  0  0  0  0  0
    2.5724    0.2439   -0.0517 C   0  0  0  0  0  0  0  0  0  0  0  0
    3.5805    1.2633    0.0257 C   0  0  0  0  0  0  0  0  0  0  0  0
    3.3947    2.7447    0.0509 C   0  0  0  0  0  0  0  0  0  0  0  0
    2.2930    3.2769   -0.0456 O   0  0  0  0  0  0  0  0  0  0  0  0
    4.5749    3.4483    0.1871 N   0  0  0  0  0  0  0  0  0  0  0  0
    4.7427    4.9009    0.2261 C   0  0  0  0  0  0  0  0  0  0  0  0
    4.4088    5.5867   -1.1067 C   0  0  0  0  0  0  0  0  0  0  0  0
    4.7062    7.0890   -1.0542 C   0  0  0  0  0  0  0  0  0  0  0  0
    3.9983    7.7740    0.1117 C   0  0  0  0  0  0  0  0  0  0  0  0
    4.3011    7.0838    1.4391 C   0  0  0  0  0  0  0  0  0  0  0  0
    4.0016    5.5817    1.3874 C   0  0  0  0  0  0  0  0  0  0  0  0
    4.8092    0.7184    0.1071 N   0  0  0  0  0  0  0  0  0  0  0  0
    4.6268   -0.6272    0.0342 N   0  0  0  0  0  0  0  0  0  0  0  0
    5.7665   -1.4534   -0.2080 C   0  0  0  0  0  0  0  0  0  0  0  0
    5.6827   -2.4812   -1.1693 C   0  0  0  0  0  0  0  0  0  0  0  0
    6.7927   -3.2828   -1.4507 C   0  0  0  0  0  0  0  0  0  0  0  0
    7.9962   -3.0538   -0.7919 C   0  0  0  0  0  0  0  0  0  0  0  0
    8.0955   -2.0432    0.1611 C   0  0  0  0  0  0  0  0  0  0  0  0
    6.9856   -1.2417    0.4594 C   0  0  0  0  0  0  0  0  0  0  0  0
    7.1875   -0.1252    1.7676 Cl  0  0  0  0  0  0  0  0  0  0  0  0
    9.3665   -4.0287   -1.1520 Cl  0  0  0  0  0  0  0  0  0  0  0  0
    3.2776   -0.9524   -0.0093 C   0  0  0  0  0  0  0  0  0  0  0  0
    2.7725   -2.2602    0.0666 N   0  0  0  0  0  0  0  0  0  0  0  0
    3.3331   -3.3306    0.7462 C   0  0  0  0  0  0  0  0  0  0  0  0
    2.5435   -4.4482    0.5876 C   0  0  0  0  0  0  0  0  0  0  0  0
    1.4491   -4.0702   -0.2116 C   0  0  0  0  0  0  0  0  0  0  0  0
    1.6123   -2.7359   -0.5167 C   0  0  0  0  0  0  0  0  0  0  0  0
    0.5126   -0.4056    0.1052 H   0  0  0  0  0  0  0  0  0  0  0  0
    0.7932    0.9569   -0.9890 H   0  0  0  0  0  0  0  0  0  0  0  0
    0.8400    1.1716    0.7763 H   0  0  0  0  0  0  0  0  0  0  0  0
    5.4032    2.8588    0.2291 H   0  0  0  0  0  0  0  0  0  0  0  0
    5.8181    5.0390    0.4032 H   0  0  0  0  0  0  0  0  0  0  0  0
    3.3516    5.4386   -1.3576 H   0  0  0  0  0  0  0  0  0  0  0  0
    4.9913    5.1340   -1.9176 H   0  0  0  0  0  0  0  0  0  0  0  0
    4.4022    7.5614   -1.9954 H   0  0  0  0  0  0  0  0  0  0  0  0
    5.7885    7.2439   -0.9587 H   0  0  0  0  0  0  0  0  0  0  0  0
    2.9158    7.7718   -0.0644 H   0  0  0  0  0  0  0  0  0  0  0  0
    4.3074    8.8253    0.1641 H   0  0  0  0  0  0  0  0  0  0  0  0
    3.7139    7.5530    2.2371 H   0  0  0  0  0  0  0  0  0  0  0  0
    5.3576    7.2376    1.6926 H   0  0  0  0  0  0  0  0  0  0  0  0
    4.2927    5.1233    2.3396 H   0  0  0  0  0  0  0  0  0  0  0  0
    2.9189    5.4406    1.2876 H   0  0  0  0  0  0  0  0  0  0  0  0
    4.7707   -2.6624   -1.7354 H   0  0  0  0  0  0  0  0  0  0  0  0
    6.7128   -4.0767   -2.1908 H   0  0  0  0  0  0  0  0  0  0  0  0
    9.0357   -1.8899    0.6862 H   0  0  0  0  0  0  0  0  0  0  0  0
    4.2381   -3.2118    1.3250 H   0  0  0  0  0  0  0  0  0  0  0  0
    2.7349   -5.4262    1.0136 H   0  0  0  0  0  0  0  0  0  0  0  0
    0.6301   -4.6995   -0.5380 H   0  0  0  0  0  0  0  0  0  0  0  0
    1.0083   -2.0998   -1.1474 H   0  0  0  0  0  0  0  0  0  0  0  0
  1  2  1  0  0  0  0
  1 29  1  0  0  0  0
  1 30  1  0  0  0  0
  1 31  1  0  0  0  0
  2 23  2  0  0  0  0
  2  3  1  0  0  0  0
  3  4  1  0  0  0  0
  3 13  2  0  0  0  0
  4  5  2  0  0  0  0
  4  6  1  0  0  0  0
  6  7  1  0  0  0  0
  6 32  1  0  0  0  0
  7 12  1  0  0  0  0
  7  8  1  0  0  0  0
  7 33  1  0  0  0  0
  8  9  1  0  0  0  0
  8 34  1  0  0  0  0
  8 35  1  0  0  0  0
  9 10  1  0  0  0  0
  9 36  1  0  0  0  0
  9 37  1  0  0  0  0
 10 11  1  0  0  0  0
 10 38  1  0  0  0  0
 10 39  1  0  0  0  0
 11 12  1  0  0  0  0
 11 40  1  0  0  0  0
 11 41  1  0  0  0  0
 12 42  1  0  0  0  0
 12 43  1  0  0  0  0
 13 14  1  0  0  0  0
 14 15  1  0  0  0  0
 14 23  1  0  0  0  0
 15 20  2  0  0  0  0
 15 16  1  0  0  0  0
 16 17  2  0  0  0  0
 16 44  1  0  0  0  0
 17 18  1  0  0  0  0
 17 45  1  0  0  0  0
 18 19  2  0  0  0  0
 18 22  1  0  0  0  0
 19 20  1  0  0  0  0
 19 46  1  0  0  0  0
 20 21  1  0  0  0  0
 23 24  1  0  0  0  0
 24 28  1  0  0  0  0
 24 25  1  0  0  0  0
 25 26  2  0  0  0  0
 25 47  1  0  0  0  0
 26 27  1  0  0  0  0
 26 48  1  0  0  0  0
 27 28  2  0  0  0  0
 27 49  1  0  0  0  0
 28 50  1  0  0  0  0
M  END
$$$$
CHEMBL3650111
 OpenBabel12022418093D

 63 64  0  0  0  0  0  0  0  0999 V2000
    6.9080   -0.8333   -7.3860 C   0  0  0  0  0  0  0  0  0  0  0  0
    6.6310    0.2969   -6.3697 C   0  0  0  0  0  0  0  0  0  0  0  0
    7.9324    0.8533   -5.7774 C   0  0  0  0  0  0  0  0  0  0  0  0
    5.8732    1.4167   -7.1010 C   0  0  0  0  0  0  0  0  0  0  0  0
    5.7796   -0.1661   -5.2540 N   0  0  0  0  0  0  0  0  0  0  0  0
    6.3829   -1.4075   -4.8294 O   0  0  0  0  0  0  0  0  0  0  0  0
    5.8123   -2.0401   -3.7551 C   0  0  0  0  0  0  0  0  0  0  0  0
    6.6443   -3.0955   -3.3532 C   0  0  0  0  0  0  0  0  0  0  0  0
    6.2676   -3.9582   -2.3265 C   0  0  0  0  0  0  0  0  0  0  0  0
    5.0526   -3.7559   -1.6647 C   0  0  0  0  0  0  0  0  0  0  0  0
    4.6375   -4.7043   -0.5676 C   0  0  0  0  0  0  0  0  0  0  0  0
    5.5244   -5.7190   -0.3668 F   0  0  0  0  0  0  0  0  0  0  0  0
    4.5063   -4.0773    0.6302 F   0  0  0  0  0  0  0  0  0  0  0  0
    3.4414   -5.3002   -0.8222 F   0  0  0  0  0  0  0  0  0  0  0  0
    4.2145   -2.6865   -2.0583 C   0  0  0  0  0  0  0  0  0  0  0  0
    4.5711   -1.8371   -3.1195 C   0  0  0  0  0  0  0  0  0  0  0  0
    3.5079   -0.9750   -3.7000 C   0  0  0  0  0  0  0  0  0  0  0  0
    3.3818   -1.0839   -4.9254 O   0  0  0  0  0  0  0  0  0  0  0  0
    2.7920   -0.0956   -2.8890 N   0  0  0  0  0  0  0  0  0  0  0  0
    1.6522    0.3500   -3.3359 C   0  0  0  0  0  0  0  0  0  0  0  0
    0.9712    1.5375   -3.0305 N   0  0  0  0  0  0  0  0  0  0  0  0
    0.5114    2.0138   -1.7235 C   0  0  0  0  0  0  0  0  0  0  0  0
    1.3837    1.8008   -0.4949 C   0  0  0  0  0  0  0  0  0  0  0  0
    2.7567    2.4713   -0.4834 C   0  0  0  0  0  0  0  0  0  0  0  0
    2.7333    3.9914   -0.5535 C   0  0  0  0  0  0  0  0  0  0  0  0
    2.0094    4.4820    0.4885 F   0  0  0  0  0  0  0  0  0  0  0  0
    0.1495    2.0282   -4.0625 N   0  0  0  0  0  0  0  0  0  0  0  0
    0.0218    1.1303   -4.9940 C   0  0  0  0  0  0  0  0  0  0  0  0
   -0.6349    1.3649   -6.3567 C   0  0  0  0  0  0  0  0  0  0  0  0
   -1.3651    2.7185   -6.3641 C   0  0  0  0  0  0  0  0  0  0  0  0
    0.4660    1.4017   -7.4353 C   0  0  0  0  0  0  0  0  0  0  0  0
   -1.6485    0.2643   -6.7041 C   0  0  0  0  0  0  0  0  0  0  0  0
    0.7177   -0.4268   -4.6348 S   0  0  0  0  0  0  0  0  0  0  0  0
    7.5177   -0.4772   -8.2212 H   0  0  0  0  0  0  0  0  0  0  0  0
    5.9706   -1.2274   -7.7993 H   0  0  0  0  0  0  0  0  0  0  0  0
    7.4477   -1.6769   -6.9380 H   0  0  0  0  0  0  0  0  0  0  0  0
    8.6371    1.1443   -6.5625 H   0  0  0  0  0  0  0  0  0  0  0  0
    8.4369    0.1223   -5.1351 H   0  0  0  0  0  0  0  0  0  0  0  0
    7.7326    1.7406   -5.1633 H   0  0  0  0  0  0  0  0  0  0  0  0
    6.4471    1.7816   -7.9597 H   0  0  0  0  0  0  0  0  0  0  0  0
    5.6764    2.2705   -6.4411 H   0  0  0  0  0  0  0  0  0  0  0  0
    4.9075    1.0605   -7.4785 H   0  0  0  0  0  0  0  0  0  0  0  0
    4.8945   -0.5061   -5.6583 H   0  0  0  0  0  0  0  0  0  0  0  0
    7.5825   -3.2799   -3.8776 H   0  0  0  0  0  0  0  0  0  0  0  0
    6.9147   -4.7989   -2.0796 H   0  0  0  0  0  0  0  0  0  0  0  0
    3.2426   -2.5678   -1.5786 H   0  0  0  0  0  0  0  0  0  0  0  0
   -0.4594    1.5425   -1.5190 H   0  0  0  0  0  0  0  0  0  0  0  0
    0.2970    3.0887   -1.8067 H   0  0  0  0  0  0  0  0  0  0  0  0
    1.5026    0.7301   -0.3087 H   0  0  0  0  0  0  0  0  0  0  0  0
    0.8189    2.1905    0.3663 H   0  0  0  0  0  0  0  0  0  0  0  0
    3.3798    2.0801   -1.2897 H   0  0  0  0  0  0  0  0  0  0  0  0
    3.2359    2.1968    0.4658 H   0  0  0  0  0  0  0  0  0  0  0  0
    2.2937    4.3644   -1.4812 H   0  0  0  0  0  0  0  0  0  0  0  0
    3.7492    4.3912   -0.4659 H   0  0  0  0  0  0  0  0  0  0  0  0
   -0.6738    3.5492   -6.1946 H   0  0  0  0  0  0  0  0  0  0  0  0
   -2.1329    2.7575   -5.5830 H   0  0  0  0  0  0  0  0  0  0  0  0
   -1.8576    2.8936   -7.3271 H   0  0  0  0  0  0  0  0  0  0  0  0
    1.1911    2.1992   -7.2364 H   0  0  0  0  0  0  0  0  0  0  0  0
    0.0392    1.5762   -8.4299 H   0  0  0  0  0  0  0  0  0  0  0  0
    1.0257    0.4605   -7.4828 H   0  0  0  0  0  0  0  0  0  0  0  0
   -2.4490    0.2141   -5.9585 H   0  0  0  0  0  0  0  0  0  0  0  0
   -1.1837   -0.7279   -6.7568 H   0  0  0  0  0  0  0  0  0  0  0  0
   -2.1080    0.4476   -7.6818 H   0  0  0  0  0  0  0  0  0  0  0  0
  1  2  1  0  0  0  0
  1 34  1  0  0  0  0
  1 35  1  0  0  0  0
  1 36  1  0  0  0  0
  2  3  1  0  0  0  0
  2  4  1  0  0  0  0
  2  5  1  0  0  0  0
  3 37  1  0  0  0  0
  3 38  1  0  0  0  0
  3 39  1  0  0  0  0
  4 40  1  0  0  0  0
  4 41  1  0  0  0  0
  4 42  1  0  0  0  0
  5  6  1  0  0  0  0
  5 43  1  0  0  0  0
  6  7  1  0  0  0  0
  7 16  2  0  0  0  0
  7  8  1  0  0  0  0
  8  9  2  0  0  0  0
  8 44  1  0  0  0  0
  9 10  1  0  0  0  0
  9 45  1  0  0  0  0
 10 11  1  0  0  0  0
 10 15  2  0  0  0  0
 11 12  1  0  0  0  0
 11 13  1  0  0  0  0
 11 14  1  0  0  0  0
 15 16  1  0  0  0  0
 15 46  1  0  0  0  0
 16 17  1  0  0  0  0
 17 18  2  0  0  0  0
 17 19  1  0  0  0  0
 19 20  2  0  0  0  0
 20 33  1  0  0  0  0
 20 21  1  0  0  0  0
 21 22  1  0  0  0  0
 21 27  1  0  0  0  0
 22 23  1  0  0  0  0
 22 47  1  0  0  0  0
 22 48  1  0  0  0  0
 23 24  1  0  0  0  0
 23 49  1  0  0  0  0
 23 50  1  0  0  0  0
 24 25  1  0  0  0  0
 24 51  1  0  0  0  0
 24 52  1  0  0  0  0
 25 26  1  0  0  0  0
 25 53  1  0  0  0  0
 25 54  1  0  0  0  0
 27 28  2  0  0  0  0
 28 29  1  0  0  0  0
 28 33  1  0  0  0  0
 29 30  1  0  0  0  0
 29 31  1  0  0  0  0
 29 32  1  0  0  0  0
 30 55  1  0  0  0  0
 30 56  1  0  0  0  0
 30 57  1  0  0  0  0
 31 58  1  0  0  0  0
 31 59  1  0  0  0  0
 31 60  1  0  0  0  0
 32 61  1  0  0  0  0
 32 62  1  0  0  0  0
 32 63  1  0  0  0  0
M  END
$$$$
CHEMBL502263
 OpenBabel12022418093D

 47 50  0  0  0  0  0  0  0  0999 V2000
    1.2058    0.0246   -0.1762 O   0  0  0  0  0  0  0  0  0  0  0  0
    2.4347    0.0057   -0.1352 C   0  0  0  0  0  0  0  0  0  0  0  0
    3.1649   -1.2161   -0.6560 C   0  0  0  0  0  0  0  0  0  0  0  0
    3.3214   -1.1622   -2.1706 C   0  0  0  0  0  0  0  0  0  0  0  0
    4.2353   -0.0745   -2.5841 C   0  0  0  0  0  0  0  0  0  0  0  0
    4.1133    0.4074   -3.8496 O   0  0  0  0  0  0  0  0  0  0  0  0
    5.0777    1.4057   -3.9808 N   0  0  0  0  0  0  0  0  0  0  0  0
    5.7015    1.4110   -2.7908 C   0  0  0  0  0  0  0  0  0  0  0  0
    6.8190    2.2908   -2.4660 C   0  0  0  0  0  0  0  0  0  0  0  0
    6.8867    3.5531   -3.0900 C   0  0  0  0  0  0  0  0  0  0  0  0
    7.9410    4.4270   -2.8211 C   0  0  0  0  0  0  0  0  0  0  0  0
    8.9340    4.0464   -1.9309 C   0  0  0  0  0  0  0  0  0  0  0  0
    8.8952    2.8103   -1.3013 C   0  0  0  0  0  0  0  0  0  0  0  0
    7.8406    1.9303   -1.5653 C   0  0  0  0  0  0  0  0  0  0  0  0
    7.9134    0.3974   -0.7623 Cl  0  0  0  0  0  0  0  0  0  0  0  0
    9.9520    4.8785   -1.6815 F   0  0  0  0  0  0  0  0  0  0  0  0
    5.1622    0.5306   -1.8808 N   0  0  0  0  0  0  0  0  0  0  0  0
    3.2678    1.0138    0.2968 N   0  0  0  0  0  0  0  0  0  0  0  0
    2.8517    2.1908    0.8841 C   0  0  0  0  0  0  0  0  0  0  0  0
    3.6220    3.2395    1.0479 N   0  0  0  0  0  0  0  0  0  0  0  0
    2.9293    4.2987    1.6164 N   0  0  0  0  0  0  0  0  0  0  0  0
    1.6788    4.0020    1.9298 C   0  0  0  0  0  0  0  0  0  0  0  0
    0.7661    4.8688    2.4589 N   0  0  0  0  0  0  0  0  0  0  0  0
    0.9544    6.3082    2.3237 C   0  0  0  0  0  0  0  0  0  0  0  0
    1.0564    6.9550    3.7038 C   0  0  0  0  0  0  0  0  0  0  0  0
   -0.1124    6.5500    4.6028 C   0  0  0  0  0  0  0  0  0  0  0  0
   -0.2559    5.0307    4.6611 C   0  0  0  0  0  0  0  0  0  0  0  0
   -0.3735    4.4350    3.2581 C   0  0  0  0  0  0  0  0  0  0  0  0
    1.2948    2.3650    1.5348 S   0  0  0  0  0  0  0  0  0  0  0  0
    2.5668   -2.0927   -0.3777 H   0  0  0  0  0  0  0  0  0  0  0  0
    4.1309   -1.3235   -0.1472 H   0  0  0  0  0  0  0  0  0  0  0  0
    2.3456   -1.0332   -2.6529 H   0  0  0  0  0  0  0  0  0  0  0  0
    3.7348   -2.1159   -2.5190 H   0  0  0  0  0  0  0  0  0  0  0  0
    6.1117    3.8669   -3.7886 H   0  0  0  0  0  0  0  0  0  0  0  0
    7.9917    5.4006   -3.3007 H   0  0  0  0  0  0  0  0  0  0  0  0
    9.6922    2.5418   -0.6141 H   0  0  0  0  0  0  0  0  0  0  0  0
    4.2431    1.0107    0.0109 H   0  0  0  0  0  0  0  0  0  0  0  0
    0.0919    6.7263    1.7886 H   0  0  0  0  0  0  0  0  0  0  0  0
    1.8388    6.5673    1.7288 H   0  0  0  0  0  0  0  0  0  0  0  0
    1.0814    8.0456    3.6014 H   0  0  0  0  0  0  0  0  0  0  0  0
    1.9977    6.6518    4.1789 H   0  0  0  0  0  0  0  0  0  0  0  0
   -1.0414    6.9889    4.2185 H   0  0  0  0  0  0  0  0  0  0  0  0
    0.0393    6.9478    5.6121 H   0  0  0  0  0  0  0  0  0  0  0  0
   -1.1354    4.7600    5.2555 H   0  0  0  0  0  0  0  0  0  0  0  0
    0.6204    4.6046    5.1662 H   0  0  0  0  0  0  0  0  0  0  0  0
   -0.4496    3.3478    3.3585 H   0  0  0  0  0  0  0  0  0  0  0  0
   -1.3020    4.7722    2.7812 H   0  0  0  0  0  0  0  0  0  0  0  0
  1  2  2  0  0  0  0
  2  3  1  0  0  0  0
  2 18  1  0  0  0  0
  3  4  1  0  0  0  0
  3 30  1  0  0  0  0
  3 31  1  0  0  0  0
  4  5  1  0  0  0  0
  4 32  1  0  0  0  0
  4 33  1  0  0  0  0
  5 17  2  0  0  0  0
  5  6  1  0  0  0  0
  6  7  1  0  0  0  0
  7  8  2  0  0  0  0
  8  9  1  0  0  0  0
  8 17  1  0  0  0  0
  9 14  2  0  0  0  0
  9 10  1  0  0  0  0
 10 11  2  0  0  0  0
 10 34  1  0  0  0  0
 11 12  1  0  0  0  0
 11 35  1  0  0  0  0
 12 13  2  0  0  0  0
 12 16  1  0  0  0  0
 13 14  1  0  0  0  0
 13 36  1  0  0  0  0
 14 15  1  0  0  0  0
 18 19  1  0  0  0  0
 18 37  1  0  0  0  0
 19 29  1  0  0  0  0
 19 20  2  0  0  0  0
 20 21  1  0  0  0  0
 21 22  2  0  0  0  0
 22 23  1  0  0  0  0
 22 29  1  0  0  0  0
 23 28  1  0  0  0  0
 23 24  1  0  0  0  0
 24 25  1  0  0  0  0
 24 38  1  0  0  0  0
 24 39  1  0  0  0  0
 25 26  1  0  0  0  0
 25 40  1  0  0  0  0
 25 41  1  0  0  0  0
 26 27  1  0  0  0  0
 26 42  1  0  0  0  0
 26 43  1  0  0  0  0
 27 28  1  0  0  0  0
 27 44  1  0  0  0  0
 27 45  1  0  0  0  0
 28 46  1  0  0  0  0
 28 47  1  0  0  0  0
M  END
$$$$
CHEMBL3353823
 OpenBabel12022418093D

 35 38  0  0  0  0  0  0  0  0999 V2000
    0.0839    0.6639   -0.1324 C   0  0  0  0  0  0  0  0  0  0  0  0
    1.0198    0.7139   -1.1633 C   0  0  0  0  0  0  0  0  0  0  0  0
    1.2055   -0.3980   -1.9795 C   0  0  0  0  0  0  0  0  0  0  0  0
    0.4333   -1.5530   -1.7616 C   0  0  0  0  0  0  0  0  0  0  0  0
   -0.5426   -1.6203   -0.7488 C   0  0  0  0  0  0  0  0  0  0  0  0
   -0.6841   -0.4885    0.0754 C   0  0  0  0  0  0  0  0  0  0  0  0
   -1.4534   -2.8053   -0.5177 C   0  0  0  0  0  0  0  0  0  0  0  0
   -0.7953   -4.0143    0.6751 S   0  0  0  0  0  0  0  0  0  0  0  0
   -2.0964   -5.2486    0.5830 C   0  0  0  0  0  0  0  0  0  0  0  0
   -1.9390   -6.3688    1.3269 N   0  0  0  0  0  0  0  0  0  0  0  0
   -2.9162   -7.2574    1.0589 C   0  0  0  0  0  0  0  0  0  0  0  0
   -3.9435   -7.0795    0.1519 C   0  0  0  0  0  0  0  0  0  0  0  0
   -4.6909   -8.2832    0.0706 C   0  0  0  0  0  0  0  0  0  0  0  0
   -4.1365   -9.1564    1.0195 C   0  0  0  0  0  0  0  0  0  0  0  0
   -4.6465  -10.4449    1.2351 C   0  0  0  0  0  0  0  0  0  0  0  0
   -5.7225  -10.8644    0.4442 C   0  0  0  0  0  0  0  0  0  0  0  0
   -6.2708  -10.0306   -0.5286 C   0  0  0  0  0  0  0  0  0  0  0  0
   -5.7669   -8.7401   -0.7179 C   0  0  0  0  0  0  0  0  0  0  0  0
   -6.5204   -7.6585   -2.0790 Br  0  0  0  0  0  0  0  0  0  0  0  0
   -3.0671   -8.5023    1.6073 N   0  0  0  0  0  0  0  0  0  0  0  0
   -4.0612   -5.9024   -0.5051 N   0  0  0  0  0  0  0  0  0  0  0  0
   -3.1238   -4.9953   -0.2688 N   0  0  0  0  0  0  0  0  0  0  0  0
    0.6784   -2.6700   -2.6584 N   0  3  0  0  0  0  0  0  0  0  0  0
    1.8306   -3.1313   -2.6772 O   0  0  0  0  0  0  0  0  0  0  0  0
   -0.2607   -3.0498   -3.3672 O   0  5  0  0  0  0  0  0  0  0  0  0
   -0.0565    1.5296    0.5113 H   0  0  0  0  0  0  0  0  0  0  0  0
    1.6029    1.6171   -1.3281 H   0  0  0  0  0  0  0  0  0  0  0  0
    1.9392   -0.3590   -2.7828 H   0  0  0  0  0  0  0  0  0  0  0  0
   -1.4123   -0.4893    0.8862 H   0  0  0  0  0  0  0  0  0  0  0  0
   -1.6885   -3.2962   -1.4650 H   0  0  0  0  0  0  0  0  0  0  0  0
   -2.4105   -2.4313   -0.1323 H   0  0  0  0  0  0  0  0  0  0  0  0
   -4.2213  -11.1108    1.9810 H   0  0  0  0  0  0  0  0  0  0  0  0
   -6.1332  -11.8626    0.5792 H   0  0  0  0  0  0  0  0  0  0  0  0
   -7.0901  -10.3930   -1.1452 H   0  0  0  0  0  0  0  0  0  0  0  0
   -2.4555   -8.8912    2.3097 H   0  0  0  0  0  0  0  0  0  0  0  0
  1  6  2  0  0  0  0
  1  2  1  0  0  0  0
  1 26  1  0  0  0  0
  2  3  2  0  0  0  0
  2 27  1  0  0  0  0
  3  4  1  0  0  0  0
  3 28  1  0  0  0  0
  4  5  2  0  0  0  0
  4 23  1  0  0  0  0
  5  6  1  0  0  0  0
  5  7  1  0  0  0  0
  6 29  1  0  0  0  0
  7  8  1  0  0  0  0
  7 30  1  0  0  0  0
  7 31  1  0  0  0  0
  8  9  1  0  0  0  0
  9 22  2  0  0  0  0
  9 10  1  0  0  0  0
 10 11  2  0  0  0  0
 11 20  1  0  0  0  0
 11 12  1  0  0  0  0
 12 13  1  0  0  0  0
 12 21  2  0  0  0  0
 13 18  2  0  0  0  0
 13 14  1  0  0  0  0
 14 15  2  0  0  0  0
 14 20  1  0  0  0  0
 15 16  1  0  0  0  0
 15 32  1  0  0  0  0
 16 17  2  0  0  0  0
 16 33  1  0  0  0  0
 17 18  1  0  0  0  0
 17 34  1  0  0  0  0
 18 19  1  0  0  0  0
 20 35  1  0  0  0  0
 21 22  1  0  0  0  0
 23 24  2  0  0  0  0
 23 25  1  0  0  0  0
M  CHG  2  23   1  25  -1
M  END
$$$$
CHEMBL256962
 OpenBabel12022418093D

 58 61  0  0  1  0  0  0  0  0999 V2000
   -2.0686    1.8213    2.0046 C   0  0  0  0  0  0  0  0  0  0  0  0
   -1.1103    0.7203    1.5236 C   0  0  0  0  0  0  0  0  0  0  0  0
   -1.9812   -0.4200    0.9551 C   0  0  0  0  0  0  0  0  0  0  0  0
   -0.2075    0.2517    2.7240 C   0  0  1  0  0  0  0  0  0  0  0  0
    0.4340   -1.1156    2.4531 C   0  0  0  0  0  0  0  0  0  0  0  0
    1.3590   -0.8082    1.2720 C   0  0  0  0  0  0  0  0  0  0  0  0
    1.2973    0.7446    1.1466 C   0  0  2  0  0  0  0  0  0  0  0  0
    2.5679    1.2821    0.5038 C   0  0  0  0  0  0  0  0  0  0  0  0
    1.0345    1.1497    2.6020 C   0  0  0  0  0  0  0  0  0  0  0  0
   -0.0424    1.1909    0.4619 C   0  0  2  0  0  0  0  0  0  0  0  0
   -0.0527    2.6410    0.1629 N   0  0  0  0  0  0  0  0  0  0  0  0
   -0.8719    3.2136   -0.7974 C   0  0  0  0  0  0  0  0  0  0  0  0
   -1.6997    2.5771   -1.4392 O   0  0  0  0  0  0  0  0  0  0  0  0
   -0.7027    4.6851   -1.0804 C   0  0  0  0  0  0  0  0  0  0  0  0
    0.5504    5.2931   -1.0244 C   0  0  0  0  0  0  0  0  0  0  0  0
    0.7078    6.6108   -1.4756 C   0  0  0  0  0  0  0  0  0  0  0  0
   -0.3767    7.3560   -1.9812 C   0  0  0  0  0  0  0  0  0  0  0  0
   -1.6504    6.7907   -1.9762 C   0  0  0  0  0  0  0  0  0  0  0  0
   -1.7968    5.4423   -1.5516 C   0  0  0  0  0  0  0  0  0  0  0  0
   -3.1132    7.6114   -2.6227 S   0  0  0  0  0  0  0  0  0  0  0  0
   -2.7252    8.5367   -3.6634 O   0  0  0  0  0  0  0  0  0  0  0  0
   -4.0738    6.5667   -2.9151 O   0  0  0  0  0  0  0  0  0  0  0  0
   -3.7022    8.5062   -1.3288 N   0  0  0  0  0  0  0  0  0  0  0  0
   -5.0688    8.2923   -0.7965 C   0  0  0  0  0  0  0  0  0  0  0  0
   -5.8970    9.5850   -0.8175 C   0  0  0  0  0  0  0  0  0  0  0  0
   -5.2014   10.6831   -0.2144 O   0  0  0  0  0  0  0  0  0  0  0  0
   -3.9802   10.9465   -0.9109 C   0  0  0  0  0  0  0  0  0  0  0  0
   -3.0374    9.7419   -0.8707 C   0  0  0  0  0  0  0  0  0  0  0  0
    0.1206    9.0481   -2.6882 Br  0  0  0  0  0  0  0  0  0  0  0  0
   -2.7129    2.1697    1.1905 H   0  0  0  0  0  0  0  0  0  0  0  0
   -1.5376    2.6840    2.4167 H   0  0  0  0  0  0  0  0  0  0  0  0
   -2.7272    1.4371    2.7932 H   0  0  0  0  0  0  0  0  0  0  0  0
   -2.6571   -0.0485    0.1776 H   0  0  0  0  0  0  0  0  0  0  0  0
   -2.5906   -0.8777    1.7430 H   0  0  0  0  0  0  0  0  0  0  0  0
   -1.3874   -1.2138    0.4905 H   0  0  0  0  0  0  0  0  0  0  0  0
   -0.7017    0.2953    3.6984 H   0  0  0  0  0  0  0  0  0  0  0  0
   -0.2735   -1.9231    2.2506 H   0  0  0  0  0  0  0  0  0  0  0  0
    1.0287   -1.4314    3.3206 H   0  0  0  0  0  0  0  0  0  0  0  0
    1.0355   -1.3096    0.3544 H   0  0  0  0  0  0  0  0  0  0  0  0
    2.3708   -1.1614    1.5058 H   0  0  0  0  0  0  0  0  0  0  0  0
    3.4503    0.9651    1.0723 H   0  0  0  0  0  0  0  0  0  0  0  0
    2.5805    2.3682    0.4516 H   0  0  0  0  0  0  0  0  0  0  0  0
    2.6704    0.8820   -0.5106 H   0  0  0  0  0  0  0  0  0  0  0  0
    1.8424    0.8602    3.2846 H   0  0  0  0  0  0  0  0  0  0  0  0
    0.8199    2.2124    2.7437 H   0  0  0  0  0  0  0  0  0  0  0  0
   -0.1733    0.6645   -0.4916 H   0  0  0  0  0  0  0  0  0  0  0  0
    0.4476    3.2567    0.7890 H   0  0  0  0  0  0  0  0  0  0  0  0
    1.4303    4.7384   -0.7077 H   0  0  0  0  0  0  0  0  0  0  0  0
    1.7096    7.0425   -1.4675 H   0  0  0  0  0  0  0  0  0  0  0  0
   -2.7688    4.9515   -1.6164 H   0  0  0  0  0  0  0  0  0  0  0  0
   -4.9703    7.9385    0.2356 H   0  0  0  0  0  0  0  0  0  0  0  0
   -5.6164    7.5268   -1.3518 H   0  0  0  0  0  0  0  0  0  0  0  0
   -6.8167    9.4357   -0.2415 H   0  0  0  0  0  0  0  0  0  0  0  0
   -6.1918    9.8581   -1.8380 H   0  0  0  0  0  0  0  0  0  0  0  0
   -3.4984   11.7970   -0.4162 H   0  0  0  0  0  0  0  0  0  0  0  0
   -4.2004   11.2498   -1.9418 H   0  0  0  0  0  0  0  0  0  0  0  0
   -2.1741    9.9855   -1.4839 H   0  0  0  0  0  0  0  0  0  0  0  0
   -2.6840    9.5747    0.1525 H   0  0  0  0  0  0  0  0  0  0  0  0
  1  2  1  0  0  0  0
  1 30  1  0  0  0  0
  1 31  1  0  0  0  0
  1 32  1  0  0  0  0
  2 10  1  0  0  0  0
  2  3  1  0  0  0  0
  2  4  1  0  0  0  0
  3 33  1  0  0  0  0
  3 34  1  0  0  0  0
  3 35  1  0  0  0  0
  4  5  1  0  0  0  0
  4  9  1  0  0  0  0
  4 36  1  1  0  0  0
  5  6  1  0  0  0  0
  5 37  1  0  0  0  0
  5 38  1  0  0  0  0
  6  7  1  0  0  0  0
  6 39  1  0  0  0  0
  6 40  1  0  0  0  0
  7  8  1  6  0  0  0
  7  9  1  0  0  0  0
  7 10  1  0  0  0  0
  8 41  1  0  0  0  0
  8 42  1  0  0  0  0
  8 43  1  0  0  0  0
  9 44  1  0  0  0  0
  9 45  1  0  0  0  0
 10 11  1  0  0  0  0
 10 46  1  6  0  0  0
 11 12  1  0  0  0  0
 11 47  1  0  0  0  0
 12 13  2  0  0  0  0
 12 14  1  0  0  0  0
 14 19  2  0  0  0  0
 14 15  1  0  0  0  0
 15 16  2  0  0  0  0
 15 48  1  0  0  0  0
 16 17  1  0  0  0  0
 16 49  1  0  0  0  0
 17 18  2  0  0  0  0
 17 29  1  0  0  0  0
 18 19  1  0  0  0  0
 18 20  1  0  0  0  0
 19 50  1  0  0  0  0
 20 21  2  0  0  0  0
 20 22  2  0  0  0  0
 20 23  1  0  0  0  0
 23 28  1  0  0  0  0
 23 24  1  0  0  0  0
 24 25  1  0  0  0  0
 24 51  1  0  0  0  0
 24 52  1  0  0  0  0
 25 26  1  0  0  0  0
 25 53  1  0  0  0  0
 25 54  1  0  0  0  0
 26 27  1  0  0  0  0
 27 28  1  0  0  0  0
 27 55  1  0  0  0  0
 27 56  1  0  0  0  0
 28 57  1  0  0  0  0
 28 58  1  0  0  0  0
M  END
$$$$
CHEMBL3590631
 OpenBabel12022418093D

 49 50  0  0  0  0  0  0  0  0999 V2000
    3.3755   -1.9804   -2.5712 C   0  0  0  0  0  0  0  0  0  0  0  0
    3.7441   -1.0610   -1.4097 C   0  0  0  0  0  0  0  0  0  0  0  0
    4.2602   -1.9023   -0.2480 C   0  0  0  0  0  0  0  0  0  0  0  0
    4.7295   -1.1016    0.9852 C   0  0  0  0  0  0  0  0  0  0  0  0
    5.0396   -1.9359    2.1580 N   0  0  0  0  0  0  0  0  0  0  0  0
    5.4853   -3.2418    1.9090 C   0  0  0  0  0  0  0  0  0  0  0  0
    6.1368   -3.6159    0.9437 O   0  0  0  0  0  0  0  0  0  0  0  0
    4.9245   -4.2091    2.8562 C   0  0  0  0  0  0  0  0  0  0  0  0
    4.1639   -5.2032    2.3674 C   0  0  0  0  0  0  0  0  0  0  0  0
    3.3591   -6.0636    3.0740 N   0  0  0  0  0  0  0  0  0  0  0  0
    2.4988   -7.0890    2.5247 C   0  0  0  0  0  0  0  0  0  0  0  0
    1.3068   -7.3473    3.4615 C   0  0  0  0  0  0  0  0  0  0  0  0
    0.4320   -6.1019    3.6392 C   0  0  0  0  0  0  0  0  0  0  0  0
    0.4612   -8.5010    2.9215 C   0  0  0  0  0  0  0  0  0  0  0  0
    4.9215   -3.8876    4.2792 C   0  0  0  0  0  0  0  0  0  0  0  0
    4.8836   -4.7427    5.1599 O   0  0  0  0  0  0  0  0  0  0  0  0
    4.9005   -2.4443    4.5725 C   0  0  0  0  0  0  0  0  0  0  0  0
    4.7987   -2.1061    5.9305 C   0  0  0  0  0  0  0  0  0  0  0  0
    4.6581   -0.7840    6.3019 C   0  0  0  0  0  0  0  0  0  0  0  0
    4.6475    0.1926    5.3136 C   0  0  0  0  0  0  0  0  0  0  0  0
    4.7858   -0.1157    3.9339 C   0  0  0  0  0  0  0  0  0  0  0  0
    4.8751    1.0887    3.0336 C   0  0  0  0  0  0  0  0  0  0  0  0
    4.8891   -1.4732    3.5286 C   0  0  0  0  0  0  0  0  0  0  0  0
    3.0364   -1.4027   -3.4349 H   0  0  0  0  0  0  0  0  0  0  0  0
    2.5752   -2.6709   -2.2828 H   0  0  0  0  0  0  0  0  0  0  0  0
    4.2374   -2.5820   -2.8826 H   0  0  0  0  0  0  0  0  0  0  0  0
    2.8681   -0.4794   -1.1061 H   0  0  0  0  0  0  0  0  0  0  0  0
    4.5189   -0.3583   -1.7364 H   0  0  0  0  0  0  0  0  0  0  0  0
    5.0906   -2.4897   -0.6485 H   0  0  0  0  0  0  0  0  0  0  0  0
    3.4773   -2.6088    0.0579 H   0  0  0  0  0  0  0  0  0  0  0  0
    3.8844   -0.4606    1.2470 H   0  0  0  0  0  0  0  0  0  0  0  0
    5.6040   -0.4932    0.7364 H   0  0  0  0  0  0  0  0  0  0  0  0
    4.0770   -5.3311    1.2878 H   0  0  0  0  0  0  0  0  0  0  0  0
    3.5307   -6.0832    4.0845 H   0  0  0  0  0  0  0  0  0  0  0  0
    3.0849   -8.0065    2.4016 H   0  0  0  0  0  0  0  0  0  0  0  0
    2.1358   -6.7935    1.5322 H   0  0  0  0  0  0  0  0  0  0  0  0
    1.6882   -7.6354    4.4497 H   0  0  0  0  0  0  0  0  0  0  0  0
    0.0325   -5.7553    2.6801 H   0  0  0  0  0  0  0  0  0  0  0  0
    0.9961   -5.2785    4.0893 H   0  0  0  0  0  0  0  0  0  0  0  0
   -0.4149   -6.3160    4.3004 H   0  0  0  0  0  0  0  0  0  0  0  0
    0.0355   -8.2562    1.9422 H   0  0  0  0  0  0  0  0  0  0  0  0
   -0.3657   -8.7294    3.6021 H   0  0  0  0  0  0  0  0  0  0  0  0
    1.0648   -9.4079    2.8118 H   0  0  0  0  0  0  0  0  0  0  0  0
    4.8079   -2.8798    6.6966 H   0  0  0  0  0  0  0  0  0  0  0  0
    4.5629   -0.5166    7.3500 H   0  0  0  0  0  0  0  0  0  0  0  0
    4.5516    1.2303    5.6363 H   0  0  0  0  0  0  0  0  0  0  0  0
    4.9376    2.0188    3.6135 H   0  0  0  0  0  0  0  0  0  0  0  0
    3.9820    1.1897    2.4138 H   0  0  0  0  0  0  0  0  0  0  0  0
    5.7827    1.0546    2.4249 H   0  0  0  0  0  0  0  0  0  0  0  0
  1  2  1  0  0  0  0
  1 24  1  0  0  0  0
  1 25  1  0  0  0  0
  1 26  1  0  0  0  0
  2  3  1  0  0  0  0
  2 27  1  0  0  0  0
  2 28  1  0  0  0  0
  3  4  1  0  0  0  0
  3 29  1  0  0  0  0
  3 30  1  0  0  0  0
  4  5  1  0  0  0  0
  4 31  1  0  0  0  0
  4 32  1  0  0  0  0
  5 23  1  0  0  0  0
  5  6  1  0  0  0  0
  6  7  2  0  0  0  0
  6  8  1  0  0  0  0
  8  9  2  0  0  0  0
  8 15  1  0  0  0  0
  9 10  1  0  0  0  0
  9 33  1  0  0  0  0
 10 11  1  0  0  0  0
 10 34  1  0  0  0  0
 11 12  1  0  0  0  0
 11 35  1  0  0  0  0
 11 36  1  0  0  0  0
 12 13  1  0  0  0  0
 12 14  1  0  0  0  0
 12 37  1  0  0  0  0
 13 38  1  0  0  0  0
 13 39  1  0  0  0  0
 13 40  1  0  0  0  0
 14 41  1  0  0  0  0
 14 42  1  0  0  0  0
 14 43  1  0  0  0  0
 15 16  2  0  0  0  0
 15 17  1  0  0  0  0
 17 23  2  0  0  0  0
 17 18  1  0  0  0  0
 18 19  2  0  0  0  0
 18 44  1  0  0  0  0
 19 20  1  0  0  0  0
 19 45  1  0  0  0  0
 20 21  2  0  0  0  0
 20 46  1  0  0  0  0
 21 22  1  0  0  0  0
 21 23  1  0  0  0  0
 22 47  1  0  0  0  0
 22 48  1  0  0  0  0
 22 49  1  0  0  0  0
M  END
$$$$
CHEMBL3899824
 OpenBabel12022418093D

 43 45  0  0  1  0  0  0  0  0999 V2000
   -2.1609   -0.1056   -0.4288 C   0  0  0  0  0  0  0  0  0  0  0  0
   -0.7414    0.1402   -0.1154 C   0  0  0  0  0  0  0  0  0  0  0  0
    0.0166    1.1891   -0.3548 N   0  0  0  0  0  0  0  0  0  0  0  0
    1.2411    0.7779    0.1440 C   0  0  0  0  0  0  0  0  0  0  0  0
    2.5253    1.6152    0.0425 C   0  0  1  0  0  0  0  0  0  0  0  0
    3.3936    1.3299    1.2946 C   0  0  0  0  0  0  0  0  0  0  0  0
    3.3536    1.3386   -1.2210 C   0  0  0  0  0  0  0  0  0  0  0  0
    3.1315    0.1651   -2.1542 C   0  0  0  0  0  0  0  0  0  0  0  0
    2.7780    1.5534   -2.6060 C   0  0  0  0  0  0  0  0  0  0  0  0
    2.1386    3.0410    0.0218 N   0  0  0  0  0  0  0  0  0  0  0  0
    3.0302    4.0933   -0.0073 C   0  0  0  0  0  0  0  0  0  0  0  0
    4.2502    3.9694    0.0126 O   0  0  0  0  0  0  0  0  0  0  0  0
    2.4270    5.4623   -0.0817 C   0  0  0  0  0  0  0  0  0  0  0  0
    3.2566    6.5723   -0.2165 C   0  0  0  0  0  0  0  0  0  0  0  0
    2.6939    7.8521   -0.2881 C   0  0  0  0  0  0  0  0  0  0  0  0
    1.3024    7.9670   -0.2503 C   0  0  0  0  0  0  0  0  0  0  0  0
    0.5562    6.7958   -0.1033 C   0  0  0  0  0  0  0  0  0  0  0  0
    1.0750    5.5461   -0.0156 N   0  0  0  0  0  0  0  0  0  0  0  0
    0.4229    9.4348   -0.4467 Cl  0  0  0  0  0  0  0  0  0  0  0  0
    3.6344    8.8324   -0.4574 O   0  0  0  0  0  0  0  0  0  0  0  0
    3.3823   10.1419    0.0696 C   0  0  0  0  0  0  0  0  0  0  0  0
    4.6787   10.8658    0.4376 C   0  0  0  0  0  0  0  0  0  0  0  0
    5.7813   10.1177    0.2192 F   0  0  0  0  0  0  0  0  0  0  0  0
    4.8140   12.0070   -0.2762 F   0  0  0  0  0  0  0  0  0  0  0  0
    4.6778   11.2117    1.7475 F   0  0  0  0  0  0  0  0  0  0  0  0
    1.2287   -0.4530    0.6816 N   0  0  0  0  0  0  0  0  0  0  0  0
   -0.0842   -0.8734    0.5139 O   0  0  0  0  0  0  0  0  0  0  0  0
   -2.4364   -1.1484   -0.2371 H   0  0  0  0  0  0  0  0  0  0  0  0
   -2.3623    0.1040   -1.4834 H   0  0  0  0  0  0  0  0  0  0  0  0
   -2.8030    0.5316    0.1844 H   0  0  0  0  0  0  0  0  0  0  0  0
    3.7065    0.2795    1.3303 H   0  0  0  0  0  0  0  0  0  0  0  0
    2.8399    1.5499    2.2157 H   0  0  0  0  0  0  0  0  0  0  0  0
    4.3118    1.9239    1.3169 H   0  0  0  0  0  0  0  0  0  0  0  0
    4.3853    1.6557   -1.0874 H   0  0  0  0  0  0  0  0  0  0  0  0
    2.3166   -0.5280   -1.9839 H   0  0  0  0  0  0  0  0  0  0  0  0
    4.0091   -0.3022   -2.5884 H   0  0  0  0  0  0  0  0  0  0  0  0
    3.4159    2.0293   -3.3429 H   0  0  0  0  0  0  0  0  0  0  0  0
    1.7283    1.8058   -2.7043 H   0  0  0  0  0  0  0  0  0  0  0  0
    1.1496    3.2606   -0.0718 H   0  0  0  0  0  0  0  0  0  0  0  0
    4.3350    6.4435   -0.2697 H   0  0  0  0  0  0  0  0  0  0  0  0
   -0.5308    6.8322   -0.0650 H   0  0  0  0  0  0  0  0  0  0  0  0
    2.7571   10.0901    0.9680 H   0  0  0  0  0  0  0  0  0  0  0  0
    2.8723   10.7266   -0.7028 H   0  0  0  0  0  0  0  0  0  0  0  0
  1  2  1  0  0  0  0
  1 28  1  0  0  0  0
  1 29  1  0  0  0  0
  1 30  1  0  0  0  0
  2 27  1  0  0  0  0
  2  3  2  0  0  0  0
  3  4  1  0  0  0  0
  4  5  1  0  0  0  0
  4 26  2  0  0  0  0
  5  6  1  1  0  0  0
  5  7  1  0  0  0  0
  5 10  1  0  0  0  0
  6 31  1  0  0  0  0
  6 32  1  0  0  0  0
  6 33  1  0  0  0  0
  7  9  1  0  0  0  0
  7  8  1  0  0  0  0
  7 34  1  0  0  0  0
  8  9  1  0  0  0  0
  8 35  1  0  0  0  0
  8 36  1  0  0  0  0
  9 37  1  0  0  0  0
  9 38  1  0  0  0  0
 10 11  1  0  0  0  0
 10 39  1  0  0  0  0
 11 12  2  0  0  0  0
 11 13  1  0  0  0  0
 13 18  2  0  0  0  0
 13 14  1  0  0  0  0
 14 15  2  0  0  0  0
 14 40  1  0  0  0  0
 15 16  1  0  0  0  0
 15 20  1  0  0  0  0
 16 17  2  0  0  0  0
 16 19  1  0  0  0  0
 17 18  1  0  0  0  0
 17 41  1  0  0  0  0
 20 21  1  0  0  0  0
 21 22  1  0  0  0  0
 21 42  1  0  0  0  0
 21 43  1  0  0  0  0
 22 23  1  0  0  0  0
 22 24  1  0  0  0  0
 22 25  1  0  0  0  0
 26 27  1  0  0  0  0
M  END
$$$$
CHEMBL204387
 OpenBabel12022418093D

 59 61  0  0  0  0  0  0  0  0999 V2000
    1.2363    1.4505    0.0313 C   0  0  0  0  0  0  0  0  0  0  0  0
    0.0164    0.7443    0.0316 C   0  0  0  0  0  0  0  0  0  0  0  0
    0.0474   -0.6582    0.0545 C   0  0  0  0  0  0  0  0  0  0  0  0
   -1.1740   -1.3841    0.0742 C   0  0  0  0  0  0  0  0  0  0  0  0
   -2.4071   -0.6886   -0.0279 C   0  0  0  0  0  0  0  0  0  0  0  0
   -2.3991    0.7119   -0.0825 C   0  0  0  0  0  0  0  0  0  0  0  0
   -1.2017    1.4221   -0.0197 C   0  0  0  0  0  0  0  0  0  0  0  0
   -3.5708   -1.4231   -0.0757 O   0  0  0  0  0  0  0  0  0  0  0  0
   -4.7957   -0.7022   -0.2374 C   0  0  0  0  0  0  0  0  0  0  0  0
   -1.2300   -2.7853    0.1800 O   0  0  0  0  0  0  0  0  0  0  0  0
    0.0500   -3.4204    0.3241 C   0  0  0  0  0  0  0  0  0  0  0  0
    0.0545   -4.9288    0.4696 C   0  0  0  0  0  0  0  0  0  0  0  0
    1.5172   -5.4112    0.5711 C   0  0  0  0  0  0  0  0  0  0  0  0
    1.5887   -6.9262    0.7040 C   0  0  0  0  0  0  0  0  0  0  0  0
    3.0228   -7.4212    0.8050 C   0  0  0  0  0  0  0  0  0  0  0  0
    1.2539   -1.2705    0.0424 N   0  0  0  0  0  0  0  0  0  0  0  0
    2.3964   -0.5952    0.0067 C   0  0  0  0  0  0  0  0  0  0  0  0
    2.4601    0.7712    0.0030 C   0  0  0  0  0  0  0  0  0  0  0  0
    3.7182    1.5281   -0.0589 C   0  0  0  0  0  0  0  0  0  0  0  0
    3.6805    2.7619   -0.0684 O   0  0  0  0  0  0  0  0  0  0  0  0
    4.8960    0.8219   -0.1125 N   0  0  0  0  0  0  0  0  0  0  0  0
    6.1452    1.5360   -0.2122 C   0  0  0  0  0  0  0  0  0  0  0  0
    7.3437    0.5977   -0.2792 C   0  0  0  0  0  0  0  0  0  0  0  0
    8.6466    1.3517   -0.3544 C   0  0  0  0  0  0  0  0  0  0  0  0
    9.2202    1.6723   -1.5930 C   0  0  0  0  0  0  0  0  0  0  0  0
   10.4628    2.3082   -1.6534 C   0  0  0  0  0  0  0  0  0  0  0  0
   11.1202    2.6398   -0.4733 C   0  0  0  0  0  0  0  0  0  0  0  0
   10.5393    2.3815    0.7613 C   0  0  0  0  0  0  0  0  0  0  0  0
    9.3030    1.7386    0.8220 C   0  0  0  0  0  0  0  0  0  0  0  0
   12.3567    3.2144   -0.4868 O   0  0  0  0  0  0  0  0  0  0  0  0
    3.4654   -1.4268   -0.0421 O   0  0  0  0  0  0  0  0  0  0  0  0
    1.2312    2.5340    0.0294 H   0  0  0  0  0  0  0  0  0  0  0  0
   -3.3101    1.2964   -0.1733 H   0  0  0  0  0  0  0  0  0  0  0  0
   -1.2299    2.5096   -0.0418 H   0  0  0  0  0  0  0  0  0  0  0  0
   -5.6267   -1.4096   -0.1583 H   0  0  0  0  0  0  0  0  0  0  0  0
   -4.8529   -0.2324   -1.2273 H   0  0  0  0  0  0  0  0  0  0  0  0
   -4.9384    0.0444    0.5530 H   0  0  0  0  0  0  0  0  0  0  0  0
    0.5408   -3.0378    1.2304 H   0  0  0  0  0  0  0  0  0  0  0  0
    0.6260   -3.2413   -0.5924 H   0  0  0  0  0  0  0  0  0  0  0  0
   -0.4374   -5.3774   -0.3982 H   0  0  0  0  0  0  0  0  0  0  0  0
   -0.5098   -5.2157    1.3611 H   0  0  0  0  0  0  0  0  0  0  0  0
    2.0122   -4.9416    1.4328 H   0  0  0  0  0  0  0  0  0  0  0  0
    2.0838   -5.0941   -0.3161 H   0  0  0  0  0  0  0  0  0  0  0  0
    1.1078   -7.3905   -0.1637 H   0  0  0  0  0  0  0  0  0  0  0  0
    1.0357   -7.2388    1.5961 H   0  0  0  0  0  0  0  0  0  0  0  0
    3.5980   -7.1528   -0.0871 H   0  0  0  0  0  0  0  0  0  0  0  0
    3.0361   -8.5113    0.9020 H   0  0  0  0  0  0  0  0  0  0  0  0
    3.5271   -6.9964    1.6789 H   0  0  0  0  0  0  0  0  0  0  0  0
    4.8702   -0.1971   -0.1000 H   0  0  0  0  0  0  0  0  0  0  0  0
    6.2096    2.1982    0.6553 H   0  0  0  0  0  0  0  0  0  0  0  0
    6.0898    2.1620   -1.1081 H   0  0  0  0  0  0  0  0  0  0  0  0
    7.2530   -0.0728   -1.1434 H   0  0  0  0  0  0  0  0  0  0  0  0
    7.3549   -0.0608    0.5992 H   0  0  0  0  0  0  0  0  0  0  0  0
    8.7114    1.4147   -2.5195 H   0  0  0  0  0  0  0  0  0  0  0  0
   10.9013    2.5286   -2.6213 H   0  0  0  0  0  0  0  0  0  0  0  0
   11.0551    2.6621    1.6749 H   0  0  0  0  0  0  0  0  0  0  0  0
    8.8637    1.5261    1.7942 H   0  0  0  0  0  0  0  0  0  0  0  0
   12.6928    3.1953   -1.3977 H   0  0  0  0  0  0  0  0  0  0  0  0
    3.0008   -2.2896   -0.0565 H   0  0  0  0  0  0  0  0  0  0  0  0
  1 18  2  0  0  0  0
  1  2  1  0  0  0  0
  1 32  1  0  0  0  0
  2  7  2  0  0  0  0
  2  3  1  0  0  0  0
  3  4  2  0  0  0  0
  3 16  1  0  0  0  0
  4  5  1  0  0  0  0
  4 10  1  0  0  0  0
  5  6  2  0  0  0  0
  5  8  1  0  0  0  0
  6  7  1  0  0  0  0
  6 33  1  0  0  0  0
  7 34  1  0  0  0  0
  8  9  1  0  0  0  0
  9 35  1  0  0  0  0
  9 36  1  0  0  0  0
  9 37  1  0  0  0  0
 10 11  1  0  0  0  0
 11 12  1  0  0  0  0
 11 38  1  0  0  0  0
 11 39  1  0  0  0  0
 12 13  1  0  0  0  0
 12 40  1  0  0  0  0
 12 41  1  0  0  0  0
 13 14  1  0  0  0  0
 13 42  1  0  0  0  0
 13 43  1  0  0  0  0
 14 15  1  0  0  0  0
 14 44  1  0  0  0  0
 14 45  1  0  0  0  0
 15 46  1  0  0  0  0
 15 47  1  0  0  0  0
 15 48  1  0  0  0  0
 16 17  2  0  0  0  0
 17 18  1  0  0  0  0
 17 31  1  0  0  0  0
 18 19  1  0  0  0  0
 19 20  2  0  0  0  0
 19 21  1  0  0  0  0
 21 22  1  0  0  0  0
 21 49  1  0  0  0  0
 22 23  1  0  0  0  0
 22 50  1  0  0  0  0
 22 51  1  0  0  0  0
 23 24  1  0  0  0  0
 23 52  1  0  0  0  0
 23 53  1  0  0  0  0
 24 29  2  0  0  0  0
 24 25  1  0  0  0  0
 25 26  2  0  0  0  0
 25 54  1  0  0  0  0
 26 27  1  0  0  0  0
 26 55  1  0  0  0  0
 27 28  2  0  0  0  0
 27 30  1  0  0  0  0
 28 29  1  0  0  0  0
 28 56  1  0  0  0  0
 29 57  1  0  0  0  0
 30 58  1  0  0  0  0
 31 59  1  0  0  0  0
M  END
$$$$
CHEMBL3978407
 OpenBabel12022418093D

 53 56  0  0  1  0  0  0  0  0999 V2000
    8.6630    4.4548   -3.5577 C   0  0  0  0  0  0  0  0  0  0  0  0
    7.5622    3.6402   -3.0098 C   0  0  0  0  0  0  0  0  0  0  0  0
    6.6073    3.9626   -2.1643 N   0  0  0  0  0  0  0  0  0  0  0  0
    5.9302    2.7622   -2.0227 C   0  0  0  0  0  0  0  0  0  0  0  0
    4.7515    2.5634   -1.0618 C   0  0  1  0  0  0  0  0  0  0  0  0
    3.7896    1.5128   -1.6685 C   0  0  0  0  0  0  0  0  0  0  0  0
    5.1643    2.1160    0.3499 C   0  0  0  0  0  0  0  0  0  0  0  0
    6.5402    1.5923    0.7126 C   0  0  0  0  0  0  0  0  0  0  0  0
    6.1036    2.9436    1.2031 C   0  0  0  0  0  0  0  0  0  0  0  0
    4.0551    3.8596   -0.9374 N   0  0  0  0  0  0  0  0  0  0  0  0
    2.9030    4.0696   -0.2115 C   0  0  0  0  0  0  0  0  0  0  0  0
    2.2866    3.1923    0.3874 O   0  0  0  0  0  0  0  0  0  0  0  0
    2.4308    5.4889   -0.1373 C   0  0  0  0  0  0  0  0  0  0  0  0
    1.3945    5.8151    0.7244 C   0  0  0  0  0  0  0  0  0  0  0  0
    1.0783    7.1617    0.8901 C   0  0  0  0  0  0  0  0  0  0  0  0
    1.8050    8.1667    0.2187 C   0  0  0  0  0  0  0  0  0  0  0  0
    2.7543    7.6926   -0.6956 C   0  0  0  0  0  0  0  0  0  0  0  0
    3.1044    6.3976   -0.8819 N   0  0  0  0  0  0  0  0  0  0  0  0
    1.5959    9.7252    0.5037 C   0  0  0  0  0  0  0  0  0  0  0  0
    1.6357   10.1598    2.0020 C   0  0  0  0  0  0  0  0  0  0  0  0
    2.6342   11.2660    1.6656 C   0  0  0  0  0  0  0  0  0  0  0  0
    2.8112   10.6758    0.2676 C   0  0  0  0  0  0  0  0  0  0  0  0
    0.4746   10.1105   -0.1591 F   0  0  0  0  0  0  0  0  0  0  0  0
    0.1360    7.6102    1.7811 O   0  0  0  0  0  0  0  0  0  0  0  0
   -1.0288    6.7879    1.9673 C   0  0  0  0  0  0  0  0  0  0  0  0
   -2.0516    7.4863    2.8672 C   0  0  0  0  0  0  0  0  0  0  0  0
   -1.6924    8.7464    3.1950 F   0  0  0  0  0  0  0  0  0  0  0  0
   -3.2608    7.5532    2.2635 F   0  0  0  0  0  0  0  0  0  0  0  0
   -2.2188    6.8011    4.0225 F   0  0  0  0  0  0  0  0  0  0  0  0
    6.4356    1.7601   -2.7628 N   0  0  0  0  0  0  0  0  0  0  0  0
    7.5111    2.3426   -3.4201 O   0  0  0  0  0  0  0  0  0  0  0  0
    9.3784    3.8360   -4.1126 H   0  0  0  0  0  0  0  0  0  0  0  0
    9.2045    4.9528   -2.7501 H   0  0  0  0  0  0  0  0  0  0  0  0
    8.2718    5.2161   -4.2368 H   0  0  0  0  0  0  0  0  0  0  0  0
    4.2770    0.5357   -1.7654 H   0  0  0  0  0  0  0  0  0  0  0  0
    3.4472    1.8222   -2.6635 H   0  0  0  0  0  0  0  0  0  0  0  0
    2.8990    1.3510   -1.0541 H   0  0  0  0  0  0  0  0  0  0  0  0
    4.3257    1.6665    0.8763 H   0  0  0  0  0  0  0  0  0  0  0  0
    7.3314    1.5609   -0.0267 H   0  0  0  0  0  0  0  0  0  0  0  0
    6.5962    0.7840    1.4349 H   0  0  0  0  0  0  0  0  0  0  0  0
    5.8610    3.0504    2.2549 H   0  0  0  0  0  0  0  0  0  0  0  0
    6.5727    3.8193    0.7692 H   0  0  0  0  0  0  0  0  0  0  0  0
    4.5212    4.6808   -1.3160 H   0  0  0  0  0  0  0  0  0  0  0  0
    0.9088    5.0311    1.2929 H   0  0  0  0  0  0  0  0  0  0  0  0
    3.3129    8.3903   -1.3173 H   0  0  0  0  0  0  0  0  0  0  0  0
    2.0402    9.4093    2.6908 H   0  0  0  0  0  0  0  0  0  0  0  0
    0.6798   10.5161    2.3990 H   0  0  0  0  0  0  0  0  0  0  0  0
    3.5412   11.2562    2.2786 H   0  0  0  0  0  0  0  0  0  0  0  0
    2.2070   12.2732    1.6789 H   0  0  0  0  0  0  0  0  0  0  0  0
    2.6692   11.3952   -0.5456 H   0  0  0  0  0  0  0  0  0  0  0  0
    3.7797   10.1852    0.1312 H   0  0  0  0  0  0  0  0  0  0  0  0
   -0.7472    5.8432    2.4418 H   0  0  0  0  0  0  0  0  0  0  0  0
   -1.4866    6.5779    0.9952 H   0  0  0  0  0  0  0  0  0  0  0  0
  1  2  1  0  0  0  0
  1 32  1  0  0  0  0
  1 33  1  0  0  0  0
  1 34  1  0  0  0  0
  2 31  1  0  0  0  0
  2  3  2  0  0  0  0
  3  4  1  0  0  0  0
  4  5  1  0  0  0  0
  4 30  2  0  0  0  0
  5  6  1  6  0  0  0
  5  7  1  0  0  0  0
  5 10  1  0  0  0  0
  6 35  1  0  0  0  0
  6 36  1  0  0  0  0
  6 37  1  0  0  0  0
  7  9  1  0  0  0  0
  7  8  1  0  0  0  0
  7 38  1  0  0  0  0
  8  9  1  0  0  0  0
  8 39  1  0  0  0  0
  8 40  1  0  0  0  0
  9 41  1  0  0  0  0
  9 42  1  0  0  0  0
 10 11  1  0  0  0  0
 10 43  1  0  0  0  0
 11 12  2  0  0  0  0
 11 13  1  0  0  0  0
 13 18  2  0  0  0  0
 13 14  1  0  0  0  0
 14 15  2  0  0  0  0
 14 44  1  0  0  0  0
 15 16  1  0  0  0  0
 15 24  1  0  0  0  0
 16 17  2  0  0  0  0
 16 19  1  0  0  0  0
 17 18  1  0  0  0  0
 17 45  1  0  0  0  0
 19 22  1  0  0  0  0
 19 20  1  0  0  0  0
 19 23  1  0  0  0  0
 20 21  1  0  0  0  0
 20 46  1  0  0  0  0
 20 47  1  0  0  0  0
 21 22  1  0  0  0  0
 21 48  1  0  0  0  0
 21 49  1  0  0  0  0
 22 50  1  0  0  0  0
 22 51  1  0  0  0  0
 24 25  1  0  0  0  0
 25 26  1  0  0  0  0
 25 52  1  0  0  0  0
 25 53  1  0  0  0  0
 26 27  1  0  0  0  0
 26 28  1  0  0  0  0
 26 29  1  0  0  0  0
 30 31  1  0  0  0  0
M  END
$$$$
CHEMBL3354958
 OpenBabel12022418093D

 45 49  0  0  1  0  0  0  0  0999 V2000
    1.3377   -1.2742   -0.0087 N   0  0  0  0  0  0  0  0  0  0  0  0
    2.4446   -0.4373    0.0445 N   0  0  0  0  0  0  0  0  0  0  0  0
    1.9360    0.8249   -0.1088 C   0  0  0  0  0  0  0  0  0  0  0  0
    0.5305    0.7782   -0.1641 C   0  0  0  0  0  0  0  0  0  0  0  0
    0.2005   -0.5395   -0.0906 C   0  0  0  0  0  0  0  0  0  0  0  0
   -1.2765   -0.7356    0.1664 C   0  0  1  0  0  0  0  0  0  0  0  0
   -1.7859    0.7202    0.2783 C   0  0  1  0  0  0  0  0  0  0  0  0
   -0.6330    1.6936   -0.0557 C   0  0  0  0  0  0  0  0  0  0  0  0
   -2.3272   -0.1978   -0.7690 C   0  0  0  0  0  0  0  0  0  0  0  0
    2.7223    2.0806   -0.1186 C   0  0  0  0  0  0  0  0  0  0  0  0
    2.1776    3.1764   -0.2467 O   0  0  0  0  0  0  0  0  0  0  0  0
    4.0908    1.9625    0.0363 N   0  0  0  0  0  0  0  0  0  0  0  0
    4.9679    3.1353    0.0730 C   0  0  0  0  0  0  0  0  0  0  0  0
    5.3807    3.6089   -1.3269 C   0  0  0  0  0  0  0  0  0  0  0  0
    6.3772    4.7617   -1.2325 C   0  0  0  0  0  0  0  0  0  0  0  0
    7.5091    4.3869   -0.4482 O   0  0  0  0  0  0  0  0  0  0  0  0
    7.1485    4.0742    0.8955 C   0  0  0  0  0  0  0  0  0  0  0  0
    6.2065    2.8776    0.9333 C   0  0  0  0  0  0  0  0  0  0  0  0
    1.3886   -2.6875    0.0740 C   0  0  0  0  0  0  0  0  0  0  0  0
    2.3633   -3.3302    0.8392 C   0  0  0  0  0  0  0  0  0  0  0  0
    2.2831   -4.7181    1.0190 C   0  0  0  0  0  0  0  0  0  0  0  0
    1.2688   -5.4510    0.3997 C   0  0  0  0  0  0  0  0  0  0  0  0
    0.3375   -4.8302   -0.4134 C   0  0  0  0  0  0  0  0  0  0  0  0
    0.3988   -3.4547   -0.5712 C   0  0  0  0  0  0  0  0  0  0  0  0
   -0.4913   -2.8901   -1.4030 F   0  0  0  0  0  0  0  0  0  0  0  0
    1.1929   -6.7737    0.5957 F   0  0  0  0  0  0  0  0  0  0  0  0
   -1.5909   -1.5515    0.8027 H   0  0  0  0  0  0  0  0  0  0  0  0
   -2.3783    0.9935    1.1376 H   0  0  0  0  0  0  0  0  0  0  0  0
   -0.8280    2.2127   -0.9985 H   0  0  0  0  0  0  0  0  0  0  0  0
   -0.5023    2.4174    0.7536 H   0  0  0  0  0  0  0  0  0  0  0  0
   -3.3365   -0.5751   -0.6406 H   0  0  0  0  0  0  0  0  0  0  0  0
   -2.0525   -0.0531   -1.8071 H   0  0  0  0  0  0  0  0  0  0  0  0
    4.4651    1.0185    0.0492 H   0  0  0  0  0  0  0  0  0  0  0  0
    4.3997    3.9509    0.5418 H   0  0  0  0  0  0  0  0  0  0  0  0
    4.5069    3.9226   -1.9088 H   0  0  0  0  0  0  0  0  0  0  0  0
    5.8494    2.7764   -1.8660 H   0  0  0  0  0  0  0  0  0  0  0  0
    5.9182    5.6600   -0.8019 H   0  0  0  0  0  0  0  0  0  0  0  0
    6.7408    5.0283   -2.2305 H   0  0  0  0  0  0  0  0  0  0  0  0
    6.7021    4.9577    1.3684 H   0  0  0  0  0  0  0  0  0  0  0  0
    8.0692    3.8420    1.4410 H   0  0  0  0  0  0  0  0  0  0  0  0
    6.7333    1.9943    0.5510 H   0  0  0  0  0  0  0  0  0  0  0  0
    5.9159    2.6627    1.9676 H   0  0  0  0  0  0  0  0  0  0  0  0
    3.1339   -2.7636    1.3578 H   0  0  0  0  0  0  0  0  0  0  0  0
    2.9867   -5.2360    1.6630 H   0  0  0  0  0  0  0  0  0  0  0  0
   -0.4318   -5.4054   -0.9137 H   0  0  0  0  0  0  0  0  0  0  0  0
  1  5  1  0  0  0  0
  1  2  1  0  0  0  0
  1 19  1  0  0  0  0
  2  3  2  0  0  0  0
  3  4  1  0  0  0  0
  3 10  1  0  0  0  0
  4  8  1  0  0  0  0
  4  5  2  0  0  0  0
  5  6  1  0  0  0  0
  6  7  1  0  0  0  0
  6  9  1  0  0  0  0
  6 27  1  1  0  0  0
  7  8  1  0  0  0  0
  7  9  1  0  0  0  0
  7 28  1  1  0  0  0
  8 29  1  0  0  0  0
  8 30  1  0  0  0  0
  9 31  1  0  0  0  0
  9 32  1  0  0  0  0
 10 11  2  0  0  0  0
 10 12  1  0  0  0  0
 12 13  1  0  0  0  0
 12 33  1  0  0  0  0
 13 18  1  0  0  0  0
 13 14  1  0  0  0  0
 13 34  1  0  0  0  0
 14 15  1  0  0  0  0
 14 35  1  0  0  0  0
 14 36  1  0  0  0  0
 15 16  1  0  0  0  0
 15 37  1  0  0  0  0
 15 38  1  0  0  0  0
 16 17  1  0  0  0  0
 17 18  1  0  0  0  0
 17 39  1  0  0  0  0
 17 40  1  0  0  0  0
 18 41  1  0  0  0  0
 18 42  1  0  0  0  0
 19 24  2  0  0  0  0
 19 20  1  0  0  0  0
 20 21  2  0  0  0  0
 20 43  1  0  0  0  0
 21 22  1  0  0  0  0
 21 44  1  0  0  0  0
 22 23  2  0  0  0  0
 22 26  1  0  0  0  0
 23 24  1  0  0  0  0
 23 45  1  0  0  0  0
 24 25  1  0  0  0  0
M  END
$$$$
CHEMBL3647332
 OpenBabel12022418093D

 61 64  0  0  1  0  0  0  0  0999 V2000
    4.8380   -5.1233   11.4522 C   0  0  0  0  0  0  0  0  0  0  0  0
    4.1077   -6.4145   11.1083 C   0  0  0  0  0  0  0  0  0  0  0  0
    2.8598   -6.1426   10.2627 C   0  0  0  0  0  0  0  0  0  0  0  0
    2.1375   -7.4370    9.8698 C   0  0  0  0  0  0  0  0  0  0  0  0
    0.9447   -7.1520    9.0750 N   0  0  0  0  0  0  0  0  0  0  0  0
    0.9932   -6.7318    7.7366 C   0  0  0  0  0  0  0  0  0  0  0  0
    2.0843   -6.6179    7.0447 N   0  0  0  0  0  0  0  0  0  0  0  0
    2.1073   -6.2801    5.7081 C   0  0  0  0  0  0  0  0  0  0  0  0
    1.2461   -6.5313    4.8783 O   0  0  0  0  0  0  0  0  0  0  0  0
    3.3858   -5.6081    5.2967 C   0  0  0  0  0  0  0  0  0  0  0  0
    3.9762   -4.7338    6.2374 C   0  0  0  0  0  0  0  0  0  0  0  0
    5.2303   -4.1523    6.0110 C   0  0  0  0  0  0  0  0  0  0  0  0
    5.9085   -4.4742    4.8376 C   0  0  0  0  0  0  0  0  0  0  0  0
    5.3181   -5.3013    3.8839 C   0  0  0  0  0  0  0  0  0  0  0  0
    4.0377   -5.8551    4.0720 C   0  0  0  0  0  0  0  0  0  0  0  0
    3.4268   -6.6315    3.1079 O   0  0  0  0  0  0  0  0  0  0  0  0
    4.1636   -6.7836    1.8817 C   0  0  0  0  0  0  0  0  0  0  0  0
    3.4044   -7.5606    0.7836 C   0  0  2  0  0  0  0  0  0  0  0  0
    2.9580   -8.9457    1.2470 C   0  0  0  0  0  0  0  0  0  0  0  0
    4.0995   -9.8821    0.8683 C   0  0  0  0  0  0  0  0  0  0  0  0
    5.0243   -9.0695   -0.0267 C   0  0  0  0  0  0  0  0  0  0  0  0
    4.2095   -7.9159   -0.4082 N   0  0  0  0  0  0  0  0  0  0  0  0
    4.9999   -6.8445   -0.9921 C   0  0  0  0  0  0  0  0  0  0  0  0
    5.8585   -3.2086    6.9978 C   0  0  0  0  0  0  0  0  0  0  0  0
    5.0604   -2.9188    8.0617 F   0  0  0  0  0  0  0  0  0  0  0  0
    7.0160   -3.6995    7.5194 F   0  0  0  0  0  0  0  0  0  0  0  0
    6.1818   -2.0101    6.4334 F   0  0  0  0  0  0  0  0  0  0  0  0
   -0.6631   -6.3819    7.1578 S   0  0  0  0  0  0  0  0  0  0  0  0
   -1.3617   -7.0674    8.6383 C   0  0  0  0  0  0  0  0  0  0  0  0
   -2.7029   -7.2940    8.8932 C   0  0  0  0  0  0  0  0  0  0  0  0
   -3.0053   -7.8912   10.1008 C   0  0  0  0  0  0  0  0  0  0  0  0
   -2.0750   -8.2382   11.0226 N   0  0  0  0  0  0  0  0  0  0  0  0
   -0.7715   -7.9888   10.7247 C   0  0  0  0  0  0  0  0  0  0  0  0
   -0.3465   -7.4136    9.5425 C   0  0  0  0  0  0  0  0  0  0  0  0
    5.7283   -5.3356   12.0529 H   0  0  0  0  0  0  0  0  0  0  0  0
    4.1946   -4.4496   12.0273 H   0  0  0  0  0  0  0  0  0  0  0  0
    5.1592   -4.6001   10.5455 H   0  0  0  0  0  0  0  0  0  0  0  0
    3.8283   -6.9261   12.0368 H   0  0  0  0  0  0  0  0  0  0  0  0
    4.7919   -7.0771   10.5655 H   0  0  0  0  0  0  0  0  0  0  0  0
    3.1542   -5.5917    9.3633 H   0  0  0  0  0  0  0  0  0  0  0  0
    2.1758   -5.4913   10.8203 H   0  0  0  0  0  0  0  0  0  0  0  0
    1.8993   -7.9951   10.7811 H   0  0  0  0  0  0  0  0  0  0  0  0
    2.8079   -8.0847    9.2933 H   0  0  0  0  0  0  0  0  0  0  0  0
    3.4454   -4.5050    7.1615 H   0  0  0  0  0  0  0  0  0  0  0  0
    6.9030   -4.0728    4.6481 H   0  0  0  0  0  0  0  0  0  0  0  0
    5.9079   -5.4943    2.9939 H   0  0  0  0  0  0  0  0  0  0  0  0
    5.0945   -7.3143    2.1128 H   0  0  0  0  0  0  0  0  0  0  0  0
    4.3893   -5.7896    1.4739 H   0  0  0  0  0  0  0  0  0  0  0  0
    2.5232   -6.9784    0.4880 H   0  0  0  0  0  0  0  0  0  0  0  0
    2.0550   -9.2451    0.6987 H   0  0  0  0  0  0  0  0  0  0  0  0
    2.7244   -8.9983    2.3135 H   0  0  0  0  0  0  0  0  0  0  0  0
    3.7086  -10.7607    0.3399 H   0  0  0  0  0  0  0  0  0  0  0  0
    4.6334  -10.2354    1.7575 H   0  0  0  0  0  0  0  0  0  0  0  0
    5.3548   -9.6452   -0.8971 H   0  0  0  0  0  0  0  0  0  0  0  0
    5.9183   -8.7734    0.5372 H   0  0  0  0  0  0  0  0  0  0  0  0
    4.3656   -5.9924   -1.2553 H   0  0  0  0  0  0  0  0  0  0  0  0
    5.4698   -7.1878   -1.9222 H   0  0  0  0  0  0  0  0  0  0  0  0
    5.7997   -6.4920   -0.3309 H   0  0  0  0  0  0  0  0  0  0  0  0
   -3.4748   -7.0365    8.1793 H   0  0  0  0  0  0  0  0  0  0  0  0
   -4.0329   -8.1239   10.3689 H   0  0  0  0  0  0  0  0  0  0  0  0
   -0.0846   -8.3093   11.4994 H   0  0  0  0  0  0  0  0  0  0  0  0
  1  2  1  0  0  0  0
  1 35  1  0  0  0  0
  1 36  1  0  0  0  0
  1 37  1  0  0  0  0
  2  3  1  0  0  0  0
  2 38  1  0  0  0  0
  2 39  1  0  0  0  0
  3  4  1  0  0  0  0
  3 40  1  0  0  0  0
  3 41  1  0  0  0  0
  4  5  1  0  0  0  0
  4 42  1  0  0  0  0
  4 43  1  0  0  0  0
  5 34  1  0  0  0  0
  5  6  1  0  0  0  0
  6  7  2  0  0  0  0
  6 28  1  0  0  0  0
  7  8  1  0  0  0  0
  8  9  2  0  0  0  0
  8 10  1  0  0  0  0
 10 15  2  0  0  0  0
 10 11  1  0  0  0  0
 11 12  2  0  0  0  0
 11 44  1  0  0  0  0
 12 13  1  0  0  0  0
 12 24  1  0  0  0  0
 13 14  2  0  0  0  0
 13 45  1  0  0  0  0
 14 15  1  0  0  0  0
 14 46  1  0  0  0  0
 15 16  1  0  0  0  0
 16 17  1  0  0  0  0
 17 47  1  0  0  0  0
 17 48  1  0  0  0  0
 18 19  1  0  0  0  0
 18 22  1  0  0  0  0
 18 17  1  0  0  0  0
 18 49  1  6  0  0  0
 19 20  1  0  0  0  0
 19 50  1  0  0  0  0
 19 51  1  0  0  0  0
 20 21  1  0  0  0  0
 20 52  1  0  0  0  0
 20 53  1  0  0  0  0
 21 22  1  0  0  0  0
 21 54  1  0  0  0  0
 21 55  1  0  0  0  0
 22 23  1  0  0  0  0
 23 56  1  0  0  0  0
 23 57  1  0  0  0  0
 23 58  1  0  0  0  0
 24 25  1  0  0  0  0
 24 26  1  0  0  0  0
 24 27  1  0  0  0  0
 28 29  1  0  0  0  0
 29 34  2  0  0  0  0
 29 30  1  0  0  0  0
 30 31  2  0  0  0  0
 30 59  1  0  0  0  0
 31 32  1  0  0  0  0
 31 60  1  0  0  0  0
 32 33  2  0  0  0  0
 33 34  1  0  0  0  0
 33 61  1  0  0  0  0
M  END
$$$$
CHEMBL3590633
 OpenBabel12022418093D

 50 51  0  0  0  0  0  0  0  0999 V2000
    5.1954   -2.2146    1.8345 C   0  0  0  0  0  0  0  0  0  0  0  0
    4.5227   -1.2566    0.8672 C   0  0  0  0  0  0  0  0  0  0  0  0
    5.1861   -1.2986   -0.5072 C   0  0  0  0  0  0  0  0  0  0  0  0
    4.4901   -0.3241   -1.4737 C   0  0  0  0  0  0  0  0  0  0  0  0
    5.0966   -0.3019   -2.7963 N   0  0  0  0  0  0  0  0  0  0  0  0
    5.1657   -1.5620   -3.3982 C   0  0  0  0  0  0  0  0  0  0  0  0
    4.4627   -2.5335   -3.1182 O   0  0  0  0  0  0  0  0  0  0  0  0
    6.3420   -1.7106   -4.2785 C   0  0  0  0  0  0  0  0  0  0  0  0
    7.1739   -2.7285   -4.0169 C   0  0  0  0  0  0  0  0  0  0  0  0
    8.4387   -2.9635   -4.5110 N   0  0  0  0  0  0  0  0  0  0  0  0
    9.3325   -4.0796   -4.1766 C   0  0  0  0  0  0  0  0  0  0  0  0
   10.6556   -3.8926   -4.9391 C   0  0  0  0  0  0  0  0  0  0  0  0
    9.6206   -4.0853   -2.6644 C   0  0  0  0  0  0  0  0  0  0  0  0
    8.6679   -5.4174   -4.5888 C   0  0  0  0  0  0  0  0  0  0  0  0
    8.3668   -5.4653   -5.9841 O   0  0  0  0  0  0  0  0  0  0  0  0
    6.7507   -0.6043   -5.1406 C   0  0  0  0  0  0  0  0  0  0  0  0
    7.3894   -0.7751   -6.1741 O   0  0  0  0  0  0  0  0  0  0  0  0
    6.3898    0.7263   -4.6287 C   0  0  0  0  0  0  0  0  0  0  0  0
    6.9343    1.8089   -5.3415 C   0  0  0  0  0  0  0  0  0  0  0  0
    6.7707    3.0974   -4.8733 C   0  0  0  0  0  0  0  0  0  0  0  0
    6.0496    3.2987   -3.7052 C   0  0  0  0  0  0  0  0  0  0  0  0
    5.4605    2.2300   -2.9820 C   0  0  0  0  0  0  0  0  0  0  0  0
    4.6730    2.6947   -1.7807 C   0  0  0  0  0  0  0  0  0  0  0  0
    5.6406    0.8904   -3.4297 C   0  0  0  0  0  0  0  0  0  0  0  0
    4.7233   -2.1496    2.8188 H   0  0  0  0  0  0  0  0  0  0  0  0
    6.2579   -1.9752    1.9468 H   0  0  0  0  0  0  0  0  0  0  0  0
    5.1113   -3.2479    1.4824 H   0  0  0  0  0  0  0  0  0  0  0  0
    4.5700   -0.2398    1.2730 H   0  0  0  0  0  0  0  0  0  0  0  0
    3.4629   -1.5220    0.7737 H   0  0  0  0  0  0  0  0  0  0  0  0
    5.1656   -2.3284   -0.8747 H   0  0  0  0  0  0  0  0  0  0  0  0
    6.2451   -1.0218   -0.4200 H   0  0  0  0  0  0  0  0  0  0  0  0
    4.5785    0.6213   -0.9748 H   0  0  0  0  0  0  0  0  0  0  0  0
    3.4198   -0.5476   -1.5738 H   0  0  0  0  0  0  0  0  0  0  0  0
    6.8746   -3.4610   -3.2650 H   0  0  0  0  0  0  0  0  0  0  0  0
    8.7260   -2.3482   -5.2804 H   0  0  0  0  0  0  0  0  0  0  0  0
   11.1357   -2.9391   -4.6868 H   0  0  0  0  0  0  0  0  0  0  0  0
   10.5000   -3.8966   -6.0236 H   0  0  0  0  0  0  0  0  0  0  0  0
   11.3644   -4.6946   -4.7004 H   0  0  0  0  0  0  0  0  0  0  0  0
   10.1036   -3.1550   -2.3430 H   0  0  0  0  0  0  0  0  0  0  0  0
   10.2777   -4.9183   -2.3892 H   0  0  0  0  0  0  0  0  0  0  0  0
    8.7022   -4.1912   -2.0766 H   0  0  0  0  0  0  0  0  0  0  0  0
    7.7303   -5.5786   -4.0458 H   0  0  0  0  0  0  0  0  0  0  0  0
    9.3300   -6.2613   -4.3637 H   0  0  0  0  0  0  0  0  0  0  0  0
    7.7238   -4.7462   -6.1374 H   0  0  0  0  0  0  0  0  0  0  0  0
    7.5138    1.6414   -6.2471 H   0  0  0  0  0  0  0  0  0  0  0  0
    7.2030    3.9375   -5.4065 H   0  0  0  0  0  0  0  0  0  0  0  0
    5.9368    4.3244   -3.3547 H   0  0  0  0  0  0  0  0  0  0  0  0
    4.5647    3.7826   -1.7520 H   0  0  0  0  0  0  0  0  0  0  0  0
    5.2047    2.4374   -0.8565 H   0  0  0  0  0  0  0  0  0  0  0  0
    3.6566    2.2931   -1.8017 H   0  0  0  0  0  0  0  0  0  0  0  0
  1  2  1  0  0  0  0
  1 25  1  0  0  0  0
  1 26  1  0  0  0  0
  1 27  1  0  0  0  0
  2  3  1  0  0  0  0
  2 28  1  0  0  0  0
  2 29  1  0  0  0  0
  3  4  1  0  0  0  0
  3 30  1  0  0  0  0
  3 31  1  0  0  0  0
  4  5  1  0  0  0  0
  4 32  1  0  0  0  0
  4 33  1  0  0  0  0
  5 24  1  0  0  0  0
  5  6  1  0  0  0  0
  6  7  2  0  0  0  0
  6  8  1  0  0  0  0
  8  9  2  0  0  0  0
  8 16  1  0  0  0  0
  9 10  1  0  0  0  0
  9 34  1  0  0  0  0
 10 11  1  0  0  0  0
 10 35  1  0  0  0  0
 11 12  1  0  0  0  0
 11 13  1  0  0  0  0
 11 14  1  0  0  0  0
 12 36  1  0  0  0  0
 12 37  1  0  0  0  0
 12 38  1  0  0  0  0
 13 39  1  0  0  0  0
 13 40  1  0  0  0  0
 13 41  1  0  0  0  0
 14 15  1  0  0  0  0
 14 42  1  0  0  0  0
 14 43  1  0  0  0  0
 15 44  1  0  0  0  0
 16 17  2  0  0  0  0
 16 18  1  0  0  0  0
 18 24  2  0  0  0  0
 18 19  1  0  0  0  0
 19 20  2  0  0  0  0
 19 45  1  0  0  0  0
 20 21  1  0  0  0  0
 20 46  1  0  0  0  0
 21 22  2  0  0  0  0
 21 47  1  0  0  0  0
 22 23  1  0  0  0  0
 22 24  1  0  0  0  0
 23 48  1  0  0  0  0
 23 49  1  0  0  0  0
 23 50  1  0  0  0  0
M  END
$$$$
CHEMBL271824
 OpenBabel12022418093D

 56 59  0  0  0  0  0  0  0  0999 V2000
   -0.1358   -0.9737   -0.0090 N   0  0  0  0  0  0  0  0  0  0  0  0
   -0.9927    0.0671   -0.2314 N   0  0  0  0  0  0  0  0  0  0  0  0
   -0.2230    1.1725   -0.2142 C   0  0  0  0  0  0  0  0  0  0  0  0
    1.1641    0.8212   -0.1887 C   0  0  0  0  0  0  0  0  0  0  0  0
    1.1844   -0.5578   -0.0131 C   0  0  0  0  0  0  0  0  0  0  0  0
    2.3281   -1.3798    0.0295 N   0  0  0  0  0  0  0  0  0  0  0  0
    2.5669   -2.5536   -0.6985 C   0  0  0  0  0  0  0  0  0  0  0  0
    3.8581   -2.9789   -0.4459 C   0  0  0  0  0  0  0  0  0  0  0  0
    4.4452   -2.0752    0.4442 C   0  0  0  0  0  0  0  0  0  0  0  0
    3.4922   -1.1314    0.7710 C   0  0  0  0  0  0  0  0  0  0  0  0
    3.6622   -0.0617    1.7974 C   0  0  0  0  0  0  0  0  0  0  0  0
    1.6414   -3.1989   -1.6743 C   0  0  0  0  0  0  0  0  0  0  0  0
    2.3064    1.7548   -0.4028 C   0  0  0  0  0  0  0  0  0  0  0  0
   -0.7957    2.5461   -0.2453 C   0  0  0  0  0  0  0  0  0  0  0  0
   -0.0916    3.5503   -0.1786 O   0  0  0  0  0  0  0  0  0  0  0  0
   -2.1781    2.6141   -0.3206 N   0  0  0  0  0  0  0  0  0  0  0  0
   -2.8881    3.8869   -0.3709 C   0  0  0  0  0  0  0  0  0  0  0  0
   -2.9999    4.4071   -1.8107 C   0  0  0  0  0  0  0  0  0  0  0  0
   -3.7440    5.7421   -1.8752 C   0  0  0  0  0  0  0  0  0  0  0  0
   -5.1181    5.6624   -1.2166 C   0  0  0  0  0  0  0  0  0  0  0  0
   -5.0349    5.1150    0.2055 C   0  0  0  0  0  0  0  0  0  0  0  0
   -4.2787    3.7819    0.2672 C   0  0  0  0  0  0  0  0  0  0  0  0
   -0.6987   -2.2549    0.2661 C   0  0  0  0  0  0  0  0  0  0  0  0
   -0.1012   -3.1412    1.1700 C   0  0  0  0  0  0  0  0  0  0  0  0
   -0.6634   -4.4070    1.3764 C   0  0  0  0  0  0  0  0  0  0  0  0
   -1.8079   -4.8007    0.6744 C   0  0  0  0  0  0  0  0  0  0  0  0
   -2.4014   -3.9188   -0.2346 C   0  0  0  0  0  0  0  0  0  0  0  0
   -1.8639   -2.6398   -0.4195 C   0  0  0  0  0  0  0  0  0  0  0  0
   -3.7696   -4.3626   -1.1928 Cl  0  0  0  0  0  0  0  0  0  0  0  0
   -2.4309   -6.3845    0.9712 Cl  0  0  0  0  0  0  0  0  0  0  0  0
    4.3311   -3.8459   -0.8904 H   0  0  0  0  0  0  0  0  0  0  0  0
    5.4527   -2.1151    0.8402 H   0  0  0  0  0  0  0  0  0  0  0  0
    2.7213    0.3930    2.1126 H   0  0  0  0  0  0  0  0  0  0  0  0
    4.3349    0.7162    1.4202 H   0  0  0  0  0  0  0  0  0  0  0  0
    4.1265   -0.4804    2.6976 H   0  0  0  0  0  0  0  0  0  0  0  0
    0.7890   -2.5812   -1.9527 H   0  0  0  0  0  0  0  0  0  0  0  0
    1.2818   -4.1523   -1.2707 H   0  0  0  0  0  0  0  0  0  0  0  0
    2.1792   -3.4222   -2.6018 H   0  0  0  0  0  0  0  0  0  0  0  0
    2.0212    2.6070   -1.0252 H   0  0  0  0  0  0  0  0  0  0  0  0
    3.1252    1.2535   -0.9289 H   0  0  0  0  0  0  0  0  0  0  0  0
    2.6769    2.1468    0.5470 H   0  0  0  0  0  0  0  0  0  0  0  0
   -2.6633    1.7271   -0.4417 H   0  0  0  0  0  0  0  0  0  0  0  0
   -2.3028    4.6181    0.2082 H   0  0  0  0  0  0  0  0  0  0  0  0
   -3.5268    3.6685   -2.4284 H   0  0  0  0  0  0  0  0  0  0  0  0
   -2.0032    4.5279   -2.2503 H   0  0  0  0  0  0  0  0  0  0  0  0
   -3.8572    6.0520   -2.9205 H   0  0  0  0  0  0  0  0  0  0  0  0
   -3.1477    6.5170   -1.3775 H   0  0  0  0  0  0  0  0  0  0  0  0
   -5.7743    5.0208   -1.8171 H   0  0  0  0  0  0  0  0  0  0  0  0
   -5.5774    6.6583   -1.2019 H   0  0  0  0  0  0  0  0  0  0  0  0
   -6.0473    4.9842    0.6055 H   0  0  0  0  0  0  0  0  0  0  0  0
   -4.5347    5.8514    0.8471 H   0  0  0  0  0  0  0  0  0  0  0  0
   -4.1876    3.4726    1.3161 H   0  0  0  0  0  0  0  0  0  0  0  0
   -4.8657    3.0106   -0.2395 H   0  0  0  0  0  0  0  0  0  0  0  0
    0.7857   -2.8698    1.7388 H   0  0  0  0  0  0  0  0  0  0  0  0
   -0.1962   -5.0909    2.0822 H   0  0  0  0  0  0  0  0  0  0  0  0
   -2.3187   -1.9698   -1.1473 H   0  0  0  0  0  0  0  0  0  0  0  0
  1  5  1  0  0  0  0
  1  2  1  0  0  0  0
  1 23  1  0  0  0  0
  2  3  2  0  0  0  0
  3  4  1  0  0  0  0
  3 14  1  0  0  0  0
  4  5  2  0  0  0  0
  4 13  1  0  0  0  0
  5  6  1  0  0  0  0
  6 10  1  0  0  0  0
  6  7  1  0  0  0  0
  7  8  2  0  0  0  0
  7 12  1  0  0  0  0
  8  9  1  0  0  0  0
  8 31  1  0  0  0  0
  9 10  2  0  0  0  0
  9 32  1  0  0  0  0
 10 11  1  0  0  0  0
 11 33  1  0  0  0  0
 11 34  1  0  0  0  0
 11 35  1  0  0  0  0
 12 36  1  0  0  0  0
 12 37  1  0  0  0  0
 12 38  1  0  0  0  0
 13 39  1  0  0  0  0
 13 40  1  0  0  0  0
 13 41  1  0  0  0  0
 14 15  2  0  0  0  0
 14 16  1  0  0  0  0
 16 17  1  0  0  0  0
 16 42  1  0  0  0  0
 17 22  1  0  0  0  0
 17 18  1  0  0  0  0
 17 43  1  0  0  0  0
 18 19  1  0  0  0  0
 18 44  1  0  0  0  0
 18 45  1  0  0  0  0
 19 20  1  0  0  0  0
 19 46  1  0  0  0  0
 19 47  1  0  0  0  0
 20 21  1  0  0  0  0
 20 48  1  0  0  0  0
 20 49  1  0  0  0  0
 21 22  1  0  0  0  0
 21 50  1  0  0  0  0
 21 51  1  0  0  0  0
 22 52  1  0  0  0  0
 22 53  1  0  0  0  0
 23 28  2  0  0  0  0
 23 24  1  0  0  0  0
 24 25  2  0  0  0  0
 24 54  1  0  0  0  0
 25 26  1  0  0  0  0
 25 55  1  0  0  0  0
 26 27  2  0  0  0  0
 26 30  1  0  0  0  0
 27 28  1  0  0  0  0
 27 29  1  0  0  0  0
 28 56  1  0  0  0  0
M  END
$$$$
CHEMBL239208
 OpenBabel12022418093D

 65 67  0  0  1  0  0  0  0  0999 V2000
   -0.7789    1.4177    0.3143 C   0  0  0  0  0  0  0  0  0  0  0  0
    0.5651    1.4100   -0.3776 C   0  0  0  0  0  0  0  0  0  0  0  0
    1.4058   -0.0774    0.1951 S   0  0  0  0  0  0  0  0  0  0  0  0
   -0.0288   -1.2285   -0.1123 C   0  0  0  0  0  0  0  0  0  0  0  0
    0.0737   -1.8001   -1.5410 C   0  0  0  0  0  0  0  0  0  0  0  0
   -0.9340   -1.7406   -2.5214 C   0  0  0  0  0  0  0  0  0  0  0  0
   -0.7961   -2.4302   -3.7516 C   0  0  0  0  0  0  0  0  0  0  0  0
    0.2912   -3.2707   -4.0324 C   0  0  0  0  0  0  0  0  0  0  0  0
    1.2589   -3.3316   -3.0217 C   0  0  0  0  0  0  0  0  0  0  0  0
    1.2105   -2.5427   -1.8724 C   0  0  0  0  0  0  0  0  0  0  0  0
    2.2797   -4.2364   -2.9878 O   0  0  0  0  0  0  0  0  0  0  0  0
    0.4060   -4.0096   -5.3795 C   0  0  1  0  0  0  0  0  0  0  0  0
    1.1808   -3.1966   -6.4681 C   0  0  1  0  0  0  0  0  0  0  0  0
    2.7090   -3.2668   -6.2795 C   0  0  0  0  0  0  0  0  0  0  0  0
    3.2617   -4.6816   -6.0401 C   0  0  0  0  0  0  0  0  0  0  0  0
    2.2777   -5.7087   -5.5254 C   0  0  0  0  0  0  0  0  0  0  0  0
    0.9949   -5.4014   -5.2196 C   0  0  0  0  0  0  0  0  0  0  0  0
    2.7821   -7.1067   -5.3442 C   0  0  0  0  0  0  0  0  0  0  0  0
    0.8063   -3.5668   -7.9209 C   0  0  0  0  0  0  0  0  0  0  0  0
    0.2900   -2.6463   -8.7549 C   0  0  0  0  0  0  0  0  0  0  0  0
    1.0612   -4.9602   -8.4427 C   0  0  0  0  0  0  0  0  0  0  0  0
   -1.8005   -2.2895   -4.6865 O   0  0  0  0  0  0  0  0  0  0  0  0
    0.0072   -2.3520    0.9871 C   0  0  0  0  0  0  0  0  0  0  0  0
   -1.1213   -3.3964    0.8722 C   0  0  0  0  0  0  0  0  0  0  0  0
   -1.1014   -4.4912    1.9403 C   0  0  0  0  0  0  0  0  0  0  0  0
   -2.2758   -5.4463    1.6787 C   0  0  0  0  0  0  0  0  0  0  0  0
   -2.3494   -6.5743    2.6996 C   0  0  0  0  0  0  0  0  0  0  0  0
   -3.5204   -7.5006    2.4061 C   0  0  0  0  0  0  0  0  0  0  0  0
   -1.5582   -0.2093    0.1692 S   0  0  0  0  0  0  0  0  0  0  0  0
   -0.6763    1.6626    1.3772 H   0  0  0  0  0  0  0  0  0  0  0  0
   -1.4422    2.1635   -0.1326 H   0  0  0  0  0  0  0  0  0  0  0  0
    1.1434    2.3012   -0.1138 H   0  0  0  0  0  0  0  0  0  0  0  0
    0.4636    1.3874   -1.4680 H   0  0  0  0  0  0  0  0  0  0  0  0
   -1.8463   -1.1810   -2.3331 H   0  0  0  0  0  0  0  0  0  0  0  0
    2.0665   -2.5887   -1.2048 H   0  0  0  0  0  0  0  0  0  0  0  0
    1.8747   -5.0934   -3.2256 H   0  0  0  0  0  0  0  0  0  0  0  0
   -0.6082   -4.1791   -5.7514 H   0  0  0  0  0  0  0  0  0  0  0  0
    0.9026   -2.1399   -6.3357 H   0  0  0  0  0  0  0  0  0  0  0  0
    2.9910   -2.6237   -5.4355 H   0  0  0  0  0  0  0  0  0  0  0  0
    3.2220   -2.8253   -7.1456 H   0  0  0  0  0  0  0  0  0  0  0  0
    4.1111   -4.6067   -5.3489 H   0  0  0  0  0  0  0  0  0  0  0  0
    3.6818   -5.0562   -6.9805 H   0  0  0  0  0  0  0  0  0  0  0  0
    0.3326   -6.1571   -4.8070 H   0  0  0  0  0  0  0  0  0  0  0  0
    3.8180   -7.2035   -5.6836 H   0  0  0  0  0  0  0  0  0  0  0  0
    2.1748   -7.8007   -5.9342 H   0  0  0  0  0  0  0  0  0  0  0  0
    2.7458   -7.4077   -4.2918 H   0  0  0  0  0  0  0  0  0  0  0  0
    0.0562   -2.8873   -9.7871 H   0  0  0  0  0  0  0  0  0  0  0  0
    0.1057   -1.6243   -8.4384 H   0  0  0  0  0  0  0  0  0  0  0  0
    0.6605   -5.1001   -9.4499 H   0  0  0  0  0  0  0  0  0  0  0  0
    0.5875   -5.7184   -7.8159 H   0  0  0  0  0  0  0  0  0  0  0  0
    2.1342   -5.1579   -8.5092 H   0  0  0  0  0  0  0  0  0  0  0  0
   -2.4539   -1.6607   -4.3610 H   0  0  0  0  0  0  0  0  0  0  0  0
   -0.0618   -1.8942    1.9833 H   0  0  0  0  0  0  0  0  0  0  0  0
    0.9685   -2.8852    0.9656 H   0  0  0  0  0  0  0  0  0  0  0  0
   -1.0868   -3.8765   -0.1109 H   0  0  0  0  0  0  0  0  0  0  0  0
   -2.0888   -2.8945    0.9627 H   0  0  0  0  0  0  0  0  0  0  0  0
   -1.2034   -4.0460    2.9384 H   0  0  0  0  0  0  0  0  0  0  0  0
   -0.1537   -5.0437    1.9201 H   0  0  0  0  0  0  0  0  0  0  0  0
   -2.1824   -5.8702    0.6703 H   0  0  0  0  0  0  0  0  0  0  0  0
   -3.2169   -4.8811    1.6963 H   0  0  0  0  0  0  0  0  0  0  0  0
   -2.4620   -6.1567    3.7060 H   0  0  0  0  0  0  0  0  0  0  0  0
   -1.4181   -7.1511    2.6831 H   0  0  0  0  0  0  0  0  0  0  0  0
   -4.4709   -6.9585    2.4480 H   0  0  0  0  0  0  0  0  0  0  0  0
   -3.5573   -8.3091    3.1427 H   0  0  0  0  0  0  0  0  0  0  0  0
   -3.4270   -7.9496    1.4118 H   0  0  0  0  0  0  0  0  0  0  0  0
  1 29  1  0  0  0  0
  1  2  1  0  0  0  0
  1 30  1  0  0  0  0
  1 31  1  0  0  0  0
  2  3  1  0  0  0  0
  2 32  1  0  0  0  0
  2 33  1  0  0  0  0
  3  4  1  0  0  0  0
  4  5  1  0  0  0  0
  4 23  1  0  0  0  0
  4 29  1  0  0  0  0
  5 10  2  0  0  0  0
  5  6  1  0  0  0  0
  6  7  2  0  0  0  0
  6 34  1  0  0  0  0
  7  8  1  0  0  0  0
  7 22  1  0  0  0  0
  8  9  2  0  0  0  0
  9 10  1  0  0  0  0
  9 11  1  0  0  0  0
 10 35  1  0  0  0  0
 11 36  1  0  0  0  0
 12  8  1  0  0  0  0
 12 13  1  0  0  0  0
 12 17  1  0  0  0  0
 12 37  1  6  0  0  0
 13 14  1  0  0  0  0
 13 19  1  0  0  0  0
 13 38  1  1  0  0  0
 14 15  1  0  0  0  0
 14 39  1  0  0  0  0
 14 40  1  0  0  0  0
 15 16  1  0  0  0  0
 15 41  1  0  0  0  0
 15 42  1  0  0  0  0
 16 17  2  0  0  0  0
 16 18  1  0  0  0  0
 17 43  1  0  0  0  0
 18 44  1  0  0  0  0
 18 45  1  0  0  0  0
 18 46  1  0  0  0  0
 19 20  2  0  0  0  0
 19 21  1  0  0  0  0
 20 47  1  0  0  0  0
 20 48  1  0  0  0  0
 21 49  1  0  0  0  0
 21 50  1  0  0  0  0
 21 51  1  0  0  0  0
 22 52  1  0  0  0  0
 23 24  1  0  0  0  0
 23 53  1  0  0  0  0
 23 54  1  0  0  0  0
 24 25  1  0  0  0  0
 24 55  1  0  0  0  0
 24 56  1  0  0  0  0
 25 26  1  0  0  0  0
 25 57  1  0  0  0  0
 25 58  1  0  0  0  0
 26 27  1  0  0  0  0
 26 59  1  0  0  0  0
 26 60  1  0  0  0  0
 27 28  1  0  0  0  0
 27 61  1  0  0  0  0
 27 62  1  0  0  0  0
 28 63  1  0  0  0  0
 28 64  1  0  0  0  0
 28 65  1  0  0  0  0
M  END
$$$$
CHEMBL496781
 OpenBabel12022418093D

 56 59  0  0  0  0  0  0  0  0999 V2000
    7.2401   -6.0705   -3.8233 C   0  0  0  0  0  0  0  0  0  0  0  0
    5.8506   -5.5289   -4.1346 C   0  0  0  0  0  0  0  0  0  0  0  0
    4.7889   -6.6018   -4.0012 C   0  0  0  0  0  0  0  0  0  0  0  0
    4.1679   -6.9635   -2.7972 C   0  0  0  0  0  0  0  0  0  0  0  0
    3.3534   -8.1064   -2.7471 C   0  0  0  0  0  0  0  0  0  0  0  0
    3.0901   -8.8514   -3.8948 C   0  0  0  0  0  0  0  0  0  0  0  0
    3.6685   -8.4804   -5.1001 C   0  0  0  0  0  0  0  0  0  0  0  0
    4.5183   -7.3746   -5.1520 C   0  0  0  0  0  0  0  0  0  0  0  0
    4.3470   -6.2883   -1.5738 N   0  0  0  0  0  0  0  0  0  0  0  0
    4.0572   -4.9419   -1.4090 C   0  0  0  0  0  0  0  0  0  0  0  0
    3.7243   -4.1519   -2.2893 O   0  0  0  0  0  0  0  0  0  0  0  0
    4.1094   -4.5190    0.0495 C   0  0  0  0  0  0  0  0  0  0  0  0
    2.4456   -4.5869    0.7718 S   0  0  0  0  0  0  0  0  0  0  0  0
    2.1700   -6.2910    0.9925 C   0  0  0  0  0  0  0  0  0  0  0  0
    3.0906   -7.1999    0.7889 N   0  0  0  0  0  0  0  0  0  0  0  0
    2.5289   -8.4300    0.9739 N   0  0  0  0  0  0  0  0  0  0  0  0
    1.2659   -8.2766    1.3374 C   0  0  0  0  0  0  0  0  0  0  0  0
    0.3944   -9.3748    1.8240 C   0  0  0  0  0  0  0  0  0  0  0  0
    0.2446  -10.6003    1.1358 C   0  0  0  0  0  0  0  0  0  0  0  0
   -0.7072  -11.5333    1.5864 C   0  0  0  0  0  0  0  0  0  0  0  0
   -1.5305  -11.2537    2.6774 C   0  0  0  0  0  0  0  0  0  0  0  0
   -1.3577  -10.0755    3.3856 C   0  0  0  0  0  0  0  0  0  0  0  0
   -0.3679   -9.1744    2.9946 C   0  0  0  0  0  0  0  0  0  0  0  0
    1.0399  -10.8185    0.0372 O   0  0  0  0  0  0  0  0  0  0  0  0
    0.6987  -11.9187   -0.8024 C   0  0  0  0  0  0  0  0  0  0  0  0
    0.9523   -6.8950    1.3000 N   0  0  0  0  0  0  0  0  0  0  0  0
   -0.3165   -6.2885    1.5857 C   0  0  0  0  0  0  0  0  0  0  0  0
   -0.4040   -5.0573    2.2497 C   0  0  0  0  0  0  0  0  0  0  0  0
   -1.6399   -4.5749    2.6918 C   0  0  0  0  0  0  0  0  0  0  0  0
   -2.7942   -5.3289    2.5084 C   0  0  0  0  0  0  0  0  0  0  0  0
   -2.7283   -6.5286    1.8100 C   0  0  0  0  0  0  0  0  0  0  0  0
   -1.5053   -6.9812    1.3099 C   0  0  0  0  0  0  0  0  0  0  0  0
    8.0030   -5.3467   -4.1280 H   0  0  0  0  0  0  0  0  0  0  0  0
    7.4376   -7.0114   -4.3479 H   0  0  0  0  0  0  0  0  0  0  0  0
    7.3580   -6.2518   -2.7496 H   0  0  0  0  0  0  0  0  0  0  0  0
    5.8382   -5.1349   -5.1589 H   0  0  0  0  0  0  0  0  0  0  0  0
    5.6564   -4.6652   -3.4991 H   0  0  0  0  0  0  0  0  0  0  0  0
    2.8834   -8.4101   -1.8136 H   0  0  0  0  0  0  0  0  0  0  0  0
    2.4346   -9.7155   -3.8395 H   0  0  0  0  0  0  0  0  0  0  0  0
    3.4783   -9.0620   -5.9977 H   0  0  0  0  0  0  0  0  0  0  0  0
    4.9978   -7.1298   -6.0980 H   0  0  0  0  0  0  0  0  0  0  0  0
    4.1186   -6.8494   -0.7540 H   0  0  0  0  0  0  0  0  0  0  0  0
    4.4697   -3.4837    0.0860 H   0  0  0  0  0  0  0  0  0  0  0  0
    4.8251   -5.1223    0.6169 H   0  0  0  0  0  0  0  0  0  0  0  0
   -0.8470  -12.4933    1.0998 H   0  0  0  0  0  0  0  0  0  0  0  0
   -2.2980  -11.9633    2.9771 H   0  0  0  0  0  0  0  0  0  0  0  0
   -1.9995   -9.8438    4.2315 H   0  0  0  0  0  0  0  0  0  0  0  0
   -0.2505   -8.2648    3.5805 H   0  0  0  0  0  0  0  0  0  0  0  0
    1.4054  -11.9434   -1.6368 H   0  0  0  0  0  0  0  0  0  0  0  0
   -0.3067  -11.7873   -1.2171 H   0  0  0  0  0  0  0  0  0  0  0  0
    0.7849  -12.8773   -0.2781 H   0  0  0  0  0  0  0  0  0  0  0  0
    0.4654   -4.4651    2.5112 H   0  0  0  0  0  0  0  0  0  0  0  0
   -1.6908   -3.6226    3.2141 H   0  0  0  0  0  0  0  0  0  0  0  0
   -3.7422   -4.9807    2.9095 H   0  0  0  0  0  0  0  0  0  0  0  0
   -3.6254   -7.1268    1.6679 H   0  0  0  0  0  0  0  0  0  0  0  0
   -1.5089   -7.9077    0.7388 H   0  0  0  0  0  0  0  0  0  0  0  0
  1  2  1  0  0  0  0
  1 33  1  0  0  0  0
  1 34  1  0  0  0  0
  1 35  1  0  0  0  0
  2  3  1  0  0  0  0
  2 36  1  0  0  0  0
  2 37  1  0  0  0  0
  3  8  2  0  0  0  0
  3  4  1  0  0  0  0
  4  5  2  0  0  0  0
  4  9  1  0  0  0  0
  5  6  1  0  0  0  0
  5 38  1  0  0  0  0
  6  7  2  0  0  0  0
  6 39  1  0  0  0  0
  7  8  1  0  0  0  0
  7 40  1  0  0  0  0
  8 41  1  0  0  0  0
  9 10  1  0  0  0  0
  9 42  1  0  0  0  0
 10 11  2  0  0  0  0
 10 12  1  0  0  0  0
 12 13  1  0  0  0  0
 12 43  1  0  0  0  0
 12 44  1  0  0  0  0
 13 14  1  0  0  0  0
 14 26  1  0  0  0  0
 14 15  2  0  0  0  0
 15 16  1  0  0  0  0
 16 17  2  0  0  0  0
 17 18  1  0  0  0  0
 17 26  1  0  0  0  0
 18 23  2  0  0  0  0
 18 19  1  0  0  0  0
 19 20  2  0  0  0  0
 19 24  1  0  0  0  0
 20 21  1  0  0  0  0
 20 45  1  0  0  0  0
 21 22  2  0  0  0  0
 21 46  1  0  0  0  0
 22 23  1  0  0  0  0
 22 47  1  0  0  0  0
 23 48  1  0  0  0  0
 24 25  1  0  0  0  0
 25 49  1  0  0  0  0
 25 50  1  0  0  0  0
 25 51  1  0  0  0  0
 26 27  1  0  0  0  0
 27 32  2  0  0  0  0
 27 28  1  0  0  0  0
 28 29  2  0  0  0  0
 28 52  1  0  0  0  0
 29 30  1  0  0  0  0
 29 53  1  0  0  0  0
 30 31  2  0  0  0  0
 30 54  1  0  0  0  0
 31 32  1  0  0  0  0
 31 55  1  0  0  0  0
 32 56  1  0  0  0  0
M  END
$$$$
CHEMBL3985919
 OpenBabel12022418093D

 52 54  0  0  1  0  0  0  0  0999 V2000
    3.5461    0.9926   -1.6929 C   0  0  0  0  0  0  0  0  0  0  0  0
    4.9503    0.5656   -1.2282 C   0  0  1  0  0  0  0  0  0  0  0  0
    4.9870   -0.9731   -1.0297 C   0  0  0  0  0  0  0  0  0  0  0  0
    4.6776   -1.7525   -2.2943 C   0  0  0  0  0  0  0  0  0  0  0  0
    5.3418   -1.7126   -3.3173 O   0  0  0  0  0  0  0  0  0  0  0  0
    3.5732   -2.5554   -2.2139 N   0  0  0  0  0  0  0  0  0  0  0  0
    6.0310    1.0074   -2.2232 C   0  0  0  0  0  0  0  0  0  0  0  0
    5.7254    1.4998   -3.6299 C   0  0  0  0  0  0  0  0  0  0  0  0
    6.2101    2.4636   -2.5908 C   0  0  0  0  0  0  0  0  0  0  0  0
    5.2667    1.2463    0.0461 N   0  0  0  0  0  0  0  0  0  0  0  0
    4.5068    1.1032    1.1967 C   0  0  0  0  0  0  0  0  0  0  0  0
    3.5249    0.3818    1.2918 O   0  0  0  0  0  0  0  0  0  0  0  0
    4.9714    1.8743    2.3977 C   0  0  0  0  0  0  0  0  0  0  0  0
    4.3221    1.7312    3.6205 C   0  0  0  0  0  0  0  0  0  0  0  0
    4.8323    2.4254    4.7212 C   0  0  0  0  0  0  0  0  0  0  0  0
    5.9981    3.2186    4.6102 C   0  0  0  0  0  0  0  0  0  0  0  0
    6.5375    3.2795    3.3196 C   0  0  0  0  0  0  0  0  0  0  0  0
    6.0576    2.6568    2.2176 N   0  0  0  0  0  0  0  0  0  0  0  0
    6.6895    3.9377    5.8618 C   0  0  0  0  0  0  0  0  0  0  0  0
    7.6930    5.1162    5.6200 C   0  0  0  0  0  0  0  0  0  0  0  0
    6.5767    6.1071    5.9629 C   0  0  0  0  0  0  0  0  0  0  0  0
    5.8346    4.9666    6.6701 C   0  0  0  0  0  0  0  0  0  0  0  0
    7.2264    2.9491    6.6254 F   0  0  0  0  0  0  0  0  0  0  0  0
    4.2990    2.3374    5.9836 O   0  0  0  0  0  0  0  0  0  0  0  0
    2.8800    2.1305    6.0840 C   0  0  0  0  0  0  0  0  0  0  0  0
    2.3179    2.7632    7.3555 C   0  0  0  0  0  0  0  0  0  0  0  0
    3.2606    3.4035    8.0804 F   0  0  0  0  0  0  0  0  0  0  0  0
    1.3550    3.6681    7.0586 F   0  0  0  0  0  0  0  0  0  0  0  0
    1.7557    1.8263    8.1538 F   0  0  0  0  0  0  0  0  0  0  0  0
    3.2955    0.5188   -2.6458 H   0  0  0  0  0  0  0  0  0  0  0  0
    3.4840    2.0777   -1.8264 H   0  0  0  0  0  0  0  0  0  0  0  0
    2.7637    0.7155   -0.9822 H   0  0  0  0  0  0  0  0  0  0  0  0
    4.2641   -1.2826   -0.2651 H   0  0  0  0  0  0  0  0  0  0  0  0
    5.9658   -1.2988   -0.6546 H   0  0  0  0  0  0  0  0  0  0  0  0
    2.8648   -2.4116   -1.5060 H   0  0  0  0  0  0  0  0  0  0  0  0
    3.3019   -3.0369   -3.0621 H   0  0  0  0  0  0  0  0  0  0  0  0
    6.9503    0.4397   -2.0977 H   0  0  0  0  0  0  0  0  0  0  0  0
    4.7053    1.6171   -3.9791 H   0  0  0  0  0  0  0  0  0  0  0  0
    6.4048    1.2149   -4.4264 H   0  0  0  0  0  0  0  0  0  0  0  0
    7.2228    2.8395   -2.6877 H   0  0  0  0  0  0  0  0  0  0  0  0
    5.5067    3.1919   -2.2035 H   0  0  0  0  0  0  0  0  0  0  0  0
    5.9851    1.9627    0.0611 H   0  0  0  0  0  0  0  0  0  0  0  0
    3.4707    1.0622    3.7009 H   0  0  0  0  0  0  0  0  0  0  0  0
    7.4380    3.8516    3.1195 H   0  0  0  0  0  0  0  0  0  0  0  0
    8.1187    5.2410    4.6223 H   0  0  0  0  0  0  0  0  0  0  0  0
    8.5237    5.1206    6.3364 H   0  0  0  0  0  0  0  0  0  0  0  0
    6.0506    6.5009    5.0864 H   0  0  0  0  0  0  0  0  0  0  0  0
    6.8771    6.9426    6.6011 H   0  0  0  0  0  0  0  0  0  0  0  0
    6.0159    4.9231    7.7503 H   0  0  0  0  0  0  0  0  0  0  0  0
    4.7550    4.9551    6.4985 H   0  0  0  0  0  0  0  0  0  0  0  0
    2.6847    1.0525    6.1108 H   0  0  0  0  0  0  0  0  0  0  0  0
    2.3611    2.5681    5.2238 H   0  0  0  0  0  0  0  0  0  0  0  0
  1 30  1  0  0  0  0
  1 31  1  0  0  0  0
  1 32  1  0  0  0  0
  2  1  1  6  0  0  0
  2  3  1  0  0  0  0
  2  7  1  0  0  0  0
  2 10  1  0  0  0  0
  3  4  1  0  0  0  0
  3 33  1  0  0  0  0
  3 34  1  0  0  0  0
  4  5  2  0  0  0  0
  4  6  1  0  0  0  0
  6 35  1  0  0  0  0
  6 36  1  0  0  0  0
  7  9  1  0  0  0  0
  7  8  1  0  0  0  0
  7 37  1  0  0  0  0
  8  9  1  0  0  0  0
  8 38  1  0  0  0  0
  8 39  1  0  0  0  0
  9 40  1  0  0  0  0
  9 41  1  0  0  0  0
 10 11  1  0  0  0  0
 10 42  1  0  0  0  0
 11 12  2  0  0  0  0
 11 13  1  0  0  0  0
 13 18  2  0  0  0  0
 13 14  1  0  0  0  0
 14 15  2  0  0  0  0
 14 43  1  0  0  0  0
 15 16  1  0  0  0  0
 15 24  1  0  0  0  0
 16 17  2  0  0  0  0
 16 19  1  0  0  0  0
 17 18  1  0  0  0  0
 17 44  1  0  0  0  0
 19 22  1  0  0  0  0
 19 20  1  0  0  0  0
 19 23  1  0  0  0  0
 20 21  1  0  0  0  0
 20 45  1  0  0  0  0
 20 46  1  0  0  0  0
 21 22  1  0  0  0  0
 21 47  1  0  0  0  0
 21 48  1  0  0  0  0
 22 49  1  0  0  0  0
 22 50  1  0  0  0  0
 24 25  1  0  0  0  0
 25 26  1  0  0  0  0
 25 51  1  0  0  0  0
 25 52  1  0  0  0  0
 26 27  1  0  0  0  0
 26 28  1  0  0  0  0
 26 29  1  0  0  0  0
M  END
$$$$
CHEMBL2206850
 OpenBabel12022418093D

 49 52  0  0  0  0  0  0  0  0999 V2000
   -2.0725   -0.9465    0.0476 C   0  0  0  0  0  0  0  0  0  0  0  0
   -2.1186    0.4289   -0.1353 C   0  0  0  0  0  0  0  0  0  0  0  0
   -0.9472    1.1924   -0.1374 C   0  0  0  0  0  0  0  0  0  0  0  0
    0.2822    0.5337    0.0605 C   0  0  0  0  0  0  0  0  0  0  0  0
    0.3506   -0.8451    0.2977 C   0  0  0  0  0  0  0  0  0  0  0  0
   -0.8526   -1.5916    0.2724 C   0  0  0  0  0  0  0  0  0  0  0  0
    1.7185   -1.1817    0.5950 C   0  0  0  0  0  0  0  0  0  0  0  0
    2.4479   -0.0281    0.3571 C   0  0  0  0  0  0  0  0  0  0  0  0
    1.5774    1.0068    0.0947 N   0  0  0  0  0  0  0  0  0  0  0  0
    1.9799    2.3994   -0.0199 C   0  0  0  0  0  0  0  0  0  0  0  0
    3.0137    2.6917   -1.1070 C   0  0  0  0  0  0  0  0  0  0  0  0
    2.5000    2.4269   -2.5254 C   0  0  0  0  0  0  0  0  0  0  0  0
    3.5793    2.7619   -3.5569 C   0  0  0  0  0  0  0  0  0  0  0  0
    3.1097    2.5012   -4.9782 C   0  0  0  0  0  0  0  0  0  0  0  0
    2.2093   -2.4898    1.0646 C   0  0  0  0  0  0  0  0  0  0  0  0
    1.5037   -3.4996    1.0219 O   0  0  0  0  0  0  0  0  0  0  0  0
    3.6133   -2.6669    1.5409 C   0  0  0  0  0  0  0  0  0  0  0  0
    4.2963   -3.7430    0.9506 C   0  0  0  0  0  0  0  0  0  0  0  0
    5.6631   -3.9035    1.1134 C   0  0  0  0  0  0  0  0  0  0  0  0
    6.3646   -2.9406    1.8222 C   0  0  0  0  0  0  0  0  0  0  0  0
    5.6972   -1.8456    2.3982 C   0  0  0  0  0  0  0  0  0  0  0  0
    4.2839   -1.7711    2.4402 C   0  0  0  0  0  0  0  0  0  0  0  0
    3.7447   -0.8000    3.3406 C   0  0  0  0  0  0  0  0  0  0  0  0
    4.5450    0.2213    3.8659 C   0  0  0  0  0  0  0  0  0  0  0  0
    5.8786    0.3025    3.5097 C   0  0  0  0  0  0  0  0  0  0  0  0
    6.4731   -0.7859    2.8834 C   0  0  0  0  0  0  0  0  0  0  0  0
    1.7779   -0.8653    4.1133 I   0  0  0  0  0  0  0  0  0  0  0  0
   -2.9896   -1.5293    0.0336 H   0  0  0  0  0  0  0  0  0  0  0  0
   -3.0783    0.9193   -0.2811 H   0  0  0  0  0  0  0  0  0  0  0  0
   -1.0055    2.2661   -0.2885 H   0  0  0  0  0  0  0  0  0  0  0  0
   -0.8294   -2.6650    0.4319 H   0  0  0  0  0  0  0  0  0  0  0  0
    3.5115    0.1616    0.4144 H   0  0  0  0  0  0  0  0  0  0  0  0
    2.3886    2.6735    0.9597 H   0  0  0  0  0  0  0  0  0  0  0  0
    1.0927    3.0183   -0.1821 H   0  0  0  0  0  0  0  0  0  0  0  0
    3.9231    2.1068   -0.9298 H   0  0  0  0  0  0  0  0  0  0  0  0
    3.3001    3.7472   -1.0266 H   0  0  0  0  0  0  0  0  0  0  0  0
    1.6054    3.0325   -2.7144 H   0  0  0  0  0  0  0  0  0  0  0  0
    2.2089    1.3752   -2.6312 H   0  0  0  0  0  0  0  0  0  0  0  0
    4.4759    2.1614   -3.3616 H   0  0  0  0  0  0  0  0  0  0  0  0
    3.8694    3.8151   -3.4627 H   0  0  0  0  0  0  0  0  0  0  0  0
    2.8463    1.4483   -5.1180 H   0  0  0  0  0  0  0  0  0  0  0  0
    3.9047    2.7491   -5.6890 H   0  0  0  0  0  0  0  0  0  0  0  0
    2.2346    3.1119   -5.2214 H   0  0  0  0  0  0  0  0  0  0  0  0
    3.7564   -4.4392    0.3057 H   0  0  0  0  0  0  0  0  0  0  0  0
    6.1756   -4.7559    0.6875 H   0  0  0  0  0  0  0  0  0  0  0  0
    7.4433   -3.0327    1.8979 H   0  0  0  0  0  0  0  0  0  0  0  0
    4.1414    0.9598    4.5557 H   0  0  0  0  0  0  0  0  0  0  0  0
    6.4687    1.1819    3.7636 H   0  0  0  0  0  0  0  0  0  0  0  0
    7.5481   -0.7729    2.7340 H   0  0  0  0  0  0  0  0  0  0  0  0
  1  6  2  0  0  0  0
  1  2  1  0  0  0  0
  1 28  1  0  0  0  0
  2  3  2  0  0  0  0
  2 29  1  0  0  0  0
  3  4  1  0  0  0  0
  3 30  1  0  0  0  0
  4  9  1  0  0  0  0
  4  5  2  0  0  0  0
  5  6  1  0  0  0  0
  5  7  1  0  0  0  0
  6 31  1  0  0  0  0
  7  8  2  0  0  0  0
  7 15  1  0  0  0  0
  8  9  1  0  0  0  0
  8 32  1  0  0  0  0
  9 10  1  0  0  0  0
 10 11  1  0  0  0  0
 10 33  1  0  0  0  0
 10 34  1  0  0  0  0
 11 12  1  0  0  0  0
 11 35  1  0  0  0  0
 11 36  1  0  0  0  0
 12 13  1  0  0  0  0
 12 37  1  0  0  0  0
 12 38  1  0  0  0  0
 13 14  1  0  0  0  0
 13 39  1  0  0  0  0
 13 40  1  0  0  0  0
 14 41  1  0  0  0  0
 14 42  1  0  0  0  0
 14 43  1  0  0  0  0
 15 16  2  0  0  0  0
 15 17  1  0  0  0  0
 17 22  2  0  0  0  0
 17 18  1  0  0  0  0
 18 19  2  0  0  0  0
 18 44  1  0  0  0  0
 19 20  1  0  0  0  0
 19 45  1  0  0  0  0
 20 21  2  0  0  0  0
 20 46  1  0  0  0  0
 21 26  1  0  0  0  0
 21 22  1  0  0  0  0
 22 23  1  0  0  0  0
 23 24  2  0  0  0  0
 23 27  1  0  0  0  0
 24 25  1  0  0  0  0
 24 47  1  0  0  0  0
 25 26  2  0  0  0  0
 25 48  1  0  0  0  0
 26 49  1  0  0  0  0
M  END
$$$$
CHEMBL3354946
 OpenBabel12022418093D

 48 53  0  0  1  0  0  0  0  0999 V2000
    3.2925    0.6850    2.6047 C   0  0  0  0  0  0  0  0  0  0  0  0
    2.0802    1.2594    1.8944 C   0  0  0  0  0  0  0  0  0  0  0  0
    3.4776    1.8140    1.6470 C   0  0  0  0  0  0  0  0  0  0  0  0
    1.1240    2.1868    2.6504 C   0  0  0  0  0  0  0  0  0  0  0  0
    0.4387    1.7762    3.8077 C   0  0  0  0  0  0  0  0  0  0  0  0
   -0.3973    2.6516    4.5124 C   0  0  0  0  0  0  0  0  0  0  0  0
   -0.5716    3.9616    4.0723 C   0  0  0  0  0  0  0  0  0  0  0  0
    0.0784    4.3912    2.9206 C   0  0  0  0  0  0  0  0  0  0  0  0
    0.9061    3.5105    2.2184 C   0  0  0  0  0  0  0  0  0  0  0  0
    1.4528    0.5000    0.8437 N   0  0  0  0  0  0  0  0  0  0  0  0
    1.0895   -0.8305    0.9817 C   0  0  0  0  0  0  0  0  0  0  0  0
    1.4747   -1.5697    1.8836 O   0  0  0  0  0  0  0  0  0  0  0  0
    0.0352   -1.2489    0.0105 C   0  0  0  0  0  0  0  0  0  0  0  0
   -0.8808   -2.2606    0.3175 C   0  0  0  0  0  0  0  0  0  0  0  0
   -1.9760   -1.5016    0.6644 C   0  0  0  0  0  0  0  0  0  0  0  0
   -3.0572   -2.3880    1.2520 C   0  0  1  0  0  0  0  0  0  0  0  0
   -2.6728   -3.7644    0.7022 C   0  0  1  0  0  0  0  0  0  0  0  0
   -1.3602   -3.6228   -0.1038 C   0  0  0  0  0  0  0  0  0  0  0  0
   -2.6590   -3.5243    2.1809 C   0  0  0  0  0  0  0  0  0  0  0  0
   -1.9268   -0.4355   -0.2265 N   0  0  0  0  0  0  0  0  0  0  0  0
   -3.0117    0.0337   -0.9988 C   0  0  0  0  0  0  0  0  0  0  0  0
   -2.8678    0.1706   -2.3912 C   0  0  0  0  0  0  0  0  0  0  0  0
   -4.0029    0.3184   -3.1821 C   0  0  0  0  0  0  0  0  0  0  0  0
   -5.2586    0.3521   -2.5815 C   0  0  0  0  0  0  0  0  0  0  0  0
   -5.4000    0.3030   -1.1992 C   0  0  0  0  0  0  0  0  0  0  0  0
   -4.2725    0.1560   -0.4151 C   0  0  0  0  0  0  0  0  0  0  0  0
   -4.4148    0.1428    0.9193 F   0  0  0  0  0  0  0  0  0  0  0  0
   -6.3538    0.4207   -3.3475 F   0  0  0  0  0  0  0  0  0  0  0  0
   -0.6310   -0.2761   -0.6644 N   0  0  0  0  0  0  0  0  0  0  0  0
    3.4036    0.8727    3.6655 H   0  0  0  0  0  0  0  0  0  0  0  0
    3.6596   -0.2892    2.2999 H   0  0  0  0  0  0  0  0  0  0  0  0
    3.7547    2.7706    2.0765 H   0  0  0  0  0  0  0  0  0  0  0  0
    3.9386    1.6112    0.6887 H   0  0  0  0  0  0  0  0  0  0  0  0
    0.5661    0.7583    4.1716 H   0  0  0  0  0  0  0  0  0  0  0  0
   -0.9065    2.3117    5.4117 H   0  0  0  0  0  0  0  0  0  0  0  0
   -1.2100    4.6456    4.6252 H   0  0  0  0  0  0  0  0  0  0  0  0
   -0.0493    5.4123    2.5704 H   0  0  0  0  0  0  0  0  0  0  0  0
    1.4120    3.8686    1.3240 H   0  0  0  0  0  0  0  0  0  0  0  0
    0.8989    1.0052    0.1564 H   0  0  0  0  0  0  0  0  0  0  0  0
   -4.0824   -2.0584    1.2995 H   0  0  0  0  0  0  0  0  0  0  0  0
   -3.4508   -4.3553    0.2422 H   0  0  0  0  0  0  0  0  0  0  0  0
   -0.6671   -4.4370    0.0924 H   0  0  0  0  0  0  0  0  0  0  0  0
   -1.6256   -3.6099   -1.1712 H   0  0  0  0  0  0  0  0  0  0  0  0
   -1.6891   -3.5024    2.6740 H   0  0  0  0  0  0  0  0  0  0  0  0
   -3.4304   -3.9802    2.7878 H   0  0  0  0  0  0  0  0  0  0  0  0
   -1.8920    0.0652   -2.8688 H   0  0  0  0  0  0  0  0  0  0  0  0
   -3.9248    0.3497   -4.2667 H   0  0  0  0  0  0  0  0  0  0  0  0
   -6.3805    0.3559   -0.7415 H   0  0  0  0  0  0  0  0  0  0  0  0
  1  3  1  0  0  0  0
  1  2  1  0  0  0  0
  1 30  1  0  0  0  0
  1 31  1  0  0  0  0
  2  3  1  0  0  0  0
  2  4  1  0  0  0  0
  2 10  1  0  0  0  0
  3 32  1  0  0  0  0
  3 33  1  0  0  0  0
  4  9  2  0  0  0  0
  4  5  1  0  0  0  0
  5  6  2  0  0  0  0
  5 34  1  0  0  0  0
  6  7  1  0  0  0  0
  6 35  1  0  0  0  0
  7  8  2  0  0  0  0
  7 36  1  0  0  0  0
  8  9  1  0  0  0  0
  8 37  1  0  0  0  0
  9 38  1  0  0  0  0
 10 11  1  0  0  0  0
 10 39  1  0  0  0  0
 11 12  2  0  0  0  0
 11 13  1  0  0  0  0
 13 29  2  0  0  0  0
 13 14  1  0  0  0  0
 14 18  1  0  0  0  0
 14 15  2  0  0  0  0
 15 16  1  0  0  0  0
 15 20  1  0  0  0  0
 16 17  1  0  0  0  0
 16 19  1  0  0  0  0
 16 40  1  6  0  0  0
 17 18  1  0  0  0  0
 17 19  1  0  0  0  0
 17 41  1  6  0  0  0
 18 42  1  0  0  0  0
 18 43  1  0  0  0  0
 19 44  1  0  0  0  0
 19 45  1  0  0  0  0
 20 21  1  0  0  0  0
 20 29  1  0  0  0  0
 21 26  2  0  0  0  0
 21 22  1  0  0  0  0
 22 23  2  0  0  0  0
 22 46  1  0  0  0  0
 23 24  1  0  0  0  0
 23 47  1  0  0  0  0
 24 25  2  0  0  0  0
 24 28  1  0  0  0  0
 25 26  1  0  0  0  0
 25 48  1  0  0  0  0
 26 27  1  0  0  0  0
M  END
$$$$
CHEMBL3669117
 OpenBabel12022418093D

 59 61  0  0  0  0  0  0  0  0999 V2000
    1.4707    0.8760    0.7528 C   0  0  0  0  0  0  0  0  0  0  0  0
    2.4999    0.1169    0.1356 O   0  0  0  0  0  0  0  0  0  0  0  0
    3.1829    0.8325   -0.8259 C   0  0  0  0  0  0  0  0  0  0  0  0
    2.8140    2.0774   -1.1021 N   0  0  0  0  0  0  0  0  0  0  0  0
    3.6029    2.6882   -1.9819 C   0  0  0  0  0  0  0  0  0  0  0  0
    3.2642    4.0775   -2.3442 C   0  0  0  0  0  0  0  0  0  0  0  0
    3.5661    4.6164   -3.6160 C   0  0  0  0  0  0  0  0  0  0  0  0
    3.2355    5.9402   -3.9873 C   0  0  0  0  0  0  0  0  0  0  0  0
    2.5822    6.7450   -3.0381 C   0  0  0  0  0  0  0  0  0  0  0  0
    2.2786    6.2240   -1.7710 C   0  0  0  0  0  0  0  0  0  0  0  0
    2.6075    4.9125   -1.4311 C   0  0  0  0  0  0  0  0  0  0  0  0
    2.0792    8.3852   -3.2612 Cl  0  0  0  0  0  0  0  0  0  0  0  0
    3.5972    6.2321   -5.2863 O   0  0  0  0  0  0  0  0  0  0  0  0
    3.9255    7.5871   -5.6029 C   0  0  0  0  0  0  0  0  0  0  0  0
    4.9480    7.6872   -6.7496 C   0  0  0  0  0  0  0  0  0  0  0  0
    4.3618    7.0310   -7.9895 C   0  0  0  0  0  0  0  0  0  0  0  0
    5.2768    7.0927   -9.1442 N   0  0  0  0  0  0  0  0  0  0  0  0
    4.6397    6.3721  -10.5569 S   0  0  0  0  0  0  0  0  0  0  0  0
    5.6274    6.4965  -11.5832 O   0  0  0  0  0  0  0  0  0  0  0  0
    4.1098    5.0695  -10.1612 O   0  0  0  0  0  0  0  0  0  0  0  0
    3.2667    7.4389  -10.9435 C   0  0  0  0  0  0  0  0  0  0  0  0
    4.6907    2.1485   -2.5392 N   0  0  0  0  0  0  0  0  0  0  0  0
    4.9698    0.9034   -2.1735 C   0  0  0  0  0  0  0  0  0  0  0  0
    4.2292    0.1998   -1.3322 N   0  0  0  0  0  0  0  0  0  0  0  0
    6.1444    0.3599   -2.6493 N   0  0  0  0  0  0  0  0  0  0  0  0
    6.2082   -1.0764   -2.8613 C   0  0  0  0  0  0  0  0  0  0  0  0
    7.5720   -1.5037   -3.4243 C   0  0  0  0  0  0  0  0  0  0  0  0
    7.6450   -3.0026   -3.6276 C   0  0  0  0  0  0  0  0  0  0  0  0
    8.0464   -3.8472   -2.5805 C   0  0  0  0  0  0  0  0  0  0  0  0
    8.0541   -5.2333   -2.7544 C   0  0  0  0  0  0  0  0  0  0  0  0
    7.6590   -5.7761   -3.9712 C   0  0  0  0  0  0  0  0  0  0  0  0
    7.2632   -4.9579   -5.0219 C   0  0  0  0  0  0  0  0  0  0  0  0
    7.2565   -3.5721   -4.8515 C   0  0  0  0  0  0  0  0  0  0  0  0
    7.6542   -7.1060   -4.1311 F   0  0  0  0  0  0  0  0  0  0  0  0
    0.9761    0.2282    1.4807 H   0  0  0  0  0  0  0  0  0  0  0  0
    0.7211    1.1907    0.0193 H   0  0  0  0  0  0  0  0  0  0  0  0
    1.8756    1.7389    1.2944 H   0  0  0  0  0  0  0  0  0  0  0  0
    4.0754    3.9838   -4.3446 H   0  0  0  0  0  0  0  0  0  0  0  0
    1.7761    6.8429   -1.0297 H   0  0  0  0  0  0  0  0  0  0  0  0
    2.3507    4.5456   -0.4381 H   0  0  0  0  0  0  0  0  0  0  0  0
    4.3673    8.0709   -4.7314 H   0  0  0  0  0  0  0  0  0  0  0  0
    3.0162    8.0977   -5.9358 H   0  0  0  0  0  0  0  0  0  0  0  0
    5.8914    7.2079   -6.4615 H   0  0  0  0  0  0  0  0  0  0  0  0
    5.1856    8.7453   -6.9397 H   0  0  0  0  0  0  0  0  0  0  0  0
    3.4273    7.5340   -8.2463 H   0  0  0  0  0  0  0  0  0  0  0  0
    4.1561    5.9815   -7.7764 H   0  0  0  0  0  0  0  0  0  0  0  0
    6.1803    6.6581   -8.9472 H   0  0  0  0  0  0  0  0  0  0  0  0
    3.6501    8.4414  -11.1381 H   0  0  0  0  0  0  0  0  0  0  0  0
    2.5522    7.4384  -10.1214 H   0  0  0  0  0  0  0  0  0  0  0  0
    2.7820    7.0445  -11.8387 H   0  0  0  0  0  0  0  0  0  0  0  0
    6.7250    0.9980   -3.1741 H   0  0  0  0  0  0  0  0  0  0  0  0
    5.4170   -1.4049   -3.5492 H   0  0  0  0  0  0  0  0  0  0  0  0
    6.0464   -1.5887   -1.9051 H   0  0  0  0  0  0  0  0  0  0  0  0
    8.3775   -1.1818   -2.7519 H   0  0  0  0  0  0  0  0  0  0  0  0
    7.7657   -1.0002   -4.3809 H   0  0  0  0  0  0  0  0  0  0  0  0
    8.3465   -3.4325   -1.6201 H   0  0  0  0  0  0  0  0  0  0  0  0
    8.3579   -5.8924   -1.9473 H   0  0  0  0  0  0  0  0  0  0  0  0
    6.9556   -5.4030   -5.9631 H   0  0  0  0  0  0  0  0  0  0  0  0
    6.9367   -2.9397   -5.6774 H   0  0  0  0  0  0  0  0  0  0  0  0
  1  2  1  0  0  0  0
  1 35  1  0  0  0  0
  1 36  1  0  0  0  0
  1 37  1  0  0  0  0
  2  3  1  0  0  0  0
  3 24  2  0  0  0  0
  3  4  1  0  0  0  0
  4  5  2  0  0  0  0
  5  6  1  0  0  0  0
  5 22  1  0  0  0  0
  6 11  2  0  0  0  0
  6  7  1  0  0  0  0
  7  8  2  0  0  0  0
  7 38  1  0  0  0  0
  8  9  1  0  0  0  0
  8 13  1  0  0  0  0
  9 10  2  0  0  0  0
  9 12  1  0  0  0  0
 10 11  1  0  0  0  0
 10 39  1  0  0  0  0
 11 40  1  0  0  0  0
 13 14  1  0  0  0  0
 14 15  1  0  0  0  0
 14 41  1  0  0  0  0
 14 42  1  0  0  0  0
 15 16  1  0  0  0  0
 15 43  1  0  0  0  0
 15 44  1  0  0  0  0
 16 17  1  0  0  0  0
 16 45  1  0  0  0  0
 16 46  1  0  0  0  0
 17 18  1  0  0  0  0
 17 47  1  0  0  0  0
 18 19  2  0  0  0  0
 18 20  2  0  0  0  0
 18 21  1  0  0  0  0
 21 48  1  0  0  0  0
 21 49  1  0  0  0  0
 21 50  1  0  0  0  0
 22 23  2  0  0  0  0
 23 24  1  0  0  0  0
 23 25  1  0  0  0  0
 25 26  1  0  0  0  0
 25 51  1  0  0  0  0
 26 27  1  0  0  0  0
 26 52  1  0  0  0  0
 26 53  1  0  0  0  0
 27 28  1  0  0  0  0
 27 54  1  0  0  0  0
 27 55  1  0  0  0  0
 28 33  2  0  0  0  0
 28 29  1  0  0  0  0
 29 30  2  0  0  0  0
 29 56  1  0  0  0  0
 30 31  1  0  0  0  0
 30 57  1  0  0  0  0
 31 32  2  0  0  0  0
 31 34  1  0  0  0  0
 32 33  1  0  0  0  0
 32 58  1  0  0  0  0
 33 59  1  0  0  0  0
M  END
$$$$
CHEMBL3927144
 OpenBabel12022418093D

 46 48  0  0  1  0  0  0  0  0999 V2000
    3.6002    0.5214    4.7469 C   0  0  0  0  0  0  0  0  0  0  0  0
    3.5944    0.9345    3.3327 C   0  0  0  0  0  0  0  0  0  0  0  0
    2.5846    1.0561    2.5044 N   0  0  0  0  0  0  0  0  0  0  0  0
    3.2026    1.4203    1.3243 C   0  0  0  0  0  0  0  0  0  0  0  0
    2.4314    1.6175    0.0200 C   0  0  2  0  0  0  0  0  0  0  0  0
    1.1459    0.7574    0.0677 C   0  0  0  0  0  0  0  0  0  0  0  0
    3.2931    1.2285   -1.2228 C   0  0  0  0  0  0  0  0  0  0  0  0
    3.7750   -0.2077   -1.2678 C   0  0  0  0  0  0  0  0  0  0  0  0
    3.1372   -1.2231   -2.1820 C   0  0  0  0  0  0  0  0  0  0  0  0
    4.4991   -0.6776   -2.5038 C   0  0  0  0  0  0  0  0  0  0  0  0
    2.0612    3.0543   -0.0478 N   0  0  0  0  0  0  0  0  0  0  0  0
    1.2764    3.6161   -1.0353 C   0  0  0  0  0  0  0  0  0  0  0  0
    0.8372    3.0043   -2.0010 O   0  0  0  0  0  0  0  0  0  0  0  0
    0.9548    5.0712   -0.8576 C   0  0  0  0  0  0  0  0  0  0  0  0
    0.1155    5.7061   -1.7689 C   0  0  0  0  0  0  0  0  0  0  0  0
   -0.2050    7.0584   -1.5842 C   0  0  0  0  0  0  0  0  0  0  0  0
    0.3069    7.7149   -0.4643 C   0  0  0  0  0  0  0  0  0  0  0  0
    1.1486    6.9933    0.3872 C   0  0  0  0  0  0  0  0  0  0  0  0
    1.4952    5.6940    0.2197 N   0  0  0  0  0  0  0  0  0  0  0  0
   -0.0823    9.3271    0.0057 Cl  0  0  0  0  0  0  0  0  0  0  0  0
   -1.0616    7.5360   -2.5421 O   0  0  0  0  0  0  0  0  0  0  0  0
   -0.9773    8.9171   -2.9164 C   0  0  0  0  0  0  0  0  0  0  0  0
   -1.3956    9.1441   -4.3704 C   0  0  0  0  0  0  0  0  0  0  0  0
   -1.7467    8.0050   -5.0020 F   0  0  0  0  0  0  0  0  0  0  0  0
   -2.4474    9.9930   -4.4451 F   0  0  0  0  0  0  0  0  0  0  0  0
   -0.3826    9.7020   -5.0759 F   0  0  0  0  0  0  0  0  0  0  0  0
    4.5327    1.5861    1.4381 N   0  0  0  0  0  0  0  0  0  0  0  0
    4.7958    1.2380    2.7637 O   0  0  0  0  0  0  0  0  0  0  0  0
    4.6175    0.3610    5.1165 H   0  0  0  0  0  0  0  0  0  0  0  0
    3.0432   -0.4129    4.8701 H   0  0  0  0  0  0  0  0  0  0  0  0
    3.1249    1.2871    5.3674 H   0  0  0  0  0  0  0  0  0  0  0  0
    0.5679    0.8247   -0.8582 H   0  0  0  0  0  0  0  0  0  0  0  0
    0.4868    1.0827    0.8819 H   0  0  0  0  0  0  0  0  0  0  0  0
    1.3760   -0.3005    0.2379 H   0  0  0  0  0  0  0  0  0  0  0  0
    4.1778    1.8792   -1.2677 H   0  0  0  0  0  0  0  0  0  0  0  0
    2.7345    1.4356   -2.1432 H   0  0  0  0  0  0  0  0  0  0  0  0
    4.1777   -0.5534   -0.3231 H   0  0  0  0  0  0  0  0  0  0  0  0
    2.3107   -0.9195   -2.8147 H   0  0  0  0  0  0  0  0  0  0  0  0
    3.0774   -2.2510   -1.8414 H   0  0  0  0  0  0  0  0  0  0  0  0
    5.3575   -1.3259   -2.3685 H   0  0  0  0  0  0  0  0  0  0  0  0
    4.5864   -0.0013   -3.3471 H   0  0  0  0  0  0  0  0  0  0  0  0
    2.3701    3.6773    0.6928 H   0  0  0  0  0  0  0  0  0  0  0  0
   -0.2977    5.1542   -2.6092 H   0  0  0  0  0  0  0  0  0  0  0  0
    1.5722    7.4608    1.2724 H   0  0  0  0  0  0  0  0  0  0  0  0
    0.0443    9.2957   -2.7972 H   0  0  0  0  0  0  0  0  0  0  0  0
   -1.6589    9.4852   -2.2744 H   0  0  0  0  0  0  0  0  0  0  0  0
  1  2  1  0  0  0  0
  1 29  1  0  0  0  0
  1 30  1  0  0  0  0
  1 31  1  0  0  0  0
  2 28  1  0  0  0  0
  2  3  2  0  0  0  0
  3  4  1  0  0  0  0
  4 27  2  0  0  0  0
  5  7  1  6  0  0  0
  5 11  1  0  0  0  0
  5  6  1  0  0  0  0
  5  4  1  0  0  0  0
  6 32  1  0  0  0  0
  6 33  1  0  0  0  0
  6 34  1  0  0  0  0
  7  8  1  0  0  0  0
  7 35  1  0  0  0  0
  7 36  1  0  0  0  0
  8 10  1  0  0  0  0
  8  9  1  0  0  0  0
  8 37  1  0  0  0  0
  9 10  1  0  0  0  0
  9 38  1  0  0  0  0
  9 39  1  0  0  0  0
 10 40  1  0  0  0  0
 10 41  1  0  0  0  0
 11 12  1  0  0  0  0
 11 42  1  0  0  0  0
 12 13  2  0  0  0  0
 12 14  1  0  0  0  0
 14 19  2  0  0  0  0
 14 15  1  0  0  0  0
 15 16  2  0  0  0  0
 15 43  1  0  0  0  0
 16 17  1  0  0  0  0
 16 21  1  0  0  0  0
 17 18  2  0  0  0  0
 17 20  1  0  0  0  0
 18 19  1  0  0  0  0
 18 44  1  0  0  0  0
 21 22  1  0  0  0  0
 22 23  1  0  0  0  0
 22 45  1  0  0  0  0
 22 46  1  0  0  0  0
 23 24  1  0  0  0  0
 23 25  1  0  0  0  0
 23 26  1  0  0  0  0
 27 28  1  0  0  0  0
M  END
$$$$
CHEMBL3354957
 OpenBabel12022418093D

 48 52  0  0  1  0  0  0  0  0999 V2000
    1.2294   -0.8115   -0.5804 C   0  0  1  0  0  0  0  0  0  0  0  0
    0.6251   -1.4585   -1.8558 C   0  0  0  0  0  0  0  0  0  0  0  0
    0.9977   -0.8078   -3.0715 O   0  0  0  0  0  0  0  0  0  0  0  0
    0.7530   -1.5116    0.6779 C   0  0  0  0  0  0  0  0  0  0  0  0
    0.0487   -0.7944    1.6590 C   0  0  0  0  0  0  0  0  0  0  0  0
   -0.3980   -1.4268    2.8210 C   0  0  0  0  0  0  0  0  0  0  0  0
   -0.1455   -2.7822    3.0180 C   0  0  0  0  0  0  0  0  0  0  0  0
    0.5500   -3.5072    2.0531 C   0  0  0  0  0  0  0  0  0  0  0  0
    0.9993   -2.8779    0.8924 C   0  0  0  0  0  0  0  0  0  0  0  0
    2.6900   -0.7396   -0.6126 N   0  0  0  0  0  0  0  0  0  0  0  0
    3.3402    0.2900   -1.2504 C   0  0  0  0  0  0  0  0  0  0  0  0
    2.7126    1.1604   -1.8562 O   0  0  0  0  0  0  0  0  0  0  0  0
    4.8117    0.2915   -1.1846 C   0  0  0  0  0  0  0  0  0  0  0  0
    5.6315    1.2842   -1.7481 C   0  0  0  0  0  0  0  0  0  0  0  0
    6.9094    0.8836   -1.5111 C   0  0  0  0  0  0  0  0  0  0  0  0
    7.9005    1.6973   -2.3073 C   0  0  1  0  0  0  0  0  0  0  0  0
    6.9839    2.6520   -3.1066 C   0  0  1  0  0  0  0  0  0  0  0  0
    5.5222    2.4540   -2.6538 C   0  0  0  0  0  0  0  0  0  0  0  0
    8.0034    3.1931   -2.1568 C   0  0  0  0  0  0  0  0  0  0  0  0
    6.8797   -0.2841   -0.8189 N   0  0  0  0  0  0  0  0  0  0  0  0
    8.0086   -0.9983   -0.3542 C   0  0  0  0  0  0  0  0  0  0  0  0
    7.9863   -2.3955   -0.2693 C   0  0  0  0  0  0  0  0  0  0  0  0
    9.1569   -3.0754    0.0889 C   0  0  0  0  0  0  0  0  0  0  0  0
   10.3157   -2.3672    0.4046 C   0  0  0  0  0  0  0  0  0  0  0  0
   10.3342   -0.9797    0.3705 C   0  0  0  0  0  0  0  0  0  0  0  0
    9.1806   -0.3074   -0.0131 C   0  0  0  0  0  0  0  0  0  0  0  0
    9.2168    1.0320    0.0215 F   0  0  0  0  0  0  0  0  0  0  0  0
   11.4248   -3.0268    0.7457 F   0  0  0  0  0  0  0  0  0  0  0  0
    5.5742   -0.7038   -0.6441 N   0  0  0  0  0  0  0  0  0  0  0  0
    0.8682    0.2257   -0.5601 H   0  0  0  0  0  0  0  0  0  0  0  0
   -0.4715   -1.4307   -1.7992 H   0  0  0  0  0  0  0  0  0  0  0  0
    0.9178   -2.5081   -1.9516 H   0  0  0  0  0  0  0  0  0  0  0  0
    1.4932    0.0068   -2.8478 H   0  0  0  0  0  0  0  0  0  0  0  0
   -0.1627    0.2653    1.5251 H   0  0  0  0  0  0  0  0  0  0  0  0
   -0.9420   -0.8611    3.5730 H   0  0  0  0  0  0  0  0  0  0  0  0
   -0.4902   -3.2739    3.9239 H   0  0  0  0  0  0  0  0  0  0  0  0
    0.7443   -4.5659    2.2052 H   0  0  0  0  0  0  0  0  0  0  0  0
    1.5398   -3.4639    0.1526 H   0  0  0  0  0  0  0  0  0  0  0  0
    3.2632   -1.4437   -0.1599 H   0  0  0  0  0  0  0  0  0  0  0  0
    8.7784    1.2069   -2.7049 H   0  0  0  0  0  0  0  0  0  0  0  0
    7.1236    2.7345   -4.1739 H   0  0  0  0  0  0  0  0  0  0  0  0
    5.1577    3.3421   -2.1288 H   0  0  0  0  0  0  0  0  0  0  0  0
    4.8846    2.2383   -3.5156 H   0  0  0  0  0  0  0  0  0  0  0  0
    8.8849    3.6689   -2.5747 H   0  0  0  0  0  0  0  0  0  0  0  0
    7.6867    3.6278   -1.2161 H   0  0  0  0  0  0  0  0  0  0  0  0
    7.0944   -2.9606   -0.5370 H   0  0  0  0  0  0  0  0  0  0  0  0
    9.1820   -4.1609    0.1133 H   0  0  0  0  0  0  0  0  0  0  0  0
   11.2264   -0.4303    0.6415 H   0  0  0  0  0  0  0  0  0  0  0  0
  1  2  1  0  0  0  0
  1  4  1  0  0  0  0
  1 10  1  0  0  0  0
  1 30  1  1  0  0  0
  2  3  1  0  0  0  0
  2 31  1  0  0  0  0
  2 32  1  0  0  0  0
  3 33  1  0  0  0  0
  4  9  2  0  0  0  0
  4  5  1  0  0  0  0
  5  6  2  0  0  0  0
  5 34  1  0  0  0  0
  6  7  1  0  0  0  0
  6 35  1  0  0  0  0
  7  8  2  0  0  0  0
  7 36  1  0  0  0  0
  8  9  1  0  0  0  0
  8 37  1  0  0  0  0
  9 38  1  0  0  0  0
 10 11  1  0  0  0  0
 10 39  1  0  0  0  0
 11 12  2  0  0  0  0
 11 13  1  0  0  0  0
 13 29  2  0  0  0  0
 13 14  1  0  0  0  0
 14 18  1  0  0  0  0
 14 15  2  0  0  0  0
 15 16  1  0  0  0  0
 15 20  1  0  0  0  0
 16 17  1  0  0  0  0
 16 19  1  0  0  0  0
 16 40  1  6  0  0  0
 17 18  1  0  0  0  0
 17 19  1  0  0  0  0
 17 41  1  6  0  0  0
 18 42  1  0  0  0  0
 18 43  1  0  0  0  0
 19 44  1  0  0  0  0
 19 45  1  0  0  0  0
 20 21  1  0  0  0  0
 20 29  1  0  0  0  0
 21 26  2  0  0  0  0
 21 22  1  0  0  0  0
 22 23  2  0  0  0  0
 22 46  1  0  0  0  0
 23 24  1  0  0  0  0
 23 47  1  0  0  0  0
 24 25  2  0  0  0  0
 24 28  1  0  0  0  0
 25 26  1  0  0  0  0
 25 48  1  0  0  0  0
 26 27  1  0  0  0  0
M  END
$$$$
CHEMBL1909858
 OpenBabel12022418093D

 50 53  0  0  0  0  0  0  0  0999 V2000
    1.1076    0.3473    0.2099 C   0  0  0  0  0  0  0  0  0  0  0  0
    2.5720    0.0876    0.1174 C   0  0  0  0  0  0  0  0  0  0  0  0
    3.5835    1.1054    0.1736 C   0  0  0  0  0  0  0  0  0  0  0  0
    3.3937    2.5880    0.1984 C   0  0  0  0  0  0  0  0  0  0  0  0
    2.2910    3.1150    0.1204 O   0  0  0  0  0  0  0  0  0  0  0  0
    4.5741    3.2995    0.2995 N   0  0  0  0  0  0  0  0  0  0  0  0
    4.7213    4.7533    0.3208 C   0  0  0  0  0  0  0  0  0  0  0  0
    4.3585    5.4275   -1.0133 C   0  0  0  0  0  0  0  0  0  0  0  0
    4.6324    6.9339   -0.9729 C   0  0  0  0  0  0  0  0  0  0  0  0
    3.9278    7.6129    0.1989 C   0  0  0  0  0  0  0  0  0  0  0  0
    4.2607    6.9369    1.5265 C   0  0  0  0  0  0  0  0  0  0  0  0
    3.9840    5.4309    1.4868 C   0  0  0  0  0  0  0  0  0  0  0  0
    4.8091    0.5550    0.2543 N   0  0  0  0  0  0  0  0  0  0  0  0
    4.6191   -0.7779    0.0623 N   0  0  0  0  0  0  0  0  0  0  0  0
    5.7660   -1.5750   -0.2269 C   0  0  0  0  0  0  0  0  0  0  0  0
    5.7049   -2.6503   -1.1229 C   0  0  0  0  0  0  0  0  0  0  0  0
    6.8429   -3.4323   -1.3448 C   0  0  0  0  0  0  0  0  0  0  0  0
    8.0389   -3.1509   -0.6760 C   0  0  0  0  0  0  0  0  0  0  0  0
    8.1015   -2.0747    0.2160 C   0  0  0  0  0  0  0  0  0  0  0  0
    6.9741   -1.2734    0.4230 C   0  0  0  0  0  0  0  0  0  0  0  0
    9.5301   -1.6982    1.1130 Cl  0  0  0  0  0  0  0  0  0  0  0  0
    9.3981   -4.1667   -1.0002 Cl  0  0  0  0  0  0  0  0  0  0  0  0
    3.2744   -1.1138    0.0712 C   0  0  0  0  0  0  0  0  0  0  0  0
    2.7717   -2.4340    0.1207 N   0  0  0  0  0  0  0  0  0  0  0  0
    3.2330   -3.5027    0.8929 C   0  0  0  0  0  0  0  0  0  0  0  0
    2.5028   -4.6430    0.6580 C   0  0  0  0  0  0  0  0  0  0  0  0
    1.4847   -4.2894   -0.2444 C   0  0  0  0  0  0  0  0  0  0  0  0
    1.6925   -2.9717   -0.5783 C   0  0  0  0  0  0  0  0  0  0  0  0
    0.8884   -2.1253   -1.8315 Cl  0  0  0  0  0  0  0  0  0  0  0  0
    4.4486   -3.3319    2.0886 Cl  0  0  0  0  0  0  0  0  0  0  0  0
    0.5458   -0.5460    0.4934 H   0  0  0  0  0  0  0  0  0  0  0  0
    0.7263    0.7221   -0.7448 H   0  0  0  0  0  0  0  0  0  0  0  0
    0.8954    1.0949    0.9812 H   0  0  0  0  0  0  0  0  0  0  0  0
    5.4078    2.7213    0.3225 H   0  0  0  0  0  0  0  0  0  0  0  0
    5.7968    4.9111    0.4810 H   0  0  0  0  0  0  0  0  0  0  0  0
    3.3022    5.2587   -1.2509 H   0  0  0  0  0  0  0  0  0  0  0  0
    4.9387    4.9779   -1.8293 H   0  0  0  0  0  0  0  0  0  0  0  0
    4.3088    7.3961   -1.9122 H   0  0  0  0  0  0  0  0  0  0  0  0
    5.7129    7.1063   -0.8913 H   0  0  0  0  0  0  0  0  0  0  0  0
    2.8433    7.5895    0.0373 H   0  0  0  0  0  0  0  0  0  0  0  0
    4.2173    8.6679    0.2397 H   0  0  0  0  0  0  0  0  0  0  0  0
    3.6761    7.4003    2.3294 H   0  0  0  0  0  0  0  0  0  0  0  0
    5.3176    7.1083    1.7640 H   0  0  0  0  0  0  0  0  0  0  0  0
    4.2934    4.9798    2.4380 H   0  0  0  0  0  0  0  0  0  0  0  0
    2.9022    5.2741    1.4009 H   0  0  0  0  0  0  0  0  0  0  0  0
    4.8004   -2.8837   -1.6789 H   0  0  0  0  0  0  0  0  0  0  0  0
    6.7916   -4.2630   -2.0450 H   0  0  0  0  0  0  0  0  0  0  0  0
    7.0239   -0.4534    1.1375 H   0  0  0  0  0  0  0  0  0  0  0  0
    2.6624   -5.6102    1.1196 H   0  0  0  0  0  0  0  0  0  0  0  0
    0.7090   -4.9346   -0.6388 H   0  0  0  0  0  0  0  0  0  0  0  0
  1  2  1  0  0  0  0
  1 31  1  0  0  0  0
  1 32  1  0  0  0  0
  1 33  1  0  0  0  0
  2 23  2  0  0  0  0
  2  3  1  0  0  0  0
  3  4  1  0  0  0  0
  3 13  2  0  0  0  0
  4  5  2  0  0  0  0
  4  6  1  0  0  0  0
  6  7  1  0  0  0  0
  6 34  1  0  0  0  0
  7 12  1  0  0  0  0
  7  8  1  0  0  0  0
  7 35  1  0  0  0  0
  8  9  1  0  0  0  0
  8 36  1  0  0  0  0
  8 37  1  0  0  0  0
  9 10  1  0  0  0  0
  9 38  1  0  0  0  0
  9 39  1  0  0  0  0
 10 11  1  0  0  0  0
 10 40  1  0  0  0  0
 10 41  1  0  0  0  0
 11 12  1  0  0  0  0
 11 42  1  0  0  0  0
 11 43  1  0  0  0  0
 12 44  1  0  0  0  0
 12 45  1  0  0  0  0
 13 14  1  0  0  0  0
 14 15  1  0  0  0  0
 14 23  1  0  0  0  0
 15 20  2  0  0  0  0
 15 16  1  0  0  0  0
 16 17  2  0  0  0  0
 16 46  1  0  0  0  0
 17 18  1  0  0  0  0
 17 47  1  0  0  0  0
 18 19  2  0  0  0  0
 18 22  1  0  0  0  0
 19 20  1  0  0  0  0
 19 21  1  0  0  0  0
 20 48  1  0  0  0  0
 23 24  1  0  0  0  0
 24 28  1  0  0  0  0
 24 25  1  0  0  0  0
 25 26  2  0  0  0  0
 25 30  1  0  0  0  0
 26 27  1  0  0  0  0
 26 49  1  0  0  0  0
 27 28  2  0  0  0  0
 27 50  1  0  0  0  0
 28 29  1  0  0  0  0
M  END
$$$$
CHEMBL238972
 OpenBabel12022418093D

 63 65  0  0  1  0  0  0  0  0999 V2000
    5.1910   -3.3471   -3.9685 C   0  0  0  0  0  0  0  0  0  0  0  0
    4.9716   -2.3688   -3.0705 C   0  0  0  0  0  0  0  0  0  0  0  0
    5.7097   -2.4101   -1.7545 C   0  0  0  0  0  0  0  0  0  0  0  0
    3.9965   -1.2121   -3.3827 C   0  0  2  0  0  0  0  0  0  0  0  0
    4.7390   -0.0393   -4.0486 C   0  0  0  0  0  0  0  0  0  0  0  0
    5.5837    0.8010   -3.0787 C   0  0  0  0  0  0  0  0  0  0  0  0
    5.0591    0.8674   -1.6591 C   0  0  0  0  0  0  0  0  0  0  0  0
    3.9654    0.1895   -1.2591 C   0  0  0  0  0  0  0  0  0  0  0  0
    3.1481   -0.7026   -2.1682 C   0  0  1  0  0  0  0  0  0  0  0  0
    1.8107   -0.0489   -2.5643 C   0  0  0  0  0  0  0  0  0  0  0  0
    1.6106    1.3383   -2.7114 C   0  0  0  0  0  0  0  0  0  0  0  0
    0.3491    1.8902   -2.9393 C   0  0  0  0  0  0  0  0  0  0  0  0
   -0.7882    1.1060   -3.1180 C   0  0  0  0  0  0  0  0  0  0  0  0
   -2.1391    1.7346   -3.4704 C   0  0  1  0  0  0  0  0  0  0  0  0
   -3.2452    1.4812   -2.4552 C   0  0  0  0  0  0  0  0  0  0  0  0
   -2.9633    2.0099   -1.0438 C   0  0  0  0  0  0  0  0  0  0  0  0
   -4.1463    1.6463   -0.1410 C   0  0  0  0  0  0  0  0  0  0  0  0
   -3.9878    2.1378    1.2947 C   0  0  0  0  0  0  0  0  0  0  0  0
   -5.2080    1.7345    2.1265 C   0  0  0  0  0  0  0  0  0  0  0  0
   -5.0948    2.2140    3.5626 C   0  0  0  0  0  0  0  0  0  0  0  0
   -2.1775    3.0687   -4.2123 C   0  0  0  0  0  0  0  0  0  0  0  0
   -2.5096    1.8108   -4.9605 C   0  0  0  0  0  0  0  0  0  0  0  0
   -4.1783    1.6109   -5.4936 Cl  0  0  0  0  0  0  0  0  0  0  0  0
   -1.3567    1.2996   -6.2029 Cl  0  0  0  0  0  0  0  0  0  0  0  0
   -0.6060   -0.2788   -2.9856 C   0  0  0  0  0  0  0  0  0  0  0  0
    0.6565   -0.8391   -2.7266 C   0  0  0  0  0  0  0  0  0  0  0  0
    0.6668   -2.2063   -2.6358 O   0  0  0  0  0  0  0  0  0  0  0  0
    2.5706    2.3045   -2.6620 O   0  0  0  0  0  0  0  0  0  0  0  0
    5.7600    1.7901   -0.7098 C   0  0  0  0  0  0  0  0  0  0  0  0
    5.8897   -4.1558   -3.7654 H   0  0  0  0  0  0  0  0  0  0  0  0
    4.7057   -3.3613   -4.9386 H   0  0  0  0  0  0  0  0  0  0  0  0
    6.4016   -3.2582   -1.6969 H   0  0  0  0  0  0  0  0  0  0  0  0
    5.0120   -2.5124   -0.9183 H   0  0  0  0  0  0  0  0  0  0  0  0
    6.3199   -1.5165   -1.6092 H   0  0  0  0  0  0  0  0  0  0  0  0
    3.2925   -1.6041   -4.1324 H   0  0  0  0  0  0  0  0  0  0  0  0
    3.9944    0.6098   -4.5297 H   0  0  0  0  0  0  0  0  0  0  0  0
    5.3756   -0.3933   -4.8696 H   0  0  0  0  0  0  0  0  0  0  0  0
    5.6389    1.8206   -3.4835 H   0  0  0  0  0  0  0  0  0  0  0  0
    6.6085    0.4151   -3.0621 H   0  0  0  0  0  0  0  0  0  0  0  0
    3.6047    0.2871   -0.2357 H   0  0  0  0  0  0  0  0  0  0  0  0
    2.8956   -1.5804   -1.5548 H   0  0  0  0  0  0  0  0  0  0  0  0
    0.2828    2.9754   -3.0176 H   0  0  0  0  0  0  0  0  0  0  0  0
   -3.4388    0.4026   -2.4109 H   0  0  0  0  0  0  0  0  0  0  0  0
   -4.1792    1.9472   -2.7902 H   0  0  0  0  0  0  0  0  0  0  0  0
   -2.8250    3.0978   -1.0691 H   0  0  0  0  0  0  0  0  0  0  0  0
   -2.0415    1.5784   -0.6375 H   0  0  0  0  0  0  0  0  0  0  0  0
   -4.2687    0.5558   -0.1352 H   0  0  0  0  0  0  0  0  0  0  0  0
   -5.0663    2.0680   -0.5650 H   0  0  0  0  0  0  0  0  0  0  0  0
   -3.8759    3.2284    1.3046 H   0  0  0  0  0  0  0  0  0  0  0  0
   -3.0799    1.7108    1.7368 H   0  0  0  0  0  0  0  0  0  0  0  0
   -5.3190    0.6434    2.1193 H   0  0  0  0  0  0  0  0  0  0  0  0
   -6.1182    2.1523    1.6793 H   0  0  0  0  0  0  0  0  0  0  0  0
   -4.2107    1.7894    4.0481 H   0  0  0  0  0  0  0  0  0  0  0  0
   -5.9770    1.9081    4.1338 H   0  0  0  0  0  0  0  0  0  0  0  0
   -5.0233    3.3052    3.6054 H   0  0  0  0  0  0  0  0  0  0  0  0
   -1.2605    3.5795   -4.4859 H   0  0  0  0  0  0  0  0  0  0  0  0
   -2.9756    3.7618   -3.9743 H   0  0  0  0  0  0  0  0  0  0  0  0
   -1.4596   -0.9458   -3.0946 H   0  0  0  0  0  0  0  0  0  0  0  0
    1.5168   -2.5445   -2.9597 H   0  0  0  0  0  0  0  0  0  0  0  0
    3.4274    1.9008   -2.8364 H   0  0  0  0  0  0  0  0  0  0  0  0
    6.5499    2.3543   -1.2147 H   0  0  0  0  0  0  0  0  0  0  0  0
    6.2139    1.2256    0.1097 H   0  0  0  0  0  0  0  0  0  0  0  0
    5.0526    2.5162   -0.2935 H   0  0  0  0  0  0  0  0  0  0  0  0
  1  2  2  0  0  0  0
  1 30  1  0  0  0  0
  1 31  1  0  0  0  0
  2  3  1  0  0  0  0
  3 32  1  0  0  0  0
  3 33  1  0  0  0  0
  3 34  1  0  0  0  0
  4  5  1  0  0  0  0
  4  9  1  0  0  0  0
  4  2  1  0  0  0  0
  4 35  1  6  0  0  0
  5  6  1  0  0  0  0
  5 36  1  0  0  0  0
  5 37  1  0  0  0  0
  6  7  1  0  0  0  0
  6 38  1  0  0  0  0
  6 39  1  0  0  0  0
  7  8  2  0  0  0  0
  7 29  1  0  0  0  0
  8  9  1  0  0  0  0
  8 40  1  0  0  0  0
  9 10  1  0  0  0  0
  9 41  1  1  0  0  0
 10 26  2  0  0  0  0
 10 11  1  0  0  0  0
 11 12  2  0  0  0  0
 11 28  1  0  0  0  0
 12 13  1  0  0  0  0
 12 42  1  0  0  0  0
 13 14  1  0  0  0  0
 13 25  2  0  0  0  0
 14 22  1  0  0  0  0
 14 15  1  1  0  0  0
 14 21  1  0  0  0  0
 15 16  1  0  0  0  0
 15 43  1  0  0  0  0
 15 44  1  0  0  0  0
 16 17  1  0  0  0  0
 16 45  1  0  0  0  0
 16 46  1  0  0  0  0
 17 18  1  0  0  0  0
 17 47  1  0  0  0  0
 17 48  1  0  0  0  0
 18 19  1  0  0  0  0
 18 49  1  0  0  0  0
 18 50  1  0  0  0  0
 19 20  1  0  0  0  0
 19 51  1  0  0  0  0
 19 52  1  0  0  0  0
 20 53  1  0  0  0  0
 20 54  1  0  0  0  0
 20 55  1  0  0  0  0
 21 22  1  0  0  0  0
 21 56  1  0  0  0  0
 21 57  1  0  0  0  0
 22 23  1  0  0  0  0
 22 24  1  0  0  0  0
 25 26  1  0  0  0  0
 25 58  1  0  0  0  0
 26 27  1  0  0  0  0
 27 59  1  0  0  0  0
 28 60  1  0  0  0  0
 29 61  1  0  0  0  0
 29 62  1  0  0  0  0
 29 63  1  0  0  0  0
M  END
$$$$
CHEMBL3590638
 OpenBabel12022418093D

 46 47  0  0  0  0  0  0  0  0999 V2000
    1.0568   -0.8216    0.8231 C   0  0  0  0  0  0  0  0  0  0  0  0
    2.5727   -0.7463    0.7489 C   0  0  0  0  0  0  0  0  0  0  0  0
    3.1267   -1.4531   -0.4978 C   0  0  0  0  0  0  0  0  0  0  0  0
    4.5866   -1.3650   -0.5379 N   0  0  0  0  0  0  0  0  0  0  0  0
    5.1925   -2.3246    0.2876 C   0  0  0  0  0  0  0  0  0  0  0  0
    4.6657   -3.3942    0.5945 O   0  0  0  0  0  0  0  0  0  0  0  0
    6.4375   -1.8901    0.9329 C   0  0  0  0  0  0  0  0  0  0  0  0
    6.5783   -2.2090    2.2297 C   0  0  0  0  0  0  0  0  0  0  0  0
    7.5156   -1.7543    3.1305 N   0  0  0  0  0  0  0  0  0  0  0  0
    7.5598   -1.9992    4.5685 C   0  0  0  0  0  0  0  0  0  0  0  0
    7.8180   -3.4894    4.8206 C   0  0  0  0  0  0  0  0  0  0  0  0
    8.7048   -1.1687    5.1611 C   0  0  0  0  0  0  0  0  0  0  0  0
    6.2394   -1.5617    5.2239 C   0  0  0  0  0  0  0  0  0  0  0  0
    7.3243   -0.9260    0.2908 C   0  0  0  0  0  0  0  0  0  0  0  0
    8.5090   -0.8046    0.5857 O   0  0  0  0  0  0  0  0  0  0  0  0
    6.6732   -0.0517   -0.7017 C   0  0  0  0  0  0  0  0  0  0  0  0
    7.4652    1.0085   -1.1811 C   0  0  0  0  0  0  0  0  0  0  0  0
    6.9265    1.9465   -2.0375 C   0  0  0  0  0  0  0  0  0  0  0  0
    5.6068    1.8038   -2.4362 C   0  0  0  0  0  0  0  0  0  0  0  0
    4.7960    0.7223   -1.9992 C   0  0  0  0  0  0  0  0  0  0  0  0
    3.4403    0.6820   -2.6520 C   0  0  0  0  0  0  0  0  0  0  0  0
    5.3145   -0.2266   -1.0746 C   0  0  0  0  0  0  0  0  0  0  0  0
    0.6928   -0.2504    1.6828 H   0  0  0  0  0  0  0  0  0  0  0  0
    0.7227   -1.8573    0.9399 H   0  0  0  0  0  0  0  0  0  0  0  0
    0.5991   -0.4082   -0.0801 H   0  0  0  0  0  0  0  0  0  0  0  0
    2.9909   -1.2019    1.6557 H   0  0  0  0  0  0  0  0  0  0  0  0
    2.8856    0.3041    0.7572 H   0  0  0  0  0  0  0  0  0  0  0  0
    2.6507   -1.1083   -1.4060 H   0  0  0  0  0  0  0  0  0  0  0  0
    2.8298   -2.5088   -0.4489 H   0  0  0  0  0  0  0  0  0  0  0  0
    5.8391   -2.8583    2.6951 H   0  0  0  0  0  0  0  0  0  0  0  0
    8.2938   -1.2338    2.7123 H   0  0  0  0  0  0  0  0  0  0  0  0
    8.7463   -3.8136    4.3359 H   0  0  0  0  0  0  0  0  0  0  0  0
    7.0088   -4.1116    4.4213 H   0  0  0  0  0  0  0  0  0  0  0  0
    7.9017   -3.7011    5.8915 H   0  0  0  0  0  0  0  0  0  0  0  0
    9.6663   -1.4362    4.7074 H   0  0  0  0  0  0  0  0  0  0  0  0
    8.7872   -1.3204    6.2422 H   0  0  0  0  0  0  0  0  0  0  0  0
    8.5490   -0.0978    4.9825 H   0  0  0  0  0  0  0  0  0  0  0  0
    5.3840   -2.1357    4.8504 H   0  0  0  0  0  0  0  0  0  0  0  0
    6.0311   -0.5038    5.0244 H   0  0  0  0  0  0  0  0  0  0  0  0
    6.2736   -1.6982    6.3106 H   0  0  0  0  0  0  0  0  0  0  0  0
    8.5025    1.1127   -0.8654 H   0  0  0  0  0  0  0  0  0  0  0  0
    7.5289    2.7762   -2.3977 H   0  0  0  0  0  0  0  0  0  0  0  0
    5.2062    2.5453   -3.1282 H   0  0  0  0  0  0  0  0  0  0  0  0
    3.3465    1.4326   -3.4463 H   0  0  0  0  0  0  0  0  0  0  0  0
    2.6530    0.9061   -1.9274 H   0  0  0  0  0  0  0  0  0  0  0  0
    3.2863   -0.2810   -3.1482 H   0  0  0  0  0  0  0  0  0  0  0  0
  1  2  1  0  0  0  0
  1 23  1  0  0  0  0
  1 24  1  0  0  0  0
  1 25  1  0  0  0  0
  2  3  1  0  0  0  0
  2 26  1  0  0  0  0
  2 27  1  0  0  0  0
  3  4  1  0  0  0  0
  3 28  1  0  0  0  0
  3 29  1  0  0  0  0
  4 22  1  0  0  0  0
  4  5  1  0  0  0  0
  5  6  2  0  0  0  0
  5  7  1  0  0  0  0
  7  8  2  0  0  0  0
  7 14  1  0  0  0  0
  8  9  1  0  0  0  0
  8 30  1  0  0  0  0
  9 10  1  0  0  0  0
  9 31  1  0  0  0  0
 10 11  1  0  0  0  0
 10 12  1  0  0  0  0
 10 13  1  0  0  0  0
 11 32  1  0  0  0  0
 11 33  1  0  0  0  0
 11 34  1  0  0  0  0
 12 35  1  0  0  0  0
 12 36  1  0  0  0  0
 12 37  1  0  0  0  0
 13 38  1  0  0  0  0
 13 39  1  0  0  0  0
 13 40  1  0  0  0  0
 14 15  2  0  0  0  0
 14 16  1  0  0  0  0
 16 22  2  0  0  0  0
 16 17  1  0  0  0  0
 17 18  2  0  0  0  0
 17 41  1  0  0  0  0
 18 19  1  0  0  0  0
 18 42  1  0  0  0  0
 19 20  2  0  0  0  0
 19 43  1  0  0  0  0
 20 21  1  0  0  0  0
 20 22  1  0  0  0  0
 21 44  1  0  0  0  0
 21 45  1  0  0  0  0
 21 46  1  0  0  0  0
M  END
$$$$
CHEMBL382676
 OpenBabel12022418093D

 60 62  0  0  0  0  0  0  0  0999 V2000
    1.2278    1.4357    0.0315 C   0  0  0  0  0  0  0  0  0  0  0  0
    0.0145    0.7316    0.0297 C   0  0  0  0  0  0  0  0  0  0  0  0
    0.0497   -0.6697    0.0505 C   0  0  0  0  0  0  0  0  0  0  0  0
   -1.1725   -1.3954    0.0717 C   0  0  0  0  0  0  0  0  0  0  0  0
   -2.4061   -0.6992   -0.0274 C   0  0  0  0  0  0  0  0  0  0  0  0
   -2.3964    0.7017   -0.0811 C   0  0  0  0  0  0  0  0  0  0  0  0
   -1.2017    1.4107   -0.0186 C   0  0  0  0  0  0  0  0  0  0  0  0
   -3.5706   -1.4313   -0.0763 O   0  0  0  0  0  0  0  0  0  0  0  0
   -4.7953   -0.7080   -0.2335 C   0  0  0  0  0  0  0  0  0  0  0  0
   -1.2228   -2.7969    0.1808 O   0  0  0  0  0  0  0  0  0  0  0  0
    0.0617   -3.4255    0.3265 C   0  0  0  0  0  0  0  0  0  0  0  0
    0.0672   -4.9318    0.4761 C   0  0  0  0  0  0  0  0  0  0  0  0
    1.5285   -5.4159    0.5770 C   0  0  0  0  0  0  0  0  0  0  0  0
    1.5921   -6.9304    0.7149 C   0  0  0  0  0  0  0  0  0  0  0  0
    3.0232   -7.4323    0.8161 C   0  0  0  0  0  0  0  0  0  0  0  0
    1.2543   -1.2816    0.0346 N   0  0  0  0  0  0  0  0  0  0  0  0
    2.3930   -0.6024    0.0051 C   0  0  0  0  0  0  0  0  0  0  0  0
    2.4456    0.7635    0.0074 C   0  0  0  0  0  0  0  0  0  0  0  0
    3.7043    1.5304   -0.0505 C   0  0  0  0  0  0  0  0  0  0  0  0
    3.6540    2.7652   -0.0633 O   0  0  0  0  0  0  0  0  0  0  0  0
    4.8801    0.8270   -0.0997 N   0  0  0  0  0  0  0  0  0  0  0  0
    6.1361    1.5300   -0.1981 C   0  0  0  0  0  0  0  0  0  0  0  0
    7.3353    0.5948   -0.2587 C   0  0  0  0  0  0  0  0  0  0  0  0
    8.6388    1.3466   -0.3316 C   0  0  0  0  0  0  0  0  0  0  0  0
    9.2017    1.6919   -1.5651 C   0  0  0  0  0  0  0  0  0  0  0  0
   10.4386    2.3424   -1.6198 C   0  0  0  0  0  0  0  0  0  0  0  0
   11.1450    2.6351   -0.4518 C   0  0  0  0  0  0  0  0  0  0  0  0
   10.5291    2.3927    0.7768 C   0  0  0  0  0  0  0  0  0  0  0  0
    9.2972    1.7349    0.8404 C   0  0  0  0  0  0  0  0  0  0  0  0
   12.3422    3.3594   -0.5145 N   0  0  0  0  0  0  0  0  0  0  0  0
    3.4598   -1.4362   -0.0500 O   0  0  0  0  0  0  0  0  0  0  0  0
    1.2241    2.5239    0.0262 H   0  0  0  0  0  0  0  0  0  0  0  0
   -3.3056    1.2867   -0.1736 H   0  0  0  0  0  0  0  0  0  0  0  0
   -1.2261    2.4981   -0.0389 H   0  0  0  0  0  0  0  0  0  0  0  0
   -5.6269   -1.4142   -0.1490 H   0  0  0  0  0  0  0  0  0  0  0  0
   -4.8569   -0.2403   -1.2240 H   0  0  0  0  0  0  0  0  0  0  0  0
   -4.9341    0.0405    0.5558 H   0  0  0  0  0  0  0  0  0  0  0  0
    0.5535   -3.0392    1.2312 H   0  0  0  0  0  0  0  0  0  0  0  0
    0.6364   -3.2505   -0.5919 H   0  0  0  0  0  0  0  0  0  0  0  0
   -0.4263   -5.3810   -0.3904 H   0  0  0  0  0  0  0  0  0  0  0  0
   -0.4966   -5.2145    1.3692 H   0  0  0  0  0  0  0  0  0  0  0  0
    2.0263   -4.9452    1.4364 H   0  0  0  0  0  0  0  0  0  0  0  0
    2.0953   -5.1039   -0.3120 H   0  0  0  0  0  0  0  0  0  0  0  0
    1.1073   -7.3949   -0.1507 H   0  0  0  0  0  0  0  0  0  0  0  0
    1.0380   -7.2365    1.6086 H   0  0  0  0  0  0  0  0  0  0  0  0
    3.5985   -7.1697   -0.0776 H   0  0  0  0  0  0  0  0  0  0  0  0
    3.0306   -8.5220    0.9169 H   0  0  0  0  0  0  0  0  0  0  0  0
    3.5302   -7.0067    1.6880 H   0  0  0  0  0  0  0  0  0  0  0  0
    4.8541   -0.1967   -0.0945 H   0  0  0  0  0  0  0  0  0  0  0  0
    6.2008    2.1978    0.6713 H   0  0  0  0  0  0  0  0  0  0  0  0
    6.0865    2.1610   -1.0921 H   0  0  0  0  0  0  0  0  0  0  0  0
    7.2478   -0.0770   -1.1228 H   0  0  0  0  0  0  0  0  0  0  0  0
    7.3435   -0.0631    0.6205 H   0  0  0  0  0  0  0  0  0  0  0  0
    8.6865    1.4593   -2.4942 H   0  0  0  0  0  0  0  0  0  0  0  0
   10.8530    2.6087   -2.5885 H   0  0  0  0  0  0  0  0  0  0  0  0
   11.0101    2.7006    1.7011 H   0  0  0  0  0  0  0  0  0  0  0  0
    8.8563    1.5292    1.8132 H   0  0  0  0  0  0  0  0  0  0  0  0
   12.8630    3.1965   -1.3709 H   0  0  0  0  0  0  0  0  0  0  0  0
   12.9239    3.2491    0.3102 H   0  0  0  0  0  0  0  0  0  0  0  0
    3.0000   -2.2953   -0.0770 H   0  0  0  0  0  0  0  0  0  0  0  0
  1 18  2  0  0  0  0
  1  2  1  0  0  0  0
  1 32  1  0  0  0  0
  2  7  2  0  0  0  0
  2  3  1  0  0  0  0
  3  4  2  0  0  0  0
  3 16  1  0  0  0  0
  4  5  1  0  0  0  0
  4 10  1  0  0  0  0
  5  6  2  0  0  0  0
  5  8  1  0  0  0  0
  6  7  1  0  0  0  0
  6 33  1  0  0  0  0
  7 34  1  0  0  0  0
  8  9  1  0  0  0  0
  9 35  1  0  0  0  0
  9 36  1  0  0  0  0
  9 37  1  0  0  0  0
 10 11  1  0  0  0  0
 11 12  1  0  0  0  0
 11 38  1  0  0  0  0
 11 39  1  0  0  0  0
 12 13  1  0  0  0  0
 12 40  1  0  0  0  0
 12 41  1  0  0  0  0
 13 14  1  0  0  0  0
 13 42  1  0  0  0  0
 13 43  1  0  0  0  0
 14 15  1  0  0  0  0
 14 44  1  0  0  0  0
 14 45  1  0  0  0  0
 15 46  1  0  0  0  0
 15 47  1  0  0  0  0
 15 48  1  0  0  0  0
 16 17  2  0  0  0  0
 17 18  1  0  0  0  0
 17 31  1  0  0  0  0
 18 19  1  0  0  0  0
 19 20  2  0  0  0  0
 19 21  1  0  0  0  0
 21 22  1  0  0  0  0
 21 49  1  0  0  0  0
 22 23  1  0  0  0  0
 22 50  1  0  0  0  0
 22 51  1  0  0  0  0
 23 24  1  0  0  0  0
 23 52  1  0  0  0  0
 23 53  1  0  0  0  0
 24 29  2  0  0  0  0
 24 25  1  0  0  0  0
 25 26  2  0  0  0  0
 25 54  1  0  0  0  0
 26 27  1  0  0  0  0
 26 55  1  0  0  0  0
 27 28  2  0  0  0  0
 27 30  1  0  0  0  0
 28 29  1  0  0  0  0
 28 56  1  0  0  0  0
 29 57  1  0  0  0  0
 30 58  1  0  0  0  0
 30 59  1  0  0  0  0
 31 60  1  0  0  0  0
M  END
$$$$
CHEMBL2206857
 OpenBabel12022418093D

 43 46  0  0  0  0  0  0  0  0999 V2000
    2.9801    0.1808    1.8296 C   0  0  0  0  0  0  0  0  0  0  0  0
    2.8413   -1.0068    0.8934 C   0  0  0  0  0  0  0  0  0  0  0  0
    3.5931   -0.8253   -0.4300 C   0  0  0  0  0  0  0  0  0  0  0  0
    5.0497   -0.8812   -0.3360 N   0  0  0  0  0  0  0  0  0  0  0  0
    5.9072    0.2056   -0.3678 C   0  0  0  0  0  0  0  0  0  0  0  0
    7.2389   -0.2108   -0.3542 C   0  0  0  0  0  0  0  0  0  0  0  0
    8.5665    0.5412   -0.3504 C   0  0  0  0  0  0  0  0  0  0  0  0
    9.5961   -0.1282   -0.2599 O   0  0  0  0  0  0  0  0  0  0  0  0
    8.7801    2.0716   -0.4820 C   0  0  0  0  0  0  0  0  0  0  0  0
    7.6614    2.8908   -0.6399 C   0  0  0  0  0  0  0  0  0  0  0  0
    7.7588    4.2467   -0.9221 C   0  0  0  0  0  0  0  0  0  0  0  0
    8.9978    4.8648   -1.0091 C   0  0  0  0  0  0  0  0  0  0  0  0
   10.1722    4.1435   -0.7379 C   0  0  0  0  0  0  0  0  0  0  0  0
   11.4185    4.8376   -0.7008 C   0  0  0  0  0  0  0  0  0  0  0  0
   12.6127    4.1979   -0.3975 C   0  0  0  0  0  0  0  0  0  0  0  0
   12.5851    2.8385   -0.1639 C   0  0  0  0  0  0  0  0  0  0  0  0
   11.3693    2.1245   -0.2172 C   0  0  0  0  0  0  0  0  0  0  0  0
   10.1002    2.7309   -0.4788 C   0  0  0  0  0  0  0  0  0  0  0  0
    8.9751    6.5428   -1.4547 Cl  0  0  0  0  0  0  0  0  0  0  0  0
    7.1265   -1.6808   -0.3646 C   0  0  0  0  0  0  0  0  0  0  0  0
    8.0662   -2.7418   -0.4032 C   0  0  0  0  0  0  0  0  0  0  0  0
    7.6410   -4.0807   -0.4165 C   0  0  0  0  0  0  0  0  0  0  0  0
    6.2903   -4.3962   -0.3837 C   0  0  0  0  0  0  0  0  0  0  0  0
    5.3347   -3.3849   -0.3447 C   0  0  0  0  0  0  0  0  0  0  0  0
    5.7743   -2.0461   -0.3434 C   0  0  0  0  0  0  0  0  0  0  0  0
    2.3842    0.0188    2.7340 H   0  0  0  0  0  0  0  0  0  0  0  0
    2.6228    1.0985    1.3521 H   0  0  0  0  0  0  0  0  0  0  0  0
    4.0198    0.3263    2.1346 H   0  0  0  0  0  0  0  0  0  0  0  0
    1.7737   -1.1400    0.6699 H   0  0  0  0  0  0  0  0  0  0  0  0
    3.1664   -1.9176    1.4092 H   0  0  0  0  0  0  0  0  0  0  0  0
    3.3162    0.1159   -0.9160 H   0  0  0  0  0  0  0  0  0  0  0  0
    3.2906   -1.6273   -1.1162 H   0  0  0  0  0  0  0  0  0  0  0  0
    5.4273    1.1671   -0.3958 H   0  0  0  0  0  0  0  0  0  0  0  0
    6.6629    2.5241   -0.5496 H   0  0  0  0  0  0  0  0  0  0  0  0
    6.8490    4.8295   -1.0770 H   0  0  0  0  0  0  0  0  0  0  0  0
   11.4738    5.9128   -0.8795 H   0  0  0  0  0  0  0  0  0  0  0  0
   13.5368    4.7687   -0.3393 H   0  0  0  0  0  0  0  0  0  0  0  0
   13.5156    2.3269    0.0756 H   0  0  0  0  0  0  0  0  0  0  0  0
   11.4464    1.0589   -0.0124 H   0  0  0  0  0  0  0  0  0  0  0  0
    9.1308   -2.5283   -0.4358 H   0  0  0  0  0  0  0  0  0  0  0  0
    8.3780   -4.8789   -0.4540 H   0  0  0  0  0  0  0  0  0  0  0  0
    5.9714   -5.4363   -0.3913 H   0  0  0  0  0  0  0  0  0  0  0  0
    4.2788   -3.6400   -0.3171 H   0  0  0  0  0  0  0  0  0  0  0  0
  1  2  1  0  0  0  0
  1 26  1  0  0  0  0
  1 27  1  0  0  0  0
  1 28  1  0  0  0  0
  2  3  1  0  0  0  0
  2 29  1  0  0  0  0
  2 30  1  0  0  0  0
  3  4  1  0  0  0  0
  3 31  1  0  0  0  0
  3 32  1  0  0  0  0
  4 25  1  0  0  0  0
  4  5  1  0  0  0  0
  5  6  2  0  0  0  0
  5 33  1  0  0  0  0
  6  7  1  0  0  0  0
  6 20  1  0  0  0  0
  7  8  2  0  0  0  0
  7  9  1  0  0  0  0
  9 18  2  0  0  0  0
  9 10  1  0  0  0  0
 10 11  2  0  0  0  0
 10 34  1  0  0  0  0
 11 12  1  0  0  0  0
 11 35  1  0  0  0  0
 12 13  2  0  0  0  0
 12 19  1  0  0  0  0
 13 18  1  0  0  0  0
 13 14  1  0  0  0  0
 14 15  2  0  0  0  0
 14 36  1  0  0  0  0
 15 16  1  0  0  0  0
 15 37  1  0  0  0  0
 16 17  2  0  0  0  0
 16 38  1  0  0  0  0
 17 18  1  0  0  0  0
 17 39  1  0  0  0  0
 20 25  2  0  0  0  0
 20 21  1  0  0  0  0
 21 22  2  0  0  0  0
 21 40  1  0  0  0  0
 22 23  1  0  0  0  0
 22 41  1  0  0  0  0
 23 24  2  0  0  0  0
 23 42  1  0  0  0  0
 24 25  1  0  0  0  0
 24 43  1  0  0  0  0
M  END
$$$$
CHEMBL2206851
 OpenBabel12022418093D

 52 55  0  0  0  0  0  0  0  0999 V2000
   -2.0840   -0.7069    0.0020 C   0  0  0  0  0  0  0  0  0  0  0  0
   -2.0959    0.6519   -0.0030 C   0  0  0  0  0  0  0  0  0  0  0  0
   -0.9518    1.3718    0.0020 C   0  0  0  0  0  0  0  0  0  0  0  0
    0.2797    0.7146    0.0010 C   0  0  0  0  0  0  0  0  0  0  0  0
    0.2995   -0.7077   -0.0000 C   0  0  0  0  0  0  0  0  0  0  0  0
   -0.9268   -1.4037    0.0000 C   0  0  0  0  0  0  0  0  0  0  0  0
    1.5843   -1.0638   -0.0010 C   0  0  0  0  0  0  0  0  0  0  0  0
    2.3277    0.0340   -0.0000 C   0  0  0  0  0  0  0  0  0  0  0  0
    3.8466    0.0513    0.0009 C   0  0  0  0  0  0  0  0  0  0  0  0
    1.5641    1.1084    0.0000 N   0  0  0  0  0  0  0  0  0  0  0  0
    2.0374    2.4995   -0.0009 C   0  0  0  0  0  0  0  0  0  0  0  0
    1.5235    3.2111    1.2397 C   0  0  0  0  0  0  0  0  0  0  0  0
    2.0128    4.6497    1.2390 C   0  0  0  0  0  0  0  0  0  0  0  0
    1.5004    5.3604    2.4808 C   0  0  0  0  0  0  0  0  0  0  0  0
    1.9899    6.7991    2.4798 C   0  0  0  0  0  0  0  0  0  0  0  0
    2.1089   -2.4897   -0.0029 C   0  0  0  0  0  0  0  0  0  0  0  0
    3.2222   -2.7579    0.5460 O   0  0  0  0  0  0  0  0  0  0  0  0
    1.2999   -3.5956   -0.6609 C   0  0  0  0  0  0  0  0  0  0  0  0
    1.3695   -4.9029   -0.1950 C   0  0  0  0  0  0  0  0  0  0  0  0
    0.2691   -5.7378   -0.4882 C   0  0  0  0  0  0  0  0  0  0  0  0
   -0.3489   -5.5357   -1.7202 C   0  0  0  0  0  0  0  0  0  0  0  0
   -0.2195   -4.3605   -2.2979 C   0  0  0  0  0  0  0  0  0  0  0  0
    0.0899   -2.8338   -2.8003 C   0  0  0  0  0  0  0  0  0  0  0  0
   -0.7671   -1.8217   -5.0203 C   0  0  0  0  0  0  0  0  0  0  0  0
   -1.3324   -2.6008   -5.4927 C   0  0  0  0  0  0  0  0  0  0  0  0
   -0.7082   -2.8397   -4.2153 C   0  0  0  0  0  0  0  0  0  0  0  0
   -0.8433   -4.1216   -3.5746 C   0  0  0  0  0  0  0  0  0  0  0  0
   -2.1268   -0.9637   -8.0354 I   0  0  0  0  0  0  0  0  0  0  0  0
   -2.9806   -1.2188    0.0075 H   0  0  0  0  0  0  0  0  0  0  0  0
   -3.0019    1.1470   -0.0108 H   0  0  0  0  0  0  0  0  0  0  0  0
   -0.9894    2.4035    0.0065 H   0  0  0  0  0  0  0  0  0  0  0  0
   -0.9405   -2.4363   -0.0015 H   0  0  0  0  0  0  0  0  0  0  0  0
    4.2149   -0.9528    0.0003 H   0  0  0  0  0  0  0  0  0  0  0  0
    4.1974    0.5590    0.8752 H   0  0  0  0  0  0  0  0  0  0  0  0
    4.1985    0.5598   -0.8723 H   0  0  0  0  0  0  0  0  0  0  0  0
    1.6743    2.9993   -0.8749 H   0  0  0  0  0  0  0  0  0  0  0  0
    3.1076    2.5123   -0.0019 H   0  0  0  0  0  0  0  0  0  0  0  0
    1.8866    2.7111    2.1137 H   0  0  0  0  0  0  0  0  0  0  0  0
    0.4532    3.1983    1.2406 H   0  0  0  0  0  0  0  0  0  0  0  0
    1.6485    5.1499    0.3658 H   0  0  0  0  0  0  0  0  0  0  0  0
    3.0830    4.6624    1.2367 H   0  0  0  0  0  0  0  0  0  0  0  0
    1.8646    4.8602    3.3540 H   0  0  0  0  0  0  0  0  0  0  0  0
    0.4302    5.3476    2.4831 H   0  0  0  0  0  0  0  0  0  0  0  0
    3.0600    6.8120    2.4777 H   0  0  0  0  0  0  0  0  0  0  0  0
    1.6290    7.2996    3.3543 H   0  0  0  0  0  0  0  0  0  0  0  0
    1.6255    7.2995    1.6068 H   0  0  0  0  0  0  0  0  0  0  0  0
    2.1845   -5.2458    0.3388 H   0  0  0  0  0  0  0  0  0  0  0  0
   -0.0598   -6.4587    0.1743 H   0  0  0  0  0  0  0  0  0  0  0  0
   -0.8945   -6.2886   -2.1691 H   0  0  0  0  0  0  0  0  0  0  0  0
   -1.8761   -3.3503   -5.9470 H   0  0  0  0  0  0  0  0  0  0  0  0
   -0.1631   -2.0900   -3.7589 H   0  0  0  0  0  0  0  0  0  0  0  0
   -1.3884   -4.8713   -4.0309 H   0  0  0  0  0  0  0  0  0  0  0  0
  1  6  2  0  0  0  0
  1  2  1  0  0  0  0
  1 29  1  0  0  0  0
  2  3  2  0  0  0  0
  2 30  1  0  0  0  0
  3  4  1  0  0  0  0
  3 31  1  0  0  0  0
  4 10  1  0  0  0  0
  4  5  2  0  0  0  0
  5  6  1  0  0  0  0
  5  7  1  0  0  0  0
  6 32  1  0  0  0  0
  7  8  2  0  0  0  0
  7 16  1  0  0  0  0
  8  9  1  0  0  0  0
  8 10  1  0  0  0  0
  9 33  1  0  0  0  0
  9 34  1  0  0  0  0
  9 35  1  0  0  0  0
 10 11  1  0  0  0  0
 11 12  1  0  0  0  0
 11 36  1  0  0  0  0
 11 37  1  0  0  0  0
 12 13  1  0  0  0  0
 12 38  1  0  0  0  0
 12 39  1  0  0  0  0
 13 14  1  0  0  0  0
 13 40  1  0  0  0  0
 13 41  1  0  0  0  0
 14 15  1  0  0  0  0
 14 42  1  0  0  0  0
 14 43  1  0  0  0  0
 15 44  1  0  0  0  0
 15 45  1  0  0  0  0
 15 46  1  0  0  0  0
 16 17  2  0  0  0  0
 16 18  1  0  0  0  0
 18 23  2  0  0  0  0
 18 19  1  0  0  0  0
 19 20  2  0  0  0  0
 19 47  1  0  0  0  0
 20 21  1  0  0  0  0
 20 48  1  0  0  0  0
 21 22  2  0  0  0  0
 21 49  1  0  0  0  0
 22 27  1  0  0  0  0
 22 23  1  0  0  0  0
 23 24  1  0  0  0  0
 24 25  2  0  0  0  0
 24 28  1  0  0  0  0
 25 26  1  0  0  0  0
 25 50  1  0  0  0  0
 26 27  2  0  0  0  0
 26 51  1  0  0  0  0
 27 52  1  0  0  0  0
M  END
$$$$
CHEMBL2206855
 OpenBabel12022418093D

 49 52  0  0  0  0  0  0  0  0999 V2000
    4.5705    6.2770    4.1034 C   0  0  0  0  0  0  0  0  0  0  0  0
    4.4227    5.0133    3.2750 C   0  0  0  0  0  0  0  0  0  0  0  0
    4.9604    3.7890    4.0168 C   0  0  0  0  0  0  0  0  0  0  0  0
    4.8864    2.5088    3.1834 C   0  0  0  0  0  0  0  0  0  0  0  0
    5.6891    2.5423    1.8757 C   0  0  0  0  0  0  0  0  0  0  0  0
    7.1424    2.5365    2.0269 N   0  0  0  0  0  0  0  0  0  0  0  0
    7.9796    3.6402    1.9699 C   0  0  0  0  0  0  0  0  0  0  0  0
    9.3201    3.2479    2.0196 C   0  0  0  0  0  0  0  0  0  0  0  0
   10.6367    4.0136    2.0299 C   0  0  0  0  0  0  0  0  0  0  0  0
   11.6806    3.3590    2.0044 O   0  0  0  0  0  0  0  0  0  0  0  0
   10.8324    5.5477    2.0359 C   0  0  0  0  0  0  0  0  0  0  0  0
    9.7172    6.3831    1.9079 C   0  0  0  0  0  0  0  0  0  0  0  0
    9.8282    7.7616    1.7382 C   0  0  0  0  0  0  0  0  0  0  0  0
   11.0643    8.3644    1.7580 C   0  0  0  0  0  0  0  0  0  0  0  0
   12.2151    7.6281    2.0139 C   0  0  0  0  0  0  0  0  0  0  0  0
   13.4241    8.3541    2.1511 C   0  0  0  0  0  0  0  0  0  0  0  0
   14.6216    7.7148    2.4375 C   0  0  0  0  0  0  0  0  0  0  0  0
   14.6245    6.3351    2.5433 C   0  0  0  0  0  0  0  0  0  0  0  0
   13.4301    5.6004    2.3852 C   0  0  0  0  0  0  0  0  0  0  0  0
   12.1507    6.2008    2.1419 C   0  0  0  0  0  0  0  0  0  0  0  0
   11.1317    9.6866    1.5537 F   0  0  0  0  0  0  0  0  0  0  0  0
    9.2354    1.7767    2.0259 C   0  0  0  0  0  0  0  0  0  0  0  0
   10.1922    0.7338    1.9797 C   0  0  0  0  0  0  0  0  0  0  0  0
    9.7921   -0.6118    2.0126 C   0  0  0  0  0  0  0  0  0  0  0  0
    8.4521   -0.9521    2.1054 C   0  0  0  0  0  0  0  0  0  0  0  0
    7.4792    0.0419    2.1396 C   0  0  0  0  0  0  0  0  0  0  0  0
    7.8939    1.3857    2.0812 C   0  0  0  0  0  0  0  0  0  0  0  0
    4.2271    7.1430    3.5292 H   0  0  0  0  0  0  0  0  0  0  0  0
    5.6181    6.4436    4.3736 H   0  0  0  0  0  0  0  0  0  0  0  0
    3.9796    6.2174    5.0220 H   0  0  0  0  0  0  0  0  0  0  0  0
    4.9617    5.1631    2.3355 H   0  0  0  0  0  0  0  0  0  0  0  0
    3.3666    4.8616    3.0220 H   0  0  0  0  0  0  0  0  0  0  0  0
    4.3717    3.6418    4.9322 H   0  0  0  0  0  0  0  0  0  0  0  0
    5.9942    3.9607    4.3355 H   0  0  0  0  0  0  0  0  0  0  0  0
    3.8324    2.3159    2.9399 H   0  0  0  0  0  0  0  0  0  0  0  0
    5.2132    1.6651    3.8044 H   0  0  0  0  0  0  0  0  0  0  0  0
    5.4156    3.3882    1.2395 H   0  0  0  0  0  0  0  0  0  0  0  0
    5.4244    1.6501    1.2933 H   0  0  0  0  0  0  0  0  0  0  0  0
    7.4890    4.5940    1.8867 H   0  0  0  0  0  0  0  0  0  0  0  0
    8.7135    6.0041    1.9337 H   0  0  0  0  0  0  0  0  0  0  0  0
    8.9436    8.3718    1.5925 H   0  0  0  0  0  0  0  0  0  0  0  0
   13.4304    9.4413    2.0626 H   0  0  0  0  0  0  0  0  0  0  0  0
   15.5333    8.2954    2.5828 H   0  0  0  0  0  0  0  0  0  0  0  0
   15.5625    5.8255    2.7597 H   0  0  0  0  0  0  0  0  0  0  0  0
   13.5267    4.5209    2.4859 H   0  0  0  0  0  0  0  0  0  0  0  0
   11.2491    0.9659    1.8976 H   0  0  0  0  0  0  0  0  0  0  0  0
   10.5423   -1.3961    1.9647 H   0  0  0  0  0  0  0  0  0  0  0  0
    8.1514   -1.9976    2.1387 H   0  0  0  0  0  0  0  0  0  0  0  0
    6.4286   -0.2305    2.1986 H   0  0  0  0  0  0  0  0  0  0  0  0
  1  2  1  0  0  0  0
  1 28  1  0  0  0  0
  1 29  1  0  0  0  0
  1 30  1  0  0  0  0
  2  3  1  0  0  0  0
  2 31  1  0  0  0  0
  2 32  1  0  0  0  0
  3  4  1  0  0  0  0
  3 33  1  0  0  0  0
  3 34  1  0  0  0  0
  4  5  1  0  0  0  0
  4 35  1  0  0  0  0
  4 36  1  0  0  0  0
  5  6  1  0  0  0  0
  5 37  1  0  0  0  0
  5 38  1  0  0  0  0
  6 27  1  0  0  0  0
  6  7  1  0  0  0  0
  7  8  2  0  0  0  0
  7 39  1  0  0  0  0
  8  9  1  0  0  0  0
  8 22  1  0  0  0  0
  9 10  2  0  0  0  0
  9 11  1  0  0  0  0
 11 20  2  0  0  0  0
 11 12  1  0  0  0  0
 12 13  2  0  0  0  0
 12 40  1  0  0  0  0
 13 14  1  0  0  0  0
 13 41  1  0  0  0  0
 14 15  2  0  0  0  0
 14 21  1  0  0  0  0
 15 20  1  0  0  0  0
 15 16  1  0  0  0  0
 16 17  2  0  0  0  0
 16 42  1  0  0  0  0
 17 18  1  0  0  0  0
 17 43  1  0  0  0  0
 18 19  2  0  0  0  0
 18 44  1  0  0  0  0
 19 20  1  0  0  0  0
 19 45  1  0  0  0  0
 22 27  2  0  0  0  0
 22 23  1  0  0  0  0
 23 24  2  0  0  0  0
 23 46  1  0  0  0  0
 24 25  1  0  0  0  0
 24 47  1  0  0  0  0
 25 26  2  0  0  0  0
 25 48  1  0  0  0  0
 26 27  1  0  0  0  0
 26 49  1  0  0  0  0
M  END
$$$$
CHEMBL2206860
 OpenBabel12022418093D

 52 55  0  0  0  0  0  0  0  0999 V2000
    4.6946   -0.9885   -2.5646 C   0  0  0  0  0  0  0  0  0  0  0  0
    4.4050   -0.4040   -1.1913 C   0  0  0  0  0  0  0  0  0  0  0  0
    5.2168   -1.0742   -0.0720 C   0  0  0  0  0  0  0  0  0  0  0  0
    4.9340   -0.3815    1.2658 C   0  0  0  0  0  0  0  0  0  0  0  0
    5.6504   -0.9555    2.4954 C   0  0  0  0  0  0  0  0  0  0  0  0
    7.1141   -0.9485    2.5224 N   0  0  0  0  0  0  0  0  0  0  0  0
    7.9564    0.1586    2.6790 C   0  0  0  0  0  0  0  0  0  0  0  0
    7.4031    1.5522    2.6848 C   0  0  0  0  0  0  0  0  0  0  0  0
    9.2824   -0.2999    2.7458 C   0  0  0  0  0  0  0  0  0  0  0  0
   10.6067    0.3839    2.8020 C   0  0  0  0  0  0  0  0  0  0  0  0
   11.6097   -0.2504    2.4472 O   0  0  0  0  0  0  0  0  0  0  0  0
   10.9452    1.8087    3.1659 C   0  0  0  0  0  0  0  0  0  0  0  0
   11.8979    2.3828    2.2868 C   0  0  0  0  0  0  0  0  0  0  0  0
   12.4756    3.6259    2.5219 C   0  0  0  0  0  0  0  0  0  0  0  0
   12.1296    4.3367    3.6591 C   0  0  0  0  0  0  0  0  0  0  0  0
   11.2689    3.7770    4.6301 C   0  0  0  0  0  0  0  0  0  0  0  0
   11.0499    4.4370    5.8652 C   0  0  0  0  0  0  0  0  0  0  0  0
   10.3036    3.8546    6.8843 C   0  0  0  0  0  0  0  0  0  0  0  0
    9.7490    2.6018    6.6767 C   0  0  0  0  0  0  0  0  0  0  0  0
    9.9224    1.9305    5.4532 C   0  0  0  0  0  0  0  0  0  0  0  0
   10.6754    2.4804    4.3950 C   0  0  0  0  0  0  0  0  0  0  0  0
   12.8573    5.9068    3.8343 Cl  0  0  0  0  0  0  0  0  0  0  0  0
    9.1914   -1.7541    2.6400 C   0  0  0  0  0  0  0  0  0  0  0  0
   10.1556   -2.7970    2.6257 C   0  0  0  0  0  0  0  0  0  0  0  0
    9.7698   -4.1385    2.5373 C   0  0  0  0  0  0  0  0  0  0  0  0
    8.4297   -4.4712    2.4563 C   0  0  0  0  0  0  0  0  0  0  0  0
    7.4539   -3.4722    2.4398 C   0  0  0  0  0  0  0  0  0  0  0  0
    7.8514   -2.1184    2.5265 C   0  0  0  0  0  0  0  0  0  0  0  0
    4.1013   -0.4710   -3.3265 H   0  0  0  0  0  0  0  0  0  0  0  0
    4.4398   -2.0518   -2.6037 H   0  0  0  0  0  0  0  0  0  0  0  0
    5.7508   -0.8730   -2.8263 H   0  0  0  0  0  0  0  0  0  0  0  0
    3.3318   -0.5049   -0.9842 H   0  0  0  0  0  0  0  0  0  0  0  0
    4.6246    0.6703   -1.2151 H   0  0  0  0  0  0  0  0  0  0  0  0
    6.2849   -1.0154   -0.3065 H   0  0  0  0  0  0  0  0  0  0  0  0
    4.9489   -2.1364   -0.0131 H   0  0  0  0  0  0  0  0  0  0  0  0
    3.8548   -0.4570    1.4600 H   0  0  0  0  0  0  0  0  0  0  0  0
    5.1523    0.6865    1.1690 H   0  0  0  0  0  0  0  0  0  0  0  0
    5.3038   -1.9857    2.6357 H   0  0  0  0  0  0  0  0  0  0  0  0
    5.3277   -0.4235    3.3949 H   0  0  0  0  0  0  0  0  0  0  0  0
    6.3385    1.5765    2.9013 H   0  0  0  0  0  0  0  0  0  0  0  0
    7.5633    2.0091    1.6987 H   0  0  0  0  0  0  0  0  0  0  0  0
    7.8941    2.1611    3.4356 H   0  0  0  0  0  0  0  0  0  0  0  0
   12.2575    1.8196    1.4247 H   0  0  0  0  0  0  0  0  0  0  0  0
   13.2221    4.0161    1.8349 H   0  0  0  0  0  0  0  0  0  0  0  0
   11.4993    5.4097    6.0716 H   0  0  0  0  0  0  0  0  0  0  0  0
   10.2033    4.3654    7.8379 H   0  0  0  0  0  0  0  0  0  0  0  0
    9.1923    2.1306    7.4814 H   0  0  0  0  0  0  0  0  0  0  0  0
    9.4778    0.9430    5.3597 H   0  0  0  0  0  0  0  0  0  0  0  0
   11.2162   -2.5652    2.6812 H   0  0  0  0  0  0  0  0  0  0  0  0
   10.5280   -4.9179    2.5322 H   0  0  0  0  0  0  0  0  0  0  0  0
    8.1336   -5.5163    2.3998 H   0  0  0  0  0  0  0  0  0  0  0  0
    6.4112   -3.7633    2.3599 H   0  0  0  0  0  0  0  0  0  0  0  0
  1  2  1  0  0  0  0
  1 29  1  0  0  0  0
  1 30  1  0  0  0  0
  1 31  1  0  0  0  0
  2  3  1  0  0  0  0
  2 32  1  0  0  0  0
  2 33  1  0  0  0  0
  3  4  1  0  0  0  0
  3 34  1  0  0  0  0
  3 35  1  0  0  0  0
  4  5  1  0  0  0  0
  4 36  1  0  0  0  0
  4 37  1  0  0  0  0
  5  6  1  0  0  0  0
  5 38  1  0  0  0  0
  5 39  1  0  0  0  0
  6 28  1  0  0  0  0
  6  7  1  0  0  0  0
  7  8  1  0  0  0  0
  7  9  2  0  0  0  0
  8 40  1  0  0  0  0
  8 41  1  0  0  0  0
  8 42  1  0  0  0  0
  9 10  1  0  0  0  0
  9 23  1  0  0  0  0
 10 11  2  0  0  0  0
 10 12  1  0  0  0  0
 12 21  2  0  0  0  0
 12 13  1  0  0  0  0
 13 14  2  0  0  0  0
 13 43  1  0  0  0  0
 14 15  1  0  0  0  0
 14 44  1  0  0  0  0
 15 16  2  0  0  0  0
 15 22  1  0  0  0  0
 16 21  1  0  0  0  0
 16 17  1  0  0  0  0
 17 18  2  0  0  0  0
 17 45  1  0  0  0  0
 18 19  1  0  0  0  0
 18 46  1  0  0  0  0
 19 20  2  0  0  0  0
 19 47  1  0  0  0  0
 20 21  1  0  0  0  0
 20 48  1  0  0  0  0
 23 28  2  0  0  0  0
 23 24  1  0  0  0  0
 24 25  2  0  0  0  0
 24 49  1  0  0  0  0
 25 26  1  0  0  0  0
 25 50  1  0  0  0  0
 26 27  2  0  0  0  0
 26 51  1  0  0  0  0
 27 28  1  0  0  0  0
 27 52  1  0  0  0  0
M  END
$$$$
CHEMBL572887
 OpenBabel12022418093D

 53 56  0  0  0  0  0  0  0  0999 V2000
    1.2030    0.4573   -0.0772 C   0  0  0  0  0  0  0  0  0  0  0  0
    2.6709    0.2108   -0.0869 C   0  0  0  0  0  0  0  0  0  0  0  0
    3.6797    1.2324   -0.0031 C   0  0  0  0  0  0  0  0  0  0  0  0
    3.5137    2.7224    0.0376 C   0  0  0  0  0  0  0  0  0  0  0  0
    2.4209    3.2743   -0.0475 O   0  0  0  0  0  0  0  0  0  0  0  0
    4.7075    3.4015    0.1686 N   0  0  0  0  0  0  0  0  0  0  0  0
    4.9540    4.8513    0.1437 C   0  0  0  0  0  0  0  0  0  0  0  0
    4.7507    5.4725   -1.2520 C   0  0  0  0  0  0  0  0  0  0  0  0
    3.6385    6.5149   -1.4039 C   0  0  0  0  0  0  0  0  0  0  0  0
    4.0317    7.9067   -0.9100 C   0  0  0  0  0  0  0  0  0  0  0  0
    4.0164    8.0890    0.6040 C   0  0  0  0  0  0  0  0  0  0  0  0
    4.8281    7.0713    1.4036 C   0  0  0  0  0  0  0  0  0  0  0  0
    4.3156    5.6255    1.3079 C   0  0  0  0  0  0  0  0  0  0  0  0
    4.9056    0.6786    0.0654 N   0  0  0  0  0  0  0  0  0  0  0  0
    4.7243   -0.6674   -0.0084 N   0  0  0  0  0  0  0  0  0  0  0  0
    5.8612   -1.4991   -0.2505 C   0  0  0  0  0  0  0  0  0  0  0  0
    5.7725   -2.5334   -1.2041 C   0  0  0  0  0  0  0  0  0  0  0  0
    6.8784   -3.3461   -1.4787 C   0  0  0  0  0  0  0  0  0  0  0  0
    8.0824   -3.1195   -0.8205 C   0  0  0  0  0  0  0  0  0  0  0  0
    8.1872   -2.1029    0.1250 C   0  0  0  0  0  0  0  0  0  0  0  0
    7.0809   -1.2898    0.4167 C   0  0  0  0  0  0  0  0  0  0  0  0
    7.2878   -0.1718    1.7215 Cl  0  0  0  0  0  0  0  0  0  0  0  0
    9.4464   -4.1078   -1.1693 Cl  0  0  0  0  0  0  0  0  0  0  0  0
    3.3755   -0.9909   -0.0435 C   0  0  0  0  0  0  0  0  0  0  0  0
    2.8719   -2.3008    0.0414 N   0  0  0  0  0  0  0  0  0  0  0  0
    3.4362   -3.3653    0.7275 C   0  0  0  0  0  0  0  0  0  0  0  0
    2.6514   -4.4844    0.5782 C   0  0  0  0  0  0  0  0  0  0  0  0
    1.5531   -4.1186   -0.2175 C   0  0  0  0  0  0  0  0  0  0  0  0
    1.7150   -2.7859   -0.5326 C   0  0  0  0  0  0  0  0  0  0  0  0
    0.6193   -0.4511    0.0885 H   0  0  0  0  0  0  0  0  0  0  0  0
    0.8850    0.8960   -1.0272 H   0  0  0  0  0  0  0  0  0  0  0  0
    0.9335    1.1393    0.7356 H   0  0  0  0  0  0  0  0  0  0  0  0
    5.5162    2.7832    0.1755 H   0  0  0  0  0  0  0  0  0  0  0  0
    6.0370    4.8921    0.3246 H   0  0  0  0  0  0  0  0  0  0  0  0
    4.5840    4.6777   -1.9881 H   0  0  0  0  0  0  0  0  0  0  0  0
    5.6961    5.9459   -1.5505 H   0  0  0  0  0  0  0  0  0  0  0  0
    2.7058    6.1796   -0.9382 H   0  0  0  0  0  0  0  0  0  0  0  0
    3.4264    6.6079   -2.4771 H   0  0  0  0  0  0  0  0  0  0  0  0
    3.3271    8.6351   -1.3352 H   0  0  0  0  0  0  0  0  0  0  0  0
    5.0172    8.1836   -1.3045 H   0  0  0  0  0  0  0  0  0  0  0  0
    2.9787    8.0866    0.9595 H   0  0  0  0  0  0  0  0  0  0  0  0
    4.4065    9.0916    0.8256 H   0  0  0  0  0  0  0  0  0  0  0  0
    4.7830    7.3816    2.4555 H   0  0  0  0  0  0  0  0  0  0  0  0
    5.8850    7.1308    1.1149 H   0  0  0  0  0  0  0  0  0  0  0  0
    4.5838    5.1142    2.2417 H   0  0  0  0  0  0  0  0  0  0  0  0
    3.2210    5.6035    1.2613 H   0  0  0  0  0  0  0  0  0  0  0  0
    4.8599   -2.7181   -1.7678 H   0  0  0  0  0  0  0  0  0  0  0  0
    6.7939   -4.1477   -2.2106 H   0  0  0  0  0  0  0  0  0  0  0  0
    9.1267   -1.9536    0.6524 H   0  0  0  0  0  0  0  0  0  0  0  0
    4.3448   -3.2400    1.3012 H   0  0  0  0  0  0  0  0  0  0  0  0
    2.8471   -5.4608    1.0132 H   0  0  0  0  0  0  0  0  0  0  0  0
    0.7355   -4.7536   -0.5358 H   0  0  0  0  0  0  0  0  0  0  0  0
    1.1028   -2.1571   -1.1672 H   0  0  0  0  0  0  0  0  0  0  0  0
  1  2  1  0  0  0  0
  1 30  1  0  0  0  0
  1 31  1  0  0  0  0
  1 32  1  0  0  0  0
  2 24  2  0  0  0  0
  2  3  1  0  0  0  0
  3  4  1  0  0  0  0
  3 14  2  0  0  0  0
  4  5  2  0  0  0  0
  4  6  1  0  0  0  0
  6  7  1  0  0  0  0
  6 33  1  0  0  0  0
  7 13  1  0  0  0  0
  7  8  1  0  0  0  0
  7 34  1  0  0  0  0
  8  9  1  0  0  0  0
  8 35  1  0  0  0  0
  8 36  1  0  0  0  0
  9 10  1  0  0  0  0
  9 37  1  0  0  0  0
  9 38  1  0  0  0  0
 10 11  1  0  0  0  0
 10 39  1  0  0  0  0
 10 40  1  0  0  0  0
 11 12  1  0  0  0  0
 11 41  1  0  0  0  0
 11 42  1  0  0  0  0
 12 13  1  0  0  0  0
 12 43  1  0  0  0  0
 12 44  1  0  0  0  0
 13 45  1  0  0  0  0
 13 46  1  0  0  0  0
 14 15  1  0  0  0  0
 15 16  1  0  0  0  0
 15 24  1  0  0  0  0
 16 21  2  0  0  0  0
 16 17  1  0  0  0  0
 17 18  2  0  0  0  0
 17 47  1  0  0  0  0
 18 19  1  0  0  0  0
 18 48  1  0  0  0  0
 19 20  2  0  0  0  0
 19 23  1  0  0  0  0
 20 21  1  0  0  0  0
 20 49  1  0  0  0  0
 21 22  1  0  0  0  0
 24 25  1  0  0  0  0
 25 29  1  0  0  0  0
 25 26  1  0  0  0  0
 26 27  2  0  0  0  0
 26 50  1  0  0  0  0
 27 28  1  0  0  0  0
 27 51  1  0  0  0  0
 28 29  2  0  0  0  0
 28 52  1  0  0  0  0
 29 53  1  0  0  0  0
M  END
$$$$
CHEMBL3942450
 OpenBabel12022418093D

 53 55  0  0  0  0  0  0  0  0999 V2000
    2.3212   -0.3949   -0.4965 C   0  0  0  0  0  0  0  0  0  0  0  0
    3.4652   -1.3636   -0.1615 C   0  0  0  0  0  0  0  0  0  0  0  0
    4.6383   -1.1694   -1.1400 C   0  0  0  0  0  0  0  0  0  0  0  0
    3.9050   -1.3273    1.2550 N   0  0  0  0  0  0  0  0  0  0  0  0
    3.8087   -2.5841    2.0396 C   0  0  0  0  0  0  0  0  0  0  0  0
    2.4008   -2.7452    2.6311 C   0  0  0  0  0  0  0  0  0  0  0  0
    4.1991   -3.8763    1.3155 C   0  0  0  0  0  0  0  0  0  0  0  0
    4.3768   -0.0896    1.7810 C   0  0  0  0  0  0  0  0  0  0  0  0
    4.4387    0.9244    1.0765 O   0  0  0  0  0  0  0  0  0  0  0  0
    4.8833    0.0663    3.2050 C   0  0  0  0  0  0  0  0  0  0  0  0
    4.3524   -0.5824    4.3015 C   0  0  0  0  0  0  0  0  0  0  0  0
    4.9259   -0.3968    5.5558 C   0  0  0  0  0  0  0  0  0  0  0  0
    5.9670    0.5109    5.7604 C   0  0  0  0  0  0  0  0  0  0  0  0
    6.4214    1.1700    4.6074 C   0  0  0  0  0  0  0  0  0  0  0  0
    5.9034    0.9435    3.3647 N   0  0  0  0  0  0  0  0  0  0  0  0
    7.4671    2.0837    4.6938 O   0  0  0  0  0  0  0  0  0  0  0  0
    8.0211    2.3363    3.3880 C   0  0  0  0  0  0  0  0  0  0  0  0
    9.1286    3.3484    3.3778 C   0  0  0  0  0  0  0  0  0  0  0  0
    9.3064    4.4135    4.4281 C   0  0  0  0  0  0  0  0  0  0  0  0
   10.2881    3.2730    4.3349 C   0  0  0  0  0  0  0  0  0  0  0  0
    6.4608    0.6462    7.0737 N   0  0  0  0  0  0  0  0  0  0  0  0
    5.8725    0.1614    8.2907 C   0  0  0  0  0  0  0  0  0  0  0  0
    6.3405    1.4308    9.0001 C   0  0  0  0  0  0  0  0  0  0  0  0
    7.1247    1.7406    7.7104 C   0  0  0  0  0  0  0  0  0  0  0  0
    7.0634    1.2385   10.1288 F   0  0  0  0  0  0  0  0  0  0  0  0
    5.3540    2.3058    9.3210 F   0  0  0  0  0  0  0  0  0  0  0  0
    1.9540   -0.5859   -1.5117 H   0  0  0  0  0  0  0  0  0  0  0  0
    2.6251    0.6537   -0.4617 H   0  0  0  0  0  0  0  0  0  0  0  0
    1.4847   -0.5332    0.1942 H   0  0  0  0  0  0  0  0  0  0  0  0
    3.0589   -2.3471   -0.3614 H   0  0  0  0  0  0  0  0  0  0  0  0
    5.1410   -0.2079   -1.0088 H   0  0  0  0  0  0  0  0  0  0  0  0
    4.2904   -1.2180   -2.1777 H   0  0  0  0  0  0  0  0  0  0  0  0
    5.3881   -1.9557   -1.0027 H   0  0  0  0  0  0  0  0  0  0  0  0
    4.5399   -2.5132    2.8469 H   0  0  0  0  0  0  0  0  0  0  0  0
    1.6777   -3.0530    1.8698 H   0  0  0  0  0  0  0  0  0  0  0  0
    2.0117   -1.8141    3.0550 H   0  0  0  0  0  0  0  0  0  0  0  0
    2.4090   -3.5024    3.4234 H   0  0  0  0  0  0  0  0  0  0  0  0
    3.4315   -4.2070    0.6099 H   0  0  0  0  0  0  0  0  0  0  0  0
    4.3175   -4.6810    2.0508 H   0  0  0  0  0  0  0  0  0  0  0  0
    5.1461   -3.7675    0.7813 H   0  0  0  0  0  0  0  0  0  0  0  0
    3.5067   -1.2386    4.2513 H   0  0  0  0  0  0  0  0  0  0  0  0
    4.5289   -0.9918    6.3723 H   0  0  0  0  0  0  0  0  0  0  0  0
    7.2512    2.7232    2.7082 H   0  0  0  0  0  0  0  0  0  0  0  0
    8.4280    1.3974    2.9903 H   0  0  0  0  0  0  0  0  0  0  0  0
    9.3634    3.6229    2.3537 H   0  0  0  0  0  0  0  0  0  0  0  0
    8.6303    4.4360    5.2731 H   0  0  0  0  0  0  0  0  0  0  0  0
    9.6318    5.3924    4.0930 H   0  0  0  0  0  0  0  0  0  0  0  0
   11.2737    3.4764    3.9319 H   0  0  0  0  0  0  0  0  0  0  0  0
   10.2689    2.5217    5.1151 H   0  0  0  0  0  0  0  0  0  0  0  0
    6.3436   -0.7701    8.6201 H   0  0  0  0  0  0  0  0  0  0  0  0
    4.7849    0.0460    8.2738 H   0  0  0  0  0  0  0  0  0  0  0  0
    6.9148    2.7221    7.2786 H   0  0  0  0  0  0  0  0  0  0  0  0
    8.2023    1.5678    7.7871 H   0  0  0  0  0  0  0  0  0  0  0  0
  1  2  1  0  0  0  0
  1 27  1  0  0  0  0
  1 28  1  0  0  0  0
  1 29  1  0  0  0  0
  2  3  1  0  0  0  0
  2  4  1  0  0  0  0
  2 30  1  0  0  0  0
  3 31  1  0  0  0  0
  3 32  1  0  0  0  0
  3 33  1  0  0  0  0
  4  5  1  0  0  0  0
  4  8  1  0  0  0  0
  5  6  1  0  0  0  0
  5  7  1  0  0  0  0
  5 34  1  0  0  0  0
  6 35  1  0  0  0  0
  6 36  1  0  0  0  0
  6 37  1  0  0  0  0
  7 38  1  0  0  0  0
  7 39  1  0  0  0  0
  7 40  1  0  0  0  0
  8  9  2  0  0  0  0
  8 10  1  0  0  0  0
 10 15  2  0  0  0  0
 10 11  1  0  0  0  0
 11 12  2  0  0  0  0
 11 41  1  0  0  0  0
 12 13  1  0  0  0  0
 12 42  1  0  0  0  0
 13 14  2  0  0  0  0
 13 21  1  0  0  0  0
 14 15  1  0  0  0  0
 14 16  1  0  0  0  0
 16 17  1  0  0  0  0
 17 18  1  0  0  0  0
 17 43  1  0  0  0  0
 17 44  1  0  0  0  0
 18 20  1  0  0  0  0
 18 19  1  0  0  0  0
 18 45  1  0  0  0  0
 19 20  1  0  0  0  0
 19 46  1  0  0  0  0
 19 47  1  0  0  0  0
 20 48  1  0  0  0  0
 20 49  1  0  0  0  0
 21 24  1  0  0  0  0
 21 22  1  0  0  0  0
 22 23  1  0  0  0  0
 22 50  1  0  0  0  0
 22 51  1  0  0  0  0
 23 24  1  0  0  0  0
 23 25  1  0  0  0  0
 23 26  1  0  0  0  0
 24 52  1  0  0  0  0
 24 53  1  0  0  0  0
M  END
$$$$
CHEMBL3354960
 OpenBabel12022418093D

 56 60  0  0  1  0  0  0  0  0999 V2000
    1.1016    0.4730    0.4654 C   0  0  0  0  0  0  0  0  0  0  0  0
    2.6301    0.4006    0.2934 C   0  0  0  0  0  0  0  0  0  0  0  0
    2.9959   -1.0819    0.0454 C   0  0  0  0  0  0  0  0  0  0  0  0
    3.0620    1.2482   -0.9733 C   0  0  0  0  0  0  0  0  0  0  0  0
    2.6686    2.6795   -1.0382 N   0  0  0  0  0  0  0  0  0  0  0  0
    2.9865    3.2622   -2.3712 C   0  0  0  0  0  0  0  0  0  0  0  0
    4.4842    3.5472   -2.6109 C   0  0  0  0  0  0  0  0  0  0  0  0
    5.0381    4.3706   -1.5762 O   0  0  0  0  0  0  0  0  0  0  0  0
    4.8325    3.7617   -0.2947 C   0  0  0  0  0  0  0  0  0  0  0  0
    3.3326    3.5403   -0.0344 C   0  0  0  0  0  0  0  0  0  0  0  0
    3.2774    0.8348    1.5427 N   0  0  0  0  0  0  0  0  0  0  0  0
    4.6419    0.8695    1.7260 C   0  0  0  0  0  0  0  0  0  0  0  0
    5.4469    0.5212    0.8678 O   0  0  0  0  0  0  0  0  0  0  0  0
    5.0891    1.4038    3.0183 C   0  0  0  0  0  0  0  0  0  0  0  0
    6.4271    1.5357    3.4125 C   0  0  0  0  0  0  0  0  0  0  0  0
    6.3916    2.0167    4.6881 C   0  0  0  0  0  0  0  0  0  0  0  0
    7.7546    1.9291    5.3377 C   0  0  1  0  0  0  0  0  0  0  0  0
    8.6030    1.2432    4.2312 C   0  0  1  0  0  0  0  0  0  0  0  0
    7.7669    1.1098    2.9465 C   0  0  0  0  0  0  0  0  0  0  0  0
    8.9773    2.5909    4.7502 C   0  0  0  0  0  0  0  0  0  0  0  0
    5.0895    2.1637    5.0514 N   0  0  0  0  0  0  0  0  0  0  0  0
    4.6049    2.7131    6.2589 C   0  0  0  0  0  0  0  0  0  0  0  0
    5.3834    3.6510    6.9649 C   0  0  0  0  0  0  0  0  0  0  0  0
    4.8951    4.2138    8.1466 C   0  0  0  0  0  0  0  0  0  0  0  0
    3.6535    3.8195    8.6329 C   0  0  0  0  0  0  0  0  0  0  0  0
    2.8838    2.8825    7.9554 C   0  0  0  0  0  0  0  0  0  0  0  0
    3.3551    2.3437    6.7600 C   0  0  0  0  0  0  0  0  0  0  0  0
    2.6088    1.4067    6.1597 F   0  0  0  0  0  0  0  0  0  0  0  0
    3.1950    4.3507    9.7734 F   0  0  0  0  0  0  0  0  0  0  0  0
    4.2588    1.7921    4.0158 N   0  0  0  0  0  0  0  0  0  0  0  0
    0.5857    0.2158   -0.4675 H   0  0  0  0  0  0  0  0  0  0  0  0
    0.7745    1.4726    0.7699 H   0  0  0  0  0  0  0  0  0  0  0  0
    0.7587   -0.2295    1.2346 H   0  0  0  0  0  0  0  0  0  0  0  0
    2.4053   -1.5133   -0.7692 H   0  0  0  0  0  0  0  0  0  0  0  0
    2.8199   -1.6822    0.9463 H   0  0  0  0  0  0  0  0  0  0  0  0
    4.0512   -1.2035   -0.2197 H   0  0  0  0  0  0  0  0  0  0  0  0
    2.5845    0.7578   -1.8346 H   0  0  0  0  0  0  0  0  0  0  0  0
    4.1379    1.1367   -1.1417 H   0  0  0  0  0  0  0  0  0  0  0  0
    2.4484    4.2175   -2.4410 H   0  0  0  0  0  0  0  0  0  0  0  0
    2.5888    2.6347   -3.1770 H   0  0  0  0  0  0  0  0  0  0  0  0
    4.6094    4.0885   -3.5546 H   0  0  0  0  0  0  0  0  0  0  0  0
    5.0665    2.6221   -2.6854 H   0  0  0  0  0  0  0  0  0  0  0  0
    5.2438    4.4353    0.4634 H   0  0  0  0  0  0  0  0  0  0  0  0
    5.4084    2.8333   -0.2507 H   0  0  0  0  0  0  0  0  0  0  0  0
    3.1553    3.1893    0.9824 H   0  0  0  0  0  0  0  0  0  0  0  0
    2.8379    4.5205   -0.0774 H   0  0  0  0  0  0  0  0  0  0  0  0
    2.7171    1.1180    2.3433 H   0  0  0  0  0  0  0  0  0  0  0  0
    7.8123    1.6761    6.3871 H   0  0  0  0  0  0  0  0  0  0  0  0
    9.1824    0.3684    4.4857 H   0  0  0  0  0  0  0  0  0  0  0  0
    8.1503    1.7673    2.1599 H   0  0  0  0  0  0  0  0  0  0  0  0
    7.7595    0.0741    2.5960 H   0  0  0  0  0  0  0  0  0  0  0  0
    9.8622    2.6530    5.3759 H   0  0  0  0  0  0  0  0  0  0  0  0
    8.8393    3.4591    4.1160 H   0  0  0  0  0  0  0  0  0  0  0  0
    6.3433    3.9960    6.5858 H   0  0  0  0  0  0  0  0  0  0  0  0
    5.4684    4.9638    8.6849 H   0  0  0  0  0  0  0  0  0  0  0  0
    1.9284    2.5664    8.3577 H   0  0  0  0  0  0  0  0  0  0  0  0
  1  2  1  0  0  0  0
  1 31  1  0  0  0  0
  1 32  1  0  0  0  0
  1 33  1  0  0  0  0
  2  3  1  0  0  0  0
  2  4  1  0  0  0  0
  2 11  1  0  0  0  0
  3 34  1  0  0  0  0
  3 35  1  0  0  0  0
  3 36  1  0  0  0  0
  4  5  1  0  0  0  0
  4 37  1  0  0  0  0
  4 38  1  0  0  0  0
  5 10  1  0  0  0  0
  5  6  1  0  0  0  0
  6  7  1  0  0  0  0
  6 39  1  0  0  0  0
  6 40  1  0  0  0  0
  7  8  1  0  0  0  0
  7 41  1  0  0  0  0
  7 42  1  0  0  0  0
  8  9  1  0  0  0  0
  9 10  1  0  0  0  0
  9 43  1  0  0  0  0
  9 44  1  0  0  0  0
 10 45  1  0  0  0  0
 10 46  1  0  0  0  0
 11 12  1  0  0  0  0
 11 47  1  0  0  0  0
 12 13  2  0  0  0  0
 12 14  1  0  0  0  0
 14 30  2  0  0  0  0
 14 15  1  0  0  0  0
 15 19  1  0  0  0  0
 15 16  2  0  0  0  0
 16 17  1  0  0  0  0
 16 21  1  0  0  0  0
 17 18  1  0  0  0  0
 17 20  1  0  0  0  0
 17 48  1  1  0  0  0
 18 19  1  0  0  0  0
 18 20  1  0  0  0  0
 18 49  1  1  0  0  0
 19 50  1  0  0  0  0
 19 51  1  0  0  0  0
 20 52  1  0  0  0  0
 20 53  1  0  0  0  0
 21 22  1  0  0  0  0
 21 30  1  0  0  0  0
 22 27  2  0  0  0  0
 22 23  1  0  0  0  0
 23 24  2  0  0  0  0
 23 54  1  0  0  0  0
 24 25  1  0  0  0  0
 24 55  1  0  0  0  0
 25 26  2  0  0  0  0
 25 29  1  0  0  0  0
 26 27  1  0  0  0  0
 26 56  1  0  0  0  0
 27 28  1  0  0  0  0
M  END
$$$$
CHEMBL2336545
 OpenBabel12022418093D

 58 60  0  0  0  0  0  0  0  0999 V2000
    0.6501   -2.5804    0.9863 C   0  0  0  0  0  0  0  0  0  0  0  0
    2.1121   -2.8343    1.3171 C   0  0  0  0  0  0  0  0  0  0  0  0
    3.0370   -2.2500    0.3306 N   0  0  0  0  0  0  0  0  0  0  0  0
    2.8807   -2.6327   -1.0884 C   0  0  0  0  0  0  0  0  0  0  0  0
    3.1886   -4.1015   -1.3587 C   0  0  0  0  0  0  0  0  0  0  0  0
    4.3705   -2.0811    0.7518 C   0  0  0  0  0  0  0  0  0  0  0  0
    5.1858   -1.0982    0.1648 C   0  0  0  0  0  0  0  0  0  0  0  0
    6.5373   -0.9490    0.5179 C   0  0  0  0  0  0  0  0  0  0  0  0
    7.1109   -1.7923    1.4734 C   0  0  0  0  0  0  0  0  0  0  0  0
    8.6064   -1.8642    1.6842 C   0  0  0  0  0  0  0  0  0  0  0  0
    9.3357   -0.6569    2.1497 N   0  0  0  0  0  0  0  0  0  0  0  0
    8.7722   -0.0483    3.3908 C   0  0  0  0  0  0  0  0  0  0  0  0
    9.4511    1.2104    3.7993 C   0  0  0  0  0  0  0  0  0  0  0  0
    9.5942    2.4550    3.2158 C   0  0  0  0  0  0  0  0  0  0  0  0
   10.4282    3.2082    4.0789 C   0  0  0  0  0  0  0  0  0  0  0  0
   10.7184    2.3914    5.1455 C   0  0  0  0  0  0  0  0  0  0  0  0
   10.1096    1.1870    4.9976 O   0  0  0  0  0  0  0  0  0  0  0  0
   11.0529   -0.8590    2.0768 S   0  0  0  0  0  0  0  0  0  0  0  0
   11.3492   -1.8893    1.1010 O   0  0  0  0  0  0  0  0  0  0  0  0
   11.6602    0.4472    1.9506 O   0  0  0  0  0  0  0  0  0  0  0  0
   11.5185   -1.5331    3.6645 C   0  0  0  0  0  0  0  0  0  0  0  0
   10.9853   -2.7416    4.1131 C   0  0  0  0  0  0  0  0  0  0  0  0
   11.2486   -3.1677    5.4147 C   0  0  0  0  0  0  0  0  0  0  0  0
   12.0971   -2.4329    6.2443 C   0  0  0  0  0  0  0  0  0  0  0  0
   12.6793   -1.2567    5.7713 C   0  0  0  0  0  0  0  0  0  0  0  0
   12.3919   -0.8073    4.4795 C   0  0  0  0  0  0  0  0  0  0  0  0
   12.2502   -2.9349    7.5067 O   0  0  0  0  0  0  0  0  0  0  0  0
   13.5053   -2.6613    8.1184 C   0  0  0  0  0  0  0  0  0  0  0  0
    6.2899   -2.7287    2.1147 C   0  0  0  0  0  0  0  0  0  0  0  0
    4.9465   -2.8666    1.7575 C   0  0  0  0  0  0  0  0  0  0  0  0
    0.0328   -2.7762    1.8700 H   0  0  0  0  0  0  0  0  0  0  0  0
    0.3032   -3.2489    0.1920 H   0  0  0  0  0  0  0  0  0  0  0  0
    0.4788   -1.5469    0.6709 H   0  0  0  0  0  0  0  0  0  0  0  0
    2.2754   -3.9132    1.4245 H   0  0  0  0  0  0  0  0  0  0  0  0
    2.2955   -2.3711    2.2954 H   0  0  0  0  0  0  0  0  0  0  0  0
    3.5104   -2.0139   -1.7390 H   0  0  0  0  0  0  0  0  0  0  0  0
    1.8535   -2.4233   -1.4083 H   0  0  0  0  0  0  0  0  0  0  0  0
    4.2408   -4.3346   -1.1664 H   0  0  0  0  0  0  0  0  0  0  0  0
    2.9841   -4.3359   -2.4092 H   0  0  0  0  0  0  0  0  0  0  0  0
    2.5742   -4.7684   -0.7462 H   0  0  0  0  0  0  0  0  0  0  0  0
    4.7682   -0.4351   -0.5896 H   0  0  0  0  0  0  0  0  0  0  0  0
    7.1443   -0.2057    0.0049 H   0  0  0  0  0  0  0  0  0  0  0  0
    9.0041   -2.1671    0.7080 H   0  0  0  0  0  0  0  0  0  0  0  0
    8.8023   -2.6859    2.3740 H   0  0  0  0  0  0  0  0  0  0  0  0
    8.8022   -0.7813    4.2057 H   0  0  0  0  0  0  0  0  0  0  0  0
    7.7158    0.1928    3.2311 H   0  0  0  0  0  0  0  0  0  0  0  0
    9.1863    2.7589    2.2630 H   0  0  0  0  0  0  0  0  0  0  0  0
   10.7975    4.2137    3.9295 H   0  0  0  0  0  0  0  0  0  0  0  0
   11.3253    2.5043    6.0353 H   0  0  0  0  0  0  0  0  0  0  0  0
   10.3603   -3.3570    3.4800 H   0  0  0  0  0  0  0  0  0  0  0  0
   10.7934   -4.0822    5.7866 H   0  0  0  0  0  0  0  0  0  0  0  0
   13.3224   -0.6457    6.3961 H   0  0  0  0  0  0  0  0  0  0  0  0
   12.8197    0.1327    4.1361 H   0  0  0  0  0  0  0  0  0  0  0  0
   13.5558   -3.2429    9.0435 H   0  0  0  0  0  0  0  0  0  0  0  0
   13.5985   -1.6048    8.3871 H   0  0  0  0  0  0  0  0  0  0  0  0
   14.3322   -2.9800    7.4745 H   0  0  0  0  0  0  0  0  0  0  0  0
    6.6990   -3.4103    2.8570 H   0  0  0  0  0  0  0  0  0  0  0  0
    4.3780   -3.6506    2.2492 H   0  0  0  0  0  0  0  0  0  0  0  0
  1  2  1  0  0  0  0
  1 31  1  0  0  0  0
  1 32  1  0  0  0  0
  1 33  1  0  0  0  0
  2  3  1  0  0  0  0
  2 34  1  0  0  0  0
  2 35  1  0  0  0  0
  3  4  1  0  0  0  0
  3  6  1  0  0  0  0
  4  5  1  0  0  0  0
  4 36  1  0  0  0  0
  4 37  1  0  0  0  0
  5 38  1  0  0  0  0
  5 39  1  0  0  0  0
  5 40  1  0  0  0  0
  6 30  2  0  0  0  0
  6  7  1  0  0  0  0
  7  8  2  0  0  0  0
  7 41  1  0  0  0  0
  8  9  1  0  0  0  0
  8 42  1  0  0  0  0
  9 10  1  0  0  0  0
  9 29  2  0  0  0  0
 10 11  1  0  0  0  0
 10 43  1  0  0  0  0
 10 44  1  0  0  0  0
 11 12  1  0  0  0  0
 11 18  1  0  0  0  0
 12 13  1  0  0  0  0
 12 45  1  0  0  0  0
 12 46  1  0  0  0  0
 13 17  1  0  0  0  0
 13 14  2  0  0  0  0
 14 15  1  0  0  0  0
 14 47  1  0  0  0  0
 15 16  2  0  0  0  0
 15 48  1  0  0  0  0
 16 17  1  0  0  0  0
 16 49  1  0  0  0  0
 18 19  2  0  0  0  0
 18 20  2  0  0  0  0
 18 21  1  0  0  0  0
 21 26  2  0  0  0  0
 21 22  1  0  0  0  0
 22 23  2  0  0  0  0
 22 50  1  0  0  0  0
 23 24  1  0  0  0  0
 23 51  1  0  0  0  0
 24 25  2  0  0  0  0
 24 27  1  0  0  0  0
 25 26  1  0  0  0  0
 25 52  1  0  0  0  0
 26 53  1  0  0  0  0
 27 28  1  0  0  0  0
 28 54  1  0  0  0  0
 28 55  1  0  0  0  0
 28 56  1  0  0  0  0
 29 30  1  0  0  0  0
 29 57  1  0  0  0  0
 30 58  1  0  0  0  0
M  END
$$$$
CHEMBL3354950
 OpenBabel12022418093D

 43 46  0  0  1  0  0  0  0  0999 V2000
    4.0911    0.5254   -1.4962 C   0  0  0  0  0  0  0  0  0  0  0  0
    2.9894   -0.3668   -0.8921 C   0  0  0  0  0  0  0  0  0  0  0  0
    2.2695    0.3899    0.2409 C   0  0  0  0  0  0  0  0  0  0  0  0
    1.9579   -0.6493   -1.9990 C   0  0  0  0  0  0  0  0  0  0  0  0
    3.5509   -1.6388   -0.4030 N   0  0  0  0  0  0  0  0  0  0  0  0
    4.5126   -1.7108    0.5850 C   0  0  0  0  0  0  0  0  0  0  0  0
    4.9755   -0.7137    1.1380 O   0  0  0  0  0  0  0  0  0  0  0  0
    4.9775   -3.0557    0.9616 C   0  0  0  0  0  0  0  0  0  0  0  0
    6.0027   -3.2934    1.8914 C   0  0  0  0  0  0  0  0  0  0  0  0
    6.1557   -4.6443    1.9435 C   0  0  0  0  0  0  0  0  0  0  0  0
    7.4179   -5.0224    2.6854 C   0  0  1  0  0  0  0  0  0  0  0  0
    8.0282   -3.6351    3.0212 C   0  0  1  0  0  0  0  0  0  0  0  0
    7.0400   -2.5256    2.6172 C   0  0  0  0  0  0  0  0  0  0  0  0
    7.6774   -4.5940    4.1087 C   0  0  0  0  0  0  0  0  0  0  0  0
    5.2546   -5.2080    1.0972 N   0  0  0  0  0  0  0  0  0  0  0  0
    5.0150   -6.5877    0.9113 C   0  0  0  0  0  0  0  0  0  0  0  0
    5.1800   -7.4812    1.9794 C   0  0  0  0  0  0  0  0  0  0  0  0
    4.9332   -8.8415    1.8205 C   0  0  0  0  0  0  0  0  0  0  0  0
    4.5493   -9.3127    0.5744 C   0  0  0  0  0  0  0  0  0  0  0  0
    4.3921   -8.4455   -0.5049 C   0  0  0  0  0  0  0  0  0  0  0  0
    4.6020   -7.0716   -0.3353 C   0  0  0  0  0  0  0  0  0  0  0  0
    4.3189  -10.6217    0.4095 F   0  0  0  0  0  0  0  0  0  0  0  0
    5.5010   -7.0533    3.2086 F   0  0  0  0  0  0  0  0  0  0  0  0
    4.5494   -4.2292    0.4171 N   0  0  0  0  0  0  0  0  0  0  0  0
    3.6754    1.4645   -1.8787 H   0  0  0  0  0  0  0  0  0  0  0  0
    4.5957    0.0172   -2.3254 H   0  0  0  0  0  0  0  0  0  0  0  0
    4.8599    0.7929   -0.7647 H   0  0  0  0  0  0  0  0  0  0  0  0
    1.8242    1.3221   -0.1255 H   0  0  0  0  0  0  0  0  0  0  0  0
    2.9464    0.6595    1.0576 H   0  0  0  0  0  0  0  0  0  0  0  0
    1.4670   -0.2195    0.6722 H   0  0  0  0  0  0  0  0  0  0  0  0
    1.5299    0.2845   -2.3848 H   0  0  0  0  0  0  0  0  0  0  0  0
    1.1320   -1.2654   -1.6277 H   0  0  0  0  0  0  0  0  0  0  0  0
    2.4142   -1.1790   -2.8424 H   0  0  0  0  0  0  0  0  0  0  0  0
    3.2350   -2.5281   -0.7786 H   0  0  0  0  0  0  0  0  0  0  0  0
    7.9848   -5.8766    2.3436 H   0  0  0  0  0  0  0  0  0  0  0  0
    9.0577   -3.4415    2.7614 H   0  0  0  0  0  0  0  0  0  0  0  0
    6.6312   -2.0254    3.5001 H   0  0  0  0  0  0  0  0  0  0  0  0
    7.5277   -1.7957    1.9658 H   0  0  0  0  0  0  0  0  0  0  0  0
    8.4964   -5.0764    4.6323 H   0  0  0  0  0  0  0  0  0  0  0  0
    6.8222   -4.3933    4.7438 H   0  0  0  0  0  0  0  0  0  0  0  0
    5.0265   -9.5183    2.6620 H   0  0  0  0  0  0  0  0  0  0  0  0
    4.1075   -8.8482   -1.4727 H   0  0  0  0  0  0  0  0  0  0  0  0
    4.4855   -6.4016   -1.1846 H   0  0  0  0  0  0  0  0  0  0  0  0
  1  2  1  0  0  0  0
  1 25  1  0  0  0  0
  1 26  1  0  0  0  0
  1 27  1  0  0  0  0
  2  3  1  0  0  0  0
  2  4  1  0  0  0  0
  2  5  1  0  0  0  0
  3 28  1  0  0  0  0
  3 29  1  0  0  0  0
  3 30  1  0  0  0  0
  4 31  1  0  0  0  0
  4 32  1  0  0  0  0
  4 33  1  0  0  0  0
  5  6  1  0  0  0  0
  5 34  1  0  0  0  0
  6  7  2  0  0  0  0
  6  8  1  0  0  0  0
  8 24  2  0  0  0  0
  8  9  1  0  0  0  0
  9 13  1  0  0  0  0
  9 10  2  0  0  0  0
 10 11  1  0  0  0  0
 10 15  1  0  0  0  0
 11 12  1  0  0  0  0
 11 14  1  0  0  0  0
 11 35  1  6  0  0  0
 12 13  1  0  0  0  0
 12 14  1  0  0  0  0
 12 36  1  6  0  0  0
 13 37  1  0  0  0  0
 13 38  1  0  0  0  0
 14 39  1  0  0  0  0
 14 40  1  0  0  0  0
 15 16  1  0  0  0  0
 15 24  1  0  0  0  0
 16 21  2  0  0  0  0
 16 17  1  0  0  0  0
 17 18  2  0  0  0  0
 17 23  1  0  0  0  0
 18 19  1  0  0  0  0
 18 41  1  0  0  0  0
 19 20  2  0  0  0  0
 19 22  1  0  0  0  0
 20 21  1  0  0  0  0
 20 42  1  0  0  0  0
 21 43  1  0  0  0  0
M  END
$$$$
CHEMBL3354948
 OpenBabel12022418093D

 49 53  0  0  1  0  0  0  0  0999 V2000
    4.3257    1.3007    0.7788 C   0  0  0  0  0  0  0  0  0  0  0  0
    3.1643    0.9315   -0.1819 C   0  0  0  0  0  0  0  0  0  0  0  0
    2.4980   -0.3514    0.3798 C   0  0  0  0  0  0  0  0  0  0  0  0
    2.1837    2.1204   -0.1890 C   0  0  0  0  0  0  0  0  0  0  0  0
    0.8600    2.0460    0.2757 C   0  0  0  0  0  0  0  0  0  0  0  0
    0.0635    3.1894    0.3506 C   0  0  0  0  0  0  0  0  0  0  0  0
    0.6048    4.3931   -0.0555 C   0  0  0  0  0  0  0  0  0  0  0  0
    1.8580    4.5183   -0.5342 N   0  0  0  0  0  0  0  0  0  0  0  0
    2.6091    3.3905   -0.5883 C   0  0  0  0  0  0  0  0  0  0  0  0
    3.6756    0.6755   -1.5489 N   0  0  0  0  0  0  0  0  0  0  0  0
    4.6025   -0.3114   -1.8376 C   0  0  0  0  0  0  0  0  0  0  0  0
    5.0824   -1.0403   -0.9716 O   0  0  0  0  0  0  0  0  0  0  0  0
    5.0141   -0.4720   -3.2473 C   0  0  0  0  0  0  0  0  0  0  0  0
    6.0008   -1.3855   -3.6657 C   0  0  0  0  0  0  0  0  0  0  0  0
    6.1248   -1.2033   -5.0053 C   0  0  0  0  0  0  0  0  0  0  0  0
    7.3574   -1.8918   -5.5464 C   0  0  1  0  0  0  0  0  0  0  0  0
    7.9833   -2.5041   -4.2721 C   0  0  1  0  0  0  0  0  0  0  0  0
    7.0365   -2.2705   -3.0760 C   0  0  0  0  0  0  0  0  0  0  0  0
    7.5647   -3.3775   -5.4106 C   0  0  0  0  0  0  0  0  0  0  0  0
    5.2431   -0.2535   -5.4017 N   0  0  0  0  0  0  0  0  0  0  0  0
    5.0614    0.1826   -6.7320 C   0  0  0  0  0  0  0  0  0  0  0  0
    4.7311    1.5139   -7.0143 C   0  0  0  0  0  0  0  0  0  0  0  0
    4.7018    1.9394   -8.3468 C   0  0  0  0  0  0  0  0  0  0  0  0
    4.9519    1.0364   -9.3820 C   0  0  0  0  0  0  0  0  0  0  0  0
    5.2246   -0.2947   -9.1154 C   0  0  0  0  0  0  0  0  0  0  0  0
    5.2800   -0.7098   -7.7931 C   0  0  0  0  0  0  0  0  0  0  0  0
    5.4940   -2.0185   -7.5733 F   0  0  0  0  0  0  0  0  0  0  0  0
    4.9301    1.4597  -10.6516 F   0  0  0  0  0  0  0  0  0  0  0  0
    4.5762    0.2737   -4.3028 N   0  0  0  0  0  0  0  0  0  0  0  0
    3.9474    1.5524    1.7773 H   0  0  0  0  0  0  0  0  0  0  0  0
    4.9023    2.1592    0.4161 H   0  0  0  0  0  0  0  0  0  0  0  0
    5.0371    0.4790    0.9070 H   0  0  0  0  0  0  0  0  0  0  0  0
    2.1217   -0.1956    1.3987 H   0  0  0  0  0  0  0  0  0  0  0  0
    3.1920   -1.1944    0.4444 H   0  0  0  0  0  0  0  0  0  0  0  0
    1.6626   -0.6773   -0.2506 H   0  0  0  0  0  0  0  0  0  0  0  0
    0.4221    1.1117    0.6159 H   0  0  0  0  0  0  0  0  0  0  0  0
   -0.9509    3.1396    0.7317 H   0  0  0  0  0  0  0  0  0  0  0  0
    0.0305    5.3135   -0.0000 H   0  0  0  0  0  0  0  0  0  0  0  0
    3.6177    3.5559   -0.9596 H   0  0  0  0  0  0  0  0  0  0  0  0
    3.3282    1.2085   -2.3420 H   0  0  0  0  0  0  0  0  0  0  0  0
    7.9148   -1.4137   -6.3397 H   0  0  0  0  0  0  0  0  0  0  0  0
    9.0276   -2.3213   -4.0692 H   0  0  0  0  0  0  0  0  0  0  0  0
    6.6119   -3.2175   -2.7298 H   0  0  0  0  0  0  0  0  0  0  0  0
    7.5708   -1.7770   -2.2600 H   0  0  0  0  0  0  0  0  0  0  0  0
    8.3426   -3.8215   -6.0234 H   0  0  0  0  0  0  0  0  0  0  0  0
    6.6848   -4.0032   -5.3153 H   0  0  0  0  0  0  0  0  0  0  0  0
    4.5639    2.2322   -6.2131 H   0  0  0  0  0  0  0  0  0  0  0  0
    4.5001    2.9789   -8.5933 H   0  0  0  0  0  0  0  0  0  0  0  0
    5.3935   -0.9994   -9.9219 H   0  0  0  0  0  0  0  0  0  0  0  0
  1  2  1  0  0  0  0
  1 30  1  0  0  0  0
  1 31  1  0  0  0  0
  1 32  1  0  0  0  0
  2  3  1  0  0  0  0
  2  4  1  0  0  0  0
  2 10  1  0  0  0  0
  3 33  1  0  0  0  0
  3 34  1  0  0  0  0
  3 35  1  0  0  0  0
  4  9  2  0  0  0  0
  4  5  1  0  0  0  0
  5  6  2  0  0  0  0
  5 36  1  0  0  0  0
  6  7  1  0  0  0  0
  6 37  1  0  0  0  0
  7  8  2  0  0  0  0
  7 38  1  0  0  0  0
  8  9  1  0  0  0  0
  9 39  1  0  0  0  0
 10 11  1  0  0  0  0
 10 40  1  0  0  0  0
 11 12  2  0  0  0  0
 11 13  1  0  0  0  0
 13 29  2  0  0  0  0
 13 14  1  0  0  0  0
 14 18  1  0  0  0  0
 14 15  2  0  0  0  0
 15 16  1  0  0  0  0
 15 20  1  0  0  0  0
 16 17  1  0  0  0  0
 16 19  1  0  0  0  0
 16 41  1  6  0  0  0
 17 18  1  0  0  0  0
 17 19  1  0  0  0  0
 17 42  1  1  0  0  0
 18 43  1  0  0  0  0
 18 44  1  0  0  0  0
 19 45  1  0  0  0  0
 19 46  1  0  0  0  0
 20 21  1  0  0  0  0
 20 29  1  0  0  0  0
 21 26  2  0  0  0  0
 21 22  1  0  0  0  0
 22 23  2  0  0  0  0
 22 47  1  0  0  0  0
 23 24  1  0  0  0  0
 23 48  1  0  0  0  0
 24 25  2  0  0  0  0
 24 28  1  0  0  0  0
 25 26  1  0  0  0  0
 25 49  1  0  0  0  0
 26 27  1  0  0  0  0
M  END
$$$$
CHEMBL3986505
 OpenBabel12022418093D

 53 55  0  0  1  0  0  0  0  0999 V2000
    4.1295    1.8922    4.8532 C   0  0  0  0  0  0  0  0  0  0  0  0
    3.9312    1.5809    3.4256 C   0  0  0  0  0  0  0  0  0  0  0  0
    2.9755    1.9542    2.6118 N   0  0  0  0  0  0  0  0  0  0  0  0
    3.3851    1.4103    1.4058 C   0  0  0  0  0  0  0  0  0  0  0  0
    2.6155    1.6020    0.1170 C   0  0  1  0  0  0  0  0  0  0  0  0
    3.3890    1.2938   -1.1744 C   0  0  0  0  0  0  0  0  0  0  0  0
    1.2969    0.7379    0.2009 C   0  0  0  0  0  0  0  0  0  0  0  0
    0.2051    1.3165    0.0613 O   0  0  0  0  0  0  0  0  0  0  0  0
    1.3158   -0.6490    0.3973 N   0  0  0  0  0  0  0  0  0  0  0  0
    2.4828   -1.5115    0.5290 C   0  0  0  0  0  0  0  0  0  0  0  0
    0.0601   -1.3137    0.7345 C   0  0  0  0  0  0  0  0  0  0  0  0
    2.1879    3.0324    0.0469 N   0  0  0  0  0  0  0  0  0  0  0  0
    3.0530    4.1034    0.0415 C   0  0  0  0  0  0  0  0  0  0  0  0
    4.2768    3.9903    0.0975 O   0  0  0  0  0  0  0  0  0  0  0  0
    2.4338    5.4655   -0.0370 C   0  0  0  0  0  0  0  0  0  0  0  0
    3.2575    6.5883   -0.0655 C   0  0  0  0  0  0  0  0  0  0  0  0
    2.6630    7.8520   -0.1152 C   0  0  0  0  0  0  0  0  0  0  0  0
    1.2632    7.9725   -0.1801 C   0  0  0  0  0  0  0  0  0  0  0  0
    0.5482    6.7672   -0.1433 C   0  0  0  0  0  0  0  0  0  0  0  0
    1.0819    5.5226   -0.0739 N   0  0  0  0  0  0  0  0  0  0  0  0
    0.5199    9.2936   -0.2017 C   0  0  0  0  0  0  0  0  0  0  0  0
    0.7936   10.3756   -1.2185 C   0  0  0  0  0  0  0  0  0  0  0  0
   -0.4553    9.5585   -1.3312 C   0  0  0  0  0  0  0  0  0  0  0  0
    3.3690    9.0291   -0.1099 O   0  0  0  0  0  0  0  0  0  0  0  0
    4.7125    8.9936    0.3939 C   0  0  0  0  0  0  0  0  0  0  0  0
    5.1975   10.3897    0.7833 C   0  0  0  0  0  0  0  0  0  0  0  0
    4.3077   11.3617    0.4878 F   0  0  0  0  0  0  0  0  0  0  0  0
    5.4433   10.4580    2.1140 F   0  0  0  0  0  0  0  0  0  0  0  0
    6.3545   10.6942    0.1489 F   0  0  0  0  0  0  0  0  0  0  0  0
    4.5183    0.6919    1.4925 N   0  0  0  0  0  0  0  0  0  0  0  0
    4.8762    0.8006    2.8327 O   0  0  0  0  0  0  0  0  0  0  0  0
    4.9222    1.2754    5.2879 H   0  0  0  0  0  0  0  0  0  0  0  0
    3.2099    1.7143    5.4183 H   0  0  0  0  0  0  0  0  0  0  0  0
    4.4114    2.9426    4.9719 H   0  0  0  0  0  0  0  0  0  0  0  0
    3.7536    0.2686   -1.2464 H   0  0  0  0  0  0  0  0  0  0  0  0
    4.2722    1.9323   -1.2818 H   0  0  0  0  0  0  0  0  0  0  0  0
    2.7549    1.4662   -2.0529 H   0  0  0  0  0  0  0  0  0  0  0  0
    3.3840   -1.0872    0.1060 H   0  0  0  0  0  0  0  0  0  0  0  0
    2.2887   -2.4513    0.0005 H   0  0  0  0  0  0  0  0  0  0  0  0
    2.6474   -1.7261    1.5888 H   0  0  0  0  0  0  0  0  0  0  0  0
   -0.8151   -0.6794    0.5865 H   0  0  0  0  0  0  0  0  0  0  0  0
    0.1022   -1.6066    1.7896 H   0  0  0  0  0  0  0  0  0  0  0  0
   -0.0468   -2.2129    0.1201 H   0  0  0  0  0  0  0  0  0  0  0  0
    1.1864    3.2191    0.0229 H   0  0  0  0  0  0  0  0  0  0  0  0
    4.3325    6.4517   -0.0537 H   0  0  0  0  0  0  0  0  0  0  0  0
   -0.5397    6.7862   -0.1526 H   0  0  0  0  0  0  0  0  0  0  0  0
    0.2235    9.6556    0.7820 H   0  0  0  0  0  0  0  0  0  0  0  0
    1.5702   10.2265   -1.9588 H   0  0  0  0  0  0  0  0  0  0  0  0
    0.6902   11.4080   -0.8983 H   0  0  0  0  0  0  0  0  0  0  0  0
   -1.4017   10.0231   -1.0798 H   0  0  0  0  0  0  0  0  0  0  0  0
   -0.5130    8.8636   -2.1623 H   0  0  0  0  0  0  0  0  0  0  0  0
    5.3712    8.5862   -0.3820 H   0  0  0  0  0  0  0  0  0  0  0  0
    4.7717    8.3536    1.2824 H   0  0  0  0  0  0  0  0  0  0  0  0
  1  2  1  0  0  0  0
  1 32  1  0  0  0  0
  1 33  1  0  0  0  0
  1 34  1  0  0  0  0
  2 31  1  0  0  0  0
  2  3  2  0  0  0  0
  3  4  1  0  0  0  0
  4  5  1  0  0  0  0
  4 30  2  0  0  0  0
  5  6  1  0  0  0  0
  5  7  1  1  0  0  0
  5 12  1  0  0  0  0
  6 35  1  0  0  0  0
  6 36  1  0  0  0  0
  6 37  1  0  0  0  0
  7  8  2  0  0  0  0
  7  9  1  0  0  0  0
  9 10  1  0  0  0  0
  9 11  1  0  0  0  0
 10 38  1  0  0  0  0
 10 39  1  0  0  0  0
 10 40  1  0  0  0  0
 11 41  1  0  0  0  0
 11 42  1  0  0  0  0
 11 43  1  0  0  0  0
 12 13  1  0  0  0  0
 12 44  1  0  0  0  0
 13 14  2  0  0  0  0
 13 15  1  0  0  0  0
 15 20  2  0  0  0  0
 15 16  1  0  0  0  0
 16 17  2  0  0  0  0
 16 45  1  0  0  0  0
 17 18  1  0  0  0  0
 17 24  1  0  0  0  0
 18 19  2  0  0  0  0
 18 21  1  0  0  0  0
 19 20  1  0  0  0  0
 19 46  1  0  0  0  0
 21 23  1  0  0  0  0
 21 22  1  0  0  0  0
 21 47  1  0  0  0  0
 22 23  1  0  0  0  0
 22 48  1  0  0  0  0
 22 49  1  0  0  0  0
 23 50  1  0  0  0  0
 23 51  1  0  0  0  0
 24 25  1  0  0  0  0
 25 26  1  0  0  0  0
 25 52  1  0  0  0  0
 25 53  1  0  0  0  0
 26 27  1  0  0  0  0
 26 28  1  0  0  0  0
 26 29  1  0  0  0  0
 30 31  1  0  0  0  0
M  END
$$$$
CHEMBL3959114
 OpenBabel12022418093D

 45 48  0  0  0  0  0  0  0  0999 V2000
    2.3464    0.1701   -1.8712 C   0  0  0  0  0  0  0  0  0  0  0  0
    2.3218    1.6459   -1.5860 C   0  0  0  0  0  0  0  0  0  0  0  0
    1.9158    0.6612   -0.5129 C   0  0  0  0  0  0  0  0  0  0  0  0
    2.7957    0.4566    0.6883 C   0  0  0  0  0  0  0  0  0  0  0  0
    2.8874   -0.9454    0.9730 O   0  0  0  0  0  0  0  0  0  0  0  0
    3.7904   -1.2175    1.9878 C   0  0  0  0  0  0  0  0  0  0  0  0
    3.6473   -2.4132    2.7160 C   0  0  0  0  0  0  0  0  0  0  0  0
    4.5422   -2.5934    3.7743 C   0  0  0  0  0  0  0  0  0  0  0  0
    5.5693   -1.6807    4.0066 C   0  0  0  0  0  0  0  0  0  0  0  0
    5.6616   -0.5560    3.1964 C   0  0  0  0  0  0  0  0  0  0  0  0
    6.7711    0.4514    3.3884 C   0  0  0  0  0  0  0  0  0  0  0  0
    7.1650    1.1692    2.4763 O   0  0  0  0  0  0  0  0  0  0  0  0
    7.3043    0.5026    4.6641 N   0  0  0  0  0  0  0  0  0  0  0  0
    8.3290    1.4564    5.0789 C   0  0  0  0  0  0  0  0  0  0  0  0
    9.4736    0.8011    5.8610 C   0  0  0  0  0  0  0  0  0  0  0  0
    9.7424    1.3894    4.5173 C   0  0  0  0  0  0  0  0  0  0  0  0
    7.8297    2.8365    5.5276 C   0  0  0  0  0  0  0  0  0  0  0  0
    6.4804    2.9259    5.4277 F   0  0  0  0  0  0  0  0  0  0  0  0
    8.1422    3.0502    6.8309 F   0  0  0  0  0  0  0  0  0  0  0  0
    8.3760    3.8388    4.8036 F   0  0  0  0  0  0  0  0  0  0  0  0
    4.7790   -0.3089    2.2052 N   0  0  0  0  0  0  0  0  0  0  0  0
    2.6658   -3.4063    2.4577 N   0  0  0  0  0  0  0  0  0  0  0  0
    2.6342   -4.7537    2.9597 C   0  0  0  0  0  0  0  0  0  0  0  0
    2.1938   -5.2518    1.5813 C   0  0  0  0  0  0  0  0  0  0  0  0
    2.1274   -3.7734    1.1748 C   0  0  0  0  0  0  0  0  0  0  0  0
    1.0308   -5.9453    1.5474 F   0  0  0  0  0  0  0  0  0  0  0  0
    3.1079   -6.0074    0.9220 F   0  0  0  0  0  0  0  0  0  0  0  0
    1.5847   -0.2329   -2.5288 H   0  0  0  0  0  0  0  0  0  0  0  0
    3.3116   -0.3169   -1.9589 H   0  0  0  0  0  0  0  0  0  0  0  0
    1.5492    2.2406   -2.0589 H   0  0  0  0  0  0  0  0  0  0  0  0
    3.2779    2.1532   -1.5034 H   0  0  0  0  0  0  0  0  0  0  0  0
    0.8639    0.5909   -0.2617 H   0  0  0  0  0  0  0  0  0  0  0  0
    2.3431    0.9676    1.5475 H   0  0  0  0  0  0  0  0  0  0  0  0
    3.7794    0.8951    0.4842 H   0  0  0  0  0  0  0  0  0  0  0  0
    4.4718   -3.4608    4.4236 H   0  0  0  0  0  0  0  0  0  0  0  0
    6.2844   -1.8866    4.7941 H   0  0  0  0  0  0  0  0  0  0  0  0
    6.7581    0.1113    5.4238 H   0  0  0  0  0  0  0  0  0  0  0  0
    9.5029   -0.2813    5.9346 H   0  0  0  0  0  0  0  0  0  0  0  0
    9.8540    1.3068    6.7409 H   0  0  0  0  0  0  0  0  0  0  0  0
   10.3351    2.2997    4.4888 H   0  0  0  0  0  0  0  0  0  0  0  0
    9.9287    0.7314    3.6772 H   0  0  0  0  0  0  0  0  0  0  0  0
    1.8949   -4.8737    3.7573 H   0  0  0  0  0  0  0  0  0  0  0  0
    3.6002   -5.1544    3.2779 H   0  0  0  0  0  0  0  0  0  0  0  0
    2.7669   -3.5207    0.3258 H   0  0  0  0  0  0  0  0  0  0  0  0
    1.1151   -3.3869    1.0277 H   0  0  0  0  0  0  0  0  0  0  0  0
  1  3  1  0  0  0  0
  1  2  1  0  0  0  0
  1 28  1  0  0  0  0
  1 29  1  0  0  0  0
  2  3  1  0  0  0  0
  2 30  1  0  0  0  0
  2 31  1  0  0  0  0
  3  4  1  0  0  0  0
  3 32  1  0  0  0  0
  4  5  1  0  0  0  0
  4 33  1  0  0  0  0
  4 34  1  0  0  0  0
  5  6  1  0  0  0  0
  6 21  2  0  0  0  0
  6  7  1  0  0  0  0
  7  8  2  0  0  0  0
  7 22  1  0  0  0  0
  8  9  1  0  0  0  0
  8 35  1  0  0  0  0
  9 10  2  0  0  0  0
  9 36  1  0  0  0  0
 10 11  1  0  0  0  0
 10 21  1  0  0  0  0
 11 12  2  0  0  0  0
 11 13  1  0  0  0  0
 13 14  1  0  0  0  0
 13 37  1  0  0  0  0
 14 16  1  0  0  0  0
 14 15  1  0  0  0  0
 14 17  1  0  0  0  0
 15 16  1  0  0  0  0
 15 38  1  0  0  0  0
 15 39  1  0  0  0  0
 16 40  1  0  0  0  0
 16 41  1  0  0  0  0
 17 18  1  0  0  0  0
 17 19  1  0  0  0  0
 17 20  1  0  0  0  0
 22 25  1  0  0  0  0
 22 23  1  0  0  0  0
 23 24  1  0  0  0  0
 23 42  1  0  0  0  0
 23 43  1  0  0  0  0
 24 25  1  0  0  0  0
 24 26  1  0  0  0  0
 24 27  1  0  0  0  0
 25 44  1  0  0  0  0
 25 45  1  0  0  0  0
M  END
$$$$
CHEMBL3914194
 OpenBabel12022418093D

 58 60  0  0  1  0  0  0  0  0999 V2000
    3.8805    2.3781    4.8395 C   0  0  0  0  0  0  0  0  0  0  0  0
    3.6518    1.8953    3.4665 C   0  0  0  0  0  0  0  0  0  0  0  0
    3.1678    2.5326    2.4245 N   0  0  0  0  0  0  0  0  0  0  0  0
    3.0933    1.5271    1.4795 C   0  0  0  0  0  0  0  0  0  0  0  0
    2.4283    1.7231    0.1247 C   0  0  2  0  0  0  0  0  0  0  0  0
    1.1275    0.8751    0.1419 C   0  0  0  0  0  0  0  0  0  0  0  0
    3.3363    1.2529   -1.0628 C   0  0  0  0  0  0  0  0  0  0  0  0
    4.6937    1.9642   -1.4038 C   0  0  0  0  0  0  0  0  0  0  0  0
    5.7747    1.7357   -0.3344 C   0  0  0  0  0  0  0  0  0  0  0  0
    5.2241    1.3489   -2.7236 C   0  0  0  0  0  0  0  0  0  0  0  0
    4.5442    3.4749   -1.6364 C   0  0  0  0  0  0  0  0  0  0  0  0
    2.0371    3.1376    0.0155 N   0  0  0  0  0  0  0  0  0  0  0  0
    1.2882    3.6984   -0.9951 C   0  0  0  0  0  0  0  0  0  0  0  0
    0.8851    3.0929   -1.9812 O   0  0  0  0  0  0  0  0  0  0  0  0
    1.0030    5.1652   -0.8174 C   0  0  0  0  0  0  0  0  0  0  0  0
    0.2906    5.8497   -1.7938 C   0  0  0  0  0  0  0  0  0  0  0  0
    0.0960    7.2206   -1.6226 C   0  0  0  0  0  0  0  0  0  0  0  0
    0.5688    7.8624   -0.4622 C   0  0  0  0  0  0  0  0  0  0  0  0
    1.2701    7.0553    0.4413 C   0  0  0  0  0  0  0  0  0  0  0  0
    1.5096    5.7328    0.3004 N   0  0  0  0  0  0  0  0  0  0  0  0
    0.4345    9.3429   -0.1780 C   0  0  0  0  0  0  0  0  0  0  0  0
   -0.8858   10.0708   -0.1754 C   0  0  0  0  0  0  0  0  0  0  0  0
   -0.2152    9.7637    1.1267 C   0  0  0  0  0  0  0  0  0  0  0  0
   -0.5532    8.0176   -2.5316 O   0  0  0  0  0  0  0  0  0  0  0  0
   -0.6140    7.5520   -3.8883 C   0  0  0  0  0  0  0  0  0  0  0  0
   -0.8722    8.7025   -4.8602 C   0  0  0  0  0  0  0  0  0  0  0  0
   -1.0502    9.8889   -4.2401 F   0  0  0  0  0  0  0  0  0  0  0  0
    0.1670    8.8470   -5.7174 F   0  0  0  0  0  0  0  0  0  0  0  0
   -1.9759    8.4669   -5.6084 F   0  0  0  0  0  0  0  0  0  0  0  0
    3.5409    0.3342    1.9060 N   0  0  0  0  0  0  0  0  0  0  0  0
    3.9123    0.5789    3.2265 O   0  0  0  0  0  0  0  0  0  0  0  0
    4.4095    1.6354    5.4445 H   0  0  0  0  0  0  0  0  0  0  0  0
    2.9211    2.5880    5.3223 H   0  0  0  0  0  0  0  0  0  0  0  0
    4.4710    3.2984    4.8312 H   0  0  0  0  0  0  0  0  0  0  0  0
    0.6028    0.9029   -0.8178 H   0  0  0  0  0  0  0  0  0  0  0  0
    0.4315    1.2524    0.9033 H   0  0  0  0  0  0  0  0  0  0  0  0
    1.3263   -0.1772    0.3732 H   0  0  0  0  0  0  0  0  0  0  0  0
    2.7224    1.2911   -1.9737 H   0  0  0  0  0  0  0  0  0  0  0  0
    3.5558    0.1840   -0.9189 H   0  0  0  0  0  0  0  0  0  0  0  0
    5.9988    0.6700   -0.2162 H   0  0  0  0  0  0  0  0  0  0  0  0
    5.4875    2.1378    0.6388 H   0  0  0  0  0  0  0  0  0  0  0  0
    6.7103    2.2365   -0.6129 H   0  0  0  0  0  0  0  0  0  0  0  0
    5.4796    0.2908   -2.5966 H   0  0  0  0  0  0  0  0  0  0  0  0
    6.1270    1.8665   -3.0693 H   0  0  0  0  0  0  0  0  0  0  0  0
    4.4795    1.4199   -3.5245 H   0  0  0  0  0  0  0  0  0  0  0  0
    4.2890    4.0061   -0.7159 H   0  0  0  0  0  0  0  0  0  0  0  0
    3.7843    3.6856   -2.3959 H   0  0  0  0  0  0  0  0  0  0  0  0
    5.4846    3.9130   -1.9918 H   0  0  0  0  0  0  0  0  0  0  0  0
    2.2942    3.7528    0.7886 H   0  0  0  0  0  0  0  0  0  0  0  0
   -0.0895    5.3070   -2.6522 H   0  0  0  0  0  0  0  0  0  0  0  0
    1.6892    7.4857    1.3464 H   0  0  0  0  0  0  0  0  0  0  0  0
    1.2863    9.9383   -0.5040 H   0  0  0  0  0  0  0  0  0  0  0  0
   -1.7913    9.5302   -0.4243 H   0  0  0  0  0  0  0  0  0  0  0  0
   -0.8910   11.1059   -0.5025 H   0  0  0  0  0  0  0  0  0  0  0  0
    0.2514   10.5712    1.6784 H   0  0  0  0  0  0  0  0  0  0  0  0
   -0.6859    9.0141    1.7550 H   0  0  0  0  0  0  0  0  0  0  0  0
   -1.4231    6.8169   -3.9746 H   0  0  0  0  0  0  0  0  0  0  0  0
    0.3302    7.0733   -4.1739 H   0  0  0  0  0  0  0  0  0  0  0  0
  1  2  1  0  0  0  0
  1 32  1  0  0  0  0
  1 33  1  0  0  0  0
  1 34  1  0  0  0  0
  2 31  1  0  0  0  0
  2  3  2  0  0  0  0
  3  4  1  0  0  0  0
  4 30  2  0  0  0  0
  5  7  1  6  0  0  0
  5 12  1  0  0  0  0
  5  6  1  0  0  0  0
  5  4  1  0  0  0  0
  6 35  1  0  0  0  0
  6 36  1  0  0  0  0
  6 37  1  0  0  0  0
  7  8  1  0  0  0  0
  7 38  1  0  0  0  0
  7 39  1  0  0  0  0
  8  9  1  0  0  0  0
  8 10  1  0  0  0  0
  8 11  1  0  0  0  0
  9 40  1  0  0  0  0
  9 41  1  0  0  0  0
  9 42  1  0  0  0  0
 10 43  1  0  0  0  0
 10 44  1  0  0  0  0
 10 45  1  0  0  0  0
 11 46  1  0  0  0  0
 11 47  1  0  0  0  0
 11 48  1  0  0  0  0
 12 13  1  0  0  0  0
 12 49  1  0  0  0  0
 13 14  2  0  0  0  0
 13 15  1  0  0  0  0
 15 20  2  0  0  0  0
 15 16  1  0  0  0  0
 16 17  2  0  0  0  0
 16 50  1  0  0  0  0
 17 18  1  0  0  0  0
 17 24  1  0  0  0  0
 18 19  2  0  0  0  0
 18 21  1  0  0  0  0
 19 20  1  0  0  0  0
 19 51  1  0  0  0  0
 21 23  1  0  0  0  0
 21 22  1  0  0  0  0
 21 52  1  0  0  0  0
 22 23  1  0  0  0  0
 22 53  1  0  0  0  0
 22 54  1  0  0  0  0
 23 55  1  0  0  0  0
 23 56  1  0  0  0  0
 24 25  1  0  0  0  0
 25 26  1  0  0  0  0
 25 57  1  0  0  0  0
 25 58  1  0  0  0  0
 26 27  1  0  0  0  0
 26 28  1  0  0  0  0
 26 29  1  0  0  0  0
 30 31  1  0  0  0  0
M  END
$$$$
CHEMBL3918668
 OpenBabel12022418093D

 58 60  0  0  1  0  0  0  0  0999 V2000
    3.8805    2.3781    4.8395 C   0  0  0  0  0  0  0  0  0  0  0  0
    3.6518    1.8953    3.4665 C   0  0  0  0  0  0  0  0  0  0  0  0
    3.1678    2.5326    2.4245 N   0  0  0  0  0  0  0  0  0  0  0  0
    3.0933    1.5271    1.4795 C   0  0  0  0  0  0  0  0  0  0  0  0
    2.4283    1.7231    0.1247 C   0  0  2  0  0  0  0  0  0  0  0  0
    1.1275    0.8751    0.1419 C   0  0  0  0  0  0  0  0  0  0  0  0
    3.3363    1.2529   -1.0628 C   0  0  0  0  0  0  0  0  0  0  0  0
    4.6937    1.9642   -1.4038 C   0  0  0  0  0  0  0  0  0  0  0  0
    5.7747    1.7357   -0.3344 C   0  0  0  0  0  0  0  0  0  0  0  0
    5.2241    1.3489   -2.7236 C   0  0  0  0  0  0  0  0  0  0  0  0
    4.5442    3.4749   -1.6364 C   0  0  0  0  0  0  0  0  0  0  0  0
    2.0371    3.1376    0.0155 N   0  0  0  0  0  0  0  0  0  0  0  0
    1.2882    3.6984   -0.9951 C   0  0  0  0  0  0  0  0  0  0  0  0
    0.8851    3.0929   -1.9812 O   0  0  0  0  0  0  0  0  0  0  0  0
    1.0030    5.1652   -0.8174 C   0  0  0  0  0  0  0  0  0  0  0  0
    0.2906    5.8497   -1.7938 C   0  0  0  0  0  0  0  0  0  0  0  0
    0.0960    7.2206   -1.6226 C   0  0  0  0  0  0  0  0  0  0  0  0
    0.5688    7.8624   -0.4622 C   0  0  0  0  0  0  0  0  0  0  0  0
    1.2701    7.0553    0.4413 C   0  0  0  0  0  0  0  0  0  0  0  0
    1.5096    5.7328    0.3004 N   0  0  0  0  0  0  0  0  0  0  0  0
    0.4345    9.3429   -0.1780 C   0  0  0  0  0  0  0  0  0  0  0  0
   -0.8858   10.0708   -0.1754 C   0  0  0  0  0  0  0  0  0  0  0  0
   -0.2152    9.7637    1.1267 C   0  0  0  0  0  0  0  0  0  0  0  0
   -0.5532    8.0176   -2.5316 O   0  0  0  0  0  0  0  0  0  0  0  0
   -0.6140    7.5520   -3.8883 C   0  0  0  0  0  0  0  0  0  0  0  0
   -0.8722    8.7025   -4.8602 C   0  0  0  0  0  0  0  0  0  0  0  0
   -1.0502    9.8889   -4.2401 F   0  0  0  0  0  0  0  0  0  0  0  0
    0.1670    8.8470   -5.7174 F   0  0  0  0  0  0  0  0  0  0  0  0
   -1.9759    8.4669   -5.6084 F   0  0  0  0  0  0  0  0  0  0  0  0
    3.5409    0.3342    1.9060 N   0  0  0  0  0  0  0  0  0  0  0  0
    3.9123    0.5789    3.2265 O   0  0  0  0  0  0  0  0  0  0  0  0
    4.4095    1.6354    5.4445 H   0  0  0  0  0  0  0  0  0  0  0  0
    2.9211    2.5880    5.3223 H   0  0  0  0  0  0  0  0  0  0  0  0
    4.4710    3.2984    4.8312 H   0  0  0  0  0  0  0  0  0  0  0  0
    0.6028    0.9029   -0.8178 H   0  0  0  0  0  0  0  0  0  0  0  0
    0.4315    1.2524    0.9033 H   0  0  0  0  0  0  0  0  0  0  0  0
    1.3263   -0.1772    0.3732 H   0  0  0  0  0  0  0  0  0  0  0  0
    2.7224    1.2911   -1.9737 H   0  0  0  0  0  0  0  0  0  0  0  0
    3.5558    0.1840   -0.9189 H   0  0  0  0  0  0  0  0  0  0  0  0
    5.9988    0.6700   -0.2162 H   0  0  0  0  0  0  0  0  0  0  0  0
    5.4875    2.1378    0.6388 H   0  0  0  0  0  0  0  0  0  0  0  0
    6.7103    2.2365   -0.6129 H   0  0  0  0  0  0  0  0  0  0  0  0
    5.4796    0.2908   -2.5966 H   0  0  0  0  0  0  0  0  0  0  0  0
    6.1270    1.8665   -3.0693 H   0  0  0  0  0  0  0  0  0  0  0  0
    4.4795    1.4199   -3.5245 H   0  0  0  0  0  0  0  0  0  0  0  0
    4.2890    4.0061   -0.7159 H   0  0  0  0  0  0  0  0  0  0  0  0
    3.7843    3.6856   -2.3959 H   0  0  0  0  0  0  0  0  0  0  0  0
    5.4846    3.9130   -1.9918 H   0  0  0  0  0  0  0  0  0  0  0  0
    2.2942    3.7528    0.7886 H   0  0  0  0  0  0  0  0  0  0  0  0
   -0.0895    5.3070   -2.6522 H   0  0  0  0  0  0  0  0  0  0  0  0
    1.6892    7.4857    1.3464 H   0  0  0  0  0  0  0  0  0  0  0  0
    1.2863    9.9383   -0.5040 H   0  0  0  0  0  0  0  0  0  0  0  0
   -1.7913    9.5302   -0.4243 H   0  0  0  0  0  0  0  0  0  0  0  0
   -0.8910   11.1059   -0.5025 H   0  0  0  0  0  0  0  0  0  0  0  0
    0.2514   10.5712    1.6784 H   0  0  0  0  0  0  0  0  0  0  0  0
   -0.6859    9.0141    1.7550 H   0  0  0  0  0  0  0  0  0  0  0  0
   -1.4231    6.8169   -3.9746 H   0  0  0  0  0  0  0  0  0  0  0  0
    0.3302    7.0733   -4.1739 H   0  0  0  0  0  0  0  0  0  0  0  0
  1  2  1  0  0  0  0
  1 32  1  0  0  0  0
  1 33  1  0  0  0  0
  1 34  1  0  0  0  0
  2 31  1  0  0  0  0
  2  3  2  0  0  0  0
  3  4  1  0  0  0  0
  4 30  2  0  0  0  0
  5  7  1  6  0  0  0
  5 12  1  0  0  0  0
  5  6  1  0  0  0  0
  5  4  1  0  0  0  0
  6 35  1  0  0  0  0
  6 36  1  0  0  0  0
  6 37  1  0  0  0  0
  7  8  1  0  0  0  0
  7 38  1  0  0  0  0
  7 39  1  0  0  0  0
  8  9  1  0  0  0  0
  8 10  1  0  0  0  0
  8 11  1  0  0  0  0
  9 40  1  0  0  0  0
  9 41  1  0  0  0  0
  9 42  1  0  0  0  0
 10 43  1  0  0  0  0
 10 44  1  0  0  0  0
 10 45  1  0  0  0  0
 11 46  1  0  0  0  0
 11 47  1  0  0  0  0
 11 48  1  0  0  0  0
 12 13  1  0  0  0  0
 12 49  1  0  0  0  0
 13 14  2  0  0  0  0
 13 15  1  0  0  0  0
 15 20  2  0  0  0  0
 15 16  1  0  0  0  0
 16 17  2  0  0  0  0
 16 50  1  0  0  0  0
 17 18  1  0  0  0  0
 17 24  1  0  0  0  0
 18 19  2  0  0  0  0
 18 21  1  0  0  0  0
 19 20  1  0  0  0  0
 19 51  1  0  0  0  0
 21 23  1  0  0  0  0
 21 22  1  0  0  0  0
 21 52  1  0  0  0  0
 22 23  1  0  0  0  0
 22 53  1  0  0  0  0
 22 54  1  0  0  0  0
 23 55  1  0  0  0  0
 23 56  1  0  0  0  0
 24 25  1  0  0  0  0
 25 26  1  0  0  0  0
 25 57  1  0  0  0  0
 25 58  1  0  0  0  0
 26 27  1  0  0  0  0
 26 28  1  0  0  0  0
 26 29  1  0  0  0  0
 30 31  1  0  0  0  0
M  END
$$$$
CHEMBL259255
 OpenBabel12022418093D

 55 58  0  0  0  0  0  0  0  0999 V2000
   -0.1222   -0.9832    0.0087 N   0  0  0  0  0  0  0  0  0  0  0  0
   -0.9708    0.0750   -0.1817 N   0  0  0  0  0  0  0  0  0  0  0  0
   -0.1791    1.1656   -0.1645 C   0  0  0  0  0  0  0  0  0  0  0  0
    1.2011    0.7969   -0.1808 C   0  0  0  0  0  0  0  0  0  0  0  0
    1.2023   -0.5784   -0.0011 C   0  0  0  0  0  0  0  0  0  0  0  0
    2.3407   -1.4031    0.0417 N   0  0  0  0  0  0  0  0  0  0  0  0
    2.5848   -2.5680   -0.6950 C   0  0  0  0  0  0  0  0  0  0  0  0
    3.8780   -2.9887   -0.4423 C   0  0  0  0  0  0  0  0  0  0  0  0
    4.4588   -2.0891    0.4572 C   0  0  0  0  0  0  0  0  0  0  0  0
    3.5007   -1.1535    0.7898 C   0  0  0  0  0  0  0  0  0  0  0  0
    3.6583   -0.0858    1.8214 C   0  0  0  0  0  0  0  0  0  0  0  0
    1.6614   -3.2031   -1.6787 C   0  0  0  0  0  0  0  0  0  0  0  0
    2.3450    1.7202   -0.4152 C   0  0  0  0  0  0  0  0  0  0  0  0
   -0.7077    2.5531   -0.1616 C   0  0  0  0  0  0  0  0  0  0  0  0
    0.0391    3.5246   -0.0566 O   0  0  0  0  0  0  0  0  0  0  0  0
   -2.0935    2.6455   -0.2570 N   0  0  0  0  0  0  0  0  0  0  0  0
   -2.8107    3.8815   -0.2702 N   0  0  0  0  0  0  0  0  0  0  0  0
   -2.6560    4.6410    0.9843 C   0  0  0  0  0  0  0  0  0  0  0  0
   -3.5207    5.9065    0.9897 C   0  0  0  0  0  0  0  0  0  0  0  0
   -3.2550    6.7792   -0.2323 C   0  0  0  0  0  0  0  0  0  0  0  0
   -3.3578    5.9554   -1.5110 C   0  0  0  0  0  0  0  0  0  0  0  0
   -2.4750    4.7076   -1.4428 C   0  0  0  0  0  0  0  0  0  0  0  0
   -0.6926   -2.2650    0.2717 C   0  0  0  0  0  0  0  0  0  0  0  0
   -0.0996   -3.1606    1.1698 C   0  0  0  0  0  0  0  0  0  0  0  0
   -0.6679   -4.4248    1.3717 C   0  0  0  0  0  0  0  0  0  0  0  0
   -1.8146   -4.8084    0.6687 C   0  0  0  0  0  0  0  0  0  0  0  0
   -2.4024   -3.9191   -0.2374 C   0  0  0  0  0  0  0  0  0  0  0  0
   -1.8580   -2.6411   -0.4168 C   0  0  0  0  0  0  0  0  0  0  0  0
   -3.7730   -4.3529   -1.1974 Cl  0  0  0  0  0  0  0  0  0  0  0  0
   -2.4485   -6.3889    0.9630 Cl  0  0  0  0  0  0  0  0  0  0  0  0
    4.3570   -3.8488   -0.8938 H   0  0  0  0  0  0  0  0  0  0  0  0
    5.4662   -2.1246    0.8537 H   0  0  0  0  0  0  0  0  0  0  0  0
    2.7144    0.3714    2.1243 H   0  0  0  0  0  0  0  0  0  0  0  0
    4.3344    0.6935    1.4533 H   0  0  0  0  0  0  0  0  0  0  0  0
    4.1102   -0.5054    2.7272 H   0  0  0  0  0  0  0  0  0  0  0  0
    0.8093   -2.5815   -1.9514 H   0  0  0  0  0  0  0  0  0  0  0  0
    1.2990   -4.1595   -1.2855 H   0  0  0  0  0  0  0  0  0  0  0  0
    2.1999   -3.4168   -2.6082 H   0  0  0  0  0  0  0  0  0  0  0  0
    2.0617    2.5572   -1.0540 H   0  0  0  0  0  0  0  0  0  0  0  0
    3.1622    1.2043   -0.9320 H   0  0  0  0  0  0  0  0  0  0  0  0
    2.7187    2.1295    0.5280 H   0  0  0  0  0  0  0  0  0  0  0  0
   -2.6127    1.7731   -0.3397 H   0  0  0  0  0  0  0  0  0  0  0  0
   -1.6124    4.9319    1.1532 H   0  0  0  0  0  0  0  0  0  0  0  0
   -2.9581    4.0149    1.8325 H   0  0  0  0  0  0  0  0  0  0  0  0
   -3.3221    6.4850    1.8999 H   0  0  0  0  0  0  0  0  0  0  0  0
   -4.5816    5.6285    1.0144 H   0  0  0  0  0  0  0  0  0  0  0  0
   -2.2532    7.2205   -0.1591 H   0  0  0  0  0  0  0  0  0  0  0  0
   -3.9687    7.6104   -0.2627 H   0  0  0  0  0  0  0  0  0  0  0  0
   -3.0623    6.5706   -2.3687 H   0  0  0  0  0  0  0  0  0  0  0  0
   -4.4021    5.6608   -1.6734 H   0  0  0  0  0  0  0  0  0  0  0  0
   -2.6275    4.1247   -2.3587 H   0  0  0  0  0  0  0  0  0  0  0  0
   -1.4235    5.0192   -1.4277 H   0  0  0  0  0  0  0  0  0  0  0  0
    0.7880   -2.8964    1.7406 H   0  0  0  0  0  0  0  0  0  0  0  0
   -0.2054   -5.1127    2.0771 H   0  0  0  0  0  0  0  0  0  0  0  0
   -2.3095   -1.9663   -1.1426 H   0  0  0  0  0  0  0  0  0  0  0  0
  1  5  1  0  0  0  0
  1  2  1  0  0  0  0
  1 23  1  0  0  0  0
  2  3  2  0  0  0  0
  3  4  1  0  0  0  0
  3 14  1  0  0  0  0
  4  5  2  0  0  0  0
  4 13  1  0  0  0  0
  5  6  1  0  0  0  0
  6 10  1  0  0  0  0
  6  7  1  0  0  0  0
  7  8  2  0  0  0  0
  7 12  1  0  0  0  0
  8  9  1  0  0  0  0
  8 31  1  0  0  0  0
  9 10  2  0  0  0  0
  9 32  1  0  0  0  0
 10 11  1  0  0  0  0
 11 33  1  0  0  0  0
 11 34  1  0  0  0  0
 11 35  1  0  0  0  0
 12 36  1  0  0  0  0
 12 37  1  0  0  0  0
 12 38  1  0  0  0  0
 13 39  1  0  0  0  0
 13 40  1  0  0  0  0
 13 41  1  0  0  0  0
 14 15  2  0  0  0  0
 14 16  1  0  0  0  0
 16 17  1  0  0  0  0
 16 42  1  0  0  0  0
 17 22  1  0  0  0  0
 17 18  1  0  0  0  0
 18 19  1  0  0  0  0
 18 43  1  0  0  0  0
 18 44  1  0  0  0  0
 19 20  1  0  0  0  0
 19 45  1  0  0  0  0
 19 46  1  0  0  0  0
 20 21  1  0  0  0  0
 20 47  1  0  0  0  0
 20 48  1  0  0  0  0
 21 22  1  0  0  0  0
 21 49  1  0  0  0  0
 21 50  1  0  0  0  0
 22 51  1  0  0  0  0
 22 52  1  0  0  0  0
 23 28  2  0  0  0  0
 23 24  1  0  0  0  0
 24 25  2  0  0  0  0
 24 53  1  0  0  0  0
 25 26  1  0  0  0  0
 25 54  1  0  0  0  0
 26 27  2  0  0  0  0
 26 30  1  0  0  0  0
 27 28  1  0  0  0  0
 27 29  1  0  0  0  0
 28 55  1  0  0  0  0
M  END
$$$$
CHEMBL3647320
 OpenBabel12022418093D

 56 58  0  0  0  0  0  0  0  0999 V2000
    2.3468   -6.5675    5.2894 C   0  0  0  0  0  0  0  0  0  0  0  0
    3.5427   -7.3218    4.7160 C   0  0  0  0  0  0  0  0  0  0  0  0
    3.3129   -7.6523    3.2427 C   0  0  0  0  0  0  0  0  0  0  0  0
    4.4893   -8.3801    2.5763 C   0  0  0  0  0  0  0  0  0  0  0  0
    4.2567   -8.6379    1.1479 N   0  0  0  0  0  0  0  0  0  0  0  0
    4.1144   -7.6137    0.2102 C   0  0  0  0  0  0  0  0  0  0  0  0
    3.9484   -6.3683    0.5120 N   0  0  0  0  0  0  0  0  0  0  0  0
    3.7604   -5.4003   -0.4352 C   0  0  0  0  0  0  0  0  0  0  0  0
    4.4997   -4.4241   -0.5085 O   0  0  0  0  0  0  0  0  0  0  0  0
    2.6271   -5.5028   -1.4240 C   0  0  0  0  0  0  0  0  0  0  0  0
    2.8515   -4.8243   -2.6463 C   0  0  0  0  0  0  0  0  0  0  0  0
    1.9921   -4.9841   -3.7388 C   0  0  0  0  0  0  0  0  0  0  0  0
    0.8986   -5.8379   -3.6032 C   0  0  0  0  0  0  0  0  0  0  0  0
    0.6405   -6.4783   -2.3913 C   0  0  0  0  0  0  0  0  0  0  0  0
    1.4799   -6.3165   -1.2760 C   0  0  0  0  0  0  0  0  0  0  0  0
    1.2340   -6.9585   -0.0760 O   0  0  0  0  0  0  0  0  0  0  0  0
    0.1394   -7.8982   -0.0881 C   0  0  0  0  0  0  0  0  0  0  0  0
   -0.0581   -8.6167    1.2612 C   0  0  0  0  0  0  0  0  0  0  0  0
   -0.2538   -7.6324    2.4119 C   0  0  0  0  0  0  0  0  0  0  0  0
   -1.2581   -9.5616    1.1627 C   0  0  0  0  0  0  0  0  0  0  0  0
    1.0764   -9.4392    1.5337 O   0  0  0  0  0  0  0  0  0  0  0  0
    2.2217   -4.2773   -5.0504 C   0  0  0  0  0  0  0  0  0  0  0  0
    3.3267   -3.4828   -5.0598 F   0  0  0  0  0  0  0  0  0  0  0  0
    2.3809   -5.1513   -6.0840 F   0  0  0  0  0  0  0  0  0  0  0  0
    1.1771   -3.4794   -5.3920 F   0  0  0  0  0  0  0  0  0  0  0  0
    4.1125   -8.2887   -1.4476 S   0  0  0  0  0  0  0  0  0  0  0  0
    3.9887   -9.9278   -0.7978 C   0  0  0  0  0  0  0  0  0  0  0  0
    3.7455  -11.0795   -1.5222 C   0  0  0  0  0  0  0  0  0  0  0  0
    3.8214  -12.2617   -0.8183 C   0  0  0  0  0  0  0  0  0  0  0  0
    4.1070  -12.3295    0.5050 N   0  0  0  0  0  0  0  0  0  0  0  0
    4.2726  -11.1593    1.1815 C   0  0  0  0  0  0  0  0  0  0  0  0
    4.1968   -9.9181    0.5881 C   0  0  0  0  0  0  0  0  0  0  0  0
    2.4986   -6.3566    6.3521 H   0  0  0  0  0  0  0  0  0  0  0  0
    1.4261   -7.1521    5.1888 H   0  0  0  0  0  0  0  0  0  0  0  0
    2.1986   -5.6132    4.7721 H   0  0  0  0  0  0  0  0  0  0  0  0
    3.6897   -8.2470    5.2835 H   0  0  0  0  0  0  0  0  0  0  0  0
    4.4443   -6.7111    4.8323 H   0  0  0  0  0  0  0  0  0  0  0  0
    3.0796   -6.7205    2.7195 H   0  0  0  0  0  0  0  0  0  0  0  0
    2.4250   -8.2815    3.1852 H   0  0  0  0  0  0  0  0  0  0  0  0
    4.6759   -9.3078    3.1260 H   0  0  0  0  0  0  0  0  0  0  0  0
    5.3996   -7.7773    2.6776 H   0  0  0  0  0  0  0  0  0  0  0  0
    3.7403   -4.1996   -2.7593 H   0  0  0  0  0  0  0  0  0  0  0  0
    0.2322   -6.0138   -4.4470 H   0  0  0  0  0  0  0  0  0  0  0  0
   -0.2300   -7.1260   -2.3735 H   0  0  0  0  0  0  0  0  0  0  0  0
    0.3592   -8.6639   -0.8437 H   0  0  0  0  0  0  0  0  0  0  0  0
   -0.7881   -7.3655   -0.3258 H   0  0  0  0  0  0  0  0  0  0  0  0
   -1.1516   -7.0233    2.2675 H   0  0  0  0  0  0  0  0  0  0  0  0
    0.5999   -6.9561    2.5109 H   0  0  0  0  0  0  0  0  0  0  0  0
   -0.3443   -8.1625    3.3673 H   0  0  0  0  0  0  0  0  0  0  0  0
   -2.1823   -9.0183    0.9422 H   0  0  0  0  0  0  0  0  0  0  0  0
   -1.3960  -10.1224    2.0940 H   0  0  0  0  0  0  0  0  0  0  0  0
   -1.0988  -10.3077    0.3749 H   0  0  0  0  0  0  0  0  0  0  0  0
    1.8616   -8.9096    1.3071 H   0  0  0  0  0  0  0  0  0  0  0  0
    3.5155  -11.0613   -2.5802 H   0  0  0  0  0  0  0  0  0  0  0  0
    3.6640  -13.2178   -1.3109 H   0  0  0  0  0  0  0  0  0  0  0  0
    4.4769  -11.2906    2.2367 H   0  0  0  0  0  0  0  0  0  0  0  0
  1  2  1  0  0  0  0
  1 33  1  0  0  0  0
  1 34  1  0  0  0  0
  1 35  1  0  0  0  0
  2  3  1  0  0  0  0
  2 36  1  0  0  0  0
  2 37  1  0  0  0  0
  3  4  1  0  0  0  0
  3 38  1  0  0  0  0
  3 39  1  0  0  0  0
  4  5  1  0  0  0  0
  4 40  1  0  0  0  0
  4 41  1  0  0  0  0
  5 32  1  0  0  0  0
  5  6  1  0  0  0  0
  6  7  2  0  0  0  0
  6 26  1  0  0  0  0
  7  8  1  0  0  0  0
  8  9  2  0  0  0  0
  8 10  1  0  0  0  0
 10 15  2  0  0  0  0
 10 11  1  0  0  0  0
 11 12  2  0  0  0  0
 11 42  1  0  0  0  0
 12 13  1  0  0  0  0
 12 22  1  0  0  0  0
 13 14  2  0  0  0  0
 13 43  1  0  0  0  0
 14 15  1  0  0  0  0
 14 44  1  0  0  0  0
 15 16  1  0  0  0  0
 16 17  1  0  0  0  0
 17 18  1  0  0  0  0
 17 45  1  0  0  0  0
 17 46  1  0  0  0  0
 18 19  1  0  0  0  0
 18 20  1  0  0  0  0
 18 21  1  0  0  0  0
 19 47  1  0  0  0  0
 19 48  1  0  0  0  0
 19 49  1  0  0  0  0
 20 50  1  0  0  0  0
 20 51  1  0  0  0  0
 20 52  1  0  0  0  0
 21 53  1  0  0  0  0
 22 23  1  0  0  0  0
 22 24  1  0  0  0  0
 22 25  1  0  0  0  0
 26 27  1  0  0  0  0
 27 32  2  0  0  0  0
 27 28  1  0  0  0  0
 28 29  2  0  0  0  0
 28 54  1  0  0  0  0
 29 30  1  0  0  0  0
 29 55  1  0  0  0  0
 30 31  2  0  0  0  0
 31 32  1  0  0  0  0
 31 56  1  0  0  0  0
M  END
$$$$
CHEMBL253472
 OpenBabel12022418093D

 59 61  0  0  1  0  0  0  0  0999 V2000
   -1.8997    0.0294    0.0338 C   0  0  0  0  0  0  0  0  0  0  0  0
   -1.2091    1.2571    0.0872 C   0  0  0  0  0  0  0  0  0  0  0  0
    0.1999    1.2709    0.1091 C   0  0  0  0  0  0  0  0  0  0  0  0
    0.9253    0.0678    0.0655 C   0  0  0  0  0  0  0  0  0  0  0  0
    0.2375   -1.1332   -0.0938 C   0  0  0  0  0  0  0  0  0  0  0  0
   -1.1540   -1.1580   -0.0518 C   0  0  0  0  0  0  0  0  0  0  0  0
    2.4144    0.1048    0.0950 C   0  0  0  0  0  0  0  0  0  0  0  0
    2.9521    1.0290   -0.5150 O   0  0  0  0  0  0  0  0  0  0  0  0
    3.1501   -0.8671    0.7931 N   0  0  0  0  0  0  0  0  0  0  0  0
    2.6217   -1.8349    1.7640 C   0  0  0  0  0  0  0  0  0  0  0  0
    3.2920   -3.1972    1.5803 C   0  0  0  0  0  0  0  0  0  0  0  0
    4.8051   -3.0493    1.7626 C   0  0  2  0  0  0  0  0  0  0  0  0
    5.3496   -2.0289    0.7422 C   0  0  1  0  0  0  0  0  0  0  0  0
    4.6057   -0.6895    0.8597 C   0  0  0  0  0  0  0  0  0  0  0  0
    6.8622   -1.8462    0.9205 C   0  0  0  0  0  0  0  0  0  0  0  0
    7.5973   -3.1829    0.8288 C   0  0  0  0  0  0  0  0  0  0  0  0
    7.0413   -4.2015    1.8206 C   0  0  0  0  0  0  0  0  0  0  0  0
    5.5356   -4.3905    1.6434 C   0  0  0  0  0  0  0  0  0  0  0  0
   -2.0446    2.8349   -0.0214 S   0  0  0  0  0  0  0  0  0  0  0  0
   -1.3251    3.6387   -0.9887 O   0  0  0  0  0  0  0  0  0  0  0  0
   -3.4750    2.6622   -0.1316 O   0  0  0  0  0  0  0  0  0  0  0  0
   -1.7528    3.5664    1.4703 N   0  0  0  0  0  0  0  0  0  0  0  0
   -2.6313    3.2012    2.5896 C   0  0  0  0  0  0  0  0  0  0  0  0
   -2.2222    3.9594    3.8630 C   0  0  0  0  0  0  0  0  0  0  0  0
   -3.1907    3.6223    4.9998 C   0  0  0  0  0  0  0  0  0  0  0  0
   -0.7895    3.6352    4.2887 C   0  0  0  0  0  0  0  0  0  0  0  0
   -3.3950   -0.0960   -0.0072 C   0  0  0  0  0  0  0  0  0  0  0  0
    0.7384    2.2193    0.1257 H   0  0  0  0  0  0  0  0  0  0  0  0
    0.7744   -2.0653   -0.2495 H   0  0  0  0  0  0  0  0  0  0  0  0
   -1.6566   -2.1218   -0.1140 H   0  0  0  0  0  0  0  0  0  0  0  0
    1.5430   -1.9524    1.7209 H   0  0  0  0  0  0  0  0  0  0  0  0
    2.8305   -1.4383    2.7647 H   0  0  0  0  0  0  0  0  0  0  0  0
    3.0713   -3.5904    0.5784 H   0  0  0  0  0  0  0  0  0  0  0  0
    2.8877   -3.9127    2.3051 H   0  0  0  0  0  0  0  0  0  0  0  0
    4.9841   -2.6627    2.7763 H   0  0  0  0  0  0  0  0  0  0  0  0
    5.1697   -2.4221   -0.2691 H   0  0  0  0  0  0  0  0  0  0  0  0
    4.8227   -0.2122    1.8243 H   0  0  0  0  0  0  0  0  0  0  0  0
    4.9559   -0.0074    0.0785 H   0  0  0  0  0  0  0  0  0  0  0  0
    7.0709   -1.3855    1.8947 H   0  0  0  0  0  0  0  0  0  0  0  0
    7.2516   -1.1640    0.1559 H   0  0  0  0  0  0  0  0  0  0  0  0
    8.6659   -3.0300    1.0164 H   0  0  0  0  0  0  0  0  0  0  0  0
    7.5045   -3.5799   -0.1897 H   0  0  0  0  0  0  0  0  0  0  0  0
    7.2475   -3.8621    2.8436 H   0  0  0  0  0  0  0  0  0  0  0  0
    7.5535   -5.1616    1.6938 H   0  0  0  0  0  0  0  0  0  0  0  0
    5.3360   -4.8465    0.6657 H   0  0  0  0  0  0  0  0  0  0  0  0
    5.1657   -5.0884    2.4037 H   0  0  0  0  0  0  0  0  0  0  0  0
   -1.5723    4.5615    1.3290 H   0  0  0  0  0  0  0  0  0  0  0  0
   -2.5805    2.1205    2.7580 H   0  0  0  0  0  0  0  0  0  0  0  0
   -3.6631    3.4723    2.3402 H   0  0  0  0  0  0  0  0  0  0  0  0
   -2.2833    5.0393    3.6722 H   0  0  0  0  0  0  0  0  0  0  0  0
   -3.1925    2.5475    5.2122 H   0  0  0  0  0  0  0  0  0  0  0  0
   -4.2134    3.9172    4.7416 H   0  0  0  0  0  0  0  0  0  0  0  0
   -2.9146    4.1478    5.9202 H   0  0  0  0  0  0  0  0  0  0  0  0
   -0.6666    2.5642    4.4797 H   0  0  0  0  0  0  0  0  0  0  0  0
   -0.5264    4.1761    5.2042 H   0  0  0  0  0  0  0  0  0  0  0  0
   -0.0702    3.9294    3.5178 H   0  0  0  0  0  0  0  0  0  0  0  0
   -3.7079   -1.1465   -0.0036 H   0  0  0  0  0  0  0  0  0  0  0  0
   -3.7842    0.3436   -0.9290 H   0  0  0  0  0  0  0  0  0  0  0  0
   -3.8455    0.3701    0.8737 H   0  0  0  0  0  0  0  0  0  0  0  0
  1  6  2  0  0  0  0
  1  2  1  0  0  0  0
  1 27  1  0  0  0  0
  2  3  2  0  0  0  0
  2 19  1  0  0  0  0
  3  4  1  0  0  0  0
  3 28  1  0  0  0  0
  4  5  2  0  0  0  0
  4  7  1  0  0  0  0
  5  6  1  0  0  0  0
  5 29  1  0  0  0  0
  6 30  1  0  0  0  0
  7  8  2  0  0  0  0
  7  9  1  0  0  0  0
  9 14  1  0  0  0  0
  9 10  1  0  0  0  0
 10 11  1  0  0  0  0
 10 31  1  0  0  0  0
 10 32  1  0  0  0  0
 11 33  1  0  0  0  0
 11 34  1  0  0  0  0
 12 11  1  0  0  0  0
 12 13  1  0  0  0  0
 12 18  1  0  0  0  0
 12 35  1  1  0  0  0
 13 14  1  0  0  0  0
 13 15  1  0  0  0  0
 13 36  1  6  0  0  0
 14 37  1  0  0  0  0
 14 38  1  0  0  0  0
 15 16  1  0  0  0  0
 15 39  1  0  0  0  0
 15 40  1  0  0  0  0
 16 17  1  0  0  0  0
 16 41  1  0  0  0  0
 16 42  1  0  0  0  0
 17 18  1  0  0  0  0
 17 43  1  0  0  0  0
 17 44  1  0  0  0  0
 18 45  1  0  0  0  0
 18 46  1  0  0  0  0
 19 20  2  0  0  0  0
 19 21  2  0  0  0  0
 19 22  1  0  0  0  0
 22 23  1  0  0  0  0
 22 47  1  0  0  0  0
 23 24  1  0  0  0  0
 23 48  1  0  0  0  0
 23 49  1  0  0  0  0
 24 25  1  0  0  0  0
 24 26  1  0  0  0  0
 24 50  1  0  0  0  0
 25 51  1  0  0  0  0
 25 52  1  0  0  0  0
 25 53  1  0  0  0  0
 26 54  1  0  0  0  0
 26 55  1  0  0  0  0
 26 56  1  0  0  0  0
 27 57  1  0  0  0  0
 27 58  1  0  0  0  0
 27 59  1  0  0  0  0
M  END
$$$$
CHEMBL244402
 OpenBabel12022418093D

 49 52  0  0  0  0  0  0  0  0999 V2000
    2.2117   -0.0560    0.6952 C   0  0  0  0  0  0  0  0  0  0  0  0
    2.0158    1.0328    1.5291 C   0  0  0  0  0  0  0  0  0  0  0  0
    0.7338    1.3293    1.9819 C   0  0  0  0  0  0  0  0  0  0  0  0
   -0.3585    0.5017    1.6622 C   0  0  0  0  0  0  0  0  0  0  0  0
   -0.1727   -0.6722    0.8819 C   0  0  0  0  0  0  0  0  0  0  0  0
    1.1297   -0.8724    0.3498 C   0  0  0  0  0  0  0  0  0  0  0  0
   -1.3007   -1.5359    0.7065 C   0  0  0  0  0  0  0  0  0  0  0  0
   -2.5696   -1.1388    1.1753 C   0  0  0  0  0  0  0  0  0  0  0  0
   -2.7391    0.0548    1.8634 C   0  0  0  0  0  0  0  0  0  0  0  0
   -1.6341    0.8526    2.1275 C   0  0  0  0  0  0  0  0  0  0  0  0
   -1.2828   -2.9104    0.0973 C   0  0  0  0  0  0  0  0  0  0  0  0
   -2.3291   -3.3246   -0.3997 O   0  0  0  0  0  0  0  0  0  0  0  0
   -0.0950   -3.8196    0.1546 C   0  0  0  0  0  0  0  0  0  0  0  0
    0.7148   -3.7721    1.3000 C   0  0  0  0  0  0  0  0  0  0  0  0
    1.9350   -4.4408    1.3329 C   0  0  0  0  0  0  0  0  0  0  0  0
    2.3309   -5.2289    0.2539 C   0  0  0  0  0  0  0  0  0  0  0  0
    1.4733   -5.4000   -0.8613 C   0  0  0  0  0  0  0  0  0  0  0  0
    0.2351   -4.6977   -0.9201 C   0  0  0  0  0  0  0  0  0  0  0  0
   -0.5844   -4.9190   -2.0600 C   0  0  0  0  0  0  0  0  0  0  0  0
   -0.2307   -5.8040   -3.0786 C   0  0  0  0  0  0  0  0  0  0  0  0
    0.9755   -6.4764   -3.0139 C   0  0  0  0  0  0  0  0  0  0  0  0
    1.8184   -6.2656   -1.9242 C   0  0  0  0  0  0  0  0  0  0  0  0
    3.5696   -5.8283    0.1766 O   0  0  0  0  0  0  0  0  0  0  0  0
    4.2218   -6.1392    1.4079 C   0  0  0  0  0  0  0  0  0  0  0  0
    5.5631   -6.7972    1.0878 C   0  0  0  0  0  0  0  0  0  0  0  0
    6.3000   -7.1901    2.3661 C   0  0  0  0  0  0  0  0  0  0  0  0
    7.6484   -7.8306    2.0711 C   0  0  0  0  0  0  0  0  0  0  0  0
    3.2040   -0.2774    0.3101 H   0  0  0  0  0  0  0  0  0  0  0  0
    2.8528    1.6669    1.8111 H   0  0  0  0  0  0  0  0  0  0  0  0
    0.5919    2.2087    2.6030 H   0  0  0  0  0  0  0  0  0  0  0  0
    1.3323   -1.6820   -0.3467 H   0  0  0  0  0  0  0  0  0  0  0  0
   -3.4394   -1.7754    1.0145 H   0  0  0  0  0  0  0  0  0  0  0  0
   -3.7268    0.3468    2.2126 H   0  0  0  0  0  0  0  0  0  0  0  0
   -1.7797    1.7669    2.6992 H   0  0  0  0  0  0  0  0  0  0  0  0
    0.4407   -3.1575    2.1550 H   0  0  0  0  0  0  0  0  0  0  0  0
    2.5688   -4.2835    2.1988 H   0  0  0  0  0  0  0  0  0  0  0  0
   -1.5468   -4.4243   -2.1634 H   0  0  0  0  0  0  0  0  0  0  0  0
   -0.9084   -5.9650   -3.9132 H   0  0  0  0  0  0  0  0  0  0  0  0
    1.2607   -7.1679   -3.8009 H   0  0  0  0  0  0  0  0  0  0  0  0
    2.7613   -6.8102   -1.8973 H   0  0  0  0  0  0  0  0  0  0  0  0
    3.5948   -6.8272    1.9871 H   0  0  0  0  0  0  0  0  0  0  0  0
    4.4192   -5.2318    1.9878 H   0  0  0  0  0  0  0  0  0  0  0  0
    6.1741   -6.1021    0.4959 H   0  0  0  0  0  0  0  0  0  0  0  0
    5.4031   -7.6743    0.4487 H   0  0  0  0  0  0  0  0  0  0  0  0
    5.6891   -7.8939    2.9424 H   0  0  0  0  0  0  0  0  0  0  0  0
    6.4557   -6.3056    2.9929 H   0  0  0  0  0  0  0  0  0  0  0  0
    7.5305   -8.7347    1.4669 H   0  0  0  0  0  0  0  0  0  0  0  0
    8.1478   -8.1092    3.0057 H   0  0  0  0  0  0  0  0  0  0  0  0
    8.3024   -7.1378    1.5324 H   0  0  0  0  0  0  0  0  0  0  0  0
  1  6  2  0  0  0  0
  1  2  1  0  0  0  0
  1 28  1  0  0  0  0
  2  3  2  0  0  0  0
  2 29  1  0  0  0  0
  3  4  1  0  0  0  0
  3 30  1  0  0  0  0
  4 10  2  0  0  0  0
  4  5  1  0  0  0  0
  5  6  1  0  0  0  0
  5  7  2  0  0  0  0
  6 31  1  0  0  0  0
  7  8  1  0  0  0  0
  7 11  1  0  0  0  0
  8  9  2  0  0  0  0
  8 32  1  0  0  0  0
  9 10  1  0  0  0  0
  9 33  1  0  0  0  0
 10 34  1  0  0  0  0
 11 12  2  0  0  0  0
 11 13  1  0  0  0  0
 13 18  2  0  0  0  0
 13 14  1  0  0  0  0
 14 15  2  0  0  0  0
 14 35  1  0  0  0  0
 15 16  1  0  0  0  0
 15 36  1  0  0  0  0
 16 17  2  0  0  0  0
 16 23  1  0  0  0  0
 17 22  1  0  0  0  0
 17 18  1  0  0  0  0
 18 19  1  0  0  0  0
 19 20  2  0  0  0  0
 19 37  1  0  0  0  0
 20 21  1  0  0  0  0
 20 38  1  0  0  0  0
 21 22  2  0  0  0  0
 21 39  1  0  0  0  0
 22 40  1  0  0  0  0
 23 24  1  0  0  0  0
 24 25  1  0  0  0  0
 24 41  1  0  0  0  0
 24 42  1  0  0  0  0
 25 26  1  0  0  0  0
 25 43  1  0  0  0  0
 25 44  1  0  0  0  0
 26 27  1  0  0  0  0
 26 45  1  0  0  0  0
 26 46  1  0  0  0  0
 27 47  1  0  0  0  0
 27 48  1  0  0  0  0
 27 49  1  0  0  0  0
M  END
$$$$
CHEMBL1668513
 OpenBabel12022418093D

 59 60  0  0  0  0  0  0  0  0999 V2000
    2.2697    4.1629   -0.8232 C   0  0  0  0  0  0  0  0  0  0  0  0
    2.3621    2.6614   -1.0890 C   0  0  0  0  0  0  0  0  0  0  0  0
    3.2087    1.8589   -0.0700 C   0  0  0  0  0  0  0  0  0  0  0  0
    2.5850    1.9796    1.3376 C   0  0  0  0  0  0  0  0  0  0  0  0
    3.2433    0.3685   -0.4592 C   0  0  0  0  0  0  0  0  0  0  0  0
    4.6725    2.3802   -0.0737 C   0  0  0  0  0  0  0  0  0  0  0  0
    5.1788    2.8217    0.9556 O   0  0  0  0  0  0  0  0  0  0  0  0
    5.4309    2.3991   -1.4066 C   0  0  0  0  0  0  0  0  0  0  0  0
    6.9246    2.1966   -1.2945 C   0  0  0  0  0  0  0  0  0  0  0  0
    7.8008    3.2791   -1.1603 C   0  0  0  0  0  0  0  0  0  0  0  0
    9.1895    3.0881   -1.0179 C   0  0  0  0  0  0  0  0  0  0  0  0
   10.0666    4.3094   -0.9086 C   0  0  0  0  0  0  0  0  0  0  0  0
    9.7291    1.7787   -0.9720 C   0  0  0  0  0  0  0  0  0  0  0  0
   11.2019    1.5418   -0.7385 C   0  0  0  0  0  0  0  0  0  0  0  0
    8.8478    0.6896   -1.1353 C   0  0  0  0  0  0  0  0  0  0  0  0
    7.4685    0.9024   -1.3133 C   0  0  0  0  0  0  0  0  0  0  0  0
    9.4395   -1.0083   -1.0560 S   0  0  0  0  0  0  0  0  0  0  0  0
   10.1249   -1.1746    0.2012 O   0  0  0  0  0  0  0  0  0  0  0  0
    8.3279   -1.8835   -1.4082 O   0  0  0  0  0  0  0  0  0  0  0  0
   10.5947   -1.1392   -2.3294 N   0  0  0  0  0  0  0  0  0  0  0  0
   11.4610   -2.3498   -2.2538 C   0  0  0  0  0  0  0  0  0  0  0  0
   12.8854   -2.0668   -2.7425 C   0  0  0  0  0  0  0  0  0  0  0  0
   13.0451   -2.1284   -4.2573 C   0  0  0  0  0  0  0  0  0  0  0  0
   12.2193   -1.0925   -5.0060 C   0  0  0  0  0  0  0  0  0  0  0  0
   10.7209   -1.3415   -4.8799 C   0  0  0  0  0  0  0  0  0  0  0  0
   10.0980   -0.6917   -3.6555 C   0  0  0  0  0  0  0  0  0  0  0  0
    1.6619    4.6377   -1.6000 H   0  0  0  0  0  0  0  0  0  0  0  0
    3.2540    4.6411   -0.8362 H   0  0  0  0  0  0  0  0  0  0  0  0
    1.7920    4.3829    0.1366 H   0  0  0  0  0  0  0  0  0  0  0  0
    2.7695    2.5231   -2.0972 H   0  0  0  0  0  0  0  0  0  0  0  0
    1.3407    2.2598   -1.1152 H   0  0  0  0  0  0  0  0  0  0  0  0
    1.5526    1.6058    1.3554 H   0  0  0  0  0  0  0  0  0  0  0  0
    2.5637    3.0194    1.6846 H   0  0  0  0  0  0  0  0  0  0  0  0
    3.1519    1.4158    2.0893 H   0  0  0  0  0  0  0  0  0  0  0  0
    2.2401   -0.0690   -0.5074 H   0  0  0  0  0  0  0  0  0  0  0  0
    3.8358   -0.2168    0.2566 H   0  0  0  0  0  0  0  0  0  0  0  0
    3.7008    0.2127   -1.4421 H   0  0  0  0  0  0  0  0  0  0  0  0
    5.2127    3.3592   -1.8990 H   0  0  0  0  0  0  0  0  0  0  0  0
    5.0478    1.6254   -2.0763 H   0  0  0  0  0  0  0  0  0  0  0  0
    7.3940    4.2939   -1.1633 H   0  0  0  0  0  0  0  0  0  0  0  0
    9.4876    5.2323   -1.0055 H   0  0  0  0  0  0  0  0  0  0  0  0
   10.8091    4.3077   -1.7119 H   0  0  0  0  0  0  0  0  0  0  0  0
   10.5681    4.3320    0.0638 H   0  0  0  0  0  0  0  0  0  0  0  0
   11.7790    2.4636   -0.6662 H   0  0  0  0  0  0  0  0  0  0  0  0
   11.6369    0.9842   -1.5674 H   0  0  0  0  0  0  0  0  0  0  0  0
   11.3586    1.0030    0.1970 H   0  0  0  0  0  0  0  0  0  0  0  0
    6.7991    0.0542   -1.4556 H   0  0  0  0  0  0  0  0  0  0  0  0
   11.0229   -3.2016   -2.7843 H   0  0  0  0  0  0  0  0  0  0  0  0
   11.5608   -2.6563   -1.2047 H   0  0  0  0  0  0  0  0  0  0  0  0
   13.5501   -2.8347   -2.3231 H   0  0  0  0  0  0  0  0  0  0  0  0
   13.2474   -1.1033   -2.3611 H   0  0  0  0  0  0  0  0  0  0  0  0
   12.7849   -3.1335   -4.6127 H   0  0  0  0  0  0  0  0  0  0  0  0
   14.1029   -1.9806   -4.5073 H   0  0  0  0  0  0  0  0  0  0  0  0
   12.4908   -1.1493   -6.0675 H   0  0  0  0  0  0  0  0  0  0  0  0
   12.4779   -0.0812   -4.6701 H   0  0  0  0  0  0  0  0  0  0  0  0
   10.4947   -2.4134   -4.9152 H   0  0  0  0  0  0  0  0  0  0  0  0
   10.2341   -0.9030   -5.7609 H   0  0  0  0  0  0  0  0  0  0  0  0
   10.2790    0.3878   -3.7091 H   0  0  0  0  0  0  0  0  0  0  0  0
    9.0116   -0.8326   -3.7248 H   0  0  0  0  0  0  0  0  0  0  0  0
  1  2  1  0  0  0  0
  1 27  1  0  0  0  0
  1 28  1  0  0  0  0
  1 29  1  0  0  0  0
  2  3  1  0  0  0  0
  2 30  1  0  0  0  0
  2 31  1  0  0  0  0
  3  4  1  0  0  0  0
  3  5  1  0  0  0  0
  3  6  1  0  0  0  0
  4 32  1  0  0  0  0
  4 33  1  0  0  0  0
  4 34  1  0  0  0  0
  5 35  1  0  0  0  0
  5 36  1  0  0  0  0
  5 37  1  0  0  0  0
  6  7  2  0  0  0  0
  6  8  1  0  0  0  0
  8  9  1  0  0  0  0
  8 38  1  0  0  0  0
  8 39  1  0  0  0  0
  9 16  2  0  0  0  0
  9 10  1  0  0  0  0
 10 11  2  0  0  0  0
 10 40  1  0  0  0  0
 11 12  1  0  0  0  0
 11 13  1  0  0  0  0
 12 41  1  0  0  0  0
 12 42  1  0  0  0  0
 12 43  1  0  0  0  0
 13 14  1  0  0  0  0
 13 15  2  0  0  0  0
 14 44  1  0  0  0  0
 14 45  1  0  0  0  0
 14 46  1  0  0  0  0
 15 16  1  0  0  0  0
 15 17  1  0  0  0  0
 16 47  1  0  0  0  0
 17 18  2  0  0  0  0
 17 19  2  0  0  0  0
 17 20  1  0  0  0  0
 20 26  1  0  0  0  0
 20 21  1  0  0  0  0
 21 22  1  0  0  0  0
 21 48  1  0  0  0  0
 21 49  1  0  0  0  0
 22 23  1  0  0  0  0
 22 50  1  0  0  0  0
 22 51  1  0  0  0  0
 23 24  1  0  0  0  0
 23 52  1  0  0  0  0
 23 53  1  0  0  0  0
 24 25  1  0  0  0  0
 24 54  1  0  0  0  0
 24 55  1  0  0  0  0
 25 26  1  0  0  0  0
 25 56  1  0  0  0  0
 25 57  1  0  0  0  0
 26 58  1  0  0  0  0
 26 59  1  0  0  0  0
M  END
$$$$
CHEMBL4069848
 OpenBabel12022418093D

 47 49  0  0  0  0  0  0  0  0999 V2000
    4.6756    1.9823    3.3405 C   0  0  0  0  0  0  0  0  0  0  0  0
    4.2705    1.3988    1.9961 C   0  0  0  0  0  0  0  0  0  0  0  0
    4.9280    2.1474    0.8333 C   0  0  0  0  0  0  0  0  0  0  0  0
    4.5128    1.5379   -0.5080 C   0  0  0  0  0  0  0  0  0  0  0  0
    5.1509    2.2284   -1.7206 C   0  0  0  0  0  0  0  0  0  0  0  0
    6.6049    2.2294   -1.7405 N   0  0  0  0  0  0  0  0  0  0  0  0
    7.3758    3.3658   -1.7771 C   0  0  0  0  0  0  0  0  0  0  0  0
    8.7148    3.0067   -1.7780 C   0  0  0  0  0  0  0  0  0  0  0  0
    8.7354    1.5708   -1.6331 C   0  0  0  0  0  0  0  0  0  0  0  0
    7.4163    1.1133   -1.7574 C   0  0  0  0  0  0  0  0  0  0  0  0
    7.1108   -0.2567   -1.8560 C   0  0  0  0  0  0  0  0  0  0  0  0
    8.1529   -1.1811   -1.7617 C   0  0  0  0  0  0  0  0  0  0  0  0
    9.4588   -0.7582   -1.5545 C   0  0  0  0  0  0  0  0  0  0  0  0
    9.7587    0.6054   -1.4821 C   0  0  0  0  0  0  0  0  0  0  0  0
    9.8225    3.9753   -1.9553 C   0  0  0  0  0  0  0  0  0  0  0  0
    9.7071    5.1426   -1.6076 O   0  0  0  0  0  0  0  0  0  0  0  0
   11.0551    3.5230   -2.6958 C   0  0  0  0  0  0  0  0  0  0  0  0
   10.9025    2.5448   -3.6983 C   0  0  0  0  0  0  0  0  0  0  0  0
   12.0047    1.9603   -4.3174 C   0  0  0  0  0  0  0  0  0  0  0  0
   13.2774    2.4016   -4.0005 C   0  0  0  0  0  0  0  0  0  0  0  0
   13.4451    3.4485   -3.0947 C   0  0  0  0  0  0  0  0  0  0  0  0
   12.3448    4.0368   -2.4453 C   0  0  0  0  0  0  0  0  0  0  0  0
   12.5072    5.0530   -1.5369 O   0  0  0  0  0  0  0  0  0  0  0  0
   13.6366    5.9034   -1.7507 C   0  0  0  0  0  0  0  0  0  0  0  0
    4.2023    1.4204    4.1511 H   0  0  0  0  0  0  0  0  0  0  0  0
    4.3637    3.0283    3.4218 H   0  0  0  0  0  0  0  0  0  0  0  0
    5.7580    1.9395    3.4772 H   0  0  0  0  0  0  0  0  0  0  0  0
    3.1847    1.4429    1.8951 H   0  0  0  0  0  0  0  0  0  0  0  0
    4.5595    0.3389    1.9641 H   0  0  0  0  0  0  0  0  0  0  0  0
    6.0169    2.0992    0.9491 H   0  0  0  0  0  0  0  0  0  0  0  0
    4.6421    3.2055    0.8623 H   0  0  0  0  0  0  0  0  0  0  0  0
    3.4222    1.6037   -0.6105 H   0  0  0  0  0  0  0  0  0  0  0  0
    4.7526    0.4703   -0.5065 H   0  0  0  0  0  0  0  0  0  0  0  0
    4.8128    3.2696   -1.7672 H   0  0  0  0  0  0  0  0  0  0  0  0
    4.8232    1.7394   -2.6458 H   0  0  0  0  0  0  0  0  0  0  0  0
    6.9221    4.3469   -1.8393 H   0  0  0  0  0  0  0  0  0  0  0  0
    6.0938   -0.6038   -2.0074 H   0  0  0  0  0  0  0  0  0  0  0  0
    7.9369   -2.2444   -1.8396 H   0  0  0  0  0  0  0  0  0  0  0  0
   10.2591   -1.4887   -1.4663 H   0  0  0  0  0  0  0  0  0  0  0  0
   10.7894    0.9129   -1.3366 H   0  0  0  0  0  0  0  0  0  0  0  0
    9.9152    2.1857   -3.9832 H   0  0  0  0  0  0  0  0  0  0  0  0
   11.8607    1.1500   -5.0280 H   0  0  0  0  0  0  0  0  0  0  0  0
   14.1471    1.9390   -4.4625 H   0  0  0  0  0  0  0  0  0  0  0  0
   14.4625    3.7660   -2.8907 H   0  0  0  0  0  0  0  0  0  0  0  0
   13.5860    6.7329   -1.0390 H   0  0  0  0  0  0  0  0  0  0  0  0
   13.6334    6.3265   -2.7626 H   0  0  0  0  0  0  0  0  0  0  0  0
   14.5780    5.3790   -1.5542 H   0  0  0  0  0  0  0  0  0  0  0  0
  1  2  1  0  0  0  0
  1 25  1  0  0  0  0
  1 26  1  0  0  0  0
  1 27  1  0  0  0  0
  2  3  1  0  0  0  0
  2 28  1  0  0  0  0
  2 29  1  0  0  0  0
  3  4  1  0  0  0  0
  3 30  1  0  0  0  0
  3 31  1  0  0  0  0
  4  5  1  0  0  0  0
  4 32  1  0  0  0  0
  4 33  1  0  0  0  0
  5  6  1  0  0  0  0
  5 34  1  0  0  0  0
  5 35  1  0  0  0  0
  6 10  1  0  0  0  0
  6  7  1  0  0  0  0
  7  8  2  0  0  0  0
  7 36  1  0  0  0  0
  8  9  1  0  0  0  0
  8 15  1  0  0  0  0
  9 14  2  0  0  0  0
  9 10  1  0  0  0  0
 10 11  2  0  0  0  0
 11 12  1  0  0  0  0
 11 37  1  0  0  0  0
 12 13  2  0  0  0  0
 12 38  1  0  0  0  0
 13 14  1  0  0  0  0
 13 39  1  0  0  0  0
 14 40  1  0  0  0  0
 15 16  2  0  0  0  0
 15 17  1  0  0  0  0
 17 22  2  0  0  0  0
 17 18  1  0  0  0  0
 18 19  2  0  0  0  0
 18 41  1  0  0  0  0
 19 20  1  0  0  0  0
 19 42  1  0  0  0  0
 20 21  2  0  0  0  0
 20 43  1  0  0  0  0
 21 22  1  0  0  0  0
 21 44  1  0  0  0  0
 22 23  1  0  0  0  0
 23 24  1  0  0  0  0
 24 45  1  0  0  0  0
 24 46  1  0  0  0  0
 24 47  1  0  0  0  0
M  END
$$$$
CHEMBL197955
 OpenBabel12022418093D

 56 58  0  0  1  0  0  0  0  0999 V2000
   -2.6956    9.6943    2.5709 C   0  0  0  0  0  0  0  0  0  0  0  0
   -3.7597    9.2929    3.4279 O   0  0  0  0  0  0  0  0  0  0  0  0
   -3.4406    8.4793    4.4776 C   0  0  0  0  0  0  0  0  0  0  0  0
   -4.5052    8.1400    5.3064 C   0  0  0  0  0  0  0  0  0  0  0  0
   -4.3025    7.3343    6.4303 C   0  0  0  0  0  0  0  0  0  0  0  0
   -3.0175    6.8653    6.7633 C   0  0  0  0  0  0  0  0  0  0  0  0
   -1.9442    7.1907    5.9210 C   0  0  0  0  0  0  0  0  0  0  0  0
   -2.1709    7.9952    4.7804 C   0  0  0  0  0  0  0  0  0  0  0  0
   -0.2262    6.8630    6.2661 S   0  0  0  0  0  0  0  0  0  0  0  0
    0.4758    8.0548    5.8135 O   0  0  0  0  0  0  0  0  0  0  0  0
   -0.1097    6.4495    7.6390 O   0  0  0  0  0  0  0  0  0  0  0  0
    0.4216    5.5348    5.3034 C   0  0  0  0  0  0  0  0  0  0  0  0
    1.8091    5.3418    5.3572 C   0  0  0  0  0  0  0  0  0  0  0  0
    2.3994    4.3483    4.5833 C   0  0  0  0  0  0  0  0  0  0  0  0
    1.6024    3.5505    3.7639 C   0  0  0  0  0  0  0  0  0  0  0  0
    0.2169    3.7350    3.7295 C   0  0  0  0  0  0  0  0  0  0  0  0
   -0.3846    4.7299    4.5023 C   0  0  0  0  0  0  0  0  0  0  0  0
   -2.9267    5.7032    8.1213 S   0  0  0  0  0  0  0  0  0  0  0  0
   -4.2839    5.5357    8.6128 O   0  0  0  0  0  0  0  0  0  0  0  0
   -2.2303    4.5524    7.5661 O   0  0  0  0  0  0  0  0  0  0  0  0
   -2.0242    6.3267    9.5136 C   0  0  0  0  0  0  0  0  0  0  0  0
   -1.3392    5.4074   10.3159 C   0  0  0  0  0  0  0  0  0  0  0  0
   -0.4462    5.8675   11.2822 C   0  0  0  0  0  0  0  0  0  0  0  0
   -0.2259    7.2441   11.4489 C   0  0  0  0  0  0  0  0  0  0  0  0
    0.8108    7.7208   12.4456 C   0  0  2  0  0  0  0  0  0  0  0  0
    0.1492    8.6462   13.4756 C   0  0  0  0  0  0  0  0  0  0  0  0
    1.9781    8.4425   11.8465 N   0  0  0  0  0  0  0  0  0  0  0  0
    2.9110    7.5185   10.7615 S   0  0  0  0  0  0  0  0  0  0  0  0
    3.4221    6.3940   11.5138 O   0  0  0  0  0  0  0  0  0  0  0  0
    2.1936    7.3588    9.5226 O   0  0  0  0  0  0  0  0  0  0  0  0
    4.2666    8.6241   10.4431 C   0  0  0  0  0  0  0  0  0  0  0  0
   -0.9496    8.1515   10.6538 C   0  0  0  0  0  0  0  0  0  0  0  0
   -1.8654    7.7009    9.7012 C   0  0  0  0  0  0  0  0  0  0  0  0
   -3.0894   10.4376    1.8714 H   0  0  0  0  0  0  0  0  0  0  0  0
   -2.3305    8.8415    1.9892 H   0  0  0  0  0  0  0  0  0  0  0  0
   -1.8815   10.1700    3.1282 H   0  0  0  0  0  0  0  0  0  0  0  0
   -5.5064    8.4984    5.0736 H   0  0  0  0  0  0  0  0  0  0  0  0
   -5.1731    7.0679    7.0296 H   0  0  0  0  0  0  0  0  0  0  0  0
   -1.3239    8.2550    4.1496 H   0  0  0  0  0  0  0  0  0  0  0  0
    2.4244    5.9635    6.0068 H   0  0  0  0  0  0  0  0  0  0  0  0
    3.4748    4.1974    4.6210 H   0  0  0  0  0  0  0  0  0  0  0  0
    2.0626    2.7758    3.1547 H   0  0  0  0  0  0  0  0  0  0  0  0
   -0.3960    3.0939    3.0988 H   0  0  0  0  0  0  0  0  0  0  0  0
   -1.4634    4.8444    4.4734 H   0  0  0  0  0  0  0  0  0  0  0  0
   -1.4433    4.3383   10.1446 H   0  0  0  0  0  0  0  0  0  0  0  0
    0.1219    5.1411   11.8604 H   0  0  0  0  0  0  0  0  0  0  0  0
    1.2090    6.8674   13.0106 H   0  0  0  0  0  0  0  0  0  0  0  0
   -0.2905    9.5355   13.0100 H   0  0  0  0  0  0  0  0  0  0  0  0
    0.8747    8.9964   14.2169 H   0  0  0  0  0  0  0  0  0  0  0  0
   -0.6521    8.1200   14.0073 H   0  0  0  0  0  0  0  0  0  0  0  0
    2.5852    8.7694   12.5993 H   0  0  0  0  0  0  0  0  0  0  0  0
    4.8346    8.7680   11.3635 H   0  0  0  0  0  0  0  0  0  0  0  0
    3.8756    9.5699   10.0645 H   0  0  0  0  0  0  0  0  0  0  0  0
    4.9016    8.1594    9.6845 H   0  0  0  0  0  0  0  0  0  0  0  0
   -0.7577    9.2191   10.7360 H   0  0  0  0  0  0  0  0  0  0  0  0
   -2.3770    8.4253    9.0765 H   0  0  0  0  0  0  0  0  0  0  0  0
  1  2  1  0  0  0  0
  1 34  1  0  0  0  0
  1 35  1  0  0  0  0
  1 36  1  0  0  0  0
  2  3  1  0  0  0  0
  3  8  2  0  0  0  0
  3  4  1  0  0  0  0
  4  5  2  0  0  0  0
  4 37  1  0  0  0  0
  5  6  1  0  0  0  0
  5 38  1  0  0  0  0
  6  7  2  0  0  0  0
  6 18  1  0  0  0  0
  7  8  1  0  0  0  0
  7  9  1  0  0  0  0
  8 39  1  0  0  0  0
  9 10  2  0  0  0  0
  9 11  2  0  0  0  0
  9 12  1  0  0  0  0
 12 17  2  0  0  0  0
 12 13  1  0  0  0  0
 13 14  2  0  0  0  0
 13 40  1  0  0  0  0
 14 15  1  0  0  0  0
 14 41  1  0  0  0  0
 15 16  2  0  0  0  0
 15 42  1  0  0  0  0
 16 17  1  0  0  0  0
 16 43  1  0  0  0  0
 17 44  1  0  0  0  0
 18 19  2  0  0  0  0
 18 20  2  0  0  0  0
 18 21  1  0  0  0  0
 21 33  2  0  0  0  0
 21 22  1  0  0  0  0
 22 23  2  0  0  0  0
 22 45  1  0  0  0  0
 23 24  1  0  0  0  0
 23 46  1  0  0  0  0
 24 32  2  0  0  0  0
 25 27  1  0  0  0  0
 25 26  1  0  0  0  0
 25 24  1  0  0  0  0
 25 47  1  1  0  0  0
 26 48  1  0  0  0  0
 26 49  1  0  0  0  0
 26 50  1  0  0  0  0
 27 28  1  0  0  0  0
 27 51  1  0  0  0  0
 28 29  2  0  0  0  0
 28 30  2  0  0  0  0
 28 31  1  0  0  0  0
 31 52  1  0  0  0  0
 31 53  1  0  0  0  0
 31 54  1  0  0  0  0
 32 33  1  0  0  0  0
 32 55  1  0  0  0  0
 33 56  1  0  0  0  0
M  END
$$$$
CHEMBL402938
 OpenBabel12022418093D

 51 53  0  0  0  0  0  0  0  0999 V2000
    1.1163    0.1160   -0.5593 C   0  0  0  0  0  0  0  0  0  0  0  0
    2.4623    0.0770   -0.0058 N   0  0  0  0  0  0  0  0  0  0  0  0
    3.3467    1.1898    0.0072 C   0  0  0  0  0  0  0  0  0  0  0  0
    2.9238    2.6733    0.0401 C   0  0  0  0  0  0  0  0  0  0  0  0
    2.1466    2.9849    1.3337 C   0  0  0  0  0  0  0  0  0  0  0  0
    4.1545    3.6229    0.0136 C   0  0  0  0  0  0  0  0  0  0  0  0
    2.0646    3.0839   -1.1747 C   0  0  0  0  0  0  0  0  0  0  0  0
    4.6365    0.7691   -0.0055 C   0  0  0  0  0  0  0  0  0  0  0  0
    4.5764   -0.7278   -0.0668 C   0  0  0  0  0  0  0  0  0  0  0  0
    5.5727   -1.5607   -0.0766 N   0  0  0  0  0  0  0  0  0  0  0  0
    6.8506   -1.1003    0.1058 C   0  0  0  0  0  0  0  0  0  0  0  0
    7.1568   -0.1556    0.8298 O   0  0  0  0  0  0  0  0  0  0  0  0
    7.9725   -1.8414   -0.5464 C   0  0  0  0  0  0  0  0  0  0  0  0
    9.2937   -1.3949   -0.3031 C   0  0  0  0  0  0  0  0  0  0  0  0
   10.4063   -2.0474   -0.8620 C   0  0  0  0  0  0  0  0  0  0  0  0
   11.8139   -1.5605   -0.5948 C   0  0  0  0  0  0  0  0  0  0  0  0
   11.8698   -0.4661    0.2126 F   0  0  0  0  0  0  0  0  0  0  0  0
   12.5861   -2.5083    0.0046 F   0  0  0  0  0  0  0  0  0  0  0  0
   12.4680   -1.2140   -1.7386 F   0  0  0  0  0  0  0  0  0  0  0  0
   10.1912   -3.1644   -1.6782 C   0  0  0  0  0  0  0  0  0  0  0  0
    8.8909   -3.6108   -1.9301 C   0  0  0  0  0  0  0  0  0  0  0  0
    7.7914   -2.9514   -1.3688 C   0  0  0  0  0  0  0  0  0  0  0  0
    6.5738   -3.4286   -1.6577 F   0  0  0  0  0  0  0  0  0  0  0  0
    3.2332   -1.0890   -0.1301 N   0  0  0  0  0  0  0  0  0  0  0  0
    2.7494   -2.4611   -0.0718 C   0  0  0  0  0  0  0  0  0  0  0  0
    2.5045   -3.0592    1.2951 C   0  0  0  0  0  0  0  0  0  0  0  0
    2.9336   -2.4458    2.6348 C   0  0  0  0  0  0  0  0  0  0  0  0
    1.4653   -2.5375    2.1806 C   0  0  0  0  0  0  0  0  0  0  0  0
    0.6474   -0.8694   -0.6081 H   0  0  0  0  0  0  0  0  0  0  0  0
    1.1266    0.5143   -1.5788 H   0  0  0  0  0  0  0  0  0  0  0  0
    0.4641    0.7312    0.0674 H   0  0  0  0  0  0  0  0  0  0  0  0
    2.8087    2.9851    2.2073 H   0  0  0  0  0  0  0  0  0  0  0  0
    1.3491    2.2616    1.5250 H   0  0  0  0  0  0  0  0  0  0  0  0
    1.6785    3.9760    1.2798 H   0  0  0  0  0  0  0  0  0  0  0  0
    4.8139    3.4596    0.8736 H   0  0  0  0  0  0  0  0  0  0  0  0
    3.8477    4.6747    0.0433 H   0  0  0  0  0  0  0  0  0  0  0  0
    4.7418    3.4872   -0.8998 H   0  0  0  0  0  0  0  0  0  0  0  0
    1.0548    2.6704   -1.1337 H   0  0  0  0  0  0  0  0  0  0  0  0
    2.5310    2.7798   -2.1180 H   0  0  0  0  0  0  0  0  0  0  0  0
    1.9337    4.1733   -1.2119 H   0  0  0  0  0  0  0  0  0  0  0  0
    5.5373    1.3481   -0.0025 H   0  0  0  0  0  0  0  0  0  0  0  0
    9.4505   -0.5259    0.3400 H   0  0  0  0  0  0  0  0  0  0  0  0
   11.0368   -3.6928   -2.1208 H   0  0  0  0  0  0  0  0  0  0  0  0
    8.7242   -4.4780   -2.5639 H   0  0  0  0  0  0  0  0  0  0  0  0
    3.4799   -3.1035   -0.5795 H   0  0  0  0  0  0  0  0  0  0  0  0
    1.8367   -2.5729   -0.6658 H   0  0  0  0  0  0  0  0  0  0  0  0
    2.5861   -4.1419    1.2270 H   0  0  0  0  0  0  0  0  0  0  0  0
    3.7645   -1.7722    2.3438 H   0  0  0  0  0  0  0  0  0  0  0  0
    2.7440   -1.7016    3.4311 H   0  0  0  0  0  0  0  0  0  0  0  0
    0.8356   -3.2488    2.7090 H   0  0  0  0  0  0  0  0  0  0  0  0
    0.9574   -1.6123    1.9421 H   0  0  0  0  0  0  0  0  0  0  0  0
  1  2  1  0  0  0  0
  1 29  1  0  0  0  0
  1 30  1  0  0  0  0
  1 31  1  0  0  0  0
  2 24  1  0  0  0  0
  2  3  1  0  0  0  0
  3  4  1  0  0  0  0
  3  8  2  0  0  0  0
  4  5  1  0  0  0  0
  4  6  1  0  0  0  0
  4  7  1  0  0  0  0
  5 32  1  0  0  0  0
  5 33  1  0  0  0  0
  5 34  1  0  0  0  0
  6 35  1  0  0  0  0
  6 36  1  0  0  0  0
  6 37  1  0  0  0  0
  7 38  1  0  0  0  0
  7 39  1  0  0  0  0
  7 40  1  0  0  0  0
  8  9  1  0  0  0  0
  8 41  1  0  0  0  0
  9 10  2  0  0  0  0
  9 24  1  0  0  0  0
 10 11  1  0  0  0  0
 11 12  2  0  0  0  0
 11 13  1  0  0  0  0
 13 22  2  0  0  0  0
 13 14  1  0  0  0  0
 14 15  2  0  0  0  0
 14 42  1  0  0  0  0
 15 16  1  0  0  0  0
 15 20  1  0  0  0  0
 16 17  1  0  0  0  0
 16 18  1  0  0  0  0
 16 19  1  0  0  0  0
 20 21  2  0  0  0  0
 20 43  1  0  0  0  0
 21 22  1  0  0  0  0
 21 44  1  0  0  0  0
 22 23  1  0  0  0  0
 24 25  1  0  0  0  0
 25 26  1  0  0  0  0
 25 45  1  0  0  0  0
 25 46  1  0  0  0  0
 26 28  1  0  0  0  0
 26 27  1  0  0  0  0
 26 47  1  0  0  0  0
 27 28  1  0  0  0  0
 27 48  1  0  0  0  0
 27 49  1  0  0  0  0
 28 50  1  0  0  0  0
 28 51  1  0  0  0  0
M  END
$$$$
CHEMBL558801
 OpenBabel12022418093D

 49 52  0  0  0  0  0  0  0  0999 V2000
    4.4717   -4.6974    2.1787 C   0  0  0  0  0  0  0  0  0  0  0  0
    4.3284   -3.3320    1.9880 C   0  0  0  0  0  0  0  0  0  0  0  0
    3.2600   -2.8474    1.2405 C   0  0  0  0  0  0  0  0  0  0  0  0
    2.3397   -3.7299    0.6437 C   0  0  0  0  0  0  0  0  0  0  0  0
    2.5205   -5.1354    0.7704 C   0  0  0  0  0  0  0  0  0  0  0  0
    3.5653   -5.6096    1.6046 C   0  0  0  0  0  0  0  0  0  0  0  0
    3.6859   -6.9721    1.8966 C   0  0  0  0  0  0  0  0  0  0  0  0
    2.7645   -7.8998    1.4013 C   0  0  0  0  0  0  0  0  0  0  0  0
    1.7658   -7.4747    0.5332 C   0  0  0  0  0  0  0  0  0  0  0  0
    1.6989   -6.1277    0.1676 C   0  0  0  0  0  0  0  0  0  0  0  0
    0.6791   -8.4091    0.0852 C   0  0  0  0  0  0  0  0  0  0  0  0
    1.1813   -3.0575   -0.0460 C   0  0  0  0  0  0  0  0  0  0  0  0
    1.4067   -1.9833   -0.5992 O   0  0  0  0  0  0  0  0  0  0  0  0
   -0.1788   -3.6250   -0.0146 C   0  0  0  0  0  0  0  0  0  0  0  0
   -1.1246   -3.4779   -1.0322 C   0  0  0  0  0  0  0  0  0  0  0  0
   -1.0219   -2.7460   -2.3319 C   0  0  0  0  0  0  0  0  0  0  0  0
   -2.2771   -4.1429   -0.6482 N   0  0  0  0  0  0  0  0  0  0  0  0
   -2.1027   -4.7081    0.6062 C   0  0  0  0  0  0  0  0  0  0  0  0
   -0.8103   -4.3798    1.0316 C   0  0  0  0  0  0  0  0  0  0  0  0
   -0.3935   -4.8221    2.3101 C   0  0  0  0  0  0  0  0  0  0  0  0
   -1.2348   -5.6028    3.0998 C   0  0  0  0  0  0  0  0  0  0  0  0
   -2.5135   -5.9087    2.6603 C   0  0  0  0  0  0  0  0  0  0  0  0
   -2.9716   -5.4608    1.4175 C   0  0  0  0  0  0  0  0  0  0  0  0
   -3.5422   -4.1178   -1.3763 C   0  0  0  0  0  0  0  0  0  0  0  0
   -3.7120   -5.1651   -2.4805 C   0  0  0  0  0  0  0  0  0  0  0  0
   -3.7903   -6.5968   -1.9761 C   0  0  0  0  0  0  0  0  0  0  0  0
    5.2908   -5.0575    2.8012 H   0  0  0  0  0  0  0  0  0  0  0  0
    5.0346   -2.6376    2.4440 H   0  0  0  0  0  0  0  0  0  0  0  0
    3.1338   -1.7716    1.1393 H   0  0  0  0  0  0  0  0  0  0  0  0
    4.4705   -7.3330    2.5636 H   0  0  0  0  0  0  0  0  0  0  0  0
    2.8341   -8.9361    1.7070 H   0  0  0  0  0  0  0  0  0  0  0  0
    0.9304   -5.8428   -0.5419 H   0  0  0  0  0  0  0  0  0  0  0  0
    0.9672   -9.4563    0.2034 H   0  0  0  0  0  0  0  0  0  0  0  0
    0.4230   -8.2399   -0.9639 H   0  0  0  0  0  0  0  0  0  0  0  0
   -0.2179   -8.2300    0.6957 H   0  0  0  0  0  0  0  0  0  0  0  0
   -0.0217   -2.3426   -2.5061 H   0  0  0  0  0  0  0  0  0  0  0  0
   -1.7221   -1.9056   -2.3539 H   0  0  0  0  0  0  0  0  0  0  0  0
   -1.2438   -3.4107   -3.1717 H   0  0  0  0  0  0  0  0  0  0  0  0
    0.5975   -4.5884    2.6851 H   0  0  0  0  0  0  0  0  0  0  0  0
   -0.8792   -5.9664    4.0615 H   0  0  0  0  0  0  0  0  0  0  0  0
   -3.1683   -6.4999    3.2981 H   0  0  0  0  0  0  0  0  0  0  0  0
   -3.9798   -5.7049    1.0993 H   0  0  0  0  0  0  0  0  0  0  0  0
   -3.6333   -3.1195   -1.8190 H   0  0  0  0  0  0  0  0  0  0  0  0
   -4.3575   -4.1928   -0.6485 H   0  0  0  0  0  0  0  0  0  0  0  0
   -2.9089   -5.0879   -3.2207 H   0  0  0  0  0  0  0  0  0  0  0  0
   -4.6479   -4.9452   -3.0123 H   0  0  0  0  0  0  0  0  0  0  0  0
   -2.8392   -6.9162   -1.5402 H   0  0  0  0  0  0  0  0  0  0  0  0
   -4.0219   -7.2743   -2.8048 H   0  0  0  0  0  0  0  0  0  0  0  0
   -4.5782   -6.7088   -1.2249 H   0  0  0  0  0  0  0  0  0  0  0  0
  1  6  2  0  0  0  0
  1  2  1  0  0  0  0
  1 27  1  0  0  0  0
  2  3  2  0  0  0  0
  2 28  1  0  0  0  0
  3  4  1  0  0  0  0
  3 29  1  0  0  0  0
  4  5  2  0  0  0  0
  4 12  1  0  0  0  0
  5 10  1  0  0  0  0
  5  6  1  0  0  0  0
  6  7  1  0  0  0  0
  7  8  2  0  0  0  0
  7 30  1  0  0  0  0
  8  9  1  0  0  0  0
  8 31  1  0  0  0  0
  9 10  2  0  0  0  0
  9 11  1  0  0  0  0
 10 32  1  0  0  0  0
 11 33  1  0  0  0  0
 11 34  1  0  0  0  0
 11 35  1  0  0  0  0
 12 13  2  0  0  0  0
 12 14  1  0  0  0  0
 14 19  1  0  0  0  0
 14 15  2  0  0  0  0
 15 16  1  0  0  0  0
 15 17  1  0  0  0  0
 16 36  1  0  0  0  0
 16 37  1  0  0  0  0
 16 38  1  0  0  0  0
 17 18  1  0  0  0  0
 17 24  1  0  0  0  0
 18 23  2  0  0  0  0
 18 19  1  0  0  0  0
 19 20  2  0  0  0  0
 20 21  1  0  0  0  0
 20 39  1  0  0  0  0
 21 22  2  0  0  0  0
 21 40  1  0  0  0  0
 22 23  1  0  0  0  0
 22 41  1  0  0  0  0
 23 42  1  0  0  0  0
 24 25  1  0  0  0  0
 24 43  1  0  0  0  0
 24 44  1  0  0  0  0
 25 26  1  0  0  0  0
 25 45  1  0  0  0  0
 25 46  1  0  0  0  0
 26 47  1  0  0  0  0
 26 48  1  0  0  0  0
 26 49  1  0  0  0  0
M  END
$$$$
CHEMBL564888
 OpenBabel12022418093D

 56 59  0  0  0  0  0  0  0  0999 V2000
    4.4768    3.8451    6.8693 C   0  0  0  0  0  0  0  0  0  0  0  0
    4.1484    2.7316    5.8940 C   0  0  0  0  0  0  0  0  0  0  0  0
    4.9804    2.8478    4.6148 C   0  0  0  0  0  0  0  0  0  0  0  0
    4.6641    1.6755    3.6814 C   0  0  0  0  0  0  0  0  0  0  0  0
    5.5235    1.6315    2.3835 C   0  0  0  0  0  0  0  0  0  0  0  0
    6.9567    1.6818    2.5604 N   0  0  0  0  0  0  0  0  0  0  0  0
    7.7531    0.7033    3.1072 C   0  0  0  0  0  0  0  0  0  0  0  0
    9.0953    1.1190    3.0563 C   0  0  0  0  0  0  0  0  0  0  0  0
    9.0889    2.3424    2.3162 C   0  0  0  0  0  0  0  0  0  0  0  0
    7.7620    2.7056    2.0558 C   0  0  0  0  0  0  0  0  0  0  0  0
    7.4154    3.8829    1.3465 C   0  0  0  0  0  0  0  0  0  0  0  0
    8.4521    4.6783    0.8429 C   0  0  0  0  0  0  0  0  0  0  0  0
    9.7720    4.3310    1.0610 C   0  0  0  0  0  0  0  0  0  0  0  0
   10.0891    3.1597    1.7525 C   0  0  0  0  0  0  0  0  0  0  0  0
   10.2094    0.2433    3.4630 C   0  0  0  0  0  0  0  0  0  0  0  0
   10.0449   -0.9813    3.3351 O   0  0  0  0  0  0  0  0  0  0  0  0
   11.5265    0.6501    4.1239 C   0  0  0  0  0  0  0  0  0  0  0  0
   12.3397   -0.4787    4.4360 C   0  0  0  0  0  0  0  0  0  0  0  0
   13.5129   -0.3608    5.1731 C   0  0  0  0  0  0  0  0  0  0  0  0
   13.7394    0.8285    5.8224 C   0  0  0  0  0  0  0  0  0  0  0  0
   12.6941    1.7552    5.8557 C   0  0  0  0  0  0  0  0  0  0  0  0
   11.8684    1.8979    4.7588 C   0  0  0  0  0  0  0  0  0  0  0  0
   11.4656    3.2422    4.6037 C   0  0  0  0  0  0  0  0  0  0  0  0
   11.1692    4.0062    5.7251 C   0  0  0  0  0  0  0  0  0  0  0  0
   11.3313    3.4138    6.9599 C   0  0  0  0  0  0  0  0  0  0  0  0
   12.2092    2.3405    7.0318 C   0  0  0  0  0  0  0  0  0  0  0  0
   14.9747    1.0286    6.3797 O   0  0  0  0  0  0  0  0  0  0  0  0
   15.4559    2.3777    6.2516 C   0  0  0  0  0  0  0  0  0  0  0  0
    7.1969   -0.6166    3.5610 C   0  0  0  0  0  0  0  0  0  0  0  0
    3.8843    3.7296    7.7804 H   0  0  0  0  0  0  0  0  0  0  0  0
    4.2522    4.8230    6.4341 H   0  0  0  0  0  0  0  0  0  0  0  0
    5.5354    3.8228    7.1463 H   0  0  0  0  0  0  0  0  0  0  0  0
    3.0814    2.7597    5.6481 H   0  0  0  0  0  0  0  0  0  0  0  0
    4.3424    1.7667    6.3760 H   0  0  0  0  0  0  0  0  0  0  0  0
    6.0416    2.8303    4.8742 H   0  0  0  0  0  0  0  0  0  0  0  0
    4.7755    3.7828    4.1069 H   0  0  0  0  0  0  0  0  0  0  0  0
    3.5994    1.7146    3.3906 H   0  0  0  0  0  0  0  0  0  0  0  0
    4.7800    0.7461    4.2476 H   0  0  0  0  0  0  0  0  0  0  0  0
    5.1884    2.4637    1.7687 H   0  0  0  0  0  0  0  0  0  0  0  0
    5.2855    0.7098    1.8355 H   0  0  0  0  0  0  0  0  0  0  0  0
    6.3984    4.1067    1.0926 H   0  0  0  0  0  0  0  0  0  0  0  0
    8.1982    5.5618    0.2660 H   0  0  0  0  0  0  0  0  0  0  0  0
   10.5632    4.9606    0.6719 H   0  0  0  0  0  0  0  0  0  0  0  0
   11.1311    2.8744    1.8485 H   0  0  0  0  0  0  0  0  0  0  0  0
   12.0495   -1.4797    4.1232 H   0  0  0  0  0  0  0  0  0  0  0  0
   14.1879   -1.1992    5.2903 H   0  0  0  0  0  0  0  0  0  0  0  0
   11.5522    3.7472    3.6501 H   0  0  0  0  0  0  0  0  0  0  0  0
   10.8027    5.0217    5.6277 H   0  0  0  0  0  0  0  0  0  0  0  0
   10.8752    3.8269    7.8507 H   0  0  0  0  0  0  0  0  0  0  0  0
   12.4340    1.8719    7.9865 H   0  0  0  0  0  0  0  0  0  0  0  0
   16.5516    2.3581    6.1824 H   0  0  0  0  0  0  0  0  0  0  0  0
   15.1884    2.9419    7.1481 H   0  0  0  0  0  0  0  0  0  0  0  0
   15.0974    2.9000    5.3521 H   0  0  0  0  0  0  0  0  0  0  0  0
    6.1278   -0.7092    3.4224 H   0  0  0  0  0  0  0  0  0  0  0  0
    7.3973   -0.7761    4.6245 H   0  0  0  0  0  0  0  0  0  0  0  0
    7.6314   -1.4370    2.9899 H   0  0  0  0  0  0  0  0  0  0  0  0
  1  2  1  0  0  0  0
  1 30  1  0  0  0  0
  1 31  1  0  0  0  0
  1 32  1  0  0  0  0
  2  3  1  0  0  0  0
  2 33  1  0  0  0  0
  2 34  1  0  0  0  0
  3  4  1  0  0  0  0
  3 35  1  0  0  0  0
  3 36  1  0  0  0  0
  4  5  1  0  0  0  0
  4 37  1  0  0  0  0
  4 38  1  0  0  0  0
  5  6  1  0  0  0  0
  5 39  1  0  0  0  0
  5 40  1  0  0  0  0
  6 10  1  0  0  0  0
  6  7  1  0  0  0  0
  7  8  2  0  0  0  0
  7 29  1  0  0  0  0
  8  9  1  0  0  0  0
  8 15  1  0  0  0  0
  9 14  2  0  0  0  0
  9 10  1  0  0  0  0
 10 11  2  0  0  0  0
 11 12  1  0  0  0  0
 11 41  1  0  0  0  0
 12 13  2  0  0  0  0
 12 42  1  0  0  0  0
 13 14  1  0  0  0  0
 13 43  1  0  0  0  0
 14 44  1  0  0  0  0
 15 16  2  0  0  0  0
 15 17  1  0  0  0  0
 17 22  2  0  0  0  0
 17 18  1  0  0  0  0
 18 19  2  0  0  0  0
 18 45  1  0  0  0  0
 19 20  1  0  0  0  0
 19 46  1  0  0  0  0
 20 21  2  0  0  0  0
 20 27  1  0  0  0  0
 21 26  1  0  0  0  0
 21 22  1  0  0  0  0
 22 23  1  0  0  0  0
 23 24  2  0  0  0  0
 23 47  1  0  0  0  0
 24 25  1  0  0  0  0
 24 48  1  0  0  0  0
 25 26  2  0  0  0  0
 25 49  1  0  0  0  0
 26 50  1  0  0  0  0
 27 28  1  0  0  0  0
 28 51  1  0  0  0  0
 28 52  1  0  0  0  0
 28 53  1  0  0  0  0
 29 54  1  0  0  0  0
 29 55  1  0  0  0  0
 29 56  1  0  0  0  0
M  END
$$$$
CHEMBL3353424
 OpenBabel12022418093D

 55 57  0  0  1  0  0  0  0  0999 V2000
   12.8885    3.3101   -3.7216 C   0  0  0  0  0  0  0  0  0  0  0  0
   12.2703    4.5318   -3.5346 C   0  0  0  0  0  0  0  0  0  0  0  0
   11.0508    4.6765   -2.9691 N   0  0  0  0  0  0  0  0  0  0  0  0
   10.3965    3.5591   -2.5624 C   0  0  0  0  0  0  0  0  0  0  0  0
   10.9277    2.2828   -2.7650 C   0  0  0  0  0  0  0  0  0  0  0  0
   12.1957    2.1651   -3.3452 C   0  0  0  0  0  0  0  0  0  0  0  0
   10.1683    1.1033   -2.3749 C   0  0  0  0  0  0  0  0  0  0  0  0
    9.0638    1.2264   -1.6124 C   0  0  0  0  0  0  0  0  0  0  0  0
    8.6388    2.5919   -1.1725 C   0  0  0  0  0  0  0  0  0  0  0  0
    7.8337    2.6574   -0.2507 O   0  0  0  0  0  0  0  0  0  0  0  0
    9.1714    3.6992   -1.8268 N   0  0  0  0  0  0  0  0  0  0  0  0
    8.7707    5.0951   -1.5385 C   0  0  0  0  0  0  0  0  0  0  0  0
    7.3143    5.4523   -1.1777 C   0  0  0  0  0  0  0  0  0  0  0  0
    6.7810    5.2576    0.2508 C   0  0  0  0  0  0  0  0  0  0  0  0
    7.6800    5.6796    1.4131 C   0  0  0  0  0  0  0  0  0  0  0  0
    7.7523    7.1860    1.6057 C   0  0  0  0  0  0  0  0  0  0  0  0
    8.3300   -0.0384   -1.2456 C   0  0  0  0  0  0  0  0  0  0  0  0
    8.6633   -1.1124   -1.7438 O   0  0  0  0  0  0  0  0  0  0  0  0
    7.3083    0.0740   -0.3281 N   0  0  0  0  0  0  0  0  0  0  0  0
    6.5001   -1.0443    0.1823 C   0  0  1  0  0  0  0  0  0  0  0  0
    5.6355   -1.6820   -0.9145 C   0  0  0  0  0  0  0  0  0  0  0  0
    4.9678   -2.9839   -0.4788 C   0  0  0  0  0  0  0  0  0  0  0  0
    5.9520   -4.0177    0.0586 C   0  0  2  0  0  0  0  0  0  0  0  0
    6.7500   -3.4254    1.2227 C   0  0  0  0  0  0  0  0  0  0  0  0
    7.3472   -2.0339    1.0008 C   0  0  0  0  0  0  0  0  0  0  0  0
    6.8133   -4.6222   -1.0540 C   0  0  0  0  0  0  0  0  0  0  0  0
   13.8842    3.2511   -4.1484 H   0  0  0  0  0  0  0  0  0  0  0  0
   12.7590    5.4573   -3.8288 H   0  0  0  0  0  0  0  0  0  0  0  0
   12.6585    1.1911   -3.4858 H   0  0  0  0  0  0  0  0  0  0  0  0
   10.5169    0.1341   -2.7204 H   0  0  0  0  0  0  0  0  0  0  0  0
    8.9284    5.6409   -2.4815 H   0  0  0  0  0  0  0  0  0  0  0  0
    9.4743    5.5137   -0.8118 H   0  0  0  0  0  0  0  0  0  0  0  0
    6.6340    4.9509   -1.8767 H   0  0  0  0  0  0  0  0  0  0  0  0
    7.2096    6.5276   -1.3846 H   0  0  0  0  0  0  0  0  0  0  0  0
    6.4913    4.2174    0.4019 H   0  0  0  0  0  0  0  0  0  0  0  0
    5.8295    5.7990    0.3282 H   0  0  0  0  0  0  0  0  0  0  0  0
    8.6862    5.2615    1.3120 H   0  0  0  0  0  0  0  0  0  0  0  0
    7.2618    5.2502    2.3330 H   0  0  0  0  0  0  0  0  0  0  0  0
    8.2350    7.6771    0.7567 H   0  0  0  0  0  0  0  0  0  0  0  0
    8.3274    7.4203    2.5081 H   0  0  0  0  0  0  0  0  0  0  0  0
    6.7519    7.6135    1.7334 H   0  0  0  0  0  0  0  0  0  0  0  0
    7.1405    1.0028    0.0605 H   0  0  0  0  0  0  0  0  0  0  0  0
    5.8001   -0.5734    0.8872 H   0  0  0  0  0  0  0  0  0  0  0  0
    6.2172   -1.8618   -1.8236 H   0  0  0  0  0  0  0  0  0  0  0  0
    4.8504   -0.9707   -1.2030 H   0  0  0  0  0  0  0  0  0  0  0  0
    4.4079   -3.4020   -1.3271 H   0  0  0  0  0  0  0  0  0  0  0  0
    4.2242   -2.7672    0.2982 H   0  0  0  0  0  0  0  0  0  0  0  0
    5.3681   -4.8550    0.4657 H   0  0  0  0  0  0  0  0  0  0  0  0
    7.5507   -4.1141    1.5214 H   0  0  0  0  0  0  0  0  0  0  0  0
    6.0736   -3.3663    2.0868 H   0  0  0  0  0  0  0  0  0  0  0  0
    7.5181   -1.5845    1.9902 H   0  0  0  0  0  0  0  0  0  0  0  0
    8.3458   -2.1461    0.5686 H   0  0  0  0  0  0  0  0  0  0  0  0
    7.3994   -3.8742   -1.5928 H   0  0  0  0  0  0  0  0  0  0  0  0
    6.1713   -5.1322   -1.7845 H   0  0  0  0  0  0  0  0  0  0  0  0
    7.5018   -5.3756   -0.6554 H   0  0  0  0  0  0  0  0  0  0  0  0
  1  6  2  0  0  0  0
  1  2  1  0  0  0  0
  1 27  1  0  0  0  0
  2  3  2  0  0  0  0
  2 28  1  0  0  0  0
  3  4  1  0  0  0  0
  4 11  1  0  0  0  0
  4  5  2  0  0  0  0
  5  6  1  0  0  0  0
  5  7  1  0  0  0  0
  6 29  1  0  0  0  0
  7  8  2  0  0  0  0
  7 30  1  0  0  0  0
  8  9  1  0  0  0  0
  8 17  1  0  0  0  0
  9 10  2  0  0  0  0
  9 11  1  0  0  0  0
 11 12  1  0  0  0  0
 12 13  1  0  0  0  0
 12 31  1  0  0  0  0
 12 32  1  0  0  0  0
 13 14  1  0  0  0  0
 13 33  1  0  0  0  0
 13 34  1  0  0  0  0
 14 15  1  0  0  0  0
 14 35  1  0  0  0  0
 14 36  1  0  0  0  0
 15 16  1  0  0  0  0
 15 37  1  0  0  0  0
 15 38  1  0  0  0  0
 16 39  1  0  0  0  0
 16 40  1  0  0  0  0
 16 41  1  0  0  0  0
 17 18  2  0  0  0  0
 17 19  1  0  0  0  0
 19 42  1  0  0  0  0
 20 21  1  0  0  0  0
 20 25  1  0  0  0  0
 20 19  1  0  0  0  0
 20 43  1  1  0  0  0
 21 22  1  0  0  0  0
 21 44  1  0  0  0  0
 21 45  1  0  0  0  0
 22 23  1  0  0  0  0
 22 46  1  0  0  0  0
 22 47  1  0  0  0  0
 23 24  1  0  0  0  0
 23 26  1  0  0  0  0
 23 48  1  1  0  0  0
 24 25  1  0  0  0  0
 24 49  1  0  0  0  0
 24 50  1  0  0  0  0
 25 51  1  0  0  0  0
 25 52  1  0  0  0  0
 26 53  1  0  0  0  0
 26 54  1  0  0  0  0
 26 55  1  0  0  0  0
M  END
$$$$
CHEMBL3960124
 OpenBabel12022418093D

 47 48  0  0  0  0  0  0  0  0999 V2000
    4.9951   -1.7094    2.4198 C   0  0  0  0  0  0  0  0  0  0  0  0
    4.0236   -1.0568    3.3909 C   0  0  0  0  0  0  0  0  0  0  0  0
    2.5578   -1.1280    3.2375 N   0  0  0  0  0  0  0  0  0  0  0  0
    1.9910   -1.6157    2.0111 C   0  0  0  0  0  0  0  0  0  0  0  0
    2.6805   -2.1209    1.1219 O   0  0  0  0  0  0  0  0  0  0  0  0
    0.5023   -1.5287    1.6872 C   0  0  0  0  0  0  0  0  0  0  0  0
    0.0092   -1.9375    0.4587 C   0  0  0  0  0  0  0  0  0  0  0  0
   -1.3520   -1.7227    0.1709 C   0  0  0  0  0  0  0  0  0  0  0  0
   -2.2151   -1.1575    1.1253 C   0  0  0  0  0  0  0  0  0  0  0  0
   -1.6244   -0.8480    2.3310 C   0  0  0  0  0  0  0  0  0  0  0  0
   -0.3195   -1.0007    2.6062 N   0  0  0  0  0  0  0  0  0  0  0  0
   -3.6845   -0.8744    0.9224 C   0  0  0  0  0  0  0  0  0  0  0  0
   -4.2509    0.4611    1.3802 C   0  0  0  0  0  0  0  0  0  0  0  0
   -4.1378    0.1562   -0.0816 C   0  0  0  0  0  0  0  0  0  0  0  0
   -1.9312   -2.0630   -1.0281 O   0  0  0  0  0  0  0  0  0  0  0  0
   -1.0802   -1.9624   -2.1789 C   0  0  0  0  0  0  0  0  0  0  0  0
   -1.8744   -1.5991   -3.4301 C   0  0  0  0  0  0  0  0  0  0  0  0
   -3.1751   -1.3407   -3.1758 F   0  0  0  0  0  0  0  0  0  0  0  0
   -1.3539   -0.4936   -4.0173 F   0  0  0  0  0  0  0  0  0  0  0  0
   -1.8263   -2.5963   -4.3433 F   0  0  0  0  0  0  0  0  0  0  0  0
    1.7650   -0.5142    4.3854 C   0  0  0  0  0  0  0  0  0  0  0  0
    2.6336   -0.1032    5.6237 C   0  0  0  0  0  0  0  0  0  0  0  0
    1.1405    0.8468    3.9626 C   0  0  0  0  0  0  0  0  0  0  0  0
    0.8092   -1.5666    5.0181 C   0  0  0  0  0  0  0  0  0  0  0  0
    6.0213   -1.4901    2.7433 H   0  0  0  0  0  0  0  0  0  0  0  0
    4.8985   -1.3192    1.4039 H   0  0  0  0  0  0  0  0  0  0  0  0
    4.8846   -2.7977    2.4124 H   0  0  0  0  0  0  0  0  0  0  0  0
    4.2808    0.0087    3.4402 H   0  0  0  0  0  0  0  0  0  0  0  0
    4.2608   -1.5094    4.3616 H   0  0  0  0  0  0  0  0  0  0  0  0
    0.6774   -2.4025   -0.2580 H   0  0  0  0  0  0  0  0  0  0  0  0
   -2.2005   -0.4190    3.1470 H   0  0  0  0  0  0  0  0  0  0  0  0
   -4.3404   -1.7313    1.0667 H   0  0  0  0  0  0  0  0  0  0  0  0
   -3.5913    1.2213    1.7714 H   0  0  0  0  0  0  0  0  0  0  0  0
   -5.2380    0.4643    1.8309 H   0  0  0  0  0  0  0  0  0  0  0  0
   -5.0501   -0.0463   -0.6305 H   0  0  0  0  0  0  0  0  0  0  0  0
   -3.3883    0.6926   -0.6518 H   0  0  0  0  0  0  0  0  0  0  0  0
   -0.5859   -2.9298   -2.3244 H   0  0  0  0  0  0  0  0  0  0  0  0
   -0.3099   -1.1941   -2.0372 H   0  0  0  0  0  0  0  0  0  0  0  0
    3.3761    0.6611    5.3757 H   0  0  0  0  0  0  0  0  0  0  0  0
    3.1549   -0.9588    6.0632 H   0  0  0  0  0  0  0  0  0  0  0  0
    1.9939    0.3171    6.4108 H   0  0  0  0  0  0  0  0  0  0  0  0
    1.9032    1.6365    3.9641 H   0  0  0  0  0  0  0  0  0  0  0  0
    0.3478    1.1526    4.6544 H   0  0  0  0  0  0  0  0  0  0  0  0
    0.7471    0.8969    2.9473 H   0  0  0  0  0  0  0  0  0  0  0  0
    1.3903   -2.3205    5.5637 H   0  0  0  0  0  0  0  0  0  0  0  0
    0.2169   -2.1696    4.3339 H   0  0  0  0  0  0  0  0  0  0  0  0
    0.1189   -1.0967    5.7282 H   0  0  0  0  0  0  0  0  0  0  0  0
  1  2  1  0  0  0  0
  1 25  1  0  0  0  0
  1 26  1  0  0  0  0
  1 27  1  0  0  0  0
  2  3  1  0  0  0  0
  2 28  1  0  0  0  0
  2 29  1  0  0  0  0
  3  4  1  0  0  0  0
  3 21  1  0  0  0  0
  4  5  2  0  0  0  0
  4  6  1  0  0  0  0
  6 11  2  0  0  0  0
  6  7  1  0  0  0  0
  7  8  2  0  0  0  0
  7 30  1  0  0  0  0
  8  9  1  0  0  0  0
  8 15  1  0  0  0  0
  9 10  2  0  0  0  0
  9 12  1  0  0  0  0
 10 11  1  0  0  0  0
 10 31  1  0  0  0  0
 12 14  1  0  0  0  0
 12 13  1  0  0  0  0
 12 32  1  0  0  0  0
 13 14  1  0  0  0  0
 13 33  1  0  0  0  0
 13 34  1  0  0  0  0
 14 35  1  0  0  0  0
 14 36  1  0  0  0  0
 15 16  1  0  0  0  0
 16 17  1  0  0  0  0
 16 37  1  0  0  0  0
 16 38  1  0  0  0  0
 17 18  1  0  0  0  0
 17 19  1  0  0  0  0
 17 20  1  0  0  0  0
 21 22  1  0  0  0  0
 21 23  1  0  0  0  0
 21 24  1  0  0  0  0
 22 39  1  0  0  0  0
 22 40  1  0  0  0  0
 22 41  1  0  0  0  0
 23 42  1  0  0  0  0
 23 43  1  0  0  0  0
 23 44  1  0  0  0  0
 24 45  1  0  0  0  0
 24 46  1  0  0  0  0
 24 47  1  0  0  0  0
M  END
$$$$
CHEMBL3686341
 OpenBabel12022418093D

 40 41  0  0  0  0  0  0  0  0999 V2000
    2.0644    0.6352   -0.4726 C   0  0  0  0  0  0  0  0  0  0  0  0
    1.0354    1.4928   -0.4165 C   0  0  0  0  0  0  0  0  0  0  0  0
    0.0514    1.5583   -1.4841 C   0  0  0  0  0  0  0  0  0  0  0  0
   -1.0273    2.3623   -1.4749 C   0  0  0  0  0  0  0  0  0  0  0  0
   -1.4417    3.2380   -0.4967 N   0  0  0  0  0  0  0  0  0  0  0  0
   -2.3710    4.2505   -0.7452 N   0  0  0  0  0  0  0  0  0  0  0  0
   -2.2253    5.3977    0.0196 C   0  0  0  0  0  0  0  0  0  0  0  0
   -1.2285    5.6226    0.7033 O   0  0  0  0  0  0  0  0  0  0  0  0
   -3.4171    6.3322   -0.0465 C   0  0  0  0  0  0  0  0  0  0  0  0
   -3.0030    7.8014    0.0142 C   0  0  0  0  0  0  0  0  0  0  0  0
   -2.1593    8.1905   -1.1996 C   0  0  0  0  0  0  0  0  0  0  0  0
   -1.8484    9.5811   -1.1357 O   0  0  0  0  0  0  0  0  0  0  0  0
   -1.0846   10.0882   -2.1599 C   0  0  0  0  0  0  0  0  0  0  0  0
   -0.7095   11.4399   -2.0719 C   0  0  0  0  0  0  0  0  0  0  0  0
    0.0510   12.0391   -3.0818 C   0  0  0  0  0  0  0  0  0  0  0  0
    0.4376   11.2878   -4.1867 C   0  0  0  0  0  0  0  0  0  0  0  0
    0.0825    9.9469   -4.2880 C   0  0  0  0  0  0  0  0  0  0  0  0
   -0.6756    9.3484   -3.2772 C   0  0  0  0  0  0  0  0  0  0  0  0
    1.3614   12.0193   -5.4400 Cl  0  0  0  0  0  0  0  0  0  0  0  0
   -1.1651   12.4155   -0.7187 Cl  0  0  0  0  0  0  0  0  0  0  0  0
    0.2267    0.6523   -2.6771 C   0  0  0  0  0  0  0  0  0  0  0  0
   -0.5292    0.6401   -3.6419 O   0  0  0  0  0  0  0  0  0  0  0  0
    1.3921   -0.2721   -2.6302 C   0  0  0  0  0  0  0  0  0  0  0  0
    2.2354   -0.2631   -1.5894 C   0  0  0  0  0  0  0  0  0  0  0  0
    2.7948    0.5945    0.3310 H   0  0  0  0  0  0  0  0  0  0  0  0
    0.9359    2.1498    0.4405 H   0  0  0  0  0  0  0  0  0  0  0  0
   -1.7149    2.3414   -2.3201 H   0  0  0  0  0  0  0  0  0  0  0  0
   -0.7287    3.5132    0.1886 H   0  0  0  0  0  0  0  0  0  0  0  0
   -3.2888    3.9406   -1.0509 H   0  0  0  0  0  0  0  0  0  0  0  0
   -4.0619    6.0962    0.8078 H   0  0  0  0  0  0  0  0  0  0  0  0
   -3.9945    6.1446   -0.9586 H   0  0  0  0  0  0  0  0  0  0  0  0
   -2.4471    8.0175    0.9351 H   0  0  0  0  0  0  0  0  0  0  0  0
   -3.8992    8.4325    0.0495 H   0  0  0  0  0  0  0  0  0  0  0  0
   -2.7392    7.9828   -2.1068 H   0  0  0  0  0  0  0  0  0  0  0  0
   -1.2304    7.6093   -1.2053 H   0  0  0  0  0  0  0  0  0  0  0  0
    0.3359   13.0843   -3.0046 H   0  0  0  0  0  0  0  0  0  0  0  0
    0.3873    9.3578   -5.1498 H   0  0  0  0  0  0  0  0  0  0  0  0
   -0.9271    8.2999   -3.3983 H   0  0  0  0  0  0  0  0  0  0  0  0
    1.5122   -0.9438   -3.4708 H   0  0  0  0  0  0  0  0  0  0  0  0
    3.0813   -0.9434   -1.5607 H   0  0  0  0  0  0  0  0  0  0  0  0
  1 24  1  0  0  0  0
  1  2  2  0  0  0  0
  1 25  1  0  0  0  0
  2  3  1  0  0  0  0
  2 26  1  0  0  0  0
  3  4  2  0  0  0  0
  3 21  1  0  0  0  0
  4  5  1  0  0  0  0
  4 27  1  0  0  0  0
  5  6  1  0  0  0  0
  5 28  1  0  0  0  0
  6  7  1  0  0  0  0
  6 29  1  0  0  0  0
  7  8  2  0  0  0  0
  7  9  1  0  0  0  0
  9 10  1  0  0  0  0
  9 30  1  0  0  0  0
  9 31  1  0  0  0  0
 10 11  1  0  0  0  0
 10 32  1  0  0  0  0
 10 33  1  0  0  0  0
 11 12  1  0  0  0  0
 11 34  1  0  0  0  0
 11 35  1  0  0  0  0
 12 13  1  0  0  0  0
 13 18  2  0  0  0  0
 13 14  1  0  0  0  0
 14 15  2  0  0  0  0
 14 20  1  0  0  0  0
 15 16  1  0  0  0  0
 15 36  1  0  0  0  0
 16 17  2  0  0  0  0
 16 19  1  0  0  0  0
 17 18  1  0  0  0  0
 17 37  1  0  0  0  0
 18 38  1  0  0  0  0
 21 22  2  0  0  0  0
 21 23  1  0  0  0  0
 23 24  2  0  0  0  0
 23 39  1  0  0  0  0
 24 40  1  0  0  0  0
M  END
$$$$
CHEMBL3590634
 OpenBabel12022418093D

 52 53  0  0  1  0  0  0  0  0999 V2000
    1.3816  -15.1038   -0.4790 C   0  0  0  0  0  0  0  0  0  0  0  0
    1.4060  -14.8552   -1.9793 C   0  0  0  0  0  0  0  0  0  0  0  0
    1.3524  -13.3621   -2.2925 C   0  0  0  0  0  0  0  0  0  0  0  0
    1.4361  -13.0806   -3.8098 C   0  0  0  0  0  0  0  0  0  0  0  0
    1.3297  -11.6532   -4.1007 N   0  0  0  0  0  0  0  0  0  0  0  0
    2.3476  -10.8950   -3.4922 C   0  0  0  0  0  0  0  0  0  0  0  0
    3.4327  -11.3426   -3.1203 O   0  0  0  0  0  0  0  0  0  0  0  0
    1.9243   -9.5325   -3.1354 C   0  0  0  0  0  0  0  0  0  0  0  0
    2.1116   -9.1478   -1.8602 C   0  0  0  0  0  0  0  0  0  0  0  0
    1.5663   -8.1140   -1.1134 N   0  0  0  0  0  0  0  0  0  0  0  0
    2.1571   -6.7556   -1.1267 C   0  0  2  0  0  0  0  0  0  0  0  0
    3.5697   -6.8327   -0.5469 C   0  0  0  0  0  0  0  0  0  0  0  0
    1.2147   -5.7838   -0.3548 C   0  0  0  0  0  0  0  0  0  0  0  0
    0.9623   -6.2122    1.0935 C   0  0  0  0  0  0  0  0  0  0  0  0
    1.7211   -4.3364   -0.3722 C   0  0  0  0  0  0  0  0  0  0  0  0
    1.1392   -8.7718   -4.0961 C   0  0  0  0  0  0  0  0  0  0  0  0
    1.1639   -7.5492   -4.1723 O   0  0  0  0  0  0  0  0  0  0  0  0
    0.2837   -9.5931   -4.9711 C   0  0  0  0  0  0  0  0  0  0  0  0
   -0.6015   -8.8638   -5.7839 C   0  0  0  0  0  0  0  0  0  0  0  0
   -1.5312   -9.5219   -6.5577 C   0  0  0  0  0  0  0  0  0  0  0  0
   -1.5672  -10.9013   -6.5136 C   0  0  0  0  0  0  0  0  0  0  0  0
   -0.6699  -11.6727   -5.7226 C   0  0  0  0  0  0  0  0  0  0  0  0
   -0.8666  -13.1563   -5.8778 C   0  0  0  0  0  0  0  0  0  0  0  0
    0.3001  -11.0171   -4.9158 C   0  0  0  0  0  0  0  0  0  0  0  0
    1.4222  -16.1782   -0.2716 H   0  0  0  0  0  0  0  0  0  0  0  0
    0.4683  -14.7040   -0.0272 H   0  0  0  0  0  0  0  0  0  0  0  0
    2.2400  -14.6332    0.0132 H   0  0  0  0  0  0  0  0  0  0  0  0
    0.5559  -15.3653   -2.4456 H   0  0  0  0  0  0  0  0  0  0  0  0
    2.3211  -15.2887   -2.3988 H   0  0  0  0  0  0  0  0  0  0  0  0
    2.1766  -12.8746   -1.7604 H   0  0  0  0  0  0  0  0  0  0  0  0
    0.4283  -12.9276   -1.8909 H   0  0  0  0  0  0  0  0  0  0  0  0
    0.6687  -13.6749   -4.2771 H   0  0  0  0  0  0  0  0  0  0  0  0
    2.3930  -13.4429   -4.2050 H   0  0  0  0  0  0  0  0  0  0  0  0
    2.6873   -9.7995   -1.1954 H   0  0  0  0  0  0  0  0  0  0  0  0
    0.5670   -8.0295   -1.3074 H   0  0  0  0  0  0  0  0  0  0  0  0
    2.2247   -6.3978   -2.1620 H   0  0  0  0  0  0  0  0  0  0  0  0
    3.5585   -7.2452    0.4654 H   0  0  0  0  0  0  0  0  0  0  0  0
    4.0561   -5.8533   -0.5233 H   0  0  0  0  0  0  0  0  0  0  0  0
    4.2009   -7.4888   -1.1551 H   0  0  0  0  0  0  0  0  0  0  0  0
    0.2394   -5.7853   -0.8667 H   0  0  0  0  0  0  0  0  0  0  0  0
    1.8906   -6.2389    1.6715 H   0  0  0  0  0  0  0  0  0  0  0  0
    0.4989   -7.2025    1.1401 H   0  0  0  0  0  0  0  0  0  0  0  0
    0.2834   -5.5116    1.5915 H   0  0  0  0  0  0  0  0  0  0  0  0
    2.6698   -4.2332    0.1632 H   0  0  0  0  0  0  0  0  0  0  0  0
    1.0015   -3.6697    0.1172 H   0  0  0  0  0  0  0  0  0  0  0  0
    1.8612   -3.9775   -1.3967 H   0  0  0  0  0  0  0  0  0  0  0  0
   -0.5715   -7.7755   -5.7951 H   0  0  0  0  0  0  0  0  0  0  0  0
   -2.2240   -8.9622   -7.1823 H   0  0  0  0  0  0  0  0  0  0  0  0
   -2.3175  -11.4050   -7.1354 H   0  0  0  0  0  0  0  0  0  0  0  0
   -1.6495  -13.3934   -6.6080 H   0  0  0  0  0  0  0  0  0  0  0  0
   -1.2055  -13.5975   -4.9357 H   0  0  0  0  0  0  0  0  0  0  0  0
    0.0450  -13.6282   -6.2574 H   0  0  0  0  0  0  0  0  0  0  0  0
  1  2  1  0  0  0  0
  1 25  1  0  0  0  0
  1 26  1  0  0  0  0
  1 27  1  0  0  0  0
  2  3  1  0  0  0  0
  2 28  1  0  0  0  0
  2 29  1  0  0  0  0
  3  4  1  0  0  0  0
  3 30  1  0  0  0  0
  3 31  1  0  0  0  0
  4  5  1  0  0  0  0
  4 32  1  0  0  0  0
  4 33  1  0  0  0  0
  5 24  1  0  0  0  0
  5  6  1  0  0  0  0
  6  7  2  0  0  0  0
  6  8  1  0  0  0  0
  8  9  2  0  0  0  0
  8 16  1  0  0  0  0
  9 10  1  0  0  0  0
  9 34  1  0  0  0  0
 10 35  1  0  0  0  0
 11 13  1  0  0  0  0
 11 12  1  0  0  0  0
 11 10  1  0  0  0  0
 11 36  1  6  0  0  0
 12 37  1  0  0  0  0
 12 38  1  0  0  0  0
 12 39  1  0  0  0  0
 13 14  1  0  0  0  0
 13 15  1  0  0  0  0
 13 40  1  0  0  0  0
 14 41  1  0  0  0  0
 14 42  1  0  0  0  0
 14 43  1  0  0  0  0
 15 44  1  0  0  0  0
 15 45  1  0  0  0  0
 15 46  1  0  0  0  0
 16 17  2  0  0  0  0
 16 18  1  0  0  0  0
 18 24  2  0  0  0  0
 18 19  1  0  0  0  0
 19 20  2  0  0  0  0
 19 47  1  0  0  0  0
 20 21  1  0  0  0  0
 20 48  1  0  0  0  0
 21 22  2  0  0  0  0
 21 49  1  0  0  0  0
 22 23  1  0  0  0  0
 22 24  1  0  0  0  0
 23 50  1  0  0  0  0
 23 51  1  0  0  0  0
 23 52  1  0  0  0  0
M  END
$$$$
CHEMBL2380413
 OpenBabel12022418093D

 48 51  0  0  0  0  0  0  0  0999 V2000
    1.3455    0.1604    2.8399 C   0  0  0  0  0  0  0  0  0  0  0  0
    2.7820   -0.3419    2.8564 C   0  0  0  0  0  0  0  0  0  0  0  0
    3.2167   -0.8442    1.4828 C   0  0  0  0  0  0  0  0  0  0  0  0
    4.7076   -1.2126    1.4316 C   0  0  0  0  0  0  0  0  0  0  0  0
    5.0974   -2.3525    2.2564 N   0  0  0  0  0  0  0  0  0  0  0  0
    5.8816   -2.2618    3.4229 C   0  0  0  0  0  0  0  0  0  0  0  0
    6.1965   -3.5288    3.8819 C   0  0  0  0  0  0  0  0  0  0  0  0
    7.2846   -3.9170    4.9027 C   0  0  0  0  0  0  0  0  0  0  0  0
    7.6527   -5.2456    4.6652 C   0  0  0  0  0  0  0  0  0  0  0  0
    8.4159   -5.9468    5.5628 C   0  0  0  0  0  0  0  0  0  0  0  0
    9.5502   -5.2481    5.8728 C   0  0  0  0  0  0  0  0  0  0  0  0
    9.3897   -3.9274    6.2351 C   0  0  0  0  0  0  0  0  0  0  0  0
   10.4719   -3.4378    6.9917 C   0  0  0  0  0  0  0  0  0  0  0  0
   10.3290   -2.3056    7.7352 C   0  0  0  0  0  0  0  0  0  0  0  0
    9.1235   -1.6336    7.6974 C   0  0  0  0  0  0  0  0  0  0  0  0
    8.0778   -2.0345    6.7889 C   0  0  0  0  0  0  0  0  0  0  0  0
    8.1575   -3.2268    5.9438 C   0  0  0  0  0  0  0  0  0  0  0  0
    5.4127   -4.4293    2.9366 C   0  0  0  0  0  0  0  0  0  0  0  0
    5.2270   -5.8376    2.7982 C   0  0  0  0  0  0  0  0  0  0  0  0
    4.5425   -6.4080    1.7040 C   0  0  0  0  0  0  0  0  0  0  0  0
    4.0147   -5.6108    0.6985 C   0  0  0  0  0  0  0  0  0  0  0  0
    4.1484   -4.2190    0.7720 C   0  0  0  0  0  0  0  0  0  0  0  0
    4.8190   -3.6496    1.9052 C   0  0  0  0  0  0  0  0  0  0  0  0
    3.7114   -3.3802   -0.2258 O   0  0  0  0  0  0  0  0  0  0  0  0
    2.7978   -3.8569   -1.2095 C   0  0  0  0  0  0  0  0  0  0  0  0
    1.0400    0.4559    3.8484 H   0  0  0  0  0  0  0  0  0  0  0  0
    0.6565   -0.6147    2.4882 H   0  0  0  0  0  0  0  0  0  0  0  0
    1.2428    1.0323    2.1855 H   0  0  0  0  0  0  0  0  0  0  0  0
    2.8669   -1.1507    3.5895 H   0  0  0  0  0  0  0  0  0  0  0  0
    3.4426    0.4698    3.1783 H   0  0  0  0  0  0  0  0  0  0  0  0
    3.0322   -0.0609    0.7364 H   0  0  0  0  0  0  0  0  0  0  0  0
    2.5793   -1.6907    1.2007 H   0  0  0  0  0  0  0  0  0  0  0  0
    5.3264   -0.3550    1.7156 H   0  0  0  0  0  0  0  0  0  0  0  0
    4.9892   -1.4547    0.3997 H   0  0  0  0  0  0  0  0  0  0  0  0
    6.2153   -1.2904    3.7435 H   0  0  0  0  0  0  0  0  0  0  0  0
    7.6812   -5.5858    3.6306 H   0  0  0  0  0  0  0  0  0  0  0  0
    7.8464   -6.1266    6.5093 H   0  0  0  0  0  0  0  0  0  0  0  0
   10.4405   -5.8134    6.1294 H   0  0  0  0  0  0  0  0  0  0  0  0
   11.3937   -4.0073    7.0745 H   0  0  0  0  0  0  0  0  0  0  0  0
   11.1533   -2.0028    8.4051 H   0  0  0  0  0  0  0  0  0  0  0  0
    8.9926   -0.8076    8.3975 H   0  0  0  0  0  0  0  0  0  0  0  0
    7.1600   -1.4487    6.8430 H   0  0  0  0  0  0  0  0  0  0  0  0
    5.6237   -6.5264    3.5409 H   0  0  0  0  0  0  0  0  0  0  0  0
    4.4503   -7.4888    1.6211 H   0  0  0  0  0  0  0  0  0  0  0  0
    3.5167   -6.0901   -0.1408 H   0  0  0  0  0  0  0  0  0  0  0  0
    2.5347   -3.0094   -1.8552 H   0  0  0  0  0  0  0  0  0  0  0  0
    1.8702   -4.2184   -0.7538 H   0  0  0  0  0  0  0  0  0  0  0  0
    3.2465   -4.6192   -1.8549 H   0  0  0  0  0  0  0  0  0  0  0  0
  1  2  1  0  0  0  0
  1 26  1  0  0  0  0
  1 27  1  0  0  0  0
  1 28  1  0  0  0  0
  2  3  1  0  0  0  0
  2 29  1  0  0  0  0
  2 30  1  0  0  0  0
  3  4  1  0  0  0  0
  3 31  1  0  0  0  0
  3 32  1  0  0  0  0
  4  5  1  0  0  0  0
  4 33  1  0  0  0  0
  4 34  1  0  0  0  0
  5 23  1  0  0  0  0
  5  6  1  0  0  0  0
  6  7  2  0  0  0  0
  6 35  1  0  0  0  0
  7  8  1  0  0  0  0
  7 18  1  0  0  0  0
  8 17  2  0  0  0  0
  8  9  1  0  0  0  0
  9 10  2  0  0  0  0
  9 36  1  0  0  0  0
 10 11  1  0  0  0  0
 10 37  1  0  0  0  0
 11 12  2  0  0  0  0
 11 38  1  0  0  0  0
 12 17  1  0  0  0  0
 12 13  1  0  0  0  0
 13 14  2  0  0  0  0
 13 39  1  0  0  0  0
 14 15  1  0  0  0  0
 14 40  1  0  0  0  0
 15 16  2  0  0  0  0
 15 41  1  0  0  0  0
 16 17  1  0  0  0  0
 16 42  1  0  0  0  0
 18 23  2  0  0  0  0
 18 19  1  0  0  0  0
 19 20  2  0  0  0  0
 19 43  1  0  0  0  0
 20 21  1  0  0  0  0
 20 44  1  0  0  0  0
 21 22  2  0  0  0  0
 21 45  1  0  0  0  0
 22 23  1  0  0  0  0
 22 24  1  0  0  0  0
 24 25  1  0  0  0  0
 25 46  1  0  0  0  0
 25 47  1  0  0  0  0
 25 48  1  0  0  0  0
M  END
$$$$
CHEMBL602591
 OpenBabel12022418093D

 58 59  0  0  0  0  0  0  0  0999 V2000
    2.9589    3.9213    2.6016 C   0  0  0  0  0  0  0  0  0  0  0  0
    2.6155    2.4974    2.1764 C   0  0  0  0  0  0  0  0  0  0  0  0
    3.0881    1.3978    3.1563 C   0  0  0  0  0  0  0  0  0  0  0  0
    2.3548    1.5361    4.5109 C   0  0  0  0  0  0  0  0  0  0  0  0
    2.7412    0.0137    2.5793 C   0  0  0  0  0  0  0  0  0  0  0  0
    4.6075    1.4785    3.4200 C   0  0  0  0  0  0  0  0  0  0  0  0
    5.0212    1.6223    4.5687 O   0  0  0  0  0  0  0  0  0  0  0  0
    5.4242    1.3997    2.2988 N   0  0  0  0  0  0  0  0  0  0  0  0
    6.8409    1.4262    2.3208 C   0  0  0  0  0  0  0  0  0  0  0  0
    7.5308    1.6905    1.1332 C   0  0  0  0  0  0  0  0  0  0  0  0
    8.9431    1.7729    1.1005 C   0  0  0  0  0  0  0  0  0  0  0  0
    9.6194    2.0974   -0.2072 C   0  0  0  0  0  0  0  0  0  0  0  0
    9.6904    1.5596    2.2822 C   0  0  0  0  0  0  0  0  0  0  0  0
   11.1974    1.6382    2.2829 C   0  0  0  0  0  0  0  0  0  0  0  0
    8.9810    1.2526    3.4628 C   0  0  0  0  0  0  0  0  0  0  0  0
    7.5807    1.1895    3.4749 C   0  0  0  0  0  0  0  0  0  0  0  0
    9.8153    0.8650    4.9978 S   0  0  0  0  0  0  0  0  0  0  0  0
   10.7251    1.9503    5.2962 O   0  0  0  0  0  0  0  0  0  0  0  0
    8.8452    0.4298    5.9773 O   0  0  0  0  0  0  0  0  0  0  0  0
   10.7316   -0.5345    4.5781 N   0  0  0  0  0  0  0  0  0  0  0  0
   11.7463   -0.8847    5.6016 C   0  0  0  0  0  0  0  0  0  0  0  0
   13.0031   -1.4322    4.9300 C   0  0  0  0  0  0  0  0  0  0  0  0
   12.9281   -2.9171    4.5974 C   0  0  0  0  0  0  0  0  0  0  0  0
   11.8237   -3.2767    3.6122 C   0  0  0  0  0  0  0  0  0  0  0  0
   10.4318   -3.0541    4.1903 C   0  0  0  0  0  0  0  0  0  0  0  0
    9.9034   -1.6387    4.0148 C   0  0  0  0  0  0  0  0  0  0  0  0
    2.6141    4.6291    1.8409 H   0  0  0  0  0  0  0  0  0  0  0  0
    4.0382    4.0584    2.7163 H   0  0  0  0  0  0  0  0  0  0  0  0
    2.4733    4.1901    3.5437 H   0  0  0  0  0  0  0  0  0  0  0  0
    3.0407    2.3272    1.1799 H   0  0  0  0  0  0  0  0  0  0  0  0
    1.5267    2.4293    2.0532 H   0  0  0  0  0  0  0  0  0  0  0  0
    1.2675    1.4985    4.3876 H   0  0  0  0  0  0  0  0  0  0  0  0
    2.6064    2.4756    5.0154 H   0  0  0  0  0  0  0  0  0  0  0  0
    2.6409    0.7283    5.1961 H   0  0  0  0  0  0  0  0  0  0  0  0
    1.6583   -0.0969    2.4484 H   0  0  0  0  0  0  0  0  0  0  0  0
    3.0789   -0.7875    3.2471 H   0  0  0  0  0  0  0  0  0  0  0  0
    3.2124   -0.1544    1.6054 H   0  0  0  0  0  0  0  0  0  0  0  0
    4.9841    1.4689    1.3895 H   0  0  0  0  0  0  0  0  0  0  0  0
    6.9740    1.8670    0.2143 H   0  0  0  0  0  0  0  0  0  0  0  0
    8.8959    2.2511   -1.0140 H   0  0  0  0  0  0  0  0  0  0  0  0
   10.2772    1.2748   -0.5068 H   0  0  0  0  0  0  0  0  0  0  0  0
   10.2023    3.0198   -0.1132 H   0  0  0  0  0  0  0  0  0  0  0  0
   11.6148    1.9190    1.3139 H   0  0  0  0  0  0  0  0  0  0  0  0
   11.6350    0.6678    2.5292 H   0  0  0  0  0  0  0  0  0  0  0  0
   11.5432    2.3955    2.9914 H   0  0  0  0  0  0  0  0  0  0  0  0
    7.0876    0.9244    4.4048 H   0  0  0  0  0  0  0  0  0  0  0  0
   11.3386   -1.5643    6.3559 H   0  0  0  0  0  0  0  0  0  0  0  0
   12.0558    0.0215    6.1334 H   0  0  0  0  0  0  0  0  0  0  0  0
   13.8484   -1.2915    5.6151 H   0  0  0  0  0  0  0  0  0  0  0  0
   13.2364   -0.8596    4.0236 H   0  0  0  0  0  0  0  0  0  0  0  0
   12.7968   -3.4922    5.5228 H   0  0  0  0  0  0  0  0  0  0  0  0
   13.8902   -3.2295    4.1743 H   0  0  0  0  0  0  0  0  0  0  0  0
   11.9275   -4.3412    3.3685 H   0  0  0  0  0  0  0  0  0  0  0  0
   11.9504   -2.7264    2.6723 H   0  0  0  0  0  0  0  0  0  0  0  0
   10.3929   -3.3542    5.2436 H   0  0  0  0  0  0  0  0  0  0  0  0
    9.7375   -3.7221    3.6637 H   0  0  0  0  0  0  0  0  0  0  0  0
    9.8067   -1.4463    2.9384 H   0  0  0  0  0  0  0  0  0  0  0  0
    8.8916   -1.6131    4.4341 H   0  0  0  0  0  0  0  0  0  0  0  0
  1  2  1  0  0  0  0
  1 27  1  0  0  0  0
  1 28  1  0  0  0  0
  1 29  1  0  0  0  0
  2  3  1  0  0  0  0
  2 30  1  0  0  0  0
  2 31  1  0  0  0  0
  3  4  1  0  0  0  0
  3  5  1  0  0  0  0
  3  6  1  0  0  0  0
  4 32  1  0  0  0  0
  4 33  1  0  0  0  0
  4 34  1  0  0  0  0
  5 35  1  0  0  0  0
  5 36  1  0  0  0  0
  5 37  1  0  0  0  0
  6  7  2  0  0  0  0
  6  8  1  0  0  0  0
  8  9  1  0  0  0  0
  8 38  1  0  0  0  0
  9 16  2  0  0  0  0
  9 10  1  0  0  0  0
 10 11  2  0  0  0  0
 10 39  1  0  0  0  0
 11 12  1  0  0  0  0
 11 13  1  0  0  0  0
 12 40  1  0  0  0  0
 12 41  1  0  0  0  0
 12 42  1  0  0  0  0
 13 14  1  0  0  0  0
 13 15  2  0  0  0  0
 14 43  1  0  0  0  0
 14 44  1  0  0  0  0
 14 45  1  0  0  0  0
 15 16  1  0  0  0  0
 15 17  1  0  0  0  0
 16 46  1  0  0  0  0
 17 18  2  0  0  0  0
 17 19  2  0  0  0  0
 17 20  1  0  0  0  0
 20 26  1  0  0  0  0
 20 21  1  0  0  0  0
 21 22  1  0  0  0  0
 21 47  1  0  0  0  0
 21 48  1  0  0  0  0
 22 23  1  0  0  0  0
 22 49  1  0  0  0  0
 22 50  1  0  0  0  0
 23 24  1  0  0  0  0
 23 51  1  0  0  0  0
 23 52  1  0  0  0  0
 24 25  1  0  0  0  0
 24 53  1  0  0  0  0
 24 54  1  0  0  0  0
 25 26  1  0  0  0  0
 25 55  1  0  0  0  0
 25 56  1  0  0  0  0
 26 57  1  0  0  0  0
 26 58  1  0  0  0  0
M  END
$$$$
CHEMBL1631297
 OpenBabel12022418093D

 52 54  0  0  0  0  0  0  0  0999 V2000
   -0.2450   -2.2035    0.6309 C   0  0  0  0  0  0  0  0  0  0  0  0
    0.9835   -1.5300    0.6258 C   0  0  0  0  0  0  0  0  0  0  0  0
    1.0937   -0.2841    0.0204 C   0  0  0  0  0  0  0  0  0  0  0  0
   -0.0166    0.3013   -0.5746 C   0  0  0  0  0  0  0  0  0  0  0  0
   -1.2605   -0.3493   -0.5489 C   0  0  0  0  0  0  0  0  0  0  0  0
   -1.3913   -1.6155    0.0689 C   0  0  0  0  0  0  0  0  0  0  0  0
   -2.6568   -2.2977    0.1353 N   0  0  0  0  0  0  0  0  0  0  0  0
   -3.1518   -3.2523    1.0368 C   0  0  0  0  0  0  0  0  0  0  0  0
   -4.4054   -3.6214    0.5602 C   0  0  0  0  0  0  0  0  0  0  0  0
   -4.5635   -2.9275   -0.6699 C   0  0  0  0  0  0  0  0  0  0  0  0
   -5.7238   -3.0324   -1.5778 C   0  0  0  0  0  0  0  0  0  0  0  0
   -6.6515   -3.8069   -1.3356 O   0  0  0  0  0  0  0  0  0  0  0  0
   -5.7052   -2.2307   -2.7017 N   0  0  0  0  0  0  0  0  0  0  0  0
   -6.7812   -2.2397   -3.7094 C   0  0  0  0  0  0  0  0  0  0  0  0
   -8.1241   -1.8051   -3.0904 C   0  0  0  0  0  0  0  0  0  0  0  0
   -6.4367   -1.2499   -4.8342 C   0  0  0  0  0  0  0  0  0  0  0  0
   -6.9291   -3.6384   -4.3402 C   0  0  0  0  0  0  0  0  0  0  0  0
   -3.5099   -2.1381   -0.9230 N   0  0  0  0  0  0  0  0  0  0  0  0
   -5.4593   -4.4895    1.1644 C   0  0  0  0  0  0  0  0  0  0  0  0
   -2.5721   -3.6922    2.2433 N   0  0  0  0  0  0  0  0  0  0  0  0
   -1.9780   -2.9216    3.2531 C   0  0  0  0  0  0  0  0  0  0  0  0
   -1.5932   -3.7573    4.2861 C   0  0  0  0  0  0  0  0  0  0  0  0
   -1.9770   -5.0587    3.9559 C   0  0  0  0  0  0  0  0  0  0  0  0
   -2.5450   -5.0223    2.6985 C   0  0  0  0  0  0  0  0  0  0  0  0
   -2.9999   -6.2290    1.9409 C   0  0  0  0  0  0  0  0  0  0  0  0
   -1.8509   -1.4362    3.2851 C   0  0  0  0  0  0  0  0  0  0  0  0
   -2.5706    0.5905   -1.1926 Cl  0  0  0  0  0  0  0  0  0  0  0  0
    2.6018    0.5422    0.0180 Cl  0  0  0  0  0  0  0  0  0  0  0  0
   -0.2683   -3.1911    1.0835 H   0  0  0  0  0  0  0  0  0  0  0  0
    1.8502   -1.9850    1.1017 H   0  0  0  0  0  0  0  0  0  0  0  0
    0.0774    1.2818   -1.0380 H   0  0  0  0  0  0  0  0  0  0  0  0
   -4.8968   -1.6246   -2.8003 H   0  0  0  0  0  0  0  0  0  0  0  0
   -8.0516   -0.8008   -2.6572 H   0  0  0  0  0  0  0  0  0  0  0  0
   -8.4551   -2.4776   -2.2926 H   0  0  0  0  0  0  0  0  0  0  0  0
   -8.9203   -1.7898   -3.8434 H   0  0  0  0  0  0  0  0  0  0  0  0
   -6.3402   -0.2287   -4.4506 H   0  0  0  0  0  0  0  0  0  0  0  0
   -7.2171   -1.2446   -5.6052 H   0  0  0  0  0  0  0  0  0  0  0  0
   -5.4906   -1.5134   -5.3190 H   0  0  0  0  0  0  0  0  0  0  0  0
   -7.2152   -4.3997   -3.6076 H   0  0  0  0  0  0  0  0  0  0  0  0
   -5.9863   -3.9646   -4.7942 H   0  0  0  0  0  0  0  0  0  0  0  0
   -7.6996   -3.6428   -5.1191 H   0  0  0  0  0  0  0  0  0  0  0  0
   -5.2403   -4.7756    2.1933 H   0  0  0  0  0  0  0  0  0  0  0  0
   -5.5866   -5.3977    0.5646 H   0  0  0  0  0  0  0  0  0  0  0  0
   -6.4176   -3.9611    1.1951 H   0  0  0  0  0  0  0  0  0  0  0  0
   -1.1162   -3.4409    5.2061 H   0  0  0  0  0  0  0  0  0  0  0  0
   -1.8430   -5.9491    4.5588 H   0  0  0  0  0  0  0  0  0  0  0  0
   -3.2149   -6.0389    0.8893 H   0  0  0  0  0  0  0  0  0  0  0  0
   -3.8923   -6.6530    2.4176 H   0  0  0  0  0  0  0  0  0  0  0  0
   -2.2245   -7.0019    1.9701 H   0  0  0  0  0  0  0  0  0  0  0  0
   -2.3683   -0.9261    2.4742 H   0  0  0  0  0  0  0  0  0  0  0  0
   -0.7910   -1.1564    3.2678 H   0  0  0  0  0  0  0  0  0  0  0  0
   -2.2685   -1.0496    4.2209 H   0  0  0  0  0  0  0  0  0  0  0  0
  1  6  2  0  0  0  0
  1  2  1  0  0  0  0
  1 29  1  0  0  0  0
  2  3  2  0  0  0  0
  2 30  1  0  0  0  0
  3  4  1  0  0  0  0
  3 28  1  0  0  0  0
  4  5  2  0  0  0  0
  4 31  1  0  0  0  0
  5  6  1  0  0  0  0
  5 27  1  0  0  0  0
  6  7  1  0  0  0  0
  7 18  1  0  0  0  0
  7  8  1  0  0  0  0
  8  9  2  0  0  0  0
  8 20  1  0  0  0  0
  9 10  1  0  0  0  0
  9 19  1  0  0  0  0
 10 11  1  0  0  0  0
 10 18  2  0  0  0  0
 11 12  2  0  0  0  0
 11 13  1  0  0  0  0
 13 14  1  0  0  0  0
 13 32  1  0  0  0  0
 14 15  1  0  0  0  0
 14 16  1  0  0  0  0
 14 17  1  0  0  0  0
 15 33  1  0  0  0  0
 15 34  1  0  0  0  0
 15 35  1  0  0  0  0
 16 36  1  0  0  0  0
 16 37  1  0  0  0  0
 16 38  1  0  0  0  0
 17 39  1  0  0  0  0
 17 40  1  0  0  0  0
 17 41  1  0  0  0  0
 19 42  1  0  0  0  0
 19 43  1  0  0  0  0
 19 44  1  0  0  0  0
 20 24  1  0  0  0  0
 20 21  1  0  0  0  0
 21 22  2  0  0  0  0
 21 26  1  0  0  0  0
 22 23  1  0  0  0  0
 22 45  1  0  0  0  0
 23 24  2  0  0  0  0
 23 46  1  0  0  0  0
 24 25  1  0  0  0  0
 25 47  1  0  0  0  0
 25 48  1  0  0  0  0
 25 49  1  0  0  0  0
 26 50  1  0  0  0  0
 26 51  1  0  0  0  0
 26 52  1  0  0  0  0
M  END
$$$$
CHEMBL552150
 OpenBabel12022418093D

 58 61  0  0  0  0  0  0  0  0999 V2000
    1.2022   -1.4035    0.0355 C   0  0  0  0  0  0  0  0  0  0  0  0
    2.3941   -0.6755    0.1025 C   0  0  0  0  0  0  0  0  0  0  0  0
    2.3680    0.7099    0.2003 C   0  0  0  0  0  0  0  0  0  0  0  0
    1.1620    1.4220    0.1144 C   0  0  0  0  0  0  0  0  0  0  0  0
   -0.0751    0.7130    0.0196 C   0  0  0  0  0  0  0  0  0  0  0  0
   -0.0458   -0.7172    0.0016 C   0  0  0  0  0  0  0  0  0  0  0  0
   -1.2732   -1.4138   -0.0337 C   0  0  0  0  0  0  0  0  0  0  0  0
   -2.5043   -0.7603   -0.0534 C   0  0  0  0  0  0  0  0  0  0  0  0
   -2.5427    0.6190   -0.0745 C   0  0  0  0  0  0  0  0  0  0  0  0
   -1.3511    1.3380   -0.0554 C   0  0  0  0  0  0  0  0  0  0  0  0
    1.2210    2.9244    0.1896 C   0  0  0  0  0  0  0  0  0  0  0  0
    0.2928    3.5341    0.7105 O   0  0  0  0  0  0  0  0  0  0  0  0
    2.4173    3.6572   -0.2616 C   0  0  0  0  0  0  0  0  0  0  0  0
    3.2849    3.3687   -1.3192 C   0  0  0  0  0  0  0  0  0  0  0  0
    3.2673    2.2706   -2.3258 C   0  0  0  0  0  0  0  0  0  0  0  0
    4.2804    4.3389   -1.3061 N   0  0  0  0  0  0  0  0  0  0  0  0
    4.0567    5.2631   -0.3009 C   0  0  0  0  0  0  0  0  0  0  0  0
    2.8825    4.8704    0.3465 C   0  0  0  0  0  0  0  0  0  0  0  0
    2.4063    5.6536    1.4235 C   0  0  0  0  0  0  0  0  0  0  0  0
    3.0910    6.8019    1.8221 C   0  0  0  0  0  0  0  0  0  0  0  0
    4.2557    7.1735    1.1719 C   0  0  0  0  0  0  0  0  0  0  0  0
    4.7651    6.4110    0.1085 C   0  0  0  0  0  0  0  0  0  0  0  0
    5.4388    4.3316   -2.2012 C   0  0  0  0  0  0  0  0  0  0  0  0
    5.2125    5.0205   -3.5462 C   0  0  0  0  0  0  0  0  0  0  0  0
    4.9660    6.5153   -3.4387 C   0  0  0  0  0  0  0  0  0  0  0  0
    1.3178   -2.9198    0.0405 C   0  0  0  0  0  0  0  0  0  0  0  0
    1.3453   -3.5308   -1.3630 C   0  0  0  0  0  0  0  0  0  0  0  0
    1.4204   -5.0591   -1.3086 C   0  0  0  0  0  0  0  0  0  0  0  0
    1.4559   -5.6554   -2.7076 C   0  0  0  0  0  0  0  0  0  0  0  0
    3.3567   -1.1824    0.1047 H   0  0  0  0  0  0  0  0  0  0  0  0
    3.3179    1.2264    0.3184 H   0  0  0  0  0  0  0  0  0  0  0  0
   -1.3004   -2.4997   -0.0370 H   0  0  0  0  0  0  0  0  0  0  0  0
   -3.4253   -1.3360   -0.0540 H   0  0  0  0  0  0  0  0  0  0  0  0
   -3.4938    1.1437   -0.0973 H   0  0  0  0  0  0  0  0  0  0  0  0
   -1.4470    2.4228   -0.0760 H   0  0  0  0  0  0  0  0  0  0  0  0
    2.3582    1.6664   -2.2669 H   0  0  0  0  0  0  0  0  0  0  0  0
    4.1221    1.5968   -2.1696 H   0  0  0  0  0  0  0  0  0  0  0  0
    3.3059    2.6572   -3.3444 H   0  0  0  0  0  0  0  0  0  0  0  0
    1.4938    5.3656    1.9428 H   0  0  0  0  0  0  0  0  0  0  0  0
    2.7016    7.3953    2.6454 H   0  0  0  0  0  0  0  0  0  0  0  0
    4.7804    8.0707    1.4927 H   0  0  0  0  0  0  0  0  0  0  0  0
    5.6771    6.7233   -0.3844 H   0  0  0  0  0  0  0  0  0  0  0  0
    5.7035    3.2859   -2.3756 H   0  0  0  0  0  0  0  0  0  0  0  0
    6.2907    4.7691   -1.6631 H   0  0  0  0  0  0  0  0  0  0  0  0
    4.3722    4.5610   -4.0765 H   0  0  0  0  0  0  0  0  0  0  0  0
    6.1016    4.8600   -4.1688 H   0  0  0  0  0  0  0  0  0  0  0  0
    4.0483    6.7301   -2.8834 H   0  0  0  0  0  0  0  0  0  0  0  0
    4.8553    6.9503   -4.4373 H   0  0  0  0  0  0  0  0  0  0  0  0
    5.8033    7.0160   -2.9430 H   0  0  0  0  0  0  0  0  0  0  0  0
    0.5094   -3.3552    0.6370 H   0  0  0  0  0  0  0  0  0  0  0  0
    2.2329   -3.2043    0.5780 H   0  0  0  0  0  0  0  0  0  0  0  0
    2.2091   -3.1446   -1.9186 H   0  0  0  0  0  0  0  0  0  0  0  0
    0.4508   -3.2329   -1.9235 H   0  0  0  0  0  0  0  0  0  0  0  0
    0.5538   -5.4597   -0.7687 H   0  0  0  0  0  0  0  0  0  0  0  0
    2.3163   -5.3741   -0.7598 H   0  0  0  0  0  0  0  0  0  0  0  0
    0.5564   -5.3841   -3.2696 H   0  0  0  0  0  0  0  0  0  0  0  0
    1.5103   -6.7474   -2.6600 H   0  0  0  0  0  0  0  0  0  0  0  0
    2.3284   -5.2955   -3.2623 H   0  0  0  0  0  0  0  0  0  0  0  0
  1  6  2  0  0  0  0
  1  2  1  0  0  0  0
  1 26  1  0  0  0  0
  2  3  2  0  0  0  0
  2 30  1  0  0  0  0
  3  4  1  0  0  0  0
  3 31  1  0  0  0  0
  4  5  2  0  0  0  0
  4 11  1  0  0  0  0
  5 10  1  0  0  0  0
  5  6  1  0  0  0  0
  6  7  1  0  0  0  0
  7  8  2  0  0  0  0
  7 32  1  0  0  0  0
  8  9  1  0  0  0  0
  8 33  1  0  0  0  0
  9 10  2  0  0  0  0
  9 34  1  0  0  0  0
 10 35  1  0  0  0  0
 11 12  2  0  0  0  0
 11 13  1  0  0  0  0
 13 18  1  0  0  0  0
 13 14  2  0  0  0  0
 14 15  1  0  0  0  0
 14 16  1  0  0  0  0
 15 36  1  0  0  0  0
 15 37  1  0  0  0  0
 15 38  1  0  0  0  0
 16 17  1  0  0  0  0
 16 23  1  0  0  0  0
 17 22  2  0  0  0  0
 17 18  1  0  0  0  0
 18 19  2  0  0  0  0
 19 20  1  0  0  0  0
 19 39  1  0  0  0  0
 20 21  2  0  0  0  0
 20 40  1  0  0  0  0
 21 22  1  0  0  0  0
 21 41  1  0  0  0  0
 22 42  1  0  0  0  0
 23 24  1  0  0  0  0
 23 43  1  0  0  0  0
 23 44  1  0  0  0  0
 24 25  1  0  0  0  0
 24 45  1  0  0  0  0
 24 46  1  0  0  0  0
 25 47  1  0  0  0  0
 25 48  1  0  0  0  0
 25 49  1  0  0  0  0
 26 27  1  0  0  0  0
 26 50  1  0  0  0  0
 26 51  1  0  0  0  0
 27 28  1  0  0  0  0
 27 52  1  0  0  0  0
 27 53  1  0  0  0  0
 28 29  1  0  0  0  0
 28 54  1  0  0  0  0
 28 55  1  0  0  0  0
 29 56  1  0  0  0  0
 29 57  1  0  0  0  0
 29 58  1  0  0  0  0
M  END
$$$$
CHEMBL3923684
 OpenBabel12022418093D

 51 53  0  0  0  0  0  0  0  0999 V2000
    4.9543   -1.5820    2.6614 C   0  0  0  0  0  0  0  0  0  0  0  0
    3.9779   -0.9141    3.6169 C   0  0  0  0  0  0  0  0  0  0  0  0
    2.5091   -1.0077    3.4681 N   0  0  0  0  0  0  0  0  0  0  0  0
    1.9485   -1.5129    2.2496 C   0  0  0  0  0  0  0  0  0  0  0  0
    2.6490   -2.0358    1.3775 O   0  0  0  0  0  0  0  0  0  0  0  0
    0.4682   -1.4286    1.9040 C   0  0  0  0  0  0  0  0  0  0  0  0
   -0.0092   -1.8398    0.6715 C   0  0  0  0  0  0  0  0  0  0  0  0
   -1.3713   -1.6463    0.3721 C   0  0  0  0  0  0  0  0  0  0  0  0
   -2.2474   -1.0826    1.3171 C   0  0  0  0  0  0  0  0  0  0  0  0
   -1.6684   -0.7620    2.5274 C   0  0  0  0  0  0  0  0  0  0  0  0
   -0.3673   -0.9078    2.8175 N   0  0  0  0  0  0  0  0  0  0  0  0
   -3.7159   -0.8096    1.1034 C   0  0  0  0  0  0  0  0  0  0  0  0
   -4.2875    0.5321    1.5373 C   0  0  0  0  0  0  0  0  0  0  0  0
   -4.1684    0.2041    0.0822 C   0  0  0  0  0  0  0  0  0  0  0  0
   -1.9476   -2.0054   -0.8220 O   0  0  0  0  0  0  0  0  0  0  0  0
   -1.0689   -2.0485   -1.9447 C   0  0  0  0  0  0  0  0  0  0  0  0
   -1.8699   -2.4115   -3.1553 C   0  0  0  0  0  0  0  0  0  0  0  0
   -1.3517   -3.4544   -4.1144 C   0  0  0  0  0  0  0  0  0  0  0  0
   -2.5356   -3.7618   -3.2417 C   0  0  0  0  0  0  0  0  0  0  0  0
    1.7049   -0.3894    4.6022 C   0  0  0  0  0  0  0  0  0  0  0  0
    2.5663    0.0415    5.8364 C   0  0  0  0  0  0  0  0  0  0  0  0
    1.0714    0.9619    4.1615 C   0  0  0  0  0  0  0  0  0  0  0  0
    0.7564   -1.4452    5.2378 C   0  0  0  0  0  0  0  0  0  0  0  0
    5.9764   -1.3329    2.9748 H   0  0  0  0  0  0  0  0  0  0  0  0
    4.8498   -1.2283    1.6332 H   0  0  0  0  0  0  0  0  0  0  0  0
    4.8629   -2.6717    2.6915 H   0  0  0  0  0  0  0  0  0  0  0  0
    4.2163    0.1554    3.6364 H   0  0  0  0  0  0  0  0  0  0  0  0
    4.2181   -1.3396    4.5963 H   0  0  0  0  0  0  0  0  0  0  0  0
    0.6804   -2.2979   -0.0262 H   0  0  0  0  0  0  0  0  0  0  0  0
   -2.2553   -0.3309    3.3343 H   0  0  0  0  0  0  0  0  0  0  0  0
   -4.3685   -1.6650    1.2610 H   0  0  0  0  0  0  0  0  0  0  0  0
   -3.6286    1.3028    1.9248 H   0  0  0  0  0  0  0  0  0  0  0  0
   -5.2749    0.5420    1.9856 H   0  0  0  0  0  0  0  0  0  0  0  0
   -5.0783   -0.0097   -0.4657 H   0  0  0  0  0  0  0  0  0  0  0  0
   -3.4152    0.7275   -0.4955 H   0  0  0  0  0  0  0  0  0  0  0  0
   -0.2898   -2.8030   -1.7967 H   0  0  0  0  0  0  0  0  0  0  0  0
   -0.6070   -1.0651   -2.0946 H   0  0  0  0  0  0  0  0  0  0  0  0
   -2.4150   -1.5631   -3.5516 H   0  0  0  0  0  0  0  0  0  0  0  0
   -0.4162   -3.9551   -3.8856 H   0  0  0  0  0  0  0  0  0  0  0  0
   -1.5209   -3.3004   -5.1726 H   0  0  0  0  0  0  0  0  0  0  0  0
   -3.5142   -3.8111   -3.7038 H   0  0  0  0  0  0  0  0  0  0  0  0
   -2.4032   -4.4473   -2.4115 H   0  0  0  0  0  0  0  0  0  0  0  0
    3.3046    0.8079    5.5809 H   0  0  0  0  0  0  0  0  0  0  0  0
    3.0929   -0.8056    6.2866 H   0  0  0  0  0  0  0  0  0  0  0  0
    1.9218    0.4664    6.6171 H   0  0  0  0  0  0  0  0  0  0  0  0
    1.8275    1.7577    4.1564 H   0  0  0  0  0  0  0  0  0  0  0  0
    0.2740    1.2685    4.8471 H   0  0  0  0  0  0  0  0  0  0  0  0
    0.6809    0.9992    3.1441 H   0  0  0  0  0  0  0  0  0  0  0  0
    1.3432   -2.1930    5.7911 H   0  0  0  0  0  0  0  0  0  0  0  0
    0.1734   -2.0603    4.5617 H   0  0  0  0  0  0  0  0  0  0  0  0
    0.0655   -0.9775    5.9458 H   0  0  0  0  0  0  0  0  0  0  0  0
  1  2  1  0  0  0  0
  1 24  1  0  0  0  0
  1 25  1  0  0  0  0
  1 26  1  0  0  0  0
  2  3  1  0  0  0  0
  2 27  1  0  0  0  0
  2 28  1  0  0  0  0
  3  4  1  0  0  0  0
  3 20  1  0  0  0  0
  4  5  2  0  0  0  0
  4  6  1  0  0  0  0
  6 11  2  0  0  0  0
  6  7  1  0  0  0  0
  7  8  2  0  0  0  0
  7 29  1  0  0  0  0
  8  9  1  0  0  0  0
  8 15  1  0  0  0  0
  9 10  2  0  0  0  0
  9 12  1  0  0  0  0
 10 11  1  0  0  0  0
 10 30  1  0  0  0  0
 12 14  1  0  0  0  0
 12 13  1  0  0  0  0
 12 31  1  0  0  0  0
 13 14  1  0  0  0  0
 13 32  1  0  0  0  0
 13 33  1  0  0  0  0
 14 34  1  0  0  0  0
 14 35  1  0  0  0  0
 15 16  1  0  0  0  0
 16 17  1  0  0  0  0
 16 36  1  0  0  0  0
 16 37  1  0  0  0  0
 17 19  1  0  0  0  0
 17 18  1  0  0  0  0
 17 38  1  0  0  0  0
 18 19  1  0  0  0  0
 18 39  1  0  0  0  0
 18 40  1  0  0  0  0
 19 41  1  0  0  0  0
 19 42  1  0  0  0  0
 20 21  1  0  0  0  0
 20 22  1  0  0  0  0
 20 23  1  0  0  0  0
 21 43  1  0  0  0  0
 21 44  1  0  0  0  0
 21 45  1  0  0  0  0
 22 46  1  0  0  0  0
 22 47  1  0  0  0  0
 22 48  1  0  0  0  0
 23 49  1  0  0  0  0
 23 50  1  0  0  0  0
 23 51  1  0  0  0  0
M  END
$$$$
CHEMBL552088
 OpenBabel12022418103D

 53 56  0  0  0  0  0  0  0  0999 V2000
    4.2784   -0.7498    4.6014 C   0  0  0  0  0  0  0  0  0  0  0  0
    4.1881   -1.8795    3.5898 C   0  0  0  0  0  0  0  0  0  0  0  0
    4.7754   -1.4590    2.2433 C   0  0  0  0  0  0  0  0  0  0  0  0
    4.6985   -2.5907    1.2268 C   0  0  0  0  0  0  0  0  0  0  0  0
    5.2617   -2.1780   -0.1466 C   0  0  0  0  0  0  0  0  0  0  0  0
    6.7082   -1.9296   -0.1908 N   0  0  0  0  0  0  0  0  0  0  0  0
    7.3664   -0.7165   -0.3805 C   0  0  0  0  0  0  0  0  0  0  0  0
    8.7439   -0.9054   -0.5921 C   0  0  0  0  0  0  0  0  0  0  0  0
    9.7637    0.2313   -1.2237 C   0  0  0  0  0  0  0  0  0  0  0  0
    9.8017    1.4052   -0.8125 O   0  0  0  0  0  0  0  0  0  0  0  0
   10.5825   -0.1839   -2.5490 C   0  0  0  0  0  0  0  0  0  0  0  0
   10.1101   -1.4377   -2.8086 C   0  0  0  0  0  0  0  0  0  0  0  0
   10.7276   -2.1688   -3.7704 C   0  0  0  0  0  0  0  0  0  0  0  0
   10.4476   -1.4758   -4.8860 C   0  0  0  0  0  0  0  0  0  0  0  0
   10.9451   -0.1767   -4.9178 C   0  0  0  0  0  0  0  0  0  0  0  0
   11.0107    0.2678   -6.2413 C   0  0  0  0  0  0  0  0  0  0  0  0
   11.9554    1.1840   -6.6082 C   0  0  0  0  0  0  0  0  0  0  0  0
   12.7793    1.7645   -5.6618 C   0  0  0  0  0  0  0  0  0  0  0  0
   12.4514    1.5445   -4.2662 C   0  0  0  0  0  0  0  0  0  0  0  0
   11.3769    0.4978   -3.7606 C   0  0  0  0  0  0  0  0  0  0  0  0
   13.6194    2.5880   -6.3476 O   0  0  0  0  0  0  0  0  0  0  0  0
   15.0168    2.8031   -6.2696 C   0  0  0  0  0  0  0  0  0  0  0  0
    8.8962   -2.3843   -0.3374 C   0  0  0  0  0  0  0  0  0  0  0  0
    9.9686   -3.3190   -0.3339 C   0  0  0  0  0  0  0  0  0  0  0  0
    9.7381   -4.7176   -0.2233 C   0  0  0  0  0  0  0  0  0  0  0  0
    8.4521   -5.2329   -0.1104 C   0  0  0  0  0  0  0  0  0  0  0  0
    7.3820   -4.3558   -0.0791 C   0  0  0  0  0  0  0  0  0  0  0  0
    7.6234   -2.9613   -0.1764 C   0  0  0  0  0  0  0  0  0  0  0  0
    3.8580   -1.0656    5.5608 H   0  0  0  0  0  0  0  0  0  0  0  0
    3.7227    0.1281    4.2570 H   0  0  0  0  0  0  0  0  0  0  0  0
    5.3199   -0.4552    4.7655 H   0  0  0  0  0  0  0  0  0  0  0  0
    3.1390   -2.1734    3.4677 H   0  0  0  0  0  0  0  0  0  0  0  0
    4.7261   -2.7532    3.9764 H   0  0  0  0  0  0  0  0  0  0  0  0
    5.8206   -1.1614    2.3804 H   0  0  0  0  0  0  0  0  0  0  0  0
    4.2317   -0.5895    1.8565 H   0  0  0  0  0  0  0  0  0  0  0  0
    3.6484   -2.8956    1.1060 H   0  0  0  0  0  0  0  0  0  0  0  0
    5.2207   -3.4708    1.6226 H   0  0  0  0  0  0  0  0  0  0  0  0
    4.7373   -1.3071   -0.5481 H   0  0  0  0  0  0  0  0  0  0  0  0
    5.0610   -3.0051   -0.8466 H   0  0  0  0  0  0  0  0  0  0  0  0
    6.7733    0.1852   -0.4365 H   0  0  0  0  0  0  0  0  0  0  0  0
    9.0199   -1.5879   -2.7692 H   0  0  0  0  0  0  0  0  0  0  0  0
   11.8232   -2.2418   -3.5731 H   0  0  0  0  0  0  0  0  0  0  0  0
    9.9619   -1.9491   -5.7243 H   0  0  0  0  0  0  0  0  0  0  0  0
   10.4486   -0.2183   -7.0336 H   0  0  0  0  0  0  0  0  0  0  0  0
   12.0967    1.3730   -7.6705 H   0  0  0  0  0  0  0  0  0  0  0  0
   13.0323    2.0956   -3.5228 H   0  0  0  0  0  0  0  0  0  0  0  0
   15.5132    2.4818   -7.2040 H   0  0  0  0  0  0  0  0  0  0  0  0
   15.5351    2.3506   -5.4262 H   0  0  0  0  0  0  0  0  0  0  0  0
   15.1363    3.8927   -6.2636 H   0  0  0  0  0  0  0  0  0  0  0  0
   10.9896   -2.9784   -0.4483 H   0  0  0  0  0  0  0  0  0  0  0  0
   10.5699   -5.4150   -0.2456 H   0  0  0  0  0  0  0  0  0  0  0  0
    8.2745   -6.3066   -0.0473 H   0  0  0  0  0  0  0  0  0  0  0  0
    6.3726   -4.7601    0.0038 H   0  0  0  0  0  0  0  0  0  0  0  0
  1  2  1  0  0  0  0
  1 29  1  0  0  0  0
  1 30  1  0  0  0  0
  1 31  1  0  0  0  0
  2  3  1  0  0  0  0
  2 32  1  0  0  0  0
  2 33  1  0  0  0  0
  3  4  1  0  0  0  0
  3 34  1  0  0  0  0
  3 35  1  0  0  0  0
  4  5  1  0  0  0  0
  4 36  1  0  0  0  0
  4 37  1  0  0  0  0
  5  6  1  0  0  0  0
  5 38  1  0  0  0  0
  5 39  1  0  0  0  0
  6 28  1  0  0  0  0
  6  7  1  0  0  0  0
  7  8  2  0  0  0  0
  7 40  1  0  0  0  0
  8  9  1  0  0  0  0
  8 23  1  0  0  0  0
  9 10  2  0  0  0  0
  9 11  1  0  0  0  0
 11 20  2  0  0  0  0
 11 12  1  0  0  0  0
 12 13  2  0  0  0  0
 12 41  1  0  0  0  0
 13 14  1  0  0  0  0
 13 42  1  0  0  0  0
 14 15  2  0  0  0  0
 14 43  1  0  0  0  0
 15 20  1  0  0  0  0
 15 16  1  0  0  0  0
 16 17  2  0  0  0  0
 16 44  1  0  0  0  0
 17 18  1  0  0  0  0
 17 45  1  0  0  0  0
 18 19  2  0  0  0  0
 18 21  1  0  0  0  0
 19 20  1  0  0  0  0
 19 46  1  0  0  0  0
 21 22  1  0  0  0  0
 22 47  1  0  0  0  0
 22 48  1  0  0  0  0
 22 49  1  0  0  0  0
 23 28  2  0  0  0  0
 23 24  1  0  0  0  0
 24 25  2  0  0  0  0
 24 50  1  0  0  0  0
 25 26  1  0  0  0  0
 25 51  1  0  0  0  0
 26 27  2  0  0  0  0
 26 52  1  0  0  0  0
 27 28  1  0  0  0  0
 27 53  1  0  0  0  0
M  END
$$$$
CHEMBL2206856
 OpenBabel12022418103D

 52 55  0  0  0  0  0  0  0  0999 V2000
    0.8648    5.2777   -1.0789 C   0  0  0  0  0  0  0  0  0  0  0  0
    2.3825    5.3020   -1.0918 C   0  0  0  0  0  0  0  0  0  0  0  0
    2.9510    3.8853   -1.2048 C   0  0  0  0  0  0  0  0  0  0  0  0
    4.4848    3.9236   -1.2240 C   0  0  0  0  0  0  0  0  0  0  0  0
    5.1119    2.5295   -1.2972 C   0  0  0  0  0  0  0  0  0  0  0  0
    6.6064    2.4942   -1.3890 N   0  0  0  0  0  0  0  0  0  0  0  0
    7.3893    1.9804   -2.4599 C   0  0  0  0  0  0  0  0  0  0  0  0
    6.7504    1.3724   -3.6387 C   0  0  0  0  0  0  0  0  0  0  0  0
    8.8170    2.1421   -2.2370 C   0  0  0  0  0  0  0  0  0  0  0  0
    9.9579    1.6410   -3.4842 C   0  0  0  0  0  0  0  0  0  0  0  0
    9.4768    1.0045   -4.3906 O   0  0  0  0  0  0  0  0  0  0  0  0
   11.7006    1.6886   -3.6326 C   0  0  0  0  0  0  0  0  0  0  0  0
   12.3199    1.9629   -2.4133 C   0  0  0  0  0  0  0  0  0  0  0  0
   13.6792    2.2871   -2.1386 C   0  0  0  0  0  0  0  0  0  0  0  0
   14.6510    1.8147   -3.0297 C   0  0  0  0  0  0  0  0  0  0  0  0
   14.3192    1.2530   -4.2773 C   0  0  0  0  0  0  0  0  0  0  0  0
   15.5290    0.8715   -5.0300 C   0  0  0  0  0  0  0  0  0  0  0  0
   15.4875    0.4224   -6.3349 C   0  0  0  0  0  0  0  0  0  0  0  0
   14.2441    0.1779   -6.8399 C   0  0  0  0  0  0  0  0  0  0  0  0
   12.9980    0.4215   -6.0435 C   0  0  0  0  0  0  0  0  0  0  0  0
   12.8652    1.1285   -4.7075 C   0  0  0  0  0  0  0  0  0  0  0  0
   15.9300    1.8885   -2.6396 F   0  0  0  0  0  0  0  0  0  0  0  0
    8.7677    2.7671   -0.8571 C   0  0  0  0  0  0  0  0  0  0  0  0
    9.7408    3.2029    0.0388 C   0  0  0  0  0  0  0  0  0  0  0  0
    9.3881    3.8062    1.2628 C   0  0  0  0  0  0  0  0  0  0  0  0
    8.0794    3.9605    1.7076 C   0  0  0  0  0  0  0  0  0  0  0  0
    7.0774    3.4838    0.9038 C   0  0  0  0  0  0  0  0  0  0  0  0
    7.4062    2.8872   -0.3806 C   0  0  0  0  0  0  0  0  0  0  0  0
    0.4671    6.2940   -1.0016 H   0  0  0  0  0  0  0  0  0  0  0  0
    0.4942    4.6977   -0.2276 H   0  0  0  0  0  0  0  0  0  0  0  0
    0.4783    4.8258   -1.9977 H   0  0  0  0  0  0  0  0  0  0  0  0
    2.7447    5.7801   -0.1740 H   0  0  0  0  0  0  0  0  0  0  0  0
    2.7297    5.9117   -1.9342 H   0  0  0  0  0  0  0  0  0  0  0  0
    2.5711    3.4109   -2.1185 H   0  0  0  0  0  0  0  0  0  0  0  0
    2.5957    3.2862   -0.3573 H   0  0  0  0  0  0  0  0  0  0  0  0
    4.8068    4.4447   -0.3199 H   0  0  0  0  0  0  0  0  0  0  0  0
    4.8220    4.5271   -2.0742 H   0  0  0  0  0  0  0  0  0  0  0  0
    4.6795    2.0261   -2.1713 H   0  0  0  0  0  0  0  0  0  0  0  0
    4.8077    1.9153   -0.4405 H   0  0  0  0  0  0  0  0  0  0  0  0
    5.6628    1.3723   -3.6454 H   0  0  0  0  0  0  0  0  0  0  0  0
    7.0656    0.3279   -3.7101 H   0  0  0  0  0  0  0  0  0  0  0  0
    7.0679    1.9408   -4.5148 H   0  0  0  0  0  0  0  0  0  0  0  0
   12.6515    0.8702   -2.4904 H   0  0  0  0  0  0  0  0  0  0  0  0
   13.9836    2.6499   -1.1540 H   0  0  0  0  0  0  0  0  0  0  0  0
   16.5121    0.9391   -4.5791 H   0  0  0  0  0  0  0  0  0  0  0  0
   16.4348    0.2240   -6.9259 H   0  0  0  0  0  0  0  0  0  0  0  0
   14.1912   -0.2261   -7.8557 H   0  0  0  0  0  0  0  0  0  0  0  0
   12.1235   -0.0329   -6.5176 H   0  0  0  0  0  0  0  0  0  0  0  0
   10.7909    3.0986   -0.2005 H   0  0  0  0  0  0  0  0  0  0  0  0
   10.1714    4.1810    1.9148 H   0  0  0  0  0  0  0  0  0  0  0  0
    7.8454    4.5096    2.6596 H   0  0  0  0  0  0  0  0  0  0  0  0
    6.0371    3.6876    1.1948 H   0  0  0  0  0  0  0  0  0  0  0  0
  1  2  1  0  0  0  0
  1 29  1  0  0  0  0
  1 30  1  0  0  0  0
  1 31  1  0  0  0  0
  2  3  1  0  0  0  0
  2 32  1  0  0  0  0
  2 33  1  0  0  0  0
  3  4  1  0  0  0  0
  3 34  1  0  0  0  0
  3 35  1  0  0  0  0
  4  5  1  0  0  0  0
  4 36  1  0  0  0  0
  4 37  1  0  0  0  0
  5  6  1  0  0  0  0
  5 38  1  0  0  0  0
  5 39  1  0  0  0  0
  6 28  1  0  0  0  0
  6  7  1  0  0  0  0
  7  8  1  0  0  0  0
  7  9  2  0  0  0  0
  8 40  1  0  0  0  0
  8 41  1  0  0  0  0
  8 42  1  0  0  0  0
  9 10  1  0  0  0  0
  9 23  1  0  0  0  0
 10 11  2  0  0  0  0
 10 12  1  0  0  0  0
 12 21  2  0  0  0  0
 12 13  1  0  0  0  0
 13 14  2  0  0  0  0
 13 43  1  0  0  0  0
 14 15  1  0  0  0  0
 14 44  1  0  0  0  0
 15 16  2  0  0  0  0
 15 22  1  0  0  0  0
 16 21  1  0  0  0  0
 16 17  1  0  0  0  0
 17 18  2  0  0  0  0
 17 45  1  0  0  0  0
 18 19  1  0  0  0  0
 18 46  1  0  0  0  0
 19 20  2  0  0  0  0
 19 47  1  0  0  0  0
 20 21  1  0  0  0  0
 20 48  1  0  0  0  0
 23 28  2  0  0  0  0
 23 24  1  0  0  0  0
 24 25  2  0  0  0  0
 24 49  1  0  0  0  0
 25 26  1  0  0  0  0
 25 50  1  0  0  0  0
 26 27  2  0  0  0  0
 26 51  1  0  0  0  0
 27 28  1  0  0  0  0
 27 52  1  0  0  0  0
M  END
$$$$
CHEMBL3920679
 OpenBabel12022418103D

 47 48  0  0  1  0  0  0  0  0999 V2000
    2.9289    1.3537    0.4433 C   0  0  0  0  0  0  0  0  0  0  0  0
    2.4124   -0.0423    0.0697 C   0  0  2  0  0  0  0  0  0  0  0  0
    0.8882    0.0300   -0.0136 C   0  0  0  0  0  0  0  0  0  0  0  0
    0.1852    0.6807    0.7416 O   0  0  0  0  0  0  0  0  0  0  0  0
    0.4259   -0.7386   -1.0354 O   0  0  0  0  0  0  0  0  0  0  0  0
   -1.0010   -0.7729   -1.1295 C   0  0  0  0  0  0  0  0  0  0  0  0
    2.8957   -1.1856    1.0215 C   0  0  0  0  0  0  0  0  0  0  0  0
    2.3807   -0.9742    2.4608 C   0  0  0  0  0  0  0  0  0  0  0  0
    2.3854   -2.5472    0.4921 C   0  0  0  0  0  0  0  0  0  0  0  0
    4.3787   -1.2130    1.0283 N   0  0  0  0  0  0  0  0  0  0  0  0
    5.1509   -2.1124    1.7408 C   0  0  0  0  0  0  0  0  0  0  0  0
    4.7019   -3.0046    2.4524 O   0  0  0  0  0  0  0  0  0  0  0  0
    6.6180   -1.9858    1.5518 C   0  0  0  0  0  0  0  0  0  0  0  0
    7.3902   -3.1271    1.7191 C   0  0  0  0  0  0  0  0  0  0  0  0
    8.7817   -3.0451    1.6186 C   0  0  0  0  0  0  0  0  0  0  0  0
    9.3354   -1.8059    1.2904 C   0  0  0  0  0  0  0  0  0  0  0  0
    8.4794   -0.7121    1.1369 C   0  0  0  0  0  0  0  0  0  0  0  0
    7.1259   -0.7664    1.2428 N   0  0  0  0  0  0  0  0  0  0  0  0
   11.0292   -1.5774    1.0802 Cl  0  0  0  0  0  0  0  0  0  0  0  0
    9.6187   -4.1212    1.8635 O   0  0  0  0  0  0  0  0  0  0  0  0
    8.9668   -5.2147    2.5264 C   0  0  0  0  0  0  0  0  0  0  0  0
    9.9168   -6.1755    3.1679 C   0  0  0  0  0  0  0  0  0  0  0  0
    9.5581   -7.6400    3.0218 C   0  0  0  0  0  0  0  0  0  0  0  0
   10.8645   -7.1322    2.4863 C   0  0  0  0  0  0  0  0  0  0  0  0
    4.0212    1.3980    0.4431 H   0  0  0  0  0  0  0  0  0  0  0  0
    2.5740    1.6717    1.4288 H   0  0  0  0  0  0  0  0  0  0  0  0
    2.5712    2.0970   -0.2788 H   0  0  0  0  0  0  0  0  0  0  0  0
    2.7863   -0.2425   -0.9458 H   0  0  0  0  0  0  0  0  0  0  0  0
   -1.2707   -1.4499   -1.9448 H   0  0  0  0  0  0  0  0  0  0  0  0
   -1.3931    0.2225   -1.3599 H   0  0  0  0  0  0  0  0  0  0  0  0
   -1.4395   -1.1592   -0.2033 H   0  0  0  0  0  0  0  0  0  0  0  0
    1.2893   -0.9099    2.4990 H   0  0  0  0  0  0  0  0  0  0  0  0
    2.7948   -0.0624    2.9033 H   0  0  0  0  0  0  0  0  0  0  0  0
    2.6634   -1.7988    3.1228 H   0  0  0  0  0  0  0  0  0  0  0  0
    1.2935   -2.6085    0.5052 H   0  0  0  0  0  0  0  0  0  0  0  0
    2.7431   -3.3888    1.0924 H   0  0  0  0  0  0  0  0  0  0  0  0
    2.7300   -2.7195   -0.5339 H   0  0  0  0  0  0  0  0  0  0  0  0
    4.9035   -0.5774    0.4346 H   0  0  0  0  0  0  0  0  0  0  0  0
    6.8698   -4.0556    1.9224 H   0  0  0  0  0  0  0  0  0  0  0  0
    8.8729    0.2792    0.9265 H   0  0  0  0  0  0  0  0  0  0  0  0
    8.3184   -5.7312    1.8079 H   0  0  0  0  0  0  0  0  0  0  0  0
    8.3585   -4.8259    3.3550 H   0  0  0  0  0  0  0  0  0  0  0  0
   10.2237   -5.8178    4.1448 H   0  0  0  0  0  0  0  0  0  0  0  0
    8.8231   -7.9435    2.2833 H   0  0  0  0  0  0  0  0  0  0  0  0
    9.5322   -8.2347    3.9271 H   0  0  0  0  0  0  0  0  0  0  0  0
   11.7527   -7.4405    3.0320 H   0  0  0  0  0  0  0  0  0  0  0  0
   11.0011   -7.0718    1.4160 H   0  0  0  0  0  0  0  0  0  0  0  0
  1 25  1  0  0  0  0
  1 26  1  0  0  0  0
  1 27  1  0  0  0  0
  2  7  1  0  0  0  0
  2  3  1  0  0  0  0
  2  1  1  0  0  0  0
  2 28  1  6  0  0  0
  3  4  2  0  0  0  0
  3  5  1  0  0  0  0
  5  6  1  0  0  0  0
  6 29  1  0  0  0  0
  6 30  1  0  0  0  0
  6 31  1  0  0  0  0
  7  8  1  0  0  0  0
  7  9  1  0  0  0  0
  7 10  1  0  0  0  0
  8 32  1  0  0  0  0
  8 33  1  0  0  0  0
  8 34  1  0  0  0  0
  9 35  1  0  0  0  0
  9 36  1  0  0  0  0
  9 37  1  0  0  0  0
 10 11  1  0  0  0  0
 10 38  1  0  0  0  0
 11 12  2  0  0  0  0
 11 13  1  0  0  0  0
 13 18  2  0  0  0  0
 13 14  1  0  0  0  0
 14 15  2  0  0  0  0
 14 39  1  0  0  0  0
 15 16  1  0  0  0  0
 15 20  1  0  0  0  0
 16 17  2  0  0  0  0
 16 19  1  0  0  0  0
 17 18  1  0  0  0  0
 17 40  1  0  0  0  0
 20 21  1  0  0  0  0
 21 22  1  0  0  0  0
 21 41  1  0  0  0  0
 21 42  1  0  0  0  0
 22 24  1  0  0  0  0
 22 23  1  0  0  0  0
 22 43  1  0  0  0  0
 23 24  1  0  0  0  0
 23 44  1  0  0  0  0
 23 45  1  0  0  0  0
 24 46  1  0  0  0  0
 24 47  1  0  0  0  0
M  END
$$$$
CHEMBL3949331
 OpenBabel12022418103D

 56 59  0  0  1  0  0  0  0  0999 V2000
    2.6881    6.8731   -5.4971 C   0  0  0  0  0  0  0  0  0  0  0  0
    2.0476    5.8701   -4.6243 C   0  0  0  0  0  0  0  0  0  0  0  0
    2.5994    4.9587   -3.8603 N   0  0  0  0  0  0  0  0  0  0  0  0
    1.5038    4.3060   -3.3346 C   0  0  0  0  0  0  0  0  0  0  0  0
    1.6406    3.0850   -2.4155 C   0  0  2  0  0  0  0  0  0  0  0  0
    2.9758    2.3753   -2.7319 C   0  0  0  0  0  0  0  0  0  0  0  0
    0.4452    2.0969   -2.5943 C   0  0  0  0  0  0  0  0  0  0  0  0
    0.2711    1.5209   -3.9846 C   0  0  0  0  0  0  0  0  0  0  0  0
    0.6675    0.1017   -4.3085 C   0  0  0  0  0  0  0  0  0  0  0  0
   -0.7851    0.4631   -4.1913 C   0  0  0  0  0  0  0  0  0  0  0  0
    1.6819    3.6006   -1.0250 N   0  0  0  0  0  0  0  0  0  0  0  0
    1.8943    2.8218    0.1001 C   0  0  0  0  0  0  0  0  0  0  0  0
    2.0177    1.6054    0.0837 O   0  0  0  0  0  0  0  0  0  0  0  0
    1.9785    3.5738    1.3972 C   0  0  0  0  0  0  0  0  0  0  0  0
    2.2065    2.8786    2.5822 C   0  0  0  0  0  0  0  0  0  0  0  0
    2.2134    3.5870    3.7852 C   0  0  0  0  0  0  0  0  0  0  0  0
    2.0505    4.9850    3.7790 C   0  0  0  0  0  0  0  0  0  0  0  0
    1.8462    5.5656    2.5181 C   0  0  0  0  0  0  0  0  0  0  0  0
    1.7988    4.9126    1.3335 N   0  0  0  0  0  0  0  0  0  0  0  0
    1.9808    5.8608    5.0137 C   0  0  0  0  0  0  0  0  0  0  0  0
    3.0427    5.8837    6.0840 C   0  0  0  0  0  0  0  0  0  0  0  0
    2.9449    7.0283    5.1232 C   0  0  0  0  0  0  0  0  0  0  0  0
    2.3728    2.9912    5.0164 O   0  0  0  0  0  0  0  0  0  0  0  0
    1.9756    1.6159    5.1741 C   0  0  2  0  0  0  0  0  0  0  0  0
    0.4624    1.4584    5.0327 C   0  0  0  0  0  0  0  0  0  0  0  0
    2.4092    1.1404    6.5661 C   0  0  0  0  0  0  0  0  0  0  0  0
    1.7487    1.8415    7.5286 F   0  0  0  0  0  0  0  0  0  0  0  0
    0.3244    4.8323   -3.7053 N   0  0  0  0  0  0  0  0  0  0  0  0
    0.6863    5.8558   -4.5830 O   0  0  0  0  0  0  0  0  0  0  0  0
    1.9549    7.3994   -6.1132 H   0  0  0  0  0  0  0  0  0  0  0  0
    3.4070    6.3887   -6.1638 H   0  0  0  0  0  0  0  0  0  0  0  0
    3.2250    7.6121   -4.8946 H   0  0  0  0  0  0  0  0  0  0  0  0
    3.1156    1.4734   -2.1276 H   0  0  0  0  0  0  0  0  0  0  0  0
    3.8288    3.0331   -2.5261 H   0  0  0  0  0  0  0  0  0  0  0  0
    3.0375    2.0801   -3.7854 H   0  0  0  0  0  0  0  0  0  0  0  0
   -0.4900    2.6066   -2.3252 H   0  0  0  0  0  0  0  0  0  0  0  0
    0.5401    1.2680   -1.8836 H   0  0  0  0  0  0  0  0  0  0  0  0
    0.3532    2.2631   -4.7707 H   0  0  0  0  0  0  0  0  0  0  0  0
    1.0967   -0.5178   -3.5292 H   0  0  0  0  0  0  0  0  0  0  0  0
    1.0520   -0.1081   -5.3007 H   0  0  0  0  0  0  0  0  0  0  0  0
   -1.3779    0.5123   -5.0982 H   0  0  0  0  0  0  0  0  0  0  0  0
   -1.3302    0.0930   -3.3298 H   0  0  0  0  0  0  0  0  0  0  0  0
    1.5797    4.5983   -0.8608 H   0  0  0  0  0  0  0  0  0  0  0  0
    2.3532    1.8060    2.5340 H   0  0  0  0  0  0  0  0  0  0  0  0
    1.6869    6.6406    2.4417 H   0  0  0  0  0  0  0  0  0  0  0  0
    0.9672    6.0455    5.3697 H   0  0  0  0  0  0  0  0  0  0  0  0
    3.8900    5.2158    6.0019 H   0  0  0  0  0  0  0  0  0  0  0  0
    2.7201    6.0594    7.1051 H   0  0  0  0  0  0  0  0  0  0  0  0
    2.5516    7.9727    5.4809 H   0  0  0  0  0  0  0  0  0  0  0  0
    3.7458    7.1306    4.4001 H   0  0  0  0  0  0  0  0  0  0  0  0
    2.5053    0.9827    4.4537 H   0  0  0  0  0  0  0  0  0  0  0  0
   -0.0650    2.1004    5.7465 H   0  0  0  0  0  0  0  0  0  0  0  0
    0.1578    0.4200    5.2003 H   0  0  0  0  0  0  0  0  0  0  0  0
    0.1169    1.7496    4.0364 H   0  0  0  0  0  0  0  0  0  0  0  0
    3.4809    1.2898    6.7264 H   0  0  0  0  0  0  0  0  0  0  0  0
    2.1716    0.0816    6.7112 H   0  0  0  0  0  0  0  0  0  0  0  0
  1  2  1  0  0  0  0
  1 30  1  0  0  0  0
  1 31  1  0  0  0  0
  1 32  1  0  0  0  0
  2 29  1  0  0  0  0
  2  3  2  0  0  0  0
  3  4  1  0  0  0  0
  4 28  2  0  0  0  0
  5  7  1  6  0  0  0
  5 11  1  0  0  0  0
  5  6  1  0  0  0  0
  5  4  1  0  0  0  0
  6 33  1  0  0  0  0
  6 34  1  0  0  0  0
  6 35  1  0  0  0  0
  7  8  1  0  0  0  0
  7 36  1  0  0  0  0
  7 37  1  0  0  0  0
  8 10  1  0  0  0  0
  8  9  1  0  0  0  0
  8 38  1  0  0  0  0
  9 10  1  0  0  0  0
  9 39  1  0  0  0  0
  9 40  1  0  0  0  0
 10 41  1  0  0  0  0
 10 42  1  0  0  0  0
 11 12  1  0  0  0  0
 11 43  1  0  0  0  0
 12 13  2  0  0  0  0
 12 14  1  0  0  0  0
 14 19  2  0  0  0  0
 14 15  1  0  0  0  0
 15 16  2  0  0  0  0
 15 44  1  0  0  0  0
 16 17  1  0  0  0  0
 16 23  1  0  0  0  0
 17 18  2  0  0  0  0
 17 20  1  0  0  0  0
 18 19  1  0  0  0  0
 18 45  1  0  0  0  0
 20 22  1  0  0  0  0
 20 21  1  0  0  0  0
 20 46  1  0  0  0  0
 21 22  1  0  0  0  0
 21 47  1  0  0  0  0
 21 48  1  0  0  0  0
 22 49  1  0  0  0  0
 22 50  1  0  0  0  0
 24 26  1  0  0  0  0
 24 25  1  0  0  0  0
 24 23  1  0  0  0  0
 24 51  1  6  0  0  0
 25 52  1  0  0  0  0
 25 53  1  0  0  0  0
 25 54  1  0  0  0  0
 26 27  1  0  0  0  0
 26 55  1  0  0  0  0
 26 56  1  0  0  0  0
 28 29  1  0  0  0  0
M  END
$$$$
CHEMBL3354954
 OpenBabel12022418103D

 45 49  0  0  1  0  0  0  0  0999 V2000
    0.5235    1.5180   -0.5635 C   0  0  0  0  0  0  0  0  0  0  0  0
   -0.3586    1.9029   -1.7970 C   0  0  0  0  0  0  0  0  0  0  0  0
    0.4502    0.8992   -2.6348 C   0  0  0  0  0  0  0  0  0  0  0  0
    1.5862    1.0403   -1.6023 C   0  0  0  0  0  0  0  0  0  0  0  0
   -0.0739    0.4206    0.3290 C   0  0  0  0  0  0  0  0  0  0  0  0
    0.9501   -0.1866    1.1176 O   0  0  0  0  0  0  0  0  0  0  0  0
    0.9557    2.7009    0.2447 N   0  0  0  0  0  0  0  0  0  0  0  0
    0.0336    3.5874    0.7737 C   0  0  0  0  0  0  0  0  0  0  0  0
   -1.1761    3.4568    0.5775 O   0  0  0  0  0  0  0  0  0  0  0  0
    0.5581    4.7143    1.5696 C   0  0  0  0  0  0  0  0  0  0  0  0
   -0.2431    5.7619    2.0585 C   0  0  0  0  0  0  0  0  0  0  0  0
    0.6053    6.6151    2.6844 C   0  0  0  0  0  0  0  0  0  0  0  0
   -0.0549    7.9401    2.9788 C   0  0  1  0  0  0  0  0  0  0  0  0
   -1.4646    7.7500    2.3735 C   0  0  1  0  0  0  0  0  0  0  0  0
   -1.6180    6.2946    1.8850 C   0  0  0  0  0  0  0  0  0  0  0  0
   -1.2938    8.0460    3.8281 C   0  0  0  0  0  0  0  0  0  0  0  0
    1.8654    6.1161    2.6042 N   0  0  0  0  0  0  0  0  0  0  0  0
    3.0186    6.7459    3.1278 C   0  0  0  0  0  0  0  0  0  0  0  0
    4.2476    6.6512    2.4686 C   0  0  0  0  0  0  0  0  0  0  0  0
    5.3200    7.4337    2.9146 C   0  0  0  0  0  0  0  0  0  0  0  0
    5.1729    8.2597    4.0306 C   0  0  0  0  0  0  0  0  0  0  0  0
    3.9796    8.3107    4.7287 C   0  0  0  0  0  0  0  0  0  0  0  0
    2.9087    7.5529    4.2727 C   0  0  0  0  0  0  0  0  0  0  0  0
    1.7852    7.5907    4.9971 F   0  0  0  0  0  0  0  0  0  0  0  0
    6.2005    9.0183    4.4340 F   0  0  0  0  0  0  0  0  0  0  0  0
    1.8742    4.9523    1.8523 N   0  0  0  0  0  0  0  0  0  0  0  0
   -0.2390    2.9377   -2.1398 H   0  0  0  0  0  0  0  0  0  0  0  0
   -1.4284    1.6856   -1.7167 H   0  0  0  0  0  0  0  0  0  0  0  0
    0.6900    1.2187   -3.6522 H   0  0  0  0  0  0  0  0  0  0  0  0
    0.0046   -0.1014   -2.6769 H   0  0  0  0  0  0  0  0  0  0  0  0
    2.1124    0.1072   -1.3807 H   0  0  0  0  0  0  0  0  0  0  0  0
    2.3283    1.7984   -1.8779 H   0  0  0  0  0  0  0  0  0  0  0  0
   -0.5641   -0.3657   -0.2569 H   0  0  0  0  0  0  0  0  0  0  0  0
   -0.8265    0.8260    1.0123 H   0  0  0  0  0  0  0  0  0  0  0  0
    1.3706   -0.8681    0.5656 H   0  0  0  0  0  0  0  0  0  0  0  0
    1.9194    2.8422    0.5296 H   0  0  0  0  0  0  0  0  0  0  0  0
    0.5328    8.8435    2.8956 H   0  0  0  0  0  0  0  0  0  0  0  0
   -1.8354    8.5003    1.6920 H   0  0  0  0  0  0  0  0  0  0  0  0
   -2.3448    5.7546    2.4988 H   0  0  0  0  0  0  0  0  0  0  0  0
   -1.9246    6.2781    0.8356 H   0  0  0  0  0  0  0  0  0  0  0  0
   -1.5617    9.0372    4.1797 H   0  0  0  0  0  0  0  0  0  0  0  0
   -1.4732    7.2676    4.5604 H   0  0  0  0  0  0  0  0  0  0  0  0
    4.3602    6.0374    1.5758 H   0  0  0  0  0  0  0  0  0  0  0  0
    6.2682    7.4284    2.3858 H   0  0  0  0  0  0  0  0  0  0  0  0
    3.8742    8.9346    5.6094 H   0  0  0  0  0  0  0  0  0  0  0  0
  1  4  1  0  0  0  0
  1  2  1  0  0  0  0
  1  5  1  0  0  0  0
  1  7  1  0  0  0  0
  2  3  1  0  0  0  0
  2 27  1  0  0  0  0
  2 28  1  0  0  0  0
  3  4  1  0  0  0  0
  3 29  1  0  0  0  0
  3 30  1  0  0  0  0
  4 31  1  0  0  0  0
  4 32  1  0  0  0  0
  5  6  1  0  0  0  0
  5 33  1  0  0  0  0
  5 34  1  0  0  0  0
  6 35  1  0  0  0  0
  7  8  1  0  0  0  0
  7 36  1  0  0  0  0
  8  9  2  0  0  0  0
  8 10  1  0  0  0  0
 10 26  2  0  0  0  0
 10 11  1  0  0  0  0
 11 15  1  0  0  0  0
 11 12  2  0  0  0  0
 12 13  1  0  0  0  0
 12 17  1  0  0  0  0
 13 14  1  0  0  0  0
 13 16  1  0  0  0  0
 13 37  1  6  0  0  0
 14 15  1  0  0  0  0
 14 16  1  0  0  0  0
 14 38  1  6  0  0  0
 15 39  1  0  0  0  0
 15 40  1  0  0  0  0
 16 41  1  0  0  0  0
 16 42  1  0  0  0  0
 17 18  1  0  0  0  0
 17 26  1  0  0  0  0
 18 23  2  0  0  0  0
 18 19  1  0  0  0  0
 19 20  2  0  0  0  0
 19 43  1  0  0  0  0
 20 21  1  0  0  0  0
 20 44  1  0  0  0  0
 21 22  2  0  0  0  0
 21 25  1  0  0  0  0
 22 23  1  0  0  0  0
 22 45  1  0  0  0  0
 23 24  1  0  0  0  0
M  END
$$$$
CHEMBL3104358
 OpenBabel12022418103D

 59 61  0  0  1  0  0  0  0  0999 V2000
    5.2953   -3.3385   -1.5709 C   0  0  0  0  0  0  0  0  0  0  0  0
    6.0567   -2.0243   -1.4757 C   0  0  0  0  0  0  0  0  0  0  0  0
    5.4912   -0.9154   -2.3663 C   0  0  0  0  0  0  0  0  0  0  0  0
    4.0263   -0.5749   -2.1248 C   0  0  0  0  0  0  0  0  0  0  0  0
    3.7847   -0.2126   -0.7612 O   0  0  0  0  0  0  0  0  0  0  0  0
    3.4703    1.0878   -0.5287 C   0  0  0  0  0  0  0  0  0  0  0  0
    3.6380    2.0112   -1.3355 O   0  0  0  0  0  0  0  0  0  0  0  0
    2.8020    1.2275    0.8243 C   0  0  1  0  0  0  0  0  0  0  0  0
    2.9068    2.6685    1.3463 C   0  0  0  0  0  0  0  0  0  0  0  0
    1.3426    0.8220    0.7610 C   0  0  0  0  0  0  0  0  0  0  0  0
    0.7679   -0.1987    1.5265 C   0  0  0  0  0  0  0  0  0  0  0  0
   -0.6351   -0.3766    1.5732 C   0  0  0  0  0  0  0  0  0  0  0  0
   -1.5001    0.5234    0.9471 C   0  0  0  0  0  0  0  0  0  0  0  0
   -0.8834    1.4445    0.0834 C   0  0  0  0  0  0  0  0  0  0  0  0
    0.4866    1.5621   -0.0697 C   0  0  0  0  0  0  0  0  0  0  0  0
   -1.5905    2.3555   -0.6675 O   0  0  0  0  0  0  0  0  0  0  0  0
   -2.8008    1.7923   -1.1437 C   0  0  0  0  0  0  0  0  0  0  0  0
   -3.4794    2.8407   -2.0198 C   0  0  0  0  0  0  0  0  0  0  0  0
   -2.5216    0.5485   -2.0566 C   0  0  0  0  0  0  0  0  0  0  0  0
   -3.6746    1.3684    0.0268 C   0  0  2  0  0  0  0  0  0  0  0  0
   -4.7773    2.2865    0.6116 C   0  0  0  0  0  0  0  0  0  0  0  0
   -5.8200    1.3771    1.2557 C   0  0  0  0  0  0  0  0  0  0  0  0
   -5.4731    0.0696    1.3647 C   0  0  0  0  0  0  0  0  0  0  0  0
   -6.1082   -0.7899    0.2658 C   0  0  0  0  0  0  0  0  0  0  0  0
   -4.0135   -0.2533    1.8423 C   0  0  0  0  0  0  0  0  0  0  0  0
   -2.9670    0.7496    1.2463 C   0  0  1  0  0  0  0  0  0  0  0  0
   -1.1346   -1.4769    2.1986 O   0  0  0  0  0  0  0  0  0  0  0  0
    4.4337   -3.3388   -0.8956 H   0  0  0  0  0  0  0  0  0  0  0  0
    4.9382   -3.5291   -2.5878 H   0  0  0  0  0  0  0  0  0  0  0  0
    5.9441   -4.1711   -1.2796 H   0  0  0  0  0  0  0  0  0  0  0  0
    6.0874   -1.6957   -0.4305 H   0  0  0  0  0  0  0  0  0  0  0  0
    7.0960   -2.2005   -1.7783 H   0  0  0  0  0  0  0  0  0  0  0  0
    5.6087   -1.2058   -3.4176 H   0  0  0  0  0  0  0  0  0  0  0  0
    6.1004   -0.0169   -2.2121 H   0  0  0  0  0  0  0  0  0  0  0  0
    3.7081    0.2075   -2.8238 H   0  0  0  0  0  0  0  0  0  0  0  0
    3.3918   -1.4426   -2.3273 H   0  0  0  0  0  0  0  0  0  0  0  0
    3.3438    0.5840    1.5266 H   0  0  0  0  0  0  0  0  0  0  0  0
    3.9438    3.0170    1.3512 H   0  0  0  0  0  0  0  0  0  0  0  0
    2.5126    2.7403    2.3669 H   0  0  0  0  0  0  0  0  0  0  0  0
    2.3378    3.3796    0.7334 H   0  0  0  0  0  0  0  0  0  0  0  0
    1.4118   -0.8371    2.1366 H   0  0  0  0  0  0  0  0  0  0  0  0
    0.8785    2.2783   -0.7852 H   0  0  0  0  0  0  0  0  0  0  0  0
   -4.4389    2.4750   -2.4040 H   0  0  0  0  0  0  0  0  0  0  0  0
   -2.8417    3.0998   -2.8705 H   0  0  0  0  0  0  0  0  0  0  0  0
   -3.6449    3.7685   -1.4632 H   0  0  0  0  0  0  0  0  0  0  0  0
   -3.4479    0.1682   -2.5042 H   0  0  0  0  0  0  0  0  0  0  0  0
   -2.0818   -0.2909   -1.5080 H   0  0  0  0  0  0  0  0  0  0  0  0
   -1.8183    0.7960   -2.8588 H   0  0  0  0  0  0  0  0  0  0  0  0
   -4.1822    0.5457   -0.4693 H   0  0  0  0  0  0  0  0  0  0  0  0
   -5.2862    2.8439   -0.1773 H   0  0  0  0  0  0  0  0  0  0  0  0
   -4.3934    3.0101    1.3417 H   0  0  0  0  0  0  0  0  0  0  0  0
   -6.8334    1.6409    0.9498 H   0  0  0  0  0  0  0  0  0  0  0  0
   -7.1996   -0.7267    0.2687 H   0  0  0  0  0  0  0  0  0  0  0  0
   -5.8258   -0.4005   -0.7356 H   0  0  0  0  0  0  0  0  0  0  0  0
   -5.7790   -1.8256    0.2756 H   0  0  0  0  0  0  0  0  0  0  0  0
   -3.7595   -1.3016    1.6674 H   0  0  0  0  0  0  0  0  0  0  0  0
   -4.0263   -0.1221    2.9368 H   0  0  0  0  0  0  0  0  0  0  0  0
   -2.8851    1.5286    2.0250 H   0  0  0  0  0  0  0  0  0  0  0  0
   -0.6318   -2.2302    1.8442 H   0  0  0  0  0  0  0  0  0  0  0  0
  1  2  1  0  0  0  0
  1 28  1  0  0  0  0
  1 29  1  0  0  0  0
  1 30  1  0  0  0  0
  2  3  1  0  0  0  0
  2 31  1  0  0  0  0
  2 32  1  0  0  0  0
  3  4  1  0  0  0  0
  3 33  1  0  0  0  0
  3 34  1  0  0  0  0
  4  5  1  0  0  0  0
  4 35  1  0  0  0  0
  4 36  1  0  0  0  0
  5  6  1  0  0  0  0
  6  7  2  0  0  0  0
  6  8  1  0  0  0  0
  8  9  1  0  0  0  0
  8 10  1  0  0  0  0
  8 37  1  1  0  0  0
  9 38  1  0  0  0  0
  9 39  1  0  0  0  0
  9 40  1  0  0  0  0
 10 15  2  0  0  0  0
 10 11  1  0  0  0  0
 11 12  2  0  0  0  0
 11 41  1  0  0  0  0
 12 13  1  0  0  0  0
 12 27  1  0  0  0  0
 13 26  1  0  0  0  0
 13 14  2  0  0  0  0
 14 15  1  0  0  0  0
 14 16  1  0  0  0  0
 15 42  1  0  0  0  0
 16 17  1  0  0  0  0
 17 18  1  0  0  0  0
 17 19  1  0  0  0  0
 17 20  1  0  0  0  0
 18 43  1  0  0  0  0
 18 44  1  0  0  0  0
 18 45  1  0  0  0  0
 19 46  1  0  0  0  0
 19 47  1  0  0  0  0
 19 48  1  0  0  0  0
 20 21  1  0  0  0  0
 20 26  1  0  0  0  0
 20 49  1  6  0  0  0
 21 22  1  0  0  0  0
 21 50  1  0  0  0  0
 21 51  1  0  0  0  0
 22 23  2  0  0  0  0
 22 52  1  0  0  0  0
 23 24  1  0  0  0  0
 23 25  1  0  0  0  0
 24 53  1  0  0  0  0
 24 54  1  0  0  0  0
 24 55  1  0  0  0  0
 25 56  1  0  0  0  0
 25 57  1  0  0  0  0
 26 25  1  0  0  0  0
 26 58  1  1  0  0  0
 27 59  1  0  0  0  0
M  END
$$$$
CHEMBL1631294
 OpenBabel12022418103D

 46 48  0  0  0  0  0  0  0  0999 V2000
    1.1580    0.4174   -0.0620 C   0  0  0  0  0  0  0  0  0  0  0  0
    2.6261    0.1647   -0.0667 C   0  0  0  0  0  0  0  0  0  0  0  0
    3.6355    1.1860    0.0053 C   0  0  0  0  0  0  0  0  0  0  0  0
    3.4368    2.6563    0.0136 C   0  0  0  0  0  0  0  0  0  0  0  0
    2.3147    3.1584   -0.0665 O   0  0  0  0  0  0  0  0  0  0  0  0
    4.5969    3.4030    0.1069 N   0  0  0  0  0  0  0  0  0  0  0  0
    4.6646    4.8782    0.1141 C   0  0  0  0  0  0  0  0  0  0  0  0
    3.9238    5.4585    1.3312 C   0  0  0  0  0  0  0  0  0  0  0  0
    6.1372    5.3258    0.2019 C   0  0  0  0  0  0  0  0  0  0  0  0
    4.0756    5.4637   -1.1805 C   0  0  0  0  0  0  0  0  0  0  0  0
    4.8638    0.6438    0.0922 N   0  0  0  0  0  0  0  0  0  0  0  0
    4.6819   -0.7002    0.0278 N   0  0  0  0  0  0  0  0  0  0  0  0
    5.8217   -1.5255   -0.2132 C   0  0  0  0  0  0  0  0  0  0  0  0
    5.7322   -2.5631   -1.1623 C   0  0  0  0  0  0  0  0  0  0  0  0
    6.8451   -3.3557   -1.4535 C   0  0  0  0  0  0  0  0  0  0  0  0
    8.0572   -3.1027   -0.8208 C   0  0  0  0  0  0  0  0  0  0  0  0
    8.1613   -2.0832    0.1225 C   0  0  0  0  0  0  0  0  0  0  0  0
    7.0469   -1.2944    0.4352 C   0  0  0  0  0  0  0  0  0  0  0  0
    7.2563   -0.1675    1.7335 Cl  0  0  0  0  0  0  0  0  0  0  0  0
    9.4354   -4.0569   -1.2045 Cl  0  0  0  0  0  0  0  0  0  0  0  0
    3.3333   -1.0291   -0.0171 C   0  0  0  0  0  0  0  0  0  0  0  0
    2.8281   -2.3341    0.0615 N   0  0  0  0  0  0  0  0  0  0  0  0
    3.3885   -3.3986    0.7485 C   0  0  0  0  0  0  0  0  0  0  0  0
    2.6015   -4.5180    0.5941 C   0  0  0  0  0  0  0  0  0  0  0  0
    1.5057   -4.1450   -0.2067 C   0  0  0  0  0  0  0  0  0  0  0  0
    1.6702   -2.8138   -0.5234 C   0  0  0  0  0  0  0  0  0  0  0  0
    0.5665   -0.4894    0.0634 H   0  0  0  0  0  0  0  0  0  0  0  0
    0.8482    0.8980   -0.9954 H   0  0  0  0  0  0  0  0  0  0  0  0
    0.8870    1.0699    0.7752 H   0  0  0  0  0  0  0  0  0  0  0  0
    5.4489    2.8542    0.1827 H   0  0  0  0  0  0  0  0  0  0  0  0
    4.3500    5.0838    2.2685 H   0  0  0  0  0  0  0  0  0  0  0  0
    2.8603    5.2025    1.3280 H   0  0  0  0  0  0  0  0  0  0  0  0
    3.9928    6.5538    1.3484 H   0  0  0  0  0  0  0  0  0  0  0  0
    6.6165    4.9536    1.1135 H   0  0  0  0  0  0  0  0  0  0  0  0
    6.2156    6.4214    0.2096 H   0  0  0  0  0  0  0  0  0  0  0  0
    6.7179    4.9595   -0.6516 H   0  0  0  0  0  0  0  0  0  0  0  0
    3.0157    5.2196   -1.3000 H   0  0  0  0  0  0  0  0  0  0  0  0
    4.6024    5.0796   -2.0610 H   0  0  0  0  0  0  0  0  0  0  0  0
    4.1577    6.5572   -1.1925 H   0  0  0  0  0  0  0  0  0  0  0  0
    4.8140   -2.7593   -1.7128 H   0  0  0  0  0  0  0  0  0  0  0  0
    6.7599   -4.1586   -2.1826 H   0  0  0  0  0  0  0  0  0  0  0  0
    9.1089   -1.9118    0.6276 H   0  0  0  0  0  0  0  0  0  0  0  0
    4.2932   -3.2736    1.3274 H   0  0  0  0  0  0  0  0  0  0  0  0
    2.7955   -5.4924    1.0247 H   0  0  0  0  0  0  0  0  0  0  0  0
    0.6877   -4.7766   -0.5286 H   0  0  0  0  0  0  0  0  0  0  0  0
    1.0684   -2.1838   -1.1623 H   0  0  0  0  0  0  0  0  0  0  0  0
  1  2  1  0  0  0  0
  1 27  1  0  0  0  0
  1 28  1  0  0  0  0
  1 29  1  0  0  0  0
  2 21  2  0  0  0  0
  2  3  1  0  0  0  0
  3  4  1  0  0  0  0
  3 11  2  0  0  0  0
  4  5  2  0  0  0  0
  4  6  1  0  0  0  0
  6  7  1  0  0  0  0
  6 30  1  0  0  0  0
  7  8  1  0  0  0  0
  7  9  1  0  0  0  0
  7 10  1  0  0  0  0
  8 31  1  0  0  0  0
  8 32  1  0  0  0  0
  8 33  1  0  0  0  0
  9 34  1  0  0  0  0
  9 35  1  0  0  0  0
  9 36  1  0  0  0  0
 10 37  1  0  0  0  0
 10 38  1  0  0  0  0
 10 39  1  0  0  0  0
 11 12  1  0  0  0  0
 12 13  1  0  0  0  0
 12 21  1  0  0  0  0
 13 18  2  0  0  0  0
 13 14  1  0  0  0  0
 14 15  2  0  0  0  0
 14 40  1  0  0  0  0
 15 16  1  0  0  0  0
 15 41  1  0  0  0  0
 16 17  2  0  0  0  0
 16 20  1  0  0  0  0
 17 18  1  0  0  0  0
 17 42  1  0  0  0  0
 18 19  1  0  0  0  0
 21 22  1  0  0  0  0
 22 26  1  0  0  0  0
 22 23  1  0  0  0  0
 23 24  2  0  0  0  0
 23 43  1  0  0  0  0
 24 25  1  0  0  0  0
 24 44  1  0  0  0  0
 25 26  2  0  0  0  0
 25 45  1  0  0  0  0
 26 46  1  0  0  0  0
M  END
$$$$
CHEMBL2206839
 OpenBabel12022418103D

 52 55  0  0  0  0  0  0  0  0999 V2000
    4.5345    2.1313    0.6042 C   0  0  0  0  0  0  0  0  0  0  0  0
    4.2260    0.6684    0.8696 C   0  0  0  0  0  0  0  0  0  0  0  0
    5.0445   -0.2728   -0.0190 C   0  0  0  0  0  0  0  0  0  0  0  0
    4.7402   -1.7288    0.3441 C   0  0  0  0  0  0  0  0  0  0  0  0
    5.5431   -2.7868   -0.4247 C   0  0  0  0  0  0  0  0  0  0  0  0
    7.0071   -2.7226   -0.3621 N   0  0  0  0  0  0  0  0  0  0  0  0
    7.8205   -3.0362    0.7332 C   0  0  0  0  0  0  0  0  0  0  0  0
    7.1583   -3.4168    2.0195 C   0  0  0  0  0  0  0  0  0  0  0  0
    9.1799   -2.9349    0.3392 C   0  0  0  0  0  0  0  0  0  0  0  0
   10.5382   -3.1058    1.0476 C   0  0  0  0  0  0  0  0  0  0  0  0
   11.5604   -2.9670    0.3710 O   0  0  0  0  0  0  0  0  0  0  0  0
   10.7857   -3.4535    2.5162 C   0  0  0  0  0  0  0  0  0  0  0  0
    9.8600   -4.2834    3.1296 C   0  0  0  0  0  0  0  0  0  0  0  0
    9.8767   -4.5276    4.4997 C   0  0  0  0  0  0  0  0  0  0  0  0
   10.9281   -4.0654    5.2803 C   0  0  0  0  0  0  0  0  0  0  0  0
   12.0426   -3.4396    4.6835 C   0  0  0  0  0  0  0  0  0  0  0  0
   13.2173   -3.1657    5.4371 C   0  0  0  0  0  0  0  0  0  0  0  0
   14.3645   -2.6382    4.8619 C   0  0  0  0  0  0  0  0  0  0  0  0
   14.3499   -2.3301    3.5168 C   0  0  0  0  0  0  0  0  0  0  0  0
   13.1857   -2.5415    2.7550 C   0  0  0  0  0  0  0  0  0  0  0  0
   11.9895   -3.1195    3.2783 C   0  0  0  0  0  0  0  0  0  0  0  0
   10.7358   -4.4507    7.3554 I   0  0  0  0  0  0  0  0  0  0  0  0
    9.1092   -2.6077   -1.0974 C   0  0  0  0  0  0  0  0  0  0  0  0
   10.0819   -2.4193   -2.1159 C   0  0  0  0  0  0  0  0  0  0  0  0
    9.7091   -2.1422   -3.4397 C   0  0  0  0  0  0  0  0  0  0  0  0
    8.3711   -2.0402   -3.7863 C   0  0  0  0  0  0  0  0  0  0  0  0
    7.3884   -2.2087   -2.8154 C   0  0  0  0  0  0  0  0  0  0  0  0
    7.7712   -2.4921   -1.4852 C   0  0  0  0  0  0  0  0  0  0  0  0
    3.9375    2.7685    1.2645 H   0  0  0  0  0  0  0  0  0  0  0  0
    4.3028    2.4020   -0.4305 H   0  0  0  0  0  0  0  0  0  0  0  0
    5.5912    2.3476    0.7919 H   0  0  0  0  0  0  0  0  0  0  0  0
    3.1527    0.4920    0.7057 H   0  0  0  0  0  0  0  0  0  0  0  0
    4.4276    0.4527    1.9248 H   0  0  0  0  0  0  0  0  0  0  0  0
    6.1124   -0.0653    0.1245 H   0  0  0  0  0  0  0  0  0  0  0  0
    4.8131   -0.0920   -1.0755 H   0  0  0  0  0  0  0  0  0  0  0  0
    3.6737   -1.9151    0.1438 H   0  0  0  0  0  0  0  0  0  0  0  0
    4.8602   -1.8501    1.4188 H   0  0  0  0  0  0  0  0  0  0  0  0
    5.2310   -2.7441   -1.4721 H   0  0  0  0  0  0  0  0  0  0  0  0
    5.2595   -3.7920   -0.0894 H   0  0  0  0  0  0  0  0  0  0  0  0
    6.0757   -3.3061    2.0114 H   0  0  0  0  0  0  0  0  0  0  0  0
    7.5277   -2.8128    2.8477 H   0  0  0  0  0  0  0  0  0  0  0  0
    7.2773   -4.4853    2.2144 H   0  0  0  0  0  0  0  0  0  0  0  0
    9.1261   -4.7951    2.5324 H   0  0  0  0  0  0  0  0  0  0  0  0
    9.0674   -5.1059    4.9389 H   0  0  0  0  0  0  0  0  0  0  0  0
   13.2839   -3.4057    6.4951 H   0  0  0  0  0  0  0  0  0  0  0  0
   15.2597   -2.4887    5.4638 H   0  0  0  0  0  0  0  0  0  0  0  0
   15.2517   -1.9420    3.0490 H   0  0  0  0  0  0  0  0  0  0  0  0
   13.2637   -2.2927    1.6996 H   0  0  0  0  0  0  0  0  0  0  0  0
   11.1414   -2.4972   -1.8852 H   0  0  0  0  0  0  0  0  0  0  0  0
   10.4747   -2.0150   -4.1970 H   0  0  0  0  0  0  0  0  0  0  0  0
    8.0868   -1.8363   -4.8160 H   0  0  0  0  0  0  0  0  0  0  0  0
    6.3450   -2.1277   -3.1088 H   0  0  0  0  0  0  0  0  0  0  0  0
  1  2  1  0  0  0  0
  1 29  1  0  0  0  0
  1 30  1  0  0  0  0
  1 31  1  0  0  0  0
  2  3  1  0  0  0  0
  2 32  1  0  0  0  0
  2 33  1  0  0  0  0
  3  4  1  0  0  0  0
  3 34  1  0  0  0  0
  3 35  1  0  0  0  0
  4  5  1  0  0  0  0
  4 36  1  0  0  0  0
  4 37  1  0  0  0  0
  5  6  1  0  0  0  0
  5 38  1  0  0  0  0
  5 39  1  0  0  0  0
  6 28  1  0  0  0  0
  6  7  1  0  0  0  0
  7  8  1  0  0  0  0
  7  9  2  0  0  0  0
  8 40  1  0  0  0  0
  8 41  1  0  0  0  0
  8 42  1  0  0  0  0
  9 10  1  0  0  0  0
  9 23  1  0  0  0  0
 10 11  2  0  0  0  0
 10 12  1  0  0  0  0
 12 21  2  0  0  0  0
 12 13  1  0  0  0  0
 13 14  2  0  0  0  0
 13 43  1  0  0  0  0
 14 15  1  0  0  0  0
 14 44  1  0  0  0  0
 15 16  2  0  0  0  0
 15 22  1  0  0  0  0
 16 21  1  0  0  0  0
 16 17  1  0  0  0  0
 17 18  2  0  0  0  0
 17 45  1  0  0  0  0
 18 19  1  0  0  0  0
 18 46  1  0  0  0  0
 19 20  2  0  0  0  0
 19 47  1  0  0  0  0
 20 21  1  0  0  0  0
 20 48  1  0  0  0  0
 23 28  2  0  0  0  0
 23 24  1  0  0  0  0
 24 25  2  0  0  0  0
 24 49  1  0  0  0  0
 25 26  1  0  0  0  0
 25 50  1  0  0  0  0
 26 27  2  0  0  0  0
 26 51  1  0  0  0  0
 27 28  1  0  0  0  0
 27 52  1  0  0  0  0
M  END
$$$$
CHEMBL2206861
 OpenBabel12022418103D

 43 46  0  0  0  0  0  0  0  0999 V2000
    3.0701    1.5039    3.7676 C   0  0  0  0  0  0  0  0  0  0  0  0
    2.8842    0.3329    2.8178 C   0  0  0  0  0  0  0  0  0  0  0  0
    3.6235    0.5245    1.4895 C   0  0  0  0  0  0  0  0  0  0  0  0
    5.0795    0.4518    1.5761 N   0  0  0  0  0  0  0  0  0  0  0  0
    5.9536    1.5248    1.6109 C   0  0  0  0  0  0  0  0  0  0  0  0
    7.2720    1.0677    1.5765 C   0  0  0  0  0  0  0  0  0  0  0  0
    8.5919    1.8024    1.5800 C   0  0  0  0  0  0  0  0  0  0  0  0
    9.6290    1.1396    1.5769 O   0  0  0  0  0  0  0  0  0  0  0  0
    8.7634    3.3230    1.5687 C   0  0  0  0  0  0  0  0  0  0  0  0
    7.7401    4.0869    0.9969 C   0  0  0  0  0  0  0  0  0  0  0  0
    7.7764    5.4805    1.0277 C   0  0  0  0  0  0  0  0  0  0  0  0
    8.8622    6.1510    1.5759 C   0  0  0  0  0  0  0  0  0  0  0  0
   10.0006    5.4499    2.0264 C   0  0  0  0  0  0  0  0  0  0  0  0
   11.1696    6.1459    2.4455 C   0  0  0  0  0  0  0  0  0  0  0  0
   12.3325    5.4900    2.8244 C   0  0  0  0  0  0  0  0  0  0  0  0
   12.3368    4.1084    2.8286 C   0  0  0  0  0  0  0  0  0  0  0  0
   11.1882    3.3933    2.4584 C   0  0  0  0  0  0  0  0  0  0  0  0
    9.9728    4.0093    2.0250 C   0  0  0  0  0  0  0  0  0  0  0  0
    8.7077    8.0561    1.6425 Br  0  0  0  0  0  0  0  0  0  0  0  0
    7.1412   -0.3887    1.5484 C   0  0  0  0  0  0  0  0  0  0  0  0
    8.0696   -1.4602    1.5201 C   0  0  0  0  0  0  0  0  0  0  0  0
    7.6303   -2.7924    1.4953 C   0  0  0  0  0  0  0  0  0  0  0  0
    6.2753   -3.0932    1.4959 C   0  0  0  0  0  0  0  0  0  0  0  0
    5.3330   -2.0678    1.5184 C   0  0  0  0  0  0  0  0  0  0  0  0
    5.7877   -0.7297    1.5482 C   0  0  0  0  0  0  0  0  0  0  0  0
    2.4371    1.3787    4.6522 H   0  0  0  0  0  0  0  0  0  0  0  0
    2.7922    2.4454    3.2838 H   0  0  0  0  0  0  0  0  0  0  0  0
    4.1079    1.5764    4.1039 H   0  0  0  0  0  0  0  0  0  0  0  0
    1.8116    0.2265    2.6091 H   0  0  0  0  0  0  0  0  0  0  0  0
    3.1985   -0.5926    3.3146 H   0  0  0  0  0  0  0  0  0  0  0  0
    3.3543    1.4755    1.0185 H   0  0  0  0  0  0  0  0  0  0  0  0
    3.3044   -0.2641    0.7947 H   0  0  0  0  0  0  0  0  0  0  0  0
    5.5323    2.5191    1.6517 H   0  0  0  0  0  0  0  0  0  0  0  0
    6.9125    3.6257    0.4789 H   0  0  0  0  0  0  0  0  0  0  0  0
    6.9437    6.0388    0.6051 H   0  0  0  0  0  0  0  0  0  0  0  0
   11.2066    7.2366    2.4442 H   0  0  0  0  0  0  0  0  0  0  0  0
   13.2179    6.0553    3.0966 H   0  0  0  0  0  0  0  0  0  0  0  0
   13.2529    3.5802    3.0995 H   0  0  0  0  0  0  0  0  0  0  0  0
   11.2834    2.3095    2.4812 H   0  0  0  0  0  0  0  0  0  0  0  0
    9.1359   -1.2570    1.5205 H   0  0  0  0  0  0  0  0  0  0  0  0
    8.3626   -3.5941    1.4735 H   0  0  0  0  0  0  0  0  0  0  0  0
    5.9447   -4.1300    1.4691 H   0  0  0  0  0  0  0  0  0  0  0  0
    4.2753   -2.3063    1.5151 H   0  0  0  0  0  0  0  0  0  0  0  0
  1  2  1  0  0  0  0
  1 26  1  0  0  0  0
  1 27  1  0  0  0  0
  1 28  1  0  0  0  0
  2  3  1  0  0  0  0
  2 29  1  0  0  0  0
  2 30  1  0  0  0  0
  3  4  1  0  0  0  0
  3 31  1  0  0  0  0
  3 32  1  0  0  0  0
  4 25  1  0  0  0  0
  4  5  1  0  0  0  0
  5  6  2  0  0  0  0
  5 33  1  0  0  0  0
  6  7  1  0  0  0  0
  6 20  1  0  0  0  0
  7  8  2  0  0  0  0
  7  9  1  0  0  0  0
  9 18  2  0  0  0  0
  9 10  1  0  0  0  0
 10 11  2  0  0  0  0
 10 34  1  0  0  0  0
 11 12  1  0  0  0  0
 11 35  1  0  0  0  0
 12 13  2  0  0  0  0
 12 19  1  0  0  0  0
 13 18  1  0  0  0  0
 13 14  1  0  0  0  0
 14 15  2  0  0  0  0
 14 36  1  0  0  0  0
 15 16  1  0  0  0  0
 15 37  1  0  0  0  0
 16 17  2  0  0  0  0
 16 38  1  0  0  0  0
 17 18  1  0  0  0  0
 17 39  1  0  0  0  0
 20 25  2  0  0  0  0
 20 21  1  0  0  0  0
 21 22  2  0  0  0  0
 21 40  1  0  0  0  0
 22 23  1  0  0  0  0
 22 41  1  0  0  0  0
 23 24  2  0  0  0  0
 23 42  1  0  0  0  0
 24 25  1  0  0  0  0
 24 43  1  0  0  0  0
M  END
$$$$
CHEMBL2206854
 OpenBabel12022418103D

 46 49  0  0  0  0  0  0  0  0999 V2000
    1.3754   -0.8319   -2.1149 C   0  0  0  0  0  0  0  0  0  0  0  0
    2.8913   -0.7438   -2.2660 C   0  0  0  0  0  0  0  0  0  0  0  0
    3.6148   -0.6502   -0.9168 C   0  0  0  0  0  0  0  0  0  0  0  0
    5.0821   -0.6391   -1.0300 N   0  0  0  0  0  0  0  0  0  0  0  0
    5.9126    0.4798   -1.1328 C   0  0  0  0  0  0  0  0  0  0  0  0
    5.2666    1.8199   -1.2696 C   0  0  0  0  0  0  0  0  0  0  0  0
    7.2630    0.0605   -1.0708 C   0  0  0  0  0  0  0  0  0  0  0  0
    8.6177    0.7781   -1.1004 C   0  0  0  0  0  0  0  0  0  0  0  0
    9.6434    0.0906   -1.0566 O   0  0  0  0  0  0  0  0  0  0  0  0
    8.8777    2.2784   -1.1587 C   0  0  0  0  0  0  0  0  0  0  0  0
    7.9336    3.1207   -0.5751 C   0  0  0  0  0  0  0  0  0  0  0  0
    7.9830    4.5021   -0.7263 C   0  0  0  0  0  0  0  0  0  0  0  0
    9.0707    5.0853   -1.3446 C   0  0  0  0  0  0  0  0  0  0  0  0
   10.1642    4.3274   -1.7478 C   0  0  0  0  0  0  0  0  0  0  0  0
   11.3149    5.0187   -2.1814 C   0  0  0  0  0  0  0  0  0  0  0  0
   12.4833    4.3441   -2.4999 C   0  0  0  0  0  0  0  0  0  0  0  0
   12.4907    2.9627   -2.4320 C   0  0  0  0  0  0  0  0  0  0  0  0
   11.3267    2.2551   -2.0519 C   0  0  0  0  0  0  0  0  0  0  0  0
   10.1091    2.8980   -1.6646 C   0  0  0  0  0  0  0  0  0  0  0  0
    9.0809    6.4255   -1.4800 F   0  0  0  0  0  0  0  0  0  0  0  0
    7.1700   -1.4155   -1.0167 C   0  0  0  0  0  0  0  0  0  0  0  0
    8.1214   -2.4698   -0.9767 C   0  0  0  0  0  0  0  0  0  0  0  0
    7.7199   -3.8152   -0.9462 C   0  0  0  0  0  0  0  0  0  0  0  0
    6.3740   -4.1484   -0.9449 C   0  0  0  0  0  0  0  0  0  0  0  0
    5.4086   -3.1455   -0.9719 C   0  0  0  0  0  0  0  0  0  0  0  0
    5.8255   -1.7962   -1.0069 C   0  0  0  0  0  0  0  0  0  0  0  0
    0.9036   -0.9421   -3.0982 H   0  0  0  0  0  0  0  0  0  0  0  0
    0.9672    0.0713   -1.6500 H   0  0  0  0  0  0  0  0  0  0  0  0
    1.0815   -1.6946   -1.5081 H   0  0  0  0  0  0  0  0  0  0  0  0
    3.1321    0.1272   -2.8848 H   0  0  0  0  0  0  0  0  0  0  0  0
    3.2374   -1.6253   -2.8180 H   0  0  0  0  0  0  0  0  0  0  0  0
    3.3386   -1.5046   -0.2859 H   0  0  0  0  0  0  0  0  0  0  0  0
    3.3083    0.2372   -0.3535 H   0  0  0  0  0  0  0  0  0  0  0  0
    4.2497    1.7643   -1.6653 H   0  0  0  0  0  0  0  0  0  0  0  0
    5.8174    2.4532   -1.9659 H   0  0  0  0  0  0  0  0  0  0  0  0
    5.1785    2.2992   -0.2889 H   0  0  0  0  0  0  0  0  0  0  0  0
    7.1481    2.7051    0.0450 H   0  0  0  0  0  0  0  0  0  0  0  0
    7.1922    5.1375   -0.3386 H   0  0  0  0  0  0  0  0  0  0  0  0
   11.3171    6.1097   -2.2262 H   0  0  0  0  0  0  0  0  0  0  0  0
   13.3783    4.9006   -2.7775 H   0  0  0  0  0  0  0  0  0  0  0  0
   13.4099    2.4257   -2.6587 H   0  0  0  0  0  0  0  0  0  0  0  0
   11.4201    1.1720   -2.0061 H   0  0  0  0  0  0  0  0  0  0  0  0
    9.1854   -2.2471   -0.9803 H   0  0  0  0  0  0  0  0  0  0  0  0
    8.4691   -4.6015   -0.9286 H   0  0  0  0  0  0  0  0  0  0  0  0
    6.0703   -5.1928   -0.9234 H   0  0  0  0  0  0  0  0  0  0  0  0
    4.3570   -3.4161   -0.9734 H   0  0  0  0  0  0  0  0  0  0  0  0
  1  2  1  0  0  0  0
  1 27  1  0  0  0  0
  1 28  1  0  0  0  0
  1 29  1  0  0  0  0
  2  3  1  0  0  0  0
  2 30  1  0  0  0  0
  2 31  1  0  0  0  0
  3  4  1  0  0  0  0
  3 32  1  0  0  0  0
  3 33  1  0  0  0  0
  4 26  1  0  0  0  0
  4  5  1  0  0  0  0
  5  6  1  0  0  0  0
  5  7  2  0  0  0  0
  6 34  1  0  0  0  0
  6 35  1  0  0  0  0
  6 36  1  0  0  0  0
  7  8  1  0  0  0  0
  7 21  1  0  0  0  0
  8  9  2  0  0  0  0
  8 10  1  0  0  0  0
 10 19  2  0  0  0  0
 10 11  1  0  0  0  0
 11 12  2  0  0  0  0
 11 37  1  0  0  0  0
 12 13  1  0  0  0  0
 12 38  1  0  0  0  0
 13 14  2  0  0  0  0
 13 20  1  0  0  0  0
 14 19  1  0  0  0  0
 14 15  1  0  0  0  0
 15 16  2  0  0  0  0
 15 39  1  0  0  0  0
 16 17  1  0  0  0  0
 16 40  1  0  0  0  0
 17 18  2  0  0  0  0
 17 41  1  0  0  0  0
 18 19  1  0  0  0  0
 18 42  1  0  0  0  0
 21 26  2  0  0  0  0
 21 22  1  0  0  0  0
 22 23  2  0  0  0  0
 22 43  1  0  0  0  0
 23 24  1  0  0  0  0
 23 44  1  0  0  0  0
 24 25  2  0  0  0  0
 24 45  1  0  0  0  0
 25 26  1  0  0  0  0
 25 46  1  0  0  0  0
M  END
$$$$
CHEMBL2206843
 OpenBabel12022418103D

 52 55  0  0  0  0  0  0  0  0999 V2000
   -2.0177   -0.9152    0.1143 C   0  0  0  0  0  0  0  0  0  0  0  0
   -2.0765    0.4556   -0.0854 C   0  0  0  0  0  0  0  0  0  0  0  0
   -0.9083    1.2233   -0.0891 C   0  0  0  0  0  0  0  0  0  0  0  0
    0.3281    0.5781    0.1189 C   0  0  0  0  0  0  0  0  0  0  0  0
    0.4088   -0.7947    0.3554 C   0  0  0  0  0  0  0  0  0  0  0  0
   -0.7906   -1.5457    0.3369 C   0  0  0  0  0  0  0  0  0  0  0  0
    1.7940   -1.1330    0.5814 C   0  0  0  0  0  0  0  0  0  0  0  0
    2.5174    0.0149    0.2429 C   0  0  0  0  0  0  0  0  0  0  0  0
    3.9728    0.2228   -0.0116 C   0  0  0  0  0  0  0  0  0  0  0  0
    1.6192    1.0703    0.1340 N   0  0  0  0  0  0  0  0  0  0  0  0
    1.9588    2.4827   -0.0277 C   0  0  0  0  0  0  0  0  0  0  0  0
    1.4885    3.3752    1.1202 C   0  0  0  0  0  0  0  0  0  0  0  0
    1.9878    4.8221    0.9580 C   0  0  0  0  0  0  0  0  0  0  0  0
    1.4393    5.7097    2.0785 C   0  0  0  0  0  0  0  0  0  0  0  0
    1.9019    7.1528    1.9564 C   0  0  0  0  0  0  0  0  0  0  0  0
    2.2524   -2.4771    1.0173 C   0  0  0  0  0  0  0  0  0  0  0  0
    1.5071   -3.4547    0.9853 O   0  0  0  0  0  0  0  0  0  0  0  0
    3.6542   -2.7515    1.4402 C   0  0  0  0  0  0  0  0  0  0  0  0
    4.2633   -3.8444    0.7863 C   0  0  0  0  0  0  0  0  0  0  0  0
    5.6256   -4.0733    0.9136 C   0  0  0  0  0  0  0  0  0  0  0  0
    6.4028   -3.1440    1.5906 C   0  0  0  0  0  0  0  0  0  0  0  0
    5.8134   -2.0426    2.2300 C   0  0  0  0  0  0  0  0  0  0  0  0
    4.4040   -1.9217    2.3212 C   0  0  0  0  0  0  0  0  0  0  0  0
    3.9123   -0.9580    3.2488 C   0  0  0  0  0  0  0  0  0  0  0  0
    4.7550    0.0167    3.7895 C   0  0  0  0  0  0  0  0  0  0  0  0
    6.0891    0.0570    3.4137 C   0  0  0  0  0  0  0  0  0  0  0  0
    6.6322   -1.0223    2.7277 C   0  0  0  0  0  0  0  0  0  0  0  0
    2.2818   -0.9701    3.8298 Cl  0  0  0  0  0  0  0  0  0  0  0  0
   -2.9284   -1.5117    0.0862 H   0  0  0  0  0  0  0  0  0  0  0  0
   -3.0375    0.9378   -0.2441 H   0  0  0  0  0  0  0  0  0  0  0  0
   -0.9742    2.2932   -0.2540 H   0  0  0  0  0  0  0  0  0  0  0  0
   -0.7596   -2.6236    0.4708 H   0  0  0  0  0  0  0  0  0  0  0  0
    4.4928   -0.7180   -0.2012 H   0  0  0  0  0  0  0  0  0  0  0  0
    4.4483    0.7395    0.8263 H   0  0  0  0  0  0  0  0  0  0  0  0
    4.1249    0.8270   -0.9119 H   0  0  0  0  0  0  0  0  0  0  0  0
    1.5299    2.8051   -0.9887 H   0  0  0  0  0  0  0  0  0  0  0  0
    3.0448    2.5670   -0.1190 H   0  0  0  0  0  0  0  0  0  0  0  0
    1.8454    2.9763    2.0749 H   0  0  0  0  0  0  0  0  0  0  0  0
    0.3984    3.3908    1.1718 H   0  0  0  0  0  0  0  0  0  0  0  0
    1.6714    5.2195   -0.0142 H   0  0  0  0  0  0  0  0  0  0  0  0
    3.0847    4.8417    0.9740 H   0  0  0  0  0  0  0  0  0  0  0  0
    1.7564    5.3146    3.0505 H   0  0  0  0  0  0  0  0  0  0  0  0
    0.3433    5.6874    2.0623 H   0  0  0  0  0  0  0  0  0  0  0  0
    2.9929    7.2239    2.0054 H   0  0  0  0  0  0  0  0  0  0  0  0
    1.4870    7.7494    2.7758 H   0  0  0  0  0  0  0  0  0  0  0  0
    1.5675    7.5967    1.0134 H   0  0  0  0  0  0  0  0  0  0  0  0
    3.6714   -4.5036    0.1535 H   0  0  0  0  0  0  0  0  0  0  0  0
    6.0902   -4.9269    0.4257 H   0  0  0  0  0  0  0  0  0  0  0  0
    7.4833   -3.2832    1.6151 H   0  0  0  0  0  0  0  0  0  0  0  0
    4.3706    0.7587    4.4840 H   0  0  0  0  0  0  0  0  0  0  0  0
    6.7116    0.9064    3.6774 H   0  0  0  0  0  0  0  0  0  0  0  0
    7.7039   -1.0384    2.5367 H   0  0  0  0  0  0  0  0  0  0  0  0
  1  6  2  0  0  0  0
  1  2  1  0  0  0  0
  1 29  1  0  0  0  0
  2  3  2  0  0  0  0
  2 30  1  0  0  0  0
  3  4  1  0  0  0  0
  3 31  1  0  0  0  0
  4 10  1  0  0  0  0
  4  5  2  0  0  0  0
  5  6  1  0  0  0  0
  5  7  1  0  0  0  0
  6 32  1  0  0  0  0
  7  8  2  0  0  0  0
  7 16  1  0  0  0  0
  8  9  1  0  0  0  0
  8 10  1  0  0  0  0
  9 33  1  0  0  0  0
  9 34  1  0  0  0  0
  9 35  1  0  0  0  0
 10 11  1  0  0  0  0
 11 12  1  0  0  0  0
 11 36  1  0  0  0  0
 11 37  1  0  0  0  0
 12 13  1  0  0  0  0
 12 38  1  0  0  0  0
 12 39  1  0  0  0  0
 13 14  1  0  0  0  0
 13 40  1  0  0  0  0
 13 41  1  0  0  0  0
 14 15  1  0  0  0  0
 14 42  1  0  0  0  0
 14 43  1  0  0  0  0
 15 44  1  0  0  0  0
 15 45  1  0  0  0  0
 15 46  1  0  0  0  0
 16 17  2  0  0  0  0
 16 18  1  0  0  0  0
 18 23  2  0  0  0  0
 18 19  1  0  0  0  0
 19 20  2  0  0  0  0
 19 47  1  0  0  0  0
 20 21  1  0  0  0  0
 20 48  1  0  0  0  0
 21 22  2  0  0  0  0
 21 49  1  0  0  0  0
 22 27  1  0  0  0  0
 22 23  1  0  0  0  0
 23 24  1  0  0  0  0
 24 25  2  0  0  0  0
 24 28  1  0  0  0  0
 25 26  1  0  0  0  0
 25 50  1  0  0  0  0
 26 27  2  0  0  0  0
 26 51  1  0  0  0  0
 27 52  1  0  0  0  0
M  END
$$$$
CHEMBL2206858
 OpenBabel12022418103D

 46 49  0  0  0  0  0  0  0  0999 V2000
    1.2654    1.1737   -2.2700 C   0  0  0  0  0  0  0  0  0  0  0  0
    2.7762    1.3848   -2.3611 C   0  0  0  0  0  0  0  0  0  0  0  0
    3.4380    1.3737   -0.9764 C   0  0  0  0  0  0  0  0  0  0  0  0
    4.9033    1.4388   -0.9902 N   0  0  0  0  0  0  0  0  0  0  0  0
    5.7165    2.5752   -0.9045 C   0  0  0  0  0  0  0  0  0  0  0  0
    5.1444    3.9495   -0.9953 C   0  0  0  0  0  0  0  0  0  0  0  0
    7.0542    2.1539   -0.8200 C   0  0  0  0  0  0  0  0  0  0  0  0
    8.3601    2.8771   -0.7986 C   0  0  0  0  0  0  0  0  0  0  0  0
    9.3629    2.2748   -1.2045 O   0  0  0  0  0  0  0  0  0  0  0  0
    8.6829    4.2980   -0.4033 C   0  0  0  0  0  0  0  0  0  0  0  0
    9.6482    4.8998   -1.2491 C   0  0  0  0  0  0  0  0  0  0  0  0
   10.1955    6.1547   -0.9943 C   0  0  0  0  0  0  0  0  0  0  0  0
    9.8009    6.8586    0.1309 C   0  0  0  0  0  0  0  0  0  0  0  0
    8.9255    6.2713    1.0706 C   0  0  0  0  0  0  0  0  0  0  0  0
    8.6591    6.9225    2.2996 C   0  0  0  0  0  0  0  0  0  0  0  0
    7.9141    6.3167    3.2990 C   0  0  0  0  0  0  0  0  0  0  0  0
    7.3979    5.0517    3.0792 C   0  0  0  0  0  0  0  0  0  0  0  0
    7.6096    4.3915    1.8588 C   0  0  0  0  0  0  0  0  0  0  0  0
    8.3730    4.9641    0.8159 C   0  0  0  0  0  0  0  0  0  0  0  0
   10.4844    8.4443    0.3253 Cl  0  0  0  0  0  0  0  0  0  0  0  0
    7.0012    0.6979   -0.9280 C   0  0  0  0  0  0  0  0  0  0  0  0
    7.9910   -0.3180   -0.9669 C   0  0  0  0  0  0  0  0  0  0  0  0
    7.6408   -1.6654   -1.1156 C   0  0  0  0  0  0  0  0  0  0  0  0
    6.3130   -2.0377   -1.2322 C   0  0  0  0  0  0  0  0  0  0  0  0
    5.3122   -1.0633   -1.2092 C   0  0  0  0  0  0  0  0  0  0  0  0
    5.6747    0.3013   -1.0484 C   0  0  0  0  0  0  0  0  0  0  0  0
    0.8056    1.2506   -3.2618 H   0  0  0  0  0  0  0  0  0  0  0  0
    0.7960    1.9227   -1.6242 H   0  0  0  0  0  0  0  0  0  0  0  0
    1.0259    0.1815   -1.8715 H   0  0  0  0  0  0  0  0  0  0  0  0
    2.9736    2.3383   -2.8628 H   0  0  0  0  0  0  0  0  0  0  0  0
    3.1980    0.5980   -2.9983 H   0  0  0  0  0  0  0  0  0  0  0  0
    3.1621    0.4497   -0.4510 H   0  0  0  0  0  0  0  0  0  0  0  0
    3.0643    2.1864   -0.3483 H   0  0  0  0  0  0  0  0  0  0  0  0
    4.0497    3.9548   -1.0148 H   0  0  0  0  0  0  0  0  0  0  0  0
    5.4779    4.4354   -1.9185 H   0  0  0  0  0  0  0  0  0  0  0  0
    5.4493    4.5565   -0.1433 H   0  0  0  0  0  0  0  0  0  0  0  0
   10.0392    4.3522   -2.1080 H   0  0  0  0  0  0  0  0  0  0  0  0
   10.9542    6.5598   -1.6598 H   0  0  0  0  0  0  0  0  0  0  0  0
    9.0758    7.9043    2.5206 H   0  0  0  0  0  0  0  0  0  0  0  0
    7.7697    6.8224    4.2513 H   0  0  0  0  0  0  0  0  0  0  0  0
    6.8374    4.5592    3.8748 H   0  0  0  0  0  0  0  0  0  0  0  0
    7.1957    3.3916    1.7539 H   0  0  0  0  0  0  0  0  0  0  0  0
    9.0441   -0.0594   -0.8962 H   0  0  0  0  0  0  0  0  0  0  0  0
    8.4212   -2.4201   -1.1464 H   0  0  0  0  0  0  0  0  0  0  0  0
    6.0508   -3.0867   -1.3467 H   0  0  0  0  0  0  0  0  0  0  0  0
    4.2705   -1.3600   -1.3076 H   0  0  0  0  0  0  0  0  0  0  0  0
  1  2  1  0  0  0  0
  1 27  1  0  0  0  0
  1 28  1  0  0  0  0
  1 29  1  0  0  0  0
  2  3  1  0  0  0  0
  2 30  1  0  0  0  0
  2 31  1  0  0  0  0
  3  4  1  0  0  0  0
  3 32  1  0  0  0  0
  3 33  1  0  0  0  0
  4 26  1  0  0  0  0
  4  5  1  0  0  0  0
  5  6  1  0  0  0  0
  5  7  2  0  0  0  0
  6 34  1  0  0  0  0
  6 35  1  0  0  0  0
  6 36  1  0  0  0  0
  7  8  1  0  0  0  0
  7 21  1  0  0  0  0
  8  9  2  0  0  0  0
  8 10  1  0  0  0  0
 10 19  2  0  0  0  0
 10 11  1  0  0  0  0
 11 12  2  0  0  0  0
 11 37  1  0  0  0  0
 12 13  1  0  0  0  0
 12 38  1  0  0  0  0
 13 14  2  0  0  0  0
 13 20  1  0  0  0  0
 14 19  1  0  0  0  0
 14 15  1  0  0  0  0
 15 16  2  0  0  0  0
 15 39  1  0  0  0  0
 16 17  1  0  0  0  0
 16 40  1  0  0  0  0
 17 18  2  0  0  0  0
 17 41  1  0  0  0  0
 18 19  1  0  0  0  0
 18 42  1  0  0  0  0
 21 26  2  0  0  0  0
 21 22  1  0  0  0  0
 22 23  2  0  0  0  0
 22 43  1  0  0  0  0
 23 24  1  0  0  0  0
 23 44  1  0  0  0  0
 24 25  2  0  0  0  0
 24 45  1  0  0  0  0
 25 26  1  0  0  0  0
 25 46  1  0  0  0  0
M  END
$$$$
CHEMBL2112291
 OpenBabel12022418103D

 63 66  0  0  1  0  0  0  0  0999 V2000
    1.8751   -1.8845    1.2867 C   0  0  0  0  0  0  0  0  0  0  0  0
    2.8623   -1.0136    0.7450 O   0  0  0  0  0  0  0  0  0  0  0  0
    3.3002   -0.0669    1.7251 C   0  0  0  0  0  0  0  0  0  0  0  0
    4.4518    0.7641    1.1630 C   0  0  0  0  0  0  0  0  0  0  0  0
    4.8974    1.7977    2.0923 N   0  0  0  0  0  0  0  0  0  0  0  0
    4.7002    3.1653    1.9601 C   0  0  0  0  0  0  0  0  0  0  0  0
    4.1631    3.8141    0.7212 C   0  0  0  0  0  0  0  0  0  0  0  0
    5.1341    3.7720    3.1419 C   0  0  0  0  0  0  0  0  0  0  0  0
    5.1459    5.2052    3.4970 C   0  0  0  0  0  0  0  0  0  0  0  0
    5.9679    5.6741    4.2810 O   0  0  0  0  0  0  0  0  0  0  0  0
    4.1430    5.9827    2.9452 N   0  0  0  0  0  0  0  0  0  0  0  0
    3.9559    7.3746    3.3367 C   0  0  2  0  0  0  0  0  0  0  0  0
    2.9887    7.6090    4.5527 C   0  0  0  0  0  0  0  0  0  0  0  0
    2.3115    6.3507    5.1155 C   0  0  0  0  0  0  0  0  0  0  0  0
    3.7594    8.2662    5.7213 C   0  0  0  0  0  0  0  0  0  0  0  0
    1.9642    8.6288    3.9522 C   0  0  2  0  0  0  0  0  0  0  0  0
    1.0443    7.9722    2.9037 C   0  0  0  0  0  0  0  0  0  0  0  0
    1.9895    7.7043    1.7236 C   0  0  0  0  0  0  0  0  0  0  0  0
    3.3339    8.2780    2.2218 C   0  0  2  0  0  0  0  0  0  0  0  0
    4.2997    8.6613    1.1173 C   0  0  0  0  0  0  0  0  0  0  0  0
    2.8430    9.4853    3.0364 C   0  0  0  0  0  0  0  0  0  0  0  0
    5.6660    2.7261    3.9706 C   0  0  0  0  0  0  0  0  0  0  0  0
    6.2385    2.7255    5.2615 C   0  0  0  0  0  0  0  0  0  0  0  0
    6.6913    1.5369    5.8302 C   0  0  0  0  0  0  0  0  0  0  0  0
    6.6066    0.3459    5.1214 C   0  0  0  0  0  0  0  0  0  0  0  0
    6.0534    0.2980    3.8325 C   0  0  0  0  0  0  0  0  0  0  0  0
    5.5592    1.5127    3.2845 C   0  0  0  0  0  0  0  0  0  0  0  0
    5.9778   -0.8462    3.0798 O   0  0  0  0  0  0  0  0  0  0  0  0
    6.3775   -2.0669    3.6927 C   0  0  0  0  0  0  0  0  0  0  0  0
    1.5763   -2.5963    0.5131 H   0  0  0  0  0  0  0  0  0  0  0  0
    0.9955   -1.3141    1.6004 H   0  0  0  0  0  0  0  0  0  0  0  0
    2.2818   -2.4438    2.1355 H   0  0  0  0  0  0  0  0  0  0  0  0
    3.5998   -0.6056    2.6285 H   0  0  0  0  0  0  0  0  0  0  0  0
    2.4607    0.5858    1.9907 H   0  0  0  0  0  0  0  0  0  0  0  0
    4.1331    1.2185    0.2232 H   0  0  0  0  0  0  0  0  0  0  0  0
    5.3160    0.1458    0.8957 H   0  0  0  0  0  0  0  0  0  0  0  0
    4.1669    3.1669   -0.1575 H   0  0  0  0  0  0  0  0  0  0  0  0
    4.7736    4.6845    0.4581 H   0  0  0  0  0  0  0  0  0  0  0  0
    3.1332    4.1456    0.8825 H   0  0  0  0  0  0  0  0  0  0  0  0
    3.3665    5.4803    2.5449 H   0  0  0  0  0  0  0  0  0  0  0  0
    4.9478    7.7785    3.5813 H   0  0  0  0  0  0  0  0  0  0  0  0
    3.0352    5.7097    5.6317 H   0  0  0  0  0  0  0  0  0  0  0  0
    1.8377    5.7398    4.3423 H   0  0  0  0  0  0  0  0  0  0  0  0
    1.5383    6.6236    5.8430 H   0  0  0  0  0  0  0  0  0  0  0  0
    4.4898    7.5699    6.1481 H   0  0  0  0  0  0  0  0  0  0  0  0
    3.0733    8.5672    6.5211 H   0  0  0  0  0  0  0  0  0  0  0  0
    4.3120    9.1593    5.4137 H   0  0  0  0  0  0  0  0  0  0  0  0
    1.4104    9.1930    4.7072 H   0  0  0  0  0  0  0  0  0  0  0  0
    0.2633    8.6781    2.5940 H   0  0  0  0  0  0  0  0  0  0  0  0
    0.5372    7.0702    3.2515 H   0  0  0  0  0  0  0  0  0  0  0  0
    1.6312    8.2398    0.8360 H   0  0  0  0  0  0  0  0  0  0  0  0
    2.0318    6.6439    1.4637 H   0  0  0  0  0  0  0  0  0  0  0  0
    4.6752    7.7804    0.5892 H   0  0  0  0  0  0  0  0  0  0  0  0
    5.1591    9.2066    1.5242 H   0  0  0  0  0  0  0  0  0  0  0  0
    3.8179    9.3184    0.3847 H   0  0  0  0  0  0  0  0  0  0  0  0
    3.6444   10.0237    3.5494 H   0  0  0  0  0  0  0  0  0  0  0  0
    2.2683   10.2050    2.4409 H   0  0  0  0  0  0  0  0  0  0  0  0
    6.3326    3.6553    5.8171 H   0  0  0  0  0  0  0  0  0  0  0  0
    7.1242    1.5476    6.8269 H   0  0  0  0  0  0  0  0  0  0  0  0
    6.9908   -0.5463    5.6056 H   0  0  0  0  0  0  0  0  0  0  0  0
    6.1989   -2.8763    2.9782 H   0  0  0  0  0  0  0  0  0  0  0  0
    5.7785   -2.2779    4.5852 H   0  0  0  0  0  0  0  0  0  0  0  0
    7.4476   -2.0602    3.9248 H   0  0  0  0  0  0  0  0  0  0  0  0
  1  2  1  0  0  0  0
  1 30  1  0  0  0  0
  1 31  1  0  0  0  0
  1 32  1  0  0  0  0
  2  3  1  0  0  0  0
  3  4  1  0  0  0  0
  3 33  1  0  0  0  0
  3 34  1  0  0  0  0
  4  5  1  0  0  0  0
  4 35  1  0  0  0  0
  4 36  1  0  0  0  0
  5 27  1  0  0  0  0
  5  6  1  0  0  0  0
  6  7  1  0  0  0  0
  6  8  2  0  0  0  0
  7 37  1  0  0  0  0
  7 38  1  0  0  0  0
  7 39  1  0  0  0  0
  8  9  1  0  0  0  0
  8 22  1  0  0  0  0
  9 10  2  0  0  0  0
  9 11  1  0  0  0  0
 11 40  1  0  0  0  0
 12 11  1  0  0  0  0
 12 13  1  0  0  0  0
 12 19  1  0  0  0  0
 12 41  1  1  0  0  0
 13 14  1  0  0  0  0
 13 15  1  0  0  0  0
 13 16  1  0  0  0  0
 14 42  1  0  0  0  0
 14 43  1  0  0  0  0
 14 44  1  0  0  0  0
 15 45  1  0  0  0  0
 15 46  1  0  0  0  0
 15 47  1  0  0  0  0
 16 17  1  0  0  0  0
 16 21  1  0  0  0  0
 16 48  1  1  0  0  0
 17 18  1  0  0  0  0
 17 49  1  0  0  0  0
 17 50  1  0  0  0  0
 18 19  1  0  0  0  0
 18 51  1  0  0  0  0
 18 52  1  0  0  0  0
 19 20  1  6  0  0  0
 19 21  1  0  0  0  0
 20 53  1  0  0  0  0
 20 54  1  0  0  0  0
 20 55  1  0  0  0  0
 21 56  1  0  0  0  0
 21 57  1  0  0  0  0
 22 27  2  0  0  0  0
 22 23  1  0  0  0  0
 23 24  2  0  0  0  0
 23 58  1  0  0  0  0
 24 25  1  0  0  0  0
 24 59  1  0  0  0  0
 25 26  2  0  0  0  0
 25 60  1  0  0  0  0
 26 27  1  0  0  0  0
 26 28  1  0  0  0  0
 28 29  1  0  0  0  0
 29 61  1  0  0  0  0
 29 62  1  0  0  0  0
 29 63  1  0  0  0  0
M  END
$$$$
CHEMBL3114180
 OpenBabel12022418103D

 47 48  0  0  0  0  0  0  0  0999 V2000
    6.3821    1.4482   -1.3992 C   0  0  0  0  0  0  0  0  0  0  0  0
    5.2524    0.7061   -0.7025 C   0  0  0  0  0  0  0  0  0  0  0  0
    5.7340    0.0818    0.6056 C   0  0  0  0  0  0  0  0  0  0  0  0
    4.6013   -0.6423    1.3327 C   0  0  0  0  0  0  0  0  0  0  0  0
    5.0358   -1.2618    2.5891 N   0  0  0  0  0  0  0  0  0  0  0  0
    5.4806   -0.4476    3.6200 C   0  0  0  0  0  0  0  0  0  0  0  0
    5.8541   -0.9507    4.8033 C   0  0  0  0  0  0  0  0  0  0  0  0
    5.7594   -2.3743    5.0255 C   0  0  0  0  0  0  0  0  0  0  0  0
    5.3293   -3.2139    4.0655 C   0  0  0  0  0  0  0  0  0  0  0  0
    5.2372   -4.6690    4.4051 C   0  0  0  0  0  0  0  0  0  0  0  0
    5.5311   -5.0817    5.5233 O   0  0  0  0  0  0  0  0  0  0  0  0
    4.7936   -5.4937    3.3996 N   0  0  0  0  0  0  0  0  0  0  0  0
    4.5413   -6.9171    3.5968 C   0  0  0  0  0  0  0  0  0  0  0  0
    3.1715   -7.1410    4.2570 C   0  0  0  0  0  0  0  0  0  0  0  0
    2.0085   -7.3544    3.2880 C   0  0  0  0  0  0  0  0  0  0  0  0
    1.8419   -8.8211    2.8891 C   0  0  0  0  0  0  0  0  0  0  0  0
    2.8965   -9.3740    1.9339 C   0  0  0  0  0  0  0  0  0  0  0  0
    4.3515   -9.1396    2.3346 C   0  0  0  0  0  0  0  0  0  0  0  0
    4.7601   -7.6688    2.2770 C   0  0  0  0  0  0  0  0  0  0  0  0
    4.9463   -2.6513    2.7295 C   0  0  0  0  0  0  0  0  0  0  0  0
    4.5601   -3.3966    1.8290 O   0  0  0  0  0  0  0  0  0  0  0  0
    6.4764    0.1296    6.1880 Br  0  0  0  0  0  0  0  0  0  0  0  0
    6.0252    1.8887   -2.3332 H   0  0  0  0  0  0  0  0  0  0  0  0
    7.2092    0.7699   -1.6323 H   0  0  0  0  0  0  0  0  0  0  0  0
    6.7671    2.2544   -0.7660 H   0  0  0  0  0  0  0  0  0  0  0  0
    4.8616   -0.0724   -1.3683 H   0  0  0  0  0  0  0  0  0  0  0  0
    4.4309    1.4051   -0.5016 H   0  0  0  0  0  0  0  0  0  0  0  0
    6.1489    0.8722    1.2421 H   0  0  0  0  0  0  0  0  0  0  0  0
    6.5529   -0.6209    0.4060 H   0  0  0  0  0  0  0  0  0  0  0  0
    4.1770   -1.4033    0.6674 H   0  0  0  0  0  0  0  0  0  0  0  0
    3.7875    0.0522    1.5729 H   0  0  0  0  0  0  0  0  0  0  0  0
    5.5192    0.6200    3.4237 H   0  0  0  0  0  0  0  0  0  0  0  0
    6.0334   -2.7476    6.0107 H   0  0  0  0  0  0  0  0  0  0  0  0
    4.4866   -5.0599    2.5277 H   0  0  0  0  0  0  0  0  0  0  0  0
    5.2985   -7.2671    4.3095 H   0  0  0  0  0  0  0  0  0  0  0  0
    2.9329   -6.2896    4.9068 H   0  0  0  0  0  0  0  0  0  0  0  0
    3.2430   -8.0082    4.9265 H   0  0  0  0  0  0  0  0  0  0  0  0
    2.0936   -6.7106    2.4054 H   0  0  0  0  0  0  0  0  0  0  0  0
    1.0873   -7.0513    3.8014 H   0  0  0  0  0  0  0  0  0  0  0  0
    0.8613   -8.9397    2.4105 H   0  0  0  0  0  0  0  0  0  0  0  0
    1.8113   -9.4436    3.7922 H   0  0  0  0  0  0  0  0  0  0  0  0
    2.7262   -8.9608    0.9322 H   0  0  0  0  0  0  0  0  0  0  0  0
    2.7350  -10.4562    1.8452 H   0  0  0  0  0  0  0  0  0  0  0  0
    4.9790   -9.6924    1.6238 H   0  0  0  0  0  0  0  0  0  0  0  0
    4.5563   -9.5668    3.3233 H   0  0  0  0  0  0  0  0  0  0  0  0
    5.8285   -7.6097    2.0298 H   0  0  0  0  0  0  0  0  0  0  0  0
    4.2467   -7.1644    1.4479 H   0  0  0  0  0  0  0  0  0  0  0  0
  1  2  1  0  0  0  0
  1 23  1  0  0  0  0
  1 24  1  0  0  0  0
  1 25  1  0  0  0  0
  2  3  1  0  0  0  0
  2 26  1  0  0  0  0
  2 27  1  0  0  0  0
  3  4  1  0  0  0  0
  3 28  1  0  0  0  0
  3 29  1  0  0  0  0
  4  5  1  0  0  0  0
  4 30  1  0  0  0  0
  4 31  1  0  0  0  0
  5 20  1  0  0  0  0
  5  6  1  0  0  0  0
  6  7  2  0  0  0  0
  6 32  1  0  0  0  0
  7  8  1  0  0  0  0
  7 22  1  0  0  0  0
  8  9  2  0  0  0  0
  8 33  1  0  0  0  0
  9 10  1  0  0  0  0
  9 20  1  0  0  0  0
 10 11  2  0  0  0  0
 10 12  1  0  0  0  0
 12 13  1  0  0  0  0
 12 34  1  0  0  0  0
 13 19  1  0  0  0  0
 13 14  1  0  0  0  0
 13 35  1  0  0  0  0
 14 15  1  0  0  0  0
 14 36  1  0  0  0  0
 14 37  1  0  0  0  0
 15 16  1  0  0  0  0
 15 38  1  0  0  0  0
 15 39  1  0  0  0  0
 16 17  1  0  0  0  0
 16 40  1  0  0  0  0
 16 41  1  0  0  0  0
 17 18  1  0  0  0  0
 17 42  1  0  0  0  0
 17 43  1  0  0  0  0
 18 19  1  0  0  0  0
 18 44  1  0  0  0  0
 18 45  1  0  0  0  0
 19 46  1  0  0  0  0
 19 47  1  0  0  0  0
 20 21  2  0  0  0  0
M  END
$$$$
CHEMBL2206853
 OpenBabel12022418103D

 43 46  0  0  0  0  0  0  0  0999 V2000
    2.8866    2.4919    3.2766 C   0  0  0  0  0  0  0  0  0  0  0  0
    2.7728    1.2123    2.4654 C   0  0  0  0  0  0  0  0  0  0  0  0
    3.5372    1.2775    1.1385 C   0  0  0  0  0  0  0  0  0  0  0  0
    4.9942    1.2429    1.2520 N   0  0  0  0  0  0  0  0  0  0  0  0
    5.8448    2.3383    1.2069 C   0  0  0  0  0  0  0  0  0  0  0  0
    7.1807    1.9314    1.2361 C   0  0  0  0  0  0  0  0  0  0  0  0
    8.5068    2.6894    1.2462 C   0  0  0  0  0  0  0  0  0  0  0  0
    9.5405    2.0200    1.2702 O   0  0  0  0  0  0  0  0  0  0  0  0
    8.7257    4.2195    1.1985 C   0  0  0  0  0  0  0  0  0  0  0  0
    7.6179    5.0597    1.0337 C   0  0  0  0  0  0  0  0  0  0  0  0
    7.7470    6.4352    0.8461 C   0  0  0  0  0  0  0  0  0  0  0  0
    8.9930    7.0275    0.8562 C   0  0  0  0  0  0  0  0  0  0  0  0
   10.1375    6.2955    1.1086 C   0  0  0  0  0  0  0  0  0  0  0  0
   11.3535    7.0120    1.2051 C   0  0  0  0  0  0  0  0  0  0  0  0
   12.5492    6.3731    1.4879 C   0  0  0  0  0  0  0  0  0  0  0  0
   12.5336    4.9963    1.6445 C   0  0  0  0  0  0  0  0  0  0  0  0
   11.3320    4.2646    1.5332 C   0  0  0  0  0  0  0  0  0  0  0  0
   10.0576    4.8684    1.2772 C   0  0  0  0  0  0  0  0  0  0  0  0
    9.0599    8.3510    0.6310 F   0  0  0  0  0  0  0  0  0  0  0  0
    7.0754    0.4618    1.2382 C   0  0  0  0  0  0  0  0  0  0  0  0
    8.0222   -0.5985    1.1933 C   0  0  0  0  0  0  0  0  0  0  0  0
    7.6086   -1.9408    1.2167 C   0  0  0  0  0  0  0  0  0  0  0  0
    6.2626   -2.2671    1.2940 C   0  0  0  0  0  0  0  0  0  0  0  0
    5.3009   -1.2603    1.3282 C   0  0  0  0  0  0  0  0  0  0  0  0
    5.7238    0.0820    1.2845 C   0  0  0  0  0  0  0  0  0  0  0  0
    2.2840    2.4179    4.1880 H   0  0  0  0  0  0  0  0  0  0  0  0
    2.5226    3.3495    2.7019 H   0  0  0  0  0  0  0  0  0  0  0  0
    3.9217    2.6821    3.5713 H   0  0  0  0  0  0  0  0  0  0  0  0
    1.7094    1.0412    2.2493 H   0  0  0  0  0  0  0  0  0  0  0  0
    3.1081    0.3627    3.0716 H   0  0  0  0  0  0  0  0  0  0  0  0
    3.2585    2.1659    0.5632 H   0  0  0  0  0  0  0  0  0  0  0  0
    3.2415    0.4140    0.5274 H   0  0  0  0  0  0  0  0  0  0  0  0
    5.3618    3.2984    1.1540 H   0  0  0  0  0  0  0  0  0  0  0  0
    6.6128    4.6910    1.0407 H   0  0  0  0  0  0  0  0  0  0  0  0
    6.8664    7.0531    0.6888 H   0  0  0  0  0  0  0  0  0  0  0  0
   11.3649    8.0956    1.0768 H   0  0  0  0  0  0  0  0  0  0  0  0
   13.4715    6.9418    1.5819 H   0  0  0  0  0  0  0  0  0  0  0  0
   13.4732    4.4844    1.8632 H   0  0  0  0  0  0  0  0  0  0  0  0
   11.4170    3.1890    1.6739 H   0  0  0  0  0  0  0  0  0  0  0  0
    9.0832   -0.3769    1.1312 H   0  0  0  0  0  0  0  0  0  0  0  0
    8.3512   -2.7334    1.1737 H   0  0  0  0  0  0  0  0  0  0  0  0
    5.9529   -3.3093    1.3199 H   0  0  0  0  0  0  0  0  0  0  0  0
    4.2479   -1.5216    1.3797 H   0  0  0  0  0  0  0  0  0  0  0  0
  1  2  1  0  0  0  0
  1 26  1  0  0  0  0
  1 27  1  0  0  0  0
  1 28  1  0  0  0  0
  2  3  1  0  0  0  0
  2 29  1  0  0  0  0
  2 30  1  0  0  0  0
  3  4  1  0  0  0  0
  3 31  1  0  0  0  0
  3 32  1  0  0  0  0
  4 25  1  0  0  0  0
  4  5  1  0  0  0  0
  5  6  2  0  0  0  0
  5 33  1  0  0  0  0
  6  7  1  0  0  0  0
  6 20  1  0  0  0  0
  7  8  2  0  0  0  0
  7  9  1  0  0  0  0
  9 18  2  0  0  0  0
  9 10  1  0  0  0  0
 10 11  2  0  0  0  0
 10 34  1  0  0  0  0
 11 12  1  0  0  0  0
 11 35  1  0  0  0  0
 12 13  2  0  0  0  0
 12 19  1  0  0  0  0
 13 18  1  0  0  0  0
 13 14  1  0  0  0  0
 14 15  2  0  0  0  0
 14 36  1  0  0  0  0
 15 16  1  0  0  0  0
 15 37  1  0  0  0  0
 16 17  2  0  0  0  0
 16 38  1  0  0  0  0
 17 18  1  0  0  0  0
 17 39  1  0  0  0  0
 20 25  2  0  0  0  0
 20 21  1  0  0  0  0
 21 22  2  0  0  0  0
 21 40  1  0  0  0  0
 22 23  1  0  0  0  0
 22 41  1  0  0  0  0
 23 24  2  0  0  0  0
 23 42  1  0  0  0  0
 24 25  1  0  0  0  0
 24 43  1  0  0  0  0
M  END
$$$$
CHEMBL2206834
 OpenBabel12022418103D

 49 52  0  0  0  0  0  0  0  0999 V2000
    4.7003    7.8731   -1.0625 C   0  0  0  0  0  0  0  0  0  0  0  0
    4.4604    6.7223   -0.0962 C   0  0  0  0  0  0  0  0  0  0  0  0
    5.2119    5.4653   -0.5403 C   0  0  0  0  0  0  0  0  0  0  0  0
    5.0174    4.3049    0.4370 C   0  0  0  0  0  0  0  0  0  0  0  0
    5.7277    3.0221   -0.0163 C   0  0  0  0  0  0  0  0  0  0  0  0
    7.1857    3.0546    0.0692 N   0  0  0  0  0  0  0  0  0  0  0  0
    8.0471    3.2754   -0.9899 C   0  0  0  0  0  0  0  0  0  0  0  0
    9.3769    3.1470   -0.5894 C   0  0  0  0  0  0  0  0  0  0  0  0
   10.7018    3.2667   -1.3380 C   0  0  0  0  0  0  0  0  0  0  0  0
   11.7321    3.0201   -0.7102 O   0  0  0  0  0  0  0  0  0  0  0  0
   10.9053    3.7099   -2.8109 C   0  0  0  0  0  0  0  0  0  0  0  0
    9.7818    4.0681   -3.5578 C   0  0  0  0  0  0  0  0  0  0  0  0
    9.8625    4.6165   -4.8329 C   0  0  0  0  0  0  0  0  0  0  0  0
   11.0907    4.7922   -5.4431 C   0  0  0  0  0  0  0  0  0  0  0  0
   12.2713    4.3434   -4.8237 C   0  0  0  0  0  0  0  0  0  0  0  0
   13.5017    4.4057   -5.5289 C   0  0  0  0  0  0  0  0  0  0  0  0
   14.6916    3.9390   -4.9897 C   0  0  0  0  0  0  0  0  0  0  0  0
   14.6797    3.4350   -3.7049 C   0  0  0  0  0  0  0  0  0  0  0  0
   13.4774    3.3837   -2.9693 C   0  0  0  0  0  0  0  0  0  0  0  0
   12.2101    3.8040   -3.4850 C   0  0  0  0  0  0  0  0  0  0  0  0
   11.0346    5.6725   -7.1379 Br  0  0  0  0  0  0  0  0  0  0  0  0
    9.2587    2.8082    0.8406 C   0  0  0  0  0  0  0  0  0  0  0  0
   10.1930    2.5410    1.8677 C   0  0  0  0  0  0  0  0  0  0  0  0
    9.7550    2.2136    3.1682 C   0  0  0  0  0  0  0  0  0  0  0  0
    8.4031    2.1516    3.4727 C   0  0  0  0  0  0  0  0  0  0  0  0
    7.4565    2.4208    2.4907 C   0  0  0  0  0  0  0  0  0  0  0  0
    7.9034    2.7512    1.1966 C   0  0  0  0  0  0  0  0  0  0  0  0
    4.1612    8.7672   -0.7343 H   0  0  0  0  0  0  0  0  0  0  0  0
    4.3547    7.6182   -2.0696 H   0  0  0  0  0  0  0  0  0  0  0  0
    5.7654    8.1206   -1.1182 H   0  0  0  0  0  0  0  0  0  0  0  0
    3.3846    6.5187   -0.0386 H   0  0  0  0  0  0  0  0  0  0  0  0
    4.7880    7.0214    0.9063 H   0  0  0  0  0  0  0  0  0  0  0  0
    6.2785    5.6973   -0.6285 H   0  0  0  0  0  0  0  0  0  0  0  0
    4.8585    5.1651   -1.5342 H   0  0  0  0  0  0  0  0  0  0  0  0
    3.9427    4.0928    0.5191 H   0  0  0  0  0  0  0  0  0  0  0  0
    5.3558    4.5989    1.4379 H   0  0  0  0  0  0  0  0  0  0  0  0
    5.4523    2.7620   -1.0444 H   0  0  0  0  0  0  0  0  0  0  0  0
    5.3894    2.1886    0.6123 H   0  0  0  0  0  0  0  0  0  0  0  0
    7.5658    3.4918   -1.9263 H   0  0  0  0  0  0  0  0  0  0  0  0
    8.7850    3.9501   -3.1932 H   0  0  0  0  0  0  0  0  0  0  0  0
    8.9446    4.9137   -5.3343 H   0  0  0  0  0  0  0  0  0  0  0  0
   13.5549    4.7946   -6.5442 H   0  0  0  0  0  0  0  0  0  0  0  0
   15.6064    3.9695   -5.5782 H   0  0  0  0  0  0  0  0  0  0  0  0
   15.6078    3.0669   -3.2714 H   0  0  0  0  0  0  0  0  0  0  0  0
   13.5605    2.9675   -1.9685 H   0  0  0  0  0  0  0  0  0  0  0  0
   11.2623    2.5708    1.6643 H   0  0  0  0  0  0  0  0  0  0  0  0
   10.4892    2.0056    3.9460 H   0  0  0  0  0  0  0  0  0  0  0  0
    8.0794    1.8927    4.4769 H   0  0  0  0  0  0  0  0  0  0  0  0
    6.3982    2.3699    2.7323 H   0  0  0  0  0  0  0  0  0  0  0  0
  1  2  1  0  0  0  0
  1 28  1  0  0  0  0
  1 29  1  0  0  0  0
  1 30  1  0  0  0  0
  2  3  1  0  0  0  0
  2 31  1  0  0  0  0
  2 32  1  0  0  0  0
  3  4  1  0  0  0  0
  3 33  1  0  0  0  0
  3 34  1  0  0  0  0
  4  5  1  0  0  0  0
  4 35  1  0  0  0  0
  4 36  1  0  0  0  0
  5  6  1  0  0  0  0
  5 37  1  0  0  0  0
  5 38  1  0  0  0  0
  6 27  1  0  0  0  0
  6  7  1  0  0  0  0
  7  8  2  0  0  0  0
  7 39  1  0  0  0  0
  8  9  1  0  0  0  0
  8 22  1  0  0  0  0
  9 10  2  0  0  0  0
  9 11  1  0  0  0  0
 11 20  2  0  0  0  0
 11 12  1  0  0  0  0
 12 13  2  0  0  0  0
 12 40  1  0  0  0  0
 13 14  1  0  0  0  0
 13 41  1  0  0  0  0
 14 15  2  0  0  0  0
 14 21  1  0  0  0  0
 15 20  1  0  0  0  0
 15 16  1  0  0  0  0
 16 17  2  0  0  0  0
 16 42  1  0  0  0  0
 17 18  1  0  0  0  0
 17 43  1  0  0  0  0
 18 19  2  0  0  0  0
 18 44  1  0  0  0  0
 19 20  1  0  0  0  0
 19 45  1  0  0  0  0
 22 27  2  0  0  0  0
 22 23  1  0  0  0  0
 23 24  2  0  0  0  0
 23 46  1  0  0  0  0
 24 25  1  0  0  0  0
 24 47  1  0  0  0  0
 25 26  2  0  0  0  0
 25 48  1  0  0  0  0
 26 27  1  0  0  0  0
 26 49  1  0  0  0  0
M  END
$$$$
CHEMBL2112286
 OpenBabel12022418103D

 74 78  0  0  1  0  0  0  0  0999 V2000
    1.5844   -1.2951    0.0818 C   0  0  0  0  0  0  0  0  0  0  0  0
    2.3669   -0.1446    0.0445 C   0  0  0  0  0  0  0  0  0  0  0  0
    3.8545   -0.0747   -0.0228 C   0  0  0  0  0  0  0  0  0  0  0  0
    1.5205    0.9729    0.0097 N   0  0  0  0  0  0  0  0  0  0  0  0
    0.1855    0.5418    0.0226 C   0  0  0  0  0  0  0  0  0  0  0  0
    0.2212   -0.8627    0.0130 C   0  0  0  0  0  0  0  0  0  0  0  0
   -0.9963   -1.5905   -0.0288 C   0  0  0  0  0  0  0  0  0  0  0  0
   -2.2120   -0.9280   -0.0227 C   0  0  0  0  0  0  0  0  0  0  0  0
   -2.2454    0.4590    0.0283 C   0  0  0  0  0  0  0  0  0  0  0  0
   -1.0714    1.2350    0.0515 C   0  0  0  0  0  0  0  0  0  0  0  0
   -1.0889    2.6096    0.1130 O   0  0  0  0  0  0  0  0  0  0  0  0
   -2.3712    3.2422    0.1848 C   0  0  0  0  0  0  0  0  0  0  0  0
    1.9345    2.3948    0.0504 C   0  0  0  0  0  0  0  0  0  0  0  0
    3.2699    2.7520   -0.6494 C   0  0  0  0  0  0  0  0  0  0  0  0
    3.8152    4.1304   -0.6104 N   0  0  0  0  0  0  0  0  0  0  0  0
    4.0669    4.5575    0.7805 C   0  0  0  0  0  0  0  0  0  0  0  0
    4.6506    5.9696    0.8167 C   0  0  0  0  0  0  0  0  0  0  0  0
    5.9470    6.0628    0.0208 C   0  0  0  0  0  0  0  0  0  0  0  0
    5.7630    5.4961   -1.3819 C   0  0  0  0  0  0  0  0  0  0  0  0
    5.1115    4.1143   -1.3440 C   0  0  0  0  0  0  0  0  0  0  0  0
    2.0386   -2.7018    0.0988 C   0  0  0  0  0  0  0  0  0  0  0  0
    1.4353   -3.5873   -0.4982 O   0  0  0  0  0  0  0  0  0  0  0  0
    3.1870   -2.9678    0.8384 N   0  0  0  0  0  0  0  0  0  0  0  0
    3.8775   -4.2426    0.7637 C   0  0  1  0  0  0  0  0  0  0  0  0
    5.4384   -4.1568    0.7923 C   0  0  2  0  0  0  0  0  0  0  0  0
    5.7853   -5.6475    0.9391 C   0  0  0  0  0  0  0  0  0  0  0  0
    5.0181   -5.7923    2.2596 C   0  0  2  0  0  0  0  0  0  0  0  0
    3.5743   -5.2975    1.8869 C   0  0  0  0  0  0  0  0  0  0  0  0
    2.7990   -4.7718    3.1029 C   0  0  0  0  0  0  0  0  0  0  0  0
    2.7631   -6.4718    1.3009 C   0  0  0  0  0  0  0  0  0  0  0  0
    5.7780   -4.7592    3.1077 C   0  0  0  0  0  0  0  0  0  0  0  0
    5.9618   -3.5896    2.1346 C   0  0  0  0  0  0  0  0  0  0  0  0
    6.0700   -3.5037   -0.4217 C   0  0  0  0  0  0  0  0  0  0  0  0
    4.3340   -1.0478   -0.0165 H   0  0  0  0  0  0  0  0  0  0  0  0
    4.2512    0.4680    0.8395 H   0  0  0  0  0  0  0  0  0  0  0  0
    4.1785    0.3617   -0.9711 H   0  0  0  0  0  0  0  0  0  0  0  0
   -0.9713   -2.6755   -0.0600 H   0  0  0  0  0  0  0  0  0  0  0  0
   -3.1403   -1.4990   -0.0481 H   0  0  0  0  0  0  0  0  0  0  0  0
   -3.2330    0.9165    0.0460 H   0  0  0  0  0  0  0  0  0  0  0  0
   -2.2147    4.3244    0.1805 H   0  0  0  0  0  0  0  0  0  0  0  0
   -2.8809    2.9830    1.1174 H   0  0  0  0  0  0  0  0  0  0  0  0
   -2.9886    3.0002   -0.6853 H   0  0  0  0  0  0  0  0  0  0  0  0
    1.9651    2.6457    1.1157 H   0  0  0  0  0  0  0  0  0  0  0  0
    1.1507    2.9845   -0.4297 H   0  0  0  0  0  0  0  0  0  0  0  0
    3.1793    2.4416   -1.6989 H   0  0  0  0  0  0  0  0  0  0  0  0
    4.0622    2.1765   -0.1902 H   0  0  0  0  0  0  0  0  0  0  0  0
    4.7564    3.8651    1.2845 H   0  0  0  0  0  0  0  0  0  0  0  0
    3.1342    4.5609    1.3534 H   0  0  0  0  0  0  0  0  0  0  0  0
    4.8361    6.2653    1.8553 H   0  0  0  0  0  0  0  0  0  0  0  0
    3.9178    6.6755    0.4066 H   0  0  0  0  0  0  0  0  0  0  0  0
    6.7359    5.5026    0.5392 H   0  0  0  0  0  0  0  0  0  0  0  0
    6.2803    7.1045   -0.0372 H   0  0  0  0  0  0  0  0  0  0  0  0
    6.7360    5.4310   -1.8817 H   0  0  0  0  0  0  0  0  0  0  0  0
    5.1421    6.1789   -1.9767 H   0  0  0  0  0  0  0  0  0  0  0  0
    4.9562    3.7780   -2.3745 H   0  0  0  0  0  0  0  0  0  0  0  0
    5.8138    3.4090   -0.8757 H   0  0  0  0  0  0  0  0  0  0  0  0
    3.5312   -2.2395    1.4456 H   0  0  0  0  0  0  0  0  0  0  0  0
    3.6044   -4.6802   -0.2074 H   0  0  0  0  0  0  0  0  0  0  0  0
    6.8610   -5.8345    1.0424 H   0  0  0  0  0  0  0  0  0  0  0  0
    5.3986   -6.2704    0.1271 H   0  0  0  0  0  0  0  0  0  0  0  0
    5.0458   -6.7965    2.6900 H   0  0  0  0  0  0  0  0  0  0  0  0
    3.2595   -3.8889    3.5548 H   0  0  0  0  0  0  0  0  0  0  0  0
    2.7336   -5.5463    3.8770 H   0  0  0  0  0  0  0  0  0  0  0  0
    1.7750   -4.4930    2.8304 H   0  0  0  0  0  0  0  0  0  0  0  0
    3.2300   -6.8929    0.4048 H   0  0  0  0  0  0  0  0  0  0  0  0
    1.7530   -6.1496    1.0236 H   0  0  0  0  0  0  0  0  0  0  0  0
    2.6687   -7.2836    2.0310 H   0  0  0  0  0  0  0  0  0  0  0  0
    6.7595   -5.1604    3.3939 H   0  0  0  0  0  0  0  0  0  0  0  0
    5.2755   -4.4729    4.0353 H   0  0  0  0  0  0  0  0  0  0  0  0
    5.4187   -2.6985    2.4620 H   0  0  0  0  0  0  0  0  0  0  0  0
    7.0246   -3.3265    2.0756 H   0  0  0  0  0  0  0  0  0  0  0  0
    5.9329   -2.4206   -0.4093 H   0  0  0  0  0  0  0  0  0  0  0  0
    5.6415   -3.8915   -1.3517 H   0  0  0  0  0  0  0  0  0  0  0  0
    7.1491   -3.6921   -0.4504 H   0  0  0  0  0  0  0  0  0  0  0  0
  1  6  1  0  0  0  0
  1  2  2  0  0  0  0
  1 21  1  0  0  0  0
  2  3  1  0  0  0  0
  2  4  1  0  0  0  0
  3 34  1  0  0  0  0
  3 35  1  0  0  0  0
  3 36  1  0  0  0  0
  4  5  1  0  0  0  0
  4 13  1  0  0  0  0
  5 10  2  0  0  0  0
  5  6  1  0  0  0  0
  6  7  2  0  0  0  0
  7  8  1  0  0  0  0
  7 37  1  0  0  0  0
  8  9  2  0  0  0  0
  8 38  1  0  0  0  0
  9 10  1  0  0  0  0
  9 39  1  0  0  0  0
 10 11  1  0  0  0  0
 11 12  1  0  0  0  0
 12 40  1  0  0  0  0
 12 41  1  0  0  0  0
 12 42  1  0  0  0  0
 13 14  1  0  0  0  0
 13 43  1  0  0  0  0
 13 44  1  0  0  0  0
 14 15  1  0  0  0  0
 14 45  1  0  0  0  0
 14 46  1  0  0  0  0
 15 20  1  0  0  0  0
 15 16  1  0  0  0  0
 16 17  1  0  0  0  0
 16 47  1  0  0  0  0
 16 48  1  0  0  0  0
 17 18  1  0  0  0  0
 17 49  1  0  0  0  0
 17 50  1  0  0  0  0
 18 19  1  0  0  0  0
 18 51  1  0  0  0  0
 18 52  1  0  0  0  0
 19 20  1  0  0  0  0
 19 53  1  0  0  0  0
 19 54  1  0  0  0  0
 20 55  1  0  0  0  0
 20 56  1  0  0  0  0
 21 22  2  0  0  0  0
 21 23  1  0  0  0  0
 23 57  1  0  0  0  0
 24 23  1  0  0  0  0
 24 25  1  0  0  0  0
 24 28  1  0  0  0  0
 24 58  1  6  0  0  0
 25 32  1  0  0  0  0
 25 26  1  0  0  0  0
 25 33  1  6  0  0  0
 26 59  1  0  0  0  0
 26 60  1  0  0  0  0
 27 26  1  0  0  0  0
 27 28  1  0  0  0  0
 27 31  1  0  0  0  0
 27 61  1  1  0  0  0
 28 29  1  0  0  0  0
 28 30  1  0  0  0  0
 29 62  1  0  0  0  0
 29 63  1  0  0  0  0
 29 64  1  0  0  0  0
 30 65  1  0  0  0  0
 30 66  1  0  0  0  0
 30 67  1  0  0  0  0
 31 32  1  0  0  0  0
 31 68  1  0  0  0  0
 31 69  1  0  0  0  0
 32 70  1  0  0  0  0
 32 71  1  0  0  0  0
 33 72  1  0  0  0  0
 33 73  1  0  0  0  0
 33 74  1  0  0  0  0
M  END
$$$$
CHEMBL480539
 OpenBabel12022418103D

 52 55  0  0  0  0  0  0  0  0999 V2000
   -1.5049    5.6139  -14.2584 C   0  0  0  0  0  0  0  0  0  0  0  0
   -0.9064    4.4159  -13.7844 O   0  0  0  0  0  0  0  0  0  0  0  0
   -0.3153    4.4826  -12.5530 C   0  0  0  0  0  0  0  0  0  0  0  0
   -0.2121    3.2685  -11.8755 C   0  0  0  0  0  0  0  0  0  0  0  0
    0.3722    3.2065  -10.6096 C   0  0  0  0  0  0  0  0  0  0  0  0
    0.8750    4.3619  -10.0015 C   0  0  0  0  0  0  0  0  0  0  0  0
    1.4686    4.2998   -8.6176 C   0  0  0  0  0  0  0  0  0  0  0  0
    2.8791    3.9761   -8.6247 N   0  0  0  0  0  0  0  0  0  0  0  0
    3.3236    2.6736   -8.5047 C   0  0  0  0  0  0  0  0  0  0  0  0
    2.5562    1.7191   -8.3978 O   0  0  0  0  0  0  0  0  0  0  0  0
    4.8204    2.5120   -8.4194 C   0  0  0  0  0  0  0  0  0  0  0  0
    5.4111    2.3384   -9.7260 N   0  0  0  0  0  0  0  0  0  0  0  0
    5.6899    3.3990  -10.5069 N   0  0  0  0  0  0  0  0  0  0  0  0
    6.3011    2.8266  -11.5611 C   0  0  0  0  0  0  0  0  0  0  0  0
    6.7427    3.6210  -12.7147 C   0  0  0  0  0  0  0  0  0  0  0  0
    6.4386    3.1613  -14.0108 C   0  0  0  0  0  0  0  0  0  0  0  0
    6.8531    3.8661  -15.1449 C   0  0  0  0  0  0  0  0  0  0  0  0
    7.5420    5.0644  -14.9998 C   0  0  0  0  0  0  0  0  0  0  0  0
    7.8526    5.5456  -13.7318 C   0  0  0  0  0  0  0  0  0  0  0  0
    7.4707    4.8204  -12.5920 C   0  0  0  0  0  0  0  0  0  0  0  0
    8.0053    5.4550  -11.0708 Cl  0  0  0  0  0  0  0  0  0  0  0  0
    8.0125    5.9530  -16.3943 Cl  0  0  0  0  0  0  0  0  0  0  0  0
    6.3606    1.4002  -11.3402 C   0  0  0  0  0  0  0  0  0  0  0  0
    6.8797    0.3277  -12.1944 C   0  0  0  0  0  0  0  0  0  0  0  0
    8.0678    0.5493  -12.9155 C   0  0  0  0  0  0  0  0  0  0  0  0
    8.5569   -0.4005  -13.8156 C   0  0  0  0  0  0  0  0  0  0  0  0
    7.8924   -1.6117  -13.9690 C   0  0  0  0  0  0  0  0  0  0  0  0
    6.7399   -1.8777  -13.2371 C   0  0  0  0  0  0  0  0  0  0  0  0
    6.2266   -0.9107  -12.3601 C   0  0  0  0  0  0  0  0  0  0  0  0
    4.7377   -1.3239  -11.5756 Cl  0  0  0  0  0  0  0  0  0  0  0  0
    8.4923   -2.7788  -15.0789 Cl  0  0  0  0  0  0  0  0  0  0  0  0
    5.8725    1.1428  -10.1178 N   0  0  0  0  0  0  0  0  0  0  0  0
    0.8053    5.5773  -10.7002 C   0  0  0  0  0  0  0  0  0  0  0  0
    0.2054    5.6373  -11.9693 C   0  0  0  0  0  0  0  0  0  0  0  0
   -2.0321    5.3802  -15.1894 H   0  0  0  0  0  0  0  0  0  0  0  0
   -0.7553    6.3748  -14.4894 H   0  0  0  0  0  0  0  0  0  0  0  0
   -2.2458    5.9943  -13.5439 H   0  0  0  0  0  0  0  0  0  0  0  0
   -0.6057    2.3600  -12.3306 H   0  0  0  0  0  0  0  0  0  0  0  0
    0.4278    2.2480  -10.0935 H   0  0  0  0  0  0  0  0  0  0  0  0
    0.9197    3.5737   -8.0066 H   0  0  0  0  0  0  0  0  0  0  0  0
    1.3643    5.2713   -8.1192 H   0  0  0  0  0  0  0  0  0  0  0  0
    3.5292    4.6906   -8.9320 H   0  0  0  0  0  0  0  0  0  0  0  0
    5.0484    1.6309   -7.8096 H   0  0  0  0  0  0  0  0  0  0  0  0
    5.2840    3.3799   -7.9391 H   0  0  0  0  0  0  0  0  0  0  0  0
    5.8757    2.2410  -14.1567 H   0  0  0  0  0  0  0  0  0  0  0  0
    6.6265    3.4758  -16.1346 H   0  0  0  0  0  0  0  0  0  0  0  0
    8.4012    6.4791  -13.6284 H   0  0  0  0  0  0  0  0  0  0  0  0
    8.6254    1.4779  -12.7989 H   0  0  0  0  0  0  0  0  0  0  0  0
    9.4544   -0.1856  -14.3920 H   0  0  0  0  0  0  0  0  0  0  0  0
    6.2302   -2.8307  -13.3578 H   0  0  0  0  0  0  0  0  0  0  0  0
    1.1978    6.4880  -10.2609 H   0  0  0  0  0  0  0  0  0  0  0  0
    0.1779    6.5928  -12.4734 H   0  0  0  0  0  0  0  0  0  0  0  0
  1  2  1  0  0  0  0
  1 35  1  0  0  0  0
  1 36  1  0  0  0  0
  1 37  1  0  0  0  0
  2  3  1  0  0  0  0
  3 34  2  0  0  0  0
  3  4  1  0  0  0  0
  4  5  2  0  0  0  0
  4 38  1  0  0  0  0
  5  6  1  0  0  0  0
  5 39  1  0  0  0  0
  6  7  1  0  0  0  0
  6 33  2  0  0  0  0
  7  8  1  0  0  0  0
  7 40  1  0  0  0  0
  7 41  1  0  0  0  0
  8  9  1  0  0  0  0
  8 42  1  0  0  0  0
  9 10  2  0  0  0  0
  9 11  1  0  0  0  0
 11 12  1  0  0  0  0
 11 43  1  0  0  0  0
 11 44  1  0  0  0  0
 12 32  1  0  0  0  0
 12 13  1  0  0  0  0
 13 14  2  0  0  0  0
 14 15  1  0  0  0  0
 14 23  1  0  0  0  0
 15 20  2  0  0  0  0
 15 16  1  0  0  0  0
 16 17  2  0  0  0  0
 16 45  1  0  0  0  0
 17 18  1  0  0  0  0
 17 46  1  0  0  0  0
 18 19  2  0  0  0  0
 18 22  1  0  0  0  0
 19 20  1  0  0  0  0
 19 47  1  0  0  0  0
 20 21  1  0  0  0  0
 23 24  1  0  0  0  0
 23 32  2  0  0  0  0
 24 29  2  0  0  0  0
 24 25  1  0  0  0  0
 25 26  2  0  0  0  0
 25 48  1  0  0  0  0
 26 27  1  0  0  0  0
 26 49  1  0  0  0  0
 27 28  2  0  0  0  0
 27 31  1  0  0  0  0
 28 29  1  0  0  0  0
 28 50  1  0  0  0  0
 29 30  1  0  0  0  0
 33 34  1  0  0  0  0
 33 51  1  0  0  0  0
 34 52  1  0  0  0  0
M  END
$$$$
CHEMBL3647325
 OpenBabel12022418103D

 57 60  0  0  0  0  0  0  0  0999 V2000
    1.3018   -1.0429    3.9003 C   0  0  0  0  0  0  0  0  0  0  0  0
    0.3967   -1.6001    2.8128 C   0  0  0  0  0  0  0  0  0  0  0  0
   -0.1049   -0.4844    1.8981 C   0  0  0  0  0  0  0  0  0  0  0  0
    1.0618   -2.8006    2.0898 C   0  0  0  0  0  0  0  0  0  0  0  0
    2.3973   -2.7053    1.5007 O   0  0  0  0  0  0  0  0  0  0  0  0
    2.8821   -3.9310    1.0138 C   0  0  0  0  0  0  0  0  0  0  0  0
    2.0449   -5.0956    1.1237 C   0  0  0  0  0  0  0  0  0  0  0  0
    2.3828   -6.3634    0.6545 C   0  0  0  0  0  0  0  0  0  0  0  0
    3.5793   -6.5507   -0.0000 C   0  0  0  0  0  0  0  0  0  0  0  0
    3.9424   -7.8997   -0.5740 C   0  0  0  0  0  0  0  0  0  0  0  0
    3.0161   -8.8654   -0.2991 F   0  0  0  0  0  0  0  0  0  0  0  0
    4.0545   -7.8784   -1.9300 F   0  0  0  0  0  0  0  0  0  0  0  0
    5.1227   -8.3785   -0.1000 F   0  0  0  0  0  0  0  0  0  0  0  0
    4.4321   -5.4376   -0.1109 C   0  0  0  0  0  0  0  0  0  0  0  0
    4.1601   -4.1119    0.4086 C   0  0  0  0  0  0  0  0  0  0  0  0
    5.3796   -3.1875    0.1977 C   0  0  0  0  0  0  0  0  0  0  0  0
    6.3706   -3.7518   -0.2831 O   0  0  0  0  0  0  0  0  0  0  0  0
    5.3741   -1.8122    0.3364 N   0  0  0  0  0  0  0  0  0  0  0  0
    6.5114   -1.1842    0.5380 C   0  0  0  0  0  0  0  0  0  0  0  0
    6.7484    0.1865    0.3349 N   0  0  0  0  0  0  0  0  0  0  0  0
    8.0718    0.6220    0.5706 C   0  0  0  0  0  0  0  0  0  0  0  0
    8.9323   -0.3611    1.0509 C   0  0  0  0  0  0  0  0  0  0  0  0
   10.2605   -0.0835    1.3567 C   0  0  0  0  0  0  0  0  0  0  0  0
   10.6913    1.2209    1.1739 C   0  0  0  0  0  0  0  0  0  0  0  0
    9.9049    2.2010    0.6850 N   0  0  0  0  0  0  0  0  0  0  0  0
    8.6262    1.8895    0.3977 C   0  0  0  0  0  0  0  0  0  0  0  0
    8.0612   -1.9160    1.1535 S   0  0  0  0  0  0  0  0  0  0  0  0
    5.9218    1.0221   -0.5123 C   0  0  0  0  0  0  0  0  0  0  0  0
    5.3062    2.1711    0.2735 C   0  0  0  0  0  0  0  0  0  0  0  0
    4.2811    2.9629   -0.5533 C   0  0  0  0  0  0  0  0  0  0  0  0
    3.3374    2.9347    0.6550 C   0  0  0  0  0  0  0  0  0  0  0  0
    4.1873    1.8095    1.2676 C   0  0  0  0  0  0  0  0  0  0  0  0
   -0.7766   -2.1514    3.4652 O   0  0  0  0  0  0  0  0  0  0  0  0
    2.2112   -0.6123    3.4745 H   0  0  0  0  0  0  0  0  0  0  0  0
    1.5783   -1.8288    4.6124 H   0  0  0  0  0  0  0  0  0  0  0  0
    0.7827   -0.2724    4.4820 H   0  0  0  0  0  0  0  0  0  0  0  0
    0.7114    0.0113    1.3645 H   0  0  0  0  0  0  0  0  0  0  0  0
   -0.6378    0.2737    2.4869 H   0  0  0  0  0  0  0  0  0  0  0  0
   -0.8383   -0.8598    1.1758 H   0  0  0  0  0  0  0  0  0  0  0  0
    0.3507   -3.1287    1.3158 H   0  0  0  0  0  0  0  0  0  0  0  0
    1.1078   -3.5705    2.8743 H   0  0  0  0  0  0  0  0  0  0  0  0
    1.0641   -5.0792    1.5895 H   0  0  0  0  0  0  0  0  0  0  0  0
    1.6885   -7.1910    0.8015 H   0  0  0  0  0  0  0  0  0  0  0  0
    5.3727   -5.6270   -0.6369 H   0  0  0  0  0  0  0  0  0  0  0  0
   10.9419   -0.8383    1.7223 H   0  0  0  0  0  0  0  0  0  0  0  0
   11.7114    1.5249    1.4126 H   0  0  0  0  0  0  0  0  0  0  0  0
    8.0602    2.7265   -0.0021 H   0  0  0  0  0  0  0  0  0  0  0  0
    5.1371    0.4210   -0.9857 H   0  0  0  0  0  0  0  0  0  0  0  0
    6.5128    1.4206   -1.3502 H   0  0  0  0  0  0  0  0  0  0  0  0
    6.0373    2.8444    0.7401 H   0  0  0  0  0  0  0  0  0  0  0  0
    3.8972    2.4305   -1.4304 H   0  0  0  0  0  0  0  0  0  0  0  0
    4.6222    3.9537   -0.8679 H   0  0  0  0  0  0  0  0  0  0  0  0
    2.3071    2.6564    0.4236 H   0  0  0  0  0  0  0  0  0  0  0  0
    3.3442    3.8625    1.2352 H   0  0  0  0  0  0  0  0  0  0  0  0
    4.4487    1.9517    2.3214 H   0  0  0  0  0  0  0  0  0  0  0  0
    3.7679    0.8059    1.1397 H   0  0  0  0  0  0  0  0  0  0  0  0
   -1.4168   -1.4362    3.6378 H   0  0  0  0  0  0  0  0  0  0  0  0
  1  2  1  0  0  0  0
  1 34  1  0  0  0  0
  1 35  1  0  0  0  0
  1 36  1  0  0  0  0
  2  3  1  0  0  0  0
  2  4  1  0  0  0  0
  2 33  1  0  0  0  0
  3 37  1  0  0  0  0
  3 38  1  0  0  0  0
  3 39  1  0  0  0  0
  4  5  1  0  0  0  0
  4 40  1  0  0  0  0
  4 41  1  0  0  0  0
  5  6  1  0  0  0  0
  6 15  2  0  0  0  0
  6  7  1  0  0  0  0
  7  8  2  0  0  0  0
  7 42  1  0  0  0  0
  8  9  1  0  0  0  0
  8 43  1  0  0  0  0
  9 10  1  0  0  0  0
  9 14  2  0  0  0  0
 10 11  1  0  0  0  0
 10 12  1  0  0  0  0
 10 13  1  0  0  0  0
 14 15  1  0  0  0  0
 14 44  1  0  0  0  0
 15 16  1  0  0  0  0
 16 17  2  0  0  0  0
 16 18  1  0  0  0  0
 18 19  2  0  0  0  0
 19 27  1  0  0  0  0
 19 20  1  0  0  0  0
 20 21  1  0  0  0  0
 20 28  1  0  0  0  0
 21 26  2  0  0  0  0
 21 22  1  0  0  0  0
 22 23  2  0  0  0  0
 22 27  1  0  0  0  0
 23 24  1  0  0  0  0
 23 45  1  0  0  0  0
 24 25  2  0  0  0  0
 24 46  1  0  0  0  0
 25 26  1  0  0  0  0
 26 47  1  0  0  0  0
 28 29  1  0  0  0  0
 28 48  1  0  0  0  0
 28 49  1  0  0  0  0
 29 32  1  0  0  0  0
 29 30  1  0  0  0  0
 29 50  1  0  0  0  0
 30 31  1  0  0  0  0
 30 51  1  0  0  0  0
 30 52  1  0  0  0  0
 31 32  1  0  0  0  0
 31 53  1  0  0  0  0
 31 54  1  0  0  0  0
 32 55  1  0  0  0  0
 32 56  1  0  0  0  0
 33 57  1  0  0  0  0
M  END
$$$$
CHEMBL1909846
 OpenBabel12022418103D

 50 53  0  0  0  0  0  0  0  0999 V2000
    1.2126    0.4622    0.2214 C   0  0  0  0  0  0  0  0  0  0  0  0
    2.6748    0.1988    0.1011 C   0  0  0  0  0  0  0  0  0  0  0  0
    3.6809    1.2198    0.1138 C   0  0  0  0  0  0  0  0  0  0  0  0
    3.4997    2.7022    0.1548 C   0  0  0  0  0  0  0  0  0  0  0  0
    2.4005    3.2400    0.0977 O   0  0  0  0  0  0  0  0  0  0  0  0
    4.6888    3.3981    0.2562 N   0  0  0  0  0  0  0  0  0  0  0  0
    4.8663    4.8491    0.2938 C   0  0  0  0  0  0  0  0  0  0  0  0
    4.4980    5.5393   -1.0277 C   0  0  0  0  0  0  0  0  0  0  0  0
    4.8050    7.0396   -0.9809 C   0  0  0  0  0  0  0  0  0  0  0  0
    4.1350    7.7255    0.2067 C   0  0  0  0  0  0  0  0  0  0  0  0
    4.4731    7.0311    1.5233 C   0  0  0  0  0  0  0  0  0  0  0  0
    4.1639    5.5308    1.4780 C   0  0  0  0  0  0  0  0  0  0  0  0
    4.9087    0.6768    0.1111 N   0  0  0  0  0  0  0  0  0  0  0  0
    4.7294   -0.6682    0.0462 N   0  0  0  0  0  0  0  0  0  0  0  0
    5.8726   -1.4721   -0.2388 C   0  0  0  0  0  0  0  0  0  0  0  0
    5.7824   -2.4914   -1.2029 C   0  0  0  0  0  0  0  0  0  0  0  0
    6.8976   -3.2838   -1.4931 C   0  0  0  0  0  0  0  0  0  0  0  0
    8.1033   -3.0571   -0.8312 C   0  0  0  0  0  0  0  0  0  0  0  0
    8.2072   -2.0502    0.1231 C   0  0  0  0  0  0  0  0  0  0  0  0
    7.0964   -1.2545    0.4274 C   0  0  0  0  0  0  0  0  0  0  0  0
    7.2975   -0.1503    1.7481 Cl  0  0  0  0  0  0  0  0  0  0  0  0
    9.4723   -4.0339   -1.1947 Cl  0  0  0  0  0  0  0  0  0  0  0  0
    3.3794   -1.0042    0.0603 C   0  0  0  0  0  0  0  0  0  0  0  0
    2.8657   -2.3221    0.1226 N   0  0  0  0  0  0  0  0  0  0  0  0
    3.3278   -3.4039    0.8759 C   0  0  0  0  0  0  0  0  0  0  0  0
    2.5480   -4.5194    0.6817 C   0  0  0  0  0  0  0  0  0  0  0  0
    1.5126   -4.1424   -0.1900 C   0  0  0  0  0  0  0  0  0  0  0  0
    1.7620   -2.8404   -0.5554 C   0  0  0  0  0  0  0  0  0  0  0  0
    0.9689   -1.9958   -1.8166 Cl  0  0  0  0  0  0  0  0  0  0  0  0
    4.5977   -3.2785    2.0180 Cl  0  0  0  0  0  0  0  0  0  0  0  0
    0.6526   -0.4273    0.5194 H   0  0  0  0  0  0  0  0  0  0  0  0
    0.8165    0.8336   -0.7294 H   0  0  0  0  0  0  0  0  0  0  0  0
    1.0190    1.2162    0.9908 H   0  0  0  0  0  0  0  0  0  0  0  0
    5.5146    2.8042    0.2664 H   0  0  0  0  0  0  0  0  0  0  0  0
    5.9474    4.9806    0.4394 H   0  0  0  0  0  0  0  0  0  0  0  0
    3.4335    5.3968   -1.2490 H   0  0  0  0  0  0  0  0  0  0  0  0
    5.0553    5.0854   -1.8556 H   0  0  0  0  0  0  0  0  0  0  0  0
    4.4763    7.5159   -1.9118 H   0  0  0  0  0  0  0  0  0  0  0  0
    5.8900    7.1888   -0.9160 H   0  0  0  0  0  0  0  0  0  0  0  0
    3.0479    7.7261    0.0626 H   0  0  0  0  0  0  0  0  0  0  0  0
    4.4492    8.7759    0.2530 H   0  0  0  0  0  0  0  0  0  0  0  0
    3.9123    7.5015    2.3395 H   0  0  0  0  0  0  0  0  0  0  0  0
    5.5374    7.1785    1.7453 H   0  0  0  0  0  0  0  0  0  0  0  0
    4.4810    5.0680    2.4200 H   0  0  0  0  0  0  0  0  0  0  0  0
    3.0780    5.3955    1.4102 H   0  0  0  0  0  0  0  0  0  0  0  0
    4.8666   -2.6706   -1.7626 H   0  0  0  0  0  0  0  0  0  0  0  0
    6.8217   -4.0732   -2.2365 H   0  0  0  0  0  0  0  0  0  0  0  0
    9.1467   -1.9009    0.6510 H   0  0  0  0  0  0  0  0  0  0  0  0
    2.6914   -5.4871    1.1473 H   0  0  0  0  0  0  0  0  0  0  0  0
    0.7029   -4.7640   -0.5510 H   0  0  0  0  0  0  0  0  0  0  0  0
  1  2  1  0  0  0  0
  1 31  1  0  0  0  0
  1 32  1  0  0  0  0
  1 33  1  0  0  0  0
  2 23  2  0  0  0  0
  2  3  1  0  0  0  0
  3  4  1  0  0  0  0
  3 13  2  0  0  0  0
  4  5  2  0  0  0  0
  4  6  1  0  0  0  0
  6  7  1  0  0  0  0
  6 34  1  0  0  0  0
  7 12  1  0  0  0  0
  7  8  1  0  0  0  0
  7 35  1  0  0  0  0
  8  9  1  0  0  0  0
  8 36  1  0  0  0  0
  8 37  1  0  0  0  0
  9 10  1  0  0  0  0
  9 38  1  0  0  0  0
  9 39  1  0  0  0  0
 10 11  1  0  0  0  0
 10 40  1  0  0  0  0
 10 41  1  0  0  0  0
 11 12  1  0  0  0  0
 11 42  1  0  0  0  0
 11 43  1  0  0  0  0
 12 44  1  0  0  0  0
 12 45  1  0  0  0  0
 13 14  1  0  0  0  0
 14 15  1  0  0  0  0
 14 23  1  0  0  0  0
 15 20  2  0  0  0  0
 15 16  1  0  0  0  0
 16 17  2  0  0  0  0
 16 46  1  0  0  0  0
 17 18  1  0  0  0  0
 17 47  1  0  0  0  0
 18 19  2  0  0  0  0
 18 22  1  0  0  0  0
 19 20  1  0  0  0  0
 19 48  1  0  0  0  0
 20 21  1  0  0  0  0
 23 24  1  0  0  0  0
 24 28  1  0  0  0  0
 24 25  1  0  0  0  0
 25 26  2  0  0  0  0
 25 30  1  0  0  0  0
 26 27  1  0  0  0  0
 26 49  1  0  0  0  0
 27 28  2  0  0  0  0
 27 50  1  0  0  0  0
 28 29  1  0  0  0  0
M  END
$$$$
CHEMBL2206842
 OpenBabel12022418103D

 49 52  0  0  0  0  0  0  0  0999 V2000
    4.8731   -2.3620    6.4231 C   0  0  0  0  0  0  0  0  0  0  0  0
    4.4229   -3.0563    5.1485 C   0  0  0  0  0  0  0  0  0  0  0  0
    5.0085   -2.3927    3.8992 C   0  0  0  0  0  0  0  0  0  0  0  0
    4.5403   -3.1186    2.6336 C   0  0  0  0  0  0  0  0  0  0  0  0
    5.1177   -2.5464    1.3313 C   0  0  0  0  0  0  0  0  0  0  0  0
    6.5704   -2.5482    1.2514 N   0  0  0  0  0  0  0  0  0  0  0  0
    7.3312   -1.4028    1.2018 C   0  0  0  0  0  0  0  0  0  0  0  0
    8.6618   -1.7551    1.3849 C   0  0  0  0  0  0  0  0  0  0  0  0
    9.7926   -0.8475    1.6644 C   0  0  0  0  0  0  0  0  0  0  0  0
   10.9510   -1.2334    1.6396 O   0  0  0  0  0  0  0  0  0  0  0  0
    9.4666    0.5031    2.2320 C   0  0  0  0  0  0  0  0  0  0  0  0
    8.5441    0.4575    3.3050 C   0  0  0  0  0  0  0  0  0  0  0  0
    8.0052    1.6110    3.8328 C   0  0  0  0  0  0  0  0  0  0  0  0
    8.3800    2.8307    3.2947 C   0  0  0  0  0  0  0  0  0  0  0  0
    9.3243    2.9155    2.2586 C   0  0  0  0  0  0  0  0  0  0  0  0
    9.5884    4.1987    1.7553 C   0  0  0  0  0  0  0  0  0  0  0  0
   10.5434    4.4091    0.7731 C   0  0  0  0  0  0  0  0  0  0  0  0
   11.2801    3.3333    0.3136 C   0  0  0  0  0  0  0  0  0  0  0  0
   11.0031    2.0302    0.7638 C   0  0  0  0  0  0  0  0  0  0  0  0
    9.9681    1.7572    1.7284 C   0  0  0  0  0  0  0  0  0  0  0  0
   12.0574    0.8392    0.0870 Cl  0  0  0  0  0  0  0  0  0  0  0  0
    8.7042   -3.1878    1.3529 C   0  0  0  0  0  0  0  0  0  0  0  0
    9.7479   -4.1275    1.4364 C   0  0  0  0  0  0  0  0  0  0  0  0
    9.4642   -5.4967    1.4580 C   0  0  0  0  0  0  0  0  0  0  0  0
    8.1499   -5.9398    1.4027 C   0  0  0  0  0  0  0  0  0  0  0  0
    7.0890   -5.0331    1.3050 C   0  0  0  0  0  0  0  0  0  0  0  0
    7.3837   -3.6561    1.2832 C   0  0  0  0  0  0  0  0  0  0  0  0
    4.4465   -2.8635    7.2972 H   0  0  0  0  0  0  0  0  0  0  0  0
    4.5459   -1.3173    6.4373 H   0  0  0  0  0  0  0  0  0  0  0  0
    5.9634   -2.3835    6.5187 H   0  0  0  0  0  0  0  0  0  0  0  0
    3.3281   -3.0446    5.0993 H   0  0  0  0  0  0  0  0  0  0  0  0
    4.7332   -4.1076    5.1883 H   0  0  0  0  0  0  0  0  0  0  0  0
    6.1021   -2.4121    3.9664 H   0  0  0  0  0  0  0  0  0  0  0  0
    4.7030   -1.3406    3.8573 H   0  0  0  0  0  0  0  0  0  0  0  0
    3.4458   -3.0626    2.5754 H   0  0  0  0  0  0  0  0  0  0  0  0
    4.7860   -4.1811    2.7214 H   0  0  0  0  0  0  0  0  0  0  0  0
    4.7766   -1.5151    1.2037 H   0  0  0  0  0  0  0  0  0  0  0  0
    4.7518   -3.1173    0.4705 H   0  0  0  0  0  0  0  0  0  0  0  0
    6.8573   -0.4343    1.1220 H   0  0  0  0  0  0  0  0  0  0  0  0
    8.2103   -0.4992    3.7073 H   0  0  0  0  0  0  0  0  0  0  0  0
    7.2742    1.5605    4.6360 H   0  0  0  0  0  0  0  0  0  0  0  0
    7.9294    3.7309    3.7085 H   0  0  0  0  0  0  0  0  0  0  0  0
    9.0349    5.0612    2.1245 H   0  0  0  0  0  0  0  0  0  0  0  0
   10.7225    5.4077    0.3845 H   0  0  0  0  0  0  0  0  0  0  0  0
   12.0766    3.5097   -0.4072 H   0  0  0  0  0  0  0  0  0  0  0  0
   10.7849   -3.8037    1.5011 H   0  0  0  0  0  0  0  0  0  0  0  0
   10.2801   -6.2118    1.5309 H   0  0  0  0  0  0  0  0  0  0  0  0
    7.9391   -7.0043    1.4386 H   0  0  0  0  0  0  0  0  0  0  0  0
    6.0679   -5.3944    1.2684 H   0  0  0  0  0  0  0  0  0  0  0  0
  1  2  1  0  0  0  0
  1 28  1  0  0  0  0
  1 29  1  0  0  0  0
  1 30  1  0  0  0  0
  2  3  1  0  0  0  0
  2 31  1  0  0  0  0
  2 32  1  0  0  0  0
  3  4  1  0  0  0  0
  3 33  1  0  0  0  0
  3 34  1  0  0  0  0
  4  5  1  0  0  0  0
  4 35  1  0  0  0  0
  4 36  1  0  0  0  0
  5  6  1  0  0  0  0
  5 37  1  0  0  0  0
  5 38  1  0  0  0  0
  6 27  1  0  0  0  0
  6  7  1  0  0  0  0
  7  8  2  0  0  0  0
  7 39  1  0  0  0  0
  8  9  1  0  0  0  0
  8 22  1  0  0  0  0
  9 10  2  0  0  0  0
  9 11  1  0  0  0  0
 11 20  2  0  0  0  0
 11 12  1  0  0  0  0
 12 13  2  0  0  0  0
 12 40  1  0  0  0  0
 13 14  1  0  0  0  0
 13 41  1  0  0  0  0
 14 15  2  0  0  0  0
 14 42  1  0  0  0  0
 15 20  1  0  0  0  0
 15 16  1  0  0  0  0
 16 17  2  0  0  0  0
 16 43  1  0  0  0  0
 17 18  1  0  0  0  0
 17 44  1  0  0  0  0
 18 19  2  0  0  0  0
 18 45  1  0  0  0  0
 19 20  1  0  0  0  0
 19 21  1  0  0  0  0
 22 27  2  0  0  0  0
 22 23  1  0  0  0  0
 23 24  2  0  0  0  0
 23 46  1  0  0  0  0
 24 25  1  0  0  0  0
 24 47  1  0  0  0  0
 25 26  2  0  0  0  0
 25 48  1  0  0  0  0
 26 27  1  0  0  0  0
 26 49  1  0  0  0  0
M  END
$$$$
CHEMBL3354408
 OpenBabel12022418103D

 49 53  0  0  0  0  0  0  0  0999 V2000
   -1.7233    1.2854    1.1026 C   0  0  0  0  0  0  0  0  0  0  0  0
   -0.2626    1.2203    1.5631 C   0  0  0  0  0  0  0  0  0  0  0  0
    0.0036   -0.0121    2.2541 O   0  0  0  0  0  0  0  0  0  0  0  0
   -0.2419   -1.1419    1.4023 C   0  0  0  0  0  0  0  0  0  0  0  0
   -1.6947   -1.1637    0.9237 C   0  0  0  0  0  0  0  0  0  0  0  0
   -2.0444    0.1045    0.2833 N   0  0  0  0  0  0  0  0  0  0  0  0
   -2.7112    0.0641   -0.9279 C   0  0  0  0  0  0  0  0  0  0  0  0
   -2.9965   -0.9244   -1.5870 O   0  0  0  0  0  0  0  0  0  0  0  0
   -3.1800    1.3030   -1.3638 N   0  0  0  0  0  0  0  0  0  0  0  0
   -4.4716    1.7799   -1.1623 C   0  0  0  0  0  0  0  0  0  0  0  0
   -5.5406    1.2195   -0.4441 C   0  0  0  0  0  0  0  0  0  0  0  0
   -6.7334    1.9427   -0.3742 C   0  0  0  0  0  0  0  0  0  0  0  0
   -6.8592    3.1756   -1.0097 C   0  0  0  0  0  0  0  0  0  0  0  0
   -5.7935    3.7184   -1.7389 C   0  0  0  0  0  0  0  0  0  0  0  0
   -4.5756    3.0129   -1.8138 C   0  0  0  0  0  0  0  0  0  0  0  0
   -3.3170    3.2631   -2.4192 C   0  0  0  0  0  0  0  0  0  0  0  0
   -2.4666    2.2173   -2.1089 C   0  0  0  0  0  0  0  0  0  0  0  0
   -1.1671    2.1400   -2.4555 N   0  0  0  0  0  0  0  0  0  0  0  0
   -0.7752    3.2259   -3.1522 C   0  0  0  0  0  0  0  0  0  0  0  0
   -1.5725    4.2652   -3.5133 N   0  0  0  0  0  0  0  0  0  0  0  0
   -2.8606    4.3051   -3.1567 N   0  0  0  0  0  0  0  0  0  0  0  0
    0.9548    3.3626   -3.5746 S   0  0  0  0  0  0  0  0  0  0  0  0
    1.5913    1.8969   -2.7094 C   0  0  0  0  0  0  0  0  0  0  0  0
    3.1007    1.8005   -2.7683 C   0  0  0  0  0  0  0  0  0  0  0  0
    3.6948    1.0986   -3.8338 C   0  0  0  0  0  0  0  0  0  0  0  0
    5.0812    0.9565   -3.9130 C   0  0  0  0  0  0  0  0  0  0  0  0
    5.8981    1.5261   -2.9418 C   0  0  0  0  0  0  0  0  0  0  0  0
    5.3291    2.2381   -1.8847 C   0  0  0  0  0  0  0  0  0  0  0  0
    3.9359    2.3755   -1.7880 C   0  0  0  0  0  0  0  0  0  0  0  0
    3.3963    3.0799   -0.6557 C   0  0  0  0  0  0  0  0  0  0  0  0
    2.9434    3.6175    0.2671 N   0  0  0  0  0  0  0  0  0  0  0  0
   -2.3911    1.2485    1.9714 H   0  0  0  0  0  0  0  0  0  0  0  0
   -1.9092    2.2215    0.5739 H   0  0  0  0  0  0  0  0  0  0  0  0
   -0.0462    2.0435    2.2508 H   0  0  0  0  0  0  0  0  0  0  0  0
    0.4210    1.3030    0.7098 H   0  0  0  0  0  0  0  0  0  0  0  0
   -0.0246   -2.0477    1.9771 H   0  0  0  0  0  0  0  0  0  0  0  0
    0.4504   -1.1054    0.5531 H   0  0  0  0  0  0  0  0  0  0  0  0
   -2.3685   -1.2725    1.7824 H   0  0  0  0  0  0  0  0  0  0  0  0
   -1.8639   -2.0114    0.2533 H   0  0  0  0  0  0  0  0  0  0  0  0
   -5.4496    0.2564    0.0525 H   0  0  0  0  0  0  0  0  0  0  0  0
   -7.5719    1.5359    0.1839 H   0  0  0  0  0  0  0  0  0  0  0  0
   -7.7959    3.7237   -0.9381 H   0  0  0  0  0  0  0  0  0  0  0  0
   -5.9028    4.6820   -2.2294 H   0  0  0  0  0  0  0  0  0  0  0  0
    1.1590    1.0004   -3.1696 H   0  0  0  0  0  0  0  0  0  0  0  0
    1.2639    1.8970   -1.6644 H   0  0  0  0  0  0  0  0  0  0  0  0
    3.0757    0.6483   -4.6073 H   0  0  0  0  0  0  0  0  0  0  0  0
    5.5221    0.3966   -4.7348 H   0  0  0  0  0  0  0  0  0  0  0  0
    6.9784    1.4141   -3.0054 H   0  0  0  0  0  0  0  0  0  0  0  0
    5.9820    2.6762   -1.1309 H   0  0  0  0  0  0  0  0  0  0  0  0
  1  6  1  0  0  0  0
  1  2  1  0  0  0  0
  1 32  1  0  0  0  0
  1 33  1  0  0  0  0
  2  3  1  0  0  0  0
  2 34  1  0  0  0  0
  2 35  1  0  0  0  0
  3  4  1  0  0  0  0
  4  5  1  0  0  0  0
  4 36  1  0  0  0  0
  4 37  1  0  0  0  0
  5  6  1  0  0  0  0
  5 38  1  0  0  0  0
  5 39  1  0  0  0  0
  6  7  1  0  0  0  0
  7  8  2  0  0  0  0
  7  9  1  0  0  0  0
  9 17  1  0  0  0  0
  9 10  1  0  0  0  0
 10 15  2  0  0  0  0
 10 11  1  0  0  0  0
 11 12  2  0  0  0  0
 11 40  1  0  0  0  0
 12 13  1  0  0  0  0
 12 41  1  0  0  0  0
 13 14  2  0  0  0  0
 13 42  1  0  0  0  0
 14 15  1  0  0  0  0
 14 43  1  0  0  0  0
 15 16  1  0  0  0  0
 16 21  2  0  0  0  0
 16 17  1  0  0  0  0
 17 18  2  0  0  0  0
 18 19  1  0  0  0  0
 19 20  2  0  0  0  0
 19 22  1  0  0  0  0
 20 21  1  0  0  0  0
 22 23  1  0  0  0  0
 23 24  1  0  0  0  0
 23 44  1  0  0  0  0
 23 45  1  0  0  0  0
 24 29  2  0  0  0  0
 24 25  1  0  0  0  0
 25 26  2  0  0  0  0
 25 46  1  0  0  0  0
 26 27  1  0  0  0  0
 26 47  1  0  0  0  0
 27 28  2  0  0  0  0
 27 48  1  0  0  0  0
 28 29  1  0  0  0  0
 28 49  1  0  0  0  0
 29 30  1  0  0  0  0
 30 31  3  0  0  0  0
M  END
$$$$
CHEMBL75733
 OpenBabel12022418103D

 53 56  0  0  0  0  0  0  0  0999 V2000
    1.4600   -0.4702    0.1761 C   0  0  0  0  0  0  0  0  0  0  0  0
    2.6715    0.1926   -0.1741 O   0  0  0  0  0  0  0  0  0  0  0  0
    3.2035    1.0348    0.7674 C   0  0  0  0  0  0  0  0  0  0  0  0
    2.6241    1.3449    1.9891 C   0  0  0  0  0  0  0  0  0  0  0  0
    3.2613    2.2087    2.8882 C   0  0  0  0  0  0  0  0  0  0  0  0
    4.5385    2.7175    2.5710 C   0  0  0  0  0  0  0  0  0  0  0  0
    5.0994    2.4822    1.3188 C   0  0  0  0  0  0  0  0  0  0  0  0
    4.4234    1.6238    0.4153 C   0  0  0  0  0  0  0  0  0  0  0  0
    6.2806    3.2786    1.2167 C   0  0  0  0  0  0  0  0  0  0  0  0
    7.0639    3.5247   -0.0366 C   0  0  0  0  0  0  0  0  0  0  0  0
    8.1658    2.5258   -0.3763 C   0  0  0  0  0  0  0  0  0  0  0  0
    8.6385    1.7390    0.4356 O   0  0  0  0  0  0  0  0  0  0  0  0
    8.5890    2.5643   -1.7138 N   0  0  0  0  0  0  0  0  0  0  0  0
    8.4370    3.7386   -2.5838 C   0  0  0  0  0  0  0  0  0  0  0  0
    8.2769    3.3234   -4.0466 C   0  0  0  0  0  0  0  0  0  0  0  0
    9.3708    2.4956   -4.4627 O   0  0  0  0  0  0  0  0  0  0  0  0
    9.4336    1.3017   -3.6653 C   0  0  0  0  0  0  0  0  0  0  0  0
    9.6142    1.6252   -2.1739 C   0  0  0  0  0  0  0  0  0  0  0  0
    6.4763    3.8771    2.4518 C   0  0  0  0  0  0  0  0  0  0  0  0
    7.6046    4.7501    2.9002 C   0  0  0  0  0  0  0  0  0  0  0  0
    5.4333    3.5057    3.3086 N   0  0  0  0  0  0  0  0  0  0  0  0
    5.3299    3.8627    4.6844 C   0  0  0  0  0  0  0  0  0  0  0  0
    5.9467    4.8574    5.0574 O   0  0  0  0  0  0  0  0  0  0  0  0
    4.6022    3.0701    5.7105 C   0  0  0  0  0  0  0  0  0  0  0  0
    4.6573    1.6673    5.6298 C   0  0  0  0  0  0  0  0  0  0  0  0
    3.9533    0.8749    6.5354 C   0  0  0  0  0  0  0  0  0  0  0  0
    3.2464    1.4722    7.5734 C   0  0  0  0  0  0  0  0  0  0  0  0
    3.2428    2.8614    7.7049 C   0  0  0  0  0  0  0  0  0  0  0  0
    3.9101    3.6673    6.7738 C   0  0  0  0  0  0  0  0  0  0  0  0
    3.7754    5.3757    6.9972 Cl  0  0  0  0  0  0  0  0  0  0  0  0
    1.1911   -1.1406   -0.6455 H   0  0  0  0  0  0  0  0  0  0  0  0
    0.6432    0.2489    0.3006 H   0  0  0  0  0  0  0  0  0  0  0  0
    1.5859   -1.0831    1.0758 H   0  0  0  0  0  0  0  0  0  0  0  0
    1.6652    0.9334    2.2882 H   0  0  0  0  0  0  0  0  0  0  0  0
    2.7558    2.4538    3.8174 H   0  0  0  0  0  0  0  0  0  0  0  0
    4.8546    1.4128   -0.5595 H   0  0  0  0  0  0  0  0  0  0  0  0
    7.5142    4.5236    0.0015 H   0  0  0  0  0  0  0  0  0  0  0  0
    6.3395    3.5195   -0.8610 H   0  0  0  0  0  0  0  0  0  0  0  0
    9.3533    4.3288   -2.4594 H   0  0  0  0  0  0  0  0  0  0  0  0
    7.5997    4.3719   -2.2900 H   0  0  0  0  0  0  0  0  0  0  0  0
    8.2628    4.2121   -4.6849 H   0  0  0  0  0  0  0  0  0  0  0  0
    7.3353    2.7833   -4.2015 H   0  0  0  0  0  0  0  0  0  0  0  0
   10.2783    0.7081   -4.0276 H   0  0  0  0  0  0  0  0  0  0  0  0
    8.5191    0.7201   -3.8321 H   0  0  0  0  0  0  0  0  0  0  0  0
    9.5946    0.7047   -1.5825 H   0  0  0  0  0  0  0  0  0  0  0  0
   10.5830    2.1144   -2.0154 H   0  0  0  0  0  0  0  0  0  0  0  0
    8.4045    4.7878    2.1543 H   0  0  0  0  0  0  0  0  0  0  0  0
    8.0543    4.3639    3.8209 H   0  0  0  0  0  0  0  0  0  0  0  0
    7.2573    5.7745    3.0670 H   0  0  0  0  0  0  0  0  0  0  0  0
    5.2261    1.1733    4.8431 H   0  0  0  0  0  0  0  0  0  0  0  0
    3.9603   -0.2073    6.4272 H   0  0  0  0  0  0  0  0  0  0  0  0
    2.7031    0.8570    8.2865 H   0  0  0  0  0  0  0  0  0  0  0  0
    2.7065    3.3149    8.5361 H   0  0  0  0  0  0  0  0  0  0  0  0
  1  2  1  0  0  0  0
  1 31  1  0  0  0  0
  1 32  1  0  0  0  0
  1 33  1  0  0  0  0
  2  3  1  0  0  0  0
  3  8  2  0  0  0  0
  3  4  1  0  0  0  0
  4  5  2  0  0  0  0
  4 34  1  0  0  0  0
  5  6  1  0  0  0  0
  5 35  1  0  0  0  0
  6 21  1  0  0  0  0
  6  7  2  0  0  0  0
  7  8  1  0  0  0  0
  7  9  1  0  0  0  0
  8 36  1  0  0  0  0
  9 10  1  0  0  0  0
  9 19  2  0  0  0  0
 10 11  1  0  0  0  0
 10 37  1  0  0  0  0
 10 38  1  0  0  0  0
 11 12  2  0  0  0  0
 11 13  1  0  0  0  0
 13 18  1  0  0  0  0
 13 14  1  0  0  0  0
 14 15  1  0  0  0  0
 14 39  1  0  0  0  0
 14 40  1  0  0  0  0
 15 16  1  0  0  0  0
 15 41  1  0  0  0  0
 15 42  1  0  0  0  0
 16 17  1  0  0  0  0
 17 18  1  0  0  0  0
 17 43  1  0  0  0  0
 17 44  1  0  0  0  0
 18 45  1  0  0  0  0
 18 46  1  0  0  0  0
 19 20  1  0  0  0  0
 19 21  1  0  0  0  0
 20 47  1  0  0  0  0
 20 48  1  0  0  0  0
 20 49  1  0  0  0  0
 21 22  1  0  0  0  0
 22 23  2  0  0  0  0
 22 24  1  0  0  0  0
 24 29  2  0  0  0  0
 24 25  1  0  0  0  0
 25 26  2  0  0  0  0
 25 50  1  0  0  0  0
 26 27  1  0  0  0  0
 26 51  1  0  0  0  0
 27 28  2  0  0  0  0
 27 52  1  0  0  0  0
 28 29  1  0  0  0  0
 28 53  1  0  0  0  0
 29 30  1  0  0  0  0
M  END
$$$$
CHEMBL3686311
 OpenBabel12022418103D

 70 73  0  0  1  0  0  0  0  0999 V2000
   -7.0971   -9.1336    0.6508 C   0  0  0  0  0  0  0  0  0  0  0  0
   -7.7243   -7.9517    0.0812 N   0  0  0  0  0  0  0  0  0  0  0  0
   -8.8152   -7.4476    0.9109 C   0  0  0  0  0  0  0  0  0  0  0  0
   -9.0762   -6.0515    0.3674 C   0  0  0  0  0  0  0  0  0  0  0  0
   -7.8311   -5.6641   -0.4206 C   0  0  0  0  0  0  0  0  0  0  0  0
   -6.8380   -6.8115   -0.2277 C   0  0  1  0  0  0  0  0  0  0  0  0
   -5.7706   -6.4342    0.8162 C   0  0  0  0  0  0  0  0  0  0  0  0
   -5.0343   -5.2572    0.4097 O   0  0  0  0  0  0  0  0  0  0  0  0
   -3.8998   -4.9726    1.1393 C   0  0  0  0  0  0  0  0  0  0  0  0
   -3.6476   -5.6475    2.3440 C   0  0  0  0  0  0  0  0  0  0  0  0
   -2.4082   -5.5875    2.9580 C   0  0  0  0  0  0  0  0  0  0  0  0
   -1.3876   -4.8149    2.4096 C   0  0  0  0  0  0  0  0  0  0  0  0
   -0.0327   -4.8691    3.0573 C   0  0  0  0  0  0  0  0  0  0  0  0
    0.0402   -5.7734    4.0831 F   0  0  0  0  0  0  0  0  0  0  0  0
    0.9724   -5.2350    2.2083 F   0  0  0  0  0  0  0  0  0  0  0  0
    0.3568   -3.6826    3.5843 F   0  0  0  0  0  0  0  0  0  0  0  0
   -1.6723   -4.0060    1.2856 C   0  0  0  0  0  0  0  0  0  0  0  0
   -2.9407   -4.0547    0.6402 C   0  0  0  0  0  0  0  0  0  0  0  0
   -3.1747   -3.1282   -0.5732 C   0  0  0  0  0  0  0  0  0  0  0  0
   -4.6705   -2.3494   -0.7837 S   0  0  0  0  0  0  0  0  0  0  0  0
   -2.1021   -2.7414   -1.3814 N   0  0  0  0  0  0  0  0  0  0  0  0
   -1.4043   -3.6060   -2.0394 C   0  0  0  0  0  0  0  0  0  0  0  0
   -0.2168   -3.4161   -2.7659 N   0  0  0  0  0  0  0  0  0  0  0  0
    0.5866   -4.5541   -2.7487 C   0  0  0  0  0  0  0  0  0  0  0  0
    0.0426   -5.6486   -2.2031 C   0  0  0  0  0  0  0  0  0  0  0  0
    0.7844   -6.8539   -1.6764 C   0  0  0  0  0  0  0  0  0  0  0  0
    1.2342   -6.4849   -0.2525 C   0  0  0  0  0  0  0  0  0  0  0  0
   -0.1050   -8.1059   -1.5942 C   0  0  0  0  0  0  0  0  0  0  0  0
    2.0376   -7.1701   -2.5096 C   0  0  0  0  0  0  0  0  0  0  0  0
   -1.6599   -5.3718   -1.9157 S   0  0  0  0  0  0  0  0  0  0  0  0
    0.0645   -2.3958   -3.7761 C   0  0  0  0  0  0  0  0  0  0  0  0
   -0.4441   -0.9748   -3.5878 C   0  0  1  0  0  0  0  0  0  0  0  0
    0.0708   -0.2796   -2.3418 C   0  0  0  0  0  0  0  0  0  0  0  0
    0.4760    1.1077   -2.7884 C   0  0  0  0  0  0  0  0  0  0  0  0
    0.2948    1.1282   -4.2871 C   0  0  0  0  0  0  0  0  0  0  0  0
    0.0738   -0.2148   -4.7075 O   0  0  0  0  0  0  0  0  0  0  0  0
   -6.2885   -9.4948    0.0075 H   0  0  0  0  0  0  0  0  0  0  0  0
   -7.8274   -9.9487    0.7242 H   0  0  0  0  0  0  0  0  0  0  0  0
   -6.6935   -8.9625    1.6550 H   0  0  0  0  0  0  0  0  0  0  0  0
   -8.5342   -7.3887    1.9685 H   0  0  0  0  0  0  0  0  0  0  0  0
   -9.7078   -8.0753    0.8288 H   0  0  0  0  0  0  0  0  0  0  0  0
   -9.2634   -5.3471    1.1846 H   0  0  0  0  0  0  0  0  0  0  0  0
   -9.9503   -6.0404   -0.2926 H   0  0  0  0  0  0  0  0  0  0  0  0
   -7.4469   -4.6972   -0.0801 H   0  0  0  0  0  0  0  0  0  0  0  0
   -8.0835   -5.5607   -1.4816 H   0  0  0  0  0  0  0  0  0  0  0  0
   -6.3222   -7.0003   -1.1771 H   0  0  0  0  0  0  0  0  0  0  0  0
   -6.2620   -6.2304    1.7758 H   0  0  0  0  0  0  0  0  0  0  0  0
   -5.0800   -7.2815    0.9186 H   0  0  0  0  0  0  0  0  0  0  0  0
   -4.3930   -6.2749    2.8232 H   0  0  0  0  0  0  0  0  0  0  0  0
   -2.2431   -6.1808    3.8571 H   0  0  0  0  0  0  0  0  0  0  0  0
   -0.8947   -3.3518    0.8956 H   0  0  0  0  0  0  0  0  0  0  0  0
    1.6182   -4.4210   -3.0378 H   0  0  0  0  0  0  0  0  0  0  0  0
    0.3578   -6.2762    0.3683 H   0  0  0  0  0  0  0  0  0  0  0  0
    1.8683   -5.5875   -0.2432 H   0  0  0  0  0  0  0  0  0  0  0  0
    1.7945   -7.2930    0.2260 H   0  0  0  0  0  0  0  0  0  0  0  0
   -0.9068   -7.9807   -0.8537 H   0  0  0  0  0  0  0  0  0  0  0  0
    0.4731   -8.9797   -1.2802 H   0  0  0  0  0  0  0  0  0  0  0  0
   -0.5699   -8.3290   -2.5588 H   0  0  0  0  0  0  0  0  0  0  0  0
    2.7704   -6.3538   -2.4673 H   0  0  0  0  0  0  0  0  0  0  0  0
    1.7829   -7.3399   -3.5602 H   0  0  0  0  0  0  0  0  0  0  0  0
    2.5433   -8.0645   -2.1312 H   0  0  0  0  0  0  0  0  0  0  0  0
   -0.2773   -2.7644   -4.7535 H   0  0  0  0  0  0  0  0  0  0  0  0
    1.1581   -2.3254   -3.8904 H   0  0  0  0  0  0  0  0  0  0  0  0
   -1.5369   -0.9341   -3.6454 H   0  0  0  0  0  0  0  0  0  0  0  0
    0.9356   -0.8003   -1.9156 H   0  0  0  0  0  0  0  0  0  0  0  0
   -0.6965   -0.2478   -1.5630 H   0  0  0  0  0  0  0  0  0  0  0  0
    1.5215    1.3026   -2.5233 H   0  0  0  0  0  0  0  0  0  0  0  0
   -0.1217    1.8903   -2.3112 H   0  0  0  0  0  0  0  0  0  0  0  0
    1.1747    1.5298   -4.8057 H   0  0  0  0  0  0  0  0  0  0  0  0
   -0.5715    1.7266   -4.5803 H   0  0  0  0  0  0  0  0  0  0  0  0
  1  2  1  0  0  0  0
  1 37  1  0  0  0  0
  1 38  1  0  0  0  0
  1 39  1  0  0  0  0
  2  6  1  0  0  0  0
  2  3  1  0  0  0  0
  3  4  1  0  0  0  0
  3 40  1  0  0  0  0
  3 41  1  0  0  0  0
  4  5  1  0  0  0  0
  4 42  1  0  0  0  0
  4 43  1  0  0  0  0
  5  6  1  0  0  0  0
  5 44  1  0  0  0  0
  5 45  1  0  0  0  0
  6  7  1  0  0  0  0
  6 46  1  6  0  0  0
  7  8  1  0  0  0  0
  7 47  1  0  0  0  0
  7 48  1  0  0  0  0
  8  9  1  0  0  0  0
  9 18  2  0  0  0  0
  9 10  1  0  0  0  0
 10 11  2  0  0  0  0
 10 49  1  0  0  0  0
 11 12  1  0  0  0  0
 11 50  1  0  0  0  0
 12 13  1  0  0  0  0
 12 17  2  0  0  0  0
 13 14  1  0  0  0  0
 13 15  1  0  0  0  0
 13 16  1  0  0  0  0
 17 18  1  0  0  0  0
 17 51  1  0  0  0  0
 18 19  1  0  0  0  0
 19 20  2  0  0  0  0
 19 21  1  0  0  0  0
 21 22  2  0  0  0  0
 22 30  1  0  0  0  0
 22 23  1  0  0  0  0
 23 24  1  0  0  0  0
 23 31  1  0  0  0  0
 24 25  2  0  0  0  0
 24 52  1  0  0  0  0
 25 26  1  0  0  0  0
 25 30  1  0  0  0  0
 26 27  1  0  0  0  0
 26 28  1  0  0  0  0
 26 29  1  0  0  0  0
 27 53  1  0  0  0  0
 27 54  1  0  0  0  0
 27 55  1  0  0  0  0
 28 56  1  0  0  0  0
 28 57  1  0  0  0  0
 28 58  1  0  0  0  0
 29 59  1  0  0  0  0
 29 60  1  0  0  0  0
 29 61  1  0  0  0  0
 31 62  1  0  0  0  0
 31 63  1  0  0  0  0
 32 33  1  0  0  0  0
 32 36  1  0  0  0  0
 32 31  1  0  0  0  0
 32 64  1  6  0  0  0
 33 34  1  0  0  0  0
 33 65  1  0  0  0  0
 33 66  1  0  0  0  0
 34 35  1  0  0  0  0
 34 67  1  0  0  0  0
 34 68  1  0  0  0  0
 35 36  1  0  0  0  0
 35 69  1  0  0  0  0
 35 70  1  0  0  0  0
M  END
$$$$
CHEMBL562704
 OpenBabel12022418103D

 50 53  0  0  0  0  0  0  0  0999 V2000
    3.1172   -2.4584   -0.3867 C   0  0  0  0  0  0  0  0  0  0  0  0
    3.9708   -1.1836   -0.3670 C   0  0  0  0  0  0  0  0  0  0  0  0
    4.5396   -0.8202    1.0208 C   0  0  0  0  0  0  0  0  0  0  0  0
    5.2531    0.4696    1.0910 N   0  0  0  0  0  0  0  0  0  0  0  0
    6.6267    0.6985    1.0850 C   0  0  0  0  0  0  0  0  0  0  0  0
    6.9407    2.0727    1.2493 C   0  0  0  0  0  0  0  0  0  0  0  0
    8.4660    2.6307    1.1634 C   0  0  0  0  0  0  0  0  0  0  0  0
    9.3849    1.8163    1.0525 O   0  0  0  0  0  0  0  0  0  0  0  0
    8.8989    4.1550    1.2297 C   0  0  0  0  0  0  0  0  0  0  0  0
    7.8119    4.9791    1.2575 C   0  0  0  0  0  0  0  0  0  0  0  0
    7.8266    6.2680    1.7574 C   0  0  0  0  0  0  0  0  0  0  0  0
    9.0017    6.9759    1.8385 C   0  0  0  0  0  0  0  0  0  0  0  0
   10.1810    6.3238    1.4493 C   0  0  0  0  0  0  0  0  0  0  0  0
   11.3316    7.1318    1.2553 C   0  0  0  0  0  0  0  0  0  0  0  0
   12.5183    6.6081    0.7739 C   0  0  0  0  0  0  0  0  0  0  0  0
   12.5929    5.2370    0.5596 C   0  0  0  0  0  0  0  0  0  0  0  0
   11.4690    4.3924    0.7956 C   0  0  0  0  0  0  0  0  0  0  0  0
   10.1853    4.8818    1.1838 C   0  0  0  0  0  0  0  0  0  0  0  0
    9.0144    8.3276    2.1483 O   0  0  0  0  0  0  0  0  0  0  0  0
    7.7196    8.9122    2.3512 C   0  0  0  0  0  0  0  0  0  0  0  0
    7.7734   10.4196    2.4794 C   0  0  0  0  0  0  0  0  0  0  0  0
    5.5833    2.6555    1.5044 C   0  0  0  0  0  0  0  0  0  0  0  0
    5.0404    3.9108    1.8864 C   0  0  0  0  0  0  0  0  0  0  0  0
    3.6688    4.1988    1.9079 C   0  0  0  0  0  0  0  0  0  0  0  0
    2.7670    3.1947    1.6505 C   0  0  0  0  0  0  0  0  0  0  0  0
    3.2092    1.9076    1.3923 C   0  0  0  0  0  0  0  0  0  0  0  0
    4.6065    1.6602    1.3072 C   0  0  0  0  0  0  0  0  0  0  0  0
    2.8185   -2.6953   -1.4166 H   0  0  0  0  0  0  0  0  0  0  0  0
    2.1947   -2.3441    0.1940 H   0  0  0  0  0  0  0  0  0  0  0  0
    3.6627   -3.3239    0.0019 H   0  0  0  0  0  0  0  0  0  0  0  0
    3.3489   -0.3658   -0.7498 H   0  0  0  0  0  0  0  0  0  0  0  0
    4.7975   -1.3114   -1.0726 H   0  0  0  0  0  0  0  0  0  0  0  0
    5.2094   -1.6015    1.3926 H   0  0  0  0  0  0  0  0  0  0  0  0
    3.7071   -0.7656    1.7384 H   0  0  0  0  0  0  0  0  0  0  0  0
    7.2900   -0.1466    0.9604 H   0  0  0  0  0  0  0  0  0  0  0  0
    6.9187    4.6371    0.7731 H   0  0  0  0  0  0  0  0  0  0  0  0
    6.8623    6.7052    1.9814 H   0  0  0  0  0  0  0  0  0  0  0  0
   11.2848    8.2098    1.4189 H   0  0  0  0  0  0  0  0  0  0  0  0
   13.3568    7.2713    0.5617 H   0  0  0  0  0  0  0  0  0  0  0  0
   13.5256    4.8308    0.1729 H   0  0  0  0  0  0  0  0  0  0  0  0
   11.6069    3.3315    0.5809 H   0  0  0  0  0  0  0  0  0  0  0  0
    7.2833    8.5017    3.2700 H   0  0  0  0  0  0  0  0  0  0  0  0
    7.0723    8.7003    1.4913 H   0  0  0  0  0  0  0  0  0  0  0  0
    8.4568   10.7305    3.2722 H   0  0  0  0  0  0  0  0  0  0  0  0
    6.7697   10.7994    2.7044 H   0  0  0  0  0  0  0  0  0  0  0  0
    8.1083   10.8766    1.5437 H   0  0  0  0  0  0  0  0  0  0  0  0
    5.6568    4.7349    2.2038 H   0  0  0  0  0  0  0  0  0  0  0  0
    3.3307    5.2016    2.1373 H   0  0  0  0  0  0  0  0  0  0  0  0
    1.7004    3.4037    1.7073 H   0  0  0  0  0  0  0  0  0  0  0  0
    2.4803    1.1206    1.2548 H   0  0  0  0  0  0  0  0  0  0  0  0
  1  2  1  0  0  0  0
  1 28  1  0  0  0  0
  1 29  1  0  0  0  0
  1 30  1  0  0  0  0
  2  3  1  0  0  0  0
  2 31  1  0  0  0  0
  2 32  1  0  0  0  0
  3  4  1  0  0  0  0
  3 33  1  0  0  0  0
  3 34  1  0  0  0  0
  4 27  1  0  0  0  0
  4  5  1  0  0  0  0
  5  6  2  0  0  0  0
  5 35  1  0  0  0  0
  6  7  1  0  0  0  0
  6 22  1  0  0  0  0
  7  8  2  0  0  0  0
  7  9  1  0  0  0  0
  9 18  2  0  0  0  0
  9 10  1  0  0  0  0
 10 11  2  0  0  0  0
 10 36  1  0  0  0  0
 11 12  1  0  0  0  0
 11 37  1  0  0  0  0
 12 13  2  0  0  0  0
 12 19  1  0  0  0  0
 13 18  1  0  0  0  0
 13 14  1  0  0  0  0
 14 15  2  0  0  0  0
 14 38  1  0  0  0  0
 15 16  1  0  0  0  0
 15 39  1  0  0  0  0
 16 17  2  0  0  0  0
 16 40  1  0  0  0  0
 17 18  1  0  0  0  0
 17 41  1  0  0  0  0
 19 20  1  0  0  0  0
 20 21  1  0  0  0  0
 20 42  1  0  0  0  0
 20 43  1  0  0  0  0
 21 44  1  0  0  0  0
 21 45  1  0  0  0  0
 21 46  1  0  0  0  0
 22 27  2  0  0  0  0
 22 23  1  0  0  0  0
 23 24  2  0  0  0  0
 23 47  1  0  0  0  0
 24 25  1  0  0  0  0
 24 48  1  0  0  0  0
 25 26  2  0  0  0  0
 25 49  1  0  0  0  0
 26 27  1  0  0  0  0
 26 50  1  0  0  0  0
M  END
$$$$
CHEMBL561090
 OpenBabel12022418103D

 55 58  0  0  0  0  0  0  0  0999 V2000
    4.7094    2.0996    0.6609 C   0  0  0  0  0  0  0  0  0  0  0  0
    4.4626    0.6001    0.6683 C   0  0  0  0  0  0  0  0  0  0  0  0
    4.9398   -0.0323   -0.6422 C   0  0  0  0  0  0  0  0  0  0  0  0
    4.7128   -1.5432   -0.6575 C   0  0  0  0  0  0  0  0  0  0  0  0
    5.2793   -2.2344   -1.9172 C   0  0  0  0  0  0  0  0  0  0  0  0
    6.7140   -2.0308   -2.1579 N   0  0  0  0  0  0  0  0  0  0  0  0
    7.3345   -1.3529   -3.2010 C   0  0  0  0  0  0  0  0  0  0  0  0
    6.5879   -0.8818   -4.4086 C   0  0  0  0  0  0  0  0  0  0  0  0
    8.7096   -1.1924   -2.8999 C   0  0  0  0  0  0  0  0  0  0  0  0
    9.6895   -0.2004   -3.6418 C   0  0  0  0  0  0  0  0  0  0  0  0
    9.7900   -0.1725   -4.8631 O   0  0  0  0  0  0  0  0  0  0  0  0
   10.4257    0.8782   -2.7761 C   0  0  0  0  0  0  0  0  0  0  0  0
   10.1439    0.7161   -1.4171 C   0  0  0  0  0  0  0  0  0  0  0  0
   10.6881    1.5992   -0.5361 C   0  0  0  0  0  0  0  0  0  0  0  0
   10.3209    2.8383   -0.9654 C   0  0  0  0  0  0  0  0  0  0  0  0
    8.9979    3.4112   -0.5431 C   0  0  0  0  0  0  0  0  0  0  0  0
   10.8929    3.2044   -2.1647 C   0  0  0  0  0  0  0  0  0  0  0  0
   11.2311    4.5663   -2.2684 C   0  0  0  0  0  0  0  0  0  0  0  0
   12.0557    5.0117   -3.2751 C   0  0  0  0  0  0  0  0  0  0  0  0
   12.4767    4.0843   -4.2166 C   0  0  0  0  0  0  0  0  0  0  0  0
   11.9799    2.7321   -4.2038 C   0  0  0  0  0  0  0  0  0  0  0  0
   11.1243    2.1869   -3.1440 C   0  0  0  0  0  0  0  0  0  0  0  0
    8.9199   -2.0758   -1.7217 C   0  0  0  0  0  0  0  0  0  0  0  0
   10.0271   -2.4735   -0.9241 C   0  0  0  0  0  0  0  0  0  0  0  0
    9.8348   -3.2413    0.2497 C   0  0  0  0  0  0  0  0  0  0  0  0
    8.5739   -3.6559    0.6467 C   0  0  0  0  0  0  0  0  0  0  0  0
    7.4828   -3.3312   -0.1420 C   0  0  0  0  0  0  0  0  0  0  0  0
    7.6686   -2.5358   -1.2946 C   0  0  0  0  0  0  0  0  0  0  0  0
    4.3816    2.5466    1.6038 H   0  0  0  0  0  0  0  0  0  0  0  0
    4.1607    2.5800   -0.1554 H   0  0  0  0  0  0  0  0  0  0  0  0
    5.7747    2.3186    0.5330 H   0  0  0  0  0  0  0  0  0  0  0  0
    3.3949    0.4049    0.8195 H   0  0  0  0  0  0  0  0  0  0  0  0
    4.9968    0.1532    1.5155 H   0  0  0  0  0  0  0  0  0  0  0  0
    6.0056    0.1835   -0.7637 H   0  0  0  0  0  0  0  0  0  0  0  0
    4.4116    0.4195   -1.4874 H   0  0  0  0  0  0  0  0  0  0  0  0
    3.6356   -1.7501   -0.5986 H   0  0  0  0  0  0  0  0  0  0  0  0
    5.1384   -1.9740    0.2558 H   0  0  0  0  0  0  0  0  0  0  0  0
    4.7075   -1.9207   -2.7879 H   0  0  0  0  0  0  0  0  0  0  0  0
    5.1275   -3.3189   -1.8277 H   0  0  0  0  0  0  0  0  0  0  0  0
    5.5023   -0.9342   -4.2982 H   0  0  0  0  0  0  0  0  0  0  0  0
    6.8492   -1.5147   -5.2642 H   0  0  0  0  0  0  0  0  0  0  0  0
    6.8372    0.1552   -4.6397 H   0  0  0  0  0  0  0  0  0  0  0  0
    9.2243    0.2429   -1.1030 H   0  0  0  0  0  0  0  0  0  0  0  0
   11.7956    1.4808   -0.5071 H   0  0  0  0  0  0  0  0  0  0  0  0
    8.2407    2.6171   -0.5079 H   0  0  0  0  0  0  0  0  0  0  0  0
    8.6332    4.1534   -1.2599 H   0  0  0  0  0  0  0  0  0  0  0  0
    9.0973    3.8658    0.4422 H   0  0  0  0  0  0  0  0  0  0  0  0
   10.9433    5.2636   -1.4826 H   0  0  0  0  0  0  0  0  0  0  0  0
   12.3957    6.0464   -3.2662 H   0  0  0  0  0  0  0  0  0  0  0  0
   13.2117    4.4238   -4.9484 H   0  0  0  0  0  0  0  0  0  0  0  0
   12.3707    2.0821   -4.9856 H   0  0  0  0  0  0  0  0  0  0  0  0
   11.0326   -2.1689   -1.1873 H   0  0  0  0  0  0  0  0  0  0  0  0
   10.6857   -3.5149    0.8689 H   0  0  0  0  0  0  0  0  0  0  0  0
    8.4266   -4.2313    1.5597 H   0  0  0  0  0  0  0  0  0  0  0  0
    6.4969   -3.6767    0.1573 H   0  0  0  0  0  0  0  0  0  0  0  0
  1  2  1  0  0  0  0
  1 29  1  0  0  0  0
  1 30  1  0  0  0  0
  1 31  1  0  0  0  0
  2  3  1  0  0  0  0
  2 32  1  0  0  0  0
  2 33  1  0  0  0  0
  3  4  1  0  0  0  0
  3 34  1  0  0  0  0
  3 35  1  0  0  0  0
  4  5  1  0  0  0  0
  4 36  1  0  0  0  0
  4 37  1  0  0  0  0
  5  6  1  0  0  0  0
  5 38  1  0  0  0  0
  5 39  1  0  0  0  0
  6 28  1  0  0  0  0
  6  7  1  0  0  0  0
  7  8  1  0  0  0  0
  7  9  2  0  0  0  0
  8 40  1  0  0  0  0
  8 41  1  0  0  0  0
  8 42  1  0  0  0  0
  9 10  1  0  0  0  0
  9 23  1  0  0  0  0
 10 11  2  0  0  0  0
 10 12  1  0  0  0  0
 12 22  2  0  0  0  0
 12 13  1  0  0  0  0
 13 14  2  0  0  0  0
 13 43  1  0  0  0  0
 14 15  1  0  0  0  0
 14 44  1  0  0  0  0
 15 16  1  0  0  0  0
 15 17  2  0  0  0  0
 16 45  1  0  0  0  0
 16 46  1  0  0  0  0
 16 47  1  0  0  0  0
 17 22  1  0  0  0  0
 17 18  1  0  0  0  0
 18 19  2  0  0  0  0
 18 48  1  0  0  0  0
 19 20  1  0  0  0  0
 19 49  1  0  0  0  0
 20 21  2  0  0  0  0
 20 50  1  0  0  0  0
 21 22  1  0  0  0  0
 21 51  1  0  0  0  0
 23 28  2  0  0  0  0
 23 24  1  0  0  0  0
 24 25  2  0  0  0  0
 24 52  1  0  0  0  0
 25 26  1  0  0  0  0
 25 53  1  0  0  0  0
 26 27  2  0  0  0  0
 26 54  1  0  0  0  0
 27 28  1  0  0  0  0
 27 55  1  0  0  0  0
M  END
$$$$
CHEMBL539479
 OpenBabel12022418103D

 52 55  0  0  0  0  0  0  0  0999 V2000
    0.8948    1.1316    2.0737 C   0  0  0  0  0  0  0  0  0  0  0  0
    2.4109    1.1075    2.2131 C   0  0  0  0  0  0  0  0  0  0  0  0
    3.0786    1.0415    0.8407 C   0  0  0  0  0  0  0  0  0  0  0  0
    4.5954    1.0172    0.9042 C   0  0  0  0  0  0  0  0  0  0  0  0
    5.2494    2.2558    0.8702 C   0  0  0  0  0  0  0  0  0  0  0  0
    6.6333    2.3257    0.7921 C   0  0  0  0  0  0  0  0  0  0  0  0
    7.4124    1.1595    0.7752 C   0  0  0  0  0  0  0  0  0  0  0  0
    6.7806   -0.1241    0.8287 C   0  0  0  0  0  0  0  0  0  0  0  0
    5.3559   -0.1852    0.9190 C   0  0  0  0  0  0  0  0  0  0  0  0
    4.7351   -1.4560    0.9937 C   0  0  0  0  0  0  0  0  0  0  0  0
    5.4577   -2.6454    0.9219 C   0  0  0  0  0  0  0  0  0  0  0  0
    6.8322   -2.5977    0.7980 C   0  0  0  0  0  0  0  0  0  0  0  0
    7.4794   -1.3611    0.7766 C   0  0  0  0  0  0  0  0  0  0  0  0
    8.8919    1.3110    0.5593 C   0  0  0  0  0  0  0  0  0  0  0  0
    9.4717    0.4847   -0.1406 O   0  0  0  0  0  0  0  0  0  0  0  0
    9.6236    2.4715    1.0896 C   0  0  0  0  0  0  0  0  0  0  0  0
    9.3207    3.2619    2.1866 C   0  0  0  0  0  0  0  0  0  0  0  0
   10.2647    4.2589    2.2886 N   0  0  0  0  0  0  0  0  0  0  0  0
   11.2257    4.1030    1.3119 C   0  0  0  0  0  0  0  0  0  0  0  0
   10.8524    2.9905    0.5522 C   0  0  0  0  0  0  0  0  0  0  0  0
   11.6720    2.6071   -0.5325 C   0  0  0  0  0  0  0  0  0  0  0  0
   12.8277    3.3331   -0.8308 C   0  0  0  0  0  0  0  0  0  0  0  0
   13.1777    4.4350   -0.0622 C   0  0  0  0  0  0  0  0  0  0  0  0
   12.3884    4.8393    1.0198 C   0  0  0  0  0  0  0  0  0  0  0  0
   10.2650    5.2759    3.3297 C   0  0  0  0  0  0  0  0  0  0  0  0
    9.4128    6.5058    3.0083 C   0  0  0  0  0  0  0  0  0  0  0  0
    9.9581    7.3506    1.8658 C   0  0  0  0  0  0  0  0  0  0  0  0
    0.4222    1.2797    3.0494 H   0  0  0  0  0  0  0  0  0  0  0  0
    0.5269    0.1880    1.6573 H   0  0  0  0  0  0  0  0  0  0  0  0
    0.5719    1.9438    1.4137 H   0  0  0  0  0  0  0  0  0  0  0  0
    2.7043    0.2494    2.8286 H   0  0  0  0  0  0  0  0  0  0  0  0
    2.7365    2.0089    2.7458 H   0  0  0  0  0  0  0  0  0  0  0  0
    2.7698    1.9133    0.2474 H   0  0  0  0  0  0  0  0  0  0  0  0
    2.7064    0.1847    0.2677 H   0  0  0  0  0  0  0  0  0  0  0  0
    4.6751    3.1803    0.8593 H   0  0  0  0  0  0  0  0  0  0  0  0
    7.0876    3.3087    0.6923 H   0  0  0  0  0  0  0  0  0  0  0  0
    3.6576   -1.5456    1.1067 H   0  0  0  0  0  0  0  0  0  0  0  0
    4.9427   -3.6015    0.9561 H   0  0  0  0  0  0  0  0  0  0  0  0
    7.4103   -3.5149    0.7162 H   0  0  0  0  0  0  0  0  0  0  0  0
    8.5634   -1.3899    0.6948 H   0  0  0  0  0  0  0  0  0  0  0  0
    8.5093    3.2046    2.9009 H   0  0  0  0  0  0  0  0  0  0  0  0
   11.4078    1.7428   -1.1369 H   0  0  0  0  0  0  0  0  0  0  0  0
   13.4511    3.0247   -1.6645 H   0  0  0  0  0  0  0  0  0  0  0  0
   14.0795    4.9914   -0.3068 H   0  0  0  0  0  0  0  0  0  0  0  0
   12.6777    5.7050    1.6063 H   0  0  0  0  0  0  0  0  0  0  0  0
   11.3022    5.5576    3.5411 H   0  0  0  0  0  0  0  0  0  0  0  0
    9.8784    4.7968    4.2375 H   0  0  0  0  0  0  0  0  0  0  0  0
    9.3650    7.1361    3.9050 H   0  0  0  0  0  0  0  0  0  0  0  0
    8.3849    6.2061    2.7739 H   0  0  0  0  0  0  0  0  0  0  0  0
   10.9858    7.6696    2.0663 H   0  0  0  0  0  0  0  0  0  0  0  0
    9.3471    8.2504    1.7378 H   0  0  0  0  0  0  0  0  0  0  0  0
    9.9404    6.8035    0.9187 H   0  0  0  0  0  0  0  0  0  0  0  0
  1  2  1  0  0  0  0
  1 28  1  0  0  0  0
  1 29  1  0  0  0  0
  1 30  1  0  0  0  0
  2  3  1  0  0  0  0
  2 31  1  0  0  0  0
  2 32  1  0  0  0  0
  3  4  1  0  0  0  0
  3 33  1  0  0  0  0
  3 34  1  0  0  0  0
  4  9  2  0  0  0  0
  4  5  1  0  0  0  0
  5  6  2  0  0  0  0
  5 35  1  0  0  0  0
  6  7  1  0  0  0  0
  6 36  1  0  0  0  0
  7  8  2  0  0  0  0
  7 14  1  0  0  0  0
  8 13  1  0  0  0  0
  8  9  1  0  0  0  0
  9 10  1  0  0  0  0
 10 11  2  0  0  0  0
 10 37  1  0  0  0  0
 11 12  1  0  0  0  0
 11 38  1  0  0  0  0
 12 13  2  0  0  0  0
 12 39  1  0  0  0  0
 13 40  1  0  0  0  0
 14 15  2  0  0  0  0
 14 16  1  0  0  0  0
 16 20  1  0  0  0  0
 16 17  2  0  0  0  0
 17 18  1  0  0  0  0
 17 41  1  0  0  0  0
 18 19  1  0  0  0  0
 18 25  1  0  0  0  0
 19 24  2  0  0  0  0
 19 20  1  0  0  0  0
 20 21  2  0  0  0  0
 21 22  1  0  0  0  0
 21 42  1  0  0  0  0
 22 23  2  0  0  0  0
 22 43  1  0  0  0  0
 23 24  1  0  0  0  0
 23 44  1  0  0  0  0
 24 45  1  0  0  0  0
 25 26  1  0  0  0  0
 25 46  1  0  0  0  0
 25 47  1  0  0  0  0
 26 27  1  0  0  0  0
 26 48  1  0  0  0  0
 26 49  1  0  0  0  0
 27 50  1  0  0  0  0
 27 51  1  0  0  0  0
 27 52  1  0  0  0  0
M  END
$$$$
CHEMBL2387076
 OpenBabel12022418103D

 51 53  0  0  0  0  0  0  0  0999 V2000
    0.1852    0.9306    0.4468 C   0  0  0  0  0  0  0  0  0  0  0  0
    0.9265    0.8765   -0.7315 C   0  0  0  0  0  0  0  0  0  0  0  0
    0.8035   -0.2211   -1.5801 C   0  0  0  0  0  0  0  0  0  0  0  0
   -0.0616   -1.2655   -1.2515 C   0  0  0  0  0  0  0  0  0  0  0  0
   -0.8133   -1.2228   -0.0673 C   0  0  0  0  0  0  0  0  0  0  0  0
   -0.6804   -0.1134    0.7792 C   0  0  0  0  0  0  0  0  0  0  0  0
   -1.7876   -2.3279    0.2590 C   0  0  0  0  0  0  0  0  0  0  0  0
   -1.1341   -3.6103    0.3571 N   0  0  0  0  0  0  0  0  0  0  0  0
   -1.7461   -4.7701   -0.0337 C   0  0  0  0  0  0  0  0  0  0  0  0
   -2.8796   -4.7946   -0.5111 O   0  0  0  0  0  0  0  0  0  0  0  0
   -0.9395   -6.0169    0.1188 C   0  0  0  0  0  0  0  0  0  0  0  0
    0.2924   -6.1267    0.9430 C   0  0  0  0  0  0  0  0  0  0  0  0
    0.7559   -5.1110    1.4682 O   0  0  0  0  0  0  0  0  0  0  0  0
    0.8740   -7.4063    1.0758 N   0  0  0  0  0  0  0  0  0  0  0  0
    2.0926   -7.4793    1.9027 C   0  0  0  0  0  0  0  0  0  0  0  0
    1.9513   -7.0410    3.3710 C   0  0  0  0  0  0  0  0  0  0  0  0
    1.0212   -7.8955    4.2327 C   0  0  0  0  0  0  0  0  0  0  0  0
    0.9739   -7.3372    5.6537 C   0  0  0  0  0  0  0  0  0  0  0  0
    0.4618   -8.4802    0.2623 C   0  0  0  0  0  0  0  0  0  0  0  0
   -0.5949   -8.3266   -0.5667 C   0  0  0  0  0  0  0  0  0  0  0  0
   -1.3390   -7.0909   -0.5793 C   0  0  0  0  0  0  0  0  0  0  0  0
   -1.0620   -9.3674   -1.5576 C   0  0  0  0  0  0  0  0  0  0  0  0
   -0.0353  -10.4679   -1.8034 C   0  0  0  0  0  0  0  0  0  0  0  0
    0.5446  -10.9413   -0.4781 C   0  0  0  0  0  0  0  0  0  0  0  0
    1.2303   -9.7902    0.2700 C   0  0  0  0  0  0  0  0  0  0  0  0
    0.2771    1.7906    1.1076 H   0  0  0  0  0  0  0  0  0  0  0  0
    1.5976    1.6925   -0.9902 H   0  0  0  0  0  0  0  0  0  0  0  0
    1.3785   -0.2614   -2.5014 H   0  0  0  0  0  0  0  0  0  0  0  0
   -0.1563   -2.1119   -1.9260 H   0  0  0  0  0  0  0  0  0  0  0  0
   -1.2561   -0.0499    1.6985 H   0  0  0  0  0  0  0  0  0  0  0  0
   -2.5704   -2.3520   -0.5076 H   0  0  0  0  0  0  0  0  0  0  0  0
   -2.2778   -2.1476    1.2222 H   0  0  0  0  0  0  0  0  0  0  0  0
   -0.2447   -3.6685    0.8542 H   0  0  0  0  0  0  0  0  0  0  0  0
    2.8251   -6.8130    1.4267 H   0  0  0  0  0  0  0  0  0  0  0  0
    2.5366   -8.4768    1.8848 H   0  0  0  0  0  0  0  0  0  0  0  0
    1.6287   -5.9982    3.4389 H   0  0  0  0  0  0  0  0  0  0  0  0
    2.9534   -7.0677    3.8181 H   0  0  0  0  0  0  0  0  0  0  0  0
    1.3787   -8.9309    4.2632 H   0  0  0  0  0  0  0  0  0  0  0  0
    0.0080   -7.9056    3.8174 H   0  0  0  0  0  0  0  0  0  0  0  0
    1.9760   -7.3019    6.0948 H   0  0  0  0  0  0  0  0  0  0  0  0
    0.3414   -7.9548    6.2967 H   0  0  0  0  0  0  0  0  0  0  0  0
    0.5699   -6.3187    5.6578 H   0  0  0  0  0  0  0  0  0  0  0  0
   -2.2292   -7.0435   -1.2019 H   0  0  0  0  0  0  0  0  0  0  0  0
   -1.2943   -8.9008   -2.5215 H   0  0  0  0  0  0  0  0  0  0  0  0
   -1.9930   -9.8131   -1.1845 H   0  0  0  0  0  0  0  0  0  0  0  0
    0.7692  -10.0940   -2.4477 H   0  0  0  0  0  0  0  0  0  0  0  0
   -0.5076  -11.3025   -2.3319 H   0  0  0  0  0  0  0  0  0  0  0  0
    1.2597  -11.7529   -0.6513 H   0  0  0  0  0  0  0  0  0  0  0  0
   -0.2609  -11.3537    0.1425 H   0  0  0  0  0  0  0  0  0  0  0  0
    1.3951  -10.1349    1.2959 H   0  0  0  0  0  0  0  0  0  0  0  0
    2.2122   -9.6160   -0.1897 H   0  0  0  0  0  0  0  0  0  0  0  0
  1  6  2  0  0  0  0
  1  2  1  0  0  0  0
  1 26  1  0  0  0  0
  2  3  2  0  0  0  0
  2 27  1  0  0  0  0
  3  4  1  0  0  0  0
  3 28  1  0  0  0  0
  4  5  2  0  0  0  0
  4 29  1  0  0  0  0
  5  6  1  0  0  0  0
  5  7  1  0  0  0  0
  6 30  1  0  0  0  0
  7  8  1  0  0  0  0
  7 31  1  0  0  0  0
  7 32  1  0  0  0  0
  8  9  1  0  0  0  0
  8 33  1  0  0  0  0
  9 10  2  0  0  0  0
  9 11  1  0  0  0  0
 11 21  2  0  0  0  0
 11 12  1  0  0  0  0
 12 13  2  0  0  0  0
 12 14  1  0  0  0  0
 14 15  1  0  0  0  0
 14 19  1  0  0  0  0
 15 16  1  0  0  0  0
 15 34  1  0  0  0  0
 15 35  1  0  0  0  0
 16 17  1  0  0  0  0
 16 36  1  0  0  0  0
 16 37  1  0  0  0  0
 17 18  1  0  0  0  0
 17 38  1  0  0  0  0
 17 39  1  0  0  0  0
 18 40  1  0  0  0  0
 18 41  1  0  0  0  0
 18 42  1  0  0  0  0
 19 25  1  0  0  0  0
 19 20  2  0  0  0  0
 20 21  1  0  0  0  0
 20 22  1  0  0  0  0
 21 43  1  0  0  0  0
 22 23  1  0  0  0  0
 22 44  1  0  0  0  0
 22 45  1  0  0  0  0
 23 24  1  0  0  0  0
 23 46  1  0  0  0  0
 23 47  1  0  0  0  0
 24 25  1  0  0  0  0
 24 48  1  0  0  0  0
 24 49  1  0  0  0  0
 25 50  1  0  0  0  0
 25 51  1  0  0  0  0
M  END
$$$$
CHEMBL561089
 OpenBabel12022418103D

 49 52  0  0  0  0  0  0  0  0999 V2000
    1.1782   -0.1030    0.0039 C   0  0  0  0  0  0  0  0  0  0  0  0
    2.6549    0.2655   -0.0809 C   0  0  0  0  0  0  0  0  0  0  0  0
    3.2956   -0.1309   -1.4179 C   0  0  0  0  0  0  0  0  0  0  0  0
    4.7354    0.1680   -1.4577 N   0  0  0  0  0  0  0  0  0  0  0  0
    5.3646    1.3345   -1.8917 C   0  0  0  0  0  0  0  0  0  0  0  0
    4.6024    2.4230   -2.5688 C   0  0  0  0  0  0  0  0  0  0  0  0
    6.7250    1.2737   -1.5454 C   0  0  0  0  0  0  0  0  0  0  0  0
    7.6998    2.4859   -1.5247 C   0  0  0  0  0  0  0  0  0  0  0  0
    7.8007    3.2678   -2.4691 O   0  0  0  0  0  0  0  0  0  0  0  0
    8.5083    2.8050   -0.2180 C   0  0  0  0  0  0  0  0  0  0  0  0
    8.2240    1.8603    0.7678 C   0  0  0  0  0  0  0  0  0  0  0  0
    8.7928    2.0070    1.9847 C   0  0  0  0  0  0  0  0  0  0  0  0
    8.4669    3.2606    2.4079 C   0  0  0  0  0  0  0  0  0  0  0  0
    7.1718    3.4891    3.1287 C   0  0  0  0  0  0  0  0  0  0  0  0
    9.0415    4.2633    1.6692 C   0  0  0  0  0  0  0  0  0  0  0  0
    9.4409    5.4079    2.4138 C   0  0  0  0  0  0  0  0  0  0  0  0
   10.2843    6.3308    1.8541 C   0  0  0  0  0  0  0  0  0  0  0  0
   10.6680    6.1518    0.5285 C   0  0  0  0  0  0  0  0  0  0  0  0
   10.1219    5.0923   -0.2761 C   0  0  0  0  0  0  0  0  0  0  0  0
    9.2432    4.0446    0.2584 C   0  0  0  0  0  0  0  0  0  0  0  0
    6.9333   -0.1333   -1.1413 C   0  0  0  0  0  0  0  0  0  0  0  0
    8.0529   -0.9361   -0.7629 C   0  0  0  0  0  0  0  0  0  0  0  0
    7.8676   -2.2435   -0.2676 C   0  0  0  0  0  0  0  0  0  0  0  0
    6.5916   -2.7870   -0.1193 C   0  0  0  0  0  0  0  0  0  0  0  0
    5.4877   -2.0488   -0.4939 C   0  0  0  0  0  0  0  0  0  0  0  0
    5.6773   -0.7397   -1.0127 C   0  0  0  0  0  0  0  0  0  0  0  0
    0.7486    0.2824    0.9365 H   0  0  0  0  0  0  0  0  0  0  0  0
    1.0373   -1.1886    0.0007 H   0  0  0  0  0  0  0  0  0  0  0  0
    0.6103    0.3228   -0.8279 H   0  0  0  0  0  0  0  0  0  0  0  0
    3.1796   -0.2220    0.7501 H   0  0  0  0  0  0  0  0  0  0  0  0
    2.7625    1.3468    0.0714 H   0  0  0  0  0  0  0  0  0  0  0  0
    2.8040    0.3549   -2.2651 H   0  0  0  0  0  0  0  0  0  0  0  0
    3.1662   -1.2065   -1.5883 H   0  0  0  0  0  0  0  0  0  0  0  0
    3.5176    2.2921   -2.4967 H   0  0  0  0  0  0  0  0  0  0  0  0
    4.8499    2.4203   -3.6378 H   0  0  0  0  0  0  0  0  0  0  0  0
    4.8406    3.3930   -2.1426 H   0  0  0  0  0  0  0  0  0  0  0  0
    7.2976    1.3057    0.7492 H   0  0  0  0  0  0  0  0  0  0  0  0
    9.9010    1.8740    1.9182 H   0  0  0  0  0  0  0  0  0  0  0  0
    6.3945    2.8355    2.7135 H   0  0  0  0  0  0  0  0  0  0  0  0
    6.8114    4.5166    3.0051 H   0  0  0  0  0  0  0  0  0  0  0  0
    7.3027    3.2686    4.1874 H   0  0  0  0  0  0  0  0  0  0  0  0
    9.1667    5.4872    3.4569 H   0  0  0  0  0  0  0  0  0  0  0  0
   10.6686    7.1344    2.4752 H   0  0  0  0  0  0  0  0  0  0  0  0
   11.4124    6.8390    0.1263 H   0  0  0  0  0  0  0  0  0  0  0  0
   10.4788    5.0310   -1.2954 H   0  0  0  0  0  0  0  0  0  0  0  0
    9.0544   -0.5399   -0.8533 H   0  0  0  0  0  0  0  0  0  0  0  0
    8.7355   -2.8337    0.0199 H   0  0  0  0  0  0  0  0  0  0  0  0
    6.4689   -3.7834    0.2894 H   0  0  0  0  0  0  0  0  0  0  0  0
    4.5069   -2.4921   -0.3845 H   0  0  0  0  0  0  0  0  0  0  0  0
  1  2  1  0  0  0  0
  1 27  1  0  0  0  0
  1 28  1  0  0  0  0
  1 29  1  0  0  0  0
  2  3  1  0  0  0  0
  2 30  1  0  0  0  0
  2 31  1  0  0  0  0
  3  4  1  0  0  0  0
  3 32  1  0  0  0  0
  3 33  1  0  0  0  0
  4 26  1  0  0  0  0
  4  5  1  0  0  0  0
  5  6  1  0  0  0  0
  5  7  2  0  0  0  0
  6 34  1  0  0  0  0
  6 35  1  0  0  0  0
  6 36  1  0  0  0  0
  7  8  1  0  0  0  0
  7 21  1  0  0  0  0
  8  9  2  0  0  0  0
  8 10  1  0  0  0  0
 10 20  2  0  0  0  0
 10 11  1  0  0  0  0
 11 12  2  0  0  0  0
 11 37  1  0  0  0  0
 12 13  1  0  0  0  0
 12 38  1  0  0  0  0
 13 14  1  0  0  0  0
 13 15  2  0  0  0  0
 14 39  1  0  0  0  0
 14 40  1  0  0  0  0
 14 41  1  0  0  0  0
 15 20  1  0  0  0  0
 15 16  1  0  0  0  0
 16 17  2  0  0  0  0
 16 42  1  0  0  0  0
 17 18  1  0  0  0  0
 17 43  1  0  0  0  0
 18 19  2  0  0  0  0
 18 44  1  0  0  0  0
 19 20  1  0  0  0  0
 19 45  1  0  0  0  0
 21 26  2  0  0  0  0
 21 22  1  0  0  0  0
 22 23  2  0  0  0  0
 22 46  1  0  0  0  0
 23 24  1  0  0  0  0
 23 47  1  0  0  0  0
 24 25  2  0  0  0  0
 24 48  1  0  0  0  0
 25 26  1  0  0  0  0
 25 49  1  0  0  0  0
M  END
$$$$
CHEMBL1269867
 OpenBabel12022418103D

 61 64  0  0  1  0  0  0  0  0999 V2000
    1.2037    4.0534    0.3372 C   0  0  0  0  0  0  0  0  0  0  0  0
    0.6321    3.0770   -0.6988 C   0  0  2  0  0  0  0  0  0  0  0  0
   -0.7125    2.4654   -0.2393 C   0  0  0  0  0  0  0  0  0  0  0  0
   -0.5694    1.2187    0.5512 N   0  0  0  0  0  0  0  0  0  0  0  0
    0.2423    0.2137   -0.1566 C   0  0  0  0  0  0  0  0  0  0  0  0
    1.6626    0.7509   -0.2724 C   0  0  0  0  0  0  0  0  0  0  0  0
    1.7051    2.0322   -1.1340 C   0  0  1  0  0  0  0  0  0  0  0  0
    1.5723    1.6011   -2.6051 C   0  0  0  0  0  0  0  0  0  0  0  0
    1.7666    2.7363   -3.5374 N   0  0  0  0  0  0  0  0  0  0  0  0
    1.5451    2.2451   -5.1812 S   0  0  0  0  0  0  0  0  0  0  0  0
    2.6157    1.2911   -5.4129 O   0  0  0  0  0  0  0  0  0  0  0  0
    0.1625    1.8077   -5.2682 O   0  0  0  0  0  0  0  0  0  0  0  0
    1.8221    3.8008   -6.1844 C   0  0  0  0  0  0  0  0  0  0  0  0
    2.0918    4.8698   -5.3800 F   0  0  0  0  0  0  0  0  0  0  0  0
    2.8847    3.6755   -7.0284 F   0  0  0  0  0  0  0  0  0  0  0  0
    0.7441    4.1327   -6.9451 F   0  0  0  0  0  0  0  0  0  0  0  0
   -0.3554    1.2668    2.2417 S   0  0  0  0  0  0  0  0  0  0  0  0
    0.0197   -0.0650    2.6719 O   0  0  0  0  0  0  0  0  0  0  0  0
    0.3496    2.4684    2.6029 O   0  0  0  0  0  0  0  0  0  0  0  0
   -1.9379    1.4839    2.9664 C   0  0  0  0  0  0  0  0  0  0  0  0
   -3.1887    1.3710    2.3818 C   0  0  0  0  0  0  0  0  0  0  0  0
   -4.1682    1.7233    3.3350 C   0  0  0  0  0  0  0  0  0  0  0  0
   -5.5692    1.8297    3.2665 C   0  0  0  0  0  0  0  0  0  0  0  0
   -6.2854    2.2211    4.3980 C   0  0  0  0  0  0  0  0  0  0  0  0
   -5.6219    2.5001    5.5865 C   0  0  0  0  0  0  0  0  0  0  0  0
   -4.2293    2.4023    5.6779 C   0  0  0  0  0  0  0  0  0  0  0  0
   -3.5061    2.0064    4.5350 C   0  0  0  0  0  0  0  0  0  0  0  0
   -2.1483    1.7907    4.2994 N   0  0  0  0  0  0  0  0  0  0  0  0
   -0.9672    1.9137    5.5291 S   0  0  0  0  0  0  0  0  0  0  0  0
   -1.6121    1.3872    6.7221 O   0  0  0  0  0  0  0  0  0  0  0  0
    0.2610    1.3172    5.0664 O   0  0  0  0  0  0  0  0  0  0  0  0
   -0.6375    3.6149    5.8602 C   0  0  0  0  0  0  0  0  0  0  0  0
   -0.0995    3.9506    7.1150 C   0  0  0  0  0  0  0  0  0  0  0  0
    0.1649    5.2860    7.4290 C   0  0  0  0  0  0  0  0  0  0  0  0
   -0.0938    6.2840    6.4910 C   0  0  0  0  0  0  0  0  0  0  0  0
   -0.6152    5.9439    5.2408 C   0  0  0  0  0  0  0  0  0  0  0  0
   -0.8908    4.6114    4.9331 C   0  0  0  0  0  0  0  0  0  0  0  0
   -1.4122    4.3385    3.7304 F   0  0  0  0  0  0  0  0  0  0  0  0
    0.4161    4.6899    0.7568 H   0  0  0  0  0  0  0  0  0  0  0  0
    1.9438    4.7143   -0.1259 H   0  0  0  0  0  0  0  0  0  0  0  0
    1.7231    3.5421    1.1479 H   0  0  0  0  0  0  0  0  0  0  0  0
    0.3967    3.7165   -1.5604 H   0  0  0  0  0  0  0  0  0  0  0  0
   -1.2784    2.1984   -1.1450 H   0  0  0  0  0  0  0  0  0  0  0  0
   -1.3424    3.1927    0.2833 H   0  0  0  0  0  0  0  0  0  0  0  0
   -0.2058    0.0232   -1.1389 H   0  0  0  0  0  0  0  0  0  0  0  0
    0.2118   -0.7541    0.3524 H   0  0  0  0  0  0  0  0  0  0  0  0
    2.3073   -0.0240   -0.7026 H   0  0  0  0  0  0  0  0  0  0  0  0
    2.0670    0.9686    0.7225 H   0  0  0  0  0  0  0  0  0  0  0  0
    2.7014    2.4812   -1.0175 H   0  0  0  0  0  0  0  0  0  0  0  0
    2.3520    0.8582   -2.8161 H   0  0  0  0  0  0  0  0  0  0  0  0
    0.5961    1.1464   -2.7886 H   0  0  0  0  0  0  0  0  0  0  0  0
    2.6856    3.1730   -3.4218 H   0  0  0  0  0  0  0  0  0  0  0  0
   -3.3619    1.0901    1.3505 H   0  0  0  0  0  0  0  0  0  0  0  0
   -6.0910    1.6132    2.3386 H   0  0  0  0  0  0  0  0  0  0  0  0
   -7.3680    2.3045    4.3457 H   0  0  0  0  0  0  0  0  0  0  0  0
   -6.1952    2.7928    6.4638 H   0  0  0  0  0  0  0  0  0  0  0  0
   -3.7447    2.6138    6.6271 H   0  0  0  0  0  0  0  0  0  0  0  0
    0.1157    3.1764    7.8490 H   0  0  0  0  0  0  0  0  0  0  0  0
    0.5754    5.5472    8.4024 H   0  0  0  0  0  0  0  0  0  0  0  0
    0.1134    7.3240    6.7320 H   0  0  0  0  0  0  0  0  0  0  0  0
   -0.8077    6.7162    4.5004 H   0  0  0  0  0  0  0  0  0  0  0  0
  1 39  1  0  0  0  0
  1 40  1  0  0  0  0
  1 41  1  0  0  0  0
  2  1  1  0  0  0  0
  2  3  1  0  0  0  0
  2  7  1  0  0  0  0
  2 42  1  6  0  0  0
  3  4  1  0  0  0  0
  3 43  1  0  0  0  0
  3 44  1  0  0  0  0
  4  5  1  0  0  0  0
  4 17  1  0  0  0  0
  5  6  1  0  0  0  0
  5 45  1  0  0  0  0
  5 46  1  0  0  0  0
  6  7  1  0  0  0  0
  6 47  1  0  0  0  0
  6 48  1  0  0  0  0
  7  8  1  0  0  0  0
  7 49  1  1  0  0  0
  8  9  1  0  0  0  0
  8 50  1  0  0  0  0
  8 51  1  0  0  0  0
  9 10  1  0  0  0  0
  9 52  1  0  0  0  0
 10 11  2  0  0  0  0
 10 12  2  0  0  0  0
 10 13  1  0  0  0  0
 13 14  1  0  0  0  0
 13 15  1  0  0  0  0
 13 16  1  0  0  0  0
 17 18  2  0  0  0  0
 17 19  2  0  0  0  0
 17 20  1  0  0  0  0
 20 28  1  0  0  0  0
 20 21  2  0  0  0  0
 21 22  1  0  0  0  0
 21 53  1  0  0  0  0
 22 27  2  0  0  0  0
 22 23  1  0  0  0  0
 23 24  2  0  0  0  0
 23 54  1  0  0  0  0
 24 25  1  0  0  0  0
 24 55  1  0  0  0  0
 25 26  2  0  0  0  0
 25 56  1  0  0  0  0
 26 27  1  0  0  0  0
 26 57  1  0  0  0  0
 27 28  1  0  0  0  0
 28 29  1  0  0  0  0
 29 30  2  0  0  0  0
 29 31  2  0  0  0  0
 29 32  1  0  0  0  0
 32 37  2  0  0  0  0
 32 33  1  0  0  0  0
 33 34  2  0  0  0  0
 33 58  1  0  0  0  0
 34 35  1  0  0  0  0
 34 59  1  0  0  0  0
 35 36  2  0  0  0  0
 35 60  1  0  0  0  0
 36 37  1  0  0  0  0
 36 61  1  0  0  0  0
 37 38  1  0  0  0  0
M  END
$$$$
CHEMBL3353833
 OpenBabel12022418103D

 47 51  0  0  0  0  0  0  0  0999 V2000
   -3.8510    3.2933    3.7437 C   0  0  0  0  0  0  0  0  0  0  0  0
   -4.1494    1.9355    3.8293 C   0  0  0  0  0  0  0  0  0  0  0  0
   -3.8859    1.0929    2.7454 C   0  0  0  0  0  0  0  0  0  0  0  0
   -3.3176    1.5967    1.5660 C   0  0  0  0  0  0  0  0  0  0  0  0
   -3.0528    2.9723    1.4823 C   0  0  0  0  0  0  0  0  0  0  0  0
   -3.3119    3.8141    2.5686 C   0  0  0  0  0  0  0  0  0  0  0  0
   -2.9388    0.6505    0.4527 C   0  0  0  0  0  0  0  0  0  0  0  0
   -3.9301    0.5571   -0.6080 N   0  0  0  0  0  0  0  0  0  0  0  0
   -5.0611   -0.2460   -0.6405 C   0  0  0  0  0  0  0  0  0  0  0  0
   -5.5927   -1.1579    0.2864 C   0  0  0  0  0  0  0  0  0  0  0  0
   -6.8624   -1.6909    0.0327 C   0  0  0  0  0  0  0  0  0  0  0  0
   -7.5713   -1.3516   -1.1158 C   0  0  0  0  0  0  0  0  0  0  0  0
   -6.9919   -0.5312   -2.0860 C   0  0  0  0  0  0  0  0  0  0  0  0
   -5.7142    0.0188   -1.8565 C   0  0  0  0  0  0  0  0  0  0  0  0
   -4.8618    0.8636   -2.6078 C   0  0  0  0  0  0  0  0  0  0  0  0
   -3.8270    1.2573   -1.7809 C   0  0  0  0  0  0  0  0  0  0  0  0
   -2.9070    2.1916   -2.0739 N   0  0  0  0  0  0  0  0  0  0  0  0
   -3.1148    2.7076   -3.2995 C   0  0  0  0  0  0  0  0  0  0  0  0
   -4.0479    2.2880   -4.1958 N   0  0  0  0  0  0  0  0  0  0  0  0
   -4.9445    1.3562   -3.8679 N   0  0  0  0  0  0  0  0  0  0  0  0
   -2.2094    4.2012   -3.6342 S   0  0  0  0  0  0  0  0  0  0  0  0
   -2.3397    4.2453   -5.4389 C   0  0  0  0  0  0  0  0  0  0  0  0
   -1.8086    5.5505   -5.9900 C   0  0  0  0  0  0  0  0  0  0  0  0
   -2.6970    6.6304   -6.1523 C   0  0  0  0  0  0  0  0  0  0  0  0
   -2.2569    7.8447   -6.6796 C   0  0  0  0  0  0  0  0  0  0  0  0
   -0.9239    8.0038   -7.0423 C   0  0  0  0  0  0  0  0  0  0  0  0
   -0.0202    6.9633   -6.8573 C   0  0  0  0  0  0  0  0  0  0  0  0
   -0.4506    5.7313   -6.3179 C   0  0  0  0  0  0  0  0  0  0  0  0
    0.5260    4.6954   -6.1140 C   0  0  0  0  0  0  0  0  0  0  0  0
    1.3091    3.8522   -5.9490 N   0  0  0  0  0  0  0  0  0  0  0  0
   -4.0366    3.9441    4.5952 H   0  0  0  0  0  0  0  0  0  0  0  0
   -4.5725    1.5271    4.7409 H   0  0  0  0  0  0  0  0  0  0  0  0
   -4.1072    0.0362    2.8432 H   0  0  0  0  0  0  0  0  0  0  0  0
   -2.6166    3.4016    0.5788 H   0  0  0  0  0  0  0  0  0  0  0  0
   -3.0805    4.8761    2.5047 H   0  0  0  0  0  0  0  0  0  0  0  0
   -2.7640   -0.3627    0.8367 H   0  0  0  0  0  0  0  0  0  0  0  0
   -1.9850    0.9669    0.0083 H   0  0  0  0  0  0  0  0  0  0  0  0
   -5.0635   -1.4280    1.1932 H   0  0  0  0  0  0  0  0  0  0  0  0
   -7.3140   -2.3665    0.7566 H   0  0  0  0  0  0  0  0  0  0  0  0
   -8.5806   -1.7288   -1.2638 H   0  0  0  0  0  0  0  0  0  0  0  0
   -7.5394   -0.2805   -2.9912 H   0  0  0  0  0  0  0  0  0  0  0  0
   -3.3828    4.1378   -5.7589 H   0  0  0  0  0  0  0  0  0  0  0  0
   -1.7968    3.3934   -5.8617 H   0  0  0  0  0  0  0  0  0  0  0  0
   -3.7424    6.5285   -5.8677 H   0  0  0  0  0  0  0  0  0  0  0  0
   -2.9581    8.6668   -6.8060 H   0  0  0  0  0  0  0  0  0  0  0  0
   -0.5830    8.9474   -7.4631 H   0  0  0  0  0  0  0  0  0  0  0  0
    1.0234    7.1019   -7.1264 H   0  0  0  0  0  0  0  0  0  0  0  0
  1  6  2  0  0  0  0
  1  2  1  0  0  0  0
  1 31  1  0  0  0  0
  2  3  2  0  0  0  0
  2 32  1  0  0  0  0
  3  4  1  0  0  0  0
  3 33  1  0  0  0  0
  4  5  2  0  0  0  0
  4  7  1  0  0  0  0
  5  6  1  0  0  0  0
  5 34  1  0  0  0  0
  6 35  1  0  0  0  0
  7  8  1  0  0  0  0
  7 36  1  0  0  0  0
  7 37  1  0  0  0  0
  8 16  1  0  0  0  0
  8  9  1  0  0  0  0
  9 14  2  0  0  0  0
  9 10  1  0  0  0  0
 10 11  2  0  0  0  0
 10 38  1  0  0  0  0
 11 12  1  0  0  0  0
 11 39  1  0  0  0  0
 12 13  2  0  0  0  0
 12 40  1  0  0  0  0
 13 14  1  0  0  0  0
 13 41  1  0  0  0  0
 14 15  1  0  0  0  0
 15 20  2  0  0  0  0
 15 16  1  0  0  0  0
 16 17  2  0  0  0  0
 17 18  1  0  0  0  0
 18 19  2  0  0  0  0
 18 21  1  0  0  0  0
 19 20  1  0  0  0  0
 21 22  1  0  0  0  0
 22 23  1  0  0  0  0
 22 42  1  0  0  0  0
 22 43  1  0  0  0  0
 23 28  2  0  0  0  0
 23 24  1  0  0  0  0
 24 25  2  0  0  0  0
 24 44  1  0  0  0  0
 25 26  1  0  0  0  0
 25 45  1  0  0  0  0
 26 27  2  0  0  0  0
 26 46  1  0  0  0  0
 27 28  1  0  0  0  0
 27 47  1  0  0  0  0
 28 29  1  0  0  0  0
 29 30  3  0  0  0  0
M  END
$$$$
CHEMBL539994
 OpenBabel12022418103D

 55 58  0  0  0  0  0  0  0  0999 V2000
    0.8850    0.3087   -1.1861 C   0  0  0  0  0  0  0  0  0  0  0  0
    2.3964    0.3133   -1.2534 C   0  0  0  0  0  0  0  0  0  0  0  0
    2.9472    1.5611   -0.5814 C   0  0  0  0  0  0  0  0  0  0  0  0
    4.4654    1.5665   -0.6501 C   0  0  0  0  0  0  0  0  0  0  0  0
    5.0440    2.8115    0.0035 C   0  0  0  0  0  0  0  0  0  0  0  0
    6.5192    2.8271   -0.0824 N   0  0  0  0  0  0  0  0  0  0  0  0
    7.2710    2.7783   -1.2896 C   0  0  0  0  0  0  0  0  0  0  0  0
    8.7433    2.7229   -1.2269 C   0  0  0  0  0  0  0  0  0  0  0  0
    9.7849    2.5593   -2.8108 C   0  0  0  0  0  0  0  0  0  0  0  0
    8.8676    2.6170   -3.6280 O   0  0  0  0  0  0  0  0  0  0  0  0
   11.7843    2.3099   -3.1524 C   0  0  0  0  0  0  0  0  0  0  0  0
   11.5409    2.5943   -1.9844 C   0  0  0  0  0  0  0  0  0  0  0  0
   12.3916    2.6852   -2.8020 C   0  0  0  0  0  0  0  0  0  0  0  0
   13.5993    2.4923   -2.0445 C   0  0  0  0  0  0  0  0  0  0  0  0
   14.5555    2.2611   -2.8325 C   0  0  0  0  0  0  0  0  0  0  0  0
   16.0451    2.2503   -2.2057 C   0  0  0  0  0  0  0  0  0  0  0  0
   17.2631    2.3242   -2.8375 C   0  0  0  0  0  0  0  0  0  0  0  0
   17.0420    2.1920   -4.1648 C   0  0  0  0  0  0  0  0  0  0  0  0
   18.5107    2.2664   -4.9197 C   0  0  0  0  0  0  0  0  0  0  0  0
   18.4524    2.1355   -6.4125 C   0  0  0  0  0  0  0  0  0  0  0  0
   15.3940    2.0314   -4.6547 C   0  0  0  0  0  0  0  0  0  0  0  0
   13.7383    2.2067   -3.9097 C   0  0  0  0  0  0  0  0  0  0  0  0
    8.7008    2.8181    0.4309 C   0  0  0  0  0  0  0  0  0  0  0  0
    9.6806    2.8573    1.4663 C   0  0  0  0  0  0  0  0  0  0  0  0
    9.3846    2.9060    2.8653 C   0  0  0  0  0  0  0  0  0  0  0  0
    8.0842    2.9171    3.3380 C   0  0  0  0  0  0  0  0  0  0  0  0
    7.0442    2.8944    2.4186 C   0  0  0  0  0  0  0  0  0  0  0  0
    7.3601    2.8528    1.0017 C   0  0  0  0  0  0  0  0  0  0  0  0
    0.4883   -0.5877   -1.6685 H   0  0  0  0  0  0  0  0  0  0  0  0
    0.4783    1.1886   -1.6939 H   0  0  0  0  0  0  0  0  0  0  0  0
    0.5500    0.3231   -0.1444 H   0  0  0  0  0  0  0  0  0  0  0  0
    2.7171    0.2831   -2.3008 H   0  0  0  0  0  0  0  0  0  0  0  0
    2.7887   -0.5804   -0.7554 H   0  0  0  0  0  0  0  0  0  0  0  0
    2.6218    1.5892    0.4651 H   0  0  0  0  0  0  0  0  0  0  0  0
    2.5481    2.4531   -1.0789 H   0  0  0  0  0  0  0  0  0  0  0  0
    4.7773    1.5323   -1.6995 H   0  0  0  0  0  0  0  0  0  0  0  0
    4.8587    0.6703   -0.1571 H   0  0  0  0  0  0  0  0  0  0  0  0
    4.6942    2.8686    1.0488 H   0  0  0  0  0  0  0  0  0  0  0  0
    4.6767    3.7106   -0.5022 H   0  0  0  0  0  0  0  0  0  0  0  0
    6.6737    2.7508   -2.1843 H   0  0  0  0  0  0  0  0  0  0  0  0
   11.1175    2.7386   -1.0696 H   0  0  0  0  0  0  0  0  0  0  0  0
   12.2801    2.5006   -4.4778 H   0  0  0  0  0  0  0  0  0  0  0  0
   13.7166    2.5675   -0.9962 H   0  0  0  0  0  0  0  0  0  0  0  0
   16.1166    2.1831   -1.1163 H   0  0  0  0  0  0  0  0  0  0  0  0
   18.2356    2.4671   -2.3466 H   0  0  0  0  0  0  0  0  0  0  0  0
   19.2673    1.5254   -4.5454 H   0  0  0  0  0  0  0  0  0  0  0  0
   19.0430    3.2273   -4.6916 H   0  0  0  0  0  0  0  0  0  0  0  0
   18.0552    1.1503   -6.6447 H   0  0  0  0  0  0  0  0  0  0  0  0
   19.4321    2.2385   -6.9071 H   0  0  0  0  0  0  0  0  0  0  0  0
   17.7960    2.9177   -6.7849 H   0  0  0  0  0  0  0  0  0  0  0  0
   15.6262    1.6766   -5.6920 H   0  0  0  0  0  0  0  0  0  0  0  0
   10.7212    2.8493    1.1934 H   0  0  0  0  0  0  0  0  0  0  0  0
   10.1932    2.9324    3.5968 H   0  0  0  0  0  0  0  0  0  0  0  0
    7.8846    2.9453    4.4111 H   0  0  0  0  0  0  0  0  0  0  0  0
    6.0195    2.9095    2.8184 H   0  0  0  0  0  0  0  0  0  0  0  0
  1  2  1  0  0  0  0
  1 29  1  0  0  0  0
  1 30  1  0  0  0  0
  1 31  1  0  0  0  0
  2  3  1  0  0  0  0
  2 32  1  0  0  0  0
  2 33  1  0  0  0  0
  3  4  1  0  0  0  0
  3 34  1  0  0  0  0
  3 35  1  0  0  0  0
  4  5  1  0  0  0  0
  4 36  1  0  0  0  0
  4 37  1  0  0  0  0
  5  6  1  0  0  0  0
  5 38  1  0  0  0  0
  5 39  1  0  0  0  0
  6 28  1  0  0  0  0
  6  7  1  0  0  0  0
  7  8  2  0  0  0  0
  7 40  1  0  0  0  0
  8  9  1  0  0  0  0
  8 23  1  0  0  0  0
  9 10  2  0  0  0  0
  9 11  1  0  0  0  0
 11 22  2  0  0  0  0
 11 12  1  0  0  0  0
 12 13  2  0  0  0  0
 12 41  1  0  0  0  0
 13 14  1  0  0  0  0
 13 42  1  0  0  0  0
 14 15  2  0  0  0  0
 14 43  1  0  0  0  0
 15 22  1  0  0  0  0
 15 16  1  0  0  0  0
 16 17  2  0  0  0  0
 16 44  1  0  0  0  0
 17 18  1  0  0  0  0
 17 45  1  0  0  0  0
 18 19  1  0  0  0  0
 18 21  2  0  0  0  0
 19 20  1  0  0  0  0
 19 46  1  0  0  0  0
 19 47  1  0  0  0  0
 20 48  1  0  0  0  0
 20 49  1  0  0  0  0
 20 50  1  0  0  0  0
 21 22  1  0  0  0  0
 21 51  1  0  0  0  0
 23 28  2  0  0  0  0
 23 24  1  0  0  0  0
 24 25  2  0  0  0  0
 24 52  1  0  0  0  0
 25 26  1  0  0  0  0
 25 53  1  0  0  0  0
 26 27  2  0  0  0  0
 26 54  1  0  0  0  0
 27 28  1  0  0  0  0
 27 55  1  0  0  0  0
M  END
$$$$
CHEMBL564622
 OpenBabel12022418103D

 58 61  0  0  0  0  0  0  0  0999 V2000
    4.3625   -3.1703   -1.8325 C   0  0  0  0  0  0  0  0  0  0  0  0
    3.9100   -1.8708   -2.4821 C   0  0  0  0  0  0  0  0  0  0  0  0
    4.8064   -0.6809   -2.1003 C   0  0  0  0  0  0  0  0  0  0  0  0
    4.3793    0.5825   -2.8558 C   0  0  0  0  0  0  0  0  0  0  0  0
    5.1766    1.8600   -2.5413 C   0  0  0  0  0  0  0  0  0  0  0  0
    6.6103    1.9139   -2.8543 N   0  0  0  0  0  0  0  0  0  0  0  0
    7.2099    2.1189   -4.0944 C   0  0  0  0  0  0  0  0  0  0  0  0
    6.4299    1.9879   -5.3604 C   0  0  0  0  0  0  0  0  0  0  0  0
    8.5808    2.4342   -3.9221 C   0  0  0  0  0  0  0  0  0  0  0  0
    9.5624    2.9651   -5.0429 C   0  0  0  0  0  0  0  0  0  0  0  0
    9.5993    2.4053   -6.1548 O   0  0  0  0  0  0  0  0  0  0  0  0
   10.3731    4.2905   -4.8407 C   0  0  0  0  0  0  0  0  0  0  0  0
   10.1415    4.8231   -3.5742 C   0  0  0  0  0  0  0  0  0  0  0  0
   10.4044    6.1458   -3.3676 C   0  0  0  0  0  0  0  0  0  0  0  0
    9.8744    6.8506   -4.4158 C   0  0  0  0  0  0  0  0  0  0  0  0
    8.5356    7.5218   -4.3576 C   0  0  0  0  0  0  0  0  0  0  0  0
    7.5273    6.7384   -3.5208 C   0  0  0  0  0  0  0  0  0  0  0  0
   10.5076    6.6158   -5.6082 C   0  0  0  0  0  0  0  0  0  0  0  0
   10.7746    7.7634   -6.3792 C   0  0  0  0  0  0  0  0  0  0  0  0
   11.7639    7.7359   -7.3346 C   0  0  0  0  0  0  0  0  0  0  0  0
   12.3947    6.5098   -7.5639 C   0  0  0  0  0  0  0  0  0  0  0  0
   11.9650    5.3105   -6.9056 C   0  0  0  0  0  0  0  0  0  0  0  0
   10.9541    5.2875   -5.8440 C   0  0  0  0  0  0  0  0  0  0  0  0
    8.8127    2.1535   -2.4842 C   0  0  0  0  0  0  0  0  0  0  0  0
    9.9517    2.1138   -1.6273 C   0  0  0  0  0  0  0  0  0  0  0  0
    9.8068    2.0056   -0.2259 C   0  0  0  0  0  0  0  0  0  0  0  0
    8.5501    1.9358    0.3604 C   0  0  0  0  0  0  0  0  0  0  0  0
    7.4200    1.9097   -0.4468 C   0  0  0  0  0  0  0  0  0  0  0  0
    7.5694    1.9802   -1.8541 C   0  0  0  0  0  0  0  0  0  0  0  0
    3.7094   -3.9956   -2.1386 H   0  0  0  0  0  0  0  0  0  0  0  0
    4.3277   -3.1007   -0.7411 H   0  0  0  0  0  0  0  0  0  0  0  0
    5.3842   -3.4232   -2.1321 H   0  0  0  0  0  0  0  0  0  0  0  0
    2.8727   -1.6693   -2.1863 H   0  0  0  0  0  0  0  0  0  0  0  0
    3.9109   -2.0038   -3.5705 H   0  0  0  0  0  0  0  0  0  0  0  0
    5.8491   -0.9176   -2.3358 H   0  0  0  0  0  0  0  0  0  0  0  0
    4.7409   -0.5147   -1.0180 H   0  0  0  0  0  0  0  0  0  0  0  0
    3.3282    0.7827   -2.5967 H   0  0  0  0  0  0  0  0  0  0  0  0
    4.3946    0.3849   -3.9309 H   0  0  0  0  0  0  0  0  0  0  0  0
    5.0311    2.0862   -1.4781 H   0  0  0  0  0  0  0  0  0  0  0  0
    4.7193    2.7110   -3.0607 H   0  0  0  0  0  0  0  0  0  0  0  0
    5.3536    2.0353   -5.1978 H   0  0  0  0  0  0  0  0  0  0  0  0
    6.6511    1.0321   -5.8404 H   0  0  0  0  0  0  0  0  0  0  0  0
    6.6639    2.8056   -6.0555 H   0  0  0  0  0  0  0  0  0  0  0  0
    9.4477    4.3913   -2.8774 H   0  0  0  0  0  0  0  0  0  0  0  0
   11.5074    6.2878   -3.2903 H   0  0  0  0  0  0  0  0  0  0  0  0
    8.1216    7.6128   -5.3709 H   0  0  0  0  0  0  0  0  0  0  0  0
    8.6765    8.5256   -3.9578 H   0  0  0  0  0  0  0  0  0  0  0  0
    7.3176    5.7605   -3.9745 H   0  0  0  0  0  0  0  0  0  0  0  0
    6.5868    7.2891   -3.4532 H   0  0  0  0  0  0  0  0  0  0  0  0
    7.8908    6.5657   -2.5049 H   0  0  0  0  0  0  0  0  0  0  0  0
   10.3189    8.7201   -6.1251 H   0  0  0  0  0  0  0  0  0  0  0  0
   12.0749    8.6614   -7.8089 H   0  0  0  0  0  0  0  0  0  0  0  0
   13.2657    6.5346   -8.2250 H   0  0  0  0  0  0  0  0  0  0  0  0
   12.5532    4.4207   -7.1276 H   0  0  0  0  0  0  0  0  0  0  0  0
   10.9514    2.2135   -2.0378 H   0  0  0  0  0  0  0  0  0  0  0  0
   10.6814    2.0003    0.4158 H   0  0  0  0  0  0  0  0  0  0  0  0
    8.4423    1.8854    1.4418 H   0  0  0  0  0  0  0  0  0  0  0  0
    6.4430    1.8385    0.0298 H   0  0  0  0  0  0  0  0  0  0  0  0
  1  2  1  0  0  0  0
  1 30  1  0  0  0  0
  1 31  1  0  0  0  0
  1 32  1  0  0  0  0
  2  3  1  0  0  0  0
  2 33  1  0  0  0  0
  2 34  1  0  0  0  0
  3  4  1  0  0  0  0
  3 35  1  0  0  0  0
  3 36  1  0  0  0  0
  4  5  1  0  0  0  0
  4 37  1  0  0  0  0
  4 38  1  0  0  0  0
  5  6  1  0  0  0  0
  5 39  1  0  0  0  0
  5 40  1  0  0  0  0
  6 29  1  0  0  0  0
  6  7  1  0  0  0  0
  7  8  1  0  0  0  0
  7  9  2  0  0  0  0
  8 41  1  0  0  0  0
  8 42  1  0  0  0  0
  8 43  1  0  0  0  0
  9 10  1  0  0  0  0
  9 24  1  0  0  0  0
 10 11  2  0  0  0  0
 10 12  1  0  0  0  0
 12 23  2  0  0  0  0
 12 13  1  0  0  0  0
 13 14  2  0  0  0  0
 13 44  1  0  0  0  0
 14 15  1  0  0  0  0
 14 45  1  0  0  0  0
 15 16  1  0  0  0  0
 15 18  2  0  0  0  0
 16 17  1  0  0  0  0
 16 46  1  0  0  0  0
 16 47  1  0  0  0  0
 17 48  1  0  0  0  0
 17 49  1  0  0  0  0
 17 50  1  0  0  0  0
 18 23  1  0  0  0  0
 18 19  1  0  0  0  0
 19 20  2  0  0  0  0
 19 51  1  0  0  0  0
 20 21  1  0  0  0  0
 20 52  1  0  0  0  0
 21 22  2  0  0  0  0
 21 53  1  0  0  0  0
 22 23  1  0  0  0  0
 22 54  1  0  0  0  0
 24 29  2  0  0  0  0
 24 25  1  0  0  0  0
 25 26  2  0  0  0  0
 25 55  1  0  0  0  0
 26 27  1  0  0  0  0
 26 56  1  0  0  0  0
 27 28  2  0  0  0  0
 27 57  1  0  0  0  0
 28 29  1  0  0  0  0
 28 58  1  0  0  0  0
M  END
$$$$
CHEMBL3590630
 OpenBabel12022418103D

 49 50  0  0  0  0  0  0  0  0999 V2000
    2.2669    1.4152    3.0690 C   0  0  0  0  0  0  0  0  0  0  0  0
    3.5576    0.7023    2.6991 C   0  0  0  0  0  0  0  0  0  0  0  0
    3.3498   -0.2782    1.5401 C   0  0  0  0  0  0  0  0  0  0  0  0
    4.6374   -1.0038    1.1471 C   0  0  0  0  0  0  0  0  0  0  0  0
    5.1221   -1.8032    2.2498 N   0  0  0  0  0  0  0  0  0  0  0  0
    6.4367   -2.0701    2.5458 C   0  0  0  0  0  0  0  0  0  0  0  0
    6.9260   -2.7261    3.6104 C   0  0  0  0  0  0  0  0  0  0  0  0
    6.0530   -3.2128    4.6740 C   0  0  0  0  0  0  0  0  0  0  0  0
    4.9594   -3.7255    4.4633 O   0  0  0  0  0  0  0  0  0  0  0  0
    6.5706   -2.9698    6.0344 C   0  0  0  0  0  0  0  0  0  0  0  0
    5.6894   -3.2954    7.0804 C   0  0  0  0  0  0  0  0  0  0  0  0
    6.0278   -3.0019    8.3846 C   0  0  0  0  0  0  0  0  0  0  0  0
    7.2515   -2.3990    8.6414 C   0  0  0  0  0  0  0  0  0  0  0  0
    8.1765   -2.0799    7.6079 C   0  0  0  0  0  0  0  0  0  0  0  0
    9.4719   -1.5038    8.1159 C   0  0  0  0  0  0  0  0  0  0  0  0
    7.8363   -2.3568    6.2515 C   0  0  0  0  0  0  0  0  0  0  0  0
    8.6912   -2.1028    5.0922 N   0  0  0  0  0  0  0  0  0  0  0  0
    9.9469   -1.3583    5.1898 C   0  0  0  0  0  0  0  0  0  0  0  0
   10.4109   -0.6103    3.9229 C   0  0  0  0  0  0  0  0  0  0  0  0
   11.6478    0.2456    4.1912 C   0  0  0  0  0  0  0  0  0  0  0  0
   12.0812    0.9645    2.9233 C   0  0  0  0  0  0  0  0  0  0  0  0
    8.3706   -2.6489    3.8420 C   0  0  0  0  0  0  0  0  0  0  0  0
    9.1594   -2.9230    2.9495 O   0  0  0  0  0  0  0  0  0  0  0  0
    2.4420    2.1048    3.9005 H   0  0  0  0  0  0  0  0  0  0  0  0
    1.4995    0.6987    3.3791 H   0  0  0  0  0  0  0  0  0  0  0  0
    1.8789    1.9922    2.2235 H   0  0  0  0  0  0  0  0  0  0  0  0
    3.9267    0.1720    3.5844 H   0  0  0  0  0  0  0  0  0  0  0  0
    4.3166    1.4448    2.4269 H   0  0  0  0  0  0  0  0  0  0  0  0
    2.9758    0.2684    0.6657 H   0  0  0  0  0  0  0  0  0  0  0  0
    2.5816   -1.0120    1.8133 H   0  0  0  0  0  0  0  0  0  0  0  0
    5.3913   -0.2691    0.8384 H   0  0  0  0  0  0  0  0  0  0  0  0
    4.4458   -1.6603    0.2920 H   0  0  0  0  0  0  0  0  0  0  0  0
    4.4331   -2.3186    2.8054 H   0  0  0  0  0  0  0  0  0  0  0  0
    7.1279   -1.6072    1.8406 H   0  0  0  0  0  0  0  0  0  0  0  0
    4.7257   -3.7571    6.8706 H   0  0  0  0  0  0  0  0  0  0  0  0
    5.3463   -3.2360    9.1976 H   0  0  0  0  0  0  0  0  0  0  0  0
    7.4964   -2.1806    9.6793 H   0  0  0  0  0  0  0  0  0  0  0  0
    9.4909   -1.4510    9.2114 H   0  0  0  0  0  0  0  0  0  0  0  0
    9.6077   -0.4696    7.7942 H   0  0  0  0  0  0  0  0  0  0  0  0
   10.3175   -2.1343    7.8269 H   0  0  0  0  0  0  0  0  0  0  0  0
   10.7297   -2.0279    5.5533 H   0  0  0  0  0  0  0  0  0  0  0  0
    9.7765   -0.5462    5.8928 H   0  0  0  0  0  0  0  0  0  0  0  0
    9.5936    0.0231    3.5553 H   0  0  0  0  0  0  0  0  0  0  0  0
   10.6704   -1.3059    3.1221 H   0  0  0  0  0  0  0  0  0  0  0  0
   12.4668   -0.3922    4.5433 H   0  0  0  0  0  0  0  0  0  0  0  0
   11.4412    0.9801    4.9771 H   0  0  0  0  0  0  0  0  0  0  0  0
   12.3029    0.2506    2.1241 H   0  0  0  0  0  0  0  0  0  0  0  0
   12.9837    1.5573    3.1092 H   0  0  0  0  0  0  0  0  0  0  0  0
   11.2957    1.6398    2.5698 H   0  0  0  0  0  0  0  0  0  0  0  0
  1  2  1  0  0  0  0
  1 24  1  0  0  0  0
  1 25  1  0  0  0  0
  1 26  1  0  0  0  0
  2  3  1  0  0  0  0
  2 27  1  0  0  0  0
  2 28  1  0  0  0  0
  3  4  1  0  0  0  0
  3 29  1  0  0  0  0
  3 30  1  0  0  0  0
  4  5  1  0  0  0  0
  4 31  1  0  0  0  0
  4 32  1  0  0  0  0
  5  6  1  0  0  0  0
  5 33  1  0  0  0  0
  6  7  2  0  0  0  0
  6 34  1  0  0  0  0
  7 22  1  0  0  0  0
  7  8  1  0  0  0  0
  8  9  2  0  0  0  0
  8 10  1  0  0  0  0
 10 16  2  0  0  0  0
 10 11  1  0  0  0  0
 11 12  2  0  0  0  0
 11 35  1  0  0  0  0
 12 13  1  0  0  0  0
 12 36  1  0  0  0  0
 13 14  2  0  0  0  0
 13 37  1  0  0  0  0
 14 15  1  0  0  0  0
 14 16  1  0  0  0  0
 15 38  1  0  0  0  0
 15 39  1  0  0  0  0
 15 40  1  0  0  0  0
 16 17  1  0  0  0  0
 17 18  1  0  0  0  0
 17 22  1  0  0  0  0
 18 19  1  0  0  0  0
 18 41  1  0  0  0  0
 18 42  1  0  0  0  0
 19 20  1  0  0  0  0
 19 43  1  0  0  0  0
 19 44  1  0  0  0  0
 20 21  1  0  0  0  0
 20 45  1  0  0  0  0
 20 46  1  0  0  0  0
 21 47  1  0  0  0  0
 21 48  1  0  0  0  0
 21 49  1  0  0  0  0
 22 23  2  0  0  0  0
M  END
$$$$
CHEMBL256752
 OpenBabel12022418103D

 60 63  0  0  1  0  0  0  0  0999 V2000
   -2.1446    2.1083    2.1522 C   0  0  0  0  0  0  0  0  0  0  0  0
   -1.3922    0.8165    1.7615 C   0  0  0  0  0  0  0  0  0  0  0  0
   -2.4528   -0.1802    1.2590 C   0  0  0  0  0  0  0  0  0  0  0  0
   -0.5771    0.2991    2.9967 C   0  0  1  0  0  0  0  0  0  0  0  0
   -0.1437   -1.1628    2.8161 C   0  0  0  0  0  0  0  0  0  0  0  0
    0.8389   -1.0755    1.6436 C   0  0  0  0  0  0  0  0  0  0  0  0
    0.9982    0.4506    1.4170 C   0  0  2  0  0  0  0  0  0  0  0  0
    2.3240    0.7747    0.7509 C   0  0  0  0  0  0  0  0  0  0  0  0
    0.7840    0.9980    2.8343 C   0  0  0  0  0  0  0  0  0  0  0  0
   -0.2644    0.9987    0.6800 C   0  0  2  0  0  0  0  0  0  0  0  0
   -0.0601    2.3835    0.2849 N   0  0  0  0  0  0  0  0  0  0  0  0
   -0.7165    2.9831   -0.7686 C   0  0  0  0  0  0  0  0  0  0  0  0
   -1.4501    2.3890   -1.5456 O   0  0  0  0  0  0  0  0  0  0  0  0
   -0.4838    4.4474   -0.9212 C   0  0  0  0  0  0  0  0  0  0  0  0
   -0.6878    5.0524   -2.1621 C   0  0  0  0  0  0  0  0  0  0  0  0
   -0.5020    6.4325   -2.3090 C   0  0  0  0  0  0  0  0  0  0  0  0
   -0.1143    7.2321   -1.2204 C   0  0  0  0  0  0  0  0  0  0  0  0
    0.0851    6.6276    0.0199 C   0  0  0  0  0  0  0  0  0  0  0  0
   -0.1054    5.2412    0.1630 C   0  0  0  0  0  0  0  0  0  0  0  0
    0.6106    7.4465    1.5017 S   0  0  0  0  0  0  0  0  0  0  0  0
    1.8634    6.8344    1.8815 O   0  0  0  0  0  0  0  0  0  0  0  0
    0.4781    8.8832    1.3917 O   0  0  0  0  0  0  0  0  0  0  0  0
   -0.5924    6.9358    2.6652 N   0  0  0  0  0  0  0  0  0  0  0  0
   -0.1238    7.2545    4.0521 C   0  0  0  0  0  0  0  0  0  0  0  0
   -1.1791    6.9910    5.1173 C   0  0  0  0  0  0  0  0  0  0  0  0
   -2.5037    7.6517    4.7800 C   0  0  0  0  0  0  0  0  0  0  0  0
   -2.9793    7.1675    3.4224 C   0  0  0  0  0  0  0  0  0  0  0  0
   -1.9567    7.4519    2.3320 C   0  0  0  0  0  0  0  0  0  0  0  0
    0.0923    9.0769   -1.5958 Br  0  0  0  0  0  0  0  0  0  0  0  0
   -2.7076    2.5129    1.3063 H   0  0  0  0  0  0  0  0  0  0  0  0
   -1.4742    2.8894    2.5193 H   0  0  0  0  0  0  0  0  0  0  0  0
   -2.8676    1.9024    2.9527 H   0  0  0  0  0  0  0  0  0  0  0  0
   -3.0505    0.2615    0.4528 H   0  0  0  0  0  0  0  0  0  0  0  0
   -3.1349   -0.4710    2.0653 H   0  0  0  0  0  0  0  0  0  0  0  0
   -2.0079   -1.0913    0.8474 H   0  0  0  0  0  0  0  0  0  0  0  0
   -1.0629    0.4790    3.9600 H   0  0  0  0  0  0  0  0  0  0  0  0
   -0.9636   -1.8600    2.6360 H   0  0  0  0  0  0  0  0  0  0  0  0
    0.3815   -1.5118    3.7134 H   0  0  0  0  0  0  0  0  0  0  0  0
    0.4603   -1.5831    0.7523 H   0  0  0  0  0  0  0  0  0  0  0  0
    1.7883   -1.5473    1.9228 H   0  0  0  0  0  0  0  0  0  0  0  0
    3.1645    0.3889    1.3380 H   0  0  0  0  0  0  0  0  0  0  0  0
    2.4850    1.8497    0.6295 H   0  0  0  0  0  0  0  0  0  0  0  0
    2.3718    0.3142   -0.2423 H   0  0  0  0  0  0  0  0  0  0  0  0
    1.5371    0.6475    3.5491 H   0  0  0  0  0  0  0  0  0  0  0  0
    0.7253    2.0892    2.8952 H   0  0  0  0  0  0  0  0  0  0  0  0
   -0.4697    0.4152   -0.2248 H   0  0  0  0  0  0  0  0  0  0  0  0
    0.5917    2.9207    0.8338 H   0  0  0  0  0  0  0  0  0  0  0  0
   -0.9895    4.4537   -3.0207 H   0  0  0  0  0  0  0  0  0  0  0  0
   -0.6636    6.8767   -3.2909 H   0  0  0  0  0  0  0  0  0  0  0  0
    0.0254    4.8060    1.1516 H   0  0  0  0  0  0  0  0  0  0  0  0
    0.2062    8.2971    4.1097 H   0  0  0  0  0  0  0  0  0  0  0  0
    0.7358    6.6106    4.2759 H   0  0  0  0  0  0  0  0  0  0  0  0
   -0.8183    7.3654    6.0830 H   0  0  0  0  0  0  0  0  0  0  0  0
   -1.3304    5.9110    5.2330 H   0  0  0  0  0  0  0  0  0  0  0  0
   -2.3929    8.7431    4.7760 H   0  0  0  0  0  0  0  0  0  0  0  0
   -3.2482    7.4049    5.5448 H   0  0  0  0  0  0  0  0  0  0  0  0
   -3.9243    7.6607    3.1669 H   0  0  0  0  0  0  0  0  0  0  0  0
   -3.1847    6.0905    3.4696 H   0  0  0  0  0  0  0  0  0  0  0  0
   -2.3023    6.9473    1.4234 H   0  0  0  0  0  0  0  0  0  0  0  0
   -1.9242    8.5278    2.1329 H   0  0  0  0  0  0  0  0  0  0  0  0
  1  2  1  0  0  0  0
  1 30  1  0  0  0  0
  1 31  1  0  0  0  0
  1 32  1  0  0  0  0
  2 10  1  0  0  0  0
  2  3  1  0  0  0  0
  2  4  1  0  0  0  0
  3 33  1  0  0  0  0
  3 34  1  0  0  0  0
  3 35  1  0  0  0  0
  4  5  1  0  0  0  0
  4  9  1  0  0  0  0
  4 36  1  1  0  0  0
  5  6  1  0  0  0  0
  5 37  1  0  0  0  0
  5 38  1  0  0  0  0
  6  7  1  0  0  0  0
  6 39  1  0  0  0  0
  6 40  1  0  0  0  0
  7  8  1  6  0  0  0
  7  9  1  0  0  0  0
  7 10  1  0  0  0  0
  8 41  1  0  0  0  0
  8 42  1  0  0  0  0
  8 43  1  0  0  0  0
  9 44  1  0  0  0  0
  9 45  1  0  0  0  0
 10 11  1  0  0  0  0
 10 46  1  6  0  0  0
 11 12  1  0  0  0  0
 11 47  1  0  0  0  0
 12 13  2  0  0  0  0
 12 14  1  0  0  0  0
 14 19  2  0  0  0  0
 14 15  1  0  0  0  0
 15 16  2  0  0  0  0
 15 48  1  0  0  0  0
 16 17  1  0  0  0  0
 16 49  1  0  0  0  0
 17 18  2  0  0  0  0
 17 29  1  0  0  0  0
 18 19  1  0  0  0  0
 18 20  1  0  0  0  0
 19 50  1  0  0  0  0
 20 21  2  0  0  0  0
 20 22  2  0  0  0  0
 20 23  1  0  0  0  0
 23 28  1  0  0  0  0
 23 24  1  0  0  0  0
 24 25  1  0  0  0  0
 24 51  1  0  0  0  0
 24 52  1  0  0  0  0
 25 26  1  0  0  0  0
 25 53  1  0  0  0  0
 25 54  1  0  0  0  0
 26 27  1  0  0  0  0
 26 55  1  0  0  0  0
 26 56  1  0  0  0  0
 27 28  1  0  0  0  0
 27 57  1  0  0  0  0
 27 58  1  0  0  0  0
 28 59  1  0  0  0  0
 28 60  1  0  0  0  0
M  END
$$$$
CHEMBL591572
 OpenBabel12022418103D

 56 57  0  0  1  0  0  0  0  0999 V2000
    2.9247    3.7041    2.5508 C   0  0  0  0  0  0  0  0  0  0  0  0
    2.5885    2.2448    2.2561 C   0  0  0  0  0  0  0  0  0  0  0  0
    3.0599    1.2075    3.3044 C   0  0  0  0  0  0  0  0  0  0  0  0
    2.3998    1.4942    4.6743 C   0  0  0  0  0  0  0  0  0  0  0  0
    2.6512   -0.2073    2.8454 C   0  0  0  0  0  0  0  0  0  0  0  0
    4.5940    1.3177    3.4751 C   0  0  0  0  0  0  0  0  0  0  0  0
    5.0361    1.6016    4.5853 O   0  0  0  0  0  0  0  0  0  0  0  0
    5.3713    1.1696    2.3357 N   0  0  0  0  0  0  0  0  0  0  0  0
    6.7967    1.2610    2.3386 C   0  0  0  0  0  0  0  0  0  0  0  0
    7.5334    1.4542    1.1820 C   0  0  0  0  0  0  0  0  0  0  0  0
    8.9469    1.4994    1.2317 C   0  0  0  0  0  0  0  0  0  0  0  0
    9.6775    1.9316   -0.0114 C   0  0  0  0  0  0  0  0  0  0  0  0
    9.6408    1.1730    2.4244 C   0  0  0  0  0  0  0  0  0  0  0  0
   11.1419    1.1569    2.4903 C   0  0  0  0  0  0  0  0  0  0  0  0
    8.8835    0.9009    3.5728 C   0  0  0  0  0  0  0  0  0  0  0  0
    7.5006    1.1275    3.5344 C   0  0  0  0  0  0  0  0  0  0  0  0
    9.6192    0.2907    5.1047 S   0  0  0  0  0  0  0  0  0  0  0  0
   11.0287   -0.0024    4.8265 O   0  0  0  0  0  0  0  0  0  0  0  0
    9.2779    1.2042    6.1393 O   0  0  0  0  0  0  0  0  0  0  0  0
    8.9442   -1.2274    5.5035 N   0  0  0  0  0  0  0  0  0  0  0  0
    9.1528   -2.3951    4.6275 C   0  0  0  0  0  0  0  0  0  0  0  0
    7.8157   -2.5578    3.9336 C   0  0  0  0  0  0  0  0  0  0  0  0
    6.8025   -2.2020    5.0213 C   0  0  0  0  0  0  0  0  0  0  0  0
    7.5342   -1.2634    5.9951 C   0  0  1  0  0  0  0  0  0  0  0  0
    7.4453   -1.7853    7.4423 C   0  0  0  0  0  0  0  0  0  0  0  0
    8.1925   -0.9581    8.3307 O   0  0  0  0  0  0  0  0  0  0  0  0
    2.5586    4.3359    1.7341 H   0  0  0  0  0  0  0  0  0  0  0  0
    4.0044    3.8681    2.6280 H   0  0  0  0  0  0  0  0  0  0  0  0
    2.4501    4.0591    3.4705 H   0  0  0  0  0  0  0  0  0  0  0  0
    3.0236    1.9950    1.2837 H   0  0  0  0  0  0  0  0  0  0  0  0
    1.5007    2.1692    2.1287 H   0  0  0  0  0  0  0  0  0  0  0  0
    1.3053    1.4614    4.6189 H   0  0  0  0  0  0  0  0  0  0  0  0
    2.6872    2.4858    5.0414 H   0  0  0  0  0  0  0  0  0  0  0  0
    2.7093    0.7702    5.4409 H   0  0  0  0  0  0  0  0  0  0  0  0
    1.5589   -0.2965    2.7433 H   0  0  0  0  0  0  0  0  0  0  0  0
    2.9673   -0.9889    3.5493 H   0  0  0  0  0  0  0  0  0  0  0  0
    3.0895   -0.4481    1.8723 H   0  0  0  0  0  0  0  0  0  0  0  0
    4.9037    1.1960    1.4354 H   0  0  0  0  0  0  0  0  0  0  0  0
    7.0353    1.6429    0.2331 H   0  0  0  0  0  0  0  0  0  0  0  0
    8.9764    2.1846   -0.8113 H   0  0  0  0  0  0  0  0  0  0  0  0
   10.3310    1.1338   -0.3743 H   0  0  0  0  0  0  0  0  0  0  0  0
   10.2601    2.8346    0.2001 H   0  0  0  0  0  0  0  0  0  0  0  0
   11.6176    1.5001    1.5701 H   0  0  0  0  0  0  0  0  0  0  0  0
   11.5170    0.1411    2.6597 H   0  0  0  0  0  0  0  0  0  0  0  0
   11.4941    1.8260    3.2839 H   0  0  0  0  0  0  0  0  0  0  0  0
    6.9650    1.1717    4.4551 H   0  0  0  0  0  0  0  0  0  0  0  0
    9.3563   -3.2693    5.2589 H   0  0  0  0  0  0  0  0  0  0  0  0
    9.9873   -2.2864    3.9324 H   0  0  0  0  0  0  0  0  0  0  0  0
    7.6581   -3.5658    3.5360 H   0  0  0  0  0  0  0  0  0  0  0  0
    7.7631   -1.8736    3.0810 H   0  0  0  0  0  0  0  0  0  0  0  0
    6.4638   -3.1152    5.5211 H   0  0  0  0  0  0  0  0  0  0  0  0
    5.9102   -1.7229    4.6104 H   0  0  0  0  0  0  0  0  0  0  0  0
    7.1055   -0.2586    5.9999 H   0  0  0  0  0  0  0  0  0  0  0  0
    7.8166   -2.8117    7.5414 H   0  0  0  0  0  0  0  0  0  0  0  0
    6.4042   -1.7780    7.7829 H   0  0  0  0  0  0  0  0  0  0  0  0
    9.1292   -1.0846    8.1062 H   0  0  0  0  0  0  0  0  0  0  0  0
  1  2  1  0  0  0  0
  1 27  1  0  0  0  0
  1 28  1  0  0  0  0
  1 29  1  0  0  0  0
  2  3  1  0  0  0  0
  2 30  1  0  0  0  0
  2 31  1  0  0  0  0
  3  4  1  0  0  0  0
  3  5  1  0  0  0  0
  3  6  1  0  0  0  0
  4 32  1  0  0  0  0
  4 33  1  0  0  0  0
  4 34  1  0  0  0  0
  5 35  1  0  0  0  0
  5 36  1  0  0  0  0
  5 37  1  0  0  0  0
  6  7  2  0  0  0  0
  6  8  1  0  0  0  0
  8  9  1  0  0  0  0
  8 38  1  0  0  0  0
  9 16  2  0  0  0  0
  9 10  1  0  0  0  0
 10 11  2  0  0  0  0
 10 39  1  0  0  0  0
 11 12  1  0  0  0  0
 11 13  1  0  0  0  0
 12 40  1  0  0  0  0
 12 41  1  0  0  0  0
 12 42  1  0  0  0  0
 13 14  1  0  0  0  0
 13 15  2  0  0  0  0
 14 43  1  0  0  0  0
 14 44  1  0  0  0  0
 14 45  1  0  0  0  0
 15 16  1  0  0  0  0
 15 17  1  0  0  0  0
 16 46  1  0  0  0  0
 17 18  2  0  0  0  0
 17 19  2  0  0  0  0
 17 20  1  0  0  0  0
 20 24  1  0  0  0  0
 20 21  1  0  0  0  0
 21 22  1  0  0  0  0
 21 47  1  0  0  0  0
 21 48  1  0  0  0  0
 22 23  1  0  0  0  0
 22 49  1  0  0  0  0
 22 50  1  0  0  0  0
 23 24  1  0  0  0  0
 23 51  1  0  0  0  0
 23 52  1  0  0  0  0
 24 25  1  0  0  0  0
 24 53  1  6  0  0  0
 25 26  1  0  0  0  0
 25 54  1  0  0  0  0
 25 55  1  0  0  0  0
 26 56  1  0  0  0  0
M  END
$$$$
CHEMBL72374
 OpenBabel12022418103D

 53 56  0  0  0  0  0  0  0  0999 V2000
    1.1669    0.2855   -0.2292 C   0  0  0  0  0  0  0  0  0  0  0  0
    2.5095   -0.0780    0.0659 O   0  0  0  0  0  0  0  0  0  0  0  0
    3.0895   -0.9788   -0.7853 C   0  0  0  0  0  0  0  0  0  0  0  0
    2.7355   -1.1777   -2.1116 C   0  0  0  0  0  0  0  0  0  0  0  0
    3.4216   -2.1047   -2.9095 C   0  0  0  0  0  0  0  0  0  0  0  0
    4.4495   -2.8871   -2.3405 C   0  0  0  0  0  0  0  0  0  0  0  0
    4.8298   -2.6793   -1.0111 C   0  0  0  0  0  0  0  0  0  0  0  0
    4.1511   -1.7063   -0.2419 C   0  0  0  0  0  0  0  0  0  0  0  0
    5.8721   -3.5967   -0.7094 C   0  0  0  0  0  0  0  0  0  0  0  0
    6.4475   -3.8417    0.6521 C   0  0  0  0  0  0  0  0  0  0  0  0
    7.6276   -2.9700    1.0606 C   0  0  0  0  0  0  0  0  0  0  0  0
    8.3021   -2.3273    0.2568 O   0  0  0  0  0  0  0  0  0  0  0  0
    7.8884   -2.9434    2.4342 N   0  0  0  0  0  0  0  0  0  0  0  0
    7.4810   -4.0062    3.3624 C   0  0  0  0  0  0  0  0  0  0  0  0
    7.2404   -3.4478    4.7637 C   0  0  0  0  0  0  0  0  0  0  0  0
    8.4011   -2.7523    5.2371 O   0  0  0  0  0  0  0  0  0  0  0  0
    8.7169   -1.6483    4.3708 C   0  0  0  0  0  0  0  0  0  0  0  0
    8.9888   -2.1130    2.9354 C   0  0  0  0  0  0  0  0  0  0  0  0
    6.1707   -4.2861   -1.8727 C   0  0  0  0  0  0  0  0  0  0  0  0
    7.1972   -5.3529   -2.0851 C   0  0  0  0  0  0  0  0  0  0  0  0
    5.2432   -3.9235   -2.8607 N   0  0  0  0  0  0  0  0  0  0  0  0
    5.0914   -4.5733   -4.1229 C   0  0  0  0  0  0  0  0  0  0  0  0
    6.0335   -5.2410   -4.5446 O   0  0  0  0  0  0  0  0  0  0  0  0
    3.8310   -4.6250   -4.9036 C   0  0  0  0  0  0  0  0  0  0  0  0
    2.6479   -4.9086   -4.1965 C   0  0  0  0  0  0  0  0  0  0  0  0
    1.4247   -4.9577   -4.8567 C   0  0  0  0  0  0  0  0  0  0  0  0
    1.3821   -4.7841   -6.2367 C   0  0  0  0  0  0  0  0  0  0  0  0
    2.5615   -4.5667   -6.9600 C   0  0  0  0  0  0  0  0  0  0  0  0
    3.7997   -4.4810   -6.3012 C   0  0  0  0  0  0  0  0  0  0  0  0
    5.2402   -4.1564   -7.2118 Cl  0  0  0  0  0  0  0  0  0  0  0  0
    2.4027   -4.4062   -8.6768 Cl  0  0  0  0  0  0  0  0  0  0  0  0
    0.8176    0.9532    0.5656 H   0  0  0  0  0  0  0  0  0  0  0  0
    0.5187   -0.5973   -0.2335 H   0  0  0  0  0  0  0  0  0  0  0  0
    1.0890    0.8357   -1.1715 H   0  0  0  0  0  0  0  0  0  0  0  0
    1.9395   -0.6038   -2.5759 H   0  0  0  0  0  0  0  0  0  0  0  0
    3.1293   -2.2006   -3.9503 H   0  0  0  0  0  0  0  0  0  0  0  0
    4.4482   -1.5220    0.7870 H   0  0  0  0  0  0  0  0  0  0  0  0
    6.7512   -4.8909    0.7436 H   0  0  0  0  0  0  0  0  0  0  0  0
    5.6381   -3.6705    1.3709 H   0  0  0  0  0  0  0  0  0  0  0  0
    8.3069   -4.7272    3.3803 H   0  0  0  0  0  0  0  0  0  0  0  0
    6.5916   -4.5372    3.0212 H   0  0  0  0  0  0  0  0  0  0  0  0
    7.0276   -4.2661    5.4583 H   0  0  0  0  0  0  0  0  0  0  0  0
    6.3801   -2.7668    4.7729 H   0  0  0  0  0  0  0  0  0  0  0  0
    9.6004   -1.1510    4.7810 H   0  0  0  0  0  0  0  0  0  0  0  0
    7.8855   -0.9321    4.4001 H   0  0  0  0  0  0  0  0  0  0  0  0
    9.1514   -1.2500    2.2816 H   0  0  0  0  0  0  0  0  0  0  0  0
    9.8903   -2.7394    2.9080 H   0  0  0  0  0  0  0  0  0  0  0  0
    7.8540   -5.4494   -1.2153 H   0  0  0  0  0  0  0  0  0  0  0  0
    7.8407   -5.1222   -2.9386 H   0  0  0  0  0  0  0  0  0  0  0  0
    6.7138   -6.3233   -2.2412 H   0  0  0  0  0  0  0  0  0  0  0  0
    2.6673   -5.0746   -3.1200 H   0  0  0  0  0  0  0  0  0  0  0  0
    0.5085   -5.1316   -4.2970 H   0  0  0  0  0  0  0  0  0  0  0  0
    0.4236   -4.8232   -6.7497 H   0  0  0  0  0  0  0  0  0  0  0  0
  1  2  1  0  0  0  0
  1 32  1  0  0  0  0
  1 33  1  0  0  0  0
  1 34  1  0  0  0  0
  2  3  1  0  0  0  0
  3  8  2  0  0  0  0
  3  4  1  0  0  0  0
  4  5  2  0  0  0  0
  4 35  1  0  0  0  0
  5  6  1  0  0  0  0
  5 36  1  0  0  0  0
  6 21  1  0  0  0  0
  6  7  2  0  0  0  0
  7  8  1  0  0  0  0
  7  9  1  0  0  0  0
  8 37  1  0  0  0  0
  9 10  1  0  0  0  0
  9 19  2  0  0  0  0
 10 11  1  0  0  0  0
 10 38  1  0  0  0  0
 10 39  1  0  0  0  0
 11 12  2  0  0  0  0
 11 13  1  0  0  0  0
 13 18  1  0  0  0  0
 13 14  1  0  0  0  0
 14 15  1  0  0  0  0
 14 40  1  0  0  0  0
 14 41  1  0  0  0  0
 15 16  1  0  0  0  0
 15 42  1  0  0  0  0
 15 43  1  0  0  0  0
 16 17  1  0  0  0  0
 17 18  1  0  0  0  0
 17 44  1  0  0  0  0
 17 45  1  0  0  0  0
 18 46  1  0  0  0  0
 18 47  1  0  0  0  0
 19 20  1  0  0  0  0
 19 21  1  0  0  0  0
 20 48  1  0  0  0  0
 20 49  1  0  0  0  0
 20 50  1  0  0  0  0
 21 22  1  0  0  0  0
 22 23  2  0  0  0  0
 22 24  1  0  0  0  0
 24 29  2  0  0  0  0
 24 25  1  0  0  0  0
 25 26  2  0  0  0  0
 25 51  1  0  0  0  0
 26 27  1  0  0  0  0
 26 52  1  0  0  0  0
 27 28  2  0  0  0  0
 27 53  1  0  0  0  0
 28 29  1  0  0  0  0
 28 31  1  0  0  0  0
 29 30  1  0  0  0  0
M  END
$$$$
CHEMBL579249
 OpenBabel12022418103D

 59 62  0  0  0  0  0  0  0  0999 V2000
   -0.1322   -0.9373   -0.0391 N   0  0  0  0  0  0  0  0  0  0  0  0
   -0.9797    0.1082   -0.2863 N   0  0  0  0  0  0  0  0  0  0  0  0
   -0.1949    1.2054   -0.2511 C   0  0  0  0  0  0  0  0  0  0  0  0
    1.1895    0.8362   -0.2052 C   0  0  0  0  0  0  0  0  0  0  0  0
    1.1959   -0.5413   -0.0335 C   0  0  0  0  0  0  0  0  0  0  0  0
    2.3304   -1.3767    0.0198 N   0  0  0  0  0  0  0  0  0  0  0  0
    2.5654   -2.5506   -0.7090 C   0  0  0  0  0  0  0  0  0  0  0  0
    3.8530   -2.9848   -0.4506 C   0  0  0  0  0  0  0  0  0  0  0  0
    4.4398   -2.0890    0.4473 C   0  0  0  0  0  0  0  0  0  0  0  0
    3.4908   -1.1404    0.7712 C   0  0  0  0  0  0  0  0  0  0  0  0
    3.6585   -0.0798    1.8070 C   0  0  0  0  0  0  0  0  0  0  0  0
    1.6412   -3.1877   -1.6899 C   0  0  0  0  0  0  0  0  0  0  0  0
    2.3471    1.7567   -0.4029 C   0  0  0  0  0  0  0  0  0  0  0  0
   -0.7226    2.5936   -0.2826 C   0  0  0  0  0  0  0  0  0  0  0  0
    0.0239    3.5641   -0.1571 O   0  0  0  0  0  0  0  0  0  0  0  0
   -2.0936    2.7544   -0.4487 N   0  0  0  0  0  0  0  0  0  0  0  0
   -2.6582    4.1017   -0.6192 C   0  0  0  0  0  0  0  0  0  0  0  0
   -2.4748    4.5910   -2.0685 C   0  0  0  0  0  0  0  0  0  0  0  0
   -3.7430    4.7656   -2.9042 C   0  0  0  0  0  0  0  0  0  0  0  0
   -4.4688    6.0783   -2.6173 C   0  0  0  0  0  0  0  0  0  0  0  0
   -5.3088    6.0905   -1.3454 C   0  0  0  0  0  0  0  0  0  0  0  0
   -4.5947    5.6717   -0.0623 C   0  0  0  0  0  0  0  0  0  0  0  0
   -4.0803    4.2244   -0.0543 C   0  0  0  0  0  0  0  0  0  0  0  0
   -0.7004   -2.2182    0.2412 C   0  0  0  0  0  0  0  0  0  0  0  0
   -0.1255   -3.0761    1.1877 C   0  0  0  0  0  0  0  0  0  0  0  0
   -0.6776   -4.3469    1.4091 C   0  0  0  0  0  0  0  0  0  0  0  0
   -1.7915   -4.7664    0.6727 C   0  0  0  0  0  0  0  0  0  0  0  0
   -2.3601   -3.9100   -0.2743 C   0  0  0  0  0  0  0  0  0  0  0  0
   -1.8338   -2.6290   -0.4747 C   0  0  0  0  0  0  0  0  0  0  0  0
   -2.5116   -6.3233    0.8833 Cl  0  0  0  0  0  0  0  0  0  0  0  0
    0.0648   -5.3466    2.6082 Cl  0  0  0  0  0  0  0  0  0  0  0  0
    4.3234   -3.8544   -0.8937 H   0  0  0  0  0  0  0  0  0  0  0  0
    5.4435   -2.1393    0.8524 H   0  0  0  0  0  0  0  0  0  0  0  0
    2.7178    0.3802    2.1145 H   0  0  0  0  0  0  0  0  0  0  0  0
    4.3420    0.6953    1.4430 H   0  0  0  0  0  0  0  0  0  0  0  0
    4.1088   -0.5092    2.7092 H   0  0  0  0  0  0  0  0  0  0  0  0
    0.8071   -2.5537   -1.9875 H   0  0  0  0  0  0  0  0  0  0  0  0
    1.2551   -4.1280   -1.2806 H   0  0  0  0  0  0  0  0  0  0  0  0
    2.1867   -3.4337   -2.6074 H   0  0  0  0  0  0  0  0  0  0  0  0
    2.0826    2.6149   -1.0246 H   0  0  0  0  0  0  0  0  0  0  0  0
    3.1655    1.2476   -0.9231 H   0  0  0  0  0  0  0  0  0  0  0  0
    2.7117    2.1387    0.5536 H   0  0  0  0  0  0  0  0  0  0  0  0
   -2.6260    1.9195   -0.6721 H   0  0  0  0  0  0  0  0  0  0  0  0
   -2.0345    4.7560    0.0060 H   0  0  0  0  0  0  0  0  0  0  0  0
   -1.8076    3.9066   -2.6080 H   0  0  0  0  0  0  0  0  0  0  0  0
   -1.9400    5.5502   -2.0421 H   0  0  0  0  0  0  0  0  0  0  0  0
   -4.4161    3.9075   -2.8018 H   0  0  0  0  0  0  0  0  0  0  0  0
   -3.4390    4.7874   -3.9584 H   0  0  0  0  0  0  0  0  0  0  0  0
   -5.1406    6.2908   -3.4597 H   0  0  0  0  0  0  0  0  0  0  0  0
   -3.7496    6.9064   -2.5934 H   0  0  0  0  0  0  0  0  0  0  0  0
   -6.1920    5.4569   -1.4905 H   0  0  0  0  0  0  0  0  0  0  0  0
   -5.6906    7.1115   -1.2075 H   0  0  0  0  0  0  0  0  0  0  0  0
   -5.3178    5.7801    0.7566 H   0  0  0  0  0  0  0  0  0  0  0  0
   -3.7805    6.3732    0.1579 H   0  0  0  0  0  0  0  0  0  0  0  0
   -4.0597    3.8838    0.9895 H   0  0  0  0  0  0  0  0  0  0  0  0
   -4.7803    3.5554   -0.5679 H   0  0  0  0  0  0  0  0  0  0  0  0
    0.7364   -2.7696    1.7769 H   0  0  0  0  0  0  0  0  0  0  0  0
   -3.2112   -4.2375   -0.8686 H   0  0  0  0  0  0  0  0  0  0  0  0
   -2.2770   -1.9872   -1.2333 H   0  0  0  0  0  0  0  0  0  0  0  0
  1  5  1  0  0  0  0
  1  2  1  0  0  0  0
  1 24  1  0  0  0  0
  2  3  2  0  0  0  0
  3  4  1  0  0  0  0
  3 14  1  0  0  0  0
  4  5  2  0  0  0  0
  4 13  1  0  0  0  0
  5  6  1  0  0  0  0
  6 10  1  0  0  0  0
  6  7  1  0  0  0  0
  7  8  2  0  0  0  0
  7 12  1  0  0  0  0
  8  9  1  0  0  0  0
  8 32  1  0  0  0  0
  9 10  2  0  0  0  0
  9 33  1  0  0  0  0
 10 11  1  0  0  0  0
 11 34  1  0  0  0  0
 11 35  1  0  0  0  0
 11 36  1  0  0  0  0
 12 37  1  0  0  0  0
 12 38  1  0  0  0  0
 12 39  1  0  0  0  0
 13 40  1  0  0  0  0
 13 41  1  0  0  0  0
 13 42  1  0  0  0  0
 14 15  2  0  0  0  0
 14 16  1  0  0  0  0
 16 17  1  0  0  0  0
 16 43  1  0  0  0  0
 17 23  1  0  0  0  0
 17 18  1  0  0  0  0
 17 44  1  0  0  0  0
 18 19  1  0  0  0  0
 18 45  1  0  0  0  0
 18 46  1  0  0  0  0
 19 20  1  0  0  0  0
 19 47  1  0  0  0  0
 19 48  1  0  0  0  0
 20 21  1  0  0  0  0
 20 49  1  0  0  0  0
 20 50  1  0  0  0  0
 21 22  1  0  0  0  0
 21 51  1  0  0  0  0
 21 52  1  0  0  0  0
 22 23  1  0  0  0  0
 22 53  1  0  0  0  0
 22 54  1  0  0  0  0
 23 55  1  0  0  0  0
 23 56  1  0  0  0  0
 24 29  2  0  0  0  0
 24 25  1  0  0  0  0
 25 26  2  0  0  0  0
 25 57  1  0  0  0  0
 26 27  1  0  0  0  0
 26 31  1  0  0  0  0
 27 28  2  0  0  0  0
 27 30  1  0  0  0  0
 28 29  1  0  0  0  0
 28 58  1  0  0  0  0
 29 59  1  0  0  0  0
M  END
$$$$
CHEMBL3085420
 OpenBabel12022418103D

 55 59  0  0  1  0  0  0  0  0999 V2000
    2.5004    2.2230   -2.1280 O   0  0  0  0  0  0  0  0  0  0  0  0
    2.2070    1.7465   -1.0384 C   0  0  0  0  0  0  0  0  0  0  0  0
    0.8762    1.2503   -0.6830 C   0  0  0  0  0  0  0  0  0  0  0  0
    0.5958    0.3979    0.3717 C   0  0  0  0  0  0  0  0  0  0  0  0
   -0.7498    0.1546    0.4039 N   0  0  0  0  0  0  0  0  0  0  0  0
   -1.3916   -0.6905    1.3973 C   0  0  0  0  0  0  0  0  0  0  0  0
   -1.5306   -2.1623    0.9673 C   0  0  0  0  0  0  0  0  0  0  0  0
   -2.3641   -2.9193    2.0140 C   0  0  0  0  0  0  0  0  0  0  0  0
   -2.3189   -4.4274    1.8114 C   0  0  0  0  0  0  0  0  0  0  0  0
   -0.9709   -4.8851    1.7586 O   0  0  0  0  0  0  0  0  0  0  0  0
   -0.2789   -4.3441    0.6369 C   0  0  0  0  0  0  0  0  0  0  0  0
   -0.1599   -2.8338    0.7706 C   0  0  0  0  0  0  0  0  0  0  0  0
   -1.3791    0.8566   -0.5962 C   0  0  0  0  0  0  0  0  0  0  0  0
   -2.7397    0.9491   -0.9399 C   0  0  0  0  0  0  0  0  0  0  0  0
   -3.0917    1.7687   -2.0150 C   0  0  0  0  0  0  0  0  0  0  0  0
   -2.1237    2.4670   -2.7289 C   0  0  0  0  0  0  0  0  0  0  0  0
   -0.7715    2.3620   -2.3859 C   0  0  0  0  0  0  0  0  0  0  0  0
   -0.3808    1.5462   -1.3049 C   0  0  0  0  0  0  0  0  0  0  0  0
    3.2043    1.6446    0.0673 C   0  0  2  0  0  0  0  0  0  0  0  0
    4.6297    2.1168    0.0170 C   0  0  0  0  0  0  0  0  0  0  0  0
    4.3413    0.6305   -0.0088 C   0  0  0  0  0  0  0  0  0  0  0  0
    4.4749   -0.2403    1.2223 C   0  0  0  0  0  0  0  0  0  0  0  0
    5.8556   -0.8764    1.3201 C   0  0  0  0  0  0  0  0  0  0  0  0
    6.2257   -1.6093    0.0329 C   0  0  0  0  0  0  0  0  0  0  0  0
    6.1177   -0.6828   -1.1774 C   0  0  0  0  0  0  0  0  0  0  0  0
    4.7134   -0.0815   -1.2956 C   0  0  0  0  0  0  0  0  0  0  0  0
    1.2504   -0.0641    1.0991 H   0  0  0  0  0  0  0  0  0  0  0  0
   -2.3718   -0.2527    1.6186 H   0  0  0  0  0  0  0  0  0  0  0  0
   -0.8013   -0.6107    2.3193 H   0  0  0  0  0  0  0  0  0  0  0  0
   -2.0665   -2.2077    0.0092 H   0  0  0  0  0  0  0  0  0  0  0  0
   -3.4049   -2.5752    1.9865 H   0  0  0  0  0  0  0  0  0  0  0  0
   -1.9742   -2.6916    3.0143 H   0  0  0  0  0  0  0  0  0  0  0  0
   -2.8455   -4.7276    0.8983 H   0  0  0  0  0  0  0  0  0  0  0  0
   -2.8073   -4.9279    2.6536 H   0  0  0  0  0  0  0  0  0  0  0  0
   -0.7940   -4.6279   -0.2880 H   0  0  0  0  0  0  0  0  0  0  0  0
    0.7194   -4.7936    0.6101 H   0  0  0  0  0  0  0  0  0  0  0  0
    0.4773   -2.6089    1.6350 H   0  0  0  0  0  0  0  0  0  0  0  0
    0.3391   -2.4360   -0.1199 H   0  0  0  0  0  0  0  0  0  0  0  0
   -3.5028    0.4128   -0.3885 H   0  0  0  0  0  0  0  0  0  0  0  0
   -4.1390    1.8642   -2.2920 H   0  0  0  0  0  0  0  0  0  0  0  0
   -2.4179    3.1058   -3.5579 H   0  0  0  0  0  0  0  0  0  0  0  0
   -0.0233    2.9191   -2.9456 H   0  0  0  0  0  0  0  0  0  0  0  0
    2.7539    1.8311    1.0410 H   0  0  0  0  0  0  0  0  0  0  0  0
    5.0569    2.5404    0.9193 H   0  0  0  0  0  0  0  0  0  0  0  0
    4.9655    2.6109   -0.8893 H   0  0  0  0  0  0  0  0  0  0  0  0
    3.7143   -1.0306    1.1694 H   0  0  0  0  0  0  0  0  0  0  0  0
    4.2728    0.3300    2.1364 H   0  0  0  0  0  0  0  0  0  0  0  0
    5.8770   -1.5763    2.1634 H   0  0  0  0  0  0  0  0  0  0  0  0
    6.6015   -0.0994    1.5247 H   0  0  0  0  0  0  0  0  0  0  0  0
    5.5614   -2.4713   -0.1054 H   0  0  0  0  0  0  0  0  0  0  0  0
    7.2463   -1.9994    0.1139 H   0  0  0  0  0  0  0  0  0  0  0  0
    6.3658   -1.2349   -2.0902 H   0  0  0  0  0  0  0  0  0  0  0  0
    6.8565    0.1231   -1.0769 H   0  0  0  0  0  0  0  0  0  0  0  0
    4.6986    0.6015   -2.1531 H   0  0  0  0  0  0  0  0  0  0  0  0
    3.9837   -0.8731   -1.5013 H   0  0  0  0  0  0  0  0  0  0  0  0
  1  2  2  0  0  0  0
  2  3  1  0  0  0  0
  3 18  1  0  0  0  0
  3  4  2  0  0  0  0
  4  5  1  0  0  0  0
  4 27  1  0  0  0  0
  5  6  1  0  0  0  0
  5 13  1  0  0  0  0
  6  7  1  0  0  0  0
  6 28  1  0  0  0  0
  6 29  1  0  0  0  0
  7 12  1  0  0  0  0
  7  8  1  0  0  0  0
  7 30  1  0  0  0  0
  8  9  1  0  0  0  0
  8 31  1  0  0  0  0
  8 32  1  0  0  0  0
  9 10  1  0  0  0  0
  9 33  1  0  0  0  0
  9 34  1  0  0  0  0
 10 11  1  0  0  0  0
 11 12  1  0  0  0  0
 11 35  1  0  0  0  0
 11 36  1  0  0  0  0
 12 37  1  0  0  0  0
 12 38  1  0  0  0  0
 13 18  2  0  0  0  0
 13 14  1  0  0  0  0
 14 15  2  0  0  0  0
 14 39  1  0  0  0  0
 15 16  1  0  0  0  0
 15 40  1  0  0  0  0
 16 17  2  0  0  0  0
 16 41  1  0  0  0  0
 17 18  1  0  0  0  0
 17 42  1  0  0  0  0
 19 20  1  0  0  0  0
 19 21  1  0  0  0  0
 19  2  1  0  0  0  0
 19 43  1  1  0  0  0
 20 21  1  0  0  0  0
 20 44  1  0  0  0  0
 20 45  1  0  0  0  0
 21 26  1  0  0  0  0
 21 22  1  0  0  0  0
 22 23  1  0  0  0  0
 22 46  1  0  0  0  0
 22 47  1  0  0  0  0
 23 24  1  0  0  0  0
 23 48  1  0  0  0  0
 23 49  1  0  0  0  0
 24 25  1  0  0  0  0
 24 50  1  0  0  0  0
 24 51  1  0  0  0  0
 25 26  1  0  0  0  0
 25 52  1  0  0  0  0
 25 53  1  0  0  0  0
 26 54  1  0  0  0  0
 26 55  1  0  0  0  0
M  END
$$$$
CHEMBL574480
 OpenBabel12022418103D

 56 59  0  0  1  0  0  0  0  0999 V2000
    1.1781    0.4287   -0.1054 C   0  0  0  0  0  0  0  0  0  0  0  0
    2.6457    0.1730   -0.0857 C   0  0  0  0  0  0  0  0  0  0  0  0
    3.6615    1.1842    0.0370 C   0  0  0  0  0  0  0  0  0  0  0  0
    3.4802    2.6615    0.0406 C   0  0  0  0  0  0  0  0  0  0  0  0
    2.3738    3.1906   -0.0241 O   0  0  0  0  0  0  0  0  0  0  0  0
    4.6595    3.3836    0.1021 N   0  0  0  0  0  0  0  0  0  0  0  0
    4.7055    4.8432    0.1842 C   0  0  1  0  0  0  0  0  0  0  0  0
    4.5039    5.3120    1.6288 C   0  0  0  0  0  0  0  0  0  0  0  0
    5.9882    5.4629   -0.4434 C   0  0  0  0  0  0  0  0  0  0  0  0
    7.2834    5.1199    0.3175 C   0  0  0  0  0  0  0  0  0  0  0  0
    8.5211    5.7241   -0.3422 C   0  0  0  0  0  0  0  0  0  0  0  0
    8.6283    5.3246   -1.8081 C   0  0  0  0  0  0  0  0  0  0  0  0
    7.3693    5.7134   -2.5736 C   0  0  0  0  0  0  0  0  0  0  0  0
    6.1147    5.1129   -1.9388 C   0  0  0  0  0  0  0  0  0  0  0  0
    4.8789    0.6290    0.1981 N   0  0  0  0  0  0  0  0  0  0  0  0
    4.6893   -0.7029   -0.0036 N   0  0  0  0  0  0  0  0  0  0  0  0
    5.8351   -1.5127   -0.2552 C   0  0  0  0  0  0  0  0  0  0  0  0
    5.7879   -2.5734   -1.1706 C   0  0  0  0  0  0  0  0  0  0  0  0
    6.9243   -3.3551   -1.3932 C   0  0  0  0  0  0  0  0  0  0  0  0
    8.1134   -3.0796   -0.7129 C   0  0  0  0  0  0  0  0  0  0  0  0
    8.1664   -2.0129    0.1925 C   0  0  0  0  0  0  0  0  0  0  0  0
    7.0344   -1.2196    0.4088 C   0  0  0  0  0  0  0  0  0  0  0  0
    9.5937   -1.6348    1.0902 Cl  0  0  0  0  0  0  0  0  0  0  0  0
    9.4781   -4.0848   -1.0456 Cl  0  0  0  0  0  0  0  0  0  0  0  0
    3.3453   -1.0270   -0.0620 C   0  0  0  0  0  0  0  0  0  0  0  0
    2.8414   -2.3346   -0.0181 N   0  0  0  0  0  0  0  0  0  0  0  0
    3.4012   -3.4163    0.6435 C   0  0  0  0  0  0  0  0  0  0  0  0
    2.6205   -4.5345    0.4552 C   0  0  0  0  0  0  0  0  0  0  0  0
    1.5243   -4.1416   -0.3349 C   0  0  0  0  0  0  0  0  0  0  0  0
    1.6826   -2.8008   -0.6117 C   0  0  0  0  0  0  0  0  0  0  0  0
    0.5866   -0.4756    0.0464 H   0  0  0  0  0  0  0  0  0  0  0  0
    0.8785    0.8775   -1.0572 H   0  0  0  0  0  0  0  0  0  0  0  0
    0.8974    1.1068    0.7072 H   0  0  0  0  0  0  0  0  0  0  0  0
    5.4948    2.8253    0.2576 H   0  0  0  0  0  0  0  0  0  0  0  0
    3.8480    5.2168   -0.3917 H   0  0  0  0  0  0  0  0  0  0  0  0
    5.2737    4.9126    2.2967 H   0  0  0  0  0  0  0  0  0  0  0  0
    3.5365    4.9804    2.0199 H   0  0  0  0  0  0  0  0  0  0  0  0
    4.5308    6.4059    1.6891 H   0  0  0  0  0  0  0  0  0  0  0  0
    5.8699    6.5564   -0.3870 H   0  0  0  0  0  0  0  0  0  0  0  0
    7.4080    4.0323    0.3800 H   0  0  0  0  0  0  0  0  0  0  0  0
    7.2319    5.4986    1.3441 H   0  0  0  0  0  0  0  0  0  0  0  0
    9.4198    5.4008    0.1950 H   0  0  0  0  0  0  0  0  0  0  0  0
    8.4828    6.8191   -0.2645 H   0  0  0  0  0  0  0  0  0  0  0  0
    8.7850    4.2415   -1.8821 H   0  0  0  0  0  0  0  0  0  0  0  0
    9.5023    5.8064   -2.2608 H   0  0  0  0  0  0  0  0  0  0  0  0
    7.4532    5.3765   -3.6130 H   0  0  0  0  0  0  0  0  0  0  0  0
    7.2815    6.8069   -2.5999 H   0  0  0  0  0  0  0  0  0  0  0  0
    5.2342    5.4806   -2.4796 H   0  0  0  0  0  0  0  0  0  0  0  0
    6.1396    4.0248   -2.0710 H   0  0  0  0  0  0  0  0  0  0  0  0
    4.8907   -2.7972   -1.7445 H   0  0  0  0  0  0  0  0  0  0  0  0
    6.8753   -4.1774   -2.1043 H   0  0  0  0  0  0  0  0  0  0  0  0
    7.0802   -0.4006    1.1247 H   0  0  0  0  0  0  0  0  0  0  0  0
    4.3044   -3.3048    1.2275 H   0  0  0  0  0  0  0  0  0  0  0  0
    2.8193   -5.5205    0.8569 H   0  0  0  0  0  0  0  0  0  0  0  0
    0.7090   -4.7674   -0.6756 H   0  0  0  0  0  0  0  0  0  0  0  0
    1.0764   -2.1537   -1.2289 H   0  0  0  0  0  0  0  0  0  0  0  0
  1  2  1  0  0  0  0
  1 31  1  0  0  0  0
  1 32  1  0  0  0  0
  1 33  1  0  0  0  0
  2 25  2  0  0  0  0
  2  3  1  0  0  0  0
  3  4  1  0  0  0  0
  3 15  2  0  0  0  0
  4  5  2  0  0  0  0
  4  6  1  0  0  0  0
  6  7  1  0  0  0  0
  6 34  1  0  0  0  0
  7  8  1  0  0  0  0
  7  9  1  0  0  0  0
  7 35  1  6  0  0  0
  8 36  1  0  0  0  0
  8 37  1  0  0  0  0
  8 38  1  0  0  0  0
  9 14  1  0  0  0  0
  9 10  1  0  0  0  0
  9 39  1  0  0  0  0
 10 11  1  0  0  0  0
 10 40  1  0  0  0  0
 10 41  1  0  0  0  0
 11 12  1  0  0  0  0
 11 42  1  0  0  0  0
 11 43  1  0  0  0  0
 12 13  1  0  0  0  0
 12 44  1  0  0  0  0
 12 45  1  0  0  0  0
 13 14  1  0  0  0  0
 13 46  1  0  0  0  0
 13 47  1  0  0  0  0
 14 48  1  0  0  0  0
 14 49  1  0  0  0  0
 15 16  1  0  0  0  0
 16 17  1  0  0  0  0
 16 25  1  0  0  0  0
 17 22  2  0  0  0  0
 17 18  1  0  0  0  0
 18 19  2  0  0  0  0
 18 50  1  0  0  0  0
 19 20  1  0  0  0  0
 19 51  1  0  0  0  0
 20 21  2  0  0  0  0
 20 24  1  0  0  0  0
 21 22  1  0  0  0  0
 21 23  1  0  0  0  0
 22 52  1  0  0  0  0
 25 26  1  0  0  0  0
 26 30  1  0  0  0  0
 26 27  1  0  0  0  0
 27 28  2  0  0  0  0
 27 53  1  0  0  0  0
 28 29  1  0  0  0  0
 28 54  1  0  0  0  0
 29 30  2  0  0  0  0
 29 55  1  0  0  0  0
 30 56  1  0  0  0  0
M  END
$$$$
CHEMBL574270
 OpenBabel12022418103D

 56 59  0  0  1  0  0  0  0  0999 V2000
   -0.1186   -0.9916   -0.0835 N   0  0  0  0  0  0  0  0  0  0  0  0
   -0.9637    0.0392   -0.3773 N   0  0  0  0  0  0  0  0  0  0  0  0
   -0.1949    1.1471   -0.3423 C   0  0  0  0  0  0  0  0  0  0  0  0
    1.1882    0.8054   -0.2348 C   0  0  0  0  0  0  0  0  0  0  0  0
    1.1995   -0.5705   -0.0457 C   0  0  0  0  0  0  0  0  0  0  0  0
    2.3354   -1.3950    0.0263 N   0  0  0  0  0  0  0  0  0  0  0  0
    2.5875   -2.5604   -0.7107 C   0  0  0  0  0  0  0  0  0  0  0  0
    3.8672   -2.9992   -0.4238 C   0  0  0  0  0  0  0  0  0  0  0  0
    4.4289   -2.0999    0.4913 C   0  0  0  0  0  0  0  0  0  0  0  0
    3.4757   -1.1557    0.8018 C   0  0  0  0  0  0  0  0  0  0  0  0
    3.6182   -0.0946    1.8404 C   0  0  0  0  0  0  0  0  0  0  0  0
    1.6843   -3.1852   -1.7193 C   0  0  0  0  0  0  0  0  0  0  0  0
    2.3363    1.7378   -0.4162 C   0  0  0  0  0  0  0  0  0  0  0  0
   -0.7706    2.5113   -0.4460 C   0  0  0  0  0  0  0  0  0  0  0  0
   -0.1020    3.5282   -0.2843 O   0  0  0  0  0  0  0  0  0  0  0  0
   -2.1242    2.5329   -0.6918 N   0  0  0  0  0  0  0  0  0  0  0  0
   -2.8790    3.7605   -0.8532 C   0  0  1  0  0  0  0  0  0  0  0  0
   -2.9493    4.1892   -2.3094 C   0  0  0  0  0  0  0  0  0  0  0  0
   -2.4785    5.4541   -2.6992 C   0  0  0  0  0  0  0  0  0  0  0  0
   -2.5867    5.8782   -4.0264 C   0  0  0  0  0  0  0  0  0  0  0  0
   -3.1632    5.0442   -4.9817 C   0  0  0  0  0  0  0  0  0  0  0  0
   -3.6247    3.7829   -4.6135 C   0  0  0  0  0  0  0  0  0  0  0  0
   -3.5164    3.3572   -3.2882 C   0  0  0  0  0  0  0  0  0  0  0  0
   -4.2829    3.5967   -0.2670 C   0  0  0  0  0  0  0  0  0  0  0  0
   -0.6831   -2.2738    0.1926 C   0  0  0  0  0  0  0  0  0  0  0  0
   -0.1044   -3.1427    1.1280 C   0  0  0  0  0  0  0  0  0  0  0  0
   -0.6456   -4.4207    1.3265 C   0  0  0  0  0  0  0  0  0  0  0  0
   -1.7554   -4.8395    0.5820 C   0  0  0  0  0  0  0  0  0  0  0  0
   -2.3338   -3.9716   -0.3486 C   0  0  0  0  0  0  0  0  0  0  0  0
   -1.8170   -2.6844   -0.5265 C   0  0  0  0  0  0  0  0  0  0  0  0
   -2.4549   -6.4098    0.7592 Cl  0  0  0  0  0  0  0  0  0  0  0  0
    0.1132   -5.4395    2.4989 Cl  0  0  0  0  0  0  0  0  0  0  0  0
    4.3514   -3.8627   -0.8668 H   0  0  0  0  0  0  0  0  0  0  0  0
    5.4285   -2.1501    0.9153 H   0  0  0  0  0  0  0  0  0  0  0  0
    2.6706    0.3682    2.1228 H   0  0  0  0  0  0  0  0  0  0  0  0
    4.3112    0.6796    1.4931 H   0  0  0  0  0  0  0  0  0  0  0  0
    4.0437   -0.5228    2.7550 H   0  0  0  0  0  0  0  0  0  0  0  0
    0.8394   -2.5615   -2.0090 H   0  0  0  0  0  0  0  0  0  0  0  0
    1.3113   -4.1438   -1.3406 H   0  0  0  0  0  0  0  0  0  0  0  0
    2.2430   -3.3936   -2.6378 H   0  0  0  0  0  0  0  0  0  0  0  0
    2.0587    2.6173   -1.0027 H   0  0  0  0  0  0  0  0  0  0  0  0
    3.1482    1.2483   -0.9643 H   0  0  0  0  0  0  0  0  0  0  0  0
    2.7132    2.0919    0.5456 H   0  0  0  0  0  0  0  0  0  0  0  0
   -2.5510    1.6326   -0.8776 H   0  0  0  0  0  0  0  0  0  0  0  0
   -2.3707    4.5445   -0.2757 H   0  0  0  0  0  0  0  0  0  0  0  0
   -2.0273    6.1238   -1.9690 H   0  0  0  0  0  0  0  0  0  0  0  0
   -2.2240    6.8620   -4.3139 H   0  0  0  0  0  0  0  0  0  0  0  0
   -3.2529    5.3765   -6.0126 H   0  0  0  0  0  0  0  0  0  0  0  0
   -4.0749    3.1312   -5.3573 H   0  0  0  0  0  0  0  0  0  0  0  0
   -3.8889    2.3714   -3.0212 H   0  0  0  0  0  0  0  0  0  0  0  0
   -4.8535    2.8173   -0.7851 H   0  0  0  0  0  0  0  0  0  0  0  0
   -4.8519    4.5304   -0.3391 H   0  0  0  0  0  0  0  0  0  0  0  0
   -4.2311    3.3097    0.7888 H   0  0  0  0  0  0  0  0  0  0  0  0
    0.7538   -2.8388    1.7227 H   0  0  0  0  0  0  0  0  0  0  0  0
   -3.1813   -4.2974   -0.9483 H   0  0  0  0  0  0  0  0  0  0  0  0
   -2.2681   -2.0353   -1.2761 H   0  0  0  0  0  0  0  0  0  0  0  0
  1  5  1  0  0  0  0
  1  2  1  0  0  0  0
  1 25  1  0  0  0  0
  2  3  2  0  0  0  0
  3  4  1  0  0  0  0
  3 14  1  0  0  0  0
  4  5  2  0  0  0  0
  4 13  1  0  0  0  0
  5  6  1  0  0  0  0
  6 10  1  0  0  0  0
  6  7  1  0  0  0  0
  7  8  2  0  0  0  0
  7 12  1  0  0  0  0
  8  9  1  0  0  0  0
  8 33  1  0  0  0  0
  9 10  2  0  0  0  0
  9 34  1  0  0  0  0
 10 11  1  0  0  0  0
 11 35  1  0  0  0  0
 11 36  1  0  0  0  0
 11 37  1  0  0  0  0
 12 38  1  0  0  0  0
 12 39  1  0  0  0  0
 12 40  1  0  0  0  0
 13 41  1  0  0  0  0
 13 42  1  0  0  0  0
 13 43  1  0  0  0  0
 14 15  2  0  0  0  0
 14 16  1  0  0  0  0
 16 17  1  0  0  0  0
 16 44  1  0  0  0  0
 17 18  1  0  0  0  0
 17 24  1  0  0  0  0
 17 45  1  1  0  0  0
 18 23  2  0  0  0  0
 18 19  1  0  0  0  0
 19 20  2  0  0  0  0
 19 46  1  0  0  0  0
 20 21  1  0  0  0  0
 20 47  1  0  0  0  0
 21 22  2  0  0  0  0
 21 48  1  0  0  0  0
 22 23  1  0  0  0  0
 22 49  1  0  0  0  0
 23 50  1  0  0  0  0
 24 51  1  0  0  0  0
 24 52  1  0  0  0  0
 24 53  1  0  0  0  0
 25 30  2  0  0  0  0
 25 26  1  0  0  0  0
 26 27  2  0  0  0  0
 26 54  1  0  0  0  0
 27 28  1  0  0  0  0
 27 32  1  0  0  0  0
 28 29  2  0  0  0  0
 28 31  1  0  0  0  0
 29 30  1  0  0  0  0
 29 55  1  0  0  0  0
 30 56  1  0  0  0  0
M  END
$$$$
CHEMBL3968525
 OpenBabel12022418103D

 54 56  0  0  0  0  0  0  0  0999 V2000
    5.9267    0.0696    1.8677 C   0  0  0  0  0  0  0  0  0  0  0  0
    4.8511   -0.0114    0.7459 C   0  0  0  0  0  0  0  0  0  0  0  0
    3.7048   -0.8661    1.3280 C   0  0  0  0  0  0  0  0  0  0  0  0
    4.3587    1.4437    0.4957 C   0  0  0  0  0  0  0  0  0  0  0  0
    5.4493    2.2552    0.0307 O   0  0  0  0  0  0  0  0  0  0  0  0
    5.0221    3.5745   -0.2741 C   0  0  0  0  0  0  0  0  0  0  0  0
    5.3574   -0.6360   -0.5332 N   0  0  0  0  0  0  0  0  0  0  0  0
    6.7321   -1.0957   -0.5972 C   0  0  0  0  0  0  0  0  0  0  0  0
    4.4983   -0.7589   -1.6625 C   0  0  0  0  0  0  0  0  0  0  0  0
    3.3510   -0.3167   -1.6739 O   0  0  0  0  0  0  0  0  0  0  0  0
    4.9719   -1.4328   -2.9334 C   0  0  0  0  0  0  0  0  0  0  0  0
    4.4745   -1.0178   -4.1592 C   0  0  0  0  0  0  0  0  0  0  0  0
    4.9295   -1.6651   -5.3136 C   0  0  0  0  0  0  0  0  0  0  0  0
    5.8898   -2.6917   -5.2543 C   0  0  0  0  0  0  0  0  0  0  0  0
    6.3709   -2.9800   -3.9676 C   0  0  0  0  0  0  0  0  0  0  0  0
    7.5013   -3.7879   -3.8229 O   0  0  0  0  0  0  0  0  0  0  0  0
    8.0799   -3.5775   -2.5260 C   0  0  0  0  0  0  0  0  0  0  0  0
    9.4978   -4.0367   -2.4350 C   0  0  0  0  0  0  0  0  0  0  0  0
    9.9377   -4.6802   -1.1380 C   0  0  0  0  0  0  0  0  0  0  0  0
    9.9105   -5.4819   -2.4118 C   0  0  0  0  0  0  0  0  0  0  0  0
    5.8711   -2.4258   -2.8305 N   0  0  0  0  0  0  0  0  0  0  0  0
    6.3368   -3.3034   -6.4443 N   0  0  0  0  0  0  0  0  0  0  0  0
    5.7160   -3.3104   -7.7374 C   0  0  0  0  0  0  0  0  0  0  0  0
    6.0994   -4.7886   -7.8901 C   0  0  0  0  0  0  0  0  0  0  0  0
    6.9591   -4.5836   -6.6325 C   0  0  0  0  0  0  0  0  0  0  0  0
    6.7540   -5.1202   -9.0285 F   0  0  0  0  0  0  0  0  0  0  0  0
    5.0749   -5.6706   -7.7686 F   0  0  0  0  0  0  0  0  0  0  0  0
    5.5086    0.5041    2.7851 H   0  0  0  0  0  0  0  0  0  0  0  0
    6.7736    0.7041    1.5854 H   0  0  0  0  0  0  0  0  0  0  0  0
    6.3127   -0.9231    2.1285 H   0  0  0  0  0  0  0  0  0  0  0  0
    3.3674   -0.4680    2.2918 H   0  0  0  0  0  0  0  0  0  0  0  0
    4.0351   -1.8981    1.4907 H   0  0  0  0  0  0  0  0  0  0  0  0
    2.8317   -0.8994    0.6707 H   0  0  0  0  0  0  0  0  0  0  0  0
    3.9827    1.8737    1.4325 H   0  0  0  0  0  0  0  0  0  0  0  0
    3.5436    1.4850   -0.2308 H   0  0  0  0  0  0  0  0  0  0  0  0
    5.8917    4.1490   -0.6039 H   0  0  0  0  0  0  0  0  0  0  0  0
    4.6019    4.0540    0.6147 H   0  0  0  0  0  0  0  0  0  0  0  0
    4.2851    3.5607   -1.0823 H   0  0  0  0  0  0  0  0  0  0  0  0
    7.3819   -0.6846    0.1720 H   0  0  0  0  0  0  0  0  0  0  0  0
    7.1716   -0.7813   -1.5455 H   0  0  0  0  0  0  0  0  0  0  0  0
    6.7290   -2.1822   -0.4834 H   0  0  0  0  0  0  0  0  0  0  0  0
    3.7605   -0.2022   -4.2234 H   0  0  0  0  0  0  0  0  0  0  0  0
    4.5446   -1.3270   -6.2737 H   0  0  0  0  0  0  0  0  0  0  0  0
    7.4611   -4.0690   -1.7680 H   0  0  0  0  0  0  0  0  0  0  0  0
    8.1505   -2.5039   -2.3255 H   0  0  0  0  0  0  0  0  0  0  0  0
   10.1741   -3.3178   -2.8824 H   0  0  0  0  0  0  0  0  0  0  0  0
    9.1945   -4.9193   -0.3847 H   0  0  0  0  0  0  0  0  0  0  0  0
   10.8953   -4.3840   -0.7236 H   0  0  0  0  0  0  0  0  0  0  0  0
   10.8626   -5.7286   -2.8656 H   0  0  0  0  0  0  0  0  0  0  0  0
    9.1424   -6.2337   -2.5306 H   0  0  0  0  0  0  0  0  0  0  0  0
    6.2259   -2.6296   -8.4284 H   0  0  0  0  0  0  0  0  0  0  0  0
    4.6410   -3.1236   -7.7451 H   0  0  0  0  0  0  0  0  0  0  0  0
    6.7781   -5.3163   -5.8432 H   0  0  0  0  0  0  0  0  0  0  0  0
    8.0303   -4.4831   -6.8305 H   0  0  0  0  0  0  0  0  0  0  0  0
  1  2  1  0  0  0  0
  1 28  1  0  0  0  0
  1 29  1  0  0  0  0
  1 30  1  0  0  0  0
  2  3  1  0  0  0  0
  2  4  1  0  0  0  0
  2  7  1  0  0  0  0
  3 31  1  0  0  0  0
  3 32  1  0  0  0  0
  3 33  1  0  0  0  0
  4  5  1  0  0  0  0
  4 34  1  0  0  0  0
  4 35  1  0  0  0  0
  5  6  1  0  0  0  0
  6 36  1  0  0  0  0
  6 37  1  0  0  0  0
  6 38  1  0  0  0  0
  7  8  1  0  0  0  0
  7  9  1  0  0  0  0
  8 39  1  0  0  0  0
  8 40  1  0  0  0  0
  8 41  1  0  0  0  0
  9 10  2  0  0  0  0
  9 11  1  0  0  0  0
 11 21  2  0  0  0  0
 11 12  1  0  0  0  0
 12 13  2  0  0  0  0
 12 42  1  0  0  0  0
 13 14  1  0  0  0  0
 13 43  1  0  0  0  0
 14 15  2  0  0  0  0
 14 22  1  0  0  0  0
 15 16  1  0  0  0  0
 15 21  1  0  0  0  0
 16 17  1  0  0  0  0
 17 18  1  0  0  0  0
 17 44  1  0  0  0  0
 17 45  1  0  0  0  0
 18 20  1  0  0  0  0
 18 19  1  0  0  0  0
 18 46  1  0  0  0  0
 19 20  1  0  0  0  0
 19 47  1  0  0  0  0
 19 48  1  0  0  0  0
 20 49  1  0  0  0  0
 20 50  1  0  0  0  0
 22 25  1  0  0  0  0
 22 23  1  0  0  0  0
 23 24  1  0  0  0  0
 23 51  1  0  0  0  0
 23 52  1  0  0  0  0
 24 25  1  0  0  0  0
 24 26  1  0  0  0  0
 24 27  1  0  0  0  0
 25 53  1  0  0  0  0
 25 54  1  0  0  0  0
M  END
$$$$
CHEMBL557627
 OpenBabel12022418103D

 49 52  0  0  0  0  0  0  0  0999 V2000
    6.3205   -4.1604   -1.2968 C   0  0  0  0  0  0  0  0  0  0  0  0
    5.9846   -2.7277   -1.7109 C   0  0  0  0  0  0  0  0  0  0  0  0
    6.5360   -1.7097   -0.7032 C   0  0  0  0  0  0  0  0  0  0  0  0
    6.1485   -0.3153   -0.9162 N   0  0  0  0  0  0  0  0  0  0  0  0
    6.9557    0.6585   -1.4255 C   0  0  0  0  0  0  0  0  0  0  0  0
    6.3849    1.9346   -1.2577 C   0  0  0  0  0  0  0  0  0  0  0  0
    7.2171    3.1113   -1.6250 C   0  0  0  0  0  0  0  0  0  0  0  0
    8.3296    2.8167   -2.0928 O   0  0  0  0  0  0  0  0  0  0  0  0
    6.9304    4.6148   -1.6935 C   0  0  0  0  0  0  0  0  0  0  0  0
    7.7474    5.1891   -2.7013 C   0  0  0  0  0  0  0  0  0  0  0  0
    7.6258    6.5114   -3.0453 C   0  0  0  0  0  0  0  0  0  0  0  0
    6.3210    6.8947   -2.9698 C   0  0  0  0  0  0  0  0  0  0  0  0
    5.5716    7.2590   -4.2313 C   0  0  0  0  0  0  0  0  0  0  0  0
    6.1734    6.5506   -5.4526 C   0  0  0  0  0  0  0  0  0  0  0  0
    5.7303    6.7134   -1.7551 C   0  0  0  0  0  0  0  0  0  0  0  0
    4.8929    7.7577   -1.2997 C   0  0  0  0  0  0  0  0  0  0  0  0
    4.7018    7.9164    0.0545 C   0  0  0  0  0  0  0  0  0  0  0  0
    5.2757    6.9862    0.9194 C   0  0  0  0  0  0  0  0  0  0  0  0
    5.9258    5.8139    0.4333 C   0  0  0  0  0  0  0  0  0  0  0  0
    6.1597    5.6048   -0.9551 C   0  0  0  0  0  0  0  0  0  0  0  0
    5.0476    1.6555   -0.7951 C   0  0  0  0  0  0  0  0  0  0  0  0
    3.8840    2.4145   -0.5792 C   0  0  0  0  0  0  0  0  0  0  0  0
    2.7476    1.7916   -0.0276 C   0  0  0  0  0  0  0  0  0  0  0  0
    2.7322    0.4602    0.3227 C   0  0  0  0  0  0  0  0  0  0  0  0
    3.8308   -0.3451    0.0645 C   0  0  0  0  0  0  0  0  0  0  0  0
    4.9699    0.2748   -0.5080 C   0  0  0  0  0  0  0  0  0  0  0  0
    5.9977   -4.8723   -2.0646 H   0  0  0  0  0  0  0  0  0  0  0  0
    5.8149   -4.4299   -0.3626 H   0  0  0  0  0  0  0  0  0  0  0  0
    7.3980   -4.2937   -1.1491 H   0  0  0  0  0  0  0  0  0  0  0  0
    4.8966   -2.6385   -1.8024 H   0  0  0  0  0  0  0  0  0  0  0  0
    6.4043   -2.5373   -2.7050 H   0  0  0  0  0  0  0  0  0  0  0  0
    7.6322   -1.7484   -0.7036 H   0  0  0  0  0  0  0  0  0  0  0  0
    6.2134   -1.9740    0.3110 H   0  0  0  0  0  0  0  0  0  0  0  0
    7.9213    0.3957   -1.8416 H   0  0  0  0  0  0  0  0  0  0  0  0
    8.5066    4.6306   -3.2442 H   0  0  0  0  0  0  0  0  0  0  0  0
    8.3214    7.1404   -2.4517 H   0  0  0  0  0  0  0  0  0  0  0  0
    5.5813    8.3393   -4.3761 H   0  0  0  0  0  0  0  0  0  0  0  0
    4.5339    6.9207   -4.1352 H   0  0  0  0  0  0  0  0  0  0  0  0
    7.2012    6.8837   -5.6423 H   0  0  0  0  0  0  0  0  0  0  0  0
    5.5808    6.7637   -6.3440 H   0  0  0  0  0  0  0  0  0  0  0  0
    6.1962    5.4619   -5.3118 H   0  0  0  0  0  0  0  0  0  0  0  0
    4.5494    8.5433   -1.9757 H   0  0  0  0  0  0  0  0  0  0  0  0
    4.2075    8.8123    0.4224 H   0  0  0  0  0  0  0  0  0  0  0  0
    5.2624    7.2166    1.9877 H   0  0  0  0  0  0  0  0  0  0  0  0
    6.4100    5.1772    1.1702 H   0  0  0  0  0  0  0  0  0  0  0  0
    3.8535    3.4647   -0.8529 H   0  0  0  0  0  0  0  0  0  0  0  0
    1.8701    2.4081    0.1304 H   0  0  0  0  0  0  0  0  0  0  0  0
    1.8465    0.0207    0.7628 H   0  0  0  0  0  0  0  0  0  0  0  0
    3.8309   -1.3972    0.3201 H   0  0  0  0  0  0  0  0  0  0  0  0
  1  2  1  0  0  0  0
  1 27  1  0  0  0  0
  1 28  1  0  0  0  0
  1 29  1  0  0  0  0
  2  3  1  0  0  0  0
  2 30  1  0  0  0  0
  2 31  1  0  0  0  0
  3  4  1  0  0  0  0
  3 32  1  0  0  0  0
  3 33  1  0  0  0  0
  4 26  1  0  0  0  0
  4  5  1  0  0  0  0
  5  6  2  0  0  0  0
  5 34  1  0  0  0  0
  6  7  1  0  0  0  0
  6 21  1  0  0  0  0
  7  8  2  0  0  0  0
  7  9  1  0  0  0  0
  9 20  2  0  0  0  0
  9 10  1  0  0  0  0
 10 11  2  0  0  0  0
 10 35  1  0  0  0  0
 11 12  1  0  0  0  0
 11 36  1  0  0  0  0
 12 13  1  0  0  0  0
 12 15  2  0  0  0  0
 13 14  1  0  0  0  0
 13 37  1  0  0  0  0
 13 38  1  0  0  0  0
 14 39  1  0  0  0  0
 14 40  1  0  0  0  0
 14 41  1  0  0  0  0
 15 20  1  0  0  0  0
 15 16  1  0  0  0  0
 16 17  2  0  0  0  0
 16 42  1  0  0  0  0
 17 18  1  0  0  0  0
 17 43  1  0  0  0  0
 18 19  2  0  0  0  0
 18 44  1  0  0  0  0
 19 20  1  0  0  0  0
 19 45  1  0  0  0  0
 21 26  2  0  0  0  0
 21 22  1  0  0  0  0
 22 23  2  0  0  0  0
 22 46  1  0  0  0  0
 23 24  1  0  0  0  0
 23 47  1  0  0  0  0
 24 25  2  0  0  0  0
 24 48  1  0  0  0  0
 25 26  1  0  0  0  0
 25 49  1  0  0  0  0
M  END
$$$$
CHEMBL570877
 OpenBabel12022418103D

 49 51  0  0  0  0  0  0  0  0999 V2000
    0.9710    3.0475    0.9092 C   0  0  0  0  0  0  0  0  0  0  0  0
    2.3995    3.1002    0.9042 O   0  0  0  0  0  0  0  0  0  0  0  0
    3.0059    2.0630    1.5495 C   0  0  0  0  0  0  0  0  0  0  0  0
    2.4284    1.1353    2.0908 O   0  0  0  0  0  0  0  0  0  0  0  0
    4.5029    2.2502    1.4996 C   0  0  0  0  0  0  0  0  0  0  0  0
    5.2105    1.1425    2.2684 C   0  0  0  0  0  0  0  0  0  0  0  0
    6.6745    1.2039    2.2531 N   0  0  0  0  0  0  0  0  0  0  0  0
    7.4386    2.3438    2.2642 C   0  0  0  0  0  0  0  0  0  0  0  0
    8.7884    2.0057    2.2914 C   0  0  0  0  0  0  0  0  0  0  0  0
    9.9594    2.9197    2.3174 C   0  0  0  0  0  0  0  0  0  0  0  0
   11.1142    2.5134    2.2589 O   0  0  0  0  0  0  0  0  0  0  0  0
    9.6581    4.3878    2.3983 C   0  0  0  0  0  0  0  0  0  0  0  0
   10.5217    5.5285    2.9311 C   0  0  0  0  0  0  0  0  0  0  0  0
    9.8195    6.6412    3.6849 C   0  0  0  0  0  0  0  0  0  0  0  0
   11.9240    5.3106    3.4648 C   0  0  0  0  0  0  0  0  0  0  0  0
   10.2612    5.3956    1.4175 C   0  0  0  0  0  0  0  0  0  0  0  0
   11.4691    5.1331    0.5391 C   0  0  0  0  0  0  0  0  0  0  0  0
    9.2328    6.2374    0.6926 C   0  0  0  0  0  0  0  0  0  0  0  0
    8.8163    0.5634    2.2959 C   0  0  0  0  0  0  0  0  0  0  0  0
    9.8555   -0.3935    2.3181 C   0  0  0  0  0  0  0  0  0  0  0  0
    9.5577   -1.7611    2.3395 C   0  0  0  0  0  0  0  0  0  0  0  0
    8.2383   -2.1960    2.3491 C   0  0  0  0  0  0  0  0  0  0  0  0
    7.1874   -1.2775    2.3288 C   0  0  0  0  0  0  0  0  0  0  0  0
    7.4948    0.0944    2.2929 C   0  0  0  0  0  0  0  0  0  0  0  0
    0.5982    3.9207    0.3641 H   0  0  0  0  0  0  0  0  0  0  0  0
    0.5896    3.0931    1.9342 H   0  0  0  0  0  0  0  0  0  0  0  0
    0.6159    2.1461    0.4015 H   0  0  0  0  0  0  0  0  0  0  0  0
    4.7265    3.2275    1.9390 H   0  0  0  0  0  0  0  0  0  0  0  0
    4.8185    2.2458    0.4509 H   0  0  0  0  0  0  0  0  0  0  0  0
    4.9176    0.1766    1.8404 H   0  0  0  0  0  0  0  0  0  0  0  0
    4.9133    1.1395    3.3258 H   0  0  0  0  0  0  0  0  0  0  0  0
    6.9597    3.3127    2.2552 H   0  0  0  0  0  0  0  0  0  0  0  0
    8.6167    4.5490    2.6602 H   0  0  0  0  0  0  0  0  0  0  0  0
    9.9076    6.4838    4.7657 H   0  0  0  0  0  0  0  0  0  0  0  0
    8.7502    6.6966    3.4591 H   0  0  0  0  0  0  0  0  0  0  0  0
   10.2729    7.6072    3.4401 H   0  0  0  0  0  0  0  0  0  0  0  0
   11.9311    5.3199    4.5596 H   0  0  0  0  0  0  0  0  0  0  0  0
   12.5709    6.1312    3.1284 H   0  0  0  0  0  0  0  0  0  0  0  0
   12.3855    4.3724    3.1540 H   0  0  0  0  0  0  0  0  0  0  0  0
   12.2748    4.5780    1.0227 H   0  0  0  0  0  0  0  0  0  0  0  0
   11.8942    6.0960    0.2256 H   0  0  0  0  0  0  0  0  0  0  0  0
   11.1854    4.5837   -0.3627 H   0  0  0  0  0  0  0  0  0  0  0  0
    8.3023    6.3513    1.2567 H   0  0  0  0  0  0  0  0  0  0  0  0
    8.9718    5.7568   -0.2574 H   0  0  0  0  0  0  0  0  0  0  0  0
    9.6300    7.2335    0.4778 H   0  0  0  0  0  0  0  0  0  0  0  0
   10.8948   -0.0710    2.3206 H   0  0  0  0  0  0  0  0  0  0  0  0
   10.3669   -2.4874    2.3539 H   0  0  0  0  0  0  0  0  0  0  0  0
    8.0195   -3.2607    2.3727 H   0  0  0  0  0  0  0  0  0  0  0  0
    6.1609   -1.6332    2.3405 H   0  0  0  0  0  0  0  0  0  0  0  0
  1  2  1  0  0  0  0
  1 25  1  0  0  0  0
  1 26  1  0  0  0  0
  1 27  1  0  0  0  0
  2  3  1  0  0  0  0
  3  4  2  0  0  0  0
  3  5  1  0  0  0  0
  5  6  1  0  0  0  0
  5 28  1  0  0  0  0
  5 29  1  0  0  0  0
  6  7  1  0  0  0  0
  6 30  1  0  0  0  0
  6 31  1  0  0  0  0
  7 24  1  0  0  0  0
  7  8  1  0  0  0  0
  8  9  2  0  0  0  0
  8 32  1  0  0  0  0
  9 10  1  0  0  0  0
  9 19  1  0  0  0  0
 10 11  2  0  0  0  0
 10 12  1  0  0  0  0
 12 16  1  0  0  0  0
 12 13  1  0  0  0  0
 12 33  1  0  0  0  0
 13 14  1  0  0  0  0
 13 15  1  0  0  0  0
 13 16  1  0  0  0  0
 14 34  1  0  0  0  0
 14 35  1  0  0  0  0
 14 36  1  0  0  0  0
 15 37  1  0  0  0  0
 15 38  1  0  0  0  0
 15 39  1  0  0  0  0
 16 17  1  0  0  0  0
 16 18  1  0  0  0  0
 17 40  1  0  0  0  0
 17 41  1  0  0  0  0
 17 42  1  0  0  0  0
 18 43  1  0  0  0  0
 18 44  1  0  0  0  0
 18 45  1  0  0  0  0
 19 24  2  0  0  0  0
 19 20  1  0  0  0  0
 20 21  2  0  0  0  0
 20 46  1  0  0  0  0
 21 22  1  0  0  0  0
 21 47  1  0  0  0  0
 22 23  2  0  0  0  0
 22 48  1  0  0  0  0
 23 24  1  0  0  0  0
 23 49  1  0  0  0  0
M  END
$$$$
CHEMBL1668514
 OpenBabel12022418103D

 56 57  0  0  0  0  0  0  0  0999 V2000
    2.2744    2.6682    3.7112 C   0  0  0  0  0  0  0  0  0  0  0  0
    2.4034    1.1656    3.4753 C   0  0  0  0  0  0  0  0  0  0  0  0
    3.5232    0.4696    4.2889 C   0  0  0  0  0  0  0  0  0  0  0  0
    3.2508    0.6023    5.8009 C   0  0  0  0  0  0  0  0  0  0  0  0
    3.5364   -1.0343    3.9556 C   0  0  0  0  0  0  0  0  0  0  0  0
    4.9068    1.0736    3.9471 C   0  0  0  0  0  0  0  0  0  0  0  0
    5.6137    1.5753    4.8265 O   0  0  0  0  0  0  0  0  0  0  0  0
    5.3352    1.1003    2.4823 C   0  0  0  0  0  0  0  0  0  0  0  0
    6.8269    0.9964    2.2703 C   0  0  0  0  0  0  0  0  0  0  0  0
    7.6141    2.1468    2.1753 C   0  0  0  0  0  0  0  0  0  0  0  0
    9.0068    2.0759    1.9766 C   0  0  0  0  0  0  0  0  0  0  0  0
    9.7739    3.3683    1.8741 C   0  0  0  0  0  0  0  0  0  0  0  0
    9.6428    0.8160    1.8862 C   0  0  0  0  0  0  0  0  0  0  0  0
   11.1368    0.7154    1.7012 C   0  0  0  0  0  0  0  0  0  0  0  0
    8.8394   -0.3420    1.9812 C   0  0  0  0  0  0  0  0  0  0  0  0
    7.4497   -0.2512    2.1805 C   0  0  0  0  0  0  0  0  0  0  0  0
    9.5353   -1.9863    1.8320 S   0  0  0  0  0  0  0  0  0  0  0  0
   10.5452   -2.1385    2.8554 O   0  0  0  0  0  0  0  0  0  0  0  0
    8.4384   -2.9317    1.7317 O   0  0  0  0  0  0  0  0  0  0  0  0
   10.3076   -1.9767    0.2897 N   0  0  0  0  0  0  0  0  0  0  0  0
   11.1485   -3.1949    0.0922 C   0  0  0  0  0  0  0  0  0  0  0  0
   11.8949   -3.1437   -1.2367 C   0  0  0  0  0  0  0  0  0  0  0  0
   10.9357   -2.9234   -2.3982 C   0  0  0  0  0  0  0  0  0  0  0  0
   10.1460   -1.6449   -2.1665 C   0  0  0  0  0  0  0  0  0  0  0  0
    9.3827   -1.7047   -0.8471 C   0  0  0  0  0  0  0  0  0  0  0  0
    1.4820    3.0760    3.0738 H   0  0  0  0  0  0  0  0  0  0  0  0
    3.1997    3.1962    3.4674 H   0  0  0  0  0  0  0  0  0  0  0  0
    2.0080    2.8944    4.7465 H   0  0  0  0  0  0  0  0  0  0  0  0
    2.5622    1.0028    2.4028 H   0  0  0  0  0  0  0  0  0  0  0  0
    1.4388    0.6997    3.7129 H   0  0  0  0  0  0  0  0  0  0  0  0
    2.2687    0.1957    6.0635 H   0  0  0  0  0  0  0  0  0  0  0  0
    3.2840    1.6445    6.1344 H   0  0  0  0  0  0  0  0  0  0  0  0
    4.0029    0.0601    6.3863 H   0  0  0  0  0  0  0  0  0  0  0  0
    2.5858   -1.5064    4.2239 H   0  0  0  0  0  0  0  0  0  0  0  0
    4.3354   -1.5507    4.5011 H   0  0  0  0  0  0  0  0  0  0  0  0
    3.6993   -1.2234    2.8910 H   0  0  0  0  0  0  0  0  0  0  0  0
    4.9588    2.0315    2.0422 H   0  0  0  0  0  0  0  0  0  0  0  0
    4.8559    0.2889    1.9284 H   0  0  0  0  0  0  0  0  0  0  0  0
    7.1367    3.1232    2.2684 H   0  0  0  0  0  0  0  0  0  0  0  0
    9.1155    4.2393    1.9613 H   0  0  0  0  0  0  0  0  0  0  0  0
   10.2713    3.4334    0.9010 H   0  0  0  0  0  0  0  0  0  0  0  0
   10.5149    3.4375    2.6771 H   0  0  0  0  0  0  0  0  0  0  0  0
   11.6324    1.6885    1.6720 H   0  0  0  0  0  0  0  0  0  0  0  0
   11.3803    0.2297    0.7536 H   0  0  0  0  0  0  0  0  0  0  0  0
   11.5892    0.1672    2.5320 H   0  0  0  0  0  0  0  0  0  0  0  0
    6.8548   -1.1541    2.2644 H   0  0  0  0  0  0  0  0  0  0  0  0
   10.5253   -4.0952    0.1400 H   0  0  0  0  0  0  0  0  0  0  0  0
   11.8957   -3.2497    0.8928 H   0  0  0  0  0  0  0  0  0  0  0  0
   12.4509   -4.0753   -1.3855 H   0  0  0  0  0  0  0  0  0  0  0  0
   12.6312   -2.3292   -1.2155 H   0  0  0  0  0  0  0  0  0  0  0  0
   10.2517   -3.7761   -2.4860 H   0  0  0  0  0  0  0  0  0  0  0  0
   11.4938   -2.8553   -3.3387 H   0  0  0  0  0  0  0  0  0  0  0  0
    9.4439   -1.4849   -2.9919 H   0  0  0  0  0  0  0  0  0  0  0  0
   10.8331   -0.7891   -2.1574 H   0  0  0  0  0  0  0  0  0  0  0  0
    8.9044   -0.7307   -0.7031 H   0  0  0  0  0  0  0  0  0  0  0  0
    8.6009   -2.4699   -0.8975 H   0  0  0  0  0  0  0  0  0  0  0  0
  1  2  1  0  0  0  0
  1 26  1  0  0  0  0
  1 27  1  0  0  0  0
  1 28  1  0  0  0  0
  2  3  1  0  0  0  0
  2 29  1  0  0  0  0
  2 30  1  0  0  0  0
  3  4  1  0  0  0  0
  3  5  1  0  0  0  0
  3  6  1  0  0  0  0
  4 31  1  0  0  0  0
  4 32  1  0  0  0  0
  4 33  1  0  0  0  0
  5 34  1  0  0  0  0
  5 35  1  0  0  0  0
  5 36  1  0  0  0  0
  6  7  2  0  0  0  0
  6  8  1  0  0  0  0
  8  9  1  0  0  0  0
  8 37  1  0  0  0  0
  8 38  1  0  0  0  0
  9 16  2  0  0  0  0
  9 10  1  0  0  0  0
 10 11  2  0  0  0  0
 10 39  1  0  0  0  0
 11 12  1  0  0  0  0
 11 13  1  0  0  0  0
 12 40  1  0  0  0  0
 12 41  1  0  0  0  0
 12 42  1  0  0  0  0
 13 14  1  0  0  0  0
 13 15  2  0  0  0  0
 14 43  1  0  0  0  0
 14 44  1  0  0  0  0
 14 45  1  0  0  0  0
 15 16  1  0  0  0  0
 15 17  1  0  0  0  0
 16 46  1  0  0  0  0
 17 18  2  0  0  0  0
 17 19  2  0  0  0  0
 17 20  1  0  0  0  0
 20 25  1  0  0  0  0
 20 21  1  0  0  0  0
 21 22  1  0  0  0  0
 21 47  1  0  0  0  0
 21 48  1  0  0  0  0
 22 23  1  0  0  0  0
 22 49  1  0  0  0  0
 22 50  1  0  0  0  0
 23 24  1  0  0  0  0
 23 51  1  0  0  0  0
 23 52  1  0  0  0  0
 24 25  1  0  0  0  0
 24 53  1  0  0  0  0
 24 54  1  0  0  0  0
 25 55  1  0  0  0  0
 25 56  1  0  0  0  0
M  END
$$$$
CHEMBL399346
 OpenBabel12022418103D

 62 66  0  0  1  0  0  0  0  0999 V2000
   -2.3683    6.1447    6.5045 C   0  0  0  0  0  0  0  0  0  0  0  0
   -0.9795    6.2144    6.3947 C   0  0  0  0  0  0  0  0  0  0  0  0
   -0.2952    5.6836    5.2949 C   0  0  0  0  0  0  0  0  0  0  0  0
   -1.0323    4.9804    4.3303 C   0  0  0  0  0  0  0  0  0  0  0  0
   -2.4259    4.7909    4.4770 C   0  0  0  0  0  0  0  0  0  0  0  0
   -3.0948    5.3968    5.5609 C   0  0  0  0  0  0  0  0  0  0  0  0
   -2.8184    3.9630    3.4132 C   0  0  0  0  0  0  0  0  0  0  0  0
   -1.7557    3.7966    2.5782 C   0  0  0  0  0  0  0  0  0  0  0  0
   -2.1004    3.0765    1.3524 C   0  0  0  0  0  0  0  0  0  0  0  0
   -3.4364    2.4846    1.7251 N   0  0  2  0  0  0  0  0  0  0  0  0
   -3.9981    3.2579    2.8863 C   0  0  0  0  0  0  0  0  0  0  0  0
   -3.3902    1.0087    1.8313 C   0  0  1  0  0  0  0  0  0  0  0  0
   -2.1637    0.3271    2.4697 C   0  0  0  0  0  0  0  0  0  0  0  0
   -2.5480   -0.2814    3.7052 O   0  0  0  0  0  0  0  0  0  0  0  0
   -3.9489   -0.0889    3.8921 C   0  0  0  0  0  0  0  0  0  0  0  0
   -4.5359    0.3146    2.5551 C   0  0  0  0  0  0  0  0  0  0  0  0
   -0.6611    4.3564    3.1423 N   0  0  0  0  0  0  0  0  0  0  0  0
    0.9258    4.2143    2.5587 S   0  0  0  0  0  0  0  0  0  0  0  0
    0.8247    3.4983    1.2995 O   0  0  0  0  0  0  0  0  0  0  0  0
    1.4465    5.5690    2.5963 O   0  0  0  0  0  0  0  0  0  0  0  0
    1.8867    3.2307    3.6874 C   0  0  0  0  0  0  0  0  0  0  0  0
    1.3502    1.8332    3.9037 C   0  0  0  0  0  0  0  0  0  0  0  0
   -3.1020    6.7339    7.6661 C   0  0  0  0  0  0  0  0  0  0  0  0
   -4.0783    6.1072    8.0807 O   0  0  0  0  0  0  0  0  0  0  0  0
   -2.6671    7.9157    8.2720 N   0  0  0  0  0  0  0  0  0  0  0  0
   -1.7893    8.9350    7.6982 C   0  0  0  0  0  0  0  0  0  0  0  0
   -0.5946    9.1810    8.6214 C   0  0  0  0  0  0  0  0  0  0  0  0
   -1.0352    9.4998   10.0619 C   0  0  1  0  0  0  0  0  0  0  0  0
   -2.0756    8.4860   10.5719 C   0  0  0  0  0  0  0  0  0  0  0  0
   -3.2161    8.2842    9.5742 C   0  0  0  0  0  0  0  0  0  0  0  0
    0.1764    9.5303   10.9935 C   0  0  0  0  0  0  0  0  0  0  0  0
   -0.3936    6.6914    7.1733 H   0  0  0  0  0  0  0  0  0  0  0  0
    0.7783    5.8284    5.2092 H   0  0  0  0  0  0  0  0  0  0  0  0
   -4.1735    5.2836    5.6700 H   0  0  0  0  0  0  0  0  0  0  0  0
   -1.3733    2.3338    1.0203 H   0  0  0  0  0  0  0  0  0  0  0  0
   -2.2555    3.7837    0.5302 H   0  0  0  0  0  0  0  0  0  0  0  0
   -4.7339    3.9763    2.5057 H   0  0  0  0  0  0  0  0  0  0  0  0
   -4.4753    2.6499    3.6539 H   0  0  0  0  0  0  0  0  0  0  0  0
   -3.4227    0.6870    0.7813 H   0  0  0  0  0  0  0  0  0  0  0  0
   -1.3173    0.9839    2.6703 H   0  0  0  0  0  0  0  0  0  0  0  0
   -1.7979   -0.4693    1.8103 H   0  0  0  0  0  0  0  0  0  0  0  0
   -4.0804    0.6847    4.6537 H   0  0  0  0  0  0  0  0  0  0  0  0
   -4.3869   -1.0166    4.2719 H   0  0  0  0  0  0  0  0  0  0  0  0
   -4.8035   -0.5938    1.9998 H   0  0  0  0  0  0  0  0  0  0  0  0
   -5.4561    0.8975    2.6514 H   0  0  0  0  0  0  0  0  0  0  0  0
    1.9563    3.7696    4.6354 H   0  0  0  0  0  0  0  0  0  0  0  0
    2.8940    3.1773    3.2600 H   0  0  0  0  0  0  0  0  0  0  0  0
    0.3578    1.8539    4.3653 H   0  0  0  0  0  0  0  0  0  0  0  0
    2.0177    1.2750    4.5663 H   0  0  0  0  0  0  0  0  0  0  0  0
    1.2756    1.2834    2.9602 H   0  0  0  0  0  0  0  0  0  0  0  0
   -2.3798    9.8548    7.6021 H   0  0  0  0  0  0  0  0  0  0  0  0
   -1.4661    8.6822    6.6875 H   0  0  0  0  0  0  0  0  0  0  0  0
    0.0096   10.0060    8.2259 H   0  0  0  0  0  0  0  0  0  0  0  0
    0.0498    8.2943    8.6338 H   0  0  0  0  0  0  0  0  0  0  0  0
   -1.4959   10.4963   10.0655 H   0  0  0  0  0  0  0  0  0  0  0  0
   -2.4828    8.8218   11.5328 H   0  0  0  0  0  0  0  0  0  0  0  0
   -1.5873    7.5190   10.7505 H   0  0  0  0  0  0  0  0  0  0  0  0
   -3.9013    7.5202    9.9539 H   0  0  0  0  0  0  0  0  0  0  0  0
   -3.7906    9.2102    9.4507 H   0  0  0  0  0  0  0  0  0  0  0  0
    0.6626    8.5491   11.0451 H   0  0  0  0  0  0  0  0  0  0  0  0
   -0.1189    9.8110   12.0103 H   0  0  0  0  0  0  0  0  0  0  0  0
    0.9207   10.2547   10.6460 H   0  0  0  0  0  0  0  0  0  0  0  0
  1  6  2  0  0  0  0
  1  2  1  0  0  0  0
  1 23  1  0  0  0  0
  2  3  2  0  0  0  0
  2 32  1  0  0  0  0
  3  4  1  0  0  0  0
  3 33  1  0  0  0  0
  4 17  1  0  0  0  0
  4  5  2  0  0  0  0
  5  6  1  0  0  0  0
  5  7  1  0  0  0  0
  6 34  1  0  0  0  0
  7 11  1  0  0  0  0
  7  8  2  0  0  0  0
  8  9  1  0  0  0  0
  8 17  1  0  0  0  0
  9 35  1  0  0  0  0
  9 36  1  0  0  0  0
 10  9  1  1  0  0  0
 10 11  1  0  0  0  0
 11 37  1  0  0  0  0
 11 38  1  0  0  0  0
 12 13  1  0  0  0  0
 12 16  1  0  0  0  0
 12 10  1  0  0  0  0
 12 39  1  6  0  0  0
 13 14  1  0  0  0  0
 13 40  1  0  0  0  0
 13 41  1  0  0  0  0
 14 15  1  0  0  0  0
 15 16  1  0  0  0  0
 15 42  1  0  0  0  0
 15 43  1  0  0  0  0
 16 44  1  0  0  0  0
 16 45  1  0  0  0  0
 17 18  1  0  0  0  0
 18 19  2  0  0  0  0
 18 20  2  0  0  0  0
 18 21  1  0  0  0  0
 21 22  1  0  0  0  0
 21 46  1  0  0  0  0
 21 47  1  0  0  0  0
 22 48  1  0  0  0  0
 22 49  1  0  0  0  0
 22 50  1  0  0  0  0
 23 24  2  0  0  0  0
 23 25  1  0  0  0  0
 25 30  1  0  0  0  0
 25 26  1  0  0  0  0
 26 27  1  0  0  0  0
 26 51  1  0  0  0  0
 26 52  1  0  0  0  0
 27 28  1  0  0  0  0
 27 53  1  0  0  0  0
 27 54  1  0  0  0  0
 28 29  1  0  0  0  0
 28 31  1  0  0  0  0
 28 55  1  1  0  0  0
 29 30  1  0  0  0  0
 29 56  1  0  0  0  0
 29 57  1  0  0  0  0
 30 58  1  0  0  0  0
 30 59  1  0  0  0  0
 31 60  1  0  0  0  0
 31 61  1  0  0  0  0
 31 62  1  0  0  0  0
M  END
$$$$
CHEMBL564543
 OpenBabel12022418103D

 53 56  0  0  0  0  0  0  0  0999 V2000
    0.8311    4.4480   -3.0300 C   0  0  0  0  0  0  0  0  0  0  0  0
    2.3558    4.4908   -3.0325 C   0  0  0  0  0  0  0  0  0  0  0  0
    2.9975    3.1507   -2.6307 C   0  0  0  0  0  0  0  0  0  0  0  0
    4.5468    3.2443   -2.6229 C   0  0  0  0  0  0  0  0  0  0  0  0
    5.2386    1.9447   -2.1635 C   0  0  0  0  0  0  0  0  0  0  0  0
    6.7144    1.9482   -2.0940 N   0  0  0  0  0  0  0  0  0  0  0  0
    7.4850    2.5880   -1.1438 C   0  0  0  0  0  0  0  0  0  0  0  0
    8.8389    2.1452   -1.1149 C   0  0  0  0  0  0  0  0  0  0  0  0
    9.6805    2.5239    0.1803 C   0  0  0  0  0  0  0  0  0  0  0  0
    8.9531    2.8375    1.1381 O   0  0  0  0  0  0  0  0  0  0  0  0
   11.2879    2.6819    0.6410 C   0  0  0  0  0  0  0  0  0  0  0  0
   12.1446    2.8441   -0.3876 C   0  0  0  0  0  0  0  0  0  0  0  0
   12.2061    4.1936   -0.7336 C   0  0  0  0  0  0  0  0  0  0  0  0
   11.2131    5.0566   -0.0957 C   0  0  0  0  0  0  0  0  0  0  0  0
   10.7853    4.8277    1.2317 C   0  0  0  0  0  0  0  0  0  0  0  0
   10.0780    5.7767    2.0459 C   0  0  0  0  0  0  0  0  0  0  0  0
   10.7390    6.3352    3.1375 C   0  0  0  0  0  0  0  0  0  0  0  0
   12.0105    5.8518    3.3652 C   0  0  0  0  0  0  0  0  0  0  0  0
   12.3891    4.6079    2.7259 C   0  0  0  0  0  0  0  0  0  0  0  0
   11.4743    3.8358    1.7428 C   0  0  0  0  0  0  0  0  0  0  0  0
   12.6726    1.9329   -1.2454 O   0  0  0  0  0  0  0  0  0  0  0  0
   13.8039    1.2109   -0.7376 C   0  0  0  0  0  0  0  0  0  0  0  0
    8.8827    1.3383   -2.3631 C   0  0  0  0  0  0  0  0  0  0  0  0
    9.8694    0.6792   -3.1447 C   0  0  0  0  0  0  0  0  0  0  0  0
    9.5197   -0.1522   -4.2491 C   0  0  0  0  0  0  0  0  0  0  0  0
    8.1991   -0.4002   -4.5961 C   0  0  0  0  0  0  0  0  0  0  0  0
    7.2000    0.2606   -3.9045 C   0  0  0  0  0  0  0  0  0  0  0  0
    7.5452    1.1478   -2.8449 C   0  0  0  0  0  0  0  0  0  0  0  0
    0.4123    5.4196   -3.3197 H   0  0  0  0  0  0  0  0  0  0  0  0
    0.4440    4.2078   -2.0349 H   0  0  0  0  0  0  0  0  0  0  0  0
    0.4612    3.7024   -3.7403 H   0  0  0  0  0  0  0  0  0  0  0  0
    2.6841    5.2770   -2.3429 H   0  0  0  0  0  0  0  0  0  0  0  0
    2.6942    4.7744   -4.0357 H   0  0  0  0  0  0  0  0  0  0  0  0
    2.6666    2.3705   -3.3289 H   0  0  0  0  0  0  0  0  0  0  0  0
    2.6333    2.8610   -1.6370 H   0  0  0  0  0  0  0  0  0  0  0  0
    4.8424    4.0644   -1.9620 H   0  0  0  0  0  0  0  0  0  0  0  0
    4.8809    3.5029   -3.6348 H   0  0  0  0  0  0  0  0  0  0  0  0
    4.9182    1.1396   -2.8361 H   0  0  0  0  0  0  0  0  0  0  0  0
    4.8859    1.6580   -1.1659 H   0  0  0  0  0  0  0  0  0  0  0  0
    6.9931    3.2915   -0.4887 H   0  0  0  0  0  0  0  0  0  0  0  0
   13.2601    4.5650   -0.7219 H   0  0  0  0  0  0  0  0  0  0  0  0
   10.6230    5.6734   -0.7460 H   0  0  0  0  0  0  0  0  0  0  0  0
    9.0977    6.1058    1.7358 H   0  0  0  0  0  0  0  0  0  0  0  0
   10.3088    7.1812    3.6620 H   0  0  0  0  0  0  0  0  0  0  0  0
   12.6791    6.4579    3.9832 H   0  0  0  0  0  0  0  0  0  0  0  0
   13.4431    4.3420    2.8681 H   0  0  0  0  0  0  0  0  0  0  0  0
   14.3742    0.8156   -1.5919 H   0  0  0  0  0  0  0  0  0  0  0  0
   13.4755    0.3507   -0.1460 H   0  0  0  0  0  0  0  0  0  0  0  0
   14.4938    1.8344   -0.1564 H   0  0  0  0  0  0  0  0  0  0  0  0
   10.9212    0.8383   -2.9390 H   0  0  0  0  0  0  0  0  0  0  0  0
   10.3008   -0.6221   -4.8404 H   0  0  0  0  0  0  0  0  0  0  0  0
    7.9511   -1.0814   -5.4151 H   0  0  0  0  0  0  0  0  0  0  0  0
    6.1657    0.0987   -4.1980 H   0  0  0  0  0  0  0  0  0  0  0  0
  1  2  1  0  0  0  0
  1 29  1  0  0  0  0
  1 30  1  0  0  0  0
  1 31  1  0  0  0  0
  2  3  1  0  0  0  0
  2 32  1  0  0  0  0
  2 33  1  0  0  0  0
  3  4  1  0  0  0  0
  3 34  1  0  0  0  0
  3 35  1  0  0  0  0
  4  5  1  0  0  0  0
  4 36  1  0  0  0  0
  4 37  1  0  0  0  0
  5  6  1  0  0  0  0
  5 38  1  0  0  0  0
  5 39  1  0  0  0  0
  6 28  1  0  0  0  0
  6  7  1  0  0  0  0
  7  8  2  0  0  0  0
  7 40  1  0  0  0  0
  8  9  1  0  0  0  0
  8 23  1  0  0  0  0
  9 10  2  0  0  0  0
  9 11  1  0  0  0  0
 11 20  2  0  0  0  0
 11 12  1  0  0  0  0
 12 13  2  0  0  0  0
 12 21  1  0  0  0  0
 13 14  1  0  0  0  0
 13 41  1  0  0  0  0
 14 15  2  0  0  0  0
 14 42  1  0  0  0  0
 15 20  1  0  0  0  0
 15 16  1  0  0  0  0
 16 17  2  0  0  0  0
 16 43  1  0  0  0  0
 17 18  1  0  0  0  0
 17 44  1  0  0  0  0
 18 19  2  0  0  0  0
 18 45  1  0  0  0  0
 19 20  1  0  0  0  0
 19 46  1  0  0  0  0
 21 22  1  0  0  0  0
 22 47  1  0  0  0  0
 22 48  1  0  0  0  0
 22 49  1  0  0  0  0
 23 28  2  0  0  0  0
 23 24  1  0  0  0  0
 24 25  2  0  0  0  0
 24 50  1  0  0  0  0
 25 26  1  0  0  0  0
 25 51  1  0  0  0  0
 26 27  2  0  0  0  0
 26 52  1  0  0  0  0
 27 28  1  0  0  0  0
 27 53  1  0  0  0  0
M  END
$$$$
CHEMBL256753
 OpenBabel12022418103D

 57 60  0  0  1  0  0  0  0  0999 V2000
   -2.2058    1.7684    1.9306 C   0  0  0  0  0  0  0  0  0  0  0  0
   -1.2482    0.6106    1.5811 C   0  0  0  0  0  0  0  0  0  0  0  0
   -2.1142   -0.5062    0.9693 C   0  0  0  0  0  0  0  0  0  0  0  0
   -0.4627    0.1565    2.8621 C   0  0  1  0  0  0  0  0  0  0  0  0
    0.1718   -1.2291    2.6768 C   0  0  0  0  0  0  0  0  0  0  0  0
    1.2124   -0.9707    1.5868 C   0  0  0  0  0  0  0  0  0  0  0  0
    1.1898    0.5712    1.4101 C   0  0  2  0  0  0  0  0  0  0  0  0
    2.5068    1.0293    0.8036 C   0  0  0  0  0  0  0  0  0  0  0  0
    0.8091    1.0289    2.8263 C   0  0  0  0  0  0  0  0  0  0  0  0
   -0.0776    0.9923    0.6030 C   0  0  2  0  0  0  0  0  0  0  0  0
   -0.0416    2.4129    0.2666 N   0  0  0  0  0  0  0  0  0  0  0  0
   -0.7619    2.9407   -0.7919 C   0  0  0  0  0  0  0  0  0  0  0  0
   -1.3804    2.2705   -1.5900 O   0  0  0  0  0  0  0  0  0  0  0  0
   -0.7057    4.4185   -0.9404 C   0  0  0  0  0  0  0  0  0  0  0  0
   -0.8696    4.9874   -2.2086 C   0  0  0  0  0  0  0  0  0  0  0  0
   -0.6180    6.3467   -2.3899 C   0  0  0  0  0  0  0  0  0  0  0  0
   -0.1662    7.1029   -1.3031 C   0  0  0  0  0  0  0  0  0  0  0  0
   -0.3426    6.6151   -0.0036 C   0  0  0  0  0  0  0  0  0  0  0  0
   -0.5254    5.2448    0.1676 C   0  0  0  0  0  0  0  0  0  0  0  0
   -0.3092    7.6285    1.4606 S   0  0  0  0  0  0  0  0  0  0  0  0
    0.2269    6.7973    2.5188 O   0  0  0  0  0  0  0  0  0  0  0  0
    0.2994    8.8968    1.1356 O   0  0  0  0  0  0  0  0  0  0  0  0
   -1.9428    7.9399    1.8246 N   0  0  0  0  0  0  0  0  0  0  0  0
   -2.8578    6.8748    2.2763 C   0  0  0  0  0  0  0  0  0  0  0  0
   -3.7573    6.6622    1.0767 C   0  0  0  0  0  0  0  0  0  0  0  0
   -3.9694    8.0832    0.5592 C   0  0  0  0  0  0  0  0  0  0  0  0
   -2.7203    8.8571    0.9607 C   0  0  0  0  0  0  0  0  0  0  0  0
    1.3657    8.1752   -1.7250 Br  0  0  0  0  0  0  0  0  0  0  0  0
   -2.7541    2.1100    1.0447 H   0  0  0  0  0  0  0  0  0  0  0  0
   -1.6883    2.6300    2.3623 H   0  0  0  0  0  0  0  0  0  0  0  0
   -2.9562    1.4406    2.6602 H   0  0  0  0  0  0  0  0  0  0  0  0
   -2.6889   -0.1308    0.1153 H   0  0  0  0  0  0  0  0  0  0  0  0
   -2.8214   -0.9004    1.7070 H   0  0  0  0  0  0  0  0  0  0  0  0
   -1.5173   -1.3425    0.5928 H   0  0  0  0  0  0  0  0  0  0  0  0
   -1.0419    0.2300    3.7868 H   0  0  0  0  0  0  0  0  0  0  0  0
   -0.5285   -2.0259    2.4183 H   0  0  0  0  0  0  0  0  0  0  0  0
    0.6755   -1.5381    3.6017 H   0  0  0  0  0  0  0  0  0  0  0  0
    0.9737   -1.4888    0.6528 H   0  0  0  0  0  0  0  0  0  0  0  0
    2.1930   -1.3237    1.9268 H   0  0  0  0  0  0  0  0  0  0  0  0
    3.3567    0.7295    1.4256 H   0  0  0  0  0  0  0  0  0  0  0  0
    2.5677    2.1102    0.6564 H   0  0  0  0  0  0  0  0  0  0  0  0
    2.6411    0.5538   -0.1771 H   0  0  0  0  0  0  0  0  0  0  0  0
    1.5432    0.7407    3.5882 H   0  0  0  0  0  0  0  0  0  0  0  0
    0.5957    2.0971    2.9316 H   0  0  0  0  0  0  0  0  0  0  0  0
   -0.1370    0.4301   -0.3356 H   0  0  0  0  0  0  0  0  0  0  0  0
    0.5173    3.0202    0.8472 H   0  0  0  0  0  0  0  0  0  0  0  0
   -1.0862    4.3620   -3.0720 H   0  0  0  0  0  0  0  0  0  0  0  0
   -0.6242    6.7613   -3.3974 H   0  0  0  0  0  0  0  0  0  0  0  0
   -0.5136    4.8291    1.1719 H   0  0  0  0  0  0  0  0  0  0  0  0
   -3.4490    7.2647    3.1179 H   0  0  0  0  0  0  0  0  0  0  0  0
   -2.3597    5.9665    2.6180 H   0  0  0  0  0  0  0  0  0  0  0  0
   -4.6942    6.1522    1.3238 H   0  0  0  0  0  0  0  0  0  0  0  0
   -3.2445    6.0527    0.3188 H   0  0  0  0  0  0  0  0  0  0  0  0
   -4.8633    8.5194    1.0121 H   0  0  0  0  0  0  0  0  0  0  0  0
   -4.1211    8.0668   -0.5334 H   0  0  0  0  0  0  0  0  0  0  0  0
   -2.1626    9.2021    0.0898 H   0  0  0  0  0  0  0  0  0  0  0  0
   -3.0116    9.7319    1.5502 H   0  0  0  0  0  0  0  0  0  0  0  0
  1  2  1  0  0  0  0
  1 29  1  0  0  0  0
  1 30  1  0  0  0  0
  1 31  1  0  0  0  0
  2 10  1  0  0  0  0
  2  3  1  0  0  0  0
  2  4  1  0  0  0  0
  3 32  1  0  0  0  0
  3 33  1  0  0  0  0
  3 34  1  0  0  0  0
  4  5  1  0  0  0  0
  4  9  1  0  0  0  0
  4 35  1  1  0  0  0
  5  6  1  0  0  0  0
  5 36  1  0  0  0  0
  5 37  1  0  0  0  0
  6  7  1  0  0  0  0
  6 38  1  0  0  0  0
  6 39  1  0  0  0  0
  7  8  1  6  0  0  0
  7  9  1  0  0  0  0
  7 10  1  0  0  0  0
  8 40  1  0  0  0  0
  8 41  1  0  0  0  0
  8 42  1  0  0  0  0
  9 43  1  0  0  0  0
  9 44  1  0  0  0  0
 10 11  1  0  0  0  0
 10 45  1  6  0  0  0
 11 12  1  0  0  0  0
 11 46  1  0  0  0  0
 12 13  2  0  0  0  0
 12 14  1  0  0  0  0
 14 19  2  0  0  0  0
 14 15  1  0  0  0  0
 15 16  2  0  0  0  0
 15 47  1  0  0  0  0
 16 17  1  0  0  0  0
 16 48  1  0  0  0  0
 17 18  2  0  0  0  0
 17 28  1  0  0  0  0
 18 19  1  0  0  0  0
 18 20  1  0  0  0  0
 19 49  1  0  0  0  0
 20 21  2  0  0  0  0
 20 22  2  0  0  0  0
 20 23  1  0  0  0  0
 23 27  1  0  0  0  0
 23 24  1  0  0  0  0
 24 25  1  0  0  0  0
 24 50  1  0  0  0  0
 24 51  1  0  0  0  0
 25 26  1  0  0  0  0
 25 52  1  0  0  0  0
 25 53  1  0  0  0  0
 26 27  1  0  0  0  0
 26 54  1  0  0  0  0
 26 55  1  0  0  0  0
 27 56  1  0  0  0  0
 27 57  1  0  0  0  0
M  END
$$$$
CHEMBL562489
 OpenBabel12022418103D

 58 61  0  0  0  0  0  0  0  0999 V2000
    0.9052   -1.0476   -1.5497 C   0  0  0  0  0  0  0  0  0  0  0  0
    2.1388   -0.5853   -1.1043 C   0  0  0  0  0  0  0  0  0  0  0  0
    2.2269    0.6627   -0.5026 C   0  0  0  0  0  0  0  0  0  0  0  0
    1.0986    1.4957   -0.4075 C   0  0  0  0  0  0  0  0  0  0  0  0
   -0.1805    1.0301   -0.8530 C   0  0  0  0  0  0  0  0  0  0  0  0
   -0.2552   -0.2738   -1.4049 C   0  0  0  0  0  0  0  0  0  0  0  0
   -1.4956   -0.8025   -1.8021 C   0  0  0  0  0  0  0  0  0  0  0  0
   -2.6750   -0.0690   -1.6697 C   0  0  0  0  0  0  0  0  0  0  0  0
   -2.6349    1.2290   -1.1705 C   0  0  0  0  0  0  0  0  0  0  0  0
   -1.3968    1.7633   -0.7809 C   0  0  0  0  0  0  0  0  0  0  0  0
   -3.8925    2.0467   -1.0150 C   0  0  0  0  0  0  0  0  0  0  0  0
   -4.5060    1.9096    0.3711 C   0  0  0  0  0  0  0  0  0  0  0  0
    1.2561    2.8328    0.2461 C   0  0  0  0  0  0  0  0  0  0  0  0
    0.3250    3.2672    0.9242 O   0  0  0  0  0  0  0  0  0  0  0  0
    2.5246    3.5770    0.1766 C   0  0  0  0  0  0  0  0  0  0  0  0
    3.4694    3.6436   -0.8460 C   0  0  0  0  0  0  0  0  0  0  0  0
    3.4614    3.0496   -2.2204 C   0  0  0  0  0  0  0  0  0  0  0  0
    4.5311    4.4301   -0.3971 N   0  0  0  0  0  0  0  0  0  0  0  0
    4.2154    4.9889    0.8322 C   0  0  0  0  0  0  0  0  0  0  0  0
    2.9768    4.4609    1.2114 C   0  0  0  0  0  0  0  0  0  0  0  0
    2.4152    4.8506    2.4522 C   0  0  0  0  0  0  0  0  0  0  0  0
    3.0871    5.7376    3.2904 C   0  0  0  0  0  0  0  0  0  0  0  0
    4.3120    6.2524    2.9040 C   0  0  0  0  0  0  0  0  0  0  0  0
    4.8833    5.9009    1.6755 C   0  0  0  0  0  0  0  0  0  0  0  0
    5.7256    4.6677   -1.1996 C   0  0  0  0  0  0  0  0  0  0  0  0
    7.0775    4.9033   -0.5246 C   0  0  0  0  0  0  0  0  0  0  0  0
    7.4976    3.8065    0.4555 C   0  0  0  0  0  0  0  0  0  0  0  0
    8.7948    4.2009    1.1634 C   0  0  0  0  0  0  0  0  0  0  0  0
    9.2552    3.1355    2.1429 C   0  0  0  0  0  0  0  0  0  0  0  0
    0.8534   -2.0370   -2.0005 H   0  0  0  0  0  0  0  0  0  0  0  0
    3.0262   -1.2035   -1.2113 H   0  0  0  0  0  0  0  0  0  0  0  0
    3.1915    0.9803   -0.1124 H   0  0  0  0  0  0  0  0  0  0  0  0
   -1.5569   -1.8111   -2.2062 H   0  0  0  0  0  0  0  0  0  0  0  0
   -3.6204   -0.5191   -1.9623 H   0  0  0  0  0  0  0  0  0  0  0  0
   -1.4021    2.7808   -0.3949 H   0  0  0  0  0  0  0  0  0  0  0  0
   -4.6251    1.7483   -1.7743 H   0  0  0  0  0  0  0  0  0  0  0  0
   -3.6663    3.1020   -1.2119 H   0  0  0  0  0  0  0  0  0  0  0  0
   -4.8062    0.8758    0.5723 H   0  0  0  0  0  0  0  0  0  0  0  0
   -5.3958    2.5425    0.4537 H   0  0  0  0  0  0  0  0  0  0  0  0
   -3.8024    2.2140    1.1535 H   0  0  0  0  0  0  0  0  0  0  0  0
    2.4850    2.6428   -2.4907 H   0  0  0  0  0  0  0  0  0  0  0  0
    4.1988    2.2419   -2.2898 H   0  0  0  0  0  0  0  0  0  0  0  0
    3.7020    3.8062   -2.9743 H   0  0  0  0  0  0  0  0  0  0  0  0
    1.4453    4.4636    2.7574 H   0  0  0  0  0  0  0  0  0  0  0  0
    2.6428    6.0236    4.2395 H   0  0  0  0  0  0  0  0  0  0  0  0
    4.8364    6.9410    3.5619 H   0  0  0  0  0  0  0  0  0  0  0  0
    5.8342    6.3423    1.4165 H   0  0  0  0  0  0  0  0  0  0  0  0
    5.4854    5.5189   -1.8475 H   0  0  0  0  0  0  0  0  0  0  0  0
    5.8566    3.7931   -1.8461 H   0  0  0  0  0  0  0  0  0  0  0  0
    7.1006    5.8850   -0.0471 H   0  0  0  0  0  0  0  0  0  0  0  0
    7.8362    4.9654   -1.3164 H   0  0  0  0  0  0  0  0  0  0  0  0
    7.6376    2.8641   -0.0875 H   0  0  0  0  0  0  0  0  0  0  0  0
    6.7205    3.6293    1.2060 H   0  0  0  0  0  0  0  0  0  0  0  0
    8.6460    5.1422    1.7063 H   0  0  0  0  0  0  0  0  0  0  0  0
    9.5837    4.3760    0.4229 H   0  0  0  0  0  0  0  0  0  0  0  0
    8.5049    2.9675    2.9220 H   0  0  0  0  0  0  0  0  0  0  0  0
   10.1844    3.4492    2.6290 H   0  0  0  0  0  0  0  0  0  0  0  0
    9.4419    2.1863    1.6315 H   0  0  0  0  0  0  0  0  0  0  0  0
  1  6  2  0  0  0  0
  1  2  1  0  0  0  0
  1 30  1  0  0  0  0
  2  3  2  0  0  0  0
  2 31  1  0  0  0  0
  3  4  1  0  0  0  0
  3 32  1  0  0  0  0
  4  5  2  0  0  0  0
  4 13  1  0  0  0  0
  5 10  1  0  0  0  0
  5  6  1  0  0  0  0
  6  7  1  0  0  0  0
  7  8  2  0  0  0  0
  7 33  1  0  0  0  0
  8  9  1  0  0  0  0
  8 34  1  0  0  0  0
  9 10  2  0  0  0  0
  9 11  1  0  0  0  0
 10 35  1  0  0  0  0
 11 12  1  0  0  0  0
 11 36  1  0  0  0  0
 11 37  1  0  0  0  0
 12 38  1  0  0  0  0
 12 39  1  0  0  0  0
 12 40  1  0  0  0  0
 13 14  2  0  0  0  0
 13 15  1  0  0  0  0
 15 20  1  0  0  0  0
 15 16  2  0  0  0  0
 16 17  1  0  0  0  0
 16 18  1  0  0  0  0
 17 41  1  0  0  0  0
 17 42  1  0  0  0  0
 17 43  1  0  0  0  0
 18 19  1  0  0  0  0
 18 25  1  0  0  0  0
 19 24  2  0  0  0  0
 19 20  1  0  0  0  0
 20 21  2  0  0  0  0
 21 22  1  0  0  0  0
 21 44  1  0  0  0  0
 22 23  2  0  0  0  0
 22 45  1  0  0  0  0
 23 24  1  0  0  0  0
 23 46  1  0  0  0  0
 24 47  1  0  0  0  0
 25 26  1  0  0  0  0
 25 48  1  0  0  0  0
 25 49  1  0  0  0  0
 26 27  1  0  0  0  0
 26 50  1  0  0  0  0
 26 51  1  0  0  0  0
 27 28  1  0  0  0  0
 27 52  1  0  0  0  0
 27 53  1  0  0  0  0
 28 29  1  0  0  0  0
 28 54  1  0  0  0  0
 28 55  1  0  0  0  0
 29 56  1  0  0  0  0
 29 57  1  0  0  0  0
 29 58  1  0  0  0  0
M  END
$$$$
CHEMBL1828812
 OpenBabel12022418103D

 48 51  0  0  0  0  0  0  0  0999 V2000
    2.0034   -0.1841    0.2204 C   0  0  0  0  0  0  0  0  0  0  0  0
    1.1695   -0.2567    1.1695 O   0  0  0  0  0  0  0  0  0  0  0  0
    0.7715    0.8567   -0.7158 C   0  0  0  0  0  0  0  0  0  0  0  0
   -0.8181    1.5152   -0.5218 C   0  0  0  0  0  0  0  0  0  0  0  0
   -1.7238    1.7105    0.5503 C   0  0  0  0  0  0  0  0  0  0  0  0
   -2.8652    2.4819    0.4757 N   0  0  0  0  0  0  0  0  0  0  0  0
   -3.1843    3.0683   -0.6804 C   0  0  0  0  0  0  0  0  0  0  0  0
   -2.4266    2.9444   -1.8013 C   0  0  0  0  0  0  0  0  0  0  0  0
   -1.2557    2.1588   -1.7218 C   0  0  0  0  0  0  0  0  0  0  0  0
   -0.3029    1.8475   -2.6693 N   0  0  0  0  0  0  0  0  0  0  0  0
    0.7004    1.0590   -2.0948 C   0  0  0  0  0  0  0  0  0  0  0  0
   -0.2871    2.2936   -4.0749 C   0  0  0  0  0  0  0  0  0  0  0  0
   -0.3221    1.1523   -5.0651 C   0  0  0  0  0  0  0  0  0  0  0  0
   -0.3057    1.6119   -6.4852 C   0  0  0  0  0  0  0  0  0  0  0  0
   -0.3443    0.4224   -7.4202 C   0  0  0  0  0  0  0  0  0  0  0  0
   -0.3271    0.9051   -8.8479 C   0  0  0  0  0  0  0  0  0  0  0  0
    3.9289   -1.0207    0.0964 C   0  0  0  0  0  0  0  0  0  0  0  0
    3.7551    0.0473   -0.5373 C   0  0  0  0  0  0  0  0  0  0  0  0
    4.6233   -0.7078   -0.2998 C   0  0  0  0  0  0  0  0  0  0  0  0
    5.8398   -0.2984   -0.9813 C   0  0  0  0  0  0  0  0  0  0  0  0
    6.7747   -1.1212   -0.7951 C   0  0  0  0  0  0  0  0  0  0  0  0
    8.1927   -0.8599   -1.5089 C   0  0  0  0  0  0  0  0  0  0  0  0
    9.2704   -1.6957   -1.6758 C   0  0  0  0  0  0  0  0  0  0  0  0
    9.0428   -2.7626   -0.8885 C   0  0  0  0  0  0  0  0  0  0  0  0
    7.5426   -2.7800   -0.0121 C   0  0  0  0  0  0  0  0  0  0  0  0
    5.9223   -1.8595   -0.0617 C   0  0  0  0  0  0  0  0  0  0  0  0
   -1.5067    1.2664    1.4980 H   0  0  0  0  0  0  0  0  0  0  0  0
   -4.0882    3.6646   -0.7307 H   0  0  0  0  0  0  0  0  0  0  0  0
   -2.7849    3.4707   -2.6722 H   0  0  0  0  0  0  0  0  0  0  0  0
    1.4782    0.6817   -2.6802 H   0  0  0  0  0  0  0  0  0  0  0  0
    0.6183    2.8871   -4.2414 H   0  0  0  0  0  0  0  0  0  0  0  0
   -1.1595    2.9379   -4.2418 H   0  0  0  0  0  0  0  0  0  0  0  0
   -1.2447    0.5779   -4.9004 H   0  0  0  0  0  0  0  0  0  0  0  0
    0.5624    0.5221   -4.8968 H   0  0  0  0  0  0  0  0  0  0  0  0
    0.6016    2.1920   -6.6545 H   0  0  0  0  0  0  0  0  0  0  0  0
   -1.1722    2.2509   -6.6562 H   0  0  0  0  0  0  0  0  0  0  0  0
   -1.2506   -0.1634   -7.2404 H   0  0  0  0  0  0  0  0  0  0  0  0
    0.5210   -0.2221   -7.2389 H   0  0  0  0  0  0  0  0  0  0  0  0
   -1.1943    1.5423   -9.0406 H   0  0  0  0  0  0  0  0  0  0  0  0
   -0.3546    0.0570   -9.5327 H   0  0  0  0  0  0  0  0  0  0  0  0
    0.5806    1.4835   -9.0391 H   0  0  0  0  0  0  0  0  0  0  0  0
    3.3605    0.8934   -0.9756 H   0  0  0  0  0  0  0  0  0  0  0  0
    4.5977   -2.1326    0.5959 H   0  0  0  0  0  0  0  0  0  0  0  0
    5.9493    0.5452   -1.5964 H   0  0  0  0  0  0  0  0  0  0  0  0
    8.2965    0.1473   -1.9302 H   0  0  0  0  0  0  0  0  0  0  0  0
   10.1120   -1.4920   -2.3449 H   0  0  0  0  0  0  0  0  0  0  0  0
    9.9725   -3.4931   -0.9681 H   0  0  0  0  0  0  0  0  0  0  0  0
    8.0650   -3.6837    0.6399 H   0  0  0  0  0  0  0  0  0  0  0  0
  1  2  2  0  0  0  0
  1  3  1  0  0  0  0
  1 17  1  0  0  0  0
  3 11  2  0  0  0  0
  3  4  1  0  0  0  0
  4  9  2  0  0  0  0
  4  5  1  0  0  0  0
  5  6  2  0  0  0  0
  5 27  1  0  0  0  0
  6  7  1  0  0  0  0
  7  8  2  0  0  0  0
  7 28  1  0  0  0  0
  8  9  1  0  0  0  0
  8 29  1  0  0  0  0
  9 10  1  0  0  0  0
 10 11  1  0  0  0  0
 10 12  1  0  0  0  0
 11 30  1  0  0  0  0
 12 13  1  0  0  0  0
 12 31  1  0  0  0  0
 12 32  1  0  0  0  0
 13 14  1  0  0  0  0
 13 33  1  0  0  0  0
 13 34  1  0  0  0  0
 14 15  1  0  0  0  0
 14 35  1  0  0  0  0
 14 36  1  0  0  0  0
 15 16  1  0  0  0  0
 15 37  1  0  0  0  0
 15 38  1  0  0  0  0
 16 39  1  0  0  0  0
 16 40  1  0  0  0  0
 16 41  1  0  0  0  0
 17 26  2  0  0  0  0
 17 18  1  0  0  0  0
 18 19  2  0  0  0  0
 18 42  1  0  0  0  0
 19 20  1  0  0  0  0
 19 43  1  0  0  0  0
 20 21  2  0  0  0  0
 20 44  1  0  0  0  0
 21 26  1  0  0  0  0
 21 22  1  0  0  0  0
 22 23  2  0  0  0  0
 22 45  1  0  0  0  0
 23 24  1  0  0  0  0
 23 46  1  0  0  0  0
 24 25  2  0  0  0  0
 24 47  1  0  0  0  0
 25 26  1  0  0  0  0
 25 48  1  0  0  0  0
M  END
$$$$
CHEMBL402734
 OpenBabel12022418103D

 54 56  0  0  0  0  0  0  0  0999 V2000
   -1.8138    1.3222    0.5523 C   0  0  0  0  0  0  0  0  0  0  0  0
   -1.0411    0.9102   -0.6721 C   0  0  0  0  0  0  0  0  0  0  0  0
   -1.6941   -0.0233   -1.5054 C   0  0  0  0  0  0  0  0  0  0  0  0
   -1.0795   -0.5283   -2.6433 C   0  0  0  0  0  0  0  0  0  0  0  0
    0.2069   -0.1125   -2.9888 C   0  0  0  0  0  0  0  0  0  0  0  0
    0.8893   -0.6925   -4.2036 C   0  0  0  0  0  0  0  0  0  0  0  0
    0.1623   -1.6700   -4.8194 F   0  0  0  0  0  0  0  0  0  0  0  0
    1.1393    0.2407   -5.1606 F   0  0  0  0  0  0  0  0  0  0  0  0
    2.0894   -1.2616   -3.9048 F   0  0  0  0  0  0  0  0  0  0  0  0
    0.8585    0.8582   -2.1857 C   0  0  0  0  0  0  0  0  0  0  0  0
    0.2507    1.3897   -1.0298 C   0  0  0  0  0  0  0  0  0  0  0  0
    0.9694    2.4823   -0.2598 C   0  0  0  0  0  0  0  0  0  0  0  0
    0.2922    3.2741    0.3803 O   0  0  0  0  0  0  0  0  0  0  0  0
    2.3617    2.4929   -0.3113 N   0  0  0  0  0  0  0  0  0  0  0  0
    3.0305    3.6024   -0.1865 C   0  0  0  0  0  0  0  0  0  0  0  0
    2.4844    5.0086   -0.1137 C   0  0  0  0  0  0  0  0  0  0  0  0
    3.5578    5.8365   -0.0784 C   0  0  0  0  0  0  0  0  0  0  0  0
    3.5009    7.3722   -0.0209 C   0  0  0  0  0  0  0  0  0  0  0  0
    2.0414    7.8973    0.0271 C   0  0  0  0  0  0  0  0  0  0  0  0
    4.1868    7.9199    1.2501 C   0  0  0  0  0  0  0  0  0  0  0  0
    4.1303    7.9955   -1.2861 C   0  0  0  0  0  0  0  0  0  0  0  0
    4.7466    5.0838   -0.1160 N   0  0  0  0  0  0  0  0  0  0  0  0
    6.1284    5.5274   -0.0574 C   0  0  0  0  0  0  0  0  0  0  0  0
    4.4263    3.7262   -0.1329 N   0  0  0  0  0  0  0  0  0  0  0  0
    5.4112    2.6650   -0.2219 C   0  0  0  0  0  0  0  0  0  0  0  0
    6.0354    2.2658    1.0980 C   0  0  0  0  0  0  0  0  0  0  0  0
    5.7678    2.9212    2.4356 C   0  0  0  0  0  0  0  0  0  0  0  0
    5.1931    1.5681    2.1362 C   0  0  0  0  0  0  0  0  0  0  0  0
   -1.1828    1.7251    1.3475 H   0  0  0  0  0  0  0  0  0  0  0  0
   -2.3081    0.4432    0.9853 H   0  0  0  0  0  0  0  0  0  0  0  0
   -2.5870    2.0485    0.2846 H   0  0  0  0  0  0  0  0  0  0  0  0
   -2.6975   -0.3716   -1.2547 H   0  0  0  0  0  0  0  0  0  0  0  0
   -1.6136   -1.2603   -3.2548 H   0  0  0  0  0  0  0  0  0  0  0  0
    1.8452    1.2071   -2.4830 H   0  0  0  0  0  0  0  0  0  0  0  0
    1.4401    5.2598   -0.1123 H   0  0  0  0  0  0  0  0  0  0  0  0
    1.5144    7.5429    0.9205 H   0  0  0  0  0  0  0  0  0  0  0  0
    1.4705    7.5859   -0.8551 H   0  0  0  0  0  0  0  0  0  0  0  0
    2.0194    8.9940    0.0527 H   0  0  0  0  0  0  0  0  0  0  0  0
    3.6984    7.5424    2.1558 H   0  0  0  0  0  0  0  0  0  0  0  0
    4.1372    9.0152    1.2802 H   0  0  0  0  0  0  0  0  0  0  0  0
    5.2438    7.6599    1.3254 H   0  0  0  0  0  0  0  0  0  0  0  0
    3.6007    7.6712   -2.1898 H   0  0  0  0  0  0  0  0  0  0  0  0
    5.1822    7.7385   -1.4220 H   0  0  0  0  0  0  0  0  0  0  0  0
    4.0796    9.0905   -1.2504 H   0  0  0  0  0  0  0  0  0  0  0  0
    6.2488    6.6078   -0.0977 H   0  0  0  0  0  0  0  0  0  0  0  0
    6.6928    5.1371   -0.9103 H   0  0  0  0  0  0  0  0  0  0  0  0
    6.6070    5.1907    0.8672 H   0  0  0  0  0  0  0  0  0  0  0  0
    6.2254    2.9831   -0.8831 H   0  0  0  0  0  0  0  0  0  0  0  0
    4.9884    1.7769   -0.7023 H   0  0  0  0  0  0  0  0  0  0  0  0
    7.0342    1.8695    0.9396 H   0  0  0  0  0  0  0  0  0  0  0  0
    5.0846    3.7594    2.4976 H   0  0  0  0  0  0  0  0  0  0  0  0
    6.5825    2.9696    3.1533 H   0  0  0  0  0  0  0  0  0  0  0  0
    5.6187    0.7071    2.6388 H   0  0  0  0  0  0  0  0  0  0  0  0
    4.1220    1.5019    1.9721 H   0  0  0  0  0  0  0  0  0  0  0  0
  1  2  1  0  0  0  0
  1 29  1  0  0  0  0
  1 30  1  0  0  0  0
  1 31  1  0  0  0  0
  2 11  2  0  0  0  0
  2  3  1  0  0  0  0
  3  4  2  0  0  0  0
  3 32  1  0  0  0  0
  4  5  1  0  0  0  0
  4 33  1  0  0  0  0
  5  6  1  0  0  0  0
  5 10  2  0  0  0  0
  6  7  1  0  0  0  0
  6  8  1  0  0  0  0
  6  9  1  0  0  0  0
 10 11  1  0  0  0  0
 10 34  1  0  0  0  0
 11 12  1  0  0  0  0
 12 13  2  0  0  0  0
 12 14  1  0  0  0  0
 14 15  2  0  0  0  0
 15 24  1  0  0  0  0
 15 16  1  0  0  0  0
 16 17  2  0  0  0  0
 16 35  1  0  0  0  0
 17 18  1  0  0  0  0
 17 22  1  0  0  0  0
 18 19  1  0  0  0  0
 18 20  1  0  0  0  0
 18 21  1  0  0  0  0
 19 36  1  0  0  0  0
 19 37  1  0  0  0  0
 19 38  1  0  0  0  0
 20 39  1  0  0  0  0
 20 40  1  0  0  0  0
 20 41  1  0  0  0  0
 21 42  1  0  0  0  0
 21 43  1  0  0  0  0
 21 44  1  0  0  0  0
 22 23  1  0  0  0  0
 22 24  1  0  0  0  0
 23 45  1  0  0  0  0
 23 46  1  0  0  0  0
 23 47  1  0  0  0  0
 24 25  1  0  0  0  0
 25 26  1  0  0  0  0
 25 48  1  0  0  0  0
 25 49  1  0  0  0  0
 26 28  1  0  0  0  0
 26 27  1  0  0  0  0
 26 50  1  0  0  0  0
 27 28  1  0  0  0  0
 27 51  1  0  0  0  0
 27 52  1  0  0  0  0
 28 53  1  0  0  0  0
 28 54  1  0  0  0  0
M  END
$$$$
CHEMBL592264
 OpenBabel12022418103D

 55 56  0  0  0  0  0  0  0  0999 V2000
    2.9415    2.4179   -3.9431 C   0  0  0  0  0  0  0  0  0  0  0  0
    2.5870    2.0756   -2.4996 C   0  0  0  0  0  0  0  0  0  0  0  0
    3.0284    3.1300   -1.4561 C   0  0  0  0  0  0  0  0  0  0  0  0
    2.2871    4.4658   -1.6968 C   0  0  0  0  0  0  0  0  0  0  0  0
    2.6614    2.6387   -0.0445 C   0  0  0  0  0  0  0  0  0  0  0  0
    4.5477    3.4001   -1.5250 C   0  0  0  0  0  0  0  0  0  0  0  0
    4.9566    4.5397   -1.7335 O   0  0  0  0  0  0  0  0  0  0  0  0
    5.3691    2.2919   -1.3678 N   0  0  0  0  0  0  0  0  0  0  0  0
    6.7850    2.3114   -1.3834 C   0  0  0  0  0  0  0  0  0  0  0  0
    7.4692    1.1066   -1.5752 C   0  0  0  0  0  0  0  0  0  0  0  0
    8.8792    1.0667   -1.6428 C   0  0  0  0  0  0  0  0  0  0  0  0
    9.5489   -0.2563   -1.9200 C   0  0  0  0  0  0  0  0  0  0  0  0
    9.6312    2.2569   -1.4780 C   0  0  0  0  0  0  0  0  0  0  0  0
   11.1363    2.2441   -1.5542 C   0  0  0  0  0  0  0  0  0  0  0  0
    8.9320    3.4618   -1.2550 C   0  0  0  0  0  0  0  0  0  0  0  0
    7.5285    3.4780   -1.2186 C   0  0  0  0  0  0  0  0  0  0  0  0
    9.7604    5.0418   -1.0788 S   0  0  0  0  0  0  0  0  0  0  0  0
   10.7239    5.1626   -2.1473 O   0  0  0  0  0  0  0  0  0  0  0  0
    8.7775    6.0808   -0.8471 O   0  0  0  0  0  0  0  0  0  0  0  0
   10.6641    4.8846    0.3501 N   0  0  0  0  0  0  0  0  0  0  0  0
   10.0266    5.2958    1.6073 C   0  0  0  0  0  0  0  0  0  0  0  0
    8.8709    4.3896    1.9973 C   0  0  0  0  0  0  0  0  0  0  0  0
    8.6535    4.7113    3.4658 C   0  0  0  0  0  0  0  0  0  0  0  0
   10.0336    5.0738    4.0118 C   0  0  0  0  0  0  0  0  0  0  0  0
   10.9681    5.1373    2.8008 C   0  0  0  0  0  0  0  0  0  0  0  0
    2.6197    1.6084   -4.6059 H   0  0  0  0  0  0  0  0  0  0  0  0
    4.0204    2.5442   -4.0741 H   0  0  0  0  0  0  0  0  0  0  0  0
    2.4427    3.3319   -4.2769 H   0  0  0  0  0  0  0  0  0  0  0  0
    3.0283    1.0998   -2.2635 H   0  0  0  0  0  0  0  0  0  0  0  0
    1.5000    1.9353   -2.4364 H   0  0  0  0  0  0  0  0  0  0  0  0
    1.2005    4.3390   -1.6557 H   0  0  0  0  0  0  0  0  0  0  0  0
    2.5402    4.9012   -2.6699 H   0  0  0  0  0  0  0  0  0  0  0  0
    2.5648    5.2122   -0.9418 H   0  0  0  0  0  0  0  0  0  0  0  0
    1.5794    2.4887    0.0511 H   0  0  0  0  0  0  0  0  0  0  0  0
    2.9649    3.3658    0.7181 H   0  0  0  0  0  0  0  0  0  0  0  0
    3.1502    1.6896    0.1988 H   0  0  0  0  0  0  0  0  0  0  0  0
    4.9319    1.3789   -1.3742 H   0  0  0  0  0  0  0  0  0  0  0  0
    6.9078    0.1848   -1.7165 H   0  0  0  0  0  0  0  0  0  0  0  0
    8.8228   -1.0675   -2.0357 H   0  0  0  0  0  0  0  0  0  0  0  0
   10.2127   -0.5259   -1.0924 H   0  0  0  0  0  0  0  0  0  0  0  0
   10.1233   -0.1995   -2.8510 H   0  0  0  0  0  0  0  0  0  0  0  0
   11.5526    1.2457   -1.7050 H   0  0  0  0  0  0  0  0  0  0  0  0
   11.5678    2.6161   -0.6214 H   0  0  0  0  0  0  0  0  0  0  0  0
   11.4812    2.8468   -2.3980 H   0  0  0  0  0  0  0  0  0  0  0  0
    7.0311    4.4267   -1.0419 H   0  0  0  0  0  0  0  0  0  0  0  0
   11.6053    5.2431    0.1809 H   0  0  0  0  0  0  0  0  0  0  0  0
    9.7208    6.3469    1.5480 H   0  0  0  0  0  0  0  0  0  0  0  0
    9.1404    3.3326    1.8764 H   0  0  0  0  0  0  0  0  0  0  0  0
    7.9677    4.5790    1.4129 H   0  0  0  0  0  0  0  0  0  0  0  0
    8.1974    3.8748    4.0032 H   0  0  0  0  0  0  0  0  0  0  0  0
    7.9808    5.5723    3.5587 H   0  0  0  0  0  0  0  0  0  0  0  0
   10.3822    4.3358    4.7415 H   0  0  0  0  0  0  0  0  0  0  0  0
    9.9884    6.0430    4.5214 H   0  0  0  0  0  0  0  0  0  0  0  0
   11.6802    5.9655    2.8831 H   0  0  0  0  0  0  0  0  0  0  0  0
   11.5525    4.2109    2.7332 H   0  0  0  0  0  0  0  0  0  0  0  0
  1  2  1  0  0  0  0
  1 26  1  0  0  0  0
  1 27  1  0  0  0  0
  1 28  1  0  0  0  0
  2  3  1  0  0  0  0
  2 29  1  0  0  0  0
  2 30  1  0  0  0  0
  3  4  1  0  0  0  0
  3  5  1  0  0  0  0
  3  6  1  0  0  0  0
  4 31  1  0  0  0  0
  4 32  1  0  0  0  0
  4 33  1  0  0  0  0
  5 34  1  0  0  0  0
  5 35  1  0  0  0  0
  5 36  1  0  0  0  0
  6  7  2  0  0  0  0
  6  8  1  0  0  0  0
  8  9  1  0  0  0  0
  8 37  1  0  0  0  0
  9 16  2  0  0  0  0
  9 10  1  0  0  0  0
 10 11  2  0  0  0  0
 10 38  1  0  0  0  0
 11 12  1  0  0  0  0
 11 13  1  0  0  0  0
 12 39  1  0  0  0  0
 12 40  1  0  0  0  0
 12 41  1  0  0  0  0
 13 14  1  0  0  0  0
 13 15  2  0  0  0  0
 14 42  1  0  0  0  0
 14 43  1  0  0  0  0
 14 44  1  0  0  0  0
 15 16  1  0  0  0  0
 15 17  1  0  0  0  0
 16 45  1  0  0  0  0
 17 18  2  0  0  0  0
 17 19  2  0  0  0  0
 17 20  1  0  0  0  0
 20 21  1  0  0  0  0
 20 46  1  0  0  0  0
 21 25  1  0  0  0  0
 21 22  1  0  0  0  0
 21 47  1  0  0  0  0
 22 23  1  0  0  0  0
 22 48  1  0  0  0  0
 22 49  1  0  0  0  0
 23 24  1  0  0  0  0
 23 50  1  0  0  0  0
 23 51  1  0  0  0  0
 24 25  1  0  0  0  0
 24 52  1  0  0  0  0
 24 53  1  0  0  0  0
 25 54  1  0  0  0  0
 25 55  1  0  0  0  0
M  END
$$$$
CHEMBL571323
 OpenBabel12022418103D

 52 53  0  0  0  0  0  0  0  0999 V2000
    2.9031    4.2566   -1.7940 C   0  0  0  0  0  0  0  0  0  0  0  0
    2.5840    3.1075   -0.8446 C   0  0  0  0  0  0  0  0  0  0  0  0
    3.0418    3.3249    0.6207 C   0  0  0  0  0  0  0  0  0  0  0  0
    2.2805    4.5140    1.2443 C   0  0  0  0  0  0  0  0  0  0  0  0
    2.7035    2.0699    1.4438 C   0  0  0  0  0  0  0  0  0  0  0  0
    4.5636    3.6064    0.7108 C   0  0  0  0  0  0  0  0  0  0  0  0
    4.9760    4.6495    1.2173 O   0  0  0  0  0  0  0  0  0  0  0  0
    5.3860    2.6326    0.1632 N   0  0  0  0  0  0  0  0  0  0  0  0
    6.7983    2.6610    0.1518 C   0  0  0  0  0  0  0  0  0  0  0  0
    7.4791    1.8447   -0.7512 C   0  0  0  0  0  0  0  0  0  0  0  0
    8.8889    1.8581   -0.8361 C   0  0  0  0  0  0  0  0  0  0  0  0
    9.5511    0.9555   -1.8476 C   0  0  0  0  0  0  0  0  0  0  0  0
    9.6476    2.6964    0.0218 C   0  0  0  0  0  0  0  0  0  0  0  0
   11.1526    2.7020   -0.0541 C   0  0  0  0  0  0  0  0  0  0  0  0
    8.9509    3.4897    0.9590 C   0  0  0  0  0  0  0  0  0  0  0  0
    7.5467    3.4516    1.0195 C   0  0  0  0  0  0  0  0  0  0  0  0
    9.7527    4.5111    2.2068 S   0  0  0  0  0  0  0  0  0  0  0  0
    9.2161    4.1040    3.4888 O   0  0  0  0  0  0  0  0  0  0  0  0
   11.1769    4.5354    1.9664 O   0  0  0  0  0  0  0  0  0  0  0  0
    9.2051    6.0742    1.8402 N   0  0  0  0  0  0  0  0  0  0  0  0
    8.1099    6.5732    2.6829 C   0  0  0  0  0  0  0  0  0  0  0  0
    7.8085    7.9945    2.3175 C   0  0  0  0  0  0  0  0  0  0  0  0
    6.5536    8.3398    1.5572 C   0  0  0  0  0  0  0  0  0  0  0  0
    6.6679    8.6958    3.0117 C   0  0  0  0  0  0  0  0  0  0  0  0
    2.5728    4.0040   -2.8069 H   0  0  0  0  0  0  0  0  0  0  0  0
    3.9777    4.4575   -1.8361 H   0  0  0  0  0  0  0  0  0  0  0  0
    2.3885    5.1763   -1.5025 H   0  0  0  0  0  0  0  0  0  0  0  0
    3.0327    2.1933   -1.2533 H   0  0  0  0  0  0  0  0  0  0  0  0
    1.4990    2.9396   -0.8633 H   0  0  0  0  0  0  0  0  0  0  0  0
    1.1967    4.3648    1.1988 H   0  0  0  0  0  0  0  0  0  0  0  0
    2.5135    5.4576    0.7387 H   0  0  0  0  0  0  0  0  0  0  0  0
    2.5552    4.6469    2.2978 H   0  0  0  0  0  0  0  0  0  0  0  0
    1.6230    1.8788    1.4435 H   0  0  0  0  0  0  0  0  0  0  0  0
    3.0200    2.1850    2.4871 H   0  0  0  0  0  0  0  0  0  0  0  0
    3.1961    1.1742    1.0506 H   0  0  0  0  0  0  0  0  0  0  0  0
    4.9465    1.9087   -0.3932 H   0  0  0  0  0  0  0  0  0  0  0  0
    6.9182    1.1960   -1.4205 H   0  0  0  0  0  0  0  0  0  0  0  0
    8.8182    0.3828   -2.4251 H   0  0  0  0  0  0  0  0  0  0  0  0
   10.2026    0.2352   -1.3419 H   0  0  0  0  0  0  0  0  0  0  0  0
   10.1351    1.5479   -2.5597 H   0  0  0  0  0  0  0  0  0  0  0  0
   11.5535    2.0405   -0.8261 H   0  0  0  0  0  0  0  0  0  0  0  0
   11.5787    2.3546    0.8921 H   0  0  0  0  0  0  0  0  0  0  0  0
   11.5140    3.7044   -0.3031 H   0  0  0  0  0  0  0  0  0  0  0  0
    7.0450    4.0122    1.7988 H   0  0  0  0  0  0  0  0  0  0  0  0
    9.0243    6.1909    0.8440 H   0  0  0  0  0  0  0  0  0  0  0  0
    8.4074    6.5425    3.7354 H   0  0  0  0  0  0  0  0  0  0  0  0
    7.2149    5.9638    2.5491 H   0  0  0  0  0  0  0  0  0  0  0  0
    8.7042    8.5826    2.1528 H   0  0  0  0  0  0  0  0  0  0  0  0
    5.8669    7.5412    1.2881 H   0  0  0  0  0  0  0  0  0  0  0  0
    6.5983    9.1460    0.8332 H   0  0  0  0  0  0  0  0  0  0  0  0
    6.8009    9.7395    3.2754 H   0  0  0  0  0  0  0  0  0  0  0  0
    6.0775    8.1327    3.7264 H   0  0  0  0  0  0  0  0  0  0  0  0
  1  2  1  0  0  0  0
  1 25  1  0  0  0  0
  1 26  1  0  0  0  0
  1 27  1  0  0  0  0
  2  3  1  0  0  0  0
  2 28  1  0  0  0  0
  2 29  1  0  0  0  0
  3  4  1  0  0  0  0
  3  5  1  0  0  0  0
  3  6  1  0  0  0  0
  4 30  1  0  0  0  0
  4 31  1  0  0  0  0
  4 32  1  0  0  0  0
  5 33  1  0  0  0  0
  5 34  1  0  0  0  0
  5 35  1  0  0  0  0
  6  7  2  0  0  0  0
  6  8  1  0  0  0  0
  8  9  1  0  0  0  0
  8 36  1  0  0  0  0
  9 16  2  0  0  0  0
  9 10  1  0  0  0  0
 10 11  2  0  0  0  0
 10 37  1  0  0  0  0
 11 12  1  0  0  0  0
 11 13  1  0  0  0  0
 12 38  1  0  0  0  0
 12 39  1  0  0  0  0
 12 40  1  0  0  0  0
 13 14  1  0  0  0  0
 13 15  2  0  0  0  0
 14 41  1  0  0  0  0
 14 42  1  0  0  0  0
 14 43  1  0  0  0  0
 15 16  1  0  0  0  0
 15 17  1  0  0  0  0
 16 44  1  0  0  0  0
 17 18  2  0  0  0  0
 17 19  2  0  0  0  0
 17 20  1  0  0  0  0
 20 21  1  0  0  0  0
 20 45  1  0  0  0  0
 21 22  1  0  0  0  0
 21 46  1  0  0  0  0
 21 47  1  0  0  0  0
 22 24  1  0  0  0  0
 22 23  1  0  0  0  0
 22 48  1  0  0  0  0
 23 24  1  0  0  0  0
 23 49  1  0  0  0  0
 23 50  1  0  0  0  0
 24 51  1  0  0  0  0
 24 52  1  0  0  0  0
M  END
$$$$
CHEMBL1215888
 OpenBabel12022418103D

 63 67  0  0  1  0  0  0  0  0999 V2000
    1.0165    0.0188   -0.0787 C   0  0  0  0  0  0  0  0  0  0  0  0
    2.2140    0.0032   -0.0027 C   0  0  0  0  0  0  0  0  0  0  0  0
    3.6363   -0.0235    0.0906 C   0  0  0  0  0  0  0  0  0  0  0  0
    4.3608    1.1640    0.1057 C   0  0  0  0  0  0  0  0  0  0  0  0
    5.7568    1.1362    0.2051 C   0  0  0  0  0  0  0  0  0  0  0  0
    6.4658   -0.0767    0.2565 C   0  0  0  0  0  0  0  0  0  0  0  0
    5.7012   -1.2629    0.2312 C   0  0  0  0  0  0  0  0  0  0  0  0
    4.3023   -1.2396    0.1620 C   0  0  0  0  0  0  0  0  0  0  0  0
    6.3666   -2.5832    0.2547 C   0  0  0  0  0  0  0  0  0  0  0  0
    5.7122   -3.6190    0.3242 O   0  0  0  0  0  0  0  0  0  0  0  0
    7.8418   -2.6169    0.1645 C   0  0  0  0  0  0  0  0  0  0  0  0
    8.6354   -3.8796   -0.0053 C   0  0  0  0  0  0  0  0  0  0  0  0
    9.8199   -3.8263   -0.3273 O   0  0  0  0  0  0  0  0  0  0  0  0
    7.9501   -5.0663    0.1939 N   0  0  0  0  0  0  0  0  0  0  0  0
    8.5208   -6.4123   -0.0222 C   0  0  1  0  0  0  0  0  0  0  0  0
    8.9260   -6.5832   -1.5063 C   0  0  0  0  0  0  0  0  0  0  0  0
    9.5577   -7.9598   -1.7538 C   0  0  2  0  0  0  0  0  0  0  0  0
    8.5285   -9.0509   -1.4281 C   0  0  0  0  0  0  0  0  0  0  0  0
    8.1025   -8.9412    0.0456 C   0  0  1  0  0  0  0  0  0  0  0  0
    9.3407   -9.1303    0.9374 C   0  0  0  0  0  0  0  0  0  0  0  0
   10.3710   -8.0336    0.6330 C   0  0  1  0  0  0  0  0  0  0  0  0
   10.7871   -8.1218   -0.8447 C   0  0  0  0  0  0  0  0  0  0  0  0
    9.7428   -6.6556    0.9000 C   0  0  0  0  0  0  0  0  0  0  0  0
    7.4885   -7.5409    0.3030 C   0  0  0  0  0  0  0  0  0  0  0  0
    8.4705   -1.4261    0.2022 C   0  0  0  0  0  0  0  0  0  0  0  0
    7.8770   -0.1630    0.2991 N   0  0  0  0  0  0  0  0  0  0  0  0
    8.6776    1.0797    0.3762 C   0  0  0  0  0  0  0  0  0  0  0  0
    8.8190    1.6135    1.8093 C   0  0  0  0  0  0  0  0  0  0  0  0
    9.6489    0.7006    2.7140 C   0  0  0  0  0  0  0  0  0  0  0  0
    9.8112    1.3104    4.1069 C   0  0  0  0  0  0  0  0  0  0  0  0
   10.6183    0.4049    5.0225 C   0  0  0  0  0  0  0  0  0  0  0  0
   -0.0454    0.0262   -0.1464 H   0  0  0  0  0  0  0  0  0  0  0  0
    3.8468    2.1206    0.0368 H   0  0  0  0  0  0  0  0  0  0  0  0
    6.2562    2.0995    0.2254 H   0  0  0  0  0  0  0  0  0  0  0  0
    3.7420   -2.1723    0.1507 H   0  0  0  0  0  0  0  0  0  0  0  0
    6.9427   -4.9941    0.3401 H   0  0  0  0  0  0  0  0  0  0  0  0
    9.6379   -5.8091   -1.8102 H   0  0  0  0  0  0  0  0  0  0  0  0
    8.0435   -6.4569   -2.1483 H   0  0  0  0  0  0  0  0  0  0  0  0
    9.8608   -8.0388   -2.8037 H   0  0  0  0  0  0  0  0  0  0  0  0
    8.9588  -10.0405   -1.6287 H   0  0  0  0  0  0  0  0  0  0  0  0
    7.6521   -8.9492   -2.0797 H   0  0  0  0  0  0  0  0  0  0  0  0
    7.3688   -9.7241    0.2712 H   0  0  0  0  0  0  0  0  0  0  0  0
    9.7867  -10.1187    0.7648 H   0  0  0  0  0  0  0  0  0  0  0  0
    9.0518   -9.0949    1.9947 H   0  0  0  0  0  0  0  0  0  0  0  0
   11.2505   -8.1662    1.2733 H   0  0  0  0  0  0  0  0  0  0  0  0
   11.5252   -7.3425   -1.0714 H   0  0  0  0  0  0  0  0  0  0  0  0
   11.2712   -9.0862   -1.0401 H   0  0  0  0  0  0  0  0  0  0  0  0
    9.4360   -6.5851    1.9527 H   0  0  0  0  0  0  0  0  0  0  0  0
   10.5082   -5.8871    0.7546 H   0  0  0  0  0  0  0  0  0  0  0  0
    6.5845   -7.4244   -0.3086 H   0  0  0  0  0  0  0  0  0  0  0  0
    7.1624   -7.4756    1.3495 H   0  0  0  0  0  0  0  0  0  0  0  0
    9.5596   -1.3756    0.1485 H   0  0  0  0  0  0  0  0  0  0  0  0
    8.2464    1.8650   -0.2565 H   0  0  0  0  0  0  0  0  0  0  0  0
    9.6750    0.9160   -0.0492 H   0  0  0  0  0  0  0  0  0  0  0  0
    7.8343    1.7790    2.2619 H   0  0  0  0  0  0  0  0  0  0  0  0
    9.3080    2.5962    1.7620 H   0  0  0  0  0  0  0  0  0  0  0  0
   10.6361    0.5367    2.2653 H   0  0  0  0  0  0  0  0  0  0  0  0
    9.1636   -0.2772    2.8046 H   0  0  0  0  0  0  0  0  0  0  0  0
    8.8249    1.4837    4.5529 H   0  0  0  0  0  0  0  0  0  0  0  0
   10.3094    2.2841    4.0330 H   0  0  0  0  0  0  0  0  0  0  0  0
   10.1295   -0.5672    5.1422 H   0  0  0  0  0  0  0  0  0  0  0  0
   10.7164    0.8602    6.0129 H   0  0  0  0  0  0  0  0  0  0  0  0
   11.6237    0.2384    4.6231 H   0  0  0  0  0  0  0  0  0  0  0  0
  1  2  3  0  0  0  0
  1 32  1  0  0  0  0
  2  3  1  0  0  0  0
  3  8  2  0  0  0  0
  3  4  1  0  0  0  0
  4  5  2  0  0  0  0
  4 33  1  0  0  0  0
  5  6  1  0  0  0  0
  5 34  1  0  0  0  0
  6 26  1  0  0  0  0
  6  7  2  0  0  0  0
  7  8  1  0  0  0  0
  7  9  1  0  0  0  0
  8 35  1  0  0  0  0
  9 10  2  0  0  0  0
  9 11  1  0  0  0  0
 11 12  1  0  0  0  0
 11 25  2  0  0  0  0
 12 13  2  0  0  0  0
 12 14  1  0  0  0  0
 14 36  1  0  0  0  0
 15 14  1  1  0  0  0
 15 23  1  0  0  0  0
 15 24  1  0  0  0  0
 15 16  1  0  0  0  0
 16 37  1  0  0  0  0
 16 38  1  0  0  0  0
 17 16  1  0  0  0  0
 17 18  1  0  0  0  0
 17 22  1  0  0  0  0
 17 39  1  6  0  0  0
 18 40  1  0  0  0  0
 18 41  1  0  0  0  0
 19 18  1  0  0  0  0
 19 20  1  0  0  0  0
 19 24  1  0  0  0  0
 19 42  1  1  0  0  0
 20 43  1  0  0  0  0
 20 44  1  0  0  0  0
 21 20  1  0  0  0  0
 21 22  1  0  0  0  0
 21 23  1  0  0  0  0
 21 45  1  1  0  0  0
 22 46  1  0  0  0  0
 22 47  1  0  0  0  0
 23 48  1  0  0  0  0
 23 49  1  0  0  0  0
 24 50  1  0  0  0  0
 24 51  1  0  0  0  0
 25 26  1  0  0  0  0
 25 52  1  0  0  0  0
 26 27  1  0  0  0  0
 27 28  1  0  0  0  0
 27 53  1  0  0  0  0
 27 54  1  0  0  0  0
 28 29  1  0  0  0  0
 28 55  1  0  0  0  0
 28 56  1  0  0  0  0
 29 30  1  0  0  0  0
 29 57  1  0  0  0  0
 29 58  1  0  0  0  0
 30 31  1  0  0  0  0
 30 59  1  0  0  0  0
 30 60  1  0  0  0  0
 31 61  1  0  0  0  0
 31 62  1  0  0  0  0
 31 63  1  0  0  0  0
M  END
$$$$
CHEMBL2381779
 OpenBabel12022418103D

 68 73  0  0  1  0  0  0  0  0999 V2000
   -0.1322    0.6645   -0.0089 C   0  0  0  0  0  0  0  0  0  0  0  0
   -1.4243    1.1244   -0.0179 C   0  0  0  0  0  0  0  0  0  0  0  0
   -2.2360   -0.0309    0.0487 C   0  0  0  0  0  0  0  0  0  0  0  0
   -3.7397   -0.0039    0.0224 C   0  0  0  0  0  0  0  0  0  0  0  0
   -4.5691   -1.0852    0.2386 C   0  0  0  0  0  0  0  0  0  0  0  0
   -5.9657   -0.7352    0.1700 C   0  0  0  0  0  0  0  0  0  0  0  0
   -6.1225    0.5984   -0.1503 C   0  0  0  0  0  0  0  0  0  0  0  0
   -4.6385    1.4195   -0.2951 S   0  0  0  0  0  0  0  0  0  0  0  0
   -7.1053   -1.6657    0.4099 C   0  0  0  0  0  0  0  0  0  0  0  0
   -1.5037   -1.1537    0.1301 N   0  0  0  0  0  0  0  0  0  0  0  0
   -0.2105   -0.7165    0.0355 N   0  0  0  0  0  0  0  0  0  0  0  0
    0.8976   -1.5893   -0.0356 C   0  0  0  0  0  0  0  0  0  0  0  0
    0.7648   -2.8061    0.0007 O   0  0  0  0  0  0  0  0  0  0  0  0
    2.2117   -0.8975   -0.1749 C   0  0  0  0  0  0  0  0  0  0  0  0
    2.2161    0.4543   -0.1636 C   0  0  0  0  0  0  0  0  0  0  0  0
    1.0887    1.2668   -0.0627 N   0  0  0  0  0  0  0  0  0  0  0  0
    1.1572    2.7459   -0.0749 C   0  0  0  0  0  0  0  0  0  0  0  0
    1.1465    3.3095    1.3534 C   0  0  0  0  0  0  0  0  0  0  0  0
    1.0807    4.8439    1.3745 C   0  0  0  0  0  0  0  0  0  0  0  0
    1.1168    5.3789    2.8097 C   0  0  0  0  0  0  0  0  0  0  0  0
    1.0681    6.8990    2.8647 C   0  0  0  0  0  0  0  0  0  0  0  0
    3.5208   -1.5991   -0.3653 C   0  0  0  0  0  0  0  0  0  0  0  0
    4.5617   -0.9455   -0.4317 O   0  0  0  0  0  0  0  0  0  0  0  0
    3.4927   -2.9752   -0.4835 N   0  0  0  0  0  0  0  0  0  0  0  0
    4.6866   -3.8126   -0.7439 C   0  0  1  0  0  0  0  0  0  0  0  0
    5.3437   -3.4424   -2.1006 C   0  0  0  0  0  0  0  0  0  0  0  0
    6.5929   -4.3004   -2.3651 C   0  0  2  0  0  0  0  0  0  0  0  0
    6.1890   -5.7807   -2.4307 C   0  0  0  0  0  0  0  0  0  0  0  0
    5.5365   -6.2006   -1.1036 C   0  0  1  0  0  0  0  0  0  0  0  0
    6.5629   -6.0140    0.0256 C   0  0  0  0  0  0  0  0  0  0  0  0
    6.9737   -4.5369    0.1155 C   0  0  2  0  0  0  0  0  0  0  0  0
    5.7278   -3.6795    0.3988 C   0  0  0  0  0  0  0  0  0  0  0  0
    7.5978   -4.0964   -1.2194 C   0  0  0  0  0  0  0  0  0  0  0  0
    4.2961   -5.3193   -0.8291 C   0  0  0  0  0  0  0  0  0  0  0  0
   -1.7474    2.1534   -0.0771 H   0  0  0  0  0  0  0  0  0  0  0  0
   -4.1979   -2.0791    0.4631 H   0  0  0  0  0  0  0  0  0  0  0  0
   -7.0488    1.1388   -0.2905 H   0  0  0  0  0  0  0  0  0  0  0  0
   -6.7601   -2.6537    0.7263 H   0  0  0  0  0  0  0  0  0  0  0  0
   -7.7014   -1.7813   -0.5012 H   0  0  0  0  0  0  0  0  0  0  0  0
   -7.7564   -1.2662    1.1960 H   0  0  0  0  0  0  0  0  0  0  0  0
    3.1439    1.0168   -0.2634 H   0  0  0  0  0  0  0  0  0  0  0  0
    0.3174    3.1636   -0.6464 H   0  0  0  0  0  0  0  0  0  0  0  0
    2.0615    3.0800   -0.5979 H   0  0  0  0  0  0  0  0  0  0  0  0
    2.0462    2.9722    1.8802 H   0  0  0  0  0  0  0  0  0  0  0  0
    0.2885    2.9107    1.9093 H   0  0  0  0  0  0  0  0  0  0  0  0
    0.1597    5.1807    0.8829 H   0  0  0  0  0  0  0  0  0  0  0  0
    1.9210    5.2595    0.8058 H   0  0  0  0  0  0  0  0  0  0  0  0
    2.0306    5.0357    3.3087 H   0  0  0  0  0  0  0  0  0  0  0  0
    0.2685    4.9769    3.3763 H   0  0  0  0  0  0  0  0  0  0  0  0
    1.9191    7.3401    2.3348 H   0  0  0  0  0  0  0  0  0  0  0  0
    1.1014    7.2368    3.9055 H   0  0  0  0  0  0  0  0  0  0  0  0
    0.1465    7.2825    2.4154 H   0  0  0  0  0  0  0  0  0  0  0  0
    2.5900   -3.4434   -0.3954 H   0  0  0  0  0  0  0  0  0  0  0  0
    5.6315   -2.3864   -2.1256 H   0  0  0  0  0  0  0  0  0  0  0  0
    4.6203   -3.5823   -2.9152 H   0  0  0  0  0  0  0  0  0  0  0  0
    7.0508   -4.0022   -3.3150 H   0  0  0  0  0  0  0  0  0  0  0  0
    7.0719   -6.4000   -2.6297 H   0  0  0  0  0  0  0  0  0  0  0  0
    5.4929   -5.9464   -3.2613 H   0  0  0  0  0  0  0  0  0  0  0  0
    5.2422   -7.2552   -1.1588 H   0  0  0  0  0  0  0  0  0  0  0  0
    7.4470   -6.6368   -0.1624 H   0  0  0  0  0  0  0  0  0  0  0  0
    6.1384   -6.3475    0.9796 H   0  0  0  0  0  0  0  0  0  0  0  0
    7.7023   -4.4063    0.9235 H   0  0  0  0  0  0  0  0  0  0  0  0
    5.2762   -3.9866    1.3518 H   0  0  0  0  0  0  0  0  0  0  0  0
    6.0412   -2.6391    0.5302 H   0  0  0  0  0  0  0  0  0  0  0  0
    7.8943   -3.0417   -1.1649 H   0  0  0  0  0  0  0  0  0  0  0  0
    8.5102   -4.6731   -1.4147 H   0  0  0  0  0  0  0  0  0  0  0  0
    3.5551   -5.4756   -1.6239 H   0  0  0  0  0  0  0  0  0  0  0  0
    3.8186   -5.6417    0.1054 H   0  0  0  0  0  0  0  0  0  0  0  0
  1 16  1  0  0  0  0
  1  2  2  0  0  0  0
  1 11  1  0  0  0  0
  2  3  1  0  0  0  0
  2 35  1  0  0  0  0
  3  4  1  0  0  0  0
  3 10  2  0  0  0  0
  4  8  1  0  0  0  0
  4  5  2  0  0  0  0
  5  6  1  0  0  0  0
  5 36  1  0  0  0  0
  6  7  2  0  0  0  0
  6  9  1  0  0  0  0
  7  8  1  0  0  0  0
  7 37  1  0  0  0  0
  9 38  1  0  0  0  0
  9 39  1  0  0  0  0
  9 40  1  0  0  0  0
 10 11  1  0  0  0  0
 11 12  1  0  0  0  0
 12 13  2  0  0  0  0
 12 14  1  0  0  0  0
 14 15  2  0  0  0  0
 14 22  1  0  0  0  0
 15 16  1  0  0  0  0
 15 41  1  0  0  0  0
 16 17  1  0  0  0  0
 17 18  1  0  0  0  0
 17 42  1  0  0  0  0
 17 43  1  0  0  0  0
 18 19  1  0  0  0  0
 18 44  1  0  0  0  0
 18 45  1  0  0  0  0
 19 20  1  0  0  0  0
 19 46  1  0  0  0  0
 19 47  1  0  0  0  0
 20 21  1  0  0  0  0
 20 48  1  0  0  0  0
 20 49  1  0  0  0  0
 21 50  1  0  0  0  0
 21 51  1  0  0  0  0
 21 52  1  0  0  0  0
 22 23  2  0  0  0  0
 22 24  1  0  0  0  0
 24 53  1  0  0  0  0
 25 24  1  1  0  0  0
 25 32  1  0  0  0  0
 25 34  1  0  0  0  0
 25 26  1  0  0  0  0
 26 54  1  0  0  0  0
 26 55  1  0  0  0  0
 27 26  1  0  0  0  0
 27 28  1  0  0  0  0
 27 33  1  0  0  0  0
 27 56  1  6  0  0  0
 28 57  1  0  0  0  0
 28 58  1  0  0  0  0
 29 28  1  0  0  0  0
 29 30  1  0  0  0  0
 29 34  1  0  0  0  0
 29 59  1  6  0  0  0
 30 60  1  0  0  0  0
 30 61  1  0  0  0  0
 31 30  1  0  0  0  0
 31 32  1  0  0  0  0
 31 33  1  0  0  0  0
 31 62  1  1  0  0  0
 32 63  1  0  0  0  0
 32 64  1  0  0  0  0
 33 65  1  0  0  0  0
 33 66  1  0  0  0  0
 34 67  1  0  0  0  0
 34 68  1  0  0  0  0
M  END
$$$$
CHEMBL591795
 OpenBabel12022418103D

 53 54  0  0  1  0  0  0  0  0999 V2000
    2.7807   -3.6319   -2.5306 C   0  0  0  0  0  0  0  0  0  0  0  0
    2.5194   -2.1791   -2.1465 C   0  0  0  0  0  0  0  0  0  0  0  0
    3.0429   -1.1391   -3.1635 C   0  0  0  0  0  0  0  0  0  0  0  0
    2.2819   -1.2583   -4.4998 C   0  0  0  0  0  0  0  0  0  0  0  0
    2.7933    0.2807   -2.6121 C   0  0  0  0  0  0  0  0  0  0  0  0
    4.5500   -1.3169   -3.4333 C   0  0  0  0  0  0  0  0  0  0  0  0
    4.9531   -1.5172   -4.5814 O   0  0  0  0  0  0  0  0  0  0  0  0
    5.3759   -1.2560   -2.3183 N   0  0  0  0  0  0  0  0  0  0  0  0
    6.7869   -1.2650   -2.3541 C   0  0  0  0  0  0  0  0  0  0  0  0
    7.5065   -1.5619   -1.1979 C   0  0  0  0  0  0  0  0  0  0  0  0
    8.9220   -1.5684   -1.1848 C   0  0  0  0  0  0  0  0  0  0  0  0
    9.6293   -1.9366    0.0944 C   0  0  0  0  0  0  0  0  0  0  0  0
    9.6358   -1.2302   -2.3622 C   0  0  0  0  0  0  0  0  0  0  0  0
   11.1426   -1.1520   -2.3722 C   0  0  0  0  0  0  0  0  0  0  0  0
    8.8935   -0.9025   -3.5182 C   0  0  0  0  0  0  0  0  0  0  0  0
    7.4944   -0.9310   -3.5001 C   0  0  0  0  0  0  0  0  0  0  0  0
    9.6928   -0.2785   -4.9964 S   0  0  0  0  0  0  0  0  0  0  0  0
   10.2376    1.0138   -4.6270 O   0  0  0  0  0  0  0  0  0  0  0  0
   10.5150   -1.3337   -5.5465 O   0  0  0  0  0  0  0  0  0  0  0  0
    8.4301   -0.0077   -6.1016 N   0  0  0  0  0  0  0  0  0  0  0  0
    8.6075    1.1145   -7.0534 C   0  0  0  0  0  0  0  0  0  0  0  0
    8.2368    0.5880   -8.4334 C   0  0  0  0  0  0  0  0  0  0  0  0
    8.2691   -0.9235   -8.3059 C   0  0  2  0  0  0  0  0  0  0  0  0
    7.8865   -1.1766   -6.8466 C   0  0  0  0  0  0  0  0  0  0  0  0
    9.5741   -1.3931   -8.6376 O   0  0  0  0  0  0  0  0  0  0  0  0
    2.4041   -4.2968   -1.7453 H   0  0  0  0  0  0  0  0  0  0  0  0
    3.8498   -3.8299   -2.6480 H   0  0  0  0  0  0  0  0  0  0  0  0
    2.2725   -3.9001   -3.4608 H   0  0  0  0  0  0  0  0  0  0  0  0
    2.9577   -2.0039   -1.1567 H   0  0  0  0  0  0  0  0  0  0  0  0
    1.4372   -2.0482   -2.0170 H   0  0  0  0  0  0  0  0  0  0  0  0
    1.2021   -1.1648   -4.3570 H   0  0  0  0  0  0  0  0  0  0  0  0
    2.4766   -2.2186   -4.9913 H   0  0  0  0  0  0  0  0  0  0  0  0
    2.5958   -0.4770   -5.2029 H   0  0  0  0  0  0  0  0  0  0  0  0
    1.7181    0.4650   -2.4820 H   0  0  0  0  0  0  0  0  0  0  0  0
    3.1797    1.0439   -3.2969 H   0  0  0  0  0  0  0  0  0  0  0  0
    3.2748    0.4364   -1.6424 H   0  0  0  0  0  0  0  0  0  0  0  0
    4.9492   -1.3273   -1.4044 H   0  0  0  0  0  0  0  0  0  0  0  0
    6.9749   -1.7986   -0.2746 H   0  0  0  0  0  0  0  0  0  0  0  0
    8.9212   -2.1729    0.8962 H   0  0  0  0  0  0  0  0  0  0  0  0
   10.2524   -1.1058    0.4424 H   0  0  0  0  0  0  0  0  0  0  0  0
   10.2505   -2.8255   -0.0592 H   0  0  0  0  0  0  0  0  0  0  0  0
   11.5970   -1.5436   -1.4585 H   0  0  0  0  0  0  0  0  0  0  0  0
   11.4657   -0.1107   -2.4694 H   0  0  0  0  0  0  0  0  0  0  0  0
   11.5573   -1.7450   -3.1923 H   0  0  0  0  0  0  0  0  0  0  0  0
    6.9526   -0.6183   -4.3801 H   0  0  0  0  0  0  0  0  0  0  0  0
    9.6286    1.5065   -7.0526 H   0  0  0  0  0  0  0  0  0  0  0  0
    7.9314    1.9264   -6.7618 H   0  0  0  0  0  0  0  0  0  0  0  0
    8.9351    0.9673   -9.1888 H   0  0  0  0  0  0  0  0  0  0  0  0
    7.2306    0.9311   -8.6993 H   0  0  0  0  0  0  0  0  0  0  0  0
    7.5653   -1.4028   -8.9935 H   0  0  0  0  0  0  0  0  0  0  0  0
    6.7975   -1.1741   -6.7312 H   0  0  0  0  0  0  0  0  0  0  0  0
    8.2694   -2.1319   -6.4756 H   0  0  0  0  0  0  0  0  0  0  0  0
    9.9427   -1.8804   -7.8775 H   0  0  0  0  0  0  0  0  0  0  0  0
  1  2  1  0  0  0  0
  1 26  1  0  0  0  0
  1 27  1  0  0  0  0
  1 28  1  0  0  0  0
  2  3  1  0  0  0  0
  2 29  1  0  0  0  0
  2 30  1  0  0  0  0
  3  4  1  0  0  0  0
  3  5  1  0  0  0  0
  3  6  1  0  0  0  0
  4 31  1  0  0  0  0
  4 32  1  0  0  0  0
  4 33  1  0  0  0  0
  5 34  1  0  0  0  0
  5 35  1  0  0  0  0
  5 36  1  0  0  0  0
  6  7  2  0  0  0  0
  6  8  1  0  0  0  0
  8  9  1  0  0  0  0
  8 37  1  0  0  0  0
  9 16  2  0  0  0  0
  9 10  1  0  0  0  0
 10 11  2  0  0  0  0
 10 38  1  0  0  0  0
 11 12  1  0  0  0  0
 11 13  1  0  0  0  0
 12 39  1  0  0  0  0
 12 40  1  0  0  0  0
 12 41  1  0  0  0  0
 13 14  1  0  0  0  0
 13 15  2  0  0  0  0
 14 42  1  0  0  0  0
 14 43  1  0  0  0  0
 14 44  1  0  0  0  0
 15 16  1  0  0  0  0
 15 17  1  0  0  0  0
 16 45  1  0  0  0  0
 17 18  2  0  0  0  0
 17 19  2  0  0  0  0
 17 20  1  0  0  0  0
 20 24  1  0  0  0  0
 20 21  1  0  0  0  0
 21 22  1  0  0  0  0
 21 46  1  0  0  0  0
 21 47  1  0  0  0  0
 22 23  1  0  0  0  0
 22 48  1  0  0  0  0
 22 49  1  0  0  0  0
 23 24  1  0  0  0  0
 23 25  1  0  0  0  0
 23 50  1  6  0  0  0
 24 51  1  0  0  0  0
 24 52  1  0  0  0  0
 25 53  1  0  0  0  0
M  END
$$$$
CHEMBL2206859
 OpenBabel12022418103D

 49 52  0  0  0  0  0  0  0  0999 V2000
    4.4231    1.9437    2.2056 C   0  0  0  0  0  0  0  0  0  0  0  0
    4.2378    0.9338    1.0836 C   0  0  0  0  0  0  0  0  0  0  0  0
    5.0930    1.2808   -0.1368 C   0  0  0  0  0  0  0  0  0  0  0  0
    4.9328    0.2367   -1.2434 C   0  0  0  0  0  0  0  0  0  0  0  0
    5.7219    0.5776   -2.5163 C   0  0  0  0  0  0  0  0  0  0  0  0
    7.1723    0.5584   -2.3757 N   0  0  0  0  0  0  0  0  0  0  0  0
    7.9620    1.6549   -2.1504 C   0  0  0  0  0  0  0  0  0  0  0  0
    9.3199    1.2839   -2.1409 C   0  0  0  0  0  0  0  0  0  0  0  0
    9.3009   -0.1439   -2.3858 C   0  0  0  0  0  0  0  0  0  0  0  0
    7.9666   -0.5581   -2.5228 C   0  0  0  0  0  0  0  0  0  0  0  0
    7.6051   -1.9004   -2.7544 C   0  0  0  0  0  0  0  0  0  0  0  0
    8.6230   -2.8439   -2.8750 C   0  0  0  0  0  0  0  0  0  0  0  0
    9.9537   -2.4693   -2.7582 C   0  0  0  0  0  0  0  0  0  0  0  0
   10.3015   -1.1369   -2.4972 C   0  0  0  0  0  0  0  0  0  0  0  0
   10.3996    2.2295   -1.8095 C   0  0  0  0  0  0  0  0  0  0  0  0
   10.2368    3.0104   -0.8805 O   0  0  0  0  0  0  0  0  0  0  0  0
   11.6660    2.3674   -2.6111 C   0  0  0  0  0  0  0  0  0  0  0  0
   11.8495    1.6049   -3.7648 C   0  0  0  0  0  0  0  0  0  0  0  0
   12.9165    1.8669   -4.6148 C   0  0  0  0  0  0  0  0  0  0  0  0
   13.4962    3.1260   -4.5185 C   0  0  0  0  0  0  0  0  0  0  0  0
   13.0098    4.0550   -3.6182 C   0  0  0  0  0  0  0  0  0  0  0  0
   12.4984    3.5585   -2.4263 C   0  0  0  0  0  0  0  0  0  0  0  0
   12.8300    4.4232   -1.3332 C   0  0  0  0  0  0  0  0  0  0  0  0
   12.8513    5.8106   -1.5093 C   0  0  0  0  0  0  0  0  0  0  0  0
   12.5708    6.2955   -2.7783 C   0  0  0  0  0  0  0  0  0  0  0  0
   12.7971    5.4209   -3.8346 C   0  0  0  0  0  0  0  0  0  0  0  0
   14.9599    3.4570   -5.3783 Cl  0  0  0  0  0  0  0  0  0  0  0  0
    3.8183    1.6605    3.0730 H   0  0  0  0  0  0  0  0  0  0  0  0
    4.1139    2.9449    1.8889 H   0  0  0  0  0  0  0  0  0  0  0  0
    5.4695    1.9907    2.5234 H   0  0  0  0  0  0  0  0  0  0  0  0
    3.1791    0.9003    0.8018 H   0  0  0  0  0  0  0  0  0  0  0  0
    4.5065   -0.0628    1.4532 H   0  0  0  0  0  0  0  0  0  0  0  0
    6.1433    1.3411    0.1666 H   0  0  0  0  0  0  0  0  0  0  0  0
    4.8046    2.2680   -0.5185 H   0  0  0  0  0  0  0  0  0  0  0  0
    3.8697    0.1628   -1.5085 H   0  0  0  0  0  0  0  0  0  0  0  0
    5.2293   -0.7497   -0.8663 H   0  0  0  0  0  0  0  0  0  0  0  0
    5.4279    1.5604   -2.9028 H   0  0  0  0  0  0  0  0  0  0  0  0
    5.4634   -0.1487   -3.2960 H   0  0  0  0  0  0  0  0  0  0  0  0
    7.5227    2.6282   -1.9995 H   0  0  0  0  0  0  0  0  0  0  0  0
    6.5668   -2.2055   -2.8370 H   0  0  0  0  0  0  0  0  0  0  0  0
    8.3664   -3.8852   -3.0548 H   0  0  0  0  0  0  0  0  0  0  0  0
   10.7356   -3.2163   -2.8598 H   0  0  0  0  0  0  0  0  0  0  0  0
   11.3490   -0.8772   -2.3918 H   0  0  0  0  0  0  0  0  0  0  0  0
   11.1684    0.8039   -4.0502 H   0  0  0  0  0  0  0  0  0  0  0  0
   13.2184    1.1672   -5.3688 H   0  0  0  0  0  0  0  0  0  0  0  0
   13.2961    4.0085   -0.4460 H   0  0  0  0  0  0  0  0  0  0  0  0
   13.0716    6.4847   -0.6967 H   0  0  0  0  0  0  0  0  0  0  0  0
   12.2996    7.3218   -2.9416 H   0  0  0  0  0  0  0  0  0  0  0  0
   12.6937    5.7739   -4.8663 H   0  0  0  0  0  0  0  0  0  0  0  0
  1  2  1  0  0  0  0
  1 28  1  0  0  0  0
  1 29  1  0  0  0  0
  1 30  1  0  0  0  0
  2  3  1  0  0  0  0
  2 31  1  0  0  0  0
  2 32  1  0  0  0  0
  3  4  1  0  0  0  0
  3 33  1  0  0  0  0
  3 34  1  0  0  0  0
  4  5  1  0  0  0  0
  4 35  1  0  0  0  0
  4 36  1  0  0  0  0
  5  6  1  0  0  0  0
  5 37  1  0  0  0  0
  5 38  1  0  0  0  0
  6 10  1  0  0  0  0
  6  7  1  0  0  0  0
  7  8  2  0  0  0  0
  7 39  1  0  0  0  0
  8  9  1  0  0  0  0
  8 15  1  0  0  0  0
  9 14  2  0  0  0  0
  9 10  1  0  0  0  0
 10 11  2  0  0  0  0
 11 12  1  0  0  0  0
 11 40  1  0  0  0  0
 12 13  2  0  0  0  0
 12 41  1  0  0  0  0
 13 14  1  0  0  0  0
 13 42  1  0  0  0  0
 14 43  1  0  0  0  0
 15 16  2  0  0  0  0
 15 17  1  0  0  0  0
 17 22  2  0  0  0  0
 17 18  1  0  0  0  0
 18 19  2  0  0  0  0
 18 44  1  0  0  0  0
 19 20  1  0  0  0  0
 19 45  1  0  0  0  0
 20 21  2  0  0  0  0
 20 27  1  0  0  0  0
 21 26  1  0  0  0  0
 21 22  1  0  0  0  0
 22 23  1  0  0  0  0
 23 24  2  0  0  0  0
 23 46  1  0  0  0  0
 24 25  1  0  0  0  0
 24 47  1  0  0  0  0
 25 26  2  0  0  0  0
 25 48  1  0  0  0  0
 26 49  1  0  0  0  0
M  END
$$$$
CHEMBL2152804
 OpenBabel12022418103D

 64 68  0  0  1  0  0  0  0  0999 V2000
   -5.5435    5.5011   -1.8335 C   0  0  0  0  0  0  0  0  0  0  0  0
   -5.0353    4.1469   -1.4337 C   0  0  0  0  0  0  0  0  0  0  0  0
   -5.8874    3.0391   -1.4854 C   0  0  0  0  0  0  0  0  0  0  0  0
   -5.4317    1.7848   -1.0874 C   0  0  0  0  0  0  0  0  0  0  0  0
   -4.1249    1.6332   -0.6205 C   0  0  0  0  0  0  0  0  0  0  0  0
   -3.2466    2.7298   -0.5553 C   0  0  0  0  0  0  0  0  0  0  0  0
   -1.8546    2.4999    0.0077 C   0  0  0  0  0  0  0  0  0  0  0  0
   -0.9624    3.6825    0.0110 N   0  0  0  0  0  0  0  0  0  0  0  0
    0.0300    3.8260   -0.9560 C   0  0  0  0  0  0  0  0  0  0  0  0
    0.9866    4.7674   -0.9964 C   0  0  0  0  0  0  0  0  0  0  0  0
    2.0244    4.7102   -2.0720 C   0  0  0  0  0  0  0  0  0  0  0  0
    2.0002    3.8495   -2.9453 O   0  0  0  0  0  0  0  0  0  0  0  0
    3.0022    5.6734   -1.9810 N   0  0  0  0  0  0  0  0  0  0  0  0
    4.1504    5.7433   -2.8605 C   0  0  1  0  0  0  0  0  0  0  0  0
    4.7029    7.1904   -3.1307 C   0  0  0  0  0  0  0  0  0  0  0  0
    4.4892    7.5625   -4.6135 C   0  0  0  0  0  0  0  0  0  0  0  0
    4.0646    8.3139   -2.2963 C   0  0  0  0  0  0  0  0  0  0  0  0
    6.2302    7.0091   -2.8374 C   0  0  1  0  0  0  0  0  0  0  0  0
    6.5092    6.8956   -1.3284 C   0  0  0  0  0  0  0  0  0  0  0  0
    5.8627    5.5544   -0.9600 C   0  0  0  0  0  0  0  0  0  0  0  0
    5.4115    4.9899   -2.3292 C   0  0  1  0  0  0  0  0  0  0  0  0
    5.3124    3.4769   -2.3468 C   0  0  0  0  0  0  0  0  0  0  0  0
    6.4918    5.5581   -3.2614 C   0  0  0  0  0  0  0  0  0  0  0  0
    0.9580    5.7864    0.0782 C   0  0  0  0  0  0  0  0  0  0  0  0
    1.7894    6.6908    0.1309 O   0  0  0  0  0  0  0  0  0  0  0  0
   -0.0961    5.6826    1.1155 C   0  0  0  0  0  0  0  0  0  0  0  0
   -0.1292    6.6585    2.1263 C   0  0  0  0  0  0  0  0  0  0  0  0
   -1.0801    6.5740    3.1377 C   0  0  0  0  0  0  0  0  0  0  0  0
   -1.9793    5.5203    3.1254 C   0  0  0  0  0  0  0  0  0  0  0  0
   -1.9606    4.5537    2.1166 C   0  0  0  0  0  0  0  0  0  0  0  0
   -1.0185    4.6115    1.0777 C   0  0  0  0  0  0  0  0  0  0  0  0
   -2.8888    5.4275    4.1042 F   0  0  0  0  0  0  0  0  0  0  0  0
   -3.7151    3.9794   -0.9877 C   0  0  0  0  0  0  0  0  0  0  0  0
   -4.7749    6.2709   -1.7084 H   0  0  0  0  0  0  0  0  0  0  0  0
   -6.3966    5.7791   -1.2057 H   0  0  0  0  0  0  0  0  0  0  0  0
   -5.8530    5.4986   -2.8834 H   0  0  0  0  0  0  0  0  0  0  0  0
   -6.9120    3.1510   -1.8337 H   0  0  0  0  0  0  0  0  0  0  0  0
   -6.0977    0.9268   -1.1321 H   0  0  0  0  0  0  0  0  0  0  0  0
   -3.7958    0.6451   -0.3028 H   0  0  0  0  0  0  0  0  0  0  0  0
   -1.3887    1.7030   -0.5888 H   0  0  0  0  0  0  0  0  0  0  0  0
   -1.9375    2.0832    1.0197 H   0  0  0  0  0  0  0  0  0  0  0  0
   -0.0061    3.0564   -1.7262 H   0  0  0  0  0  0  0  0  0  0  0  0
    2.9594    6.3007   -1.1780 H   0  0  0  0  0  0  0  0  0  0  0  0
    3.8563    5.2831   -3.8140 H   0  0  0  0  0  0  0  0  0  0  0  0
    3.4211    7.6581   -4.8402 H   0  0  0  0  0  0  0  0  0  0  0  0
    4.9011    6.8129   -5.2963 H   0  0  0  0  0  0  0  0  0  0  0  0
    4.9695    8.5189   -4.8487 H   0  0  0  0  0  0  0  0  0  0  0  0
    3.0184    8.4705   -2.5799 H   0  0  0  0  0  0  0  0  0  0  0  0
    4.5960    9.2605   -2.4534 H   0  0  0  0  0  0  0  0  0  0  0  0
    4.0762    8.1102   -1.2216 H   0  0  0  0  0  0  0  0  0  0  0  0
    6.8666    7.7476   -3.3318 H   0  0  0  0  0  0  0  0  0  0  0  0
    6.1315    7.7286   -0.7320 H   0  0  0  0  0  0  0  0  0  0  0  0
    7.5909    6.8439   -1.1500 H   0  0  0  0  0  0  0  0  0  0  0  0
    5.0334    5.6805   -0.2575 H   0  0  0  0  0  0  0  0  0  0  0  0
    6.6059    4.9063   -0.4801 H   0  0  0  0  0  0  0  0  0  0  0  0
    4.6331    3.1152   -1.5687 H   0  0  0  0  0  0  0  0  0  0  0  0
    6.2933    3.0205   -2.1690 H   0  0  0  0  0  0  0  0  0  0  0  0
    4.9517    3.1125   -3.3136 H   0  0  0  0  0  0  0  0  0  0  0  0
    7.5030    5.2141   -3.0144 H   0  0  0  0  0  0  0  0  0  0  0  0
    6.3033    5.3602   -4.3209 H   0  0  0  0  0  0  0  0  0  0  0  0
    0.5858    7.4790    2.1264 H   0  0  0  0  0  0  0  0  0  0  0  0
   -1.1213    7.3191    3.9253 H   0  0  0  0  0  0  0  0  0  0  0  0
   -2.7118    3.7744    2.1768 H   0  0  0  0  0  0  0  0  0  0  0  0
   -3.0562    4.8444   -0.9693 H   0  0  0  0  0  0  0  0  0  0  0  0
  1  2  1  0  0  0  0
  1 34  1  0  0  0  0
  1 35  1  0  0  0  0
  1 36  1  0  0  0  0
  2 33  2  0  0  0  0
  2  3  1  0  0  0  0
  3  4  2  0  0  0  0
  3 37  1  0  0  0  0
  4  5  1  0  0  0  0
  4 38  1  0  0  0  0
  5  6  2  0  0  0  0
  5 39  1  0  0  0  0
  6  7  1  0  0  0  0
  6 33  1  0  0  0  0
  7  8  1  0  0  0  0
  7 40  1  0  0  0  0
  7 41  1  0  0  0  0
  8 31  1  0  0  0  0
  8  9  1  0  0  0  0
  9 10  2  0  0  0  0
  9 42  1  0  0  0  0
 10 11  1  0  0  0  0
 10 24  1  0  0  0  0
 11 12  2  0  0  0  0
 11 13  1  0  0  0  0
 13 43  1  0  0  0  0
 14 13  1  0  0  0  0
 14 15  1  0  0  0  0
 14 21  1  0  0  0  0
 14 44  1  6  0  0  0
 15 16  1  0  0  0  0
 15 17  1  0  0  0  0
 15 18  1  0  0  0  0
 16 45  1  0  0  0  0
 16 46  1  0  0  0  0
 16 47  1  0  0  0  0
 17 48  1  0  0  0  0
 17 49  1  0  0  0  0
 17 50  1  0  0  0  0
 18 19  1  0  0  0  0
 18 23  1  0  0  0  0
 18 51  1  6  0  0  0
 19 20  1  0  0  0  0
 19 52  1  0  0  0  0
 19 53  1  0  0  0  0
 20 21  1  0  0  0  0
 20 54  1  0  0  0  0
 20 55  1  0  0  0  0
 21 22  1  6  0  0  0
 21 23  1  0  0  0  0
 22 56  1  0  0  0  0
 22 57  1  0  0  0  0
 22 58  1  0  0  0  0
 23 59  1  0  0  0  0
 23 60  1  0  0  0  0
 24 25  2  0  0  0  0
 24 26  1  0  0  0  0
 26 31  2  0  0  0  0
 26 27  1  0  0  0  0
 27 28  2  0  0  0  0
 27 61  1  0  0  0  0
 28 29  1  0  0  0  0
 28 62  1  0  0  0  0
 29 30  2  0  0  0  0
 29 32  1  0  0  0  0
 30 31  1  0  0  0  0
 30 63  1  0  0  0  0
 33 64  1  0  0  0  0
M  END
$$$$
CHEMBL1095690
 OpenBabel12022418103D

 65 70  0  0  1  0  0  0  0  0999 V2000
    8.5627   -2.8000   -8.1592 O   0  0  0  0  0  0  0  0  0  0  0  0
    8.9927   -2.0651   -7.2558 C   0  0  0  0  0  0  0  0  0  0  0  0
   10.1667   -1.0995   -7.5886 C   0  0  1  0  0  0  0  0  0  0  0  0
   10.8612   -1.6786   -8.8710 C   0  0  0  0  0  0  0  0  0  0  0  0
   12.0063   -0.7838   -9.3584 C   0  0  2  0  0  0  0  0  0  0  0  0
   13.0584   -0.6551   -8.2514 C   0  0  0  0  0  0  0  0  0  0  0  0
   12.4147   -0.0509   -7.0011 C   0  0  1  0  0  0  0  0  0  0  0  0
   11.8345    1.3359   -7.3389 C   0  0  0  0  0  0  0  0  0  0  0  0
   10.7757    1.2131   -8.4461 C   0  0  1  0  0  0  0  0  0  0  0  0
   11.4311    0.5986   -9.6951 C   0  0  0  0  0  0  0  0  0  0  0  0
    9.6314    0.3061   -7.9492 C   0  0  0  0  0  0  0  0  0  0  0  0
   11.2865   -0.9837   -6.5215 C   0  0  0  0  0  0  0  0  0  0  0  0
    8.3704   -2.0997   -6.0260 N   0  0  0  0  0  0  0  0  0  0  0  0
    8.4962   -1.1815   -4.9035 C   0  0  0  0  0  0  0  0  0  0  0  0
    7.1604   -0.4919   -4.5886 C   0  0  0  0  0  0  0  0  0  0  0  0
    5.9771   -1.3582   -4.5250 N   0  0  0  0  0  0  0  0  0  0  0  0
    4.7038   -0.5660   -4.4896 C   0  0  2  0  0  0  0  0  0  0  0  0
    3.4827   -1.4416   -4.1419 C   0  0  0  0  0  0  0  0  0  0  0  0
    3.5748   -2.3402   -3.0609 C   0  0  0  0  0  0  0  0  0  0  0  0
    2.5140   -3.1946   -2.7405 C   0  0  0  0  0  0  0  0  0  0  0  0
    1.3421   -3.1568   -3.4947 C   0  0  0  0  0  0  0  0  0  0  0  0
    1.2127   -2.2469   -4.5320 C   0  0  0  0  0  0  0  0  0  0  0  0
    2.2607   -1.3766   -4.8345 C   0  0  0  0  0  0  0  0  0  0  0  0
    4.5144    0.4071   -5.6821 C   0  0  0  0  0  0  0  0  0  0  0  0
    4.2214   -0.0819   -6.9786 C   0  0  0  0  0  0  0  0  0  0  0  0
    4.0274    0.7692   -8.0674 C   0  0  0  0  0  0  0  0  0  0  0  0
    4.1111    2.1403   -7.8890 C   0  0  0  0  0  0  0  0  0  0  0  0
    4.4105    2.6639   -6.6363 C   0  0  0  0  0  0  0  0  0  0  0  0
    4.6169    1.8080   -5.5435 C   0  0  0  0  0  0  0  0  0  0  0  0
    5.0146    2.5758   -4.0442 Cl  0  0  0  0  0  0  0  0  0  0  0  0
    3.8252    3.1919   -9.2186 Cl  0  0  0  0  0  0  0  0  0  0  0  0
    5.9823   -2.5000   -5.4546 C   0  0  0  0  0  0  0  0  0  0  0  0
    7.3511   -3.1214   -5.7802 C   0  0  0  0  0  0  0  0  0  0  0  0
   10.1364   -1.7908   -9.6882 H   0  0  0  0  0  0  0  0  0  0  0  0
   11.2441   -2.6862   -8.6579 H   0  0  0  0  0  0  0  0  0  0  0  0
   12.4652   -1.2249  -10.2500 H   0  0  0  0  0  0  0  0  0  0  0  0
   13.8907   -0.0267   -8.5888 H   0  0  0  0  0  0  0  0  0  0  0  0
   13.4786   -1.6406   -8.0127 H   0  0  0  0  0  0  0  0  0  0  0  0
   13.1661    0.0516   -6.2101 H   0  0  0  0  0  0  0  0  0  0  0  0
   12.6388    2.0064   -7.6669 H   0  0  0  0  0  0  0  0  0  0  0  0
   11.3883    1.7887   -6.4451 H   0  0  0  0  0  0  0  0  0  0  0  0
   10.3790    2.2043   -8.6941 H   0  0  0  0  0  0  0  0  0  0  0  0
   10.6934    0.5102  -10.5021 H   0  0  0  0  0  0  0  0  0  0  0  0
   12.2292    1.2541  -10.0644 H   0  0  0  0  0  0  0  0  0  0  0  0
    9.1432    0.7725   -7.0857 H   0  0  0  0  0  0  0  0  0  0  0  0
    8.8599    0.2298   -8.7274 H   0  0  0  0  0  0  0  0  0  0  0  0
   11.6825   -1.9790   -6.2843 H   0  0  0  0  0  0  0  0  0  0  0  0
   10.9489   -0.5740   -5.5734 H   0  0  0  0  0  0  0  0  0  0  0  0
    9.1949   -0.3819   -5.1019 H   0  0  0  0  0  0  0  0  0  0  0  0
    8.8528   -1.7612   -4.0443 H   0  0  0  0  0  0  0  0  0  0  0  0
    7.0388    0.2782   -5.3557 H   0  0  0  0  0  0  0  0  0  0  0  0
    7.2714    0.0239   -3.6262 H   0  0  0  0  0  0  0  0  0  0  0  0
    4.7907    0.0494   -3.5858 H   0  0  0  0  0  0  0  0  0  0  0  0
    4.4908   -2.3903   -2.4753 H   0  0  0  0  0  0  0  0  0  0  0  0
    2.6143   -3.9006   -1.9205 H   0  0  0  0  0  0  0  0  0  0  0  0
    0.5283   -3.8410   -3.2664 H   0  0  0  0  0  0  0  0  0  0  0  0
    0.2916   -2.2025   -5.1113 H   0  0  0  0  0  0  0  0  0  0  0  0
    2.0936   -0.6607   -5.6318 H   0  0  0  0  0  0  0  0  0  0  0  0
    4.0961   -1.1455   -7.1559 H   0  0  0  0  0  0  0  0  0  0  0  0
    3.7953    0.3468   -9.0423 H   0  0  0  0  0  0  0  0  0  0  0  0
    4.4802    3.7412   -6.5082 H   0  0  0  0  0  0  0  0  0  0  0  0
    5.5504   -2.2334   -6.4146 H   0  0  0  0  0  0  0  0  0  0  0  0
    5.3596   -3.3029   -5.0407 H   0  0  0  0  0  0  0  0  0  0  0  0
    7.7019   -3.7363   -4.9435 H   0  0  0  0  0  0  0  0  0  0  0  0
    7.2314   -3.7955   -6.6355 H   0  0  0  0  0  0  0  0  0  0  0  0
  1  2  2  0  0  0  0
  2 13  1  0  0  0  0
  3  2  1  1  0  0  0
  3 11  1  0  0  0  0
  3 12  1  0  0  0  0
  3  4  1  0  0  0  0
  4 34  1  0  0  0  0
  4 35  1  0  0  0  0
  5  4  1  0  0  0  0
  5  6  1  0  0  0  0
  5 10  1  0  0  0  0
  5 36  1  6  0  0  0
  6 37  1  0  0  0  0
  6 38  1  0  0  0  0
  7  6  1  0  0  0  0
  7  8  1  0  0  0  0
  7 12  1  0  0  0  0
  7 39  1  1  0  0  0
  8 40  1  0  0  0  0
  8 41  1  0  0  0  0
  9  8  1  0  0  0  0
  9 10  1  0  0  0  0
  9 11  1  0  0  0  0
  9 42  1  6  0  0  0
 10 43  1  0  0  0  0
 10 44  1  0  0  0  0
 11 45  1  0  0  0  0
 11 46  1  0  0  0  0
 12 47  1  0  0  0  0
 12 48  1  0  0  0  0
 13 33  1  0  0  0  0
 13 14  1  0  0  0  0
 14 15  1  0  0  0  0
 14 49  1  0  0  0  0
 14 50  1  0  0  0  0
 15 16  1  0  0  0  0
 15 51  1  0  0  0  0
 15 52  1  0  0  0  0
 16 32  1  0  0  0  0
 17 24  1  0  0  0  0
 17 18  1  0  0  0  0
 17 16  1  0  0  0  0
 17 53  1  1  0  0  0
 18 23  2  0  0  0  0
 18 19  1  0  0  0  0
 19 20  2  0  0  0  0
 19 54  1  0  0  0  0
 20 21  1  0  0  0  0
 20 55  1  0  0  0  0
 21 22  2  0  0  0  0
 21 56  1  0  0  0  0
 22 23  1  0  0  0  0
 22 57  1  0  0  0  0
 23 58  1  0  0  0  0
 24 29  2  0  0  0  0
 24 25  1  0  0  0  0
 25 26  2  0  0  0  0
 25 59  1  0  0  0  0
 26 27  1  0  0  0  0
 26 60  1  0  0  0  0
 27 28  2  0  0  0  0
 27 31  1  0  0  0  0
 28 29  1  0  0  0  0
 28 61  1  0  0  0  0
 29 30  1  0  0  0  0
 32 33  1  0  0  0  0
 32 62  1  0  0  0  0
 32 63  1  0  0  0  0
 33 64  1  0  0  0  0
 33 65  1  0  0  0  0
M  END
$$$$
CHEMBL540759
 OpenBabel12022418103D

 56 59  0  0  0  0  0  0  0  0999 V2000
    4.7111   -3.5712    1.9233 C   0  0  0  0  0  0  0  0  0  0  0  0
    4.4810   -2.1068    2.2471 C   0  0  0  0  0  0  0  0  0  0  0  0
    5.0121   -1.1921    1.1437 C   0  0  0  0  0  0  0  0  0  0  0  0
    4.8412    0.2906    1.4805 C   0  0  0  0  0  0  0  0  0  0  0  0
    5.5759    0.7535    2.7485 C   0  0  0  0  0  0  0  0  0  0  0  0
    7.0349    0.7521    2.6651 N   0  0  0  0  0  0  0  0  0  0  0  0
    7.8926   -0.2049    3.1976 C   0  0  0  0  0  0  0  0  0  0  0  0
    9.2246    0.1739    3.0217 C   0  0  0  0  0  0  0  0  0  0  0  0
   10.5580   -0.4832    3.3807 C   0  0  0  0  0  0  0  0  0  0  0  0
   11.5740    0.1157    3.0256 O   0  0  0  0  0  0  0  0  0  0  0  0
   10.8082   -1.8057    4.1684 C   0  0  0  0  0  0  0  0  0  0  0  0
    9.7209   -2.5106    4.6801 C   0  0  0  0  0  0  0  0  0  0  0  0
    9.8791   -3.6539    5.4737 C   0  0  0  0  0  0  0  0  0  0  0  0
   11.1336   -4.1776    5.7859 C   0  0  0  0  0  0  0  0  0  0  0  0
   12.2792   -3.5958    5.2050 C   0  0  0  0  0  0  0  0  0  0  0  0
   13.5513   -4.2164    5.3389 C   0  0  0  0  0  0  0  0  0  0  0  0
   14.7192   -3.6678    4.8138 C   0  0  0  0  0  0  0  0  0  0  0  0
   14.6404   -2.4847    4.1158 C   0  0  0  0  0  0  0  0  0  0  0  0
   13.3910   -1.8669    3.9267 C   0  0  0  0  0  0  0  0  0  0  0  0
   12.1475   -2.3818    4.4190 C   0  0  0  0  0  0  0  0  0  0  0  0
   11.0402   -5.3003    6.5779 O   0  0  0  0  0  0  0  0  0  0  0  0
   12.0110   -5.5472    7.6007 C   0  0  0  0  0  0  0  0  0  0  0  0
   11.3410   -6.2089    8.7978 C   0  0  0  0  0  0  0  0  0  0  0  0
    9.1058    1.4873    2.3492 C   0  0  0  0  0  0  0  0  0  0  0  0
   10.0447    2.4549    1.9044 C   0  0  0  0  0  0  0  0  0  0  0  0
    9.6170    3.6566    1.3034 C   0  0  0  0  0  0  0  0  0  0  0  0
    8.2658    3.9189    1.1269 C   0  0  0  0  0  0  0  0  0  0  0  0
    7.3168    2.9913    1.5432 C   0  0  0  0  0  0  0  0  0  0  0  0
    7.7604    1.7950    2.1452 C   0  0  0  0  0  0  0  0  0  0  0  0
    4.3447   -4.1972    2.7430 H   0  0  0  0  0  0  0  0  0  0  0  0
    5.7785   -3.7749    1.7924 H   0  0  0  0  0  0  0  0  0  0  0  0
    4.1861   -3.8606    1.0084 H   0  0  0  0  0  0  0  0  0  0  0  0
    4.9761   -1.8917    3.1982 H   0  0  0  0  0  0  0  0  0  0  0  0
    3.4088   -1.9288    2.3950 H   0  0  0  0  0  0  0  0  0  0  0  0
    4.4662   -1.4020    0.2123 H   0  0  0  0  0  0  0  0  0  0  0  0
    6.0698   -1.4069    0.9424 H   0  0  0  0  0  0  0  0  0  0  0  0
    3.7688    0.4987    1.6049 H   0  0  0  0  0  0  0  0  0  0  0  0
    5.1635    0.8862    0.6167 H   0  0  0  0  0  0  0  0  0  0  0  0
    5.2807    0.1834    3.6327 H   0  0  0  0  0  0  0  0  0  0  0  0
    5.2712    1.7878    2.9585 H   0  0  0  0  0  0  0  0  0  0  0  0
    7.4254   -1.0635    3.6491 H   0  0  0  0  0  0  0  0  0  0  0  0
    8.7063   -2.2120    4.4951 H   0  0  0  0  0  0  0  0  0  0  0  0
    8.9931   -4.1525    5.8571 H   0  0  0  0  0  0  0  0  0  0  0  0
   13.6696   -5.1732    5.8217 H   0  0  0  0  0  0  0  0  0  0  0  0
   15.6705   -4.1758    4.9508 H   0  0  0  0  0  0  0  0  0  0  0  0
   15.5439   -2.0424    3.6957 H   0  0  0  0  0  0  0  0  0  0  0  0
   13.4192   -0.9626    3.3252 H   0  0  0  0  0  0  0  0  0  0  0  0
   12.5206   -4.6353    7.9306 H   0  0  0  0  0  0  0  0  0  0  0  0
   12.7386   -6.2706    7.2190 H   0  0  0  0  0  0  0  0  0  0  0  0
   10.6087   -5.5409    9.2589 H   0  0  0  0  0  0  0  0  0  0  0  0
   12.0861   -6.4851    9.5538 H   0  0  0  0  0  0  0  0  0  0  0  0
   10.8087   -7.1173    8.4953 H   0  0  0  0  0  0  0  0  0  0  0  0
   11.1107    2.2881    2.0293 H   0  0  0  0  0  0  0  0  0  0  0  0
   10.3492    4.3873    0.9786 H   0  0  0  0  0  0  0  0  0  0  0  0
    7.9458    4.8495    0.6630 H   0  0  0  0  0  0  0  0  0  0  0  0
    6.2603    3.2037    1.4062 H   0  0  0  0  0  0  0  0  0  0  0  0
  1  2  1  0  0  0  0
  1 30  1  0  0  0  0
  1 31  1  0  0  0  0
  1 32  1  0  0  0  0
  2  3  1  0  0  0  0
  2 33  1  0  0  0  0
  2 34  1  0  0  0  0
  3  4  1  0  0  0  0
  3 35  1  0  0  0  0
  3 36  1  0  0  0  0
  4  5  1  0  0  0  0
  4 37  1  0  0  0  0
  4 38  1  0  0  0  0
  5  6  1  0  0  0  0
  5 39  1  0  0  0  0
  5 40  1  0  0  0  0
  6 29  1  0  0  0  0
  6  7  1  0  0  0  0
  7  8  2  0  0  0  0
  7 41  1  0  0  0  0
  8  9  1  0  0  0  0
  8 24  1  0  0  0  0
  9 10  2  0  0  0  0
  9 11  1  0  0  0  0
 11 20  2  0  0  0  0
 11 12  1  0  0  0  0
 12 13  2  0  0  0  0
 12 42  1  0  0  0  0
 13 14  1  0  0  0  0
 13 43  1  0  0  0  0
 14 15  2  0  0  0  0
 14 21  1  0  0  0  0
 15 20  1  0  0  0  0
 15 16  1  0  0  0  0
 16 17  2  0  0  0  0
 16 44  1  0  0  0  0
 17 18  1  0  0  0  0
 17 45  1  0  0  0  0
 18 19  2  0  0  0  0
 18 46  1  0  0  0  0
 19 20  1  0  0  0  0
 19 47  1  0  0  0  0
 21 22  1  0  0  0  0
 22 23  1  0  0  0  0
 22 48  1  0  0  0  0
 22 49  1  0  0  0  0
 23 50  1  0  0  0  0
 23 51  1  0  0  0  0
 23 52  1  0  0  0  0
 24 29  2  0  0  0  0
 24 25  1  0  0  0  0
 25 26  2  0  0  0  0
 25 53  1  0  0  0  0
 26 27  1  0  0  0  0
 26 54  1  0  0  0  0
 27 28  2  0  0  0  0
 27 55  1  0  0  0  0
 28 29  1  0  0  0  0
 28 56  1  0  0  0  0
M  END
$$$$
CHEMBL232411
 OpenBabel12022418103D

 56 57  0  0  0  0  0  0  0  0999 V2000
    7.0776   -4.0610    1.5985 C   0  0  0  0  0  0  0  0  0  0  0  0
    6.5762   -2.7057    1.1324 C   0  0  0  0  0  0  0  0  0  0  0  0
    7.0342   -2.4223   -0.2919 C   0  0  0  0  0  0  0  0  0  0  0  0
    6.5422   -1.0690   -0.8063 C   0  0  0  0  0  0  0  0  0  0  0  0
    7.0220   -0.8667   -2.2426 C   0  0  0  0  0  0  0  0  0  0  0  0
    6.5588    0.4655   -2.8488 C   0  0  0  0  0  0  0  0  0  0  0  0
    7.0944    0.7150   -4.2946 C   0  0  0  0  0  0  0  0  0  0  0  0
    6.4811   -0.3304   -5.2602 C   0  0  0  0  0  0  0  0  0  0  0  0
    6.5889    2.0927   -4.7894 C   0  0  0  0  0  0  0  0  0  0  0  0
    8.6323    0.7033   -4.2781 C   0  0  0  0  0  0  0  0  0  0  0  0
    9.3797   -0.3154   -4.8802 C   0  0  0  0  0  0  0  0  0  0  0  0
   10.7761   -0.3537   -4.7759 C   0  0  0  0  0  0  0  0  0  0  0  0
   11.5148    0.6640   -4.1525 C   0  0  0  0  0  0  0  0  0  0  0  0
   13.0085    0.6189   -4.1488 C   0  0  0  0  0  0  0  0  0  0  0  0
   13.7023    0.9394   -2.9565 C   0  0  0  0  0  0  0  0  0  0  0  0
   15.1004    1.0151   -2.8925 C   0  0  0  0  0  0  0  0  0  0  0  0
   15.7958    1.4864   -1.6511 C   0  0  0  0  0  0  0  0  0  0  0  0
   15.8459    0.6504   -4.0079 C   0  0  0  0  0  0  0  0  0  0  0  0
   15.2010    0.2703   -5.1803 C   0  0  0  0  0  0  0  0  0  0  0  0
   13.7943    0.2840   -5.2828 C   0  0  0  0  0  0  0  0  0  0  0  0
   13.2455   -0.1090   -6.6306 C   0  0  0  0  0  0  0  0  0  0  0  0
   10.7522    1.6809   -3.5428 C   0  0  0  0  0  0  0  0  0  0  0  0
    9.3507    1.6844   -3.5781 C   0  0  0  0  0  0  0  0  0  0  0  0
   11.3004    2.7509   -2.8803 O   0  0  0  0  0  0  0  0  0  0  0  0
    6.7452   -4.2592    2.6179 H   0  0  0  0  0  0  0  0  0  0  0  0
    8.1723   -4.1038    1.5864 H   0  0  0  0  0  0  0  0  0  0  0  0
    6.6983   -4.8651    0.9583 H   0  0  0  0  0  0  0  0  0  0  0  0
    6.9472   -1.9306    1.8124 H   0  0  0  0  0  0  0  0  0  0  0  0
    5.4810   -2.6901    1.1860 H   0  0  0  0  0  0  0  0  0  0  0  0
    6.6738   -3.2188   -0.9556 H   0  0  0  0  0  0  0  0  0  0  0  0
    8.1354   -2.4511   -0.3360 H   0  0  0  0  0  0  0  0  0  0  0  0
    6.9253   -0.2645   -0.1670 H   0  0  0  0  0  0  0  0  0  0  0  0
    5.4480   -1.0289   -0.7682 H   0  0  0  0  0  0  0  0  0  0  0  0
    6.6544   -1.6997   -2.8513 H   0  0  0  0  0  0  0  0  0  0  0  0
    8.1158   -0.9236   -2.2459 H   0  0  0  0  0  0  0  0  0  0  0  0
    6.8739    1.2824   -2.1859 H   0  0  0  0  0  0  0  0  0  0  0  0
    5.4610    0.4909   -2.8580 H   0  0  0  0  0  0  0  0  0  0  0  0
    5.3866   -0.2730   -5.2603 H   0  0  0  0  0  0  0  0  0  0  0  0
    6.7454   -1.3585   -4.9936 H   0  0  0  0  0  0  0  0  0  0  0  0
    6.8190   -0.1650   -6.2905 H   0  0  0  0  0  0  0  0  0  0  0  0
    5.4974    2.0984   -4.8949 H   0  0  0  0  0  0  0  0  0  0  0  0
    7.0164    2.3437   -5.7677 H   0  0  0  0  0  0  0  0  0  0  0  0
    6.8457    2.9050   -4.1008 H   0  0  0  0  0  0  0  0  0  0  0  0
    8.9026   -1.1207   -5.4311 H   0  0  0  0  0  0  0  0  0  0  0  0
   11.2850   -1.2084   -5.2176 H   0  0  0  0  0  0  0  0  0  0  0  0
   13.1368    1.1477   -2.0478 H   0  0  0  0  0  0  0  0  0  0  0  0
   15.0814    1.8420   -0.9014 H   0  0  0  0  0  0  0  0  0  0  0  0
   16.4574    2.3255   -1.8936 H   0  0  0  0  0  0  0  0  0  0  0  0
   16.3861    0.6785   -1.2109 H   0  0  0  0  0  0  0  0  0  0  0  0
   16.9323    0.6672   -3.9753 H   0  0  0  0  0  0  0  0  0  0  0  0
   15.8055   -0.0229   -6.0375 H   0  0  0  0  0  0  0  0  0  0  0  0
   12.2325    0.2578   -6.8101 H   0  0  0  0  0  0  0  0  0  0  0  0
   13.2598   -1.2003   -6.7316 H   0  0  0  0  0  0  0  0  0  0  0  0
   13.8590    0.3187   -7.4316 H   0  0  0  0  0  0  0  0  0  0  0  0
    8.8297    2.4784   -3.0470 H   0  0  0  0  0  0  0  0  0  0  0  0
   12.2172    2.8542   -3.1840 H   0  0  0  0  0  0  0  0  0  0  0  0
  1  2  1  0  0  0  0
  1 25  1  0  0  0  0
  1 26  1  0  0  0  0
  1 27  1  0  0  0  0
  2  3  1  0  0  0  0
  2 28  1  0  0  0  0
  2 29  1  0  0  0  0
  3  4  1  0  0  0  0
  3 30  1  0  0  0  0
  3 31  1  0  0  0  0
  4  5  1  0  0  0  0
  4 32  1  0  0  0  0
  4 33  1  0  0  0  0
  5  6  1  0  0  0  0
  5 34  1  0  0  0  0
  5 35  1  0  0  0  0
  6  7  1  0  0  0  0
  6 36  1  0  0  0  0
  6 37  1  0  0  0  0
  7  8  1  0  0  0  0
  7  9  1  0  0  0  0
  7 10  1  0  0  0  0
  8 38  1  0  0  0  0
  8 39  1  0  0  0  0
  8 40  1  0  0  0  0
  9 41  1  0  0  0  0
  9 42  1  0  0  0  0
  9 43  1  0  0  0  0
 10 23  2  0  0  0  0
 10 11  1  0  0  0  0
 11 12  2  0  0  0  0
 11 44  1  0  0  0  0
 12 13  1  0  0  0  0
 12 45  1  0  0  0  0
 13 14  1  0  0  0  0
 13 22  2  0  0  0  0
 14 20  2  0  0  0  0
 14 15  1  0  0  0  0
 15 16  2  0  0  0  0
 15 46  1  0  0  0  0
 16 17  1  0  0  0  0
 16 18  1  0  0  0  0
 17 47  1  0  0  0  0
 17 48  1  0  0  0  0
 17 49  1  0  0  0  0
 18 19  2  0  0  0  0
 18 50  1  0  0  0  0
 19 20  1  0  0  0  0
 19 51  1  0  0  0  0
 20 21  1  0  0  0  0
 21 52  1  0  0  0  0
 21 53  1  0  0  0  0
 21 54  1  0  0  0  0
 22 23  1  0  0  0  0
 22 24  1  0  0  0  0
 23 55  1  0  0  0  0
 24 56  1  0  0  0  0
M  END
$$$$
CHEMBL575382
 OpenBabel12022418103D

 64 69  0  0  1  0  0  0  0  0999 V2000
    4.2259   -2.8678   -4.1239 C   0  0  0  0  0  0  0  0  0  0  0  0
    3.0464   -2.3370   -4.9600 C   0  0  1  0  0  0  0  0  0  0  0  0
    1.7614   -2.2882   -4.1034 C   0  0  0  0  0  0  0  0  0  0  0  0
    1.9942   -1.3514   -2.8680 C   0  0  1  0  0  0  0  0  0  0  0  0
    3.1769   -1.9441   -2.0621 C   0  0  0  0  0  0  0  0  0  0  0  0
    4.4526   -1.9650   -2.8975 C   0  0  2  0  0  0  0  0  0  0  0  0
    4.7575   -0.5237   -3.3269 C   0  0  0  0  0  0  0  0  0  0  0  0
    3.6447    0.0029   -4.2465 C   0  0  1  0  0  0  0  0  0  0  0  0
    3.4499   -0.9332   -5.4493 C   0  0  0  0  0  0  0  0  0  0  0  0
    2.3388    0.0467   -3.4523 C   0  0  0  0  0  0  0  0  0  0  0  0
    0.8575   -1.1687   -1.9692 N   0  0  0  0  0  0  0  0  0  0  0  0
    0.3822   -2.1117   -1.0805 C   0  0  0  0  0  0  0  0  0  0  0  0
    0.5940   -3.3137   -1.1535 O   0  0  0  0  0  0  0  0  0  0  0  0
   -0.5072   -1.5016   -0.0704 C   0  0  0  0  0  0  0  0  0  0  0  0
   -1.6978   -2.0869    0.4680 C   0  0  0  0  0  0  0  0  0  0  0  0
   -2.4886   -0.9636    0.3487 C   0  0  0  0  0  0  0  0  0  0  0  0
   -1.6597    0.0233    0.8413 N   0  0  0  0  0  0  0  0  0  0  0  0
   -1.9531    1.0809    1.7483 C   0  0  0  0  0  0  0  0  0  0  0  0
   -3.2216    1.2114    2.3418 C   0  0  0  0  0  0  0  0  0  0  0  0
   -3.4998    2.2997    3.1821 C   0  0  0  0  0  0  0  0  0  0  0  0
   -2.5050    3.2428    3.4590 C   0  0  0  0  0  0  0  0  0  0  0  0
   -1.2268    3.0748    2.9220 C   0  0  0  0  0  0  0  0  0  0  0  0
   -0.9477    1.9962    2.0766 C   0  0  0  0  0  0  0  0  0  0  0  0
   -2.7853    4.6368    4.4413 Cl  0  0  0  0  0  0  0  0  0  0  0  0
   -5.0954    2.4300    3.8388 Cl  0  0  0  0  0  0  0  0  0  0  0  0
   -0.4371   -0.1842    0.2710 N   0  0  0  0  0  0  0  0  0  0  0  0
   -3.5887   -0.7172   -0.4681 N   0  0  0  0  0  0  0  0  0  0  0  0
   -4.0943    0.5081   -0.8765 C   0  0  0  0  0  0  0  0  0  0  0  0
   -5.4470    0.2740   -1.0429 C   0  0  0  0  0  0  0  0  0  0  0  0
   -5.5218   -1.1040   -1.4163 C   0  0  0  0  0  0  0  0  0  0  0  0
   -4.2102   -1.5623   -1.3735 C   0  0  0  0  0  0  0  0  0  0  0  0
   -3.4695   -2.4157   -2.3447 C   0  0  0  0  0  0  0  0  0  0  0  0
   -3.2384    1.6020   -1.4184 C   0  0  0  0  0  0  0  0  0  0  0  0
   -2.0322   -3.5131    0.6567 C   0  0  0  0  0  0  0  0  0  0  0  0
    4.0251   -3.8988   -3.8090 H   0  0  0  0  0  0  0  0  0  0  0  0
    5.1382   -2.8953   -4.7338 H   0  0  0  0  0  0  0  0  0  0  0  0
    2.8811   -2.9915   -5.8219 H   0  0  0  0  0  0  0  0  0  0  0  0
    0.9130   -1.9085   -4.6965 H   0  0  0  0  0  0  0  0  0  0  0  0
    1.4860   -3.2890   -3.7639 H   0  0  0  0  0  0  0  0  0  0  0  0
    2.9490   -2.9759   -1.7589 H   0  0  0  0  0  0  0  0  0  0  0  0
    3.3342   -1.3823   -1.1339 H   0  0  0  0  0  0  0  0  0  0  0  0
    5.2791   -2.3607   -2.2970 H   0  0  0  0  0  0  0  0  0  0  0  0
    4.8280    0.1154   -2.4356 H   0  0  0  0  0  0  0  0  0  0  0  0
    5.7281   -0.4749   -3.8313 H   0  0  0  0  0  0  0  0  0  0  0  0
    3.9001    1.0087   -4.5987 H   0  0  0  0  0  0  0  0  0  0  0  0
    4.3832   -0.9883   -6.0265 H   0  0  0  0  0  0  0  0  0  0  0  0
    2.6853   -0.5340   -6.1247 H   0  0  0  0  0  0  0  0  0  0  0  0
    1.5233    0.3822   -4.1082 H   0  0  0  0  0  0  0  0  0  0  0  0
    2.4129    0.7987   -2.6558 H   0  0  0  0  0  0  0  0  0  0  0  0
    0.6453   -0.2198   -1.6642 H   0  0  0  0  0  0  0  0  0  0  0  0
   -4.0106    0.4851    2.1598 H   0  0  0  0  0  0  0  0  0  0  0  0
   -0.4387    3.7878    3.1522 H   0  0  0  0  0  0  0  0  0  0  0  0
    0.0593    1.8832    1.6783 H   0  0  0  0  0  0  0  0  0  0  0  0
   -6.2056    1.0179   -1.2645 H   0  0  0  0  0  0  0  0  0  0  0  0
   -6.3331   -1.5471   -1.9823 H   0  0  0  0  0  0  0  0  0  0  0  0
   -2.4303   -2.5963   -2.0660 H   0  0  0  0  0  0  0  0  0  0  0  0
   -3.9647   -3.3707   -2.5183 H   0  0  0  0  0  0  0  0  0  0  0  0
   -3.4247   -1.8758   -3.3021 H   0  0  0  0  0  0  0  0  0  0  0  0
   -2.2636    1.2061   -1.7326 H   0  0  0  0  0  0  0  0  0  0  0  0
   -3.6981    2.0011   -2.3310 H   0  0  0  0  0  0  0  0  0  0  0  0
   -3.0842    2.4185   -0.7146 H   0  0  0  0  0  0  0  0  0  0  0  0
   -1.4948   -4.1742   -0.0251 H   0  0  0  0  0  0  0  0  0  0  0  0
   -3.1032   -3.7069    0.5716 H   0  0  0  0  0  0  0  0  0  0  0  0
   -1.7366   -3.7968    1.6776 H   0  0  0  0  0  0  0  0  0  0  0  0
  1  6  1  0  0  0  0
  1 35  1  0  0  0  0
  1 36  1  0  0  0  0
  2  1  1  0  0  0  0
  2  3  1  0  0  0  0
  2  9  1  0  0  0  0
  2 37  1  6  0  0  0
  3  4  1  0  0  0  0
  3 38  1  0  0  0  0
  3 39  1  0  0  0  0
  4 10  1  0  0  0  0
  4  5  1  0  0  0  0
  4 11  1  1  0  0  0
  5 40  1  0  0  0  0
  5 41  1  0  0  0  0
  6  5  1  0  0  0  0
  6  7  1  0  0  0  0
  6 42  1  1  0  0  0
  7 43  1  0  0  0  0
  7 44  1  0  0  0  0
  8  7  1  0  0  0  0
  8  9  1  0  0  0  0
  8 10  1  0  0  0  0
  8 45  1  6  0  0  0
  9 46  1  0  0  0  0
  9 47  1  0  0  0  0
 10 48  1  0  0  0  0
 10 49  1  0  0  0  0
 11 12  1  0  0  0  0
 11 50  1  0  0  0  0
 12 13  2  0  0  0  0
 12 14  1  0  0  0  0
 14 26  2  0  0  0  0
 14 15  1  0  0  0  0
 15 16  2  0  0  0  0
 15 34  1  0  0  0  0
 16 17  1  0  0  0  0
 16 27  1  0  0  0  0
 17 18  1  0  0  0  0
 17 26  1  0  0  0  0
 18 23  2  0  0  0  0
 18 19  1  0  0  0  0
 19 20  2  0  0  0  0
 19 51  1  0  0  0  0
 20 21  1  0  0  0  0
 20 25  1  0  0  0  0
 21 22  2  0  0  0  0
 21 24  1  0  0  0  0
 22 23  1  0  0  0  0
 22 52  1  0  0  0  0
 23 53  1  0  0  0  0
 27 31  1  0  0  0  0
 27 28  1  0  0  0  0
 28 29  2  0  0  0  0
 28 33  1  0  0  0  0
 29 30  1  0  0  0  0
 29 54  1  0  0  0  0
 30 31  2  0  0  0  0
 30 55  1  0  0  0  0
 31 32  1  0  0  0  0
 32 56  1  0  0  0  0
 32 57  1  0  0  0  0
 32 58  1  0  0  0  0
 33 59  1  0  0  0  0
 33 60  1  0  0  0  0
 33 61  1  0  0  0  0
 34 62  1  0  0  0  0
 34 63  1  0  0  0  0
 34 64  1  0  0  0  0
M  END
$$$$
CHEMBL391134
 OpenBabel12022418103D

 56 57  0  0  0  0  0  0  0  0999 V2000
    6.8781   -4.4137    0.1410 C   0  0  0  0  0  0  0  0  0  0  0  0
    6.3951   -2.9702    0.1054 C   0  0  0  0  0  0  0  0  0  0  0  0
    6.8863   -2.2608   -1.1535 C   0  0  0  0  0  0  0  0  0  0  0  0
    6.4120   -0.8098   -1.2295 C   0  0  0  0  0  0  0  0  0  0  0  0
    6.9293   -0.1614   -2.5204 C   0  0  0  0  0  0  0  0  0  0  0  0
    6.4748    1.2989   -2.6759 C   0  0  0  0  0  0  0  0  0  0  0  0
    7.0163    2.0074   -3.9617 C   0  0  0  0  0  0  0  0  0  0  0  0
    6.4307    1.3114   -5.2164 C   0  0  0  0  0  0  0  0  0  0  0  0
    6.4792    3.4595   -3.9906 C   0  0  0  0  0  0  0  0  0  0  0  0
    8.5552    2.0385   -3.9421 C   0  0  0  0  0  0  0  0  0  0  0  0
    9.2452    2.7956   -2.9799 C   0  0  0  0  0  0  0  0  0  0  0  0
   10.6424    2.7810   -2.9029 C   0  0  0  0  0  0  0  0  0  0  0  0
   11.4314    1.9354   -3.7031 C   0  0  0  0  0  0  0  0  0  0  0  0
   12.9136    1.8494   -3.5084 C   0  0  0  0  0  0  0  0  0  0  0  0
   13.7429    1.8459   -4.6530 C   0  0  0  0  0  0  0  0  0  0  0  0
   15.1246    1.6853   -4.5727 C   0  0  0  0  0  0  0  0  0  0  0  0
   15.7381    1.6110   -3.3323 C   0  0  0  0  0  0  0  0  0  0  0  0
   14.9777    1.6858   -2.1590 C   0  0  0  0  0  0  0  0  0  0  0  0
   15.7063    1.7176   -0.8385 C   0  0  0  0  0  0  0  0  0  0  0  0
   13.5568    1.7556   -2.2347 C   0  0  0  0  0  0  0  0  0  0  0  0
   12.7941    1.7718   -0.9270 C   0  0  0  0  0  0  0  0  0  0  0  0
   10.7267    1.2042   -4.6811 C   0  0  0  0  0  0  0  0  0  0  0  0
    9.3340    1.2777   -4.8172 C   0  0  0  0  0  0  0  0  0  0  0  0
   11.3254    0.3302   -5.5541 O   0  0  0  0  0  0  0  0  0  0  0  0
    6.5255   -4.9111    1.0493 H   0  0  0  0  0  0  0  0  0  0  0  0
    7.9720   -4.4622    0.1278 H   0  0  0  0  0  0  0  0  0  0  0  0
    6.5002   -4.9717   -0.7216 H   0  0  0  0  0  0  0  0  0  0  0  0
    6.7575   -2.4451    0.9970 H   0  0  0  0  0  0  0  0  0  0  0  0
    5.2997   -2.9557    0.1400 H   0  0  0  0  0  0  0  0  0  0  0  0
    6.5341   -2.8100   -2.0367 H   0  0  0  0  0  0  0  0  0  0  0  0
    7.9844   -2.2910   -1.1812 H   0  0  0  0  0  0  0  0  0  0  0  0
    6.7785   -0.2482   -0.3608 H   0  0  0  0  0  0  0  0  0  0  0  0
    5.3164   -0.7716   -1.2093 H   0  0  0  0  0  0  0  0  0  0  0  0
    6.5726   -0.7568   -3.3672 H   0  0  0  0  0  0  0  0  0  0  0  0
    8.0233   -0.2195   -2.5192 H   0  0  0  0  0  0  0  0  0  0  0  0
    6.7862    1.8572   -1.7829 H   0  0  0  0  0  0  0  0  0  0  0  0
    5.3784    1.3260   -2.6831 H   0  0  0  0  0  0  0  0  0  0  0  0
    5.3357    1.3531   -5.2142 H   0  0  0  0  0  0  0  0  0  0  0  0
    6.7093    0.2551   -5.2815 H   0  0  0  0  0  0  0  0  0  0  0  0
    6.7768    1.7965   -6.1363 H   0  0  0  0  0  0  0  0  0  0  0  0
    5.3900    3.4776   -4.1097 H   0  0  0  0  0  0  0  0  0  0  0  0
    6.9156    4.0232   -4.8246 H   0  0  0  0  0  0  0  0  0  0  0  0
    6.7053    4.0064   -3.0691 H   0  0  0  0  0  0  0  0  0  0  0  0
    8.7020    3.3941   -2.2518 H   0  0  0  0  0  0  0  0  0  0  0  0
   11.1125    3.4266   -2.1625 H   0  0  0  0  0  0  0  0  0  0  0  0
   13.3066    1.9620   -5.6454 H   0  0  0  0  0  0  0  0  0  0  0  0
   15.7207    1.6393   -5.4801 H   0  0  0  0  0  0  0  0  0  0  0  0
   16.8206    1.5151   -3.2840 H   0  0  0  0  0  0  0  0  0  0  0  0
   16.7920    1.6745   -0.9749 H   0  0  0  0  0  0  0  0  0  0  0  0
   15.4243    0.8649   -0.2148 H   0  0  0  0  0  0  0  0  0  0  0  0
   15.4842    2.6516   -0.3108 H   0  0  0  0  0  0  0  0  0  0  0  0
   11.7496    1.4729   -1.0282 H   0  0  0  0  0  0  0  0  0  0  0  0
   12.8423    2.7734   -0.4846 H   0  0  0  0  0  0  0  0  0  0  0  0
   13.2149    1.0536   -0.2171 H   0  0  0  0  0  0  0  0  0  0  0  0
    8.8815    0.6851   -5.6069 H   0  0  0  0  0  0  0  0  0  0  0  0
   12.1707    0.0519   -5.1657 H   0  0  0  0  0  0  0  0  0  0  0  0
  1  2  1  0  0  0  0
  1 25  1  0  0  0  0
  1 26  1  0  0  0  0
  1 27  1  0  0  0  0
  2  3  1  0  0  0  0
  2 28  1  0  0  0  0
  2 29  1  0  0  0  0
  3  4  1  0  0  0  0
  3 30  1  0  0  0  0
  3 31  1  0  0  0  0
  4  5  1  0  0  0  0
  4 32  1  0  0  0  0
  4 33  1  0  0  0  0
  5  6  1  0  0  0  0
  5 34  1  0  0  0  0
  5 35  1  0  0  0  0
  6  7  1  0  0  0  0
  6 36  1  0  0  0  0
  6 37  1  0  0  0  0
  7  8  1  0  0  0  0
  7  9  1  0  0  0  0
  7 10  1  0  0  0  0
  8 38  1  0  0  0  0
  8 39  1  0  0  0  0
  8 40  1  0  0  0  0
  9 41  1  0  0  0  0
  9 42  1  0  0  0  0
  9 43  1  0  0  0  0
 10 23  2  0  0  0  0
 10 11  1  0  0  0  0
 11 12  2  0  0  0  0
 11 44  1  0  0  0  0
 12 13  1  0  0  0  0
 12 45  1  0  0  0  0
 13 14  1  0  0  0  0
 13 22  2  0  0  0  0
 14 20  2  0  0  0  0
 14 15  1  0  0  0  0
 15 16  2  0  0  0  0
 15 46  1  0  0  0  0
 16 17  1  0  0  0  0
 16 47  1  0  0  0  0
 17 18  2  0  0  0  0
 17 48  1  0  0  0  0
 18 19  1  0  0  0  0
 18 20  1  0  0  0  0
 19 49  1  0  0  0  0
 19 50  1  0  0  0  0
 19 51  1  0  0  0  0
 20 21  1  0  0  0  0
 21 52  1  0  0  0  0
 21 53  1  0  0  0  0
 21 54  1  0  0  0  0
 22 23  1  0  0  0  0
 22 24  1  0  0  0  0
 23 55  1  0  0  0  0
 24 56  1  0  0  0  0
M  END
$$$$
CHEMBL3234695
 OpenBabel12022418103D

 47 50  0  0  0  0  0  0  0  0999 V2000
    1.2000    0.3830   -0.0528 C   0  0  0  0  0  0  0  0  0  0  0  0
    2.6797    0.1582    0.0065 C   0  0  0  0  0  0  0  0  0  0  0  0
    3.6974    1.1402    0.0219 C   0  0  0  0  0  0  0  0  0  0  0  0
    3.4459    2.5862   -0.0489 C   0  0  0  0  0  0  0  0  0  0  0  0
    2.3563    3.0690    0.2554 O   0  0  0  0  0  0  0  0  0  0  0  0
    4.4770    3.4936   -0.6286 C   0  0  0  0  0  0  0  0  0  0  0  0
    5.1677    3.0729   -1.7822 C   0  0  0  0  0  0  0  0  0  0  0  0
    6.1193    3.8912   -2.3860 C   0  0  0  0  0  0  0  0  0  0  0  0
    6.3390    5.1702   -1.8892 C   0  0  0  0  0  0  0  0  0  0  0  0
    5.6295    5.6224   -0.7700 C   0  0  0  0  0  0  0  0  0  0  0  0
    4.7112    4.7824   -0.1138 C   0  0  0  0  0  0  0  0  0  0  0  0
    3.9431    5.3298    1.3442 Cl  0  0  0  0  0  0  0  0  0  0  0  0
    5.9393    7.2487   -0.2602 Cl  0  0  0  0  0  0  0  0  0  0  0  0
    4.8854    0.3970    0.0662 C   0  0  0  0  0  0  0  0  0  0  0  0
    6.2454    0.7163    0.1271 C   0  0  0  0  0  0  0  0  0  0  0  0
    6.9931   -0.4521    0.0337 C   0  0  0  0  0  0  0  0  0  0  0  0
    5.9958   -1.8667   -0.0753 S   0  0  0  0  0  0  0  0  0  0  0  0
    4.6267   -0.9160    0.0068 C   0  0  0  0  0  0  0  0  0  0  0  0
    3.2789   -1.1029    0.0176 N   0  0  0  0  0  0  0  0  0  0  0  0
    2.6385   -2.4112   -0.0379 C   0  0  0  0  0  0  0  0  0  0  0  0
    2.9133   -3.2645    1.2105 C   0  0  0  0  0  0  0  0  0  0  0  0
    2.4967   -4.6687    1.1743 N   0  0  0  0  0  0  0  0  0  0  0  0
    1.0514   -4.8884    1.3228 C   0  0  0  0  0  0  0  0  0  0  0  0
    0.7862   -6.3964    1.4899 C   0  0  0  0  0  0  0  0  0  0  0  0
    1.2904   -7.1483    0.3739 O   0  0  0  0  0  0  0  0  0  0  0  0
    2.6973   -6.9136    0.2043 C   0  0  0  0  0  0  0  0  0  0  0  0
    2.9777   -5.4184    0.0012 C   0  0  0  0  0  0  0  0  0  0  0  0
    0.6182   -0.5246   -0.2109 H   0  0  0  0  0  0  0  0  0  0  0  0
    0.9595    1.0566   -0.8835 H   0  0  0  0  0  0  0  0  0  0  0  0
    0.8506    0.8422    0.8761 H   0  0  0  0  0  0  0  0  0  0  0  0
    4.9762    2.0946   -2.2208 H   0  0  0  0  0  0  0  0  0  0  0  0
    6.6747    3.5364   -3.2519 H   0  0  0  0  0  0  0  0  0  0  0  0
    7.0625    5.8180   -2.3800 H   0  0  0  0  0  0  0  0  0  0  0  0
    6.6955    1.6952    0.2078 H   0  0  0  0  0  0  0  0  0  0  0  0
    8.0694   -0.5566    0.0207 H   0  0  0  0  0  0  0  0  0  0  0  0
    3.0225   -2.8835   -0.9481 H   0  0  0  0  0  0  0  0  0  0  0  0
    1.5628   -2.2895   -0.1691 H   0  0  0  0  0  0  0  0  0  0  0  0
    2.4714   -2.7760    2.0890 H   0  0  0  0  0  0  0  0  0  0  0  0
    3.9867   -3.2772    1.4263 H   0  0  0  0  0  0  0  0  0  0  0  0
    0.5144   -4.5153    0.4411 H   0  0  0  0  0  0  0  0  0  0  0  0
    0.6687   -4.3619    2.2036 H   0  0  0  0  0  0  0  0  0  0  0  0
   -0.2902   -6.5815    1.5538 H   0  0  0  0  0  0  0  0  0  0  0  0
    1.2442   -6.7747    2.4127 H   0  0  0  0  0  0  0  0  0  0  0  0
    3.0249   -7.4778   -0.6745 H   0  0  0  0  0  0  0  0  0  0  0  0
    3.2410   -7.3031    1.0738 H   0  0  0  0  0  0  0  0  0  0  0  0
    4.0541   -5.2669   -0.1435 H   0  0  0  0  0  0  0  0  0  0  0  0
    2.4599   -5.0831   -0.9069 H   0  0  0  0  0  0  0  0  0  0  0  0
  1  2  1  0  0  0  0
  1 28  1  0  0  0  0
  1 29  1  0  0  0  0
  1 30  1  0  0  0  0
  2 19  1  0  0  0  0
  2  3  2  0  0  0  0
  3  4  1  0  0  0  0
  3 14  1  0  0  0  0
  4  5  2  0  0  0  0
  4  6  1  0  0  0  0
  6 11  2  0  0  0  0
  6  7  1  0  0  0  0
  7  8  2  0  0  0  0
  7 31  1  0  0  0  0
  8  9  1  0  0  0  0
  8 32  1  0  0  0  0
  9 10  2  0  0  0  0
  9 33  1  0  0  0  0
 10 11  1  0  0  0  0
 10 13  1  0  0  0  0
 11 12  1  0  0  0  0
 14 18  2  0  0  0  0
 14 15  1  0  0  0  0
 15 16  2  0  0  0  0
 15 34  1  0  0  0  0
 16 17  1  0  0  0  0
 16 35  1  0  0  0  0
 17 18  1  0  0  0  0
 18 19  1  0  0  0  0
 19 20  1  0  0  0  0
 20 21  1  0  0  0  0
 20 36  1  0  0  0  0
 20 37  1  0  0  0  0
 21 22  1  0  0  0  0
 21 38  1  0  0  0  0
 21 39  1  0  0  0  0
 22 27  1  0  0  0  0
 22 23  1  0  0  0  0
 23 24  1  0  0  0  0
 23 40  1  0  0  0  0
 23 41  1  0  0  0  0
 24 25  1  0  0  0  0
 24 42  1  0  0  0  0
 24 43  1  0  0  0  0
 25 26  1  0  0  0  0
 26 27  1  0  0  0  0
 26 44  1  0  0  0  0
 26 45  1  0  0  0  0
 27 46  1  0  0  0  0
 27 47  1  0  0  0  0
M  END
$$$$
CHEMBL482153
 OpenBabel12022418103D

 48 51  0  0  0  0  0  0  0  0999 V2000
    2.2200    0.2944    0.9460 O   0  0  0  0  0  0  0  0  0  0  0  0
    2.3144   -0.8916    0.6296 C   0  0  0  0  0  0  0  0  0  0  0  0
    2.8136   -1.3171   -0.7237 C   0  0  0  0  0  0  0  0  0  0  0  0
    1.8239   -2.0718   -1.4615 N   0  0  0  0  0  0  0  0  0  0  0  0
    1.9825   -3.3871   -1.6837 N   0  0  0  0  0  0  0  0  0  0  0  0
    0.9645   -3.6673   -2.5180 C   0  0  0  0  0  0  0  0  0  0  0  0
    0.7746   -5.0222   -3.0608 C   0  0  0  0  0  0  0  0  0  0  0  0
    0.4933   -5.1742   -4.4334 C   0  0  0  0  0  0  0  0  0  0  0  0
    0.2722   -6.4377   -4.9919 C   0  0  0  0  0  0  0  0  0  0  0  0
    0.3806   -7.5714   -4.1971 C   0  0  0  0  0  0  0  0  0  0  0  0
    0.6721   -7.4557   -2.8435 C   0  0  0  0  0  0  0  0  0  0  0  0
    0.8527   -6.1901   -2.2663 C   0  0  0  0  0  0  0  0  0  0  0  0
    1.0990   -6.1522   -0.5543 Cl  0  0  0  0  0  0  0  0  0  0  0  0
    0.1507   -9.1272   -4.8945 Cl  0  0  0  0  0  0  0  0  0  0  0  0
    0.2375   -2.4463   -2.7787 C   0  0  0  0  0  0  0  0  0  0  0  0
   -0.9175   -2.1955   -3.6510 C   0  0  0  0  0  0  0  0  0  0  0  0
   -1.9358   -3.1650   -3.7232 C   0  0  0  0  0  0  0  0  0  0  0  0
   -3.0052   -3.0274   -4.6119 C   0  0  0  0  0  0  0  0  0  0  0  0
   -3.1041   -1.8882   -5.4013 C   0  0  0  0  0  0  0  0  0  0  0  0
   -2.1409   -0.8893   -5.3151 C   0  0  0  0  0  0  0  0  0  0  0  0
   -1.0435   -1.0432   -4.4558 C   0  0  0  0  0  0  0  0  0  0  0  0
    0.1373    0.2242   -4.5146 Cl  0  0  0  0  0  0  0  0  0  0  0  0
   -4.4184   -1.7208   -6.4967 Cl  0  0  0  0  0  0  0  0  0  0  0  0
    0.7852   -1.4639   -2.0466 N   0  0  0  0  0  0  0  0  0  0  0  0
    2.0709   -1.9143    1.5218 N   0  0  0  0  0  0  0  0  0  0  0  0
    1.5892   -1.6673    2.8650 C   0  0  0  0  0  0  0  0  0  0  0  0
    0.2320   -2.2846    3.0752 C   0  0  0  0  0  0  0  0  0  0  0  0
   -0.8800   -1.8212    2.3519 C   0  0  0  0  0  0  0  0  0  0  0  0
   -2.1434   -2.3864    2.5448 C   0  0  0  0  0  0  0  0  0  0  0  0
   -2.3092   -3.4188    3.4659 C   0  0  0  0  0  0  0  0  0  0  0  0
   -1.2119   -3.8748    4.1858 C   0  0  0  0  0  0  0  0  0  0  0  0
    0.0514   -3.3202    4.0016 C   0  0  0  0  0  0  0  0  0  0  0  0
   -1.3720   -4.8641    5.0752 F   0  0  0  0  0  0  0  0  0  0  0  0
    3.7187   -1.9282   -0.6146 H   0  0  0  0  0  0  0  0  0  0  0  0
    3.0682   -0.4356   -1.3242 H   0  0  0  0  0  0  0  0  0  0  0  0
    0.4322   -4.3093   -5.0908 H   0  0  0  0  0  0  0  0  0  0  0  0
    0.0233   -6.5249   -6.0482 H   0  0  0  0  0  0  0  0  0  0  0  0
    0.7498   -8.3478   -2.2275 H   0  0  0  0  0  0  0  0  0  0  0  0
   -1.9028   -4.0560   -3.0991 H   0  0  0  0  0  0  0  0  0  0  0  0
   -3.7525   -3.8143   -4.6815 H   0  0  0  0  0  0  0  0  0  0  0  0
   -2.2317    0.0039   -5.9291 H   0  0  0  0  0  0  0  0  0  0  0  0
    2.1070   -2.8820    1.2075 H   0  0  0  0  0  0  0  0  0  0  0  0
    1.5427   -0.5941    3.0830 H   0  0  0  0  0  0  0  0  0  0  0  0
    2.3241   -2.1070    3.5469 H   0  0  0  0  0  0  0  0  0  0  0  0
   -0.7629   -1.0100    1.6337 H   0  0  0  0  0  0  0  0  0  0  0  0
   -2.9951   -2.0176    1.9794 H   0  0  0  0  0  0  0  0  0  0  0  0
   -3.2839   -3.8669    3.6296 H   0  0  0  0  0  0  0  0  0  0  0  0
    0.8802   -3.7027    4.5899 H   0  0  0  0  0  0  0  0  0  0  0  0
  1  2  2  0  0  0  0
  2  3  1  0  0  0  0
  2 25  1  0  0  0  0
  3  4  1  0  0  0  0
  3 34  1  0  0  0  0
  3 35  1  0  0  0  0
  4 24  1  0  0  0  0
  4  5  1  0  0  0  0
  5  6  2  0  0  0  0
  6  7  1  0  0  0  0
  6 15  1  0  0  0  0
  7 12  2  0  0  0  0
  7  8  1  0  0  0  0
  8  9  2  0  0  0  0
  8 36  1  0  0  0  0
  9 10  1  0  0  0  0
  9 37  1  0  0  0  0
 10 11  2  0  0  0  0
 10 14  1  0  0  0  0
 11 12  1  0  0  0  0
 11 38  1  0  0  0  0
 12 13  1  0  0  0  0
 15 16  1  0  0  0  0
 15 24  2  0  0  0  0
 16 21  2  0  0  0  0
 16 17  1  0  0  0  0
 17 18  2  0  0  0  0
 17 39  1  0  0  0  0
 18 19  1  0  0  0  0
 18 40  1  0  0  0  0
 19 20  2  0  0  0  0
 19 23  1  0  0  0  0
 20 21  1  0  0  0  0
 20 41  1  0  0  0  0
 21 22  1  0  0  0  0
 25 26  1  0  0  0  0
 25 42  1  0  0  0  0
 26 27  1  0  0  0  0
 26 43  1  0  0  0  0
 26 44  1  0  0  0  0
 27 32  2  0  0  0  0
 27 28  1  0  0  0  0
 28 29  2  0  0  0  0
 28 45  1  0  0  0  0
 29 30  1  0  0  0  0
 29 46  1  0  0  0  0
 30 31  2  0  0  0  0
 30 47  1  0  0  0  0
 31 32  1  0  0  0  0
 31 33  1  0  0  0  0
 32 48  1  0  0  0  0
M  END
$$$$
CHEMBL576087
 OpenBabel12022418103D

 40 42  0  0  0  0  0  0  0  0999 V2000
    3.0745   -0.2611    0.6407 N   0  0  0  0  0  0  0  0  0  0  0  0
    1.9287   -0.1546    0.4915 C   0  0  0  0  0  0  0  0  0  0  0  0
    0.5166   -0.0496    0.2463 C   0  0  0  0  0  0  0  0  0  0  0  0
   -0.1945   -1.2631    0.2068 C   0  0  0  0  0  0  0  0  0  0  0  0
   -1.5570   -1.2697   -0.0525 C   0  0  0  0  0  0  0  0  0  0  0  0
   -2.2384   -2.4874   -0.1539 N   0  0  0  0  0  0  0  0  0  0  0  0
   -2.2309   -3.3179    1.0532 C   0  0  0  0  0  0  0  0  0  0  0  0
   -1.7000   -4.7069    0.6989 C   0  0  0  0  0  0  0  0  0  0  0  0
   -2.6464   -5.5595   -0.1482 C   0  0  0  0  0  0  0  0  0  0  0  0
   -3.1651   -4.8982   -1.4283 C   0  0  0  0  0  0  0  0  0  0  0  0
   -4.1493   -3.7602   -1.1462 C   0  0  0  0  0  0  0  0  0  0  0  0
   -3.4977   -2.3992   -0.8916 C   0  0  0  0  0  0  0  0  0  0  0  0
   -2.2008   -0.1133   -0.2796 N   0  0  0  0  0  0  0  0  0  0  0  0
   -1.5011    1.0495   -0.2412 C   0  0  0  0  0  0  0  0  0  0  0  0
   -0.1346    1.1774    0.0182 C   0  0  0  0  0  0  0  0  0  0  0  0
    0.5378    2.5116   -0.0414 C   0  0  0  0  0  0  0  0  0  0  0  0
    1.7465    2.6412   -0.7689 C   0  0  0  0  0  0  0  0  0  0  0  0
    2.4237    3.8580   -0.8835 C   0  0  0  0  0  0  0  0  0  0  0  0
    1.8832    5.0084   -0.3288 C   0  0  0  0  0  0  0  0  0  0  0  0
    0.6811    4.9358    0.3739 C   0  0  0  0  0  0  0  0  0  0  0  0
    0.0260    3.6989    0.5561 C   0  0  0  0  0  0  0  0  0  0  0  0
   -1.3864    3.6512    1.5756 Cl  0  0  0  0  0  0  0  0  0  0  0  0
    0.0469    6.4320    0.9784 Cl  0  0  0  0  0  0  0  0  0  0  0  0
    0.3305   -2.2084    0.3239 H   0  0  0  0  0  0  0  0  0  0  0  0
   -3.2353   -3.3864    1.4917 H   0  0  0  0  0  0  0  0  0  0  0  0
   -1.5936   -2.8948    1.8394 H   0  0  0  0  0  0  0  0  0  0  0  0
   -1.4976   -5.2517    1.6295 H   0  0  0  0  0  0  0  0  0  0  0  0
   -0.7393   -4.6130    0.1771 H   0  0  0  0  0  0  0  0  0  0  0  0
   -3.4982   -5.8730    0.4686 H   0  0  0  0  0  0  0  0  0  0  0  0
   -2.1171   -6.4799   -0.4248 H   0  0  0  0  0  0  0  0  0  0  0  0
   -3.6974   -5.6670   -2.0018 H   0  0  0  0  0  0  0  0  0  0  0  0
   -2.3355   -4.5574   -2.0568 H   0  0  0  0  0  0  0  0  0  0  0  0
   -4.7905   -4.0262   -0.2973 H   0  0  0  0  0  0  0  0  0  0  0  0
   -4.8243   -3.6519   -2.0047 H   0  0  0  0  0  0  0  0  0  0  0  0
   -3.3059   -1.9401   -1.8735 H   0  0  0  0  0  0  0  0  0  0  0  0
   -4.2227   -1.7565   -0.3693 H   0  0  0  0  0  0  0  0  0  0  0  0
   -2.1224    1.9161   -0.4606 H   0  0  0  0  0  0  0  0  0  0  0  0
    2.1858    1.7879   -1.2779 H   0  0  0  0  0  0  0  0  0  0  0  0
    3.3699    3.9010   -1.4187 H   0  0  0  0  0  0  0  0  0  0  0  0
    2.4012    5.9572   -0.4490 H   0  0  0  0  0  0  0  0  0  0  0  0
  1  2  3  0  0  0  0
  2  3  1  0  0  0  0
  3 15  2  0  0  0  0
  3  4  1  0  0  0  0
  4  5  2  0  0  0  0
  4 24  1  0  0  0  0
  5  6  1  0  0  0  0
  5 13  1  0  0  0  0
  6 12  1  0  0  0  0
  6  7  1  0  0  0  0
  7  8  1  0  0  0  0
  7 25  1  0  0  0  0
  7 26  1  0  0  0  0
  8  9  1  0  0  0  0
  8 27  1  0  0  0  0
  8 28  1  0  0  0  0
  9 10  1  0  0  0  0
  9 29  1  0  0  0  0
  9 30  1  0  0  0  0
 10 11  1  0  0  0  0
 10 31  1  0  0  0  0
 10 32  1  0  0  0  0
 11 12  1  0  0  0  0
 11 33  1  0  0  0  0
 11 34  1  0  0  0  0
 12 35  1  0  0  0  0
 12 36  1  0  0  0  0
 13 14  2  0  0  0  0
 14 15  1  0  0  0  0
 14 37  1  0  0  0  0
 15 16  1  0  0  0  0
 16 21  2  0  0  0  0
 16 17  1  0  0  0  0
 17 18  2  0  0  0  0
 17 38  1  0  0  0  0
 18 19  1  0  0  0  0
 18 39  1  0  0  0  0
 19 20  2  0  0  0  0
 19 40  1  0  0  0  0
 20 21  1  0  0  0  0
 20 23  1  0  0  0  0
 21 22  1  0  0  0  0
M  END
$$$$
CHEMBL3400942
 OpenBabel12022418103D

 46 48  0  0  1  0  0  0  0  0999 V2000
    6.2744   -0.8672    1.5105 C   0  0  0  0  0  0  0  0  0  0  0  0
    5.3914    0.3879    1.6254 C   0  0  0  0  0  0  0  0  0  0  0  0
    4.0374   -0.0066    2.2458 C   0  0  0  0  0  0  0  0  0  0  0  0
    6.0714    1.4038    2.5593 C   0  0  0  0  0  0  0  0  0  0  0  0
    5.2190    0.9652    0.2476 C   0  0  0  0  0  0  0  0  0  0  0  0
    5.9491    1.8280   -0.5409 C   0  0  0  0  0  0  0  0  0  0  0  0
    5.3099    1.7977   -1.8040 C   0  0  0  0  0  0  0  0  0  0  0  0
    4.2308    1.0129   -1.7569 N   0  0  0  0  0  0  0  0  0  0  0  0
    4.1743    0.4948   -0.4854 O   0  0  0  0  0  0  0  0  0  0  0  0
    5.7670    2.4656   -2.9224 N   0  0  0  0  0  0  0  0  0  0  0  0
    5.2035    2.3354   -4.1722 C   0  0  0  0  0  0  0  0  0  0  0  0
    4.2549    1.6181   -4.4793 O   0  0  0  0  0  0  0  0  0  0  0  0
    5.9092    3.1474   -5.2670 C   0  0  2  0  0  0  0  0  0  0  0  0
    7.3178    2.6208   -5.5613 C   0  0  0  0  0  0  0  0  0  0  0  0
    7.9085    3.7373   -6.4130 C   0  0  0  0  0  0  0  0  0  0  0  0
    7.2439    5.0166   -5.8904 C   0  0  0  0  0  0  0  0  0  0  0  0
    6.2326    4.5471   -4.9194 N   0  0  0  0  0  0  0  0  0  0  0  0
    5.3375    5.4876   -4.4382 C   0  0  0  0  0  0  0  0  0  0  0  0
    3.9571    5.2709   -4.3213 C   0  0  0  0  0  0  0  0  0  0  0  0
    3.1055    6.2473   -3.7757 C   0  0  0  0  0  0  0  0  0  0  0  0
    3.6300    7.4567   -3.3288 C   0  0  0  0  0  0  0  0  0  0  0  0
    4.9952    7.6967   -3.4200 C   0  0  0  0  0  0  0  0  0  0  0  0
    5.8308    6.7193   -3.9632 C   0  0  0  0  0  0  0  0  0  0  0  0
    2.5968    8.6585   -2.6586 Cl  0  0  0  0  0  0  0  0  0  0  0  0
    6.4726   -1.3092    2.4940 H   0  0  0  0  0  0  0  0  0  0  0  0
    7.2405   -0.6353    1.0471 H   0  0  0  0  0  0  0  0  0  0  0  0
    5.7940   -1.6347    0.8908 H   0  0  0  0  0  0  0  0  0  0  0  0
    4.1691   -0.4122    3.2557 H   0  0  0  0  0  0  0  0  0  0  0  0
    3.5266   -0.7743    1.6526 H   0  0  0  0  0  0  0  0  0  0  0  0
    3.3644    0.8560    2.3166 H   0  0  0  0  0  0  0  0  0  0  0  0
    6.2290    0.9779    3.5570 H   0  0  0  0  0  0  0  0  0  0  0  0
    5.4608    2.3071    2.6757 H   0  0  0  0  0  0  0  0  0  0  0  0
    7.0511    1.7141    2.1785 H   0  0  0  0  0  0  0  0  0  0  0  0
    6.8550    2.3444   -0.2653 H   0  0  0  0  0  0  0  0  0  0  0  0
    6.5371    3.1118   -2.8158 H   0  0  0  0  0  0  0  0  0  0  0  0
    5.2922    3.1165   -6.1756 H   0  0  0  0  0  0  0  0  0  0  0  0
    7.3278    1.6490   -6.0613 H   0  0  0  0  0  0  0  0  0  0  0  0
    7.9073    2.5255   -4.6391 H   0  0  0  0  0  0  0  0  0  0  0  0
    7.6586    3.5835   -7.4691 H   0  0  0  0  0  0  0  0  0  0  0  0
    8.9993    3.7883   -6.3341 H   0  0  0  0  0  0  0  0  0  0  0  0
    6.7685    5.5512   -6.7262 H   0  0  0  0  0  0  0  0  0  0  0  0
    7.9870    5.6696   -5.4283 H   0  0  0  0  0  0  0  0  0  0  0  0
    3.4988    4.3486   -4.6620 H   0  0  0  0  0  0  0  0  0  0  0  0
    2.0434    6.0510   -3.6985 H   0  0  0  0  0  0  0  0  0  0  0  0
    5.4204    8.6268   -3.0580 H   0  0  0  0  0  0  0  0  0  0  0  0
    6.8928    6.9267   -3.9843 H   0  0  0  0  0  0  0  0  0  0  0  0
  1  2  1  0  0  0  0
  1 25  1  0  0  0  0
  1 26  1  0  0  0  0
  1 27  1  0  0  0  0
  2  3  1  0  0  0  0
  2  4  1  0  0  0  0
  2  5  1  0  0  0  0
  3 28  1  0  0  0  0
  3 29  1  0  0  0  0
  3 30  1  0  0  0  0
  4 31  1  0  0  0  0
  4 32  1  0  0  0  0
  4 33  1  0  0  0  0
  5  9  1  0  0  0  0
  5  6  2  0  0  0  0
  6  7  1  0  0  0  0
  6 34  1  0  0  0  0
  7  8  2  0  0  0  0
  7 10  1  0  0  0  0
  8  9  1  0  0  0  0
 10 11  1  0  0  0  0
 10 35  1  0  0  0  0
 11 12  2  0  0  0  0
 13 11  1  0  0  0  0
 13 14  1  0  0  0  0
 13 17  1  0  0  0  0
 13 36  1  6  0  0  0
 14 15  1  0  0  0  0
 14 37  1  0  0  0  0
 14 38  1  0  0  0  0
 15 16  1  0  0  0  0
 15 39  1  0  0  0  0
 15 40  1  0  0  0  0
 16 17  1  0  0  0  0
 16 41  1  0  0  0  0
 16 42  1  0  0  0  0
 17 18  1  0  0  0  0
 18 23  2  0  0  0  0
 18 19  1  0  0  0  0
 19 20  2  0  0  0  0
 19 43  1  0  0  0  0
 20 21  1  0  0  0  0
 20 44  1  0  0  0  0
 21 22  2  0  0  0  0
 21 24  1  0  0  0  0
 22 23  1  0  0  0  0
 22 45  1  0  0  0  0
 23 46  1  0  0  0  0
M  END
$$$$
CHEMBL2381812
 OpenBabel12022418103D

 70 74  0  0  1  0  0  0  0  0999 V2000
   -0.1474    0.6859   -0.0312 C   0  0  0  0  0  0  0  0  0  0  0  0
   -1.4402    1.1404    0.0367 C   0  0  0  0  0  0  0  0  0  0  0  0
   -2.2537   -0.0217    0.0074 C   0  0  0  0  0  0  0  0  0  0  0  0
   -3.7761   -0.0926    0.0159 C   0  0  0  0  0  0  0  0  0  0  0  0
   -4.3024   -0.0697   -1.4324 C   0  0  0  0  0  0  0  0  0  0  0  0
   -4.2738   -1.3788    0.7068 C   0  0  0  0  0  0  0  0  0  0  0  0
   -4.3953    1.1060    0.7699 C   0  0  0  0  0  0  0  0  0  0  0  0
   -1.5084   -1.1349   -0.0836 N   0  0  0  0  0  0  0  0  0  0  0  0
   -0.2188   -0.6967   -0.1049 N   0  0  0  0  0  0  0  0  0  0  0  0
    0.8849   -1.5633   -0.2199 C   0  0  0  0  0  0  0  0  0  0  0  0
    0.7438   -2.7842   -0.2924 O   0  0  0  0  0  0  0  0  0  0  0  0
    2.2059   -0.8783   -0.2626 C   0  0  0  0  0  0  0  0  0  0  0  0
    2.2103    0.4725   -0.1807 C   0  0  0  0  0  0  0  0  0  0  0  0
    1.0793    1.2864   -0.0600 N   0  0  0  0  0  0  0  0  0  0  0  0
    1.1468    2.7619   -0.0584 C   0  0  0  0  0  0  0  0  0  0  0  0
    1.0684    3.3608    1.3512 C   0  0  0  0  0  0  0  0  0  0  0  0
    2.2874    3.0298    2.2131 C   0  0  0  0  0  0  0  0  0  0  0  0
    2.1967    3.7030    3.5824 C   0  0  0  0  0  0  0  0  0  0  0  0
    3.3987    3.3589    4.4473 C   0  0  0  0  0  0  0  0  0  0  0  0
    3.5156   -1.5987   -0.4118 C   0  0  0  0  0  0  0  0  0  0  0  0
    4.5668   -0.9595   -0.3792 O   0  0  0  0  0  0  0  0  0  0  0  0
    3.4771   -2.9713   -0.5986 N   0  0  0  0  0  0  0  0  0  0  0  0
    4.6719   -3.8257   -0.8220 C   0  0  2  0  0  0  0  0  0  0  0  0
    4.2729   -5.3211   -1.0302 C   0  0  0  0  0  0  0  0  0  0  0  0
    5.5231   -6.2050   -1.2725 C   0  0  1  0  0  0  0  0  0  0  0  0
    6.2739   -5.7123   -2.5206 C   0  0  0  0  0  0  0  0  0  0  0  0
    6.6846   -4.2451   -2.3319 C   0  0  2  0  0  0  0  0  0  0  0  0
    7.6064   -4.1279   -1.1071 C   0  0  0  0  0  0  0  0  0  0  0  0
    6.8843   -4.6431    0.1492 C   0  0  1  0  0  0  0  0  0  0  0  0
    5.6298   -3.7860    0.3982 C   0  0  0  0  0  0  0  0  0  0  0  0
    6.4677   -6.1060   -0.0639 C   0  0  0  0  0  0  0  0  0  0  0  0
    5.4286   -3.3877   -2.1043 C   0  0  0  0  0  0  0  0  0  0  0  0
   -1.7667    2.1677    0.0884 H   0  0  0  0  0  0  0  0  0  0  0  0
   -3.9185   -0.9181   -2.0104 H   0  0  0  0  0  0  0  0  0  0  0  0
   -3.9974    0.8465   -1.9522 H   0  0  0  0  0  0  0  0  0  0  0  0
   -5.3972   -0.1162   -1.4572 H   0  0  0  0  0  0  0  0  0  0  0  0
   -3.9209   -2.2787    0.1902 H   0  0  0  0  0  0  0  0  0  0  0  0
   -5.3687   -1.4216    0.7241 H   0  0  0  0  0  0  0  0  0  0  0  0
   -3.9207   -1.4316    1.7436 H   0  0  0  0  0  0  0  0  0  0  0  0
   -4.1363    2.0619    0.2999 H   0  0  0  0  0  0  0  0  0  0  0  0
   -4.0524    1.1438    1.8103 H   0  0  0  0  0  0  0  0  0  0  0  0
   -5.4900    1.0428    0.7820 H   0  0  0  0  0  0  0  0  0  0  0  0
    3.1410    1.0339   -0.2126 H   0  0  0  0  0  0  0  0  0  0  0  0
    0.3189    3.1731   -0.6526 H   0  0  0  0  0  0  0  0  0  0  0  0
    2.0585    3.1066   -0.5614 H   0  0  0  0  0  0  0  0  0  0  0  0
    0.1567    3.0274    1.8607 H   0  0  0  0  0  0  0  0  0  0  0  0
    0.9904    4.4518    1.2557 H   0  0  0  0  0  0  0  0  0  0  0  0
    3.1996    3.3586    1.7004 H   0  0  0  0  0  0  0  0  0  0  0  0
    2.3626    1.9458    2.3519 H   0  0  0  0  0  0  0  0  0  0  0  0
    1.2821    3.3825    4.0947 H   0  0  0  0  0  0  0  0  0  0  0  0
    2.1380    4.7908    3.4621 H   0  0  0  0  0  0  0  0  0  0  0  0
    3.4681    2.2786    4.6086 H   0  0  0  0  0  0  0  0  0  0  0  0
    3.3133    3.8441    5.4246 H   0  0  0  0  0  0  0  0  0  0  0  0
    4.3282    3.6971    3.9785 H   0  0  0  0  0  0  0  0  0  0  0  0
    2.5620   -3.4227   -0.6004 H   0  0  0  0  0  0  0  0  0  0  0  0
    3.5903   -5.4184   -1.8846 H   0  0  0  0  0  0  0  0  0  0  0  0
    3.7272   -5.6970   -0.1549 H   0  0  0  0  0  0  0  0  0  0  0  0
    5.2238   -7.2498   -1.4168 H   0  0  0  0  0  0  0  0  0  0  0  0
    5.6400   -5.8182   -3.4090 H   0  0  0  0  0  0  0  0  0  0  0  0
    7.1659   -6.3287   -2.6939 H   0  0  0  0  0  0  0  0  0  0  0  0
    7.2121   -3.8929   -3.2258 H   0  0  0  0  0  0  0  0  0  0  0  0
    7.9075   -3.0829   -0.9635 H   0  0  0  0  0  0  0  0  0  0  0  0
    8.5253   -4.7033   -1.2743 H   0  0  0  0  0  0  0  0  0  0  0  0
    7.5555   -4.5755    1.0129 H   0  0  0  0  0  0  0  0  0  0  0  0
    5.1078   -4.1492    1.2938 H   0  0  0  0  0  0  0  0  0  0  0  0
    5.9427   -2.7607    0.6210 H   0  0  0  0  0  0  0  0  0  0  0  0
    7.3582   -6.7279   -0.2273 H   0  0  0  0  0  0  0  0  0  0  0  0
    5.9731   -6.4947    0.8343 H   0  0  0  0  0  0  0  0  0  0  0  0
    5.7278   -2.3366   -2.0465 H   0  0  0  0  0  0  0  0  0  0  0  0
    4.7621   -3.4701   -2.9732 H   0  0  0  0  0  0  0  0  0  0  0  0
  1 14  1  0  0  0  0
  1  2  2  0  0  0  0
  1  9  1  0  0  0  0
  2  3  1  0  0  0  0
  2 33  1  0  0  0  0
  3  4  1  0  0  0  0
  3  8  2  0  0  0  0
  4  5  1  0  0  0  0
  4  6  1  0  0  0  0
  4  7  1  0  0  0  0
  5 34  1  0  0  0  0
  5 35  1  0  0  0  0
  5 36  1  0  0  0  0
  6 37  1  0  0  0  0
  6 38  1  0  0  0  0
  6 39  1  0  0  0  0
  7 40  1  0  0  0  0
  7 41  1  0  0  0  0
  7 42  1  0  0  0  0
  8  9  1  0  0  0  0
  9 10  1  0  0  0  0
 10 11  2  0  0  0  0
 10 12  1  0  0  0  0
 12 13  2  0  0  0  0
 12 20  1  0  0  0  0
 13 14  1  0  0  0  0
 13 43  1  0  0  0  0
 14 15  1  0  0  0  0
 15 16  1  0  0  0  0
 15 44  1  0  0  0  0
 15 45  1  0  0  0  0
 16 17  1  0  0  0  0
 16 46  1  0  0  0  0
 16 47  1  0  0  0  0
 17 18  1  0  0  0  0
 17 48  1  0  0  0  0
 17 49  1  0  0  0  0
 18 19  1  0  0  0  0
 18 50  1  0  0  0  0
 18 51  1  0  0  0  0
 19 52  1  0  0  0  0
 19 53  1  0  0  0  0
 19 54  1  0  0  0  0
 20 21  2  0  0  0  0
 20 22  1  0  0  0  0
 22 55  1  0  0  0  0
 23 22  1  1  0  0  0
 23 30  1  0  0  0  0
 23 32  1  0  0  0  0
 23 24  1  0  0  0  0
 24 56  1  0  0  0  0
 24 57  1  0  0  0  0
 25 24  1  0  0  0  0
 25 26  1  0  0  0  0
 25 31  1  0  0  0  0
 25 58  1  6  0  0  0
 26 59  1  0  0  0  0
 26 60  1  0  0  0  0
 27 26  1  0  0  0  0
 27 28  1  0  0  0  0
 27 32  1  0  0  0  0
 27 61  1  6  0  0  0
 28 62  1  0  0  0  0
 28 63  1  0  0  0  0
 29 28  1  0  0  0  0
 29 30  1  0  0  0  0
 29 31  1  0  0  0  0
 29 64  1  1  0  0  0
 30 65  1  0  0  0  0
 30 66  1  0  0  0  0
 31 67  1  0  0  0  0
 31 68  1  0  0  0  0
 32 69  1  0  0  0  0
 32 70  1  0  0  0  0
M  END
$$$$
CHEMBL3400946
 OpenBabel12022418103D

 51 53  0  0  1  0  0  0  0  0999 V2000
    1.1197   -0.0540    0.1293 C   0  0  0  0  0  0  0  0  0  0  0  0
    2.6472   -0.0319    0.0063 C   0  0  1  0  0  0  0  0  0  0  0  0
    3.1873    1.1013    0.9260 C   0  0  0  0  0  0  0  0  0  0  0  0
    4.5656    0.6121    1.3302 C   0  0  0  0  0  0  0  0  0  0  0  0
    4.3273   -0.8688    1.5596 C   0  0  0  0  0  0  0  0  0  0  0  0
    3.3380   -1.2503    0.5483 N   0  0  0  0  0  0  0  0  0  0  0  0
    2.8007   -2.5173    0.5301 C   0  0  0  0  0  0  0  0  0  0  0  0
    3.1580   -3.4875    1.4728 C   0  0  0  0  0  0  0  0  0  0  0  0
    2.5353   -4.7361    1.4823 C   0  0  0  0  0  0  0  0  0  0  0  0
    1.5623   -5.0250    0.5362 C   0  0  0  0  0  0  0  0  0  0  0  0
    1.3056   -4.0460   -0.4086 C   0  0  0  0  0  0  0  0  0  0  0  0
    1.9184   -2.8305   -0.4432 N   0  0  0  0  0  0  0  0  0  0  0  0
    0.8084   -6.3169    0.5256 C   0  0  0  0  0  0  0  0  0  0  0  0
    1.1843   -7.1716    1.5190 F   0  0  0  0  0  0  0  0  0  0  0  0
   -0.5328   -6.1409    0.6779 F   0  0  0  0  0  0  0  0  0  0  0  0
    0.9663   -7.0054   -0.6369 F   0  0  0  0  0  0  0  0  0  0  0  0
    3.0501    0.2718   -1.4649 C   0  0  0  0  0  0  0  0  0  0  0  0
    3.2808    1.4260   -1.8268 O   0  0  0  0  0  0  0  0  0  0  0  0
    3.0164   -0.8245   -2.3023 N   0  0  0  0  0  0  0  0  0  0  0  0
    3.4045   -0.7864   -3.6285 C   0  0  0  0  0  0  0  0  0  0  0  0
    3.2763   -1.8682   -4.5326 C   0  0  0  0  0  0  0  0  0  0  0  0
    3.7815   -1.4042   -5.7263 C   0  0  0  0  0  0  0  0  0  0  0  0
    3.9620   -1.9696   -7.1091 C   0  0  0  0  0  0  0  0  0  0  0  0
    3.3691   -3.3870   -7.1949 C   0  0  0  0  0  0  0  0  0  0  0  0
    3.2495   -1.0769   -8.1431 C   0  0  0  0  0  0  0  0  0  0  0  0
    5.4610   -2.0384   -7.4515 C   0  0  0  0  0  0  0  0  0  0  0  0
    4.2059   -0.1242   -5.5426 O   0  0  0  0  0  0  0  0  0  0  0  0
    3.9656    0.2594   -4.2445 N   0  0  0  0  0  0  0  0  0  0  0  0
    0.8048   -0.3064    1.1483 H   0  0  0  0  0  0  0  0  0  0  0  0
    0.6458   -0.7623   -0.5557 H   0  0  0  0  0  0  0  0  0  0  0  0
    0.7011    0.9286   -0.1186 H   0  0  0  0  0  0  0  0  0  0  0  0
    2.5652    1.2043    1.8243 H   0  0  0  0  0  0  0  0  0  0  0  0
    3.2370    2.0863    0.4527 H   0  0  0  0  0  0  0  0  0  0  0  0
    4.9422    1.1120    2.2272 H   0  0  0  0  0  0  0  0  0  0  0  0
    5.2864    0.7654    0.5192 H   0  0  0  0  0  0  0  0  0  0  0  0
    3.9215   -1.0162    2.5681 H   0  0  0  0  0  0  0  0  0  0  0  0
    5.2591   -1.4348    1.4571 H   0  0  0  0  0  0  0  0  0  0  0  0
    3.8984   -3.2874    2.2369 H   0  0  0  0  0  0  0  0  0  0  0  0
    2.8016   -5.4590    2.2508 H   0  0  0  0  0  0  0  0  0  0  0  0
    0.5635   -4.2020   -1.1899 H   0  0  0  0  0  0  0  0  0  0  0  0
    2.7064   -1.7069   -1.9019 H   0  0  0  0  0  0  0  0  0  0  0  0
    2.8587   -2.8436   -4.3397 H   0  0  0  0  0  0  0  0  0  0  0  0
    2.2915   -3.3810   -6.9915 H   0  0  0  0  0  0  0  0  0  0  0  0
    3.8384   -4.0615   -6.4689 H   0  0  0  0  0  0  0  0  0  0  0  0
    3.5156   -3.8193   -8.1910 H   0  0  0  0  0  0  0  0  0  0  0  0
    2.1745   -1.0094   -7.9384 H   0  0  0  0  0  0  0  0  0  0  0  0
    3.3726   -1.4722   -9.1583 H   0  0  0  0  0  0  0  0  0  0  0  0
    3.6473   -0.0552   -8.1393 H   0  0  0  0  0  0  0  0  0  0  0  0
    6.0087   -2.6465   -6.7230 H   0  0  0  0  0  0  0  0  0  0  0  0
    5.9190   -1.0419   -7.4573 H   0  0  0  0  0  0  0  0  0  0  0  0
    5.6212   -2.4786   -8.4435 H   0  0  0  0  0  0  0  0  0  0  0  0
  1 29  1  0  0  0  0
  1 30  1  0  0  0  0
  1 31  1  0  0  0  0
  2  1  1  0  0  0  0
  2  6  1  0  0  0  0
  2  3  1  0  0  0  0
  2 17  1  6  0  0  0
  3  4  1  0  0  0  0
  3 32  1  0  0  0  0
  3 33  1  0  0  0  0
  4  5  1  0  0  0  0
  4 34  1  0  0  0  0
  4 35  1  0  0  0  0
  5  6  1  0  0  0  0
  5 36  1  0  0  0  0
  5 37  1  0  0  0  0
  6  7  1  0  0  0  0
  7 12  2  0  0  0  0
  7  8  1  0  0  0  0
  8  9  2  0  0  0  0
  8 38  1  0  0  0  0
  9 10  1  0  0  0  0
  9 39  1  0  0  0  0
 10 11  2  0  0  0  0
 10 13  1  0  0  0  0
 11 12  1  0  0  0  0
 11 40  1  0  0  0  0
 13 14  1  0  0  0  0
 13 15  1  0  0  0  0
 13 16  1  0  0  0  0
 17 18  2  0  0  0  0
 17 19  1  0  0  0  0
 19 20  1  0  0  0  0
 19 41  1  0  0  0  0
 20 28  2  0  0  0  0
 20 21  1  0  0  0  0
 21 22  2  0  0  0  0
 21 42  1  0  0  0  0
 22 23  1  0  0  0  0
 22 27  1  0  0  0  0
 23 24  1  0  0  0  0
 23 25  1  0  0  0  0
 23 26  1  0  0  0  0
 24 43  1  0  0  0  0
 24 44  1  0  0  0  0
 24 45  1  0  0  0  0
 25 46  1  0  0  0  0
 25 47  1  0  0  0  0
 25 48  1  0  0  0  0
 26 49  1  0  0  0  0
 26 50  1  0  0  0  0
 26 51  1  0  0  0  0
 27 28  1  0  0  0  0
M  END
$$$$
CHEMBL188494
 OpenBabel12022418103D

 52 54  0  0  0  0  0  0  0  0999 V2000
    4.6736    6.9801   -3.8149 C   0  0  0  0  0  0  0  0  0  0  0  0
    4.1938    6.1510   -2.6361 C   0  0  0  0  0  0  0  0  0  0  0  0
    4.8060    4.7499   -2.6612 C   0  0  0  0  0  0  0  0  0  0  0  0
    4.3280    3.9270   -1.4651 C   0  0  0  0  0  0  0  0  0  0  0  0
    4.9658    2.5365   -1.3825 C   0  0  0  0  0  0  0  0  0  0  0  0
    6.4234    2.5264   -1.3482 N   0  0  0  0  0  0  0  0  0  0  0  0
    7.2099    3.0180   -0.3260 C   0  0  0  0  0  0  0  0  0  0  0  0
    6.6613    3.6140    0.9317 C   0  0  0  0  0  0  0  0  0  0  0  0
    8.5479    2.8648   -0.6961 C   0  0  0  0  0  0  0  0  0  0  0  0
    9.6779    3.3724    0.1107 C   0  0  0  0  0  0  0  0  0  0  0  0
    9.5098    4.2709    0.9421 O   0  0  0  0  0  0  0  0  0  0  0  0
   11.0666    2.7840   -0.0576 C   0  0  0  0  0  0  0  0  0  0  0  0
   11.9244    3.3218   -1.1912 C   0  0  0  0  0  0  0  0  0  0  0  0
   11.4747    4.3784   -2.0071 C   0  0  0  0  0  0  0  0  0  0  0  0
   12.1720    4.7494   -3.1577 C   0  0  0  0  0  0  0  0  0  0  0  0
   13.3564    4.1062   -3.4914 C   0  0  0  0  0  0  0  0  0  0  0  0
   13.8519    3.1002   -2.6660 C   0  0  0  0  0  0  0  0  0  0  0  0
   13.1520    2.6955   -1.5148 C   0  0  0  0  0  0  0  0  0  0  0  0
   13.7422    1.5595   -0.7207 C   0  0  0  0  0  0  0  0  0  0  0  0
    8.5504    2.1681   -1.9554 C   0  0  0  0  0  0  0  0  0  0  0  0
    9.5516    1.6875   -2.8341 C   0  0  0  0  0  0  0  0  0  0  0  0
    9.2269    1.1080   -4.0629 C   0  0  0  0  0  0  0  0  0  0  0  0
    7.9026    0.9647   -4.4307 C   0  0  0  0  0  0  0  0  0  0  0  0
    6.8828    1.3985   -3.5805 C   0  0  0  0  0  0  0  0  0  0  0  0
    7.2217    2.0008   -2.3500 C   0  0  0  0  0  0  0  0  0  0  0  0
    4.2256    7.9776   -3.7844 H   0  0  0  0  0  0  0  0  0  0  0  0
    4.3956    6.5087   -4.7631 H   0  0  0  0  0  0  0  0  0  0  0  0
    5.7621    7.0949   -3.7941 H   0  0  0  0  0  0  0  0  0  0  0  0
    3.1002    6.0821   -2.6591 H   0  0  0  0  0  0  0  0  0  0  0  0
    4.4676    6.6598   -1.7039 H   0  0  0  0  0  0  0  0  0  0  0  0
    5.8977    4.8440   -2.6443 H   0  0  0  0  0  0  0  0  0  0  0  0
    4.5369    4.2380   -3.5920 H   0  0  0  0  0  0  0  0  0  0  0  0
    3.2394    3.8017   -1.5234 H   0  0  0  0  0  0  0  0  0  0  0  0
    4.5187    4.4910   -0.5469 H   0  0  0  0  0  0  0  0  0  0  0  0
    4.6280    1.9361   -2.2320 H   0  0  0  0  0  0  0  0  0  0  0  0
    4.6246    2.0095   -0.4840 H   0  0  0  0  0  0  0  0  0  0  0  0
    5.5866    3.4627    1.0497 H   0  0  0  0  0  0  0  0  0  0  0  0
    6.8548    4.6912    0.9568 H   0  0  0  0  0  0  0  0  0  0  0  0
    7.1344    3.1527    1.8045 H   0  0  0  0  0  0  0  0  0  0  0  0
   10.9406    1.6998   -0.1702 H   0  0  0  0  0  0  0  0  0  0  0  0
   11.6001    2.9434    0.8883 H   0  0  0  0  0  0  0  0  0  0  0  0
   10.5404    4.8968   -1.7984 H   0  0  0  0  0  0  0  0  0  0  0  0
   11.7732    5.5271   -3.8041 H   0  0  0  0  0  0  0  0  0  0  0  0
   13.8921    4.3836   -4.3949 H   0  0  0  0  0  0  0  0  0  0  0  0
   14.7846    2.6090   -2.9371 H   0  0  0  0  0  0  0  0  0  0  0  0
   13.1822    1.3306    0.1886 H   0  0  0  0  0  0  0  0  0  0  0  0
   14.7635    1.8104   -0.4147 H   0  0  0  0  0  0  0  0  0  0  0  0
   13.7673    0.6525   -1.3343 H   0  0  0  0  0  0  0  0  0  0  0  0
   10.6042    1.7643   -2.6020 H   0  0  0  0  0  0  0  0  0  0  0  0
   10.0237    0.7791   -4.7264 H   0  0  0  0  0  0  0  0  0  0  0  0
    7.6565    0.5113   -5.3874 H   0  0  0  0  0  0  0  0  0  0  0  0
    5.8507    1.2741   -3.8908 H   0  0  0  0  0  0  0  0  0  0  0  0
  1  2  1  0  0  0  0
  1 26  1  0  0  0  0
  1 27  1  0  0  0  0
  1 28  1  0  0  0  0
  2  3  1  0  0  0  0
  2 29  1  0  0  0  0
  2 30  1  0  0  0  0
  3  4  1  0  0  0  0
  3 31  1  0  0  0  0
  3 32  1  0  0  0  0
  4  5  1  0  0  0  0
  4 33  1  0  0  0  0
  4 34  1  0  0  0  0
  5  6  1  0  0  0  0
  5 35  1  0  0  0  0
  5 36  1  0  0  0  0
  6 25  1  0  0  0  0
  6  7  1  0  0  0  0
  7  8  1  0  0  0  0
  7  9  2  0  0  0  0
  8 37  1  0  0  0  0
  8 38  1  0  0  0  0
  8 39  1  0  0  0  0
  9 10  1  0  0  0  0
  9 20  1  0  0  0  0
 10 11  2  0  0  0  0
 10 12  1  0  0  0  0
 12 13  1  0  0  0  0
 12 40  1  0  0  0  0
 12 41  1  0  0  0  0
 13 18  2  0  0  0  0
 13 14  1  0  0  0  0
 14 15  2  0  0  0  0
 14 42  1  0  0  0  0
 15 16  1  0  0  0  0
 15 43  1  0  0  0  0
 16 17  2  0  0  0  0
 16 44  1  0  0  0  0
 17 18  1  0  0  0  0
 17 45  1  0  0  0  0
 18 19  1  0  0  0  0
 19 46  1  0  0  0  0
 19 47  1  0  0  0  0
 19 48  1  0  0  0  0
 20 25  2  0  0  0  0
 20 21  1  0  0  0  0
 21 22  2  0  0  0  0
 21 49  1  0  0  0  0
 22 23  1  0  0  0  0
 22 50  1  0  0  0  0
 23 24  2  0  0  0  0
 23 51  1  0  0  0  0
 24 25  1  0  0  0  0
 24 52  1  0  0  0  0
M  END
$$$$
CHEMBL393188
 OpenBabel12022418103D

 48 50  0  0  0  0  0  0  0  0999 V2000
    1.2684    0.5023    2.5549 C   0  0  0  0  0  0  0  0  0  0  0  0
    2.5813    1.7300    2.3395 S   0  0  0  0  0  0  0  0  0  0  0  0
    3.7211    0.8747    1.2747 C   0  0  0  0  0  0  0  0  0  0  0  0
    3.1597    0.0196   -0.0768 S   0  0  0  0  0  0  0  0  0  0  0  0
    5.0900    1.1412    1.5298 N   0  0  0  0  0  0  0  0  0  0  0  0
    5.9746    1.3658    0.3584 C   0  0  0  0  0  0  0  0  0  0  0  0
    6.7858    2.6767    0.4526 C   0  0  0  0  0  0  0  0  0  0  0  0
    7.6048    2.9153   -0.8526 C   0  0  0  0  0  0  0  0  0  0  0  0
    8.3877    4.2353   -0.8136 C   0  0  0  0  0  0  0  0  0  0  0  0
    7.4706    5.4342   -0.5968 C   0  0  0  0  0  0  0  0  0  0  0  0
    6.5229    5.2526    0.5847 C   0  0  0  0  0  0  0  0  0  0  0  0
    5.8251    3.8901    0.5928 C   0  0  0  0  0  0  0  0  0  0  0  0
    7.7788    2.5324    1.6109 C   0  0  0  0  0  0  0  0  0  0  0  0
    7.3778    1.4169    2.9564 S   0  0  0  0  0  0  0  0  0  0  0  0
    5.6506    1.0625    2.8213 C   0  0  0  0  0  0  0  0  0  0  0  0
    4.9553    0.6645    3.8535 N   0  0  0  0  0  0  0  0  0  0  0  0
    5.4746    0.6664    5.1742 C   0  0  0  0  0  0  0  0  0  0  0  0
    5.9105    1.8914    5.7234 C   0  0  0  0  0  0  0  0  0  0  0  0
    6.4942    1.9818    6.9909 C   0  0  0  0  0  0  0  0  0  0  0  0
    6.5768    0.8529    7.7881 C   0  0  0  0  0  0  0  0  0  0  0  0
    6.0601   -0.3425    7.3173 C   0  0  0  0  0  0  0  0  0  0  0  0
    5.5115   -0.4584    6.0169 C   0  0  0  0  0  0  0  0  0  0  0  0
    5.0138   -1.7098    5.8191 O   0  0  0  0  0  0  0  0  0  0  0  0
    4.9597   -2.2815    4.5324 C   0  0  0  0  0  0  0  0  0  0  0  0
    5.8605   -1.7809    3.6680 F   0  0  0  0  0  0  0  0  0  0  0  0
    5.2474   -3.6019    4.6712 F   0  0  0  0  0  0  0  0  0  0  0  0
    3.7134   -2.1950    4.0229 F   0  0  0  0  0  0  0  0  0  0  0  0
    0.5946    0.8314    3.3514 H   0  0  0  0  0  0  0  0  0  0  0  0
    1.6762   -0.4736    2.8326 H   0  0  0  0  0  0  0  0  0  0  0  0
    0.6728    0.4059    1.6420 H   0  0  0  0  0  0  0  0  0  0  0  0
    5.3941    1.4088   -0.5682 H   0  0  0  0  0  0  0  0  0  0  0  0
    6.6405    0.4965    0.2734 H   0  0  0  0  0  0  0  0  0  0  0  0
    6.9343    2.9288   -1.7219 H   0  0  0  0  0  0  0  0  0  0  0  0
    8.3076    2.0893   -1.0206 H   0  0  0  0  0  0  0  0  0  0  0  0
    8.9401    4.3663   -1.7514 H   0  0  0  0  0  0  0  0  0  0  0  0
    9.1430    4.2062   -0.0193 H   0  0  0  0  0  0  0  0  0  0  0  0
    6.8832    5.6025   -1.5078 H   0  0  0  0  0  0  0  0  0  0  0  0
    8.0741    6.3376   -0.4434 H   0  0  0  0  0  0  0  0  0  0  0  0
    5.7650    6.0460    0.5585 H   0  0  0  0  0  0  0  0  0  0  0  0
    7.0724    5.3918    1.5218 H   0  0  0  0  0  0  0  0  0  0  0  0
    5.2212    3.8143    1.5034 H   0  0  0  0  0  0  0  0  0  0  0  0
    5.1159    3.8747   -0.2485 H   0  0  0  0  0  0  0  0  0  0  0  0
    8.0785    3.4996    2.0266 H   0  0  0  0  0  0  0  0  0  0  0  0
    8.7050    2.0929    1.2205 H   0  0  0  0  0  0  0  0  0  0  0  0
    5.8236    2.8034    5.1350 H   0  0  0  0  0  0  0  0  0  0  0  0
    6.8780    2.9342    7.3457 H   0  0  0  0  0  0  0  0  0  0  0  0
    7.0177    0.9071    8.7797 H   0  0  0  0  0  0  0  0  0  0  0  0
    6.0770   -1.2186    7.9670 H   0  0  0  0  0  0  0  0  0  0  0  0
  1  2  1  0  0  0  0
  1 28  1  0  0  0  0
  1 29  1  0  0  0  0
  1 30  1  0  0  0  0
  2  3  1  0  0  0  0
  3  4  2  0  0  0  0
  3  5  1  0  0  0  0
  5 15  1  0  0  0  0
  5  6  1  0  0  0  0
  6  7  1  0  0  0  0
  6 31  1  0  0  0  0
  6 32  1  0  0  0  0
  7 12  1  0  0  0  0
  7  8  1  0  0  0  0
  7 13  1  0  0  0  0
  8  9  1  0  0  0  0
  8 33  1  0  0  0  0
  8 34  1  0  0  0  0
  9 10  1  0  0  0  0
  9 35  1  0  0  0  0
  9 36  1  0  0  0  0
 10 11  1  0  0  0  0
 10 37  1  0  0  0  0
 10 38  1  0  0  0  0
 11 12  1  0  0  0  0
 11 39  1  0  0  0  0
 11 40  1  0  0  0  0
 12 41  1  0  0  0  0
 12 42  1  0  0  0  0
 13 14  1  0  0  0  0
 13 43  1  0  0  0  0
 13 44  1  0  0  0  0
 14 15  1  0  0  0  0
 15 16  2  0  0  0  0
 16 17  1  0  0  0  0
 17 22  2  0  0  0  0
 17 18  1  0  0  0  0
 18 19  2  0  0  0  0
 18 45  1  0  0  0  0
 19 20  1  0  0  0  0
 19 46  1  0  0  0  0
 20 21  2  0  0  0  0
 20 47  1  0  0  0  0
 21 22  1  0  0  0  0
 21 48  1  0  0  0  0
 22 23  1  0  0  0  0
 23 24  1  0  0  0  0
 24 25  1  0  0  0  0
 24 26  1  0  0  0  0
 24 27  1  0  0  0  0
M  END
$$$$
CHEMBL3357338
 OpenBabel12022418103D

 63 66  0  0  0  0  0  0  0  0999 V2000
    0.9027   -0.6437    0.7795 C   0  0  0  0  0  0  0  0  0  0  0  0
   -0.5778   -1.0702    0.6471 C   0  0  0  0  0  0  0  0  0  0  0  0
   -1.4002    0.1147    0.4108 N   0  0  0  0  0  0  0  0  0  0  0  0
   -0.9841    0.9756   -0.6992 C   0  0  0  0  0  0  0  0  0  0  0  0
    0.5166    1.3260   -0.5399 C   0  0  0  0  0  0  0  0  0  0  0  0
    1.4313    0.1703   -0.3432 N   0  0  0  0  0  0  0  0  0  0  0  0
    1.5775   -0.5773   -1.6002 C   0  0  0  0  0  0  0  0  0  0  0  0
    2.5680   -1.7300   -1.5073 C   0  0  0  0  0  0  0  0  0  0  0  0
   -2.6695    0.1813    0.9446 C   0  0  0  0  0  0  0  0  0  0  0  0
   -3.7477    0.9201    0.4060 C   0  0  0  0  0  0  0  0  0  0  0  0
   -4.9494    0.9071    1.0793 C   0  0  0  0  0  0  0  0  0  0  0  0
   -5.2053    0.2683    2.2363 N   0  0  0  0  0  0  0  0  0  0  0  0
   -4.1144   -0.3643    2.7144 C   0  0  0  0  0  0  0  0  0  0  0  0
   -4.2011   -0.9555    4.0923 C   0  0  0  0  0  0  0  0  0  0  0  0
   -2.9064   -0.4637    2.1212 N   0  0  0  0  0  0  0  0  0  0  0  0
   -5.8137    1.6854    0.3231 N   0  0  0  0  0  0  0  0  0  0  0  0
   -5.1127    2.0708   -0.8313 C   0  0  0  0  0  0  0  0  0  0  0  0
   -5.5824    2.7711   -2.0551 C   0  0  0  0  0  0  0  0  0  0  0  0
   -5.0368    2.4655   -3.3307 C   0  0  0  0  0  0  0  0  0  0  0  0
   -5.4023    3.1931   -4.4744 C   0  0  0  0  0  0  0  0  0  0  0  0
   -6.3458    4.2094   -4.3903 C   0  0  0  0  0  0  0  0  0  0  0  0
   -6.9005    4.5199   -3.1566 C   0  0  0  0  0  0  0  0  0  0  0  0
   -6.4976    3.8326   -2.0030 C   0  0  0  0  0  0  0  0  0  0  0  0
   -3.9020    1.1807   -3.6182 Cl  0  0  0  0  0  0  0  0  0  0  0  0
   -3.8573    1.6733   -0.7293 N   0  0  0  0  0  0  0  0  0  0  0  0
   -7.2114    1.9350    0.6540 C   0  0  0  0  0  0  0  0  0  0  0  0
   -8.1298    0.9240   -0.0452 C   0  0  0  0  0  0  0  0  0  0  0  0
   -9.4942    1.2932    0.1862 O   0  0  0  0  0  0  0  0  0  0  0  0
  -10.4073    0.3316   -0.3207 C   0  0  0  0  0  0  0  0  0  0  0  0
   -7.5709    2.0121    2.1576 C   0  0  0  0  0  0  0  0  0  0  0  0
   -6.8358    3.0480    2.8188 O   0  0  0  0  0  0  0  0  0  0  0  0
   -7.1396    3.0644    4.2113 C   0  0  0  0  0  0  0  0  0  0  0  0
    0.9964   -0.0411    1.6948 H   0  0  0  0  0  0  0  0  0  0  0  0
    1.5293   -1.5233    0.9581 H   0  0  0  0  0  0  0  0  0  0  0  0
   -0.8582   -1.6103    1.5591 H   0  0  0  0  0  0  0  0  0  0  0  0
   -0.6974   -1.7747   -0.1848 H   0  0  0  0  0  0  0  0  0  0  0  0
   -1.5153    1.9298   -0.7089 H   0  0  0  0  0  0  0  0  0  0  0  0
   -1.1711    0.4732   -1.6584 H   0  0  0  0  0  0  0  0  0  0  0  0
    0.6172    1.9780    0.3395 H   0  0  0  0  0  0  0  0  0  0  0  0
    0.8460    1.9328   -1.3921 H   0  0  0  0  0  0  0  0  0  0  0  0
    1.9588    0.1115   -2.3659 H   0  0  0  0  0  0  0  0  0  0  0  0
    0.6202   -0.9595   -1.9702 H   0  0  0  0  0  0  0  0  0  0  0  0
    3.5331   -1.3942   -1.1142 H   0  0  0  0  0  0  0  0  0  0  0  0
    2.7381   -2.1526   -2.5031 H   0  0  0  0  0  0  0  0  0  0  0  0
    2.1926   -2.5382   -0.8721 H   0  0  0  0  0  0  0  0  0  0  0  0
   -5.1896   -0.8023    4.5317 H   0  0  0  0  0  0  0  0  0  0  0  0
   -3.4586   -0.4773    4.7409 H   0  0  0  0  0  0  0  0  0  0  0  0
   -3.9897   -2.0276    4.0524 H   0  0  0  0  0  0  0  0  0  0  0  0
   -4.9453    2.9687   -5.4363 H   0  0  0  0  0  0  0  0  0  0  0  0
   -6.6310    4.7649   -5.2802 H   0  0  0  0  0  0  0  0  0  0  0  0
   -7.6314    5.3224   -3.0804 H   0  0  0  0  0  0  0  0  0  0  0  0
   -6.8922    4.1999   -1.0619 H   0  0  0  0  0  0  0  0  0  0  0  0
   -7.4411    2.9340    0.2902 H   0  0  0  0  0  0  0  0  0  0  0  0
   -7.9484   -0.0863    0.3404 H   0  0  0  0  0  0  0  0  0  0  0  0
   -7.9504    0.9203   -1.1262 H   0  0  0  0  0  0  0  0  0  0  0  0
  -11.4212    0.6660   -0.0844 H   0  0  0  0  0  0  0  0  0  0  0  0
  -10.2433   -0.6407    0.1534 H   0  0  0  0  0  0  0  0  0  0  0  0
  -10.3078    0.2486   -1.4065 H   0  0  0  0  0  0  0  0  0  0  0  0
   -7.4259    1.0524    2.6633 H   0  0  0  0  0  0  0  0  0  0  0  0
   -8.6333    2.2654    2.2606 H   0  0  0  0  0  0  0  0  0  0  0  0
   -6.5912    3.8844    4.6812 H   0  0  0  0  0  0  0  0  0  0  0  0
   -6.8342    2.1234    4.6799 H   0  0  0  0  0  0  0  0  0  0  0  0
   -8.2113    3.2273    4.3672 H   0  0  0  0  0  0  0  0  0  0  0  0
  1  6  1  0  0  0  0
  1  2  1  0  0  0  0
  1 33  1  0  0  0  0
  1 34  1  0  0  0  0
  2  3  1  0  0  0  0
  2 35  1  0  0  0  0
  2 36  1  0  0  0  0
  3  4  1  0  0  0  0
  3  9  1  0  0  0  0
  4  5  1  0  0  0  0
  4 37  1  0  0  0  0
  4 38  1  0  0  0  0
  5  6  1  0  0  0  0
  5 39  1  0  0  0  0
  5 40  1  0  0  0  0
  6  7  1  0  0  0  0
  7  8  1  0  0  0  0
  7 41  1  0  0  0  0
  7 42  1  0  0  0  0
  8 43  1  0  0  0  0
  8 44  1  0  0  0  0
  8 45  1  0  0  0  0
  9 15  2  0  0  0  0
  9 10  1  0  0  0  0
 10 25  1  0  0  0  0
 10 11  2  0  0  0  0
 11 12  1  0  0  0  0
 11 16  1  0  0  0  0
 12 13  2  0  0  0  0
 13 14  1  0  0  0  0
 13 15  1  0  0  0  0
 14 46  1  0  0  0  0
 14 47  1  0  0  0  0
 14 48  1  0  0  0  0
 16 17  1  0  0  0  0
 16 26  1  0  0  0  0
 17 18  1  0  0  0  0
 17 25  2  0  0  0  0
 18 23  2  0  0  0  0
 18 19  1  0  0  0  0
 19 20  2  0  0  0  0
 19 24  1  0  0  0  0
 20 21  1  0  0  0  0
 20 49  1  0  0  0  0
 21 22  2  0  0  0  0
 21 50  1  0  0  0  0
 22 23  1  0  0  0  0
 22 51  1  0  0  0  0
 23 52  1  0  0  0  0
 26 27  1  0  0  0  0
 26 30  1  0  0  0  0
 26 53  1  0  0  0  0
 27 28  1  0  0  0  0
 27 54  1  0  0  0  0
 27 55  1  0  0  0  0
 28 29  1  0  0  0  0
 29 56  1  0  0  0  0
 29 57  1  0  0  0  0
 29 58  1  0  0  0  0
 30 31  1  0  0  0  0
 30 59  1  0  0  0  0
 30 60  1  0  0  0  0
 31 32  1  0  0  0  0
 32 61  1  0  0  0  0
 32 62  1  0  0  0  0
 32 63  1  0  0  0  0
M  END
$$$$
CHEMBL1828799
 OpenBabel12022418103D

 53 56  0  0  0  0  0  0  0  0999 V2000
    4.9859   -0.8731    2.4222 C   0  0  0  0  0  0  0  0  0  0  0  0
    4.5054   -1.5669    1.1578 C   0  0  0  0  0  0  0  0  0  0  0  0
    5.0610   -0.8881   -0.0946 C   0  0  0  0  0  0  0  0  0  0  0  0
    4.5815   -1.5997   -1.3620 C   0  0  0  0  0  0  0  0  0  0  0  0
    5.1527   -1.0015   -2.6517 C   0  0  0  0  0  0  0  0  0  0  0  0
    6.6045   -0.9849   -2.7232 N   0  0  0  0  0  0  0  0  0  0  0  0
    7.3486    0.1643   -2.7873 C   0  0  0  0  0  0  0  0  0  0  0  0
    8.6915   -0.1707   -2.7330 C   0  0  0  0  0  0  0  0  0  0  0  0
    9.8176    0.7622   -2.7244 C   0  0  0  0  0  0  0  0  0  0  0  0
   10.9100    0.4774   -3.2107 O   0  0  0  0  0  0  0  0  0  0  0  0
    9.6514    2.0982   -2.0825 C   0  0  0  0  0  0  0  0  0  0  0  0
   10.3935    3.1826   -2.5590 C   0  0  0  0  0  0  0  0  0  0  0  0
   10.3037    4.4331   -1.9290 C   0  0  0  0  0  0  0  0  0  0  0  0
    9.4711    4.6361   -0.8125 C   0  0  0  0  0  0  0  0  0  0  0  0
    9.4108    5.9331   -0.0937 C   0  0  0  0  0  0  0  0  0  0  0  0
    9.1745    5.9777    1.2954 C   0  0  0  0  0  0  0  0  0  0  0  0
    9.0955    7.1871    1.9915 C   0  0  0  0  0  0  0  0  0  0  0  0
    9.2715    8.3877    1.3160 C   0  0  0  0  0  0  0  0  0  0  0  0
    9.5275    8.3782   -0.0528 C   0  0  0  0  0  0  0  0  0  0  0  0
    9.5904    7.1647   -0.7490 C   0  0  0  0  0  0  0  0  0  0  0  0
    8.7132    3.5349   -0.3727 C   0  0  0  0  0  0  0  0  0  0  0  0
    8.8195    2.2791   -0.9759 C   0  0  0  0  0  0  0  0  0  0  0  0
    8.7497   -1.6022   -2.7122 C   0  0  0  0  0  0  0  0  0  0  0  0
    9.8103   -2.5332   -2.6653 C   0  0  0  0  0  0  0  0  0  0  0  0
    9.5346   -3.9037   -2.6360 C   0  0  0  0  0  0  0  0  0  0  0  0
    8.2217   -4.3590   -2.6620 C   0  0  0  0  0  0  0  0  0  0  0  0
    7.1524   -3.4614   -2.7131 C   0  0  0  0  0  0  0  0  0  0  0  0
    7.4349   -2.0851   -2.7239 C   0  0  0  0  0  0  0  0  0  0  0  0
    4.5800   -1.3729    3.3067 H   0  0  0  0  0  0  0  0  0  0  0  0
    4.6628    0.1724    2.4417 H   0  0  0  0  0  0  0  0  0  0  0  0
    6.0788   -0.8964    2.4903 H   0  0  0  0  0  0  0  0  0  0  0  0
    3.4099   -1.5593    1.1335 H   0  0  0  0  0  0  0  0  0  0  0  0
    4.8227   -2.6164    1.1836 H   0  0  0  0  0  0  0  0  0  0  0  0
    6.1557   -0.8973   -0.0441 H   0  0  0  0  0  0  0  0  0  0  0  0
    4.7462    0.1621   -0.1214 H   0  0  0  0  0  0  0  0  0  0  0  0
    3.4869   -1.5461   -1.4130 H   0  0  0  0  0  0  0  0  0  0  0  0
    4.8324   -2.6630   -1.2935 H   0  0  0  0  0  0  0  0  0  0  0  0
    4.8011    0.0316   -2.7613 H   0  0  0  0  0  0  0  0  0  0  0  0
    4.7980   -1.5594   -3.5260 H   0  0  0  0  0  0  0  0  0  0  0  0
    6.8658    1.1319   -2.8410 H   0  0  0  0  0  0  0  0  0  0  0  0
   11.0594    3.0571   -3.4109 H   0  0  0  0  0  0  0  0  0  0  0  0
   10.9238    5.2409   -2.3123 H   0  0  0  0  0  0  0  0  0  0  0  0
    9.0590    5.0602    1.8677 H   0  0  0  0  0  0  0  0  0  0  0  0
    8.8974    7.1830    3.0599 H   0  0  0  0  0  0  0  0  0  0  0  0
    9.2152    9.3290    1.8554 H   0  0  0  0  0  0  0  0  0  0  0  0
    9.6784    9.3147   -0.5815 H   0  0  0  0  0  0  0  0  0  0  0  0
    9.7736    7.2010   -1.8204 H   0  0  0  0  0  0  0  0  0  0  0  0
    8.0276    3.6348    0.4664 H   0  0  0  0  0  0  0  0  0  0  0  0
    8.2572    1.4518   -0.5504 H   0  0  0  0  0  0  0  0  0  0  0  0
   10.8407   -2.1859   -2.6515 H   0  0  0  0  0  0  0  0  0  0  0  0
   10.3553   -4.6152   -2.5973 H   0  0  0  0  0  0  0  0  0  0  0  0
    8.0219   -5.4277   -2.6422 H   0  0  0  0  0  0  0  0  0  0  0  0
    6.1341   -3.8337   -2.7385 H   0  0  0  0  0  0  0  0  0  0  0  0
  1  2  1  0  0  0  0
  1 29  1  0  0  0  0
  1 30  1  0  0  0  0
  1 31  1  0  0  0  0
  2  3  1  0  0  0  0
  2 32  1  0  0  0  0
  2 33  1  0  0  0  0
  3  4  1  0  0  0  0
  3 34  1  0  0  0  0
  3 35  1  0  0  0  0
  4  5  1  0  0  0  0
  4 36  1  0  0  0  0
  4 37  1  0  0  0  0
  5  6  1  0  0  0  0
  5 38  1  0  0  0  0
  5 39  1  0  0  0  0
  6 28  1  0  0  0  0
  6  7  1  0  0  0  0
  7  8  2  0  0  0  0
  7 40  1  0  0  0  0
  8  9  1  0  0  0  0
  8 23  1  0  0  0  0
  9 10  2  0  0  0  0
  9 11  1  0  0  0  0
 11 22  2  0  0  0  0
 11 12  1  0  0  0  0
 12 13  2  0  0  0  0
 12 41  1  0  0  0  0
 13 14  1  0  0  0  0
 13 42  1  0  0  0  0
 14 15  1  0  0  0  0
 14 21  2  0  0  0  0
 15 20  2  0  0  0  0
 15 16  1  0  0  0  0
 16 17  2  0  0  0  0
 16 43  1  0  0  0  0
 17 18  1  0  0  0  0
 17 44  1  0  0  0  0
 18 19  2  0  0  0  0
 18 45  1  0  0  0  0
 19 20  1  0  0  0  0
 19 46  1  0  0  0  0
 20 47  1  0  0  0  0
 21 22  1  0  0  0  0
 21 48  1  0  0  0  0
 22 49  1  0  0  0  0
 23 28  2  0  0  0  0
 23 24  1  0  0  0  0
 24 25  2  0  0  0  0
 24 50  1  0  0  0  0
 25 26  1  0  0  0  0
 25 51  1  0  0  0  0
 26 27  2  0  0  0  0
 26 52  1  0  0  0  0
 27 28  1  0  0  0  0
 27 53  1  0  0  0  0
M  END
$$$$
CHEMBL4448509
 OpenBabel12022418103D

 50 53  0  0  0  0  0  0  0  0999 V2000
   -2.1084   -0.7530    0.0000 C   0  0  0  0  0  0  0  0  0  0  0  0
   -2.1896    0.6227   -0.0635 C   0  0  0  0  0  0  0  0  0  0  0  0
   -1.0257    1.4011   -0.0349 C   0  0  0  0  0  0  0  0  0  0  0  0
    0.2371    0.7654   -0.0070 C   0  0  0  0  0  0  0  0  0  0  0  0
    0.3126   -0.6322    0.0651 C   0  0  0  0  0  0  0  0  0  0  0  0
   -0.8798   -1.3920    0.0863 C   0  0  0  0  0  0  0  0  0  0  0  0
    1.6891   -0.9958    0.1077 C   0  0  0  0  0  0  0  0  0  0  0  0
    2.4275    0.1764    0.0818 C   0  0  0  0  0  0  0  0  0  0  0  0
    3.9159    0.3448    0.0776 C   0  0  0  0  0  0  0  0  0  0  0  0
    1.5539    1.2678    0.0018 N   0  0  0  0  0  0  0  0  0  0  0  0
    1.9616    2.6334   -0.0939 C   0  0  0  0  0  0  0  0  0  0  0  0
    3.1017    2.9227    0.2667 O   0  0  0  0  0  0  0  0  0  0  0  0
    1.1543    3.7114   -0.7038 C   0  0  0  0  0  0  0  0  0  0  0  0
    1.0260    4.9854   -0.1227 C   0  0  0  0  0  0  0  0  0  0  0  0
    0.2319    5.9411   -0.7757 C   0  0  0  0  0  0  0  0  0  0  0  0
   -0.4182    5.6284   -1.9755 C   0  0  0  0  0  0  0  0  0  0  0  0
   -0.2568    4.3754   -2.5618 C   0  0  0  0  0  0  0  0  0  0  0  0
    0.5497    3.4293   -1.9409 C   0  0  0  0  0  0  0  0  0  0  0  0
   -0.0051    7.5391   -0.1545 Cl  0  0  0  0  0  0  0  0  0  0  0  0
    1.7784    5.3688    1.3917 Cl  0  0  0  0  0  0  0  0  0  0  0  0
    2.2147   -2.4015    0.1887 C   0  0  0  0  0  0  0  0  0  0  0  0
    1.8326   -3.2635   -1.0278 C   0  0  0  0  0  0  0  0  0  0  0  0
    2.2646   -4.6631   -1.0052 N   0  0  0  0  0  0  0  0  0  0  0  0
    3.7175   -4.8308   -1.1683 C   0  0  0  0  0  0  0  0  0  0  0  0
    4.0387   -6.3264   -1.3102 C   0  0  0  0  0  0  0  0  0  0  0  0
    3.6059   -7.0623   -0.1553 O   0  0  0  0  0  0  0  0  0  0  0  0
    2.1955   -6.8878    0.0523 C   0  0  0  0  0  0  0  0  0  0  0  0
    1.8342   -5.4019    0.1963 C   0  0  0  0  0  0  0  0  0  0  0  0
   -3.2311   -1.4852   -0.0109 F   0  0  0  0  0  0  0  0  0  0  0  0
   -3.1674    1.0926   -0.1225 H   0  0  0  0  0  0  0  0  0  0  0  0
   -1.1355    2.4801   -0.0375 H   0  0  0  0  0  0  0  0  0  0  0  0
   -0.8601   -2.4744    0.1620 H   0  0  0  0  0  0  0  0  0  0  0  0
    4.4397   -0.6140    0.0500 H   0  0  0  0  0  0  0  0  0  0  0  0
    4.2503    0.8656    0.9797 H   0  0  0  0  0  0  0  0  0  0  0  0
    4.2379    0.9023   -0.8084 H   0  0  0  0  0  0  0  0  0  0  0  0
   -1.0543    6.3642   -2.4646 H   0  0  0  0  0  0  0  0  0  0  0  0
   -0.7595    4.1345   -3.4951 H   0  0  0  0  0  0  0  0  0  0  0  0
    0.6835    2.4591   -2.4192 H   0  0  0  0  0  0  0  0  0  0  0  0
    1.8198   -2.8412    1.1114 H   0  0  0  0  0  0  0  0  0  0  0  0
    3.3035   -2.3946    0.2911 H   0  0  0  0  0  0  0  0  0  0  0  0
    2.2005   -2.7885   -1.9473 H   0  0  0  0  0  0  0  0  0  0  0  0
    0.7447   -3.2767   -1.1519 H   0  0  0  0  0  0  0  0  0  0  0  0
    4.2522   -4.4271   -0.2993 H   0  0  0  0  0  0  0  0  0  0  0  0
    4.0681   -4.3012   -2.0609 H   0  0  0  0  0  0  0  0  0  0  0  0
    5.1195   -6.4664   -1.4078 H   0  0  0  0  0  0  0  0  0  0  0  0
    3.5645   -6.7467   -2.2057 H   0  0  0  0  0  0  0  0  0  0  0  0
    1.9280   -7.4235    0.9686 H   0  0  0  0  0  0  0  0  0  0  0  0
    1.6460   -7.3477   -0.7776 H   0  0  0  0  0  0  0  0  0  0  0  0
    0.7529   -5.3034    0.3437 H   0  0  0  0  0  0  0  0  0  0  0  0
    2.3371   -5.0094    1.0897 H   0  0  0  0  0  0  0  0  0  0  0  0
  1  6  2  0  0  0  0
  1  2  1  0  0  0  0
  1 29  1  0  0  0  0
  2  3  2  0  0  0  0
  2 30  1  0  0  0  0
  3  4  1  0  0  0  0
  3 31  1  0  0  0  0
  4 10  1  0  0  0  0
  4  5  2  0  0  0  0
  5  6  1  0  0  0  0
  5  7  1  0  0  0  0
  6 32  1  0  0  0  0
  7  8  2  0  0  0  0
  7 21  1  0  0  0  0
  8  9  1  0  0  0  0
  8 10  1  0  0  0  0
  9 33  1  0  0  0  0
  9 34  1  0  0  0  0
  9 35  1  0  0  0  0
 10 11  1  0  0  0  0
 11 12  2  0  0  0  0
 11 13  1  0  0  0  0
 13 18  2  0  0  0  0
 13 14  1  0  0  0  0
 14 15  2  0  0  0  0
 14 20  1  0  0  0  0
 15 16  1  0  0  0  0
 15 19  1  0  0  0  0
 16 17  2  0  0  0  0
 16 36  1  0  0  0  0
 17 18  1  0  0  0  0
 17 37  1  0  0  0  0
 18 38  1  0  0  0  0
 21 22  1  0  0  0  0
 21 39  1  0  0  0  0
 21 40  1  0  0  0  0
 22 23  1  0  0  0  0
 22 41  1  0  0  0  0
 22 42  1  0  0  0  0
 23 28  1  0  0  0  0
 23 24  1  0  0  0  0
 24 25  1  0  0  0  0
 24 43  1  0  0  0  0
 24 44  1  0  0  0  0
 25 26  1  0  0  0  0
 25 45  1  0  0  0  0
 25 46  1  0  0  0  0
 26 27  1  0  0  0  0
 27 28  1  0  0  0  0
 27 47  1  0  0  0  0
 27 48  1  0  0  0  0
 28 49  1  0  0  0  0
 28 50  1  0  0  0  0
M  END
$$$$
CHEMBL3354961
 OpenBabel12022418103D

 57 62  0  0  1  0  0  0  0  0999 V2000
    0.1708    3.1387   -0.4833 C   0  0  0  0  0  0  0  0  0  0  0  0
    0.9674    2.0792    0.3122 C   0  0  0  0  0  0  0  0  0  0  0  0
    1.8663    2.8343    1.2999 C   0  0  0  0  0  0  0  0  0  0  0  0
    1.7789    1.1917   -0.6937 C   0  0  1  0  0  0  0  0  0  0  0  0
    2.7874    0.2826    0.0275 C   0  0  0  0  0  0  0  0  0  0  0  0
    1.8842   -0.7052    0.7759 C   0  0  0  0  0  0  0  0  0  0  0  0
    0.4636   -0.3129    0.3055 C   0  0  2  0  0  0  0  0  0  0  0  0
   -0.0031    1.0247    0.9648 C   0  0  1  0  0  0  0  0  0  0  0  0
   -0.0600    0.9976    2.4210 N   0  0  0  0  0  0  0  0  0  0  0  0
   -0.8996    1.8175    3.1508 C   0  0  0  0  0  0  0  0  0  0  0  0
   -1.6619    2.6230    2.6225 O   0  0  0  0  0  0  0  0  0  0  0  0
   -0.8235    1.6626    4.6226 C   0  0  0  0  0  0  0  0  0  0  0  0
   -1.5433    2.4221    5.5682 C   0  0  0  0  0  0  0  0  0  0  0  0
   -1.1207    1.9831    6.7867 C   0  0  0  0  0  0  0  0  0  0  0  0
   -1.5408    2.9182    7.8956 C   0  0  1  0  0  0  0  0  0  0  0  0
   -2.2806    4.0355    7.1245 C   0  0  1  0  0  0  0  0  0  0  0  0
   -2.3889    3.6400    5.6332 C   0  0  0  0  0  0  0  0  0  0  0  0
   -2.9839    3.2394    8.1773 C   0  0  0  0  0  0  0  0  0  0  0  0
   -0.2174    0.9886    6.6033 N   0  0  0  0  0  0  0  0  0  0  0  0
    0.4533    0.2830    7.6278 C   0  0  0  0  0  0  0  0  0  0  0  0
    1.7559   -0.1870    7.4260 C   0  0  0  0  0  0  0  0  0  0  0  0
    2.4536   -0.7434    8.5035 C   0  0  0  0  0  0  0  0  0  0  0  0
    1.8379   -0.8702    9.7499 C   0  0  0  0  0  0  0  0  0  0  0  0
    0.5269   -0.4680    9.9423 C   0  0  0  0  0  0  0  0  0  0  0  0
   -0.1583    0.1079    8.8800 C   0  0  0  0  0  0  0  0  0  0  0  0
   -1.4423    0.4355    9.0845 F   0  0  0  0  0  0  0  0  0  0  0  0
    2.5236   -1.3859   10.7780 F   0  0  0  0  0  0  0  0  0  0  0  0
    0.0278    0.8044    5.2560 N   0  0  0  0  0  0  0  0  0  0  0  0
   -0.5403   -1.4458    0.3882 C   0  0  0  0  0  0  0  0  0  0  0  0
    0.7472    0.1471   -1.1332 C   0  0  0  0  0  0  0  0  0  0  0  0
   -0.4336    3.7616    0.1843 H   0  0  0  0  0  0  0  0  0  0  0  0
   -0.5089    2.6911   -1.2152 H   0  0  0  0  0  0  0  0  0  0  0  0
    0.8493    3.7998   -1.0359 H   0  0  0  0  0  0  0  0  0  0  0  0
    1.2851    3.5425    1.9007 H   0  0  0  0  0  0  0  0  0  0  0  0
    2.6303    3.4093    0.7635 H   0  0  0  0  0  0  0  0  0  0  0  0
    2.3793    2.1667    1.9978 H   0  0  0  0  0  0  0  0  0  0  0  0
    2.2304    1.7546   -1.5149 H   0  0  0  0  0  0  0  0  0  0  0  0
    3.4802    0.8103    0.6862 H   0  0  0  0  0  0  0  0  0  0  0  0
    3.3962   -0.2603   -0.7069 H   0  0  0  0  0  0  0  0  0  0  0  0
    2.0171   -0.6343    1.8584 H   0  0  0  0  0  0  0  0  0  0  0  0
    2.1357   -1.7307    0.4804 H   0  0  0  0  0  0  0  0  0  0  0  0
   -1.0263    1.2304    0.6193 H   0  0  0  0  0  0  0  0  0  0  0  0
    0.5711    0.4241    2.9721 H   0  0  0  0  0  0  0  0  0  0  0  0
   -0.8579    3.0861    8.7172 H   0  0  0  0  0  0  0  0  0  0  0  0
   -1.9948    5.0607    7.3056 H   0  0  0  0  0  0  0  0  0  0  0  0
   -3.4277    3.4312    5.3684 H   0  0  0  0  0  0  0  0  0  0  0  0
   -1.9914    4.4399    5.0019 H   0  0  0  0  0  0  0  0  0  0  0  0
   -3.1986    3.7252    9.1246 H   0  0  0  0  0  0  0  0  0  0  0  0
   -3.7299    2.5064    7.8946 H   0  0  0  0  0  0  0  0  0  0  0  0
    2.2550   -0.0631    6.4685 H   0  0  0  0  0  0  0  0  0  0  0  0
    3.4854   -1.0608    8.3916 H   0  0  0  0  0  0  0  0  0  0  0  0
    0.0436   -0.5964   10.9043 H   0  0  0  0  0  0  0  0  0  0  0  0
   -0.6467   -1.8082    1.4146 H   0  0  0  0  0  0  0  0  0  0  0  0
   -0.2264   -2.2901   -0.2368 H   0  0  0  0  0  0  0  0  0  0  0  0
   -1.5259   -1.1272    0.0325 H   0  0  0  0  0  0  0  0  0  0  0  0
    1.1762   -0.6401   -1.7652 H   0  0  0  0  0  0  0  0  0  0  0  0
   -0.1272    0.5631   -1.6423 H   0  0  0  0  0  0  0  0  0  0  0  0
  1  2  1  0  0  0  0
  1 31  1  0  0  0  0
  1 32  1  0  0  0  0
  1 33  1  0  0  0  0
  2  8  1  0  0  0  0
  2  3  1  0  0  0  0
  2  4  1  0  0  0  0
  3 34  1  0  0  0  0
  3 35  1  0  0  0  0
  3 36  1  0  0  0  0
  4  5  1  0  0  0  0
  4 30  1  0  0  0  0
  4 37  1  6  0  0  0
  5  6  1  0  0  0  0
  5 38  1  0  0  0  0
  5 39  1  0  0  0  0
  6  7  1  0  0  0  0
  6 40  1  0  0  0  0
  6 41  1  0  0  0  0
  7  8  1  0  0  0  0
  7 29  1  1  0  0  0
  7 30  1  0  0  0  0
  8  9  1  0  0  0  0
  8 42  1  6  0  0  0
  9 10  1  0  0  0  0
  9 43  1  0  0  0  0
 10 11  2  0  0  0  0
 10 12  1  0  0  0  0
 12 28  2  0  0  0  0
 12 13  1  0  0  0  0
 13 17  1  0  0  0  0
 13 14  2  0  0  0  0
 14 15  1  0  0  0  0
 14 19  1  0  0  0  0
 15 16  1  0  0  0  0
 15 18  1  0  0  0  0
 15 44  1  1  0  0  0
 16 17  1  0  0  0  0
 16 18  1  0  0  0  0
 16 45  1  1  0  0  0
 17 46  1  0  0  0  0
 17 47  1  0  0  0  0
 18 48  1  0  0  0  0
 18 49  1  0  0  0  0
 19 20  1  0  0  0  0
 19 28  1  0  0  0  0
 20 25  2  0  0  0  0
 20 21  1  0  0  0  0
 21 22  2  0  0  0  0
 21 50  1  0  0  0  0
 22 23  1  0  0  0  0
 22 51  1  0  0  0  0
 23 24  2  0  0  0  0
 23 27  1  0  0  0  0
 24 25  1  0  0  0  0
 24 52  1  0  0  0  0
 25 26  1  0  0  0  0
 29 53  1  0  0  0  0
 29 54  1  0  0  0  0
 29 55  1  0  0  0  0
 30 56  1  0  0  0  0
 30 57  1  0  0  0  0
M  END
$$$$
CHEMBL245909
 OpenBabel12022418103D

 43 44  0  0  0  0  0  0  0  0999 V2000
    3.6975   -4.1867    3.5399 C   0  0  0  0  0  0  0  0  0  0  0  0
    3.9911   -2.8386    2.8719 C   0  0  0  0  0  0  0  0  0  0  0  0
    3.5811   -2.6756    1.4231 C   0  0  0  0  0  0  0  0  0  0  0  0
    2.8614   -3.7055    0.7692 C   0  0  0  0  0  0  0  0  0  0  0  0
    2.5606   -3.6418   -0.5864 C   0  0  0  0  0  0  0  0  0  0  0  0
    3.0137   -2.5686   -1.3308 C   0  0  0  0  0  0  0  0  0  0  0  0
    3.7251   -1.5428   -0.7040 C   0  0  0  0  0  0  0  0  0  0  0  0
    3.9437   -1.5170    0.6860 C   0  0  0  0  0  0  0  0  0  0  0  0
    4.6054   -0.4145    1.3039 N   0  0  0  0  0  0  0  0  0  0  0  0
    4.3073    0.8401    1.0866 C   0  0  0  0  0  0  0  0  0  0  0  0
    5.0216    1.8725    1.7244 N   0  0  0  0  0  0  0  0  0  0  0  0
    5.4673    3.0404    0.9367 C   0  0  0  0  0  0  0  0  0  0  0  0
    4.3408    3.7813    0.1971 C   0  0  0  0  0  0  0  0  0  0  0  0
    3.7276    2.7859   -0.7843 C   0  0  0  0  0  0  0  0  0  0  0  0
    2.9700    1.3967    0.0760 S   0  0  0  0  0  0  0  0  0  0  0  0
    4.9184    4.9769   -0.5915 C   0  0  0  0  0  0  0  0  0  0  0  0
    3.3083    4.3523    1.1956 C   0  0  0  0  0  0  0  0  0  0  0  0
    5.4986    1.7295    3.0416 C   0  0  0  0  0  0  0  0  0  0  0  0
    6.9382    2.3782    3.6437 S   0  0  0  0  0  0  0  0  0  0  0  0
    4.2744    1.0825    4.1546 S   0  0  0  0  0  0  0  0  0  0  0  0
    5.2380   -0.1696    5.0204 C   0  0  0  0  0  0  0  0  0  0  0  0
    4.0966   -4.2010    4.5598 H   0  0  0  0  0  0  0  0  0  0  0  0
    4.1646   -5.0148    2.9943 H   0  0  0  0  0  0  0  0  0  0  0  0
    2.6215   -4.3796    3.6053 H   0  0  0  0  0  0  0  0  0  0  0  0
    5.0756   -2.6922    2.9227 H   0  0  0  0  0  0  0  0  0  0  0  0
    3.5067   -2.0558    3.4635 H   0  0  0  0  0  0  0  0  0  0  0  0
    2.5313   -4.5943    1.3080 H   0  0  0  0  0  0  0  0  0  0  0  0
    2.0043   -4.4469   -1.0652 H   0  0  0  0  0  0  0  0  0  0  0  0
    2.8183   -2.5184   -2.3978 H   0  0  0  0  0  0  0  0  0  0  0  0
    4.1018   -0.7369   -1.3262 H   0  0  0  0  0  0  0  0  0  0  0  0
    6.2156    2.6723    0.2190 H   0  0  0  0  0  0  0  0  0  0  0  0
    5.9751    3.7704    1.5706 H   0  0  0  0  0  0  0  0  0  0  0  0
    4.4911    2.4013   -1.4746 H   0  0  0  0  0  0  0  0  0  0  0  0
    2.9642    3.2698   -1.4024 H   0  0  0  0  0  0  0  0  0  0  0  0
    5.6774    4.6602   -1.3121 H   0  0  0  0  0  0  0  0  0  0  0  0
    5.3820    5.7103    0.0803 H   0  0  0  0  0  0  0  0  0  0  0  0
    4.1265    5.4977   -1.1438 H   0  0  0  0  0  0  0  0  0  0  0  0
    2.9614    3.6137    1.9170 H   0  0  0  0  0  0  0  0  0  0  0  0
    2.4296    4.7386    0.6699 H   0  0  0  0  0  0  0  0  0  0  0  0
    3.7393    5.1769    1.7777 H   0  0  0  0  0  0  0  0  0  0  0  0
    4.5658   -0.7545    5.6528 H   0  0  0  0  0  0  0  0  0  0  0  0
    5.9942    0.2867    5.6635 H   0  0  0  0  0  0  0  0  0  0  0  0
    5.7234   -0.8400    4.3084 H   0  0  0  0  0  0  0  0  0  0  0  0
  1  2  1  0  0  0  0
  1 22  1  0  0  0  0
  1 23  1  0  0  0  0
  1 24  1  0  0  0  0
  2  3  1  0  0  0  0
  2 25  1  0  0  0  0
  2 26  1  0  0  0  0
  3  8  2  0  0  0  0
  3  4  1  0  0  0  0
  4  5  2  0  0  0  0
  4 27  1  0  0  0  0
  5  6  1  0  0  0  0
  5 28  1  0  0  0  0
  6  7  2  0  0  0  0
  6 29  1  0  0  0  0
  7  8  1  0  0  0  0
  7 30  1  0  0  0  0
  8  9  1  0  0  0  0
  9 10  2  0  0  0  0
 10 15  1  0  0  0  0
 10 11  1  0  0  0  0
 11 12  1  0  0  0  0
 11 18  1  0  0  0  0
 12 13  1  0  0  0  0
 12 31  1  0  0  0  0
 12 32  1  0  0  0  0
 13 14  1  0  0  0  0
 13 16  1  0  0  0  0
 13 17  1  0  0  0  0
 14 15  1  0  0  0  0
 14 33  1  0  0  0  0
 14 34  1  0  0  0  0
 16 35  1  0  0  0  0
 16 36  1  0  0  0  0
 16 37  1  0  0  0  0
 17 38  1  0  0  0  0
 17 39  1  0  0  0  0
 17 40  1  0  0  0  0
 18 19  2  0  0  0  0
 18 20  1  0  0  0  0
 20 21  1  0  0  0  0
 21 41  1  0  0  0  0
 21 42  1  0  0  0  0
 21 43  1  0  0  0  0
M  END
$$$$
CHEMBL1271093
 OpenBabel12022418103D

 64 67  0  0  0  0  0  0  0  0999 V2000
    2.6377    1.4238    0.2849 C   0  0  0  0  0  0  0  0  0  0  0  0
    2.2810   -0.0433    0.0441 C   0  0  0  0  0  0  0  0  0  0  0  0
    3.0594   -1.0861    0.9173 C   0  0  0  0  0  0  0  0  0  0  0  0
    2.7246   -0.7931    2.4105 C   0  0  0  0  0  0  0  0  0  0  0  0
    3.3395   -1.7764    3.3382 N   0  0  0  0  0  0  0  0  0  0  0  0
    2.8627   -1.5684    4.9813 S   0  0  0  0  0  0  0  0  0  0  0  0
    3.3379   -0.2390    5.3235 O   0  0  0  0  0  0  0  0  0  0  0  0
    1.4400   -1.8554    5.0168 O   0  0  0  0  0  0  0  0  0  0  0  0
    3.8419   -2.8731    5.9137 C   0  0  0  0  0  0  0  0  0  0  0  0
    4.6162   -3.6108    5.0651 F   0  0  0  0  0  0  0  0  0  0  0  0
    4.6931   -2.3129    6.8193 F   0  0  0  0  0  0  0  0  0  0  0  0
    3.0494   -3.7436    6.5949 F   0  0  0  0  0  0  0  0  0  0  0  0
    4.5812   -1.0458    0.6176 C   0  0  0  0  0  0  0  0  0  0  0  0
    4.9183   -1.4510   -0.8309 C   0  0  0  0  0  0  0  0  0  0  0  0
    4.4025   -2.8144   -1.1329 N   0  0  0  0  0  0  0  0  0  0  0  0
    2.9473   -2.9744   -0.8235 C   0  0  0  0  0  0  0  0  0  0  0  0
    2.5871   -2.5200    0.5812 C   0  0  0  0  0  0  0  0  0  0  0  0
    4.6938   -3.4065   -2.7169 S   0  0  0  0  0  0  0  0  0  0  0  0
    4.2116   -4.7608   -2.8387 O   0  0  0  0  0  0  0  0  0  0  0  0
    4.2135   -2.3772   -3.6202 O   0  0  0  0  0  0  0  0  0  0  0  0
    6.3972   -3.5526   -3.1448 C   0  0  0  0  0  0  0  0  0  0  0  0
    7.0684   -2.8637   -4.1509 C   0  0  0  0  0  0  0  0  0  0  0  0
    8.3551   -3.4124   -4.3250 C   0  0  0  0  0  0  0  0  0  0  0  0
    9.4064   -3.1161   -5.2137 C   0  0  0  0  0  0  0  0  0  0  0  0
   10.5828   -3.8526   -5.1352 C   0  0  0  0  0  0  0  0  0  0  0  0
   10.7260   -4.8820   -4.2195 C   0  0  0  0  0  0  0  0  0  0  0  0
    9.6824   -5.2093   -3.3448 C   0  0  0  0  0  0  0  0  0  0  0  0
    8.4910   -4.4527   -3.3993 C   0  0  0  0  0  0  0  0  0  0  0  0
    7.2905   -4.5082   -2.6865 N   0  0  0  0  0  0  0  0  0  0  0  0
    7.0361   -5.6047   -1.3934 S   0  0  0  0  0  0  0  0  0  0  0  0
    8.3233   -5.6898   -0.7236 O   0  0  0  0  0  0  0  0  0  0  0  0
    5.8896   -5.1318   -0.6499 O   0  0  0  0  0  0  0  0  0  0  0  0
    6.6746   -7.2276   -1.9727 C   0  0  0  0  0  0  0  0  0  0  0  0
    6.4008   -8.2047   -0.9997 C   0  0  0  0  0  0  0  0  0  0  0  0
    6.2145   -9.5391   -1.3706 C   0  0  0  0  0  0  0  0  0  0  0  0
    6.3032   -9.9050   -2.7117 C   0  0  0  0  0  0  0  0  0  0  0  0
    6.5545   -8.9296   -3.6790 C   0  0  0  0  0  0  0  0  0  0  0  0
    6.7309   -7.5935   -3.3069 C   0  0  0  0  0  0  0  0  0  0  0  0
    6.9720   -6.7018   -4.2719 F   0  0  0  0  0  0  0  0  0  0  0  0
   11.5960   -3.5578   -5.9609 F   0  0  0  0  0  0  0  0  0  0  0  0
    2.0718    2.0615   -0.4028 H   0  0  0  0  0  0  0  0  0  0  0  0
    3.6990    1.6213    0.1122 H   0  0  0  0  0  0  0  0  0  0  0  0
    2.3839    1.7453    1.2990 H   0  0  0  0  0  0  0  0  0  0  0  0
    2.4261   -0.2428   -1.0223 H   0  0  0  0  0  0  0  0  0  0  0  0
    1.2035   -0.1600    0.2200 H   0  0  0  0  0  0  0  0  0  0  0  0
    1.6348   -0.8241    2.5398 H   0  0  0  0  0  0  0  0  0  0  0  0
    3.0798    0.2027    2.6910 H   0  0  0  0  0  0  0  0  0  0  0  0
    4.3585   -1.7890    3.2733 H   0  0  0  0  0  0  0  0  0  0  0  0
    5.1100   -1.7357    1.2871 H   0  0  0  0  0  0  0  0  0  0  0  0
    4.9904   -0.0513    0.8289 H   0  0  0  0  0  0  0  0  0  0  0  0
    6.0093   -1.4523   -0.9362 H   0  0  0  0  0  0  0  0  0  0  0  0
    4.5185   -0.7160   -1.5361 H   0  0  0  0  0  0  0  0  0  0  0  0
    2.6919   -4.0383   -0.8927 H   0  0  0  0  0  0  0  0  0  0  0  0
    2.3449   -2.4371   -1.5635 H   0  0  0  0  0  0  0  0  0  0  0  0
    1.5005   -2.5997    0.7114 H   0  0  0  0  0  0  0  0  0  0  0  0
    3.0351   -3.2348    1.2831 H   0  0  0  0  0  0  0  0  0  0  0  0
    6.6222   -2.0783   -4.7493 H   0  0  0  0  0  0  0  0  0  0  0  0
    9.3152   -2.3248   -5.9514 H   0  0  0  0  0  0  0  0  0  0  0  0
   11.6610   -5.4351   -4.1879 H   0  0  0  0  0  0  0  0  0  0  0  0
    9.8181   -6.0296   -2.6453 H   0  0  0  0  0  0  0  0  0  0  0  0
    6.3485   -7.9338    0.0542 H   0  0  0  0  0  0  0  0  0  0  0  0
    6.0135  -10.2944   -0.6124 H   0  0  0  0  0  0  0  0  0  0  0  0
    6.1780  -10.9461   -3.0029 H   0  0  0  0  0  0  0  0  0  0  0  0
    6.6264   -9.2088   -4.7269 H   0  0  0  0  0  0  0  0  0  0  0  0
  1  2  1  0  0  0  0
  1 41  1  0  0  0  0
  1 42  1  0  0  0  0
  1 43  1  0  0  0  0
  2  3  1  0  0  0  0
  2 44  1  0  0  0  0
  2 45  1  0  0  0  0
  3 17  1  0  0  0  0
  3  4  1  0  0  0  0
  3 13  1  0  0  0  0
  4  5  1  0  0  0  0
  4 46  1  0  0  0  0
  4 47  1  0  0  0  0
  5  6  1  0  0  0  0
  5 48  1  0  0  0  0
  6  7  2  0  0  0  0
  6  8  2  0  0  0  0
  6  9  1  0  0  0  0
  9 10  1  0  0  0  0
  9 11  1  0  0  0  0
  9 12  1  0  0  0  0
 13 14  1  0  0  0  0
 13 49  1  0  0  0  0
 13 50  1  0  0  0  0
 14 15  1  0  0  0  0
 14 51  1  0  0  0  0
 14 52  1  0  0  0  0
 15 16  1  0  0  0  0
 15 18  1  0  0  0  0
 16 17  1  0  0  0  0
 16 53  1  0  0  0  0
 16 54  1  0  0  0  0
 17 55  1  0  0  0  0
 17 56  1  0  0  0  0
 18 19  2  0  0  0  0
 18 20  2  0  0  0  0
 18 21  1  0  0  0  0
 21 29  1  0  0  0  0
 21 22  2  0  0  0  0
 22 23  1  0  0  0  0
 22 57  1  0  0  0  0
 23 28  2  0  0  0  0
 23 24  1  0  0  0  0
 24 25  2  0  0  0  0
 24 58  1  0  0  0  0
 25 26  1  0  0  0  0
 25 40  1  0  0  0  0
 26 27  2  0  0  0  0
 26 59  1  0  0  0  0
 27 28  1  0  0  0  0
 27 60  1  0  0  0  0
 28 29  1  0  0  0  0
 29 30  1  0  0  0  0
 30 31  2  0  0  0  0
 30 32  2  0  0  0  0
 30 33  1  0  0  0  0
 33 38  2  0  0  0  0
 33 34  1  0  0  0  0
 34 35  2  0  0  0  0
 34 61  1  0  0  0  0
 35 36  1  0  0  0  0
 35 62  1  0  0  0  0
 36 37  2  0  0  0  0
 36 63  1  0  0  0  0
 37 38  1  0  0  0  0
 37 64  1  0  0  0  0
 38 39  1  0  0  0  0
M  END
$$$$
CHEMBL3354968
 OpenBabel12022418103D

 44 47  0  0  1  0  0  0  0  0999 V2000
    1.9568   -1.6209   -1.0592 C   0  0  0  0  0  0  0  0  0  0  0  0
    3.0266   -0.7329   -0.3931 C   0  0  0  0  0  0  0  0  0  0  0  0
    4.1121   -0.4577   -1.4573 C   0  0  0  0  0  0  0  0  0  0  0  0
    2.3517    0.6036    0.0425 C   0  0  0  0  0  0  0  0  0  0  0  0
    1.7827    1.3157   -1.0573 O   0  0  0  0  0  0  0  0  0  0  0  0
    3.6048   -1.4510    0.7701 N   0  0  0  0  0  0  0  0  0  0  0  0
    4.5946   -0.9128    1.5695 C   0  0  0  0  0  0  0  0  0  0  0  0
    5.0448    0.2140    1.3727 O   0  0  0  0  0  0  0  0  0  0  0  0
    5.1186   -1.7495    2.6682 C   0  0  0  0  0  0  0  0  0  0  0  0
    6.2250   -1.3764    3.4520 C   0  0  0  0  0  0  0  0  0  0  0  0
    6.4367   -2.4115    4.3056 C   0  0  0  0  0  0  0  0  0  0  0  0
    7.7869   -2.3047    4.9776 C   0  0  1  0  0  0  0  0  0  0  0  0
    8.3773   -1.0276    4.3324 C   0  0  1  0  0  0  0  0  0  0  0  0
    7.3072   -0.3626    3.4435 C   0  0  0  0  0  0  0  0  0  0  0  0
    8.1851   -1.1149    5.8111 C   0  0  0  0  0  0  0  0  0  0  0  0
    5.4858   -3.3585    4.0910 N   0  0  0  0  0  0  0  0  0  0  0  0
    5.3793   -4.5707    4.8120 C   0  0  0  0  0  0  0  0  0  0  0  0
    4.9341   -5.7384    4.1884 C   0  0  0  0  0  0  0  0  0  0  0  0
    5.0067   -6.9559    4.8813 C   0  0  0  0  0  0  0  0  0  0  0  0
    5.4756   -7.0062    6.2007 C   0  0  0  0  0  0  0  0  0  0  0  0
    5.8558   -5.8333    6.8415 C   0  0  0  0  0  0  0  0  0  0  0  0
    5.8068   -4.6283    6.1469 C   0  0  0  0  0  0  0  0  0  0  0  0
    6.1361   -3.5174    6.8271 F   0  0  0  0  0  0  0  0  0  0  0  0
    4.6866   -2.9984    3.0147 N   0  0  0  0  0  0  0  0  0  0  0  0
    1.5258   -1.1356   -1.9436 H   0  0  0  0  0  0  0  0  0  0  0  0
    1.1366   -1.8397   -0.3670 H   0  0  0  0  0  0  0  0  0  0  0  0
    2.3810   -2.5774   -1.3842 H   0  0  0  0  0  0  0  0  0  0  0  0
    3.6875   -0.0053   -2.3612 H   0  0  0  0  0  0  0  0  0  0  0  0
    4.6113   -1.3858   -1.7579 H   0  0  0  0  0  0  0  0  0  0  0  0
    4.8849    0.2255   -1.0915 H   0  0  0  0  0  0  0  0  0  0  0  0
    3.0475    1.2819    0.5444 H   0  0  0  0  0  0  0  0  0  0  0  0
    1.5420    0.3987    0.7517 H   0  0  0  0  0  0  0  0  0  0  0  0
    2.5105    1.7959   -1.4904 H   0  0  0  0  0  0  0  0  0  0  0  0
    3.3020   -2.3914    1.0043 H   0  0  0  0  0  0  0  0  0  0  0  0
    8.3423   -3.2125    5.1648 H   0  0  0  0  0  0  0  0  0  0  0  0
    9.3614   -1.0844    3.8927 H   0  0  0  0  0  0  0  0  0  0  0  0
    6.9763    0.5849    3.8782 H   0  0  0  0  0  0  0  0  0  0  0  0
    7.6970   -0.1991    2.4355 H   0  0  0  0  0  0  0  0  0  0  0  0
    9.0692   -1.2249    6.4307 H   0  0  0  0  0  0  0  0  0  0  0  0
    7.3961   -0.5440    6.2865 H   0  0  0  0  0  0  0  0  0  0  0  0
    4.6001   -5.7273    3.1541 H   0  0  0  0  0  0  0  0  0  0  0  0
    4.7194   -7.8798    4.3840 H   0  0  0  0  0  0  0  0  0  0  0  0
    5.5427   -7.9558    6.7243 H   0  0  0  0  0  0  0  0  0  0  0  0
    6.1971   -5.8446    7.8732 H   0  0  0  0  0  0  0  0  0  0  0  0
  1  2  1  0  0  0  0
  1 25  1  0  0  0  0
  1 26  1  0  0  0  0
  1 27  1  0  0  0  0
  2  3  1  0  0  0  0
  2  4  1  0  0  0  0
  2  6  1  0  0  0  0
  3 28  1  0  0  0  0
  3 29  1  0  0  0  0
  3 30  1  0  0  0  0
  4  5  1  0  0  0  0
  4 31  1  0  0  0  0
  4 32  1  0  0  0  0
  5 33  1  0  0  0  0
  6  7  1  0  0  0  0
  6 34  1  0  0  0  0
  7  8  2  0  0  0  0
  7  9  1  0  0  0  0
  9 24  2  0  0  0  0
  9 10  1  0  0  0  0
 10 14  1  0  0  0  0
 10 11  2  0  0  0  0
 11 12  1  0  0  0  0
 11 16  1  0  0  0  0
 12 13  1  0  0  0  0
 12 15  1  0  0  0  0
 12 35  1  1  0  0  0
 13 14  1  0  0  0  0
 13 15  1  0  0  0  0
 13 36  1  6  0  0  0
 14 37  1  0  0  0  0
 14 38  1  0  0  0  0
 15 39  1  0  0  0  0
 15 40  1  0  0  0  0
 16 17  1  0  0  0  0
 16 24  1  0  0  0  0
 17 22  2  0  0  0  0
 17 18  1  0  0  0  0
 18 19  2  0  0  0  0
 18 41  1  0  0  0  0
 19 20  1  0  0  0  0
 19 42  1  0  0  0  0
 20 21  2  0  0  0  0
 20 43  1  0  0  0  0
 21 22  1  0  0  0  0
 21 44  1  0  0  0  0
 22 23  1  0  0  0  0
M  END
$$$$
CHEMBL2206838
 OpenBabel12022418103D

 49 52  0  0  0  0  0  0  0  0999 V2000
    4.6592    6.1980    5.1558 C   0  0  0  0  0  0  0  0  0  0  0  0
    4.4062    4.7184    4.9053 C   0  0  0  0  0  0  0  0  0  0  0  0
    5.1546    4.2391    3.6596 C   0  0  0  0  0  0  0  0  0  0  0  0
    4.9526    2.7455    3.4036 C   0  0  0  0  0  0  0  0  0  0  0  0
    5.6640    2.2636    2.1304 C   0  0  0  0  0  0  0  0  0  0  0  0
    7.1235    2.2266    2.2047 N   0  0  0  0  0  0  0  0  0  0  0  0
    7.9898    3.1692    1.6767 C   0  0  0  0  0  0  0  0  0  0  0  0
    9.3205    2.7805    1.8504 C   0  0  0  0  0  0  0  0  0  0  0  0
   10.6560    3.4202    1.4582 C   0  0  0  0  0  0  0  0  0  0  0  0
   11.6813    2.7780    1.6870 O   0  0  0  0  0  0  0  0  0  0  0  0
   10.8749    4.8264    0.8393 C   0  0  0  0  0  0  0  0  0  0  0  0
    9.7614    5.6322    0.6256 C   0  0  0  0  0  0  0  0  0  0  0  0
    9.8541    6.9590    0.2230 C   0  0  0  0  0  0  0  0  0  0  0  0
   11.0872    7.5362   -0.0322 C   0  0  0  0  0  0  0  0  0  0  0  0
   12.2663    6.7683    0.0261 C   0  0  0  0  0  0  0  0  0  0  0  0
   13.5060    7.3380   -0.3720 C   0  0  0  0  0  0  0  0  0  0  0  0
   14.6922    6.6201   -0.3755 C   0  0  0  0  0  0  0  0  0  0  0  0
   14.6748    5.3137    0.0621 C   0  0  0  0  0  0  0  0  0  0  0  0
   13.4573    4.7284    0.4895 C   0  0  0  0  0  0  0  0  0  0  0  0
   12.1885    5.3972    0.4787 C   0  0  0  0  0  0  0  0  0  0  0  0
   11.0036    9.6075   -0.4948 I   0  0  0  0  0  0  0  0  0  0  0  0
    9.1935    1.4792    2.5347 C   0  0  0  0  0  0  0  0  0  0  0  0
   10.1198    0.5171    3.0090 C   0  0  0  0  0  0  0  0  0  0  0  0
    9.6782   -0.6722    3.6150 C   0  0  0  0  0  0  0  0  0  0  0  0
    8.3241   -0.9373    3.7626 C   0  0  0  0  0  0  0  0  0  0  0  0
    7.3837   -0.0155    3.3191 C   0  0  0  0  0  0  0  0  0  0  0  0
    7.8372    1.1747    2.7190 C   0  0  0  0  0  0  0  0  0  0  0  0
    4.1185    6.5342    6.0458 H   0  0  0  0  0  0  0  0  0  0  0  0
    4.3249    6.8022    4.3062 H   0  0  0  0  0  0  0  0  0  0  0  0
    5.7255    6.3900    5.3137 H   0  0  0  0  0  0  0  0  0  0  0  0
    3.3290    4.5519    4.7866 H   0  0  0  0  0  0  0  0  0  0  0  0
    4.7284    4.1452    5.7824 H   0  0  0  0  0  0  0  0  0  0  0  0
    6.2224    4.4504    3.7794 H   0  0  0  0  0  0  0  0  0  0  0  0
    4.8040    4.8048    2.7880 H   0  0  0  0  0  0  0  0  0  0  0  0
    3.8771    2.5506    3.2923 H   0  0  0  0  0  0  0  0  0  0  0  0
    5.2847    2.1678    4.2748 H   0  0  0  0  0  0  0  0  0  0  0  0
    5.3802    2.8724    1.2657 H   0  0  0  0  0  0  0  0  0  0  0  0
    5.3296    1.2418    1.9079 H   0  0  0  0  0  0  0  0  0  0  0  0
    7.5141    4.0196    1.2221 H   0  0  0  0  0  0  0  0  0  0  0  0
    8.7623    5.2802    0.7627 H   0  0  0  0  0  0  0  0  0  0  0  0
    8.9367    7.5329    0.1207 H   0  0  0  0  0  0  0  0  0  0  0  0
   13.5736    8.3653   -0.7280 H   0  0  0  0  0  0  0  0  0  0  0  0
   15.6106    7.0853   -0.7236 H   0  0  0  0  0  0  0  0  0  0  0  0
   15.5918    4.7397    0.0627 H   0  0  0  0  0  0  0  0  0  0  0  0
   13.5316    3.6897    0.8193 H   0  0  0  0  0  0  0  0  0  0  0  0
   11.1869    0.6910    2.9039 H   0  0  0  0  0  0  0  0  0  0  0  0
   10.4052   -1.3967    3.9715 H   0  0  0  0  0  0  0  0  0  0  0  0
    7.9914   -1.8648    4.2234 H   0  0  0  0  0  0  0  0  0  0  0  0
    6.3244   -0.2266    3.4341 H   0  0  0  0  0  0  0  0  0  0  0  0
  1  2  1  0  0  0  0
  1 28  1  0  0  0  0
  1 29  1  0  0  0  0
  1 30  1  0  0  0  0
  2  3  1  0  0  0  0
  2 31  1  0  0  0  0
  2 32  1  0  0  0  0
  3  4  1  0  0  0  0
  3 33  1  0  0  0  0
  3 34  1  0  0  0  0
  4  5  1  0  0  0  0
  4 35  1  0  0  0  0
  4 36  1  0  0  0  0
  5  6  1  0  0  0  0
  5 37  1  0  0  0  0
  5 38  1  0  0  0  0
  6 27  1  0  0  0  0
  6  7  1  0  0  0  0
  7  8  2  0  0  0  0
  7 39  1  0  0  0  0
  8  9  1  0  0  0  0
  8 22  1  0  0  0  0
  9 10  2  0  0  0  0
  9 11  1  0  0  0  0
 11 20  2  0  0  0  0
 11 12  1  0  0  0  0
 12 13  2  0  0  0  0
 12 40  1  0  0  0  0
 13 14  1  0  0  0  0
 13 41  1  0  0  0  0
 14 15  2  0  0  0  0
 14 21  1  0  0  0  0
 15 20  1  0  0  0  0
 15 16  1  0  0  0  0
 16 17  2  0  0  0  0
 16 42  1  0  0  0  0
 17 18  1  0  0  0  0
 17 43  1  0  0  0  0
 18 19  2  0  0  0  0
 18 44  1  0  0  0  0
 19 20  1  0  0  0  0
 19 45  1  0  0  0  0
 22 27  2  0  0  0  0
 22 23  1  0  0  0  0
 23 24  2  0  0  0  0
 23 46  1  0  0  0  0
 24 25  1  0  0  0  0
 24 47  1  0  0  0  0
 25 26  2  0  0  0  0
 25 48  1  0  0  0  0
 26 27  1  0  0  0  0
 26 49  1  0  0  0  0
M  END
$$$$
CHEMBL4074423
 OpenBabel12022418103D

 52 53  0  0  0  0  0  0  0  0999 V2000
   -2.4778    0.7499   -0.0369 C   0  0  0  0  0  0  0  0  0  0  0  0
   -2.4999   -0.6344    0.0743 C   0  0  0  0  0  0  0  0  0  0  0  0
   -1.3133   -1.3968    0.2193 C   0  0  0  0  0  0  0  0  0  0  0  0
   -0.0551   -0.7349    0.1667 C   0  0  0  0  0  0  0  0  0  0  0  0
   -0.0764    0.6755    0.1563 C   0  0  0  0  0  0  0  0  0  0  0  0
   -1.2653    1.4105    0.0476 C   0  0  0  0  0  0  0  0  0  0  0  0
    1.1871    1.4272    0.2668 C   0  0  0  0  0  0  0  0  0  0  0  0
    1.1595    2.6428    0.4631 O   0  0  0  0  0  0  0  0  0  0  0  0
    2.3497    0.7114    0.0986 N   0  0  0  0  0  0  0  0  0  0  0  0
    2.2974   -0.5594   -0.4410 C   0  0  0  0  0  0  0  0  0  0  0  0
    3.1513   -0.9422   -1.2395 O   0  0  0  0  0  0  0  0  0  0  0  0
    1.2415   -1.3623    0.0057 N   0  0  0  0  0  0  0  0  0  0  0  0
    1.3640   -2.8136   -0.1421 C   0  0  0  0  0  0  0  0  0  0  0  0
    2.7635   -3.4513   -0.2293 C   0  0  0  0  0  0  0  0  0  0  0  0
    3.6691   -3.1600    0.9679 C   0  0  0  0  0  0  0  0  0  0  0  0
    5.0519   -3.7545    0.7447 C   0  0  0  0  0  0  0  0  0  0  0  0
    3.6091    1.4374   -0.0326 C   0  0  0  0  0  0  0  0  0  0  0  0
    4.6677    1.0884    1.0265 C   0  0  0  0  0  0  0  0  0  0  0  0
    5.8613    1.2066    0.7572 O   0  0  0  0  0  0  0  0  0  0  0  0
    4.2192    0.7986    2.3015 N   0  0  0  0  0  0  0  0  0  0  0  0
    5.1174    0.5123    3.4454 C   0  0  0  0  0  0  0  0  0  0  0  0
    6.0091    1.7199    3.7893 C   0  0  0  0  0  0  0  0  0  0  0  0
    4.2674    0.1845    4.6897 C   0  0  0  0  0  0  0  0  0  0  0  0
    6.0029   -0.7119    3.1538 C   0  0  0  0  0  0  0  0  0  0  0  0
   -1.5440   -2.8720    0.4255 C   0  0  0  0  0  0  0  0  0  0  0  0
   -3.4021    1.3075   -0.1668 H   0  0  0  0  0  0  0  0  0  0  0  0
   -3.4697   -1.1308    0.0409 H   0  0  0  0  0  0  0  0  0  0  0  0
   -1.2427    2.4972    0.0010 H   0  0  0  0  0  0  0  0  0  0  0  0
    0.8181   -3.1019   -1.0462 H   0  0  0  0  0  0  0  0  0  0  0  0
    0.9043   -3.2669    0.7389 H   0  0  0  0  0  0  0  0  0  0  0  0
    3.2591   -3.1707   -1.1639 H   0  0  0  0  0  0  0  0  0  0  0  0
    2.6292   -4.5384   -0.3046 H   0  0  0  0  0  0  0  0  0  0  0  0
    3.2296   -3.5801    1.8789 H   0  0  0  0  0  0  0  0  0  0  0  0
    3.7767   -2.0839    1.1333 H   0  0  0  0  0  0  0  0  0  0  0  0
    4.9918   -4.8362    0.5907 H   0  0  0  0  0  0  0  0  0  0  0  0
    5.6962   -3.5692    1.6086 H   0  0  0  0  0  0  0  0  0  0  0  0
    5.5292   -3.3084   -0.1345 H   0  0  0  0  0  0  0  0  0  0  0  0
    3.4527    2.5183    0.0124 H   0  0  0  0  0  0  0  0  0  0  0  0
    4.0506    1.2119   -1.0108 H   0  0  0  0  0  0  0  0  0  0  0  0
    3.2254    0.8861    2.4803 H   0  0  0  0  0  0  0  0  0  0  0  0
    5.4096    2.5741    4.1232 H   0  0  0  0  0  0  0  0  0  0  0  0
    6.6073    2.0544    2.9372 H   0  0  0  0  0  0  0  0  0  0  0  0
    6.7112    1.4722    4.5951 H   0  0  0  0  0  0  0  0  0  0  0  0
    3.6110    1.0207    4.9564 H   0  0  0  0  0  0  0  0  0  0  0  0
    4.9001   -0.0318    5.5567 H   0  0  0  0  0  0  0  0  0  0  0  0
    3.6297   -0.6909    4.5157 H   0  0  0  0  0  0  0  0  0  0  0  0
    6.6482   -0.5617    2.2836 H   0  0  0  0  0  0  0  0  0  0  0  0
    5.3880   -1.5960    2.9602 H   0  0  0  0  0  0  0  0  0  0  0  0
    6.6553   -0.9424    4.0041 H   0  0  0  0  0  0  0  0  0  0  0  0
   -2.6103   -3.1019    0.5414 H   0  0  0  0  0  0  0  0  0  0  0  0
   -1.0753   -3.2044    1.3568 H   0  0  0  0  0  0  0  0  0  0  0  0
   -1.2008   -3.4592   -0.4277 H   0  0  0  0  0  0  0  0  0  0  0  0
  1  6  2  0  0  0  0
  1  2  1  0  0  0  0
  1 26  1  0  0  0  0
  2  3  2  0  0  0  0
  2 27  1  0  0  0  0
  3  4  1  0  0  0  0
  3 25  1  0  0  0  0
  4 12  1  0  0  0  0
  4  5  2  0  0  0  0
  5  6  1  0  0  0  0
  5  7  1  0  0  0  0
  6 28  1  0  0  0  0
  7  8  2  0  0  0  0
  7  9  1  0  0  0  0
  9 10  1  0  0  0  0
  9 17  1  0  0  0  0
 10 11  2  0  0  0  0
 10 12  1  0  0  0  0
 12 13  1  0  0  0  0
 13 14  1  0  0  0  0
 13 29  1  0  0  0  0
 13 30  1  0  0  0  0
 14 15  1  0  0  0  0
 14 31  1  0  0  0  0
 14 32  1  0  0  0  0
 15 16  1  0  0  0  0
 15 33  1  0  0  0  0
 15 34  1  0  0  0  0
 16 35  1  0  0  0  0
 16 36  1  0  0  0  0
 16 37  1  0  0  0  0
 17 18  1  0  0  0  0
 17 38  1  0  0  0  0
 17 39  1  0  0  0  0
 18 19  2  0  0  0  0
 18 20  1  0  0  0  0
 20 21  1  0  0  0  0
 20 40  1  0  0  0  0
 21 22  1  0  0  0  0
 21 23  1  0  0  0  0
 21 24  1  0  0  0  0
 22 41  1  0  0  0  0
 22 42  1  0  0  0  0
 22 43  1  0  0  0  0
 23 44  1  0  0  0  0
 23 45  1  0  0  0  0
 23 46  1  0  0  0  0
 24 47  1  0  0  0  0
 24 48  1  0  0  0  0
 24 49  1  0  0  0  0
 25 50  1  0  0  0  0
 25 51  1  0  0  0  0
 25 52  1  0  0  0  0
M  END
$$$$
CHEMBL3354529
 OpenBabel12022418103D

 52 54  0  0  1  0  0  0  0  0999 V2000
    0.6322   -1.7273  -10.1573 C   0  0  0  0  0  0  0  0  0  0  0  0
    1.0660   -1.9045   -8.6893 C   0  0  0  0  0  0  0  0  0  0  0  0
   -0.1809   -2.0364   -7.8004 C   0  0  0  0  0  0  0  0  0  0  0  0
    1.9081   -3.1854   -8.5769 C   0  0  0  0  0  0  0  0  0  0  0  0
    1.8985   -0.7501   -8.2165 C   0  0  0  0  0  0  0  0  0  0  0  0
    2.5402   -0.4652   -7.0303 C   0  0  0  0  0  0  0  0  0  0  0  0
    3.2503    0.7299   -7.2806 C   0  0  0  0  0  0  0  0  0  0  0  0
    2.9998    1.1680   -8.5173 N   0  0  0  0  0  0  0  0  0  0  0  0
    2.1593    0.2490   -9.0969 O   0  0  0  0  0  0  0  0  0  0  0  0
    4.0916    1.3374   -6.3641 N   0  0  0  0  0  0  0  0  0  0  0  0
    4.8248    2.4849   -6.6531 C   0  0  0  0  0  0  0  0  0  0  0  0
    4.7747    3.1004   -7.7122 O   0  0  0  0  0  0  0  0  0  0  0  0
    5.7728    2.8958   -5.4973 C   0  0  1  0  0  0  0  0  0  0  0  0
    7.1445    2.2386   -5.6749 C   0  0  0  0  0  0  0  0  0  0  0  0
    7.8964    2.8116   -6.8695 C   0  0  0  0  0  0  0  0  0  0  0  0
    8.0042    4.3280   -6.7407 C   0  0  0  0  0  0  0  0  0  0  0  0
    6.6556    5.0053   -6.4548 C   0  0  0  0  0  0  0  0  0  0  0  0
    5.9408    4.3643   -5.3326 N   0  0  0  0  0  0  0  0  0  0  0  0
    4.6754    5.0304   -4.9845 C   0  0  0  0  0  0  0  0  0  0  0  0
    4.1806    4.6407   -3.5950 C   0  0  0  0  0  0  0  0  0  0  0  0
    2.9042    4.0848   -3.4135 C   0  0  0  0  0  0  0  0  0  0  0  0
    2.4194    3.8186   -2.1286 C   0  0  0  0  0  0  0  0  0  0  0  0
    3.2194    4.0750   -1.0162 C   0  0  0  0  0  0  0  0  0  0  0  0
    4.5115    4.5665   -1.1791 C   0  0  0  0  0  0  0  0  0  0  0  0
    4.9861    4.8571   -2.4627 C   0  0  0  0  0  0  0  0  0  0  0  0
    2.6013    3.7946    0.5660 Cl  0  0  0  0  0  0  0  0  0  0  0  0
    0.0787   -2.5987  -10.5215 H   0  0  0  0  0  0  0  0  0  0  0  0
    1.5012   -1.5907  -10.8131 H   0  0  0  0  0  0  0  0  0  0  0  0
   -0.0084   -0.8449  -10.2817 H   0  0  0  0  0  0  0  0  0  0  0  0
   -0.7763   -2.9132   -8.0795 H   0  0  0  0  0  0  0  0  0  0  0  0
   -0.8246   -1.1520   -7.8785 H   0  0  0  0  0  0  0  0  0  0  0  0
    0.0911   -2.1468   -6.7435 H   0  0  0  0  0  0  0  0  0  0  0  0
    1.3436   -4.0652   -8.9117 H   0  0  0  0  0  0  0  0  0  0  0  0
    2.2202   -3.3713   -7.5415 H   0  0  0  0  0  0  0  0  0  0  0  0
    2.8184   -3.1192   -9.1834 H   0  0  0  0  0  0  0  0  0  0  0  0
    2.5258   -1.0717   -6.1399 H   0  0  0  0  0  0  0  0  0  0  0  0
    4.1870    0.8927   -5.4639 H   0  0  0  0  0  0  0  0  0  0  0  0
    5.3601    2.4988   -4.5655 H   0  0  0  0  0  0  0  0  0  0  0  0
    7.0364    1.1535   -5.7943 H   0  0  0  0  0  0  0  0  0  0  0  0
    7.7398    2.4013   -4.7660 H   0  0  0  0  0  0  0  0  0  0  0  0
    7.3869    2.5531   -7.8044 H   0  0  0  0  0  0  0  0  0  0  0  0
    8.8962    2.3675   -6.9259 H   0  0  0  0  0  0  0  0  0  0  0  0
    8.4408    4.7383   -7.6607 H   0  0  0  0  0  0  0  0  0  0  0  0
    8.7064    4.5640   -5.9315 H   0  0  0  0  0  0  0  0  0  0  0  0
    6.0581    5.0387   -7.3707 H   0  0  0  0  0  0  0  0  0  0  0  0
    6.8693    6.0486   -6.1964 H   0  0  0  0  0  0  0  0  0  0  0  0
    3.8949    4.8346   -5.7314 H   0  0  0  0  0  0  0  0  0  0  0  0
    4.8056    6.1200   -4.9679 H   0  0  0  0  0  0  0  0  0  0  0  0
    2.2698    3.8686   -4.2709 H   0  0  0  0  0  0  0  0  0  0  0  0
    1.4138    3.4265   -1.9983 H   0  0  0  0  0  0  0  0  0  0  0  0
    5.1475    4.7390   -0.3150 H   0  0  0  0  0  0  0  0  0  0  0  0
    5.9919    5.2569   -2.5809 H   0  0  0  0  0  0  0  0  0  0  0  0
  1  2  1  0  0  0  0
  1 27  1  0  0  0  0
  1 28  1  0  0  0  0
  1 29  1  0  0  0  0
  2  3  1  0  0  0  0
  2  4  1  0  0  0  0
  2  5  1  0  0  0  0
  3 30  1  0  0  0  0
  3 31  1  0  0  0  0
  3 32  1  0  0  0  0
  4 33  1  0  0  0  0
  4 34  1  0  0  0  0
  4 35  1  0  0  0  0
  5  9  1  0  0  0  0
  5  6  2  0  0  0  0
  6  7  1  0  0  0  0
  6 36  1  0  0  0  0
  7  8  2  0  0  0  0
  7 10  1  0  0  0  0
  8  9  1  0  0  0  0
 10 11  1  0  0  0  0
 10 37  1  0  0  0  0
 11 12  2  0  0  0  0
 13 14  1  0  0  0  0
 13 18  1  0  0  0  0
 13 11  1  0  0  0  0
 13 38  1  1  0  0  0
 14 15  1  0  0  0  0
 14 39  1  0  0  0  0
 14 40  1  0  0  0  0
 15 16  1  0  0  0  0
 15 41  1  0  0  0  0
 15 42  1  0  0  0  0
 16 17  1  0  0  0  0
 16 43  1  0  0  0  0
 16 44  1  0  0  0  0
 17 18  1  0  0  0  0
 17 45  1  0  0  0  0
 17 46  1  0  0  0  0
 18 19  1  0  0  0  0
 19 20  1  0  0  0  0
 19 47  1  0  0  0  0
 19 48  1  0  0  0  0
 20 25  2  0  0  0  0
 20 21  1  0  0  0  0
 21 22  2  0  0  0  0
 21 49  1  0  0  0  0
 22 23  1  0  0  0  0
 22 50  1  0  0  0  0
 23 24  2  0  0  0  0
 23 26  1  0  0  0  0
 24 25  1  0  0  0  0
 24 51  1  0  0  0  0
 25 52  1  0  0  0  0
M  END
$$$$
CHEMBL3353836
 OpenBabel12022418103D

 47 51  0  0  0  0  0  0  0  0999 V2000
   -3.8532    5.1999    1.6858 C   0  0  0  0  0  0  0  0  0  0  0  0
   -2.6922    4.8302    1.0027 C   0  0  0  0  0  0  0  0  0  0  0  0
   -2.5024    3.5038    0.6162 C   0  0  0  0  0  0  0  0  0  0  0  0
   -3.4804    2.5474    0.9056 C   0  0  0  0  0  0  0  0  0  0  0  0
   -4.6440    2.9111    1.5941 C   0  0  0  0  0  0  0  0  0  0  0  0
   -4.8252    4.2429    1.9791 C   0  0  0  0  0  0  0  0  0  0  0  0
   -3.2160    0.8402    0.4797 S   0  0  0  0  0  0  0  0  0  0  0  0
   -1.9165    0.6939   -0.1468 O   0  0  0  0  0  0  0  0  0  0  0  0
   -3.5870    0.0414    1.6356 O   0  0  0  0  0  0  0  0  0  0  0  0
   -4.3359    0.4971   -0.7445 N   0  0  0  0  0  0  0  0  0  0  0  0
   -5.4221   -0.3627   -0.7022 C   0  0  0  0  0  0  0  0  0  0  0  0
   -5.9185   -1.2504    0.2698 C   0  0  0  0  0  0  0  0  0  0  0  0
   -7.1651   -1.8475    0.0481 C   0  0  0  0  0  0  0  0  0  0  0  0
   -7.8894   -1.5938   -1.1112 C   0  0  0  0  0  0  0  0  0  0  0  0
   -7.3376   -0.8154   -2.1312 C   0  0  0  0  0  0  0  0  0  0  0  0
   -6.0788   -0.2078   -1.9401 C   0  0  0  0  0  0  0  0  0  0  0  0
   -5.2590    0.6243   -2.7492 C   0  0  0  0  0  0  0  0  0  0  0  0
   -4.2845    1.1620   -1.9343 C   0  0  0  0  0  0  0  0  0  0  0  0
   -3.4845    2.1861   -2.2641 N   0  0  0  0  0  0  0  0  0  0  0  0
   -3.6999    2.6065   -3.5196 C   0  0  0  0  0  0  0  0  0  0  0  0
   -2.9730    4.1799   -3.8750 S   0  0  0  0  0  0  0  0  0  0  0  0
   -2.6533    4.0063   -5.6487 C   0  0  0  0  0  0  0  0  0  0  0  0
   -1.8427    5.1970   -6.1182 C   0  0  0  0  0  0  0  0  0  0  0  0
   -0.4383    5.1225   -6.0535 C   0  0  0  0  0  0  0  0  0  0  0  0
    0.3545    6.2148   -6.4043 C   0  0  0  0  0  0  0  0  0  0  0  0
   -0.2407    7.4043   -6.8120 C   0  0  0  0  0  0  0  0  0  0  0  0
   -1.6315    7.5023   -6.8711 C   0  0  0  0  0  0  0  0  0  0  0  0
   -2.4391    6.4072   -6.5282 C   0  0  0  0  0  0  0  0  0  0  0  0
   -3.8691    6.5667   -6.5928 C   0  0  0  0  0  0  0  0  0  0  0  0
   -5.0190    6.6870   -6.6570 N   0  0  0  0  0  0  0  0  0  0  0  0
   -4.5386    2.0250   -4.4137 N   0  0  0  0  0  0  0  0  0  0  0  0
   -5.3497    1.0257   -4.0425 N   0  0  0  0  0  0  0  0  0  0  0  0
   -3.9950    6.2333    1.9960 H   0  0  0  0  0  0  0  0  0  0  0  0
   -1.9344    5.5809    0.7818 H   0  0  0  0  0  0  0  0  0  0  0  0
   -1.5888    3.2303    0.0860 H   0  0  0  0  0  0  0  0  0  0  0  0
   -5.3959    2.1731    1.8544 H   0  0  0  0  0  0  0  0  0  0  0  0
   -5.7199    4.5352    2.5252 H   0  0  0  0  0  0  0  0  0  0  0  0
   -5.3817   -1.4661    1.1898 H   0  0  0  0  0  0  0  0  0  0  0  0
   -7.5836   -2.5072    0.8068 H   0  0  0  0  0  0  0  0  0  0  0  0
   -8.8876   -2.0102   -1.2295 H   0  0  0  0  0  0  0  0  0  0  0  0
   -7.8998   -0.6372   -3.0454 H   0  0  0  0  0  0  0  0  0  0  0  0
   -3.5885    3.9199   -6.2110 H   0  0  0  0  0  0  0  0  0  0  0  0
   -2.0873    3.0853   -5.8301 H   0  0  0  0  0  0  0  0  0  0  0  0
    0.0476    4.2113   -5.7066 H   0  0  0  0  0  0  0  0  0  0  0  0
    1.4380    6.1389   -6.3473 H   0  0  0  0  0  0  0  0  0  0  0  0
    0.3778    8.2583   -7.0769 H   0  0  0  0  0  0  0  0  0  0  0  0
   -2.0825    8.4443   -7.1784 H   0  0  0  0  0  0  0  0  0  0  0  0
  1  6  2  0  0  0  0
  1  2  1  0  0  0  0
  1 33  1  0  0  0  0
  2  3  2  0  0  0  0
  2 34  1  0  0  0  0
  3  4  1  0  0  0  0
  3 35  1  0  0  0  0
  4  5  2  0  0  0  0
  4  7  1  0  0  0  0
  5  6  1  0  0  0  0
  5 36  1  0  0  0  0
  6 37  1  0  0  0  0
  7  8  2  0  0  0  0
  7  9  2  0  0  0  0
  7 10  1  0  0  0  0
 10 18  1  0  0  0  0
 10 11  1  0  0  0  0
 11 16  2  0  0  0  0
 11 12  1  0  0  0  0
 12 13  2  0  0  0  0
 12 38  1  0  0  0  0
 13 14  1  0  0  0  0
 13 39  1  0  0  0  0
 14 15  2  0  0  0  0
 14 40  1  0  0  0  0
 15 16  1  0  0  0  0
 15 41  1  0  0  0  0
 16 17  1  0  0  0  0
 17 32  2  0  0  0  0
 17 18  1  0  0  0  0
 18 19  2  0  0  0  0
 19 20  1  0  0  0  0
 20 21  1  0  0  0  0
 20 31  2  0  0  0  0
 21 22  1  0  0  0  0
 22 23  1  0  0  0  0
 22 42  1  0  0  0  0
 22 43  1  0  0  0  0
 23 28  2  0  0  0  0
 23 24  1  0  0  0  0
 24 25  2  0  0  0  0
 24 44  1  0  0  0  0
 25 26  1  0  0  0  0
 25 45  1  0  0  0  0
 26 27  2  0  0  0  0
 26 46  1  0  0  0  0
 27 28  1  0  0  0  0
 27 47  1  0  0  0  0
 28 29  1  0  0  0  0
 29 30  3  0  0  0  0
 31 32  1  0  0  0  0
M  END
$$$$
CHEMBL3234681
 OpenBabel12022418103D

 46 49  0  0  1  0  0  0  0  0999 V2000
    4.1265   -1.6765    0.7319 C   0  0  0  0  0  0  0  0  0  0  0  0
    3.0263   -0.6313    1.0108 C   0  0  0  0  0  0  0  0  0  0  0  0
    2.2513   -0.3266   -0.2855 C   0  0  0  0  0  0  0  0  0  0  0  0
    2.0450   -1.2509    2.0205 C   0  0  0  0  0  0  0  0  0  0  0  0
    3.5959    0.6073    1.5665 N   0  0  0  0  0  0  0  0  0  0  0  0
    4.5052    1.3752    0.8688 C   0  0  0  0  0  0  0  0  0  0  0  0
    4.9203    1.0649   -0.2491 O   0  0  0  0  0  0  0  0  0  0  0  0
    5.0044    2.5850    1.5302 C   0  0  0  0  0  0  0  0  0  0  0  0
    6.0606    3.3295    1.0309 C   0  0  0  0  0  0  0  0  0  0  0  0
    6.3456    4.2918    1.9493 C   0  0  0  0  0  0  0  0  0  0  0  0
    7.5582    5.0334    1.4869 C   0  0  1  0  0  0  0  0  0  0  0  0
    8.7584    4.0496    1.5975 C   0  0  0  0  0  0  0  0  0  0  0  0
    8.4162    2.9199    0.5655 C   0  0  0  0  0  0  0  0  0  0  0  0
    7.0774    3.3951   -0.0513 C   0  0  2  0  0  0  0  0  0  0  0  0
    7.3260    4.9355   -0.0633 C   0  0  0  0  0  0  0  0  0  0  0  0
    5.4538    4.1757    2.9709 N   0  0  0  0  0  0  0  0  0  0  0  0
    5.3548    4.9186    4.1752 C   0  0  0  0  0  0  0  0  0  0  0  0
    4.1534    4.8936    4.9048 C   0  0  0  0  0  0  0  0  0  0  0  0
    4.0403    5.6148    6.0990 C   0  0  0  0  0  0  0  0  0  0  0  0
    5.1262    6.3436    6.5707 C   0  0  0  0  0  0  0  0  0  0  0  0
    6.3198    6.3753    5.8676 C   0  0  0  0  0  0  0  0  0  0  0  0
    6.4280    5.6662    4.6732 C   0  0  0  0  0  0  0  0  0  0  0  0
    7.6256    5.6746    4.0771 F   0  0  0  0  0  0  0  0  0  0  0  0
    5.0239    7.0132    7.7254 F   0  0  0  0  0  0  0  0  0  0  0  0
    4.5663    3.1282    2.6954 N   0  0  0  0  0  0  0  0  0  0  0  0
    3.7004   -2.5965    0.3152 H   0  0  0  0  0  0  0  0  0  0  0  0
    4.6608   -1.9401    1.6520 H   0  0  0  0  0  0  0  0  0  0  0  0
    4.8747   -1.3225    0.0167 H   0  0  0  0  0  0  0  0  0  0  0  0
    1.8000   -1.2324   -0.7038 H   0  0  0  0  0  0  0  0  0  0  0  0
    2.8921    0.0968   -1.0651 H   0  0  0  0  0  0  0  0  0  0  0  0
    1.4516    0.3994   -0.0992 H   0  0  0  0  0  0  0  0  0  0  0  0
    1.5957   -2.1667    1.6175 H   0  0  0  0  0  0  0  0  0  0  0  0
    1.2323   -0.5583    2.2640 H   0  0  0  0  0  0  0  0  0  0  0  0
    2.5501   -1.5126    2.9568 H   0  0  0  0  0  0  0  0  0  0  0  0
    3.3167    0.9555    2.4784 H   0  0  0  0  0  0  0  0  0  0  0  0
    7.7139    6.0480    1.8471 H   0  0  0  0  0  0  0  0  0  0  0  0
    8.8752    3.6413    2.6070 H   0  0  0  0  0  0  0  0  0  0  0  0
    9.6940    4.5387    1.3062 H   0  0  0  0  0  0  0  0  0  0  0  0
    8.3202    1.9463    1.0612 H   0  0  0  0  0  0  0  0  0  0  0  0
    9.1989    2.8484   -0.1961 H   0  0  0  0  0  0  0  0  0  0  0  0
    6.7988    2.9502   -1.0056 H   0  0  0  0  0  0  0  0  0  0  0  0
    8.1999    5.2266   -0.6559 H   0  0  0  0  0  0  0  0  0  0  0  0
    6.4469    5.5036   -0.3938 H   0  0  0  0  0  0  0  0  0  0  0  0
    3.2909    4.3359    4.5438 H   0  0  0  0  0  0  0  0  0  0  0  0
    3.1138    5.6097    6.6656 H   0  0  0  0  0  0  0  0  0  0  0  0
    7.1685    6.9304    6.2522 H   0  0  0  0  0  0  0  0  0  0  0  0
  1  2  1  0  0  0  0
  1 26  1  0  0  0  0
  1 27  1  0  0  0  0
  1 28  1  0  0  0  0
  2  3  1  0  0  0  0
  2  4  1  0  0  0  0
  2  5  1  0  0  0  0
  3 29  1  0  0  0  0
  3 30  1  0  0  0  0
  3 31  1  0  0  0  0
  4 32  1  0  0  0  0
  4 33  1  0  0  0  0
  4 34  1  0  0  0  0
  5  6  1  0  0  0  0
  5 35  1  0  0  0  0
  6  7  2  0  0  0  0
  6  8  1  0  0  0  0
  8 25  2  0  0  0  0
  8  9  1  0  0  0  0
  9 14  1  0  0  0  0
  9 10  2  0  0  0  0
 10 11  1  0  0  0  0
 10 16  1  0  0  0  0
 11 12  1  0  0  0  0
 11 15  1  0  0  0  0
 11 36  1  1  0  0  0
 12 13  1  0  0  0  0
 12 37  1  0  0  0  0
 12 38  1  0  0  0  0
 13 39  1  0  0  0  0
 13 40  1  0  0  0  0
 14 13  1  0  0  0  0
 14 15  1  0  0  0  0
 14 41  1  6  0  0  0
 15 42  1  0  0  0  0
 15 43  1  0  0  0  0
 16 17  1  0  0  0  0
 16 25  1  0  0  0  0
 17 22  2  0  0  0  0
 17 18  1  0  0  0  0
 18 19  2  0  0  0  0
 18 44  1  0  0  0  0
 19 20  1  0  0  0  0
 19 45  1  0  0  0  0
 20 21  2  0  0  0  0
 20 24  1  0  0  0  0
 21 22  1  0  0  0  0
 21 46  1  0  0  0  0
 22 23  1  0  0  0  0
M  END
$$$$
CHEMBL3354964
 OpenBabel12022418103D

 42 46  0  0  1  0  0  0  0  0999 V2000
    2.9722    1.6560   -1.3336 C   0  0  0  0  0  0  0  0  0  0  0  0
    2.7446    1.0990   -2.6992 C   0  0  0  0  0  0  0  0  0  0  0  0
    3.1183    0.1526   -1.5687 C   0  0  0  0  0  0  0  0  0  0  0  0
    4.5239   -0.4119   -1.5287 C   0  0  0  0  0  0  0  0  0  0  0  0
    5.1196   -0.1245   -0.2684 O   0  0  0  0  0  0  0  0  0  0  0  0
    2.1195   -0.7313   -1.0234 N   0  0  0  0  0  0  0  0  0  0  0  0
    1.3938   -1.6693   -1.7545 C   0  0  0  0  0  0  0  0  0  0  0  0
    1.6235   -1.9567   -2.9267 O   0  0  0  0  0  0  0  0  0  0  0  0
    0.1743   -2.1497   -1.0071 C   0  0  0  0  0  0  0  0  0  0  0  0
   -1.1282   -2.0001   -1.5381 C   0  0  0  0  0  0  0  0  0  0  0  0
   -1.2952   -0.6658   -1.1543 C   0  0  0  0  0  0  0  0  0  0  0  0
   -2.5661   -0.1011   -1.7614 C   0  0  2  0  0  0  0  0  0  0  0  0
   -3.4218   -1.3590   -1.8715 C   0  0  2  0  0  0  0  0  0  0  0  0
   -2.5379   -2.5809   -1.4912 C   0  0  0  0  0  0  0  0  0  0  0  0
   -3.0786   -0.5853   -3.1084 C   0  0  0  0  0  0  0  0  0  0  0  0
   -0.8348   -0.7264    0.1783 N   0  0  0  0  0  0  0  0  0  0  0  0
   -1.4534   -0.2364    1.3421 C   0  0  0  0  0  0  0  0  0  0  0  0
   -2.0663    1.0049    1.3537 C   0  0  0  0  0  0  0  0  0  0  0  0
   -2.7526    1.4336    2.4789 C   0  0  0  0  0  0  0  0  0  0  0  0
   -2.8105    0.6181    3.6016 C   0  0  0  0  0  0  0  0  0  0  0  0
   -2.1889   -0.6298    3.6202 C   0  0  0  0  0  0  0  0  0  0  0  0
   -1.4943   -1.0565    2.4934 C   0  0  0  0  0  0  0  0  0  0  0  0
   -3.4764    1.0351    4.6768 F   0  0  0  0  0  0  0  0  0  0  0  0
   -1.9599    1.8526    0.3172 F   0  0  0  0  0  0  0  0  0  0  0  0
    0.0628   -1.7711    0.2880 N   0  0  0  0  0  0  0  0  0  0  0  0
    2.1068    2.0411   -0.8051 H   0  0  0  0  0  0  0  0  0  0  0  0
    3.8560    2.2723   -1.2027 H   0  0  0  0  0  0  0  0  0  0  0  0
    3.4812    1.3108   -3.4662 H   0  0  0  0  0  0  0  0  0  0  0  0
    1.7257    1.1060   -3.0717 H   0  0  0  0  0  0  0  0  0  0  0  0
    5.1577   -0.0010   -2.3191 H   0  0  0  0  0  0  0  0  0  0  0  0
    4.4956   -1.4996   -1.6475 H   0  0  0  0  0  0  0  0  0  0  0  0
    5.2529    0.8417   -0.2253 H   0  0  0  0  0  0  0  0  0  0  0  0
    1.9237   -0.7067   -0.0262 H   0  0  0  0  0  0  0  0  0  0  0  0
   -2.9585    0.8380   -1.4093 H   0  0  0  0  0  0  0  0  0  0  0  0
   -4.4036   -1.3145   -1.4237 H   0  0  0  0  0  0  0  0  0  0  0  0
   -2.7973   -2.8790   -0.4638 H   0  0  0  0  0  0  0  0  0  0  0  0
   -2.7089   -3.4167   -2.1683 H   0  0  0  0  0  0  0  0  0  0  0  0
   -2.4142   -1.0755   -3.8161 H   0  0  0  0  0  0  0  0  0  0  0  0
   -3.8533   -0.0053   -3.5948 H   0  0  0  0  0  0  0  0  0  0  0  0
   -3.2137    2.4143    2.4867 H   0  0  0  0  0  0  0  0  0  0  0  0
   -2.2656   -1.2587    4.5051 H   0  0  0  0  0  0  0  0  0  0  0  0
   -1.0437   -2.0500    2.4970 H   0  0  0  0  0  0  0  0  0  0  0  0
  1  3  1  0  0  0  0
  1  2  1  0  0  0  0
  1 26  1  0  0  0  0
  1 27  1  0  0  0  0
  2  3  1  0  0  0  0
  2 28  1  0  0  0  0
  2 29  1  0  0  0  0
  3  4  1  0  0  0  0
  3  6  1  0  0  0  0
  4  5  1  0  0  0  0
  4 30  1  0  0  0  0
  4 31  1  0  0  0  0
  5 32  1  0  0  0  0
  6  7  1  0  0  0  0
  6 33  1  0  0  0  0
  7  8  2  0  0  0  0
  7  9  1  0  0  0  0
  9 25  2  0  0  0  0
  9 10  1  0  0  0  0
 10 14  1  0  0  0  0
 10 11  2  0  0  0  0
 11 12  1  0  0  0  0
 11 16  1  0  0  0  0
 12 13  1  0  0  0  0
 12 15  1  0  0  0  0
 12 34  1  1  0  0  0
 13 14  1  0  0  0  0
 13 15  1  0  0  0  0
 13 35  1  1  0  0  0
 14 36  1  0  0  0  0
 14 37  1  0  0  0  0
 15 38  1  0  0  0  0
 15 39  1  0  0  0  0
 16 25  1  0  0  0  0
 16 17  1  0  0  0  0
 17 22  2  0  0  0  0
 17 18  1  0  0  0  0
 18 19  2  0  0  0  0
 18 24  1  0  0  0  0
 19 20  1  0  0  0  0
 19 40  1  0  0  0  0
 20 21  2  0  0  0  0
 20 23  1  0  0  0  0
 21 22  1  0  0  0  0
 21 41  1  0  0  0  0
 22 42  1  0  0  0  0
M  END
$$$$
CHEMBL2206835
 OpenBabel12022418103D

 52 55  0  0  0  0  0  0  0  0999 V2000
    4.9748    2.0455   -0.1921 C   0  0  0  0  0  0  0  0  0  0  0  0
    4.7077    0.7254    0.5208 C   0  0  0  0  0  0  0  0  0  0  0  0
    5.0613    0.8109    2.0057 C   0  0  0  0  0  0  0  0  0  0  0  0
    4.8011   -0.4721    2.8019 C   0  0  0  0  0  0  0  0  0  0  0  0
    5.6131   -1.7262    2.4300 C   0  0  0  0  0  0  0  0  0  0  0  0
    7.0774   -1.6653    2.4987 N   0  0  0  0  0  0  0  0  0  0  0  0
    7.8777   -1.6706    3.6516 C   0  0  0  0  0  0  0  0  0  0  0  0
    7.1984   -1.7077    4.9846 C   0  0  0  0  0  0  0  0  0  0  0  0
    9.2447   -1.6476    3.2611 C   0  0  0  0  0  0  0  0  0  0  0  0
   10.6019   -1.6026    3.9989 C   0  0  0  0  0  0  0  0  0  0  0  0
   11.6261   -1.5342    3.3171 O   0  0  0  0  0  0  0  0  0  0  0  0
   10.8617   -1.6485    5.5057 C   0  0  0  0  0  0  0  0  0  0  0  0
    9.9307   -2.3265    6.2805 C   0  0  0  0  0  0  0  0  0  0  0  0
    9.9542   -2.2814    7.6699 C   0  0  0  0  0  0  0  0  0  0  0  0
   11.0045   -1.6634    8.3334 C   0  0  0  0  0  0  0  0  0  0  0  0
   12.1206   -1.1697    7.6163 C   0  0  0  0  0  0  0  0  0  0  0  0
   13.2806   -0.7376    8.3127 C   0  0  0  0  0  0  0  0  0  0  0  0
   14.4390   -0.3534    7.6532 C   0  0  0  0  0  0  0  0  0  0  0  0
   14.4383   -0.3506    6.2719 C   0  0  0  0  0  0  0  0  0  0  0  0
   13.2813   -0.7192    5.5554 C   0  0  0  0  0  0  0  0  0  0  0  0
   12.0725   -1.1581    6.1809 C   0  0  0  0  0  0  0  0  0  0  0  0
   10.8552   -1.5983   10.2375 Br  0  0  0  0  0  0  0  0  0  0  0  0
    9.1923   -1.7011    1.7859 C   0  0  0  0  0  0  0  0  0  0  0  0
   10.1812   -1.7340    0.7645 C   0  0  0  0  0  0  0  0  0  0  0  0
    9.8300   -1.8634   -0.5860 C   0  0  0  0  0  0  0  0  0  0  0  0
    8.5027   -1.9857   -0.9553 C   0  0  0  0  0  0  0  0  0  0  0  0
    7.5050   -1.9510    0.0138 C   0  0  0  0  0  0  0  0  0  0  0  0
    7.8617   -1.7809    1.3700 C   0  0  0  0  0  0  0  0  0  0  0  0
    4.7778    1.9454   -1.2645 H   0  0  0  0  0  0  0  0  0  0  0  0
    6.0176    2.3555   -0.0683 H   0  0  0  0  0  0  0  0  0  0  0  0
    4.3316    2.8421    0.1960 H   0  0  0  0  0  0  0  0  0  0  0  0
    5.2952   -0.0552    0.0341 H   0  0  0  0  0  0  0  0  0  0  0  0
    3.6508    0.4611    0.3978 H   0  0  0  0  0  0  0  0  0  0  0  0
    4.4473    1.6054    2.4530 H   0  0  0  0  0  0  0  0  0  0  0  0
    6.1049    1.1178    2.1313 H   0  0  0  0  0  0  0  0  0  0  0  0
    3.7367   -0.7265    2.6971 H   0  0  0  0  0  0  0  0  0  0  0  0
    4.9423   -0.2357    3.8607 H   0  0  0  0  0  0  0  0  0  0  0  0
    5.3183   -2.0282    1.4216 H   0  0  0  0  0  0  0  0  0  0  0  0
    5.3077   -2.5674    3.0643 H   0  0  0  0  0  0  0  0  0  0  0  0
    6.1135   -1.6160    4.9247 H   0  0  0  0  0  0  0  0  0  0  0  0
    7.5473   -0.8999    5.6304 H   0  0  0  0  0  0  0  0  0  0  0  0
    7.3312   -2.6804    5.4626 H   0  0  0  0  0  0  0  0  0  0  0  0
    9.1938   -2.9528    5.8048 H   0  0  0  0  0  0  0  0  0  0  0  0
    9.1551   -2.7624    8.2282 H   0  0  0  0  0  0  0  0  0  0  0  0
   13.3293   -0.7401    9.4013 H   0  0  0  0  0  0  0  0  0  0  0  0
   15.3289   -0.0784    8.2174 H   0  0  0  0  0  0  0  0  0  0  0  0
   15.3507   -0.0854    5.7402 H   0  0  0  0  0  0  0  0  0  0  0  0
   13.3749   -0.7157    4.4708 H   0  0  0  0  0  0  0  0  0  0  0  0
   11.2350   -1.6692    1.0183 H   0  0  0  0  0  0  0  0  0  0  0  0
   10.6070   -1.8819   -1.3453 H   0  0  0  0  0  0  0  0  0  0  0  0
    8.2330   -2.1090   -2.0015 H   0  0  0  0  0  0  0  0  0  0  0  0
    6.4727   -2.0573   -0.3012 H   0  0  0  0  0  0  0  0  0  0  0  0
  1  2  1  0  0  0  0
  1 29  1  0  0  0  0
  1 30  1  0  0  0  0
  1 31  1  0  0  0  0
  2  3  1  0  0  0  0
  2 32  1  0  0  0  0
  2 33  1  0  0  0  0
  3  4  1  0  0  0  0
  3 34  1  0  0  0  0
  3 35  1  0  0  0  0
  4  5  1  0  0  0  0
  4 36  1  0  0  0  0
  4 37  1  0  0  0  0
  5  6  1  0  0  0  0
  5 38  1  0  0  0  0
  5 39  1  0  0  0  0
  6 28  1  0  0  0  0
  6  7  1  0  0  0  0
  7  8  1  0  0  0  0
  7  9  2  0  0  0  0
  8 40  1  0  0  0  0
  8 41  1  0  0  0  0
  8 42  1  0  0  0  0
  9 10  1  0  0  0  0
  9 23  1  0  0  0  0
 10 11  2  0  0  0  0
 10 12  1  0  0  0  0
 12 21  2  0  0  0  0
 12 13  1  0  0  0  0
 13 14  2  0  0  0  0
 13 43  1  0  0  0  0
 14 15  1  0  0  0  0
 14 44  1  0  0  0  0
 15 16  2  0  0  0  0
 15 22  1  0  0  0  0
 16 21  1  0  0  0  0
 16 17  1  0  0  0  0
 17 18  2  0  0  0  0
 17 45  1  0  0  0  0
 18 19  1  0  0  0  0
 18 46  1  0  0  0  0
 19 20  2  0  0  0  0
 19 47  1  0  0  0  0
 20 21  1  0  0  0  0
 20 48  1  0  0  0  0
 23 28  2  0  0  0  0
 23 24  1  0  0  0  0
 24 25  2  0  0  0  0
 24 49  1  0  0  0  0
 25 26  1  0  0  0  0
 25 50  1  0  0  0  0
 26 27  2  0  0  0  0
 26 51  1  0  0  0  0
 27 28  1  0  0  0  0
 27 52  1  0  0  0  0
M  END
$$$$
CHEMBL3966730
 OpenBabel12022418103D

 49 51  0  0  0  0  0  0  0  0999 V2000
    1.4945   -0.3742    1.3868 C   0  0  0  0  0  0  0  0  0  0  0  0
    1.1614    0.9283    0.6514 C   0  0  0  0  0  0  0  0  0  0  0  0
    0.2925    0.1135   -0.3608 C   0  0  0  0  0  0  0  0  0  0  0  0
    0.3138   -1.0449    0.6746 C   0  0  0  0  0  0  0  0  0  0  0  0
    0.8799   -0.0133   -1.8507 C   0  0  0  0  0  0  0  0  0  0  0  0
    0.5564    1.0187   -2.7621 C   0  0  0  0  0  0  0  0  0  0  0  0
    0.9489    1.1324   -4.0578 N   0  0  0  0  0  0  0  0  0  0  0  0
    1.7030    0.1168   -4.5176 C   0  0  0  0  0  0  0  0  0  0  0  0
    2.0749   -0.9684   -3.7475 C   0  0  0  0  0  0  0  0  0  0  0  0
    1.7091   -1.0149   -2.3957 C   0  0  0  0  0  0  0  0  0  0  0  0
    2.1610   -2.0283   -1.5749 O   0  0  0  0  0  0  0  0  0  0  0  0
    3.3692   -2.6699   -2.0386 C   0  0  0  0  0  0  0  0  0  0  0  0
    4.0777   -3.4412   -0.9430 C   0  0  0  0  0  0  0  0  0  0  0  0
    5.2024   -4.0032   -1.4632 F   0  0  0  0  0  0  0  0  0  0  0  0
    4.4927   -2.5865    0.0258 F   0  0  0  0  0  0  0  0  0  0  0  0
    2.1988    0.1893   -5.9216 C   0  0  0  0  0  0  0  0  0  0  0  0
    2.9103   -0.6960   -6.3877 O   0  0  0  0  0  0  0  0  0  0  0  0
    1.8218    1.3037   -6.6458 N   0  0  0  0  0  0  0  0  0  0  0  0
    2.2375    1.5131   -8.0708 C   0  0  0  0  0  0  0  0  0  0  0  0
    2.0343    2.9833   -8.5391 C   0  0  0  0  0  0  0  0  0  0  0  0
    3.7177    3.1414   -9.0144 S   0  0  0  0  0  0  0  0  0  0  0  0
    4.3972    4.1673   -8.2425 O   0  0  0  0  0  0  0  0  0  0  0  0
    3.8875    3.0038  -10.4441 O   0  0  0  0  0  0  0  0  0  0  0  0
    3.7884    1.5859   -8.2113 C   0  0  0  0  0  0  0  0  0  0  0  0
    1.6179    0.4250   -8.9689 C   0  0  0  0  0  0  0  0  0  0  0  0
    0.1085    0.3593   -8.9377 C   0  0  0  0  0  0  0  0  0  0  0  0
   -0.6097    1.3477   -8.8416 O   0  0  0  0  0  0  0  0  0  0  0  0
   -0.4210   -0.8930   -9.0586 N   0  0  0  0  0  0  0  0  0  0  0  0
   -0.9612    0.6324   -0.5040 F   0  0  0  0  0  0  0  0  0  0  0  0
    2.4690   -0.7956    1.1233 H   0  0  0  0  0  0  0  0  0  0  0  0
    1.4140   -0.3202    2.4771 H   0  0  0  0  0  0  0  0  0  0  0  0
    2.0267    1.4541    0.2377 H   0  0  0  0  0  0  0  0  0  0  0  0
    0.5770    1.6391    1.2481 H   0  0  0  0  0  0  0  0  0  0  0  0
   -0.5942   -1.0688    1.2931 H   0  0  0  0  0  0  0  0  0  0  0  0
    0.4887   -2.0574    0.3084 H   0  0  0  0  0  0  0  0  0  0  0  0
   -0.0744    1.8425   -2.4236 H   0  0  0  0  0  0  0  0  0  0  0  0
    2.6669   -1.7433   -4.2206 H   0  0  0  0  0  0  0  0  0  0  0  0
    4.0781   -1.9202   -2.4132 H   0  0  0  0  0  0  0  0  0  0  0  0
    3.1250   -3.3709   -2.8477 H   0  0  0  0  0  0  0  0  0  0  0  0
    3.4605   -4.2224   -0.4946 H   0  0  0  0  0  0  0  0  0  0  0  0
    1.2110    1.9586   -6.1546 H   0  0  0  0  0  0  0  0  0  0  0  0
    1.7664    3.6969   -7.7531 H   0  0  0  0  0  0  0  0  0  0  0  0
    1.3556    3.1323   -9.3848 H   0  0  0  0  0  0  0  0  0  0  0  0
    4.2415    0.8077   -8.8359 H   0  0  0  0  0  0  0  0  0  0  0  0
    4.3486    1.6349   -7.2726 H   0  0  0  0  0  0  0  0  0  0  0  0
    2.0136   -0.5591   -8.6874 H   0  0  0  0  0  0  0  0  0  0  0  0
    1.9079    0.5769  -10.0153 H   0  0  0  0  0  0  0  0  0  0  0  0
    0.1339   -1.7337   -8.9700 H   0  0  0  0  0  0  0  0  0  0  0  0
   -1.4279   -0.9844   -9.0192 H   0  0  0  0  0  0  0  0  0  0  0  0
  1  4  1  0  0  0  0
  1  2  1  0  0  0  0
  1 30  1  0  0  0  0
  1 31  1  0  0  0  0
  2  3  1  0  0  0  0
  2 32  1  0  0  0  0
  2 33  1  0  0  0  0
  3  4  1  0  0  0  0
  3  5  1  0  0  0  0
  3 29  1  0  0  0  0
  4 34  1  0  0  0  0
  4 35  1  0  0  0  0
  5 10  2  0  0  0  0
  5  6  1  0  0  0  0
  6  7  2  0  0  0  0
  6 36  1  0  0  0  0
  7  8  1  0  0  0  0
  8  9  2  0  0  0  0
  8 16  1  0  0  0  0
  9 10  1  0  0  0  0
  9 37  1  0  0  0  0
 10 11  1  0  0  0  0
 11 12  1  0  0  0  0
 12 13  1  0  0  0  0
 12 38  1  0  0  0  0
 12 39  1  0  0  0  0
 13 14  1  0  0  0  0
 13 15  1  0  0  0  0
 13 40  1  0  0  0  0
 16 17  2  0  0  0  0
 16 18  1  0  0  0  0
 18 19  1  0  0  0  0
 18 41  1  0  0  0  0
 19 24  1  0  0  0  0
 19 20  1  0  0  0  0
 19 25  1  0  0  0  0
 20 21  1  0  0  0  0
 20 42  1  0  0  0  0
 20 43  1  0  0  0  0
 21 22  2  0  0  0  0
 21 23  2  0  0  0  0
 21 24  1  0  0  0  0
 24 44  1  0  0  0  0
 24 45  1  0  0  0  0
 25 26  1  0  0  0  0
 25 46  1  0  0  0  0
 25 47  1  0  0  0  0
 26 27  2  0  0  0  0
 26 28  1  0  0  0  0
 28 48  1  0  0  0  0
 28 49  1  0  0  0  0
M  END
$$$$
CHEMBL564901
 OpenBabel12022418103D

 61 64  0  0  0  0  0  0  0  0999 V2000
    4.1466   -1.3911   -3.3504 C   0  0  0  0  0  0  0  0  0  0  0  0
    3.8090   -1.0862   -1.9103 C   0  0  0  0  0  0  0  0  0  0  0  0
    4.7534   -1.8116   -0.9505 C   0  0  0  0  0  0  0  0  0  0  0  0
    4.4153   -1.3973    0.4792 C   0  0  0  0  0  0  0  0  0  0  0  0
    5.3465   -1.9684    1.5466 C   0  0  0  0  0  0  0  0  0  0  0  0
    6.7844   -1.7241    1.3862 N   0  0  0  0  0  0  0  0  0  0  0  0
    7.4455   -0.5078    1.3502 C   0  0  0  0  0  0  0  0  0  0  0  0
    6.7361    0.7704    1.6629 C   0  0  0  0  0  0  0  0  0  0  0  0
    8.7927   -0.7177    0.9598 C   0  0  0  0  0  0  0  0  0  0  0  0
    9.7911    0.4004    0.4483 C   0  0  0  0  0  0  0  0  0  0  0  0
    9.8920    1.4672    1.0462 O   0  0  0  0  0  0  0  0  0  0  0  0
   10.4952    0.2486   -0.9608 C   0  0  0  0  0  0  0  0  0  0  0  0
   10.0701   -0.9299   -1.5795 C   0  0  0  0  0  0  0  0  0  0  0  0
   10.1709   -1.0008   -2.9314 C   0  0  0  0  0  0  0  0  0  0  0  0
    9.6978    0.1715   -3.4639 C   0  0  0  0  0  0  0  0  0  0  0  0
    8.3072    0.2930   -3.9802 C   0  0  0  0  0  0  0  0  0  0  0  0
    8.1885   -0.6760   -5.1373 C   0  0  0  0  0  0  0  0  0  0  0  0
    6.8811   -0.5005   -5.8599 C   0  0  0  0  0  0  0  0  0  0  0  0
   10.4776    1.2633   -3.2071 C   0  0  0  0  0  0  0  0  0  0  0  0
   10.7373    2.0742   -4.3317 C   0  0  0  0  0  0  0  0  0  0  0  0
   11.8664    2.8524   -4.3630 C   0  0  0  0  0  0  0  0  0  0  0  0
   12.6437    2.8772   -3.2088 C   0  0  0  0  0  0  0  0  0  0  0  0
   12.2369    2.1930   -2.0038 C   0  0  0  0  0  0  0  0  0  0  0  0
   11.0803    1.2916   -1.9243 C   0  0  0  0  0  0  0  0  0  0  0  0
    8.9697   -2.1864    1.1692 C   0  0  0  0  0  0  0  0  0  0  0  0
   10.0479   -3.1020    1.1309 C   0  0  0  0  0  0  0  0  0  0  0  0
    9.8488   -4.4848    1.3024 C   0  0  0  0  0  0  0  0  0  0  0  0
    8.5833   -5.0075    1.4808 C   0  0  0  0  0  0  0  0  0  0  0  0
    7.5041   -4.1484    1.5136 C   0  0  0  0  0  0  0  0  0  0  0  0
    7.6940   -2.7624    1.3551 C   0  0  0  0  0  0  0  0  0  0  0  0
    3.5534   -0.7681   -4.0273 H   0  0  0  0  0  0  0  0  0  0  0  0
    3.9697   -2.4413   -3.5978 H   0  0  0  0  0  0  0  0  0  0  0  0
    5.2021   -1.1759   -3.5077 H   0  0  0  0  0  0  0  0  0  0  0  0
    2.7684   -1.3627   -1.7088 H   0  0  0  0  0  0  0  0  0  0  0  0
    3.8978   -0.0043   -1.7534 H   0  0  0  0  0  0  0  0  0  0  0  0
    5.7915   -1.5515   -1.1894 H   0  0  0  0  0  0  0  0  0  0  0  0
    4.6563   -2.8980   -1.0743 H   0  0  0  0  0  0  0  0  0  0  0  0
    3.3919   -1.7337    0.6973 H   0  0  0  0  0  0  0  0  0  0  0  0
    4.4003   -0.3069    0.5479 H   0  0  0  0  0  0  0  0  0  0  0  0
    5.1616   -3.0526    1.5558 H   0  0  0  0  0  0  0  0  0  0  0  0
    5.0587   -1.6154    2.5443 H   0  0  0  0  0  0  0  0  0  0  0  0
    5.7583    0.5977    2.1171 H   0  0  0  0  0  0  0  0  0  0  0  0
    6.5932    1.3746    0.7606 H   0  0  0  0  0  0  0  0  0  0  0  0
    7.3098    1.3426    2.3978 H   0  0  0  0  0  0  0  0  0  0  0  0
    9.3816   -1.6252   -1.1403 H   0  0  0  0  0  0  0  0  0  0  0  0
   11.2346   -1.1777   -3.2123 H   0  0  0  0  0  0  0  0  0  0  0  0
    8.0889    1.3210   -4.2955 H   0  0  0  0  0  0  0  0  0  0  0  0
    7.5998    0.0676   -3.1703 H   0  0  0  0  0  0  0  0  0  0  0  0
    8.2793   -1.7059   -4.7696 H   0  0  0  0  0  0  0  0  0  0  0  0
    9.0147   -0.5131   -5.8406 H   0  0  0  0  0  0  0  0  0  0  0  0
    6.0485   -0.7136   -5.1984 H   0  0  0  0  0  0  0  0  0  0  0  0
    6.8297   -1.1919   -6.7013 H   0  0  0  0  0  0  0  0  0  0  0  0
    6.7678    0.5247   -6.2205 H   0  0  0  0  0  0  0  0  0  0  0  0
   10.1665    1.9526   -5.2540 H   0  0  0  0  0  0  0  0  0  0  0  0
   12.1658    3.3285   -5.2945 H   0  0  0  0  0  0  0  0  0  0  0  0
   13.6087    3.3825   -3.2837 H   0  0  0  0  0  0  0  0  0  0  0  0
   12.9517    2.2379   -1.1793 H   0  0  0  0  0  0  0  0  0  0  0  0
   11.0586   -2.7261    1.0003 H   0  0  0  0  0  0  0  0  0  0  0  0
   10.6977   -5.1569    1.3033 H   0  0  0  0  0  0  0  0  0  0  0  0
    8.4341   -6.0789    1.6114 H   0  0  0  0  0  0  0  0  0  0  0  0
    6.5059   -4.5817    1.6783 H   0  0  0  0  0  0  0  0  0  0  0  0
  1  2  1  0  0  0  0
  1 31  1  0  0  0  0
  1 32  1  0  0  0  0
  1 33  1  0  0  0  0
  2  3  1  0  0  0  0
  2 34  1  0  0  0  0
  2 35  1  0  0  0  0
  3  4  1  0  0  0  0
  3 36  1  0  0  0  0
  3 37  1  0  0  0  0
  4  5  1  0  0  0  0
  4 38  1  0  0  0  0
  4 39  1  0  0  0  0
  5  6  1  0  0  0  0
  5 40  1  0  0  0  0
  5 41  1  0  0  0  0
  6 30  1  0  0  0  0
  6  7  1  0  0  0  0
  7  8  1  0  0  0  0
  7  9  2  0  0  0  0
  8 42  1  0  0  0  0
  8 43  1  0  0  0  0
  8 44  1  0  0  0  0
  9 10  1  0  0  0  0
  9 25  1  0  0  0  0
 10 11  2  0  0  0  0
 10 12  1  0  0  0  0
 12 24  2  0  0  0  0
 12 13  1  0  0  0  0
 13 14  2  0  0  0  0
 13 45  1  0  0  0  0
 14 15  1  0  0  0  0
 14 46  1  0  0  0  0
 15 16  1  0  0  0  0
 15 19  2  0  0  0  0
 16 17  1  0  0  0  0
 16 47  1  0  0  0  0
 16 48  1  0  0  0  0
 17 18  1  0  0  0  0
 17 49  1  0  0  0  0
 17 50  1  0  0  0  0
 18 51  1  0  0  0  0
 18 52  1  0  0  0  0
 18 53  1  0  0  0  0
 19 24  1  0  0  0  0
 19 20  1  0  0  0  0
 20 21  2  0  0  0  0
 20 54  1  0  0  0  0
 21 22  1  0  0  0  0
 21 55  1  0  0  0  0
 22 23  2  0  0  0  0
 22 56  1  0  0  0  0
 23 24  1  0  0  0  0
 23 57  1  0  0  0  0
 25 30  2  0  0  0  0
 25 26  1  0  0  0  0
 26 27  2  0  0  0  0
 26 58  1  0  0  0  0
 27 28  1  0  0  0  0
 27 59  1  0  0  0  0
 28 29  2  0  0  0  0
 28 60  1  0  0  0  0
 29 30  1  0  0  0  0
 29 61  1  0  0  0  0
M  END
$$$$
CHEMBL3354965
 OpenBabel12022418103D

 45 49  0  0  1  0  0  0  0  0999 V2000
   -1.3164    1.3198   -0.0649 N   0  0  0  0  0  0  0  0  0  0  0  0
   -2.4368    0.5378    0.0267 N   0  0  0  0  0  0  0  0  0  0  0  0
   -1.9850   -0.7404    0.1458 C   0  0  0  0  0  0  0  0  0  0  0  0
   -0.5791   -0.7585    0.1471 C   0  0  0  0  0  0  0  0  0  0  0  0
   -0.2018    0.5494    0.0353 C   0  0  0  0  0  0  0  0  0  0  0  0
    1.2807    0.6780   -0.2274 C   0  0  2  0  0  0  0  0  0  0  0  0
    1.7435   -0.7929   -0.2922 C   0  0  2  0  0  0  0  0  0  0  0  0
    0.5476   -1.7185    0.0393 C   0  0  0  0  0  0  0  0  0  0  0  0
    2.3014    0.1361    0.7395 C   0  0  0  0  0  0  0  0  0  0  0  0
   -2.9057   -1.8923    0.2061 C   0  0  0  0  0  0  0  0  0  0  0  0
   -2.5151   -3.0535    0.2619 O   0  0  0  0  0  0  0  0  0  0  0  0
   -4.2416   -1.5372    0.2066 N   0  0  0  0  0  0  0  0  0  0  0  0
   -5.3390   -2.4935    0.2814 C   0  0  0  0  0  0  0  0  0  0  0  0
   -5.7652   -2.9937   -1.1029 C   0  0  0  0  0  0  0  0  0  0  0  0
   -6.9794   -3.9081   -0.9812 C   0  0  0  0  0  0  0  0  0  0  0  0
   -8.0528   -3.2387   -0.3197 O   0  0  0  0  0  0  0  0  0  0  0  0
   -7.7110   -2.8586    1.0120 C   0  0  0  0  0  0  0  0  0  0  0  0
   -6.5404   -1.8853    1.0083 C   0  0  0  0  0  0  0  0  0  0  0  0
   -1.3608    2.7253   -0.2205 C   0  0  0  0  0  0  0  0  0  0  0  0
   -0.2513    3.5088    0.1503 C   0  0  0  0  0  0  0  0  0  0  0  0
   -0.2558    4.8868   -0.0774 C   0  0  0  0  0  0  0  0  0  0  0  0
   -1.3624    5.4766   -0.6688 C   0  0  0  0  0  0  0  0  0  0  0  0
   -2.4793    4.7211   -1.0100 C   0  0  0  0  0  0  0  0  0  0  0  0
   -2.4813    3.3504   -0.7734 C   0  0  0  0  0  0  0  0  0  0  0  0
   -3.5592    2.6541   -1.1636 F   0  0  0  0  0  0  0  0  0  0  0  0
   -1.3515    6.7929   -0.9163 F   0  0  0  0  0  0  0  0  0  0  0  0
    1.6298    1.4511   -0.8995 H   0  0  0  0  0  0  0  0  0  0  0  0
    2.3503   -1.1121   -1.1266 H   0  0  0  0  0  0  0  0  0  0  0  0
    0.3923   -2.4323   -0.7755 H   0  0  0  0  0  0  0  0  0  0  0  0
    0.7269   -2.2516    0.9770 H   0  0  0  0  0  0  0  0  0  0  0  0
    2.0119    0.0163    1.7782 H   0  0  0  0  0  0  0  0  0  0  0  0
    3.3254    0.4763    0.6181 H   0  0  0  0  0  0  0  0  0  0  0  0
   -4.4223   -0.5449    0.0646 H   0  0  0  0  0  0  0  0  0  0  0  0
   -4.9826   -3.3563    0.8593 H   0  0  0  0  0  0  0  0  0  0  0  0
   -4.9440   -3.5226   -1.5990 H   0  0  0  0  0  0  0  0  0  0  0  0
   -6.0269   -2.1340   -1.7333 H   0  0  0  0  0  0  0  0  0  0  0  0
   -6.7366   -4.8295   -0.4381 H   0  0  0  0  0  0  0  0  0  0  0  0
   -7.3334   -4.1976   -1.9761 H   0  0  0  0  0  0  0  0  0  0  0  0
   -7.4872   -3.7555    1.6020 H   0  0  0  0  0  0  0  0  0  0  0  0
   -8.5905   -2.3829    1.4584 H   0  0  0  0  0  0  0  0  0  0  0  0
   -6.8438   -0.9631    0.4962 H   0  0  0  0  0  0  0  0  0  0  0  0
   -6.2721   -1.6124    2.0350 H   0  0  0  0  0  0  0  0  0  0  0  0
    0.6158    3.0754    0.6425 H   0  0  0  0  0  0  0  0  0  0  0  0
    0.5997    5.4972    0.2023 H   0  0  0  0  0  0  0  0  0  0  0  0
   -3.3326    5.1958   -1.4791 H   0  0  0  0  0  0  0  0  0  0  0  0
  1  5  1  0  0  0  0
  1  2  1  0  0  0  0
  1 19  1  0  0  0  0
  2  3  2  0  0  0  0
  3  4  1  0  0  0  0
  3 10  1  0  0  0  0
  4  8  1  0  0  0  0
  4  5  2  0  0  0  0
  5  6  1  0  0  0  0
  6  7  1  0  0  0  0
  6  9  1  0  0  0  0
  6 27  1  6  0  0  0
  7  8  1  0  0  0  0
  7  9  1  0  0  0  0
  7 28  1  6  0  0  0
  8 29  1  0  0  0  0
  8 30  1  0  0  0  0
  9 31  1  0  0  0  0
  9 32  1  0  0  0  0
 10 11  2  0  0  0  0
 10 12  1  0  0  0  0
 12 13  1  0  0  0  0
 12 33  1  0  0  0  0
 13 18  1  0  0  0  0
 13 14  1  0  0  0  0
 13 34  1  0  0  0  0
 14 15  1  0  0  0  0
 14 35  1  0  0  0  0
 14 36  1  0  0  0  0
 15 16  1  0  0  0  0
 15 37  1  0  0  0  0
 15 38  1  0  0  0  0
 16 17  1  0  0  0  0
 17 18  1  0  0  0  0
 17 39  1  0  0  0  0
 17 40  1  0  0  0  0
 18 41  1  0  0  0  0
 18 42  1  0  0  0  0
 19 24  2  0  0  0  0
 19 20  1  0  0  0  0
 20 21  2  0  0  0  0
 20 43  1  0  0  0  0
 21 22  1  0  0  0  0
 21 44  1  0  0  0  0
 22 23  2  0  0  0  0
 22 26  1  0  0  0  0
 23 24  1  0  0  0  0
 23 45  1  0  0  0  0
 24 25  1  0  0  0  0
M  END
$$$$
CHEMBL3354947
 OpenBabel12022418103D

 49 53  0  0  1  0  0  0  0  0999 V2000
    4.1754   -0.1164   -1.8008 C   0  0  0  0  0  0  0  0  0  0  0  0
    3.0928   -0.8719   -0.9845 C   0  0  0  0  0  0  0  0  0  0  0  0
    2.4104    0.1660   -0.0565 C   0  0  0  0  0  0  0  0  0  0  0  0
    2.0890   -1.4734   -1.9965 C   0  0  0  0  0  0  0  0  0  0  0  0
    0.7305   -1.1168   -2.0305 C   0  0  0  0  0  0  0  0  0  0  0  0
   -0.0918   -1.6225   -3.0297 C   0  0  0  0  0  0  0  0  0  0  0  0
    0.3294   -2.4614   -3.9944 N   0  0  0  0  0  0  0  0  0  0  0  0
    1.6295   -2.8139   -3.9528 C   0  0  0  0  0  0  0  0  0  0  0  0
    2.5268   -2.3637   -2.9913 C   0  0  0  0  0  0  0  0  0  0  0  0
    3.6990   -1.9495   -0.1690 N   0  0  0  0  0  0  0  0  0  0  0  0
    4.6671   -1.7127    0.7872 C   0  0  0  0  0  0  0  0  0  0  0  0
    5.1230   -0.5950    1.0033 O   0  0  0  0  0  0  0  0  0  0  0  0
    5.1668   -2.8647    1.5676 C   0  0  0  0  0  0  0  0  0  0  0  0
    6.2276   -2.7729    2.4905 C   0  0  0  0  0  0  0  0  0  0  0  0
    6.4533   -4.0412    2.9223 C   0  0  0  0  0  0  0  0  0  0  0  0
    7.7901   -4.1572    3.6202 C   0  0  1  0  0  0  0  0  0  0  0  0
    8.3528   -2.7201    3.4992 C   0  0  1  0  0  0  0  0  0  0  0  0
    7.2776   -1.8015    2.8874 C   0  0  0  0  0  0  0  0  0  0  0  0
    8.1435   -3.3461    4.8392 C   0  0  0  0  0  0  0  0  0  0  0  0
    5.5463   -4.8656    2.3389 N   0  0  0  0  0  0  0  0  0  0  0  0
    5.4688   -6.2651    2.5372 C   0  0  0  0  0  0  0  0  0  0  0  0
    5.0509   -7.1069    1.5033 C   0  0  0  0  0  0  0  0  0  0  0  0
    5.1551   -8.4930    1.6717 C   0  0  0  0  0  0  0  0  0  0  0  0
    5.6245   -9.0236    2.8739 C   0  0  0  0  0  0  0  0  0  0  0  0
    5.9738   -8.2011    3.9291 C   0  0  0  0  0  0  0  0  0  0  0  0
    5.8942   -6.8235    3.7555 C   0  0  0  0  0  0  0  0  0  0  0  0
    6.1910   -6.0548    4.8128 F   0  0  0  0  0  0  0  0  0  0  0  0
    5.7432  -10.3500    3.0103 F   0  0  0  0  0  0  0  0  0  0  0  0
    4.7615   -4.1612    1.4378 N   0  0  0  0  0  0  0  0  0  0  0  0
    3.7232    0.6524   -2.4399 H   0  0  0  0  0  0  0  0  0  0  0  0
    4.7500   -0.7894   -2.4478 H   0  0  0  0  0  0  0  0  0  0  0  0
    4.9020    0.3934   -1.1612 H   0  0  0  0  0  0  0  0  0  0  0  0
    1.9490    0.9773   -0.6327 H   0  0  0  0  0  0  0  0  0  0  0  0
    3.1147    0.6464    0.6288 H   0  0  0  0  0  0  0  0  0  0  0  0
    1.6363   -0.3015    0.5631 H   0  0  0  0  0  0  0  0  0  0  0  0
    0.2858   -0.4336   -1.3153 H   0  0  0  0  0  0  0  0  0  0  0  0
   -1.1412   -1.3437   -3.0822 H   0  0  0  0  0  0  0  0  0  0  0  0
    1.9488   -3.4818   -4.7476 H   0  0  0  0  0  0  0  0  0  0  0  0
    3.5610   -2.6884   -3.0452 H   0  0  0  0  0  0  0  0  0  0  0  0
    3.3491   -2.8999   -0.2325 H   0  0  0  0  0  0  0  0  0  0  0  0
    8.3729   -5.0555    3.4715 H   0  0  0  0  0  0  0  0  0  0  0  0
    9.3449   -2.5892    3.0947 H   0  0  0  0  0  0  0  0  0  0  0  0
    6.9085   -1.0885    3.6317 H   0  0  0  0  0  0  0  0  0  0  0  0
    7.6813   -1.2657    2.0239 H   0  0  0  0  0  0  0  0  0  0  0  0
    9.0231   -3.6548    5.3951 H   0  0  0  0  0  0  0  0  0  0  0  0
    7.3341   -3.0039    5.4730 H   0  0  0  0  0  0  0  0  0  0  0  0
    4.7135   -6.7035    0.5517 H   0  0  0  0  0  0  0  0  0  0  0  0
    4.8939   -9.1700    0.8624 H   0  0  0  0  0  0  0  0  0  0  0  0
    6.3111   -8.6158    4.8730 H   0  0  0  0  0  0  0  0  0  0  0  0
  1  2  1  0  0  0  0
  1 30  1  0  0  0  0
  1 31  1  0  0  0  0
  1 32  1  0  0  0  0
  2  3  1  0  0  0  0
  2  4  1  0  0  0  0
  2 10  1  0  0  0  0
  3 33  1  0  0  0  0
  3 34  1  0  0  0  0
  3 35  1  0  0  0  0
  4  9  2  0  0  0  0
  4  5  1  0  0  0  0
  5  6  2  0  0  0  0
  5 36  1  0  0  0  0
  6  7  1  0  0  0  0
  6 37  1  0  0  0  0
  7  8  2  0  0  0  0
  8  9  1  0  0  0  0
  8 38  1  0  0  0  0
  9 39  1  0  0  0  0
 10 11  1  0  0  0  0
 10 40  1  0  0  0  0
 11 12  2  0  0  0  0
 11 13  1  0  0  0  0
 13 29  2  0  0  0  0
 13 14  1  0  0  0  0
 14 18  1  0  0  0  0
 14 15  2  0  0  0  0
 15 16  1  0  0  0  0
 15 20  1  0  0  0  0
 16 17  1  0  0  0  0
 16 19  1  0  0  0  0
 16 41  1  6  0  0  0
 17 18  1  0  0  0  0
 17 19  1  0  0  0  0
 17 42  1  6  0  0  0
 18 43  1  0  0  0  0
 18 44  1  0  0  0  0
 19 45  1  0  0  0  0
 19 46  1  0  0  0  0
 20 21  1  0  0  0  0
 20 29  1  0  0  0  0
 21 26  2  0  0  0  0
 21 22  1  0  0  0  0
 22 23  2  0  0  0  0
 22 47  1  0  0  0  0
 23 24  1  0  0  0  0
 23 48  1  0  0  0  0
 24 25  2  0  0  0  0
 24 28  1  0  0  0  0
 25 26  1  0  0  0  0
 25 49  1  0  0  0  0
 26 27  1  0  0  0  0
M  END
$$$$
CHEMBL3354955
 OpenBabel12022418103D

 48 52  0  0  1  0  0  0  0  0999 V2000
   -3.4233   -0.4368   -1.9501 C   0  0  0  0  0  0  0  0  0  0  0  0
   -2.3957   -1.3541   -2.5831 C   0  0  0  0  0  0  0  0  0  0  0  0
   -1.8135   -2.0965   -1.3903 C   0  0  0  0  0  0  0  0  0  0  0  0
   -1.8260   -1.0907   -0.2055 C   0  0  0  0  0  0  0  0  0  0  0  0
   -2.7048    0.0853   -0.7125 C   0  0  0  0  0  0  0  0  0  0  0  0
   -0.3855   -0.5790    0.0859 C   0  0  0  0  0  0  0  0  0  0  0  0
   -0.3638    0.3878    1.1370 O   0  0  0  0  0  0  0  0  0  0  0  0
   -2.4334   -1.7188    0.9875 N   0  0  0  0  0  0  0  0  0  0  0  0
   -1.8850   -2.8379    1.5895 C   0  0  0  0  0  0  0  0  0  0  0  0
   -0.9257   -3.4344    1.1016 O   0  0  0  0  0  0  0  0  0  0  0  0
   -2.5272   -3.3045    2.8261 C   0  0  0  0  0  0  0  0  0  0  0  0
   -2.1423   -4.4561    3.5317 C   0  0  0  0  0  0  0  0  0  0  0  0
   -3.0116   -4.5625    4.5746 C   0  0  0  0  0  0  0  0  0  0  0  0
   -2.9095   -5.9160    5.2395 C   0  0  1  0  0  0  0  0  0  0  0  0
   -1.8466   -6.6322    4.3647 C   0  0  1  0  0  0  0  0  0  0  0  0
   -1.2628   -5.6347    3.3454 C   0  0  0  0  0  0  0  0  0  0  0  0
   -1.6212   -6.4354    5.8268 C   0  0  0  0  0  0  0  0  0  0  0  0
   -3.8694   -3.5124    4.5240 N   0  0  0  0  0  0  0  0  0  0  0  0
   -4.8757   -3.1910    5.4636 C   0  0  0  0  0  0  0  0  0  0  0  0
   -4.7020   -3.5042    6.8193 C   0  0  0  0  0  0  0  0  0  0  0  0
   -5.6720   -3.1767    7.7604 C   0  0  0  0  0  0  0  0  0  0  0  0
   -6.8415   -2.5625    7.3374 C   0  0  0  0  0  0  0  0  0  0  0  0
   -7.0427   -2.2578    5.9914 C   0  0  0  0  0  0  0  0  0  0  0  0
   -6.0492   -2.5493    5.0496 C   0  0  0  0  0  0  0  0  0  0  0  0
   -7.7844   -2.2526    8.2339 F   0  0  0  0  0  0  0  0  0  0  0  0
   -3.5677   -4.0573    7.2717 F   0  0  0  0  0  0  0  0  0  0  0  0
   -3.6286   -2.7434    3.3983 N   0  0  0  0  0  0  0  0  0  0  0  0
   -3.7245    0.3696   -2.6256 H   0  0  0  0  0  0  0  0  0  0  0  0
   -4.3182   -0.9999   -1.6627 H   0  0  0  0  0  0  0  0  0  0  0  0
   -1.6145   -0.7711   -3.0849 H   0  0  0  0  0  0  0  0  0  0  0  0
   -2.8388   -2.0345   -3.3161 H   0  0  0  0  0  0  0  0  0  0  0  0
   -0.8138   -2.4847   -1.6126 H   0  0  0  0  0  0  0  0  0  0  0  0
   -2.4547   -2.9615   -1.1761 H   0  0  0  0  0  0  0  0  0  0  0  0
   -3.4103    0.4611    0.0349 H   0  0  0  0  0  0  0  0  0  0  0  0
   -2.0797    0.9331   -1.0228 H   0  0  0  0  0  0  0  0  0  0  0  0
    0.0548   -0.1179   -0.8070 H   0  0  0  0  0  0  0  0  0  0  0  0
    0.2830   -1.3934    0.3796 H   0  0  0  0  0  0  0  0  0  0  0  0
   -0.7414    1.2132    0.7925 H   0  0  0  0  0  0  0  0  0  0  0  0
   -3.1554   -1.2472    1.5196 H   0  0  0  0  0  0  0  0  0  0  0  0
   -3.8124   -6.3797    5.6112 H   0  0  0  0  0  0  0  0  0  0  0  0
   -2.0733   -7.6087    3.9645 H   0  0  0  0  0  0  0  0  0  0  0  0
   -0.2195   -5.4031    3.5814 H   0  0  0  0  0  0  0  0  0  0  0  0
   -1.3370   -6.0361    2.3312 H   0  0  0  0  0  0  0  0  0  0  0  0
   -1.6848   -7.3105    6.4656 H   0  0  0  0  0  0  0  0  0  0  0  0
   -0.8888   -5.7111    6.1640 H   0  0  0  0  0  0  0  0  0  0  0  0
   -5.5099   -3.3876    8.8124 H   0  0  0  0  0  0  0  0  0  0  0  0
   -7.9773   -1.7959    5.6867 H   0  0  0  0  0  0  0  0  0  0  0  0
   -6.2188   -2.3180    4.0002 H   0  0  0  0  0  0  0  0  0  0  0  0
  1  5  1  0  0  0  0
  1  2  1  0  0  0  0
  1 28  1  0  0  0  0
  1 29  1  0  0  0  0
  2  3  1  0  0  0  0
  2 30  1  0  0  0  0
  2 31  1  0  0  0  0
  3  4  1  0  0  0  0
  3 32  1  0  0  0  0
  3 33  1  0  0  0  0
  4  5  1  0  0  0  0
  4  6  1  0  0  0  0
  4  8  1  0  0  0  0
  5 34  1  0  0  0  0
  5 35  1  0  0  0  0
  6  7  1  0  0  0  0
  6 36  1  0  0  0  0
  6 37  1  0  0  0  0
  7 38  1  0  0  0  0
  8  9  1  0  0  0  0
  8 39  1  0  0  0  0
  9 10  2  0  0  0  0
  9 11  1  0  0  0  0
 11 27  2  0  0  0  0
 11 12  1  0  0  0  0
 12 16  1  0  0  0  0
 12 13  2  0  0  0  0
 13 14  1  0  0  0  0
 13 18  1  0  0  0  0
 14 15  1  0  0  0  0
 14 17  1  0  0  0  0
 14 40  1  1  0  0  0
 15 16  1  0  0  0  0
 15 17  1  0  0  0  0
 15 41  1  6  0  0  0
 16 42  1  0  0  0  0
 16 43  1  0  0  0  0
 17 44  1  0  0  0  0
 17 45  1  0  0  0  0
 18 19  1  0  0  0  0
 18 27  1  0  0  0  0
 19 24  2  0  0  0  0
 19 20  1  0  0  0  0
 20 21  2  0  0  0  0
 20 26  1  0  0  0  0
 21 22  1  0  0  0  0
 21 46  1  0  0  0  0
 22 23  2  0  0  0  0
 22 25  1  0  0  0  0
 23 24  1  0  0  0  0
 23 47  1  0  0  0  0
 24 48  1  0  0  0  0
M  END
$$$$
CHEMBL2206836
 OpenBabel12022418103D

 43 46  0  0  0  0  0  0  0  0999 V2000
    2.7726   -2.9674   -2.6704 C   0  0  0  0  0  0  0  0  0  0  0  0
    2.7510   -2.1059   -1.4194 C   0  0  0  0  0  0  0  0  0  0  0  0
    3.5644   -0.8124   -1.5514 C   0  0  0  0  0  0  0  0  0  0  0  0
    5.0217   -0.9491   -1.5489 N   0  0  0  0  0  0  0  0  0  0  0  0
    5.8491   -0.8804   -2.6619 C   0  0  0  0  0  0  0  0  0  0  0  0
    7.1934   -0.8342   -2.2782 C   0  0  0  0  0  0  0  0  0  0  0  0
    8.5057   -0.7288   -3.0460 C   0  0  0  0  0  0  0  0  0  0  0  0
    9.5383   -0.6351   -2.3827 O   0  0  0  0  0  0  0  0  0  0  0  0
    8.7116   -0.7681   -4.5750 C   0  0  0  0  0  0  0  0  0  0  0  0
    7.5956   -0.8960   -5.3956 C   0  0  0  0  0  0  0  0  0  0  0  0
    7.6970   -1.0828   -6.7713 C   0  0  0  0  0  0  0  0  0  0  0  0
    8.9350   -1.1019   -7.3977 C   0  0  0  0  0  0  0  0  0  0  0  0
   10.1154   -0.8501   -6.6699 C   0  0  0  0  0  0  0  0  0  0  0  0
   11.3699   -0.7419   -7.3379 C   0  0  0  0  0  0  0  0  0  0  0  0
   12.5559   -0.4647   -6.6727 C   0  0  0  0  0  0  0  0  0  0  0  0
   12.5190   -0.3307   -5.3031 C   0  0  0  0  0  0  0  0  0  0  0  0
   11.2940   -0.4520   -4.6105 C   0  0  0  0  0  0  0  0  0  0  0  0
   10.0297   -0.6910   -5.2378 C   0  0  0  0  0  0  0  0  0  0  0  0
    8.8682   -1.5383   -9.4753 I   0  0  0  0  0  0  0  0  0  0  0  0
    7.1222   -0.8843   -0.8090 C   0  0  0  0  0  0  0  0  0  0  0  0
    8.0962   -0.8446    0.2202 C   0  0  0  0  0  0  0  0  0  0  0  0
    7.7190   -0.8799    1.5714 C   0  0  0  0  0  0  0  0  0  0  0  0
    6.3794   -0.9697    1.9269 C   0  0  0  0  0  0  0  0  0  0  0  0
    5.3910   -1.0163    0.9458 C   0  0  0  0  0  0  0  0  0  0  0  0
    5.7826   -0.9680   -0.4065 C   0  0  0  0  0  0  0  0  0  0  0  0
    2.1315   -3.8456   -2.5350 H   0  0  0  0  0  0  0  0  0  0  0  0
    3.7837   -3.3179   -2.8923 H   0  0  0  0  0  0  0  0  0  0  0  0
    2.3952   -2.4108   -3.5341 H   0  0  0  0  0  0  0  0  0  0  0  0
    3.0844   -2.6983   -0.5594 H   0  0  0  0  0  0  0  0  0  0  0  0
    1.7041   -1.8347   -1.2213 H   0  0  0  0  0  0  0  0  0  0  0  0
    3.3113   -0.1660   -0.7009 H   0  0  0  0  0  0  0  0  0  0  0  0
    3.2765   -0.2571   -2.4508 H   0  0  0  0  0  0  0  0  0  0  0  0
    5.3478   -0.8450   -3.6134 H   0  0  0  0  0  0  0  0  0  0  0  0
    6.5932   -0.8523   -5.0180 H   0  0  0  0  0  0  0  0  0  0  0  0
    6.7861   -1.2214   -7.3462 H   0  0  0  0  0  0  0  0  0  0  0  0
   11.4462   -0.8415   -8.4197 H   0  0  0  0  0  0  0  0  0  0  0  0
   13.4856   -0.3530   -7.2282 H   0  0  0  0  0  0  0  0  0  0  0  0
   13.4394   -0.1152   -4.7632 H   0  0  0  0  0  0  0  0  0  0  0  0
   11.3679   -0.3276   -3.5331 H   0  0  0  0  0  0  0  0  0  0  0  0
    9.1496   -0.7708   -0.0271 H   0  0  0  0  0  0  0  0  0  0  0  0
    8.4822   -0.8348    2.3433 H   0  0  0  0  0  0  0  0  0  0  0  0
    6.1061   -0.9970    2.9712 H   0  0  0  0  0  0  0  0  0  0  0  0
    4.3464   -1.0796    1.2374 H   0  0  0  0  0  0  0  0  0  0  0  0
  1  2  1  0  0  0  0
  1 26  1  0  0  0  0
  1 27  1  0  0  0  0
  1 28  1  0  0  0  0
  2  3  1  0  0  0  0
  2 29  1  0  0  0  0
  2 30  1  0  0  0  0
  3  4  1  0  0  0  0
  3 31  1  0  0  0  0
  3 32  1  0  0  0  0
  4 25  1  0  0  0  0
  4  5  1  0  0  0  0
  5  6  2  0  0  0  0
  5 33  1  0  0  0  0
  6  7  1  0  0  0  0
  6 20  1  0  0  0  0
  7  8  2  0  0  0  0
  7  9  1  0  0  0  0
  9 18  2  0  0  0  0
  9 10  1  0  0  0  0
 10 11  2  0  0  0  0
 10 34  1  0  0  0  0
 11 12  1  0  0  0  0
 11 35  1  0  0  0  0
 12 13  2  0  0  0  0
 12 19  1  0  0  0  0
 13 18  1  0  0  0  0
 13 14  1  0  0  0  0
 14 15  2  0  0  0  0
 14 36  1  0  0  0  0
 15 16  1  0  0  0  0
 15 37  1  0  0  0  0
 16 17  2  0  0  0  0
 16 38  1  0  0  0  0
 17 18  1  0  0  0  0
 17 39  1  0  0  0  0
 20 25  2  0  0  0  0
 20 21  1  0  0  0  0
 21 22  2  0  0  0  0
 21 40  1  0  0  0  0
 22 23  1  0  0  0  0
 22 41  1  0  0  0  0
 23 24  2  0  0  0  0
 23 42  1  0  0  0  0
 24 25  1  0  0  0  0
 24 43  1  0  0  0  0
M  END
$$$$
CHEMBL2206847
 OpenBabel12022418103D

 52 55  0  0  0  0  0  0  0  0999 V2000
   -2.0271   -0.9452    0.1690 C   0  0  0  0  0  0  0  0  0  0  0  0
   -2.1001    0.4276   -0.0411 C   0  0  0  0  0  0  0  0  0  0  0  0
   -0.9437    1.2059   -0.0653 C   0  0  0  0  0  0  0  0  0  0  0  0
    0.3003    0.5746    0.1433 C   0  0  0  0  0  0  0  0  0  0  0  0
    0.3966   -0.7898    0.4056 C   0  0  0  0  0  0  0  0  0  0  0  0
   -0.7933   -1.5542    0.4079 C   0  0  0  0  0  0  0  0  0  0  0  0
    1.7860   -1.1035    0.6365 C   0  0  0  0  0  0  0  0  0  0  0  0
    2.4983    0.0376    0.2558 C   0  0  0  0  0  0  0  0  0  0  0  0
    3.9478    0.2452   -0.0269 C   0  0  0  0  0  0  0  0  0  0  0  0
    1.5863    1.0744    0.1532 N   0  0  0  0  0  0  0  0  0  0  0  0
    1.9162    2.4888   -0.0311 C   0  0  0  0  0  0  0  0  0  0  0  0
    1.4796    3.3777    1.1381 C   0  0  0  0  0  0  0  0  0  0  0  0
    1.9611    4.8220    0.9612 C   0  0  0  0  0  0  0  0  0  0  0  0
    1.4401    5.7174    2.0887 C   0  0  0  0  0  0  0  0  0  0  0  0
    1.9083    7.1561    1.9384 C   0  0  0  0  0  0  0  0  0  0  0  0
    2.2651   -2.4360    1.0854 C   0  0  0  0  0  0  0  0  0  0  0  0
    1.5218   -3.4186    1.1001 O   0  0  0  0  0  0  0  0  0  0  0  0
    3.6745   -2.6932    1.4919 C   0  0  0  0  0  0  0  0  0  0  0  0
    4.2532   -3.8128    0.8585 C   0  0  0  0  0  0  0  0  0  0  0  0
    5.6151   -4.0545    0.9488 C   0  0  0  0  0  0  0  0  0  0  0  0
    6.4224   -3.1128    1.5744 C   0  0  0  0  0  0  0  0  0  0  0  0
    5.8646   -1.9881    2.2007 C   0  0  0  0  0  0  0  0  0  0  0  0
    4.4595   -1.8372    2.3229 C   0  0  0  0  0  0  0  0  0  0  0  0
    4.0171   -0.8276    3.2318 C   0  0  0  0  0  0  0  0  0  0  0  0
    4.8975    0.1441    3.7252 C   0  0  0  0  0  0  0  0  0  0  0  0
    6.2324    0.1213    3.3521 C   0  0  0  0  0  0  0  0  0  0  0  0
    6.7273   -0.9826    2.6679 C   0  0  0  0  0  0  0  0  0  0  0  0
    2.2580   -0.7918    3.9635 Br  0  0  0  0  0  0  0  0  0  0  0  0
   -2.9316   -1.5456    0.1584 H   0  0  0  0  0  0  0  0  0  0  0  0
   -3.0660    0.8950   -0.2110 H   0  0  0  0  0  0  0  0  0  0  0  0
   -1.0152    2.2744   -0.2432 H   0  0  0  0  0  0  0  0  0  0  0  0
   -0.7534   -2.6304    0.5647 H   0  0  0  0  0  0  0  0  0  0  0  0
    4.4663   -0.6961   -0.2196 H   0  0  0  0  0  0  0  0  0  0  0  0
    4.4372    0.7703    0.7974 H   0  0  0  0  0  0  0  0  0  0  0  0
    4.0814    0.8425   -0.9350 H   0  0  0  0  0  0  0  0  0  0  0  0
    1.4501    2.8046   -0.9705 H   0  0  0  0  0  0  0  0  0  0  0  0
    2.9978    2.5823   -0.1594 H   0  0  0  0  0  0  0  0  0  0  0  0
    1.8707    2.9734    2.0798 H   0  0  0  0  0  0  0  0  0  0  0  0
    0.3881    3.3770    1.2283 H   0  0  0  0  0  0  0  0  0  0  0  0
    1.6185    5.2129   -0.0048 H   0  0  0  0  0  0  0  0  0  0  0  0
    3.0576    4.8450    0.9488 H   0  0  0  0  0  0  0  0  0  0  0  0
    1.7795    5.3293    3.0561 H   0  0  0  0  0  0  0  0  0  0  0  0
    0.3441    5.6983    2.0985 H   0  0  0  0  0  0  0  0  0  0  0  0
    2.9989    7.2204    1.9603 H   0  0  0  0  0  0  0  0  0  0  0  0
    1.5189    7.7701    2.7575 H   0  0  0  0  0  0  0  0  0  0  0  0
    1.5544    7.5888    0.9962 H   0  0  0  0  0  0  0  0  0  0  0  0
    3.6361   -4.4872    0.2654 H   0  0  0  0  0  0  0  0  0  0  0  0
    6.0538   -4.9282    0.4743 H   0  0  0  0  0  0  0  0  0  0  0  0
    7.4987   -3.2713    1.5756 H   0  0  0  0  0  0  0  0  0  0  0  0
    4.5463    0.9267    4.3931 H   0  0  0  0  0  0  0  0  0  0  0  0
    6.8969    0.9353    3.6270 H   0  0  0  0  0  0  0  0  0  0  0  0
    7.7938   -1.0364    2.4628 H   0  0  0  0  0  0  0  0  0  0  0  0
  1  6  2  0  0  0  0
  1  2  1  0  0  0  0
  1 29  1  0  0  0  0
  2  3  2  0  0  0  0
  2 30  1  0  0  0  0
  3  4  1  0  0  0  0
  3 31  1  0  0  0  0
  4 10  1  0  0  0  0
  4  5  2  0  0  0  0
  5  6  1  0  0  0  0
  5  7  1  0  0  0  0
  6 32  1  0  0  0  0
  7  8  2  0  0  0  0
  7 16  1  0  0  0  0
  8  9  1  0  0  0  0
  8 10  1  0  0  0  0
  9 33  1  0  0  0  0
  9 34  1  0  0  0  0
  9 35  1  0  0  0  0
 10 11  1  0  0  0  0
 11 12  1  0  0  0  0
 11 36  1  0  0  0  0
 11 37  1  0  0  0  0
 12 13  1  0  0  0  0
 12 38  1  0  0  0  0
 12 39  1  0  0  0  0
 13 14  1  0  0  0  0
 13 40  1  0  0  0  0
 13 41  1  0  0  0  0
 14 15  1  0  0  0  0
 14 42  1  0  0  0  0
 14 43  1  0  0  0  0
 15 44  1  0  0  0  0
 15 45  1  0  0  0  0
 15 46  1  0  0  0  0
 16 17  2  0  0  0  0
 16 18  1  0  0  0  0
 18 23  2  0  0  0  0
 18 19  1  0  0  0  0
 19 20  2  0  0  0  0
 19 47  1  0  0  0  0
 20 21  1  0  0  0  0
 20 48  1  0  0  0  0
 21 22  2  0  0  0  0
 21 49  1  0  0  0  0
 22 27  1  0  0  0  0
 22 23  1  0  0  0  0
 23 24  1  0  0  0  0
 24 25  2  0  0  0  0
 24 28  1  0  0  0  0
 25 26  1  0  0  0  0
 25 50  1  0  0  0  0
 26 27  2  0  0  0  0
 26 51  1  0  0  0  0
 27 52  1  0  0  0  0
M  END
$$$$
CHEMBL562150
 OpenBabel12022418103D

 55 58  0  0  0  0  0  0  0  0999 V2000
   -1.3376    3.0861    1.6995 C   0  0  0  0  0  0  0  0  0  0  0  0
   -1.9367    2.2582    2.6223 C   0  0  0  0  0  0  0  0  0  0  0  0
   -2.0957    0.8071    2.8475 C   0  0  0  0  0  0  0  0  0  0  0  0
   -2.5445    3.0404    3.5608 O   0  0  0  0  0  0  0  0  0  0  0  0
   -2.3549    4.3763    3.2664 N   0  0  0  0  0  0  0  0  0  0  0  0
   -1.6315    4.3958    2.1333 C   0  0  0  0  0  0  0  0  0  0  0  0
   -1.2849    5.7034    1.5209 C   0  0  0  0  0  0  0  0  0  0  0  0
   -0.4648    2.6840    0.2878 S   0  0  0  0  0  0  0  0  0  0  0  0
   -0.6533    1.2614    0.1290 O   0  0  0  0  0  0  0  0  0  0  0  0
   -0.9866    3.5969   -0.7105 O   0  0  0  0  0  0  0  0  0  0  0  0
    1.1950    3.0702    0.5230 N   0  0  0  0  0  0  0  0  0  0  0  0
    1.9774    3.2300   -0.7627 C   0  0  0  0  0  0  0  0  0  0  0  0
    2.0460    1.9116   -1.5773 C   0  0  0  0  0  0  0  0  0  0  0  0
    2.1844    0.7422   -0.6513 C   0  0  0  0  0  0  0  0  0  0  0  0
    2.1781    0.8482    0.7246 C   0  0  0  0  0  0  0  0  0  0  0  0
    1.9465    2.1391    1.4482 C   0  0  0  0  0  0  0  0  0  0  0  0
    2.2244   -0.3830    1.3112 N   0  0  0  0  0  0  0  0  0  0  0  0
    2.1550   -1.2725    0.3278 C   0  0  0  0  0  0  0  0  0  0  0  0
    2.0688   -2.7939    0.5648 C   0  0  0  0  0  0  0  0  0  0  0  0
    0.6000   -3.2603    0.5014 C   0  0  0  0  0  0  0  0  0  0  0  0
    2.9482   -3.6245   -0.3920 C   0  0  0  0  0  0  0  0  0  0  0  0
    2.5817   -3.1506    1.9846 C   0  0  0  0  0  0  0  0  0  0  0  0
    2.0529   -0.6035   -0.9040 N   0  0  0  0  0  0  0  0  0  0  0  0
    1.8409   -1.2416   -2.2012 C   0  0  0  0  0  0  0  0  0  0  0  0
    0.9037   -0.5877   -3.1731 C   0  0  0  0  0  0  0  0  0  0  0  0
   -0.1418   -1.4586   -3.8415 C   0  0  0  0  0  0  0  0  0  0  0  0
   -0.5629   -0.3917   -2.8753 C   0  0  0  0  0  0  0  0  0  0  0  0
   -1.6603    0.1917    2.0590 H   0  0  0  0  0  0  0  0  0  0  0  0
   -3.1596    0.5521    2.9161 H   0  0  0  0  0  0  0  0  0  0  0  0
   -1.6237    0.5191    3.7931 H   0  0  0  0  0  0  0  0  0  0  0  0
   -0.5972    5.6042    0.6782 H   0  0  0  0  0  0  0  0  0  0  0  0
   -0.7991    6.3500    2.2573 H   0  0  0  0  0  0  0  0  0  0  0  0
   -2.1895    6.2016    1.1602 H   0  0  0  0  0  0  0  0  0  0  0  0
    2.9947    3.5536   -0.4972 H   0  0  0  0  0  0  0  0  0  0  0  0
    1.5587    4.0489   -1.3594 H   0  0  0  0  0  0  0  0  0  0  0  0
    2.8844    1.9589   -2.2807 H   0  0  0  0  0  0  0  0  0  0  0  0
    1.1226    1.8365   -2.1560 H   0  0  0  0  0  0  0  0  0  0  0  0
    1.4075    2.0125    2.3895 H   0  0  0  0  0  0  0  0  0  0  0  0
    2.9122    2.6059    1.6869 H   0  0  0  0  0  0  0  0  0  0  0  0
    0.1316   -3.0538   -0.4644 H   0  0  0  0  0  0  0  0  0  0  0  0
   -0.0072   -2.7639    1.2686 H   0  0  0  0  0  0  0  0  0  0  0  0
    0.5247   -4.3412    0.6759 H   0  0  0  0  0  0  0  0  0  0  0  0
    2.6654   -3.5617   -1.4421 H   0  0  0  0  0  0  0  0  0  0  0  0
    2.8863   -4.6918   -0.1458 H   0  0  0  0  0  0  0  0  0  0  0  0
    3.9980   -3.3237   -0.3232 H   0  0  0  0  0  0  0  0  0  0  0  0
    1.9901   -2.6725    2.7726 H   0  0  0  0  0  0  0  0  0  0  0  0
    3.6285   -2.8556    2.1192 H   0  0  0  0  0  0  0  0  0  0  0  0
    2.5251   -4.2350    2.1535 H   0  0  0  0  0  0  0  0  0  0  0  0
    1.4144   -2.2181   -1.9972 H   0  0  0  0  0  0  0  0  0  0  0  0
    2.8321   -1.3710   -2.6465 H   0  0  0  0  0  0  0  0  0  0  0  0
    1.4060    0.1354   -3.8051 H   0  0  0  0  0  0  0  0  0  0  0  0
   -0.2550   -2.4910   -3.5243 H   0  0  0  0  0  0  0  0  0  0  0  0
   -0.3534   -1.3047   -4.8932 H   0  0  0  0  0  0  0  0  0  0  0  0
   -1.0556    0.4853   -3.2810 H   0  0  0  0  0  0  0  0  0  0  0  0
   -0.9355   -0.6889   -1.9008 H   0  0  0  0  0  0  0  0  0  0  0  0
  1  6  1  0  0  0  0
  1  2  2  0  0  0  0
  1  8  1  0  0  0  0
  2  3  1  0  0  0  0
  2  4  1  0  0  0  0
  3 28  1  0  0  0  0
  3 29  1  0  0  0  0
  3 30  1  0  0  0  0
  4  5  1  0  0  0  0
  5  6  2  0  0  0  0
  6  7  1  0  0  0  0
  7 31  1  0  0  0  0
  7 32  1  0  0  0  0
  7 33  1  0  0  0  0
  8  9  2  0  0  0  0
  8 10  2  0  0  0  0
  8 11  1  0  0  0  0
 11 16  1  0  0  0  0
 11 12  1  0  0  0  0
 12 13  1  0  0  0  0
 12 34  1  0  0  0  0
 12 35  1  0  0  0  0
 13 14  1  0  0  0  0
 13 36  1  0  0  0  0
 13 37  1  0  0  0  0
 14 23  1  0  0  0  0
 14 15  2  0  0  0  0
 15 16  1  0  0  0  0
 15 17  1  0  0  0  0
 16 38  1  0  0  0  0
 16 39  1  0  0  0  0
 17 18  2  0  0  0  0
 18 19  1  0  0  0  0
 18 23  1  0  0  0  0
 19 20  1  0  0  0  0
 19 21  1  0  0  0  0
 19 22  1  0  0  0  0
 20 40  1  0  0  0  0
 20 41  1  0  0  0  0
 20 42  1  0  0  0  0
 21 43  1  0  0  0  0
 21 44  1  0  0  0  0
 21 45  1  0  0  0  0
 22 46  1  0  0  0  0
 22 47  1  0  0  0  0
 22 48  1  0  0  0  0
 23 24  1  0  0  0  0
 24 25  1  0  0  0  0
 24 49  1  0  0  0  0
 24 50  1  0  0  0  0
 25 27  1  0  0  0  0
 25 26  1  0  0  0  0
 25 51  1  0  0  0  0
 26 27  1  0  0  0  0
 26 52  1  0  0  0  0
 26 53  1  0  0  0  0
 27 54  1  0  0  0  0
 27 55  1  0  0  0  0
M  END
$$$$
CHEMBL2204894
 OpenBabel12022418103D

 47 49  0  0  0  0  0  0  0  0999 V2000
    3.6106   -3.0495    2.1774 C   0  0  0  0  0  0  0  0  0  0  0  0
    3.6655   -1.6353    2.3291 O   0  0  0  0  0  0  0  0  0  0  0  0
    4.5830   -1.0480    1.3963 C   0  0  0  0  0  0  0  0  0  0  0  0
    4.5775    0.4795    1.5277 C   0  0  0  0  0  0  0  0  0  0  0  0
    5.1129    0.9596    2.7870 N   0  0  0  0  0  0  0  0  0  0  0  0
    6.4477    1.1102    3.0464 C   0  0  0  0  0  0  0  0  0  0  0  0
    7.2957    0.8888    2.1845 O   0  0  0  0  0  0  0  0  0  0  0  0
    6.8221    1.5804    4.3948 C   0  0  0  0  0  0  0  0  0  0  0  0
    6.2522    1.2006    5.6057 C   0  0  0  0  0  0  0  0  0  0  0  0
    5.1791    0.4210    5.9926 N   0  0  0  0  0  0  0  0  0  0  0  0
    3.8925    0.6945    5.5805 C   0  0  0  0  0  0  0  0  0  0  0  0
    3.5765    1.6164    4.8289 O   0  0  0  0  0  0  0  0  0  0  0  0
    2.8096   -0.1304    6.1804 C   0  0  0  0  0  0  0  0  0  0  0  0
    1.6115    0.5348    6.5017 C   0  0  0  0  0  0  0  0  0  0  0  0
    0.5245   -0.1677    7.0265 C   0  0  0  0  0  0  0  0  0  0  0  0
    0.6177   -1.5419    7.2269 C   0  0  0  0  0  0  0  0  0  0  0  0
    1.7999   -2.2131    6.9073 C   0  0  0  0  0  0  0  0  0  0  0  0
    2.8953   -1.5149    6.3845 C   0  0  0  0  0  0  0  0  0  0  0  0
    4.2909   -2.4563    5.9924 Cl  0  0  0  0  0  0  0  0  0  0  0  0
    7.1351    1.7204    6.9685 S   0  0  0  0  0  0  0  0  0  0  0  0
    8.2023    2.6177    6.0113 C   0  0  0  0  0  0  0  0  0  0  0  0
    7.9926    2.4233    4.6584 C   0  0  0  0  0  0  0  0  0  0  0  0
    8.8957    3.0685    3.6341 C   0  0  0  0  0  0  0  0  0  0  0  0
   10.1973    3.6044    4.2471 C   0  0  0  0  0  0  0  0  0  0  0  0
    9.9500    4.3348    5.5598 C   0  0  0  0  0  0  0  0  0  0  0  0
    9.2862    3.4560    6.6188 C   0  0  0  0  0  0  0  0  0  0  0  0
   11.1360    4.7935    6.0436 F   0  0  0  0  0  0  0  0  0  0  0  0
    9.1890    5.4369    5.3269 F   0  0  0  0  0  0  0  0  0  0  0  0
    2.9292   -3.4540    2.9308 H   0  0  0  0  0  0  0  0  0  0  0  0
    4.5996   -3.4936    2.3263 H   0  0  0  0  0  0  0  0  0  0  0  0
    3.2268   -3.3129    1.1862 H   0  0  0  0  0  0  0  0  0  0  0  0
    4.2613   -1.3130    0.3817 H   0  0  0  0  0  0  0  0  0  0  0  0
    5.5861   -1.4518    1.5670 H   0  0  0  0  0  0  0  0  0  0  0  0
    3.5501    0.8543    1.4672 H   0  0  0  0  0  0  0  0  0  0  0  0
    5.1615    0.9190    0.7134 H   0  0  0  0  0  0  0  0  0  0  0  0
    4.4469    1.3061    3.4720 H   0  0  0  0  0  0  0  0  0  0  0  0
    5.2672   -0.0085    6.9064 H   0  0  0  0  0  0  0  0  0  0  0  0
    1.5199    1.6074    6.3335 H   0  0  0  0  0  0  0  0  0  0  0  0
   -0.3983    0.3575    7.2649 H   0  0  0  0  0  0  0  0  0  0  0  0
   -0.2331   -2.0942    7.6213 H   0  0  0  0  0  0  0  0  0  0  0  0
    1.8519   -3.2900    7.0550 H   0  0  0  0  0  0  0  0  0  0  0  0
    8.3505    3.8927    3.1589 H   0  0  0  0  0  0  0  0  0  0  0  0
    9.1636    2.3540    2.8498 H   0  0  0  0  0  0  0  0  0  0  0  0
   10.6882    4.2761    3.5335 H   0  0  0  0  0  0  0  0  0  0  0  0
   10.8972    2.7782    4.4265 H   0  0  0  0  0  0  0  0  0  0  0  0
   10.0403    2.7985    7.0688 H   0  0  0  0  0  0  0  0  0  0  0  0
    8.8835    4.0904    7.4170 H   0  0  0  0  0  0  0  0  0  0  0  0
  1  2  1  0  0  0  0
  1 29  1  0  0  0  0
  1 30  1  0  0  0  0
  1 31  1  0  0  0  0
  2  3  1  0  0  0  0
  3  4  1  0  0  0  0
  3 32  1  0  0  0  0
  3 33  1  0  0  0  0
  4  5  1  0  0  0  0
  4 34  1  0  0  0  0
  4 35  1  0  0  0  0
  5  6  1  0  0  0  0
  5 36  1  0  0  0  0
  6  7  2  0  0  0  0
  6  8  1  0  0  0  0
  8 22  1  0  0  0  0
  8  9  2  0  0  0  0
  9 10  1  0  0  0  0
  9 20  1  0  0  0  0
 10 11  1  0  0  0  0
 10 37  1  0  0  0  0
 11 12  2  0  0  0  0
 11 13  1  0  0  0  0
 13 18  2  0  0  0  0
 13 14  1  0  0  0  0
 14 15  2  0  0  0  0
 14 38  1  0  0  0  0
 15 16  1  0  0  0  0
 15 39  1  0  0  0  0
 16 17  2  0  0  0  0
 16 40  1  0  0  0  0
 17 18  1  0  0  0  0
 17 41  1  0  0  0  0
 18 19  1  0  0  0  0
 20 21  1  0  0  0  0
 21 26  1  0  0  0  0
 21 22  2  0  0  0  0
 22 23  1  0  0  0  0
 23 24  1  0  0  0  0
 23 42  1  0  0  0  0
 23 43  1  0  0  0  0
 24 25  1  0  0  0  0
 24 44  1  0  0  0  0
 24 45  1  0  0  0  0
 25 26  1  0  0  0  0
 25 27  1  0  0  0  0
 25 28  1  0  0  0  0
 26 46  1  0  0  0  0
 26 47  1  0  0  0  0
M  END
$$$$
CHEMBL3941942
 OpenBabel12022418103D

 53 56  0  0  1  0  0  0  0  0999 V2000
   -1.3445   -1.0479   -1.4617 C   0  0  0  0  0  0  0  0  0  0  0  0
   -0.3329   -0.2891   -0.7050 C   0  0  0  0  0  0  0  0  0  0  0  0
    0.6888    0.4060   -1.1445 N   0  0  0  0  0  0  0  0  0  0  0  0
    1.2896    0.8334    0.0220 C   0  0  0  0  0  0  0  0  0  0  0  0
    2.5879    1.6426    0.0282 C   0  0  2  0  0  0  0  0  0  0  0  0
    3.3875    1.3167   -1.2537 C   0  0  0  0  0  0  0  0  0  0  0  0
    3.4517    1.3362    1.2931 C   0  0  0  0  0  0  0  0  0  0  0  0
    3.8867   -0.1058    1.4549 C   0  0  0  0  0  0  0  0  0  0  0  0
    5.3011   -0.5440    1.1657 C   0  0  0  0  0  0  0  0  0  0  0  0
    4.8256   -0.4465    2.5865 C   0  0  0  0  0  0  0  0  0  0  0  0
    2.1982    3.0764    0.0065 N   0  0  0  0  0  0  0  0  0  0  0  0
    3.0737    4.1385   -0.0932 C   0  0  0  0  0  0  0  0  0  0  0  0
    4.2939    4.0362   -0.1090 O   0  0  0  0  0  0  0  0  0  0  0  0
    2.4310    5.4902   -0.1902 C   0  0  0  0  0  0  0  0  0  0  0  0
    3.2208    6.6306   -0.3046 C   0  0  0  0  0  0  0  0  0  0  0  0
    2.5903    7.8753   -0.3404 C   0  0  0  0  0  0  0  0  0  0  0  0
    1.1860    7.9587   -0.3168 C   0  0  0  0  0  0  0  0  0  0  0  0
    0.5101    6.7337   -0.2103 C   0  0  0  0  0  0  0  0  0  0  0  0
    1.0766    5.5131   -0.1426 N   0  0  0  0  0  0  0  0  0  0  0  0
    0.3970    9.2527   -0.3004 C   0  0  0  0  0  0  0  0  0  0  0  0
    0.5589   10.3452   -1.3264 C   0  0  0  0  0  0  0  0  0  0  0  0
   -0.6549    9.4699   -1.3707 C   0  0  0  0  0  0  0  0  0  0  0  0
    3.2640    9.0708   -0.4056 O   0  0  0  0  0  0  0  0  0  0  0  0
    4.6263    9.0882    0.0494 C   0  0  0  0  0  0  0  0  0  0  0  0
    5.0723   10.5011    0.4269 C   0  0  0  0  0  0  0  0  0  0  0  0
    4.1226   11.4345    0.2022 F   0  0  0  0  0  0  0  0  0  0  0  0
    5.3976   10.5648    1.7408 F   0  0  0  0  0  0  0  0  0  0  0  0
    6.1723   10.8658   -0.2734 F   0  0  0  0  0  0  0  0  0  0  0  0
    0.6287    0.4720    1.1378 N   0  0  0  0  0  0  0  0  0  0  0  0
   -0.4325   -0.2957    0.6563 O   0  0  0  0  0  0  0  0  0  0  0  0
   -1.9860   -1.6374   -0.8008 H   0  0  0  0  0  0  0  0  0  0  0  0
   -0.8569   -1.7333   -2.1614 H   0  0  0  0  0  0  0  0  0  0  0  0
   -1.9769   -0.3651   -2.0366 H   0  0  0  0  0  0  0  0  0  0  0  0
    4.3445    1.8455   -1.2883 H   0  0  0  0  0  0  0  0  0  0  0  0
    2.8269    1.6110   -2.1503 H   0  0  0  0  0  0  0  0  0  0  0  0
    3.5975    0.2449   -1.3373 H   0  0  0  0  0  0  0  0  0  0  0  0
    2.8881    1.6169    2.1935 H   0  0  0  0  0  0  0  0  0  0  0  0
    4.3445    1.9728    1.2982 H   0  0  0  0  0  0  0  0  0  0  0  0
    3.0888   -0.8182    1.2757 H   0  0  0  0  0  0  0  0  0  0  0  0
    6.0224    0.1903    0.8247 H   0  0  0  0  0  0  0  0  0  0  0  0
    5.4560   -1.5367    0.7574 H   0  0  0  0  0  0  0  0  0  0  0  0
    4.6437   -1.3659    3.1327 H   0  0  0  0  0  0  0  0  0  0  0  0
    5.2204    0.3574    3.1981 H   0  0  0  0  0  0  0  0  0  0  0  0
    1.2087    3.3149    0.0112 H   0  0  0  0  0  0  0  0  0  0  0  0
    4.2986    6.5198   -0.3581 H   0  0  0  0  0  0  0  0  0  0  0  0
   -0.5793    6.7278   -0.1609 H   0  0  0  0  0  0  0  0  0  0  0  0
    0.1387    9.6012    0.7005 H   0  0  0  0  0  0  0  0  0  0  0  0
    1.2965   10.2366   -2.1111 H   0  0  0  0  0  0  0  0  0  0  0  0
    0.4209   11.3712   -0.9961 H   0  0  0  0  0  0  0  0  0  0  0  0
   -1.6070    9.8845   -1.0610 H   0  0  0  0  0  0  0  0  0  0  0  0
   -0.7258    8.7758   -2.2018 H   0  0  0  0  0  0  0  0  0  0  0  0
    5.2705    8.7080   -0.7523 H   0  0  0  0  0  0  0  0  0  0  0  0
    4.7457    8.4491    0.9324 H   0  0  0  0  0  0  0  0  0  0  0  0
  1  2  1  0  0  0  0
  1 31  1  0  0  0  0
  1 32  1  0  0  0  0
  1 33  1  0  0  0  0
  2 30  1  0  0  0  0
  2  3  2  0  0  0  0
  3  4  1  0  0  0  0
  4 29  2  0  0  0  0
  5  7  1  1  0  0  0
  5 11  1  0  0  0  0
  5  6  1  0  0  0  0
  5  4  1  0  0  0  0
  6 34  1  0  0  0  0
  6 35  1  0  0  0  0
  6 36  1  0  0  0  0
  7  8  1  0  0  0  0
  7 37  1  0  0  0  0
  7 38  1  0  0  0  0
  8 10  1  0  0  0  0
  8  9  1  0  0  0  0
  8 39  1  0  0  0  0
  9 10  1  0  0  0  0
  9 40  1  0  0  0  0
  9 41  1  0  0  0  0
 10 42  1  0  0  0  0
 10 43  1  0  0  0  0
 11 12  1  0  0  0  0
 11 44  1  0  0  0  0
 12 13  2  0  0  0  0
 12 14  1  0  0  0  0
 14 19  2  0  0  0  0
 14 15  1  0  0  0  0
 15 16  2  0  0  0  0
 15 45  1  0  0  0  0
 16 17  1  0  0  0  0
 16 23  1  0  0  0  0
 17 18  2  0  0  0  0
 17 20  1  0  0  0  0
 18 19  1  0  0  0  0
 18 46  1  0  0  0  0
 20 22  1  0  0  0  0
 20 21  1  0  0  0  0
 20 47  1  0  0  0  0
 21 22  1  0  0  0  0
 21 48  1  0  0  0  0
 21 49  1  0  0  0  0
 22 50  1  0  0  0  0
 22 51  1  0  0  0  0
 23 24  1  0  0  0  0
 24 25  1  0  0  0  0
 24 52  1  0  0  0  0
 24 53  1  0  0  0  0
 25 26  1  0  0  0  0
 25 27  1  0  0  0  0
 25 28  1  0  0  0  0
 29 30  1  0  0  0  0
M  END
$$$$
CHEMBL1277592
 OpenBabel12022418103D

 61 63  0  0  1  0  0  0  0  0999 V2000
    7.2239    9.9786   -3.2312 C   0  0  0  0  0  0  0  0  0  0  0  0
    6.8349    8.6525   -2.5906 C   0  0  0  0  0  0  0  0  0  0  0  0
    5.3884    8.6786   -2.1101 C   0  0  0  0  0  0  0  0  0  0  0  0
    4.9733    7.3636   -1.4510 C   0  0  0  0  0  0  0  0  0  0  0  0
    3.5235    7.4766   -0.9669 C   0  0  0  0  0  0  0  0  0  0  0  0
    2.9445    6.2318   -0.2454 C   0  0  0  0  0  0  0  0  0  0  0  0
    3.7807    5.8896    1.0151 C   0  0  0  0  0  0  0  0  0  0  0  0
    3.0129    4.9773   -1.1505 C   0  0  0  0  0  0  0  0  0  0  0  0
    1.4779    6.5329    0.0984 C   0  0  0  0  0  0  0  0  0  0  0  0
    1.0826    6.9311    1.3832 C   0  0  0  0  0  0  0  0  0  0  0  0
   -0.2642    6.8827    1.7434 C   0  0  0  0  0  0  0  0  0  0  0  0
   -1.2148    6.4229    0.8284 C   0  0  0  0  0  0  0  0  0  0  0  0
   -0.8644    6.4167   -0.5176 C   0  0  0  0  0  0  0  0  0  0  0  0
    0.4798    6.4292   -0.8686 C   0  0  0  0  0  0  0  0  0  0  0  0
   -1.7604    6.3271   -1.5484 O   0  0  0  0  0  0  0  0  0  0  0  0
   -3.1705    6.2744   -1.2004 C   0  0  0  0  0  0  0  0  0  0  0  0
   -3.7279    7.6823   -1.0133 C   0  0  0  0  0  0  0  0  0  0  0  0
   -3.8321    5.6052   -2.4192 C   0  0  0  0  0  0  0  0  0  0  0  0
   -3.3163    5.3593    0.0018 C   0  0  2  0  0  0  0  0  0  0  0  0
   -4.6961    4.8885    0.5018 C   0  0  0  0  0  0  0  0  0  0  0  0
   -4.4219    3.5407    1.1444 C   0  0  0  0  0  0  0  0  0  0  0  0
   -3.1716    3.3214    1.6176 C   0  0  0  0  0  0  0  0  0  0  0  0
   -2.4209    2.1425    1.0304 C   0  0  0  0  0  0  0  0  0  0  0  0
   -2.3263    4.5084    2.1092 C   0  0  0  0  0  0  0  0  0  0  0  0
   -2.5254    5.8035    1.2429 C   0  0  1  0  0  0  0  0  0  0  0  0
   -0.7539    7.4882    3.4766 Br  0  0  0  0  0  0  0  0  0  0  0  0
    8.2028   10.3046   -2.8663 H   0  0  0  0  0  0  0  0  0  0  0  0
    6.5023   10.7734   -3.0145 H   0  0  0  0  0  0  0  0  0  0  0  0
    7.2912    9.8731   -4.3185 H   0  0  0  0  0  0  0  0  0  0  0  0
    7.4969    8.4506   -1.7406 H   0  0  0  0  0  0  0  0  0  0  0  0
    6.9807    7.8387   -3.3109 H   0  0  0  0  0  0  0  0  0  0  0  0
    4.7227    8.8925   -2.9552 H   0  0  0  0  0  0  0  0  0  0  0  0
    5.2653    9.4945   -1.3868 H   0  0  0  0  0  0  0  0  0  0  0  0
    5.0738    6.5453   -2.1729 H   0  0  0  0  0  0  0  0  0  0  0  0
    5.6428    7.1485   -0.6118 H   0  0  0  0  0  0  0  0  0  0  0  0
    2.8962    7.7134   -1.8368 H   0  0  0  0  0  0  0  0  0  0  0  0
    3.4451    8.3439   -0.2973 H   0  0  0  0  0  0  0  0  0  0  0  0
    3.2856    5.1151    1.6148 H   0  0  0  0  0  0  0  0  0  0  0  0
    4.7717    5.5017    0.7545 H   0  0  0  0  0  0  0  0  0  0  0  0
    3.9370    6.7634    1.6563 H   0  0  0  0  0  0  0  0  0  0  0  0
    2.6006    5.1609   -2.1492 H   0  0  0  0  0  0  0  0  0  0  0  0
    2.4475    4.1471   -0.7070 H   0  0  0  0  0  0  0  0  0  0  0  0
    4.0406    4.6269   -1.2935 H   0  0  0  0  0  0  0  0  0  0  0  0
    1.8122    7.2584    2.1242 H   0  0  0  0  0  0  0  0  0  0  0  0
    0.7298    6.2918   -1.9108 H   0  0  0  0  0  0  0  0  0  0  0  0
   -4.7836    7.6583   -0.7275 H   0  0  0  0  0  0  0  0  0  0  0  0
   -3.1770    8.2457   -0.2545 H   0  0  0  0  0  0  0  0  0  0  0  0
   -3.6354    8.2528   -1.9449 H   0  0  0  0  0  0  0  0  0  0  0  0
   -3.4614    6.0358   -3.3530 H   0  0  0  0  0  0  0  0  0  0  0  0
   -3.5768    4.5383   -2.4630 H   0  0  0  0  0  0  0  0  0  0  0  0
   -4.9233    5.6876   -2.3968 H   0  0  0  0  0  0  0  0  0  0  0  0
   -2.7929    4.4683   -0.3889 H   0  0  0  0  0  0  0  0  0  0  0  0
   -5.1588    5.5798    1.2146 H   0  0  0  0  0  0  0  0  0  0  0  0
   -5.3893    4.7428   -0.3296 H   0  0  0  0  0  0  0  0  0  0  0  0
   -4.9992    2.7171    0.7282 H   0  0  0  0  0  0  0  0  0  0  0  0
   -1.4197    2.4560    0.7052 H   0  0  0  0  0  0  0  0  0  0  0  0
   -2.9102    1.7985    0.1061 H   0  0  0  0  0  0  0  0  0  0  0  0
   -2.3318    1.3012    1.7147 H   0  0  0  0  0  0  0  0  0  0  0  0
   -2.6136    4.7169    3.1476 H   0  0  0  0  0  0  0  0  0  0  0  0
   -1.2719    4.2131    2.1506 H   0  0  0  0  0  0  0  0  0  0  0  0
   -3.1029    6.5488    1.8088 H   0  0  0  0  0  0  0  0  0  0  0  0
  1  2  1  0  0  0  0
  1 27  1  0  0  0  0
  1 28  1  0  0  0  0
  1 29  1  0  0  0  0
  2  3  1  0  0  0  0
  2 30  1  0  0  0  0
  2 31  1  0  0  0  0
  3  4  1  0  0  0  0
  3 32  1  0  0  0  0
  3 33  1  0  0  0  0
  4  5  1  0  0  0  0
  4 34  1  0  0  0  0
  4 35  1  0  0  0  0
  5  6  1  0  0  0  0
  5 36  1  0  0  0  0
  5 37  1  0  0  0  0
  6  7  1  0  0  0  0
  6  8  1  0  0  0  0
  6  9  1  0  0  0  0
  7 38  1  0  0  0  0
  7 39  1  0  0  0  0
  7 40  1  0  0  0  0
  8 41  1  0  0  0  0
  8 42  1  0  0  0  0
  8 43  1  0  0  0  0
  9 14  2  0  0  0  0
  9 10  1  0  0  0  0
 10 11  2  0  0  0  0
 10 44  1  0  0  0  0
 11 12  1  0  0  0  0
 11 26  1  0  0  0  0
 12 25  1  0  0  0  0
 12 13  2  0  0  0  0
 13 14  1  0  0  0  0
 13 15  1  0  0  0  0
 14 45  1  0  0  0  0
 15 16  1  0  0  0  0
 16 17  1  0  0  0  0
 16 18  1  0  0  0  0
 16 19  1  0  0  0  0
 17 46  1  0  0  0  0
 17 47  1  0  0  0  0
 17 48  1  0  0  0  0
 18 49  1  0  0  0  0
 18 50  1  0  0  0  0
 18 51  1  0  0  0  0
 19 20  1  0  0  0  0
 19 25  1  0  0  0  0
 19 52  1  6  0  0  0
 20 21  1  0  0  0  0
 20 53  1  0  0  0  0
 20 54  1  0  0  0  0
 21 22  2  0  0  0  0
 21 55  1  0  0  0  0
 22 23  1  0  0  0  0
 22 24  1  0  0  0  0
 23 56  1  0  0  0  0
 23 57  1  0  0  0  0
 23 58  1  0  0  0  0
 24 59  1  0  0  0  0
 24 60  1  0  0  0  0
 25 24  1  0  0  0  0
 25 61  1  1  0  0  0
M  END
$$$$
CHEMBL2163938
 OpenBabel12022418103D

 66 71  0  0  1  0  0  0  0  0999 V2000
  -10.7176    2.7939    3.3449 C   0  0  0  0  0  0  0  0  0  0  0  0
  -10.6171    4.3067    3.2001 C   0  0  0  0  0  0  0  0  0  0  0  0
   -9.6517    4.7639    2.1017 C   0  0  0  0  0  0  0  0  0  0  0  0
   -9.9086    4.1742    0.6962 C   0  0  1  0  0  0  0  0  0  0  0  0
  -11.2277    4.6761    0.0710 C   0  0  0  0  0  0  0  0  0  0  0  0
  -11.2039    6.0158   -0.4194 O   0  0  0  0  0  0  0  0  0  0  0  0
  -10.0595    6.3246   -1.1045 C   0  0  0  0  0  0  0  0  0  0  0  0
  -10.1575    7.4243   -1.9626 C   0  0  0  0  0  0  0  0  0  0  0  0
   -9.0286    7.8708   -2.6480 C   0  0  0  0  0  0  0  0  0  0  0  0
   -7.7963    7.2336   -2.4535 C   0  0  0  0  0  0  0  0  0  0  0  0
   -7.6970    6.1191   -1.6035 C   0  0  0  0  0  0  0  0  0  0  0  0
   -6.3737    5.4470   -1.3604 C   0  0  0  0  0  0  0  0  0  0  0  0
   -5.3346    5.9591   -1.7881 O   0  0  0  0  0  0  0  0  0  0  0  0
   -6.3284    4.1674   -0.6006 C   0  0  0  0  0  0  0  0  0  0  0  0
   -5.0822    3.3085   -0.3259 C   0  0  0  0  0  0  0  0  0  0  0  0
   -5.1869    2.1677    0.1202 O   0  0  0  0  0  0  0  0  0  0  0  0
   -3.8632    3.8928   -0.5892 N   0  0  0  0  0  0  0  0  0  0  0  0
   -2.4464    3.3731   -0.4586 C   0  0  1  0  0  0  0  0  0  0  0  0
   -1.5522    4.5748   -0.8750 C   0  0  0  0  0  0  0  0  0  0  0  0
   -0.0618    4.2474   -0.8390 C   0  0  2  0  0  0  0  0  0  0  0  0
    0.2295    3.0869   -1.7931 C   0  0  0  0  0  0  0  0  0  0  0  0
   -0.5847    1.8389   -1.3842 C   0  0  1  0  0  0  0  0  0  0  0  0
   -0.2469    0.6942   -2.3507 C   0  0  0  0  0  0  0  0  0  0  0  0
   -0.1676    1.4544    0.0543 C   0  0  0  0  0  0  0  0  0  0  0  0
   -0.4728    2.6097    1.0383 C   0  0  1  0  0  0  0  0  0  0  0  0
    0.0090    2.2291    2.4449 C   0  0  0  0  0  0  0  0  0  0  0  0
    0.3275    3.8547    0.5852 C   0  0  0  0  0  0  0  0  0  0  0  0
   -2.0093    2.9353    0.9812 C   0  0  0  0  0  0  0  0  0  0  0  0
   -2.1132    2.1801   -1.4057 C   0  0  0  0  0  0  0  0  0  0  0  0
   -7.5153    3.7796   -0.0841 C   0  0  0  0  0  0  0  0  0  0  0  0
   -8.7396    4.4557   -0.1687 N   0  0  0  0  0  0  0  0  0  0  0  0
   -8.8434    5.6312   -0.9442 C   0  0  0  0  0  0  0  0  0  0  0  0
  -11.2321    2.5375    4.2765 H   0  0  0  0  0  0  0  0  0  0  0  0
   -9.7268    2.3291    3.3657 H   0  0  0  0  0  0  0  0  0  0  0  0
  -11.2913    2.3535    2.5233 H   0  0  0  0  0  0  0  0  0  0  0  0
  -10.2623    4.7206    4.1509 H   0  0  0  0  0  0  0  0  0  0  0  0
  -11.6171    4.7226    3.0380 H   0  0  0  0  0  0  0  0  0  0  0  0
   -8.6376    4.4937    2.4174 H   0  0  0  0  0  0  0  0  0  0  0  0
   -9.6689    5.8606    2.0534 H   0  0  0  0  0  0  0  0  0  0  0  0
  -10.0016    3.0856    0.7800 H   0  0  0  0  0  0  0  0  0  0  0  0
  -12.0354    4.6443    0.8143 H   0  0  0  0  0  0  0  0  0  0  0  0
  -11.5531    4.0218   -0.7465 H   0  0  0  0  0  0  0  0  0  0  0  0
  -11.1154    7.9271   -2.0994 H   0  0  0  0  0  0  0  0  0  0  0  0
   -9.1129    8.7191   -3.3260 H   0  0  0  0  0  0  0  0  0  0  0  0
   -6.9175    7.6163   -2.9667 H   0  0  0  0  0  0  0  0  0  0  0  0
   -3.9415    4.8154   -1.0177 H   0  0  0  0  0  0  0  0  0  0  0  0
   -1.7517    5.4257   -0.2101 H   0  0  0  0  0  0  0  0  0  0  0  0
   -1.8255    4.9029   -1.8865 H   0  0  0  0  0  0  0  0  0  0  0  0
    0.5166    5.1258   -1.1449 H   0  0  0  0  0  0  0  0  0  0  0  0
    1.3060    2.8646   -1.7749 H   0  0  0  0  0  0  0  0  0  0  0  0
   -0.0103    3.3785   -2.8228 H   0  0  0  0  0  0  0  0  0  0  0  0
    0.8370    0.5371   -2.4137 H   0  0  0  0  0  0  0  0  0  0  0  0
   -0.6028    0.9156   -3.3628 H   0  0  0  0  0  0  0  0  0  0  0  0
   -0.6964   -0.2517   -2.0312 H   0  0  0  0  0  0  0  0  0  0  0  0
    0.9054    1.2210    0.0781 H   0  0  0  0  0  0  0  0  0  0  0  0
   -0.6805    0.5382    0.3721 H   0  0  0  0  0  0  0  0  0  0  0  0
    1.0952    2.0603    2.4518 H   0  0  0  0  0  0  0  0  0  0  0  0
   -0.4632    1.3108    2.8055 H   0  0  0  0  0  0  0  0  0  0  0  0
   -0.1936    3.0290    3.1649 H   0  0  0  0  0  0  0  0  0  0  0  0
    0.1422    4.6922    1.2695 H   0  0  0  0  0  0  0  0  0  0  0  0
    1.4069    3.6532    0.6265 H   0  0  0  0  0  0  0  0  0  0  0  0
   -2.5750    2.0470    1.2934 H   0  0  0  0  0  0  0  0  0  0  0  0
   -2.2449    3.7251    1.7043 H   0  0  0  0  0  0  0  0  0  0  0  0
   -2.4217    2.4180   -2.4308 H   0  0  0  0  0  0  0  0  0  0  0  0
   -2.6865    1.2918   -1.1068 H   0  0  0  0  0  0  0  0  0  0  0  0
   -7.6010    2.8558    0.4896 H   0  0  0  0  0  0  0  0  0  0  0  0
  1  2  1  0  0  0  0
  1 33  1  0  0  0  0
  1 34  1  0  0  0  0
  1 35  1  0  0  0  0
  2  3  1  0  0  0  0
  2 36  1  0  0  0  0
  2 37  1  0  0  0  0
  3 38  1  0  0  0  0
  3 39  1  0  0  0  0
  4  5  1  0  0  0  0
  4 31  1  0  0  0  0
  4  3  1  0  0  0  0
  4 40  1  1  0  0  0
  5  6  1  0  0  0  0
  5 41  1  0  0  0  0
  5 42  1  0  0  0  0
  6  7  1  0  0  0  0
  7 32  2  0  0  0  0
  7  8  1  0  0  0  0
  8  9  2  0  0  0  0
  8 43  1  0  0  0  0
  9 10  1  0  0  0  0
  9 44  1  0  0  0  0
 10 11  2  0  0  0  0
 10 45  1  0  0  0  0
 11 32  1  0  0  0  0
 11 12  1  0  0  0  0
 12 13  2  0  0  0  0
 12 14  1  0  0  0  0
 14 15  1  0  0  0  0
 14 30  2  0  0  0  0
 15 16  2  0  0  0  0
 15 17  1  0  0  0  0
 17 46  1  0  0  0  0
 18 28  1  0  0  0  0
 18 29  1  0  0  0  0
 18 19  1  0  0  0  0
 18 17  1  6  0  0  0
 19 47  1  0  0  0  0
 19 48  1  0  0  0  0
 20 19  1  0  0  0  0
 20 21  1  0  0  0  0
 20 27  1  0  0  0  0
 20 49  1  6  0  0  0
 21 22  1  0  0  0  0
 21 50  1  0  0  0  0
 21 51  1  0  0  0  0
 22 24  1  0  0  0  0
 22 29  1  0  0  0  0
 22 23  1  6  0  0  0
 23 52  1  0  0  0  0
 23 53  1  0  0  0  0
 23 54  1  0  0  0  0
 24 25  1  0  0  0  0
 24 55  1  0  0  0  0
 24 56  1  0  0  0  0
 25 27  1  0  0  0  0
 25 28  1  0  0  0  0
 25 26  1  1  0  0  0
 26 57  1  0  0  0  0
 26 58  1  0  0  0  0
 26 59  1  0  0  0  0
 27 60  1  0  0  0  0
 27 61  1  0  0  0  0
 28 62  1  0  0  0  0
 28 63  1  0  0  0  0
 29 64  1  0  0  0  0
 29 65  1  0  0  0  0
 30 31  1  0  0  0  0
 30 66  1  0  0  0  0
 31 32  1  0  0  0  0
M  END
$$$$
CHEMBL2206833
 OpenBabel12022418103D

 46 49  0  0  0  0  0  0  0  0999 V2000
    1.1679    0.9987    0.5072 C   0  0  0  0  0  0  0  0  0  0  0  0
    2.6973    0.9212    0.5625 C   0  0  0  0  0  0  0  0  0  0  0  0
    3.3724    0.8789   -0.8213 C   0  0  0  0  0  0  0  0  0  0  0  0
    4.8532    0.7494   -0.7994 N   0  0  0  0  0  0  0  0  0  0  0  0
    5.6286   -0.4107   -0.8475 C   0  0  0  0  0  0  0  0  0  0  0  0
    4.9352   -1.7347   -0.8580 C   0  0  0  0  0  0  0  0  0  0  0  0
    7.0433   -0.1262   -0.8746 C   0  0  0  0  0  0  0  0  0  0  0  0
    8.1734   -1.3544   -0.9118 C   0  0  0  0  0  0  0  0  0  0  0  0
    7.7406   -2.5101   -0.9606 O   0  0  0  0  0  0  0  0  0  0  0  0
    9.7910   -1.3138   -0.9015 C   0  0  0  0  0  0  0  0  0  0  0  0
   10.3020   -0.0792   -0.5684 C   0  0  0  0  0  0  0  0  0  0  0  0
   11.6060    0.3057   -0.8563 C   0  0  0  0  0  0  0  0  0  0  0  0
   12.5823   -0.6725   -1.0534 C   0  0  0  0  0  0  0  0  0  0  0  0
   12.2591   -2.0377   -1.0782 C   0  0  0  0  0  0  0  0  0  0  0  0
   13.3401   -2.9804   -1.1083 C   0  0  0  0  0  0  0  0  0  0  0  0
   13.1251   -4.3613   -1.1816 C   0  0  0  0  0  0  0  0  0  0  0  0
   11.8209   -4.7957   -1.2180 C   0  0  0  0  0  0  0  0  0  0  0  0
   10.7315   -3.8486   -1.1645 C   0  0  0  0  0  0  0  0  0  0  0  0
   10.8493   -2.4150   -1.0739 C   0  0  0  0  0  0  0  0  0  0  0  0
   14.3768    0.0236   -1.0327 Br  0  0  0  0  0  0  0  0  0  0  0  0
    7.0220    1.3792   -0.8753 C   0  0  0  0  0  0  0  0  0  0  0  0
    7.9792    2.4287   -0.9049 C   0  0  0  0  0  0  0  0  0  0  0  0
    7.6085    3.8023   -0.8754 C   0  0  0  0  0  0  0  0  0  0  0  0
    6.2782    4.1740   -0.8457 C   0  0  0  0  0  0  0  0  0  0  0  0
    5.3219    3.2175   -0.8149 C   0  0  0  0  0  0  0  0  0  0  0  0
    5.6870    1.8453   -0.8174 C   0  0  0  0  0  0  0  0  0  0  0  0
    0.7511    0.9745    1.5208 H   0  0  0  0  0  0  0  0  0  0  0  0
    0.7374    0.1528   -0.0417 H   0  0  0  0  0  0  0  0  0  0  0  0
    0.8181    1.9250    0.0374 H   0  0  0  0  0  0  0  0  0  0  0  0
    2.9759    0.0311    1.1336 H   0  0  0  0  0  0  0  0  0  0  0  0
    3.0557    1.7901    1.1292 H   0  0  0  0  0  0  0  0  0  0  0  0
    3.1193    1.7989   -1.3694 H   0  0  0  0  0  0  0  0  0  0  0  0
    2.9616    0.0792   -1.4449 H   0  0  0  0  0  0  0  0  0  0  0  0
    3.8435   -1.6573   -0.8594 H   0  0  0  0  0  0  0  0  0  0  0  0
    5.2066   -2.2904    0.0400 H   0  0  0  0  0  0  0  0  0  0  0  0
    5.2150   -2.2941   -1.7525 H   0  0  0  0  0  0  0  0  0  0  0  0
    9.8183    0.4452    0.2494 H   0  0  0  0  0  0  0  0  0  0  0  0
   11.8914    1.3498   -0.7678 H   0  0  0  0  0  0  0  0  0  0  0  0
   14.3623   -2.6684   -1.0786 H   0  0  0  0  0  0  0  0  0  0  0  0
   13.9895   -5.0587   -1.1921 H   0  0  0  0  0  0  0  0  0  0  0  0
   11.6576   -5.8552   -1.2637 H   0  0  0  0  0  0  0  0  0  0  0  0
    9.7331   -4.3079   -1.1606 H   0  0  0  0  0  0  0  0  0  0  0  0
    9.0371    2.2136   -0.9591 H   0  0  0  0  0  0  0  0  0  0  0  0
    8.3733    4.5785   -0.8816 H   0  0  0  0  0  0  0  0  0  0  0  0
    6.0085    5.2502   -0.8286 H   0  0  0  0  0  0  0  0  0  0  0  0
    4.2580    3.5182   -0.7936 H   0  0  0  0  0  0  0  0  0  0  0  0
  1  2  1  0  0  0  0
  1 27  1  0  0  0  0
  1 28  1  0  0  0  0
  1 29  1  0  0  0  0
  2  3  1  0  0  0  0
  2 30  1  0  0  0  0
  2 31  1  0  0  0  0
  3  4  1  0  0  0  0
  3 32  1  0  0  0  0
  3 33  1  0  0  0  0
  4 26  1  0  0  0  0
  4  5  1  0  0  0  0
  5  6  1  0  0  0  0
  5  7  2  0  0  0  0
  6 34  1  0  0  0  0
  6 35  1  0  0  0  0
  6 36  1  0  0  0  0
  7  8  1  0  0  0  0
  7 21  1  0  0  0  0
  8  9  2  0  0  0  0
  8 10  1  0  0  0  0
 10 19  2  0  0  0  0
 10 11  1  0  0  0  0
 11 12  2  0  0  0  0
 11 37  1  0  0  0  0
 12 13  1  0  0  0  0
 12 38  1  0  0  0  0
 13 14  2  0  0  0  0
 13 20  1  0  0  0  0
 14 19  1  0  0  0  0
 14 15  1  0  0  0  0
 15 16  2  0  0  0  0
 15 39  1  0  0  0  0
 16 17  1  0  0  0  0
 16 40  1  0  0  0  0
 17 18  2  0  0  0  0
 17 41  1  0  0  0  0
 18 19  1  0  0  0  0
 18 42  1  0  0  0  0
 21 26  2  0  0  0  0
 21 22  1  0  0  0  0
 22 23  2  0  0  0  0
 22 43  1  0  0  0  0
 23 24  1  0  0  0  0
 23 44  1  0  0  0  0
 24 25  2  0  0  0  0
 24 45  1  0  0  0  0
 25 26  1  0  0  0  0
 25 46  1  0  0  0  0
M  END
$$$$
CHEMBL575395
 OpenBabel12022418103D

 53 56  0  0  0  0  0  0  0  0999 V2000
   -0.1337   -0.9669    0.0026 N   0  0  0  0  0  0  0  0  0  0  0  0
   -0.9820    0.0865   -0.1829 N   0  0  0  0  0  0  0  0  0  0  0  0
   -0.2103    1.1957   -0.1437 C   0  0  0  0  0  0  0  0  0  0  0  0
    1.1740    0.8246   -0.1339 C   0  0  0  0  0  0  0  0  0  0  0  0
    1.1876   -0.5465    0.0169 C   0  0  0  0  0  0  0  0  0  0  0  0
    2.3293   -1.3769    0.0467 N   0  0  0  0  0  0  0  0  0  0  0  0
    2.5625   -2.5611   -0.6787 C   0  0  0  0  0  0  0  0  0  0  0  0
    3.8579   -2.9751   -0.4467 C   0  0  0  0  0  0  0  0  0  0  0  0
    4.4578   -2.0625    0.4290 C   0  0  0  0  0  0  0  0  0  0  0  0
    3.5094   -1.1228    0.7667 C   0  0  0  0  0  0  0  0  0  0  0  0
    3.6977   -0.0385    1.7768 C   0  0  0  0  0  0  0  0  0  0  0  0
    1.6232   -3.2188   -1.6303 C   0  0  0  0  0  0  0  0  0  0  0  0
    2.3359    1.7413   -0.3589 C   0  0  0  0  0  0  0  0  0  0  0  0
   -0.7660    2.5753   -0.1459 C   0  0  0  0  0  0  0  0  0  0  0  0
   -0.0546    3.5735   -0.0509 O   0  0  0  0  0  0  0  0  0  0  0  0
   -2.1492    2.6743   -0.2655 N   0  0  0  0  0  0  0  0  0  0  0  0
   -2.8498    3.9469   -0.2779 C   0  0  0  0  0  0  0  0  0  0  0  0
   -4.2057    3.8993   -0.9832 C   0  0  0  0  0  0  0  0  0  0  0  0
   -4.8715    5.2110   -0.5751 C   0  0  0  0  0  0  0  0  0  0  0  0
   -4.3234    5.5314    0.8163 C   0  0  0  0  0  0  0  0  0  0  0  0
   -3.2552    4.4695    1.1041 C   0  0  0  0  0  0  0  0  0  0  0  0
   -0.6929   -2.2649    0.2385 C   0  0  0  0  0  0  0  0  0  0  0  0
   -0.1002   -3.1607    1.1436 C   0  0  0  0  0  0  0  0  0  0  0  0
   -0.6554   -4.4329    1.3414 C   0  0  0  0  0  0  0  0  0  0  0  0
   -1.7798   -4.8335    0.6088 C   0  0  0  0  0  0  0  0  0  0  0  0
   -2.3411   -3.9591   -0.3262 C   0  0  0  0  0  0  0  0  0  0  0  0
   -1.8180   -2.6716   -0.4945 C   0  0  0  0  0  0  0  0  0  0  0  0
   -2.5256   -6.3778    0.8199 Cl  0  0  0  0  0  0  0  0  0  0  0  0
    0.0952   -5.4642    2.5089 Cl  0  0  0  0  0  0  0  0  0  0  0  0
    4.3278   -3.8433   -0.8931 H   0  0  0  0  0  0  0  0  0  0  0  0
    5.4715   -2.0953    0.8056 H   0  0  0  0  0  0  0  0  0  0  0  0
    2.7666    0.4510    2.0705 H   0  0  0  0  0  0  0  0  0  0  0  0
    4.3965    0.7096    1.3846 H   0  0  0  0  0  0  0  0  0  0  0  0
    4.1355   -0.4412    2.6924 H   0  0  0  0  0  0  0  0  0  0  0  0
    0.7371   -2.6328   -1.8668 H   0  0  0  0  0  0  0  0  0  0  0  0
    1.3158   -4.1944   -1.2360 H   0  0  0  0  0  0  0  0  0  0  0  0
    2.1240   -3.3995   -2.5899 H   0  0  0  0  0  0  0  0  0  0  0  0
    2.0714    2.6416   -0.9115 H   0  0  0  0  0  0  0  0  0  0  0  0
    3.1160    1.2349   -0.9470 H   0  0  0  0  0  0  0  0  0  0  0  0
    2.7762    2.0715    0.5906 H   0  0  0  0  0  0  0  0  0  0  0  0
   -2.6554    1.7910   -0.2673 H   0  0  0  0  0  0  0  0  0  0  0  0
   -2.2111    4.6947   -0.7668 H   0  0  0  0  0  0  0  0  0  0  0  0
   -4.8030    3.0540   -0.6211 H   0  0  0  0  0  0  0  0  0  0  0  0
   -4.1152    3.8044   -2.0699 H   0  0  0  0  0  0  0  0  0  0  0  0
   -5.9644    5.1384   -0.5810 H   0  0  0  0  0  0  0  0  0  0  0  0
   -4.5951    6.0115   -1.2726 H   0  0  0  0  0  0  0  0  0  0  0  0
   -5.1148    5.5160    1.5740 H   0  0  0  0  0  0  0  0  0  0  0  0
   -3.8890    6.5383    0.8233 H   0  0  0  0  0  0  0  0  0  0  0  0
   -2.4141    4.8813    1.6698 H   0  0  0  0  0  0  0  0  0  0  0  0
   -3.6980    3.6662    1.7062 H   0  0  0  0  0  0  0  0  0  0  0  0
    0.7824   -2.8837    1.7161 H   0  0  0  0  0  0  0  0  0  0  0  0
   -3.1879   -4.2787   -0.9305 H   0  0  0  0  0  0  0  0  0  0  0  0
   -2.2550   -2.0187   -1.2490 H   0  0  0  0  0  0  0  0  0  0  0  0
  1  5  1  0  0  0  0
  1  2  1  0  0  0  0
  1 22  1  0  0  0  0
  2  3  2  0  0  0  0
  3  4  1  0  0  0  0
  3 14  1  0  0  0  0
  4  5  2  0  0  0  0
  4 13  1  0  0  0  0
  5  6  1  0  0  0  0
  6 10  1  0  0  0  0
  6  7  1  0  0  0  0
  7  8  2  0  0  0  0
  7 12  1  0  0  0  0
  8  9  1  0  0  0  0
  8 30  1  0  0  0  0
  9 10  2  0  0  0  0
  9 31  1  0  0  0  0
 10 11  1  0  0  0  0
 11 32  1  0  0  0  0
 11 33  1  0  0  0  0
 11 34  1  0  0  0  0
 12 35  1  0  0  0  0
 12 36  1  0  0  0  0
 12 37  1  0  0  0  0
 13 38  1  0  0  0  0
 13 39  1  0  0  0  0
 13 40  1  0  0  0  0
 14 15  2  0  0  0  0
 14 16  1  0  0  0  0
 16 17  1  0  0  0  0
 16 41  1  0  0  0  0
 17 21  1  0  0  0  0
 17 18  1  0  0  0  0
 17 42  1  0  0  0  0
 18 19  1  0  0  0  0
 18 43  1  0  0  0  0
 18 44  1  0  0  0  0
 19 20  1  0  0  0  0
 19 45  1  0  0  0  0
 19 46  1  0  0  0  0
 20 21  1  0  0  0  0
 20 47  1  0  0  0  0
 20 48  1  0  0  0  0
 21 49  1  0  0  0  0
 21 50  1  0  0  0  0
 22 27  2  0  0  0  0
 22 23  1  0  0  0  0
 23 24  2  0  0  0  0
 23 51  1  0  0  0  0
 24 25  1  0  0  0  0
 24 29  1  0  0  0  0
 25 26  2  0  0  0  0
 25 28  1  0  0  0  0
 26 27  1  0  0  0  0
 26 52  1  0  0  0  0
 27 53  1  0  0  0  0
M  END
$$$$
CHEMBL516057
 OpenBabel12022418103D

 61 64  0  0  1  0  0  0  0  0999 V2000
   -8.6133   -5.5586    1.9284 C   0  0  0  0  0  0  0  0  0  0  0  0
   -8.3039   -4.1229    1.6127 C   0  0  0  0  0  0  0  0  0  0  0  0
   -7.1199   -3.9707    0.8509 C   0  0  0  0  0  0  0  0  0  0  0  0
   -6.6253   -2.7144    0.5230 C   0  0  0  0  0  0  0  0  0  0  0  0
   -7.3023   -1.5685    0.9230 C   0  0  0  0  0  0  0  0  0  0  0  0
   -8.4980   -1.7033    1.6422 C   0  0  0  0  0  0  0  0  0  0  0  0
   -9.0204   -2.9696    2.0054 C   0  0  0  0  0  0  0  0  0  0  0  0
  -10.3589   -2.9145    3.2534 S   0  0  0  0  0  0  0  0  0  0  0  0
  -10.2814   -4.1411    4.0166 O   0  0  0  0  0  0  0  0  0  0  0  0
  -10.1866   -1.6428    3.9205 O   0  0  0  0  0  0  0  0  0  0  0  0
  -11.8599   -2.8511    2.5080 N   0  0  0  0  0  0  0  0  0  0  0  0
  -12.5459   -4.0775    2.0554 C   0  0  0  0  0  0  0  0  0  0  0  0
  -12.1938   -4.3316    0.5971 C   0  0  0  0  0  0  0  0  0  0  0  0
  -12.5425   -3.2118   -0.2355 O   0  0  0  0  0  0  0  0  0  0  0  0
  -11.9830   -1.9657    0.2185 C   0  0  0  0  0  0  0  0  0  0  0  0
  -12.2876   -1.6929    1.6959 C   0  0  0  0  0  0  0  0  0  0  0  0
   -6.8212   -0.2872    0.6408 N   0  0  0  0  0  0  0  0  0  0  0  0
   -5.5582    0.0134    0.1642 C   0  0  0  0  0  0  0  0  0  0  0  0
   -4.5859   -0.7403    0.1484 O   0  0  0  0  0  0  0  0  0  0  0  0
   -5.4829    1.4527   -0.3066 C   0  0  1  0  0  0  0  0  0  0  0  0
   -5.1126    2.4632    0.8335 C   0  0  0  0  0  0  0  0  0  0  0  0
   -6.3502    3.2602    1.2729 C   0  0  0  0  0  0  0  0  0  0  0  0
   -4.5221    1.8227    2.1140 C   0  0  0  0  0  0  0  0  0  0  0  0
   -4.0085    3.3159    0.1290 C   0  0  2  0  0  0  0  0  0  0  0  0
   -4.5782    4.1414   -1.0412 C   0  0  0  0  0  0  0  0  0  0  0  0
   -4.8947    3.0798   -2.1025 C   0  0  0  0  0  0  0  0  0  0  0  0
   -4.4361    1.7628   -1.4246 C   0  0  2  0  0  0  0  0  0  0  0  0
   -4.1740    0.6689   -2.4453 C   0  0  0  0  0  0  0  0  0  0  0  0
   -3.2134    2.2505   -0.6444 C   0  0  0  0  0  0  0  0  0  0  0  0
   -9.4831   -5.7204    2.5506 H   0  0  0  0  0  0  0  0  0  0  0  0
   -7.7434   -6.0104    2.4262 H   0  0  0  0  0  0  0  0  0  0  0  0
   -8.7721   -6.1004    0.9868 H   0  0  0  0  0  0  0  0  0  0  0  0
   -6.5454   -4.8371    0.5415 H   0  0  0  0  0  0  0  0  0  0  0  0
   -5.7034   -2.6739   -0.0488 H   0  0  0  0  0  0  0  0  0  0  0  0
   -8.9929   -0.7997    1.9973 H   0  0  0  0  0  0  0  0  0  0  0  0
  -13.6305   -3.8950    2.1386 H   0  0  0  0  0  0  0  0  0  0  0  0
  -12.3330   -4.9309    2.7026 H   0  0  0  0  0  0  0  0  0  0  0  0
  -12.7551   -5.1955    0.2310 H   0  0  0  0  0  0  0  0  0  0  0  0
  -11.1261   -4.5519    0.4852 H   0  0  0  0  0  0  0  0  0  0  0  0
  -12.4239   -1.1743   -0.3973 H   0  0  0  0  0  0  0  0  0  0  0  0
  -10.9061   -1.9658    0.0311 H   0  0  0  0  0  0  0  0  0  0  0  0
  -11.8520   -0.7539    2.0438 H   0  0  0  0  0  0  0  0  0  0  0  0
  -13.3772   -1.5885    1.8157 H   0  0  0  0  0  0  0  0  0  0  0  0
   -7.4281    0.4866    0.8709 H   0  0  0  0  0  0  0  0  0  0  0  0
   -6.4735    1.6851   -0.7154 H   0  0  0  0  0  0  0  0  0  0  0  0
   -7.0464    2.6168    1.8242 H   0  0  0  0  0  0  0  0  0  0  0  0
   -6.9094    3.6679    0.4261 H   0  0  0  0  0  0  0  0  0  0  0  0
   -6.0724    4.0904    1.9304 H   0  0  0  0  0  0  0  0  0  0  0  0
   -5.2543    1.1828    2.6185 H   0  0  0  0  0  0  0  0  0  0  0  0
   -4.2289    2.5997    2.8299 H   0  0  0  0  0  0  0  0  0  0  0  0
   -3.6337    1.2146    1.9212 H   0  0  0  0  0  0  0  0  0  0  0  0
   -3.4093    3.9166    0.8182 H   0  0  0  0  0  0  0  0  0  0  0  0
   -3.8153    4.8274   -1.4280 H   0  0  0  0  0  0  0  0  0  0  0  0
   -5.4510    4.7432   -0.7784 H   0  0  0  0  0  0  0  0  0  0  0  0
   -4.3309    3.2845   -3.0199 H   0  0  0  0  0  0  0  0  0  0  0  0
   -5.9581    3.0656   -2.3648 H   0  0  0  0  0  0  0  0  0  0  0  0
   -5.1099    0.3243   -2.8975 H   0  0  0  0  0  0  0  0  0  0  0  0
   -3.6676   -0.1965   -2.0076 H   0  0  0  0  0  0  0  0  0  0  0  0
   -3.5258    1.0281   -3.2521 H   0  0  0  0  0  0  0  0  0  0  0  0
   -2.7558    1.4797   -0.0195 H   0  0  0  0  0  0  0  0  0  0  0  0
   -2.4364    2.6831   -1.2861 H   0  0  0  0  0  0  0  0  0  0  0  0
  1  2  1  0  0  0  0
  1 30  1  0  0  0  0
  1 31  1  0  0  0  0
  1 32  1  0  0  0  0
  2  7  2  0  0  0  0
  2  3  1  0  0  0  0
  3  4  2  0  0  0  0
  3 33  1  0  0  0  0
  4  5  1  0  0  0  0
  4 34  1  0  0  0  0
  5  6  2  0  0  0  0
  5 17  1  0  0  0  0
  6  7  1  0  0  0  0
  6 35  1  0  0  0  0
  7  8  1  0  0  0  0
  8  9  2  0  0  0  0
  8 10  2  0  0  0  0
  8 11  1  0  0  0  0
 11 16  1  0  0  0  0
 11 12  1  0  0  0  0
 12 13  1  0  0  0  0
 12 36  1  0  0  0  0
 12 37  1  0  0  0  0
 13 14  1  0  0  0  0
 13 38  1  0  0  0  0
 13 39  1  0  0  0  0
 14 15  1  0  0  0  0
 15 16  1  0  0  0  0
 15 40  1  0  0  0  0
 15 41  1  0  0  0  0
 16 42  1  0  0  0  0
 16 43  1  0  0  0  0
 17 18  1  0  0  0  0
 17 44  1  0  0  0  0
 18 19  2  0  0  0  0
 20 21  1  0  0  0  0
 20 27  1  0  0  0  0
 20 18  1  0  0  0  0
 20 45  1  6  0  0  0
 21 22  1  0  0  0  0
 21 23  1  0  0  0  0
 21 24  1  0  0  0  0
 22 46  1  0  0  0  0
 22 47  1  0  0  0  0
 22 48  1  0  0  0  0
 23 49  1  0  0  0  0
 23 50  1  0  0  0  0
 23 51  1  0  0  0  0
 24 25  1  0  0  0  0
 24 29  1  0  0  0  0
 24 52  1  1  0  0  0
 25 26  1  0  0  0  0
 25 53  1  0  0  0  0
 25 54  1  0  0  0  0
 26 27  1  0  0  0  0
 26 55  1  0  0  0  0
 26 56  1  0  0  0  0
 27 28  1  6  0  0  0
 27 29  1  0  0  0  0
 28 57  1  0  0  0  0
 28 58  1  0  0  0  0
 28 59  1  0  0  0  0
 29 60  1  0  0  0  0
 29 61  1  0  0  0  0
M  END
$$$$
CHEMBL3093378
 OpenBabel12022418103D

 53 57  0  0  0  0  0  0  0  0999 V2000
    2.9251   -1.4426   -0.2814 C   0  0  0  0  0  0  0  0  0  0  0  0
    4.0170   -1.7528   -0.7581 O   0  0  0  0  0  0  0  0  0  0  0  0
    2.0000   -2.5272    0.2230 C   0  0  0  0  0  0  0  0  0  0  0  0
    2.8700   -3.6570    0.7770 C   0  0  0  0  0  0  0  0  0  0  0  0
    2.0822   -4.8045    1.2576 C   0  0  0  0  0  0  0  0  0  0  0  0
    2.6593   -6.0335    1.1480 O   0  0  0  0  0  0  0  0  0  0  0  0
    1.7422   -6.9451    1.6639 N   0  0  0  0  0  0  0  0  0  0  0  0
    0.6963   -6.1784    2.0194 C   0  0  0  0  0  0  0  0  0  0  0  0
   -0.5198   -6.7069    2.6219 C   0  0  0  0  0  0  0  0  0  0  0  0
   -1.7900   -6.1336    2.4257 C   0  0  0  0  0  0  0  0  0  0  0  0
   -2.9144   -6.6768    3.0563 C   0  0  0  0  0  0  0  0  0  0  0  0
   -2.7775   -7.7912    3.8715 C   0  0  0  0  0  0  0  0  0  0  0  0
   -1.5376   -8.3835    4.0735 C   0  0  0  0  0  0  0  0  0  0  0  0
   -0.4109   -7.8411    3.4480 C   0  0  0  0  0  0  0  0  0  0  0  0
   -3.8592   -8.3053    4.4684 F   0  0  0  0  0  0  0  0  0  0  0  0
   -2.1269   -4.6503    1.2776 Br  0  0  0  0  0  0  0  0  0  0  0  0
    0.8982   -4.8340    1.8164 N   0  0  0  0  0  0  0  0  0  0  0  0
    2.4336   -0.1550   -0.1611 N   0  0  0  0  0  0  0  0  0  0  0  0
    3.0872    1.0126   -0.6295 C   0  0  0  0  0  0  0  0  0  0  0  0
    2.6140    2.2605   -0.2177 C   0  0  0  0  0  0  0  0  0  0  0  0
    3.2054    3.4577   -0.6641 C   0  0  0  0  0  0  0  0  0  0  0  0
    4.2782    3.3753   -1.5697 C   0  0  0  0  0  0  0  0  0  0  0  0
    4.7728    2.1433   -1.9923 C   0  0  0  0  0  0  0  0  0  0  0  0
    5.8483    2.3804   -2.8988 C   0  0  0  0  0  0  0  0  0  0  0  0
    5.9832    3.7609   -3.0333 C   0  0  0  0  0  0  0  0  0  0  0  0
    6.9486    4.3270   -3.8839 C   0  0  0  0  0  0  0  0  0  0  0  0
    7.7876    3.4657   -4.5985 C   0  0  0  0  0  0  0  0  0  0  0  0
    7.6757    2.0859   -4.4702 C   0  0  0  0  0  0  0  0  0  0  0  0
    6.7121    1.5312   -3.6240 C   0  0  0  0  0  0  0  0  0  0  0  0
    5.0350    4.3416   -2.2083 N   0  0  0  0  0  0  0  0  0  0  0  0
    4.8852    5.7743   -2.0345 C   0  0  0  0  0  0  0  0  0  0  0  0
    3.9581    6.4013   -3.0563 C   0  0  0  0  0  0  0  0  0  0  0  0
    3.9387    7.7484   -2.8509 F   0  0  0  0  0  0  0  0  0  0  0  0
    4.1738    0.9626   -1.5082 C   0  0  0  0  0  0  0  0  0  0  0  0
    1.4007   -2.8782   -0.6267 H   0  0  0  0  0  0  0  0  0  0  0  0
    1.3131   -2.1418    0.9841 H   0  0  0  0  0  0  0  0  0  0  0  0
    3.4777   -3.2751    1.6062 H   0  0  0  0  0  0  0  0  0  0  0  0
    3.5690   -4.0104    0.0087 H   0  0  0  0  0  0  0  0  0  0  0  0
   -3.9025   -6.2490    2.9160 H   0  0  0  0  0  0  0  0  0  0  0  0
   -1.4565   -9.2571    4.7117 H   0  0  0  0  0  0  0  0  0  0  0  0
    0.5553   -8.3159    3.6203 H   0  0  0  0  0  0  0  0  0  0  0  0
    1.5794   -0.0176    0.3653 H   0  0  0  0  0  0  0  0  0  0  0  0
    1.7807    2.3309    0.4781 H   0  0  0  0  0  0  0  0  0  0  0  0
    2.8287    4.4137   -0.3140 H   0  0  0  0  0  0  0  0  0  0  0  0
    7.0530    5.4010   -3.9945 H   0  0  0  0  0  0  0  0  0  0  0  0
    8.5412    3.8828   -5.2625 H   0  0  0  0  0  0  0  0  0  0  0  0
    8.3388    1.4316   -5.0305 H   0  0  0  0  0  0  0  0  0  0  0  0
    6.6290    0.4519   -3.5264 H   0  0  0  0  0  0  0  0  0  0  0  0
    5.8786    6.2325   -2.0947 H   0  0  0  0  0  0  0  0  0  0  0  0
    4.5296    5.9709   -1.0183 H   0  0  0  0  0  0  0  0  0  0  0  0
    2.9328    6.0330   -2.9580 H   0  0  0  0  0  0  0  0  0  0  0  0
    4.2936    6.2262   -4.0831 H   0  0  0  0  0  0  0  0  0  0  0  0
    4.5740    0.0270   -1.8773 H   0  0  0  0  0  0  0  0  0  0  0  0
  1  2  2  0  0  0  0
  1  3  1  0  0  0  0
  1 18  1  0  0  0  0
  3  4  1  0  0  0  0
  3 35  1  0  0  0  0
  3 36  1  0  0  0  0
  4  5  1  0  0  0  0
  4 37  1  0  0  0  0
  4 38  1  0  0  0  0
  5 17  2  0  0  0  0
  5  6  1  0  0  0  0
  6  7  1  0  0  0  0
  7  8  2  0  0  0  0
  8  9  1  0  0  0  0
  8 17  1  0  0  0  0
  9 14  2  0  0  0  0
  9 10  1  0  0  0  0
 10 11  2  0  0  0  0
 10 16  1  0  0  0  0
 11 12  1  0  0  0  0
 11 39  1  0  0  0  0
 12 13  2  0  0  0  0
 12 15  1  0  0  0  0
 13 14  1  0  0  0  0
 13 40  1  0  0  0  0
 14 41  1  0  0  0  0
 18 19  1  0  0  0  0
 18 42  1  0  0  0  0
 19 34  2  0  0  0  0
 19 20  1  0  0  0  0
 20 21  2  0  0  0  0
 20 43  1  0  0  0  0
 21 22  1  0  0  0  0
 21 44  1  0  0  0  0
 22 30  1  0  0  0  0
 22 23  2  0  0  0  0
 23 24  1  0  0  0  0
 23 34  1  0  0  0  0
 24 29  2  0  0  0  0
 24 25  1  0  0  0  0
 25 26  2  0  0  0  0
 25 30  1  0  0  0  0
 26 27  1  0  0  0  0
 26 45  1  0  0  0  0
 27 28  2  0  0  0  0
 27 46  1  0  0  0  0
 28 29  1  0  0  0  0
 28 47  1  0  0  0  0
 29 48  1  0  0  0  0
 30 31  1  0  0  0  0
 31 32  1  0  0  0  0
 31 49  1  0  0  0  0
 31 50  1  0  0  0  0
 32 33  1  0  0  0  0
 32 51  1  0  0  0  0
 32 52  1  0  0  0  0
 34 53  1  0  0  0  0
M  END
$$$$
CHEMBL75326
 OpenBabel12022418103D

 50 53  0  0  0  0  0  0  0  0999 V2000
    0.9588   -0.1590   -0.0197 C   0  0  0  0  0  0  0  0  0  0  0  0
    2.4552   -0.0536   -0.0586 C   0  0  0  0  0  0  0  0  0  0  0  0
    3.2141    1.1082   -0.0268 C   0  0  0  0  0  0  0  0  0  0  0  0
    2.7288    2.5219   -0.0859 C   0  0  0  0  0  0  0  0  0  0  0  0
    1.9198    2.9851    1.1255 C   0  0  0  0  0  0  0  0  0  0  0  0
    1.5172    4.3937    1.0972 N   0  0  0  0  0  0  0  0  0  0  0  0
    2.6367    5.3348    1.2699 C   0  0  0  0  0  0  0  0  0  0  0  0
    2.0601    6.7495    1.4337 C   0  0  0  0  0  0  0  0  0  0  0  0
    1.2919    7.1343    0.2813 O   0  0  0  0  0  0  0  0  0  0  0  0
    0.2327    6.1950    0.0397 C   0  0  0  0  0  0  0  0  0  0  0  0
    0.7853    4.7708   -0.1291 C   0  0  0  0  0  0  0  0  0  0  0  0
    4.5839    0.7345   -0.0187 C   0  0  0  0  0  0  0  0  0  0  0  0
    5.7825    1.4851    0.0225 C   0  0  0  0  0  0  0  0  0  0  0  0
    7.0167    0.8483   -0.0464 C   0  0  0  0  0  0  0  0  0  0  0  0
    7.0737   -0.5295   -0.2061 C   0  0  0  0  0  0  0  0  0  0  0  0
    5.8989   -1.2927   -0.2839 C   0  0  0  0  0  0  0  0  0  0  0  0
    4.6459   -0.6541   -0.1342 C   0  0  0  0  0  0  0  0  0  0  0  0
    3.3302   -1.1492   -0.1026 N   0  0  0  0  0  0  0  0  0  0  0  0
    2.9390   -2.5217   -0.0938 C   0  0  0  0  0  0  0  0  0  0  0  0
    1.8176   -2.7922   -0.4992 O   0  0  0  0  0  0  0  0  0  0  0  0
    3.7518   -3.6354    0.4655 C   0  0  0  0  0  0  0  0  0  0  0  0
    4.5259   -3.3727    1.6117 C   0  0  0  0  0  0  0  0  0  0  0  0
    5.2831   -4.3782    2.2049 C   0  0  0  0  0  0  0  0  0  0  0  0
    5.2142   -5.6717    1.7028 C   0  0  0  0  0  0  0  0  0  0  0  0
    4.4130   -5.9603    0.5929 C   0  0  0  0  0  0  0  0  0  0  0  0
    3.6876   -4.9439   -0.0507 C   0  0  0  0  0  0  0  0  0  0  0  0
    2.7870   -5.3234   -1.4868 Cl  0  0  0  0  0  0  0  0  0  0  0  0
    4.3659   -7.6127    0.0757 Cl  0  0  0  0  0  0  0  0  0  0  0  0
    0.5567   -1.1597    0.1175 H   0  0  0  0  0  0  0  0  0  0  0  0
    0.5295    0.2566   -0.9377 H   0  0  0  0  0  0  0  0  0  0  0  0
    0.5642    0.4055    0.8283 H   0  0  0  0  0  0  0  0  0  0  0  0
    2.1421    2.6274   -1.0049 H   0  0  0  0  0  0  0  0  0  0  0  0
    3.5923    3.1852   -0.1998 H   0  0  0  0  0  0  0  0  0  0  0  0
    2.4669    2.7824    2.0562 H   0  0  0  0  0  0  0  0  0  0  0  0
    0.9995    2.4004    1.2111 H   0  0  0  0  0  0  0  0  0  0  0  0
    3.3028    5.3170    0.3994 H   0  0  0  0  0  0  0  0  0  0  0  0
    3.2276    5.0768    2.1562 H   0  0  0  0  0  0  0  0  0  0  0  0
    2.8743    7.4711    1.5464 H   0  0  0  0  0  0  0  0  0  0  0  0
    1.4282    6.8120    2.3279 H   0  0  0  0  0  0  0  0  0  0  0  0
   -0.2814    6.5000   -0.8764 H   0  0  0  0  0  0  0  0  0  0  0  0
   -0.4891    6.2363    0.8625 H   0  0  0  0  0  0  0  0  0  0  0  0
   -0.0386    4.0773   -0.3193 H   0  0  0  0  0  0  0  0  0  0  0  0
    1.4527    4.7571   -1.0001 H   0  0  0  0  0  0  0  0  0  0  0  0
    5.7499    2.5683    0.1050 H   0  0  0  0  0  0  0  0  0  0  0  0
    7.9313    1.4328   -0.0043 H   0  0  0  0  0  0  0  0  0  0  0  0
    8.0387   -1.0204   -0.2800 H   0  0  0  0  0  0  0  0  0  0  0  0
    5.9891   -2.3562   -0.4557 H   0  0  0  0  0  0  0  0  0  0  0  0
    4.5677   -2.3748    2.0490 H   0  0  0  0  0  0  0  0  0  0  0  0
    5.9127   -4.1519    3.0626 H   0  0  0  0  0  0  0  0  0  0  0  0
    5.7846   -6.4623    2.1882 H   0  0  0  0  0  0  0  0  0  0  0  0
  1  2  1  0  0  0  0
  1 29  1  0  0  0  0
  1 30  1  0  0  0  0
  1 31  1  0  0  0  0
  2 18  1  0  0  0  0
  2  3  2  0  0  0  0
  3  4  1  0  0  0  0
  3 12  1  0  0  0  0
  4  5  1  0  0  0  0
  4 32  1  0  0  0  0
  4 33  1  0  0  0  0
  5  6  1  0  0  0  0
  5 34  1  0  0  0  0
  5 35  1  0  0  0  0
  6 11  1  0  0  0  0
  6  7  1  0  0  0  0
  7  8  1  0  0  0  0
  7 36  1  0  0  0  0
  7 37  1  0  0  0  0
  8  9  1  0  0  0  0
  8 38  1  0  0  0  0
  8 39  1  0  0  0  0
  9 10  1  0  0  0  0
 10 11  1  0  0  0  0
 10 40  1  0  0  0  0
 10 41  1  0  0  0  0
 11 42  1  0  0  0  0
 11 43  1  0  0  0  0
 12 17  2  0  0  0  0
 12 13  1  0  0  0  0
 13 14  2  0  0  0  0
 13 44  1  0  0  0  0
 14 15  1  0  0  0  0
 14 45  1  0  0  0  0
 15 16  2  0  0  0  0
 15 46  1  0  0  0  0
 16 17  1  0  0  0  0
 16 47  1  0  0  0  0
 17 18  1  0  0  0  0
 18 19  1  0  0  0  0
 19 20  2  0  0  0  0
 19 21  1  0  0  0  0
 21 26  2  0  0  0  0
 21 22  1  0  0  0  0
 22 23  2  0  0  0  0
 22 48  1  0  0  0  0
 23 24  1  0  0  0  0
 23 49  1  0  0  0  0
 24 25  2  0  0  0  0
 24 50  1  0  0  0  0
 25 26  1  0  0  0  0
 25 28  1  0  0  0  0
 26 27  1  0  0  0  0
M  END
$$$$
CHEMBL3354406
 OpenBabel12022418103D

 43 47  0  0  0  0  0  0  0  0999 V2000
    1.3206   -0.5239    0.2600 C   0  0  0  0  0  0  0  0  0  0  0  0
    1.7108   -1.0593   -0.9639 C   0  0  0  0  0  0  0  0  0  0  0  0
    1.3175   -0.4120   -2.1375 C   0  0  0  0  0  0  0  0  0  0  0  0
    0.5412    0.7654   -2.0987 C   0  0  0  0  0  0  0  0  0  0  0  0
    0.1799    1.3509   -0.8653 C   0  0  0  0  0  0  0  0  0  0  0  0
    0.5732    0.6561    0.3107 C   0  0  0  0  0  0  0  0  0  0  0  0
   -0.5980    2.6602   -0.7004 C   0  0  0  0  0  0  0  0  0  0  0  0
   -2.3841    2.3536   -0.5197 S   0  0  0  0  0  0  0  0  0  0  0  0
   -3.1638    3.9612   -0.3550 C   0  0  0  0  0  0  0  0  0  0  0  0
   -4.5061    3.8739   -0.3957 N   0  0  0  0  0  0  0  0  0  0  0  0
   -5.1326    5.0647   -0.3375 C   0  0  0  0  0  0  0  0  0  0  0  0
   -4.4801    6.2773   -0.2684 C   0  0  0  0  0  0  0  0  0  0  0  0
   -5.4640    7.3023   -0.3266 C   0  0  0  0  0  0  0  0  0  0  0  0
   -5.4108    8.7136   -0.3169 C   0  0  0  0  0  0  0  0  0  0  0  0
   -6.5929    9.4577   -0.3856 C   0  0  0  0  0  0  0  0  0  0  0  0
   -7.8249    8.8190   -0.4635 C   0  0  0  0  0  0  0  0  0  0  0  0
   -7.9087    7.4223   -0.4874 C   0  0  0  0  0  0  0  0  0  0  0  0
   -6.7155    6.6723   -0.4309 C   0  0  0  0  0  0  0  0  0  0  0  0
   -6.4967    5.2846   -0.4221 N   0  0  0  0  0  0  0  0  0  0  0  0
   -7.4862    4.2698   -0.5465 C   0  0  0  0  0  0  0  0  0  0  0  0
   -8.5244    4.5840   -1.1298 O   0  0  0  0  0  0  0  0  0  0  0  0
   -7.2988    2.9411    0.0096 C   0  0  0  0  0  0  0  0  0  0  0  0
   -7.8072    1.7020   -0.3543 C   0  0  0  0  0  0  0  0  0  0  0  0
   -7.3667    0.7770    0.6260 C   0  0  0  0  0  0  0  0  0  0  0  0
   -6.6129    1.4974    1.5200 C   0  0  0  0  0  0  0  0  0  0  0  0
   -6.5799    2.8049    1.1636 O   0  0  0  0  0  0  0  0  0  0  0  0
   -3.1202    6.3150   -0.1930 N   0  0  0  0  0  0  0  0  0  0  0  0
   -2.4751    5.1203   -0.2407 N   0  0  0  0  0  0  0  0  0  0  0  0
    0.1509    1.2807   -3.3937 C   0  0  0  0  0  0  0  0  0  0  0  0
   -0.1119    1.5945   -4.4763 N   0  0  0  0  0  0  0  0  0  0  0  0
    1.6007   -1.0361    1.1798 H   0  0  0  0  0  0  0  0  0  0  0  0
    2.3022   -1.9658   -1.0037 H   0  0  0  0  0  0  0  0  0  0  0  0
    1.6284   -0.8499   -3.0912 H   0  0  0  0  0  0  0  0  0  0  0  0
    0.2934    1.0431    1.2895 H   0  0  0  0  0  0  0  0  0  0  0  0
   -0.4039    3.3232   -1.5498 H   0  0  0  0  0  0  0  0  0  0  0  0
   -0.2325    3.1708    0.1961 H   0  0  0  0  0  0  0  0  0  0  0  0
   -4.4509    9.2219   -0.2587 H   0  0  0  0  0  0  0  0  0  0  0  0
   -6.5474   10.5446   -0.3778 H   0  0  0  0  0  0  0  0  0  0  0  0
   -8.7373    9.4106   -0.5121 H   0  0  0  0  0  0  0  0  0  0  0  0
   -8.8850    6.9449   -0.5487 H   0  0  0  0  0  0  0  0  0  0  0  0
   -8.4287    1.4949   -1.2148 H   0  0  0  0  0  0  0  0  0  0  0  0
   -7.5791   -0.2825    0.6822 H   0  0  0  0  0  0  0  0  0  0  0  0
   -6.0746    1.2445    2.4235 H   0  0  0  0  0  0  0  0  0  0  0  0
  1  6  2  0  0  0  0
  1  2  1  0  0  0  0
  1 31  1  0  0  0  0
  2  3  2  0  0  0  0
  2 32  1  0  0  0  0
  3  4  1  0  0  0  0
  3 33  1  0  0  0  0
  4  5  2  0  0  0  0
  4 29  1  0  0  0  0
  5  6  1  0  0  0  0
  5  7  1  0  0  0  0
  6 34  1  0  0  0  0
  7  8  1  0  0  0  0
  7 35  1  0  0  0  0
  7 36  1  0  0  0  0
  8  9  1  0  0  0  0
  9 28  2  0  0  0  0
  9 10  1  0  0  0  0
 10 11  2  0  0  0  0
 11 19  1  0  0  0  0
 11 12  1  0  0  0  0
 12 13  1  0  0  0  0
 12 27  2  0  0  0  0
 13 18  2  0  0  0  0
 13 14  1  0  0  0  0
 14 15  2  0  0  0  0
 14 37  1  0  0  0  0
 15 16  1  0  0  0  0
 15 38  1  0  0  0  0
 16 17  2  0  0  0  0
 16 39  1  0  0  0  0
 17 18  1  0  0  0  0
 17 40  1  0  0  0  0
 18 19  1  0  0  0  0
 19 20  1  0  0  0  0
 20 21  2  0  0  0  0
 20 22  1  0  0  0  0
 22 26  1  0  0  0  0
 22 23  2  0  0  0  0
 23 24  1  0  0  0  0
 23 41  1  0  0  0  0
 24 25  2  0  0  0  0
 24 42  1  0  0  0  0
 25 26  1  0  0  0  0
 25 43  1  0  0  0  0
 27 28  1  0  0  0  0
 29 30  3  0  0  0  0
M  END
$$$$
CHEMBL570683
 OpenBabel12022418103D

 54 57  0  0  0  0  0  0  0  0999 V2000
    1.7381    0.9865    0.3917 O   0  0  0  0  0  0  0  0  0  0  0  0
    2.1557   -0.0133   -0.1907 C   0  0  0  0  0  0  0  0  0  0  0  0
    3.0175   -0.9717    0.5692 C   0  0  0  0  0  0  0  0  0  0  0  0
    2.6772   -2.3383    0.5193 C   0  0  0  0  0  0  0  0  0  0  0  0
    3.4243   -3.3426    1.1428 C   0  0  0  0  0  0  0  0  0  0  0  0
    3.1102   -4.7985    1.0204 C   0  0  0  0  0  0  0  0  0  0  0  0
    4.1919   -5.7138    0.9723 C   0  0  0  0  0  0  0  0  0  0  0  0
    4.0068   -7.0942    0.8614 C   0  0  0  0  0  0  0  0  0  0  0  0
    2.7263   -7.6120    0.7469 C   0  0  0  0  0  0  0  0  0  0  0  0
    1.6295   -6.7528    0.7663 C   0  0  0  0  0  0  0  0  0  0  0  0
    1.8044   -5.3602    0.9306 C   0  0  0  0  0  0  0  0  0  0  0  0
    0.3671   -4.3863    1.0950 Cl  0  0  0  0  0  0  0  0  0  0  0  0
    0.0699   -7.4875    0.5770 Cl  0  0  0  0  0  0  0  0  0  0  0  0
    4.5222   -2.8609    1.8431 C   0  0  0  0  0  0  0  0  0  0  0  0
    4.8571   -1.5534    1.9806 N   0  0  0  0  0  0  0  0  0  0  0  0
    4.0968   -0.5905    1.3936 C   0  0  0  0  0  0  0  0  0  0  0  0
    4.3971    0.7559    1.7263 N   0  0  0  0  0  0  0  0  0  0  0  0
    3.4309    1.2559    2.7265 C   0  0  0  0  0  0  0  0  0  0  0  0
    3.0661    2.7175    2.4446 C   0  0  0  0  0  0  0  0  0  0  0  0
    4.1131    3.7337    2.8790 C   0  0  0  0  0  0  0  0  0  0  0  0
    5.4805    3.5156    2.2381 C   0  0  0  0  0  0  0  0  0  0  0  0
    6.1679    2.2665    2.7742 C   0  0  0  0  0  0  0  0  0  0  0  0
    5.8259    0.9564    2.0543 C   0  0  0  0  0  0  0  0  0  0  0  0
    1.7667   -0.2606   -1.5159 N   0  0  0  0  0  0  0  0  0  0  0  0
    1.0494    0.8032   -2.2317 C   0  0  0  0  0  0  0  0  0  0  0  0
   -0.1993    0.2677   -2.9449 C   0  0  0  0  0  0  0  0  0  0  0  0
    0.0932   -0.8823   -3.7563 O   0  0  0  0  0  0  0  0  0  0  0  0
    0.6998   -1.9185   -2.9678 C   0  0  0  0  0  0  0  0  0  0  0  0
    2.0310   -1.4218   -2.3810 C   0  0  0  0  0  0  0  0  0  0  0  0
    1.7832   -2.5971   -0.0385 H   0  0  0  0  0  0  0  0  0  0  0  0
    5.2230   -5.3611    1.0158 H   0  0  0  0  0  0  0  0  0  0  0  0
    4.8657   -7.7619    0.8561 H   0  0  0  0  0  0  0  0  0  0  0  0
    2.5848   -8.6857    0.6474 H   0  0  0  0  0  0  0  0  0  0  0  0
    5.2079   -3.5275    2.3581 H   0  0  0  0  0  0  0  0  0  0  0  0
    3.8196    1.1346    3.7451 H   0  0  0  0  0  0  0  0  0  0  0  0
    2.4964    0.6795    2.7101 H   0  0  0  0  0  0  0  0  0  0  0  0
    2.1325    2.9488    2.9724 H   0  0  0  0  0  0  0  0  0  0  0  0
    2.8685    2.8692    1.3777 H   0  0  0  0  0  0  0  0  0  0  0  0
    4.2034    3.7241    3.9724 H   0  0  0  0  0  0  0  0  0  0  0  0
    3.7541    4.7347    2.6099 H   0  0  0  0  0  0  0  0  0  0  0  0
    6.1026    4.3843    2.4861 H   0  0  0  0  0  0  0  0  0  0  0  0
    5.4021    3.4843    1.1456 H   0  0  0  0  0  0  0  0  0  0  0  0
    5.9616    2.1615    3.8477 H   0  0  0  0  0  0  0  0  0  0  0  0
    7.2538    2.4081    2.7023 H   0  0  0  0  0  0  0  0  0  0  0  0
    6.3930    0.9232    1.1157 H   0  0  0  0  0  0  0  0  0  0  0  0
    6.2228    0.1608    2.6971 H   0  0  0  0  0  0  0  0  0  0  0  0
    1.7561    1.1937   -2.9741 H   0  0  0  0  0  0  0  0  0  0  0  0
    0.7711    1.6319   -1.5752 H   0  0  0  0  0  0  0  0  0  0  0  0
   -0.6058    1.0416   -3.6047 H   0  0  0  0  0  0  0  0  0  0  0  0
   -0.9798   -0.0008   -2.2241 H   0  0  0  0  0  0  0  0  0  0  0  0
    0.8645   -2.7802   -3.6212 H   0  0  0  0  0  0  0  0  0  0  0  0
   -0.0015   -2.2234   -2.1797 H   0  0  0  0  0  0  0  0  0  0  0  0
    2.5571   -2.2333   -1.8875 H   0  0  0  0  0  0  0  0  0  0  0  0
    2.6824   -1.0697   -3.1880 H   0  0  0  0  0  0  0  0  0  0  0  0
  1  2  2  0  0  0  0
  2  3  1  0  0  0  0
  2 24  1  0  0  0  0
  3 16  2  0  0  0  0
  3  4  1  0  0  0  0
  4  5  2  0  0  0  0
  4 30  1  0  0  0  0
  5  6  1  0  0  0  0
  5 14  1  0  0  0  0
  6 11  2  0  0  0  0
  6  7  1  0  0  0  0
  7  8  2  0  0  0  0
  7 31  1  0  0  0  0
  8  9  1  0  0  0  0
  8 32  1  0  0  0  0
  9 10  2  0  0  0  0
  9 33  1  0  0  0  0
 10 11  1  0  0  0  0
 10 13  1  0  0  0  0
 11 12  1  0  0  0  0
 14 15  2  0  0  0  0
 14 34  1  0  0  0  0
 15 16  1  0  0  0  0
 16 17  1  0  0  0  0
 17 23  1  0  0  0  0
 17 18  1  0  0  0  0
 18 19  1  0  0  0  0
 18 35  1  0  0  0  0
 18 36  1  0  0  0  0
 19 20  1  0  0  0  0
 19 37  1  0  0  0  0
 19 38  1  0  0  0  0
 20 21  1  0  0  0  0
 20 39  1  0  0  0  0
 20 40  1  0  0  0  0
 21 22  1  0  0  0  0
 21 41  1  0  0  0  0
 21 42  1  0  0  0  0
 22 23  1  0  0  0  0
 22 43  1  0  0  0  0
 22 44  1  0  0  0  0
 23 45  1  0  0  0  0
 23 46  1  0  0  0  0
 24 29  1  0  0  0  0
 24 25  1  0  0  0  0
 25 26  1  0  0  0  0
 25 47  1  0  0  0  0
 25 48  1  0  0  0  0
 26 27  1  0  0  0  0
 26 49  1  0  0  0  0
 26 50  1  0  0  0  0
 27 28  1  0  0  0  0
 28 29  1  0  0  0  0
 28 51  1  0  0  0  0
 28 52  1  0  0  0  0
 29 53  1  0  0  0  0
 29 54  1  0  0  0  0
M  END
$$$$
CHEMBL1760932
 OpenBabel12022418103D

 45 48  0  0  0  0  0  0  0  0999 V2000
    2.1657   -1.2551   -0.2012 C   0  0  0  0  0  0  0  0  0  0  0  0
    2.3042    0.1501    0.1370 C   0  0  0  0  0  0  0  0  0  0  0  0
    1.2277    0.9539    0.2702 C   0  0  0  0  0  0  0  0  0  0  0  0
   -0.0745    0.4052    0.0918 C   0  0  0  0  0  0  0  0  0  0  0  0
   -1.3594    0.9011    0.0005 C   0  0  0  0  0  0  0  0  0  0  0  0
   -1.8024    2.3466   -0.0061 C   0  0  0  0  0  0  0  0  0  0  0  0
   -3.1946    2.4391    0.3613 N   0  0  0  0  0  0  0  0  0  0  0  0
   -4.1026    3.2668   -0.3909 C   0  0  0  0  0  0  0  0  0  0  0  0
   -5.3159    2.3890   -0.6515 C   0  0  0  0  0  0  0  0  0  0  0  0
   -5.8672    1.8229    0.6491 C   0  0  0  0  0  0  0  0  0  0  0  0
   -4.8473    1.2930    1.6481 C   0  0  0  0  0  0  0  0  0  0  0  0
   -3.6024    2.1666    1.7199 C   0  0  0  0  0  0  0  0  0  0  0  0
   -6.7512    0.8289    0.3529 F   0  0  0  0  0  0  0  0  0  0  0  0
   -6.6015    2.7976    1.2587 F   0  0  0  0  0  0  0  0  0  0  0  0
   -2.2528   -0.1592   -0.1279 N   0  0  0  0  0  0  0  0  0  0  0  0
   -1.5336   -1.2696   -0.1053 C   0  0  0  0  0  0  0  0  0  0  0  0
   -2.0781   -2.6182   -0.0657 C   0  0  0  0  0  0  0  0  0  0  0  0
   -1.3913   -3.6003    0.2124 O   0  0  0  0  0  0  0  0  0  0  0  0
   -3.4939   -2.8717   -0.4576 C   0  0  0  0  0  0  0  0  0  0  0  0
   -4.0029   -2.1927   -1.5788 C   0  0  0  0  0  0  0  0  0  0  0  0
   -5.2525   -2.5187   -2.1014 C   0  0  0  0  0  0  0  0  0  0  0  0
   -5.9994   -3.5403   -1.5235 C   0  0  0  0  0  0  0  0  0  0  0  0
   -5.5163   -4.2140   -0.3973 C   0  0  0  0  0  0  0  0  0  0  0  0
   -4.2692   -3.8751    0.1583 C   0  0  0  0  0  0  0  0  0  0  0  0
   -3.7452   -4.6621    1.6171 Cl  0  0  0  0  0  0  0  0  0  0  0  0
   -6.5127   -5.4815    0.2379 Cl  0  0  0  0  0  0  0  0  0  0  0  0
   -0.1808   -0.9673   -0.1019 N   0  0  0  0  0  0  0  0  0  0  0  0
    0.9346   -1.7839   -0.2903 C   0  0  0  0  0  0  0  0  0  0  0  0
    3.0563   -1.8522   -0.3641 H   0  0  0  0  0  0  0  0  0  0  0  0
    3.3039    0.5339    0.2994 H   0  0  0  0  0  0  0  0  0  0  0  0
    1.3444    1.9998    0.5350 H   0  0  0  0  0  0  0  0  0  0  0  0
   -1.6441    2.7154   -1.0280 H   0  0  0  0  0  0  0  0  0  0  0  0
   -1.1763    2.9567    0.6536 H   0  0  0  0  0  0  0  0  0  0  0  0
   -3.6819    3.6004   -1.3458 H   0  0  0  0  0  0  0  0  0  0  0  0
   -4.3769    4.1718    0.1670 H   0  0  0  0  0  0  0  0  0  0  0  0
   -5.0437    1.5700   -1.3296 H   0  0  0  0  0  0  0  0  0  0  0  0
   -6.0912    2.9747   -1.1582 H   0  0  0  0  0  0  0  0  0  0  0  0
   -4.5653    0.2691    1.3765 H   0  0  0  0  0  0  0  0  0  0  0  0
   -5.3049    1.2399    2.6428 H   0  0  0  0  0  0  0  0  0  0  0  0
   -3.8037    3.1004    2.2599 H   0  0  0  0  0  0  0  0  0  0  0  0
   -2.8275    1.6416    2.2908 H   0  0  0  0  0  0  0  0  0  0  0  0
   -3.4212   -1.4159   -2.0718 H   0  0  0  0  0  0  0  0  0  0  0  0
   -5.6331   -1.9897   -2.9722 H   0  0  0  0  0  0  0  0  0  0  0  0
   -6.9612   -3.8091   -1.9552 H   0  0  0  0  0  0  0  0  0  0  0  0
    0.7685   -2.8276   -0.5284 H   0  0  0  0  0  0  0  0  0  0  0  0
  1 28  2  0  0  0  0
  1  2  1  0  0  0  0
  1 29  1  0  0  0  0
  2  3  2  0  0  0  0
  2 30  1  0  0  0  0
  3  4  1  0  0  0  0
  3 31  1  0  0  0  0
  4 27  1  0  0  0  0
  4  5  2  0  0  0  0
  5  6  1  0  0  0  0
  5 15  1  0  0  0  0
  6  7  1  0  0  0  0
  6 32  1  0  0  0  0
  6 33  1  0  0  0  0
  7 12  1  0  0  0  0
  7  8  1  0  0  0  0
  8  9  1  0  0  0  0
  8 34  1  0  0  0  0
  8 35  1  0  0  0  0
  9 10  1  0  0  0  0
  9 36  1  0  0  0  0
  9 37  1  0  0  0  0
 10 11  1  0  0  0  0
 10 13  1  0  0  0  0
 10 14  1  0  0  0  0
 11 12  1  0  0  0  0
 11 38  1  0  0  0  0
 11 39  1  0  0  0  0
 12 40  1  0  0  0  0
 12 41  1  0  0  0  0
 15 16  2  0  0  0  0
 16 17  1  0  0  0  0
 16 27  1  0  0  0  0
 17 18  2  0  0  0  0
 17 19  1  0  0  0  0
 19 24  2  0  0  0  0
 19 20  1  0  0  0  0
 20 21  2  0  0  0  0
 20 42  1  0  0  0  0
 21 22  1  0  0  0  0
 21 43  1  0  0  0  0
 22 23  2  0  0  0  0
 22 44  1  0  0  0  0
 23 24  1  0  0  0  0
 23 26  1  0  0  0  0
 24 25  1  0  0  0  0
 27 28  1  0  0  0  0
 28 45  1  0  0  0  0
M  END
$$$$
CHEMBL550949
 OpenBabel12022418103D

 50 53  0  0  0  0  0  0  0  0999 V2000
    1.2813   -0.8574    0.3255 C   0  0  0  0  0  0  0  0  0  0  0  0
    2.8040   -0.6823    0.4110 C   0  0  0  0  0  0  0  0  0  0  0  0
    3.4872   -0.5402   -0.9662 C   0  0  0  0  0  0  0  0  0  0  0  0
    4.9675   -0.4650   -0.9512 N   0  0  0  0  0  0  0  0  0  0  0  0
    5.8071    0.6713   -1.0142 C   0  0  0  0  0  0  0  0  0  0  0  0
    5.1411    2.0144   -0.9984 C   0  0  0  0  0  0  0  0  0  0  0  0
    7.1786    0.2544   -1.0380 C   0  0  0  0  0  0  0  0  0  0  0  0
    8.6121    0.9582   -1.0496 C   0  0  0  0  0  0  0  0  0  0  0  0
    9.5831    0.2696   -0.7388 O   0  0  0  0  0  0  0  0  0  0  0  0
    8.9846    2.4218   -1.4233 C   0  0  0  0  0  0  0  0  0  0  0  0
    7.9595    3.1554   -1.9784 C   0  0  0  0  0  0  0  0  0  0  0  0
    8.0070    4.5344   -2.1299 C   0  0  0  0  0  0  0  0  0  0  0  0
    9.1976    5.2253   -1.9454 C   0  0  0  0  0  0  0  0  0  0  0  0
   10.3644    4.5234   -1.6282 C   0  0  0  0  0  0  0  0  0  0  0  0
   11.5992    5.2421   -1.6617 C   0  0  0  0  0  0  0  0  0  0  0  0
   12.8219    4.6281   -1.4671 C   0  0  0  0  0  0  0  0  0  0  0  0
   12.8186    3.2764   -1.1658 C   0  0  0  0  0  0  0  0  0  0  0  0
   11.5981    2.5420   -1.0705 C   0  0  0  0  0  0  0  0  0  0  0  0
   10.3060    3.1042   -1.3405 C   0  0  0  0  0  0  0  0  0  0  0  0
    9.2759    6.5931   -2.1043 O   0  0  0  0  0  0  0  0  0  0  0  0
    8.3939    7.1365   -3.0807 C   0  0  0  0  0  0  0  0  0  0  0  0
    7.0693   -1.2312   -0.9970 C   0  0  0  0  0  0  0  0  0  0  0  0
    8.0128   -2.2883   -0.9931 C   0  0  0  0  0  0  0  0  0  0  0  0
    7.6083   -3.6361   -0.9859 C   0  0  0  0  0  0  0  0  0  0  0  0
    6.2658   -3.9716   -0.9770 C   0  0  0  0  0  0  0  0  0  0  0  0
    5.3055   -2.9677   -0.9548 C   0  0  0  0  0  0  0  0  0  0  0  0
    5.7255   -1.6124   -0.9671 C   0  0  0  0  0  0  0  0  0  0  0  0
    0.8393   -0.8513    1.3305 H   0  0  0  0  0  0  0  0  0  0  0  0
    1.0071   -1.8117   -0.1386 H   0  0  0  0  0  0  0  0  0  0  0  0
    0.8082   -0.0516   -0.2447 H   0  0  0  0  0  0  0  0  0  0  0  0
    3.2068   -1.5481    0.9503 H   0  0  0  0  0  0  0  0  0  0  0  0
    3.0166    0.2008    1.0218 H   0  0  0  0  0  0  0  0  0  0  0  0
    3.0868    0.3110   -1.5202 H   0  0  0  0  0  0  0  0  0  0  0  0
    3.2171   -1.4091   -1.5815 H   0  0  0  0  0  0  0  0  0  0  0  0
    4.0508    1.9602   -1.0261 H   0  0  0  0  0  0  0  0  0  0  0  0
    5.3597    2.5991   -1.8885 H   0  0  0  0  0  0  0  0  0  0  0  0
    5.4032    2.5693   -0.0968 H   0  0  0  0  0  0  0  0  0  0  0  0
    7.1109    2.6357   -2.3782 H   0  0  0  0  0  0  0  0  0  0  0  0
    7.1006    5.0452   -2.4231 H   0  0  0  0  0  0  0  0  0  0  0  0
   11.6105    6.3087   -1.8945 H   0  0  0  0  0  0  0  0  0  0  0  0
   13.7492    5.1934   -1.5731 H   0  0  0  0  0  0  0  0  0  0  0  0
   13.7755    2.7760   -1.0239 H   0  0  0  0  0  0  0  0  0  0  0  0
   11.6915    1.4806   -0.8354 H   0  0  0  0  0  0  0  0  0  0  0  0
    8.7028    8.1636   -3.2901 H   0  0  0  0  0  0  0  0  0  0  0  0
    7.3691    7.1706   -2.6990 H   0  0  0  0  0  0  0  0  0  0  0  0
    8.4485    6.5687   -4.0162 H   0  0  0  0  0  0  0  0  0  0  0  0
    9.0756   -2.0650   -0.9967 H   0  0  0  0  0  0  0  0  0  0  0  0
    8.3558   -4.4208   -0.9932 H   0  0  0  0  0  0  0  0  0  0  0  0
    5.9592   -5.0155   -0.9810 H   0  0  0  0  0  0  0  0  0  0  0  0
    4.2553   -3.2398   -0.9295 H   0  0  0  0  0  0  0  0  0  0  0  0
  1  2  1  0  0  0  0
  1 28  1  0  0  0  0
  1 29  1  0  0  0  0
  1 30  1  0  0  0  0
  2  3  1  0  0  0  0
  2 31  1  0  0  0  0
  2 32  1  0  0  0  0
  3  4  1  0  0  0  0
  3 33  1  0  0  0  0
  3 34  1  0  0  0  0
  4 27  1  0  0  0  0
  4  5  1  0  0  0  0
  5  6  1  0  0  0  0
  5  7  2  0  0  0  0
  6 35  1  0  0  0  0
  6 36  1  0  0  0  0
  6 37  1  0  0  0  0
  7  8  1  0  0  0  0
  7 22  1  0  0  0  0
  8  9  2  0  0  0  0
  8 10  1  0  0  0  0
 10 19  2  0  0  0  0
 10 11  1  0  0  0  0
 11 12  2  0  0  0  0
 11 38  1  0  0  0  0
 12 13  1  0  0  0  0
 12 39  1  0  0  0  0
 13 14  2  0  0  0  0
 13 20  1  0  0  0  0
 14 19  1  0  0  0  0
 14 15  1  0  0  0  0
 15 16  2  0  0  0  0
 15 40  1  0  0  0  0
 16 17  1  0  0  0  0
 16 41  1  0  0  0  0
 17 18  2  0  0  0  0
 17 42  1  0  0  0  0
 18 19  1  0  0  0  0
 18 43  1  0  0  0  0
 20 21  1  0  0  0  0
 21 44  1  0  0  0  0
 21 45  1  0  0  0  0
 21 46  1  0  0  0  0
 22 27  2  0  0  0  0
 22 23  1  0  0  0  0
 23 24  2  0  0  0  0
 23 47  1  0  0  0  0
 24 25  1  0  0  0  0
 24 48  1  0  0  0  0
 25 26  2  0  0  0  0
 25 49  1  0  0  0  0
 26 27  1  0  0  0  0
 26 50  1  0  0  0  0
M  END
$$$$
CHEMBL1807842
 OpenBabel12022418103D

 54 57  0  0  0  0  0  0  0  0999 V2000
    0.9783   -0.2239    0.0651 C   0  0  0  0  0  0  0  0  0  0  0  0
    2.4750   -0.1469    0.0355 C   0  0  0  0  0  0  0  0  0  0  0  0
    3.2541    1.0044    0.0628 C   0  0  0  0  0  0  0  0  0  0  0  0
    2.7843    2.4298   -0.0053 C   0  0  0  0  0  0  0  0  0  0  0  0
    1.9687    2.9018    1.2040 C   0  0  0  0  0  0  0  0  0  0  0  0
    1.5491    4.3074    1.1938 N   0  0  0  0  0  0  0  0  0  0  0  0
    2.6577    5.2555    1.3932 C   0  0  0  0  0  0  0  0  0  0  0  0
    2.0878    6.6756    1.5377 C   0  0  0  0  0  0  0  0  0  0  0  0
    1.3389    7.0583    0.3731 O   0  0  0  0  0  0  0  0  0  0  0  0
    0.2729    6.1264    0.1318 C   0  0  0  0  0  0  0  0  0  0  0  0
    0.8108    4.6966   -0.0230 C   0  0  0  0  0  0  0  0  0  0  0  0
    4.6140    0.5965    0.0799 C   0  0  0  0  0  0  0  0  0  0  0  0
    5.8379    1.3076    0.1242 C   0  0  0  0  0  0  0  0  0  0  0  0
    7.0600    0.6403    0.0279 C   0  0  0  0  0  0  0  0  0  0  0  0
    7.0725   -0.7338   -0.1541 C   0  0  0  0  0  0  0  0  0  0  0  0
    5.8770   -1.4623   -0.2177 C   0  0  0  0  0  0  0  0  0  0  0  0
    4.6469   -0.7939   -0.0413 C   0  0  0  0  0  0  0  0  0  0  0  0
    3.3253   -1.2625    0.0110 N   0  0  0  0  0  0  0  0  0  0  0  0
    2.9220   -2.6289    0.0478 C   0  0  0  0  0  0  0  0  0  0  0  0
    1.7938   -2.8970   -0.3549 O   0  0  0  0  0  0  0  0  0  0  0  0
    3.7211   -3.7428    0.6276 C   0  0  0  0  0  0  0  0  0  0  0  0
    4.4693   -3.4800    1.7906 C   0  0  0  0  0  0  0  0  0  0  0  0
    5.2027   -4.4898    2.4072 C   0  0  0  0  0  0  0  0  0  0  0  0
    5.1460   -5.7845    1.9074 C   0  0  0  0  0  0  0  0  0  0  0  0
    4.3740   -6.0719    0.7734 C   0  0  0  0  0  0  0  0  0  0  0  0
    3.6698   -5.0525    0.1109 C   0  0  0  0  0  0  0  0  0  0  0  0
    2.8106   -5.4261   -1.3514 Cl  0  0  0  0  0  0  0  0  0  0  0  0
    4.3357   -7.7243    0.2563 Cl  0  0  0  0  0  0  0  0  0  0  0  0
    8.1615    1.4521    0.1012 O   0  0  0  0  0  0  0  0  0  0  0  0
    9.4332    0.8203    0.0433 C   0  0  0  0  0  0  0  0  0  0  0  0
    0.5568   -1.2187    0.1858 H   0  0  0  0  0  0  0  0  0  0  0  0
    0.5628    0.2112   -0.8488 H   0  0  0  0  0  0  0  0  0  0  0  0
    0.5917    0.3367    0.9199 H   0  0  0  0  0  0  0  0  0  0  0  0
    2.1931    2.5304   -0.9223 H   0  0  0  0  0  0  0  0  0  0  0  0
    3.6531    3.0863   -0.1251 H   0  0  0  0  0  0  0  0  0  0  0  0
    2.5162    2.6942    2.1324 H   0  0  0  0  0  0  0  0  0  0  0  0
    1.0515    2.3096    1.2867 H   0  0  0  0  0  0  0  0  0  0  0  0
    3.3469    5.2320    0.5394 H   0  0  0  0  0  0  0  0  0  0  0  0
    3.2247    5.0013    2.2953 H   0  0  0  0  0  0  0  0  0  0  0  0
    2.9051    7.3933    1.6565 H   0  0  0  0  0  0  0  0  0  0  0  0
    1.4438    6.7518    2.4224 H   0  0  0  0  0  0  0  0  0  0  0  0
   -0.2323    6.4332   -0.7895 H   0  0  0  0  0  0  0  0  0  0  0  0
   -0.4552    6.1862    0.9494 H   0  0  0  0  0  0  0  0  0  0  0  0
   -0.0247    4.0114   -0.2038 H   0  0  0  0  0  0  0  0  0  0  0  0
    1.4709    4.6683   -0.9000 H   0  0  0  0  0  0  0  0  0  0  0  0
    5.8354    2.3916    0.2219 H   0  0  0  0  0  0  0  0  0  0  0  0
    8.0017   -1.2840   -0.2630 H   0  0  0  0  0  0  0  0  0  0  0  0
    5.9298   -2.5296   -0.4063 H   0  0  0  0  0  0  0  0  0  0  0  0
    4.4986   -2.4824    2.2282 H   0  0  0  0  0  0  0  0  0  0  0  0
    5.8062   -4.2686    3.2846 H   0  0  0  0  0  0  0  0  0  0  0  0
    5.6975   -6.5774    2.4077 H   0  0  0  0  0  0  0  0  0  0  0  0
   10.1993    1.5986    0.1088 H   0  0  0  0  0  0  0  0  0  0  0  0
    9.5714    0.2975   -0.9085 H   0  0  0  0  0  0  0  0  0  0  0  0
    9.5719    0.1418    0.8915 H   0  0  0  0  0  0  0  0  0  0  0  0
  1  2  1  0  0  0  0
  1 31  1  0  0  0  0
  1 32  1  0  0  0  0
  1 33  1  0  0  0  0
  2 18  1  0  0  0  0
  2  3  2  0  0  0  0
  3  4  1  0  0  0  0
  3 12  1  0  0  0  0
  4  5  1  0  0  0  0
  4 34  1  0  0  0  0
  4 35  1  0  0  0  0
  5  6  1  0  0  0  0
  5 36  1  0  0  0  0
  5 37  1  0  0  0  0
  6 11  1  0  0  0  0
  6  7  1  0  0  0  0
  7  8  1  0  0  0  0
  7 38  1  0  0  0  0
  7 39  1  0  0  0  0
  8  9  1  0  0  0  0
  8 40  1  0  0  0  0
  8 41  1  0  0  0  0
  9 10  1  0  0  0  0
 10 11  1  0  0  0  0
 10 42  1  0  0  0  0
 10 43  1  0  0  0  0
 11 44  1  0  0  0  0
 11 45  1  0  0  0  0
 12 17  2  0  0  0  0
 12 13  1  0  0  0  0
 13 14  2  0  0  0  0
 13 46  1  0  0  0  0
 14 15  1  0  0  0  0
 14 29  1  0  0  0  0
 15 16  2  0  0  0  0
 15 47  1  0  0  0  0
 16 17  1  0  0  0  0
 16 48  1  0  0  0  0
 17 18  1  0  0  0  0
 18 19  1  0  0  0  0
 19 20  2  0  0  0  0
 19 21  1  0  0  0  0
 21 26  2  0  0  0  0
 21 22  1  0  0  0  0
 22 23  2  0  0  0  0
 22 49  1  0  0  0  0
 23 24  1  0  0  0  0
 23 50  1  0  0  0  0
 24 25  2  0  0  0  0
 24 51  1  0  0  0  0
 25 26  1  0  0  0  0
 25 28  1  0  0  0  0
 26 27  1  0  0  0  0
 29 30  1  0  0  0  0
 30 52  1  0  0  0  0
 30 53  1  0  0  0  0
 30 54  1  0  0  0  0
M  END
$$$$
CHEMBL396153
 OpenBabel12022418103D

 44 45  0  0  0  0  0  0  0  0999 V2000
    3.3837    3.4921    4.2622 C   0  0  0  0  0  0  0  0  0  0  0  0
    3.9034    2.0934    4.0042 C   0  0  0  0  0  0  0  0  0  0  0  0
    3.8308    1.8272    2.6052 O   0  0  0  0  0  0  0  0  0  0  0  0
    4.6756    0.8375    2.1595 C   0  0  0  0  0  0  0  0  0  0  0  0
    5.1647   -0.1702    3.0111 C   0  0  0  0  0  0  0  0  0  0  0  0
    6.1466   -1.0558    2.5772 C   0  0  0  0  0  0  0  0  0  0  0  0
    6.6296   -0.9548    1.2805 C   0  0  0  0  0  0  0  0  0  0  0  0
    6.0689   -0.0207    0.4010 C   0  0  0  0  0  0  0  0  0  0  0  0
    5.0554    0.8638    0.7973 C   0  0  0  0  0  0  0  0  0  0  0  0
    4.5383    1.7501   -0.1951 N   0  0  0  0  0  0  0  0  0  0  0  0
    3.2986    1.7163   -0.5685 C   0  0  0  0  0  0  0  0  0  0  0  0
    2.8541    2.4484   -1.6850 N   0  0  0  0  0  0  0  0  0  0  0  0
    2.2744    1.6755   -2.8092 C   0  0  0  0  0  0  0  0  0  0  0  0
    1.0688    0.7877   -2.4142 C   0  0  0  0  0  0  0  0  0  0  0  0
    1.4935   -0.1403   -1.2763 C   0  0  0  0  0  0  0  0  0  0  0  0
    2.0354    0.7491    0.1699 S   0  0  0  0  0  0  0  0  0  0  0  0
    0.6451   -0.1059   -3.5917 C   0  0  0  0  0  0  0  0  0  0  0  0
   -0.1452    1.6759   -2.0480 C   0  0  0  0  0  0  0  0  0  0  0  0
    3.0039    3.8411   -1.7442 C   0  0  0  0  0  0  0  0  0  0  0  0
    2.9106    4.8637   -0.4098 S   0  0  0  0  0  0  0  0  0  0  0  0
    3.1321    4.5775   -3.3550 S   0  0  0  0  0  0  0  0  0  0  0  0
    4.9089    4.3961   -3.6082 C   0  0  0  0  0  0  0  0  0  0  0  0
    3.0183    3.5787    5.2891 H   0  0  0  0  0  0  0  0  0  0  0  0
    2.5805    3.7567    3.5671 H   0  0  0  0  0  0  0  0  0  0  0  0
    4.1894    4.2181    4.1277 H   0  0  0  0  0  0  0  0  0  0  0  0
    3.2854    1.3643    4.5422 H   0  0  0  0  0  0  0  0  0  0  0  0
    4.9360    2.0422    4.3724 H   0  0  0  0  0  0  0  0  0  0  0  0
    4.8051   -0.2772    4.0279 H   0  0  0  0  0  0  0  0  0  0  0  0
    6.5527   -1.7964    3.2648 H   0  0  0  0  0  0  0  0  0  0  0  0
    7.4356   -1.6023    0.9534 H   0  0  0  0  0  0  0  0  0  0  0  0
    6.4421    0.0288   -0.6187 H   0  0  0  0  0  0  0  0  0  0  0  0
    3.0825    1.0496   -3.2094 H   0  0  0  0  0  0  0  0  0  0  0  0
    1.9487    2.3266   -3.6242 H   0  0  0  0  0  0  0  0  0  0  0  0
    2.3246   -0.7838   -1.5976 H   0  0  0  0  0  0  0  0  0  0  0  0
    0.6621   -0.8071   -0.9819 H   0  0  0  0  0  0  0  0  0  0  0  0
    1.4816   -0.7202   -3.9475 H   0  0  0  0  0  0  0  0  0  0  0  0
    0.2749    0.4799   -4.4403 H   0  0  0  0  0  0  0  0  0  0  0  0
   -0.1574   -0.7896   -3.2874 H   0  0  0  0  0  0  0  0  0  0  0  0
    0.1095    2.4729   -1.3425 H   0  0  0  0  0  0  0  0  0  0  0  0
   -0.9494    1.0806   -1.6087 H   0  0  0  0  0  0  0  0  0  0  0  0
   -0.5506    2.1685   -2.9435 H   0  0  0  0  0  0  0  0  0  0  0  0
    5.2012    4.9096   -4.5336 H   0  0  0  0  0  0  0  0  0  0  0  0
    5.1788    3.3447   -3.6954 H   0  0  0  0  0  0  0  0  0  0  0  0
    5.4683    4.8422   -2.7805 H   0  0  0  0  0  0  0  0  0  0  0  0
  1  2  1  0  0  0  0
  1 23  1  0  0  0  0
  1 24  1  0  0  0  0
  1 25  1  0  0  0  0
  2  3  1  0  0  0  0
  2 26  1  0  0  0  0
  2 27  1  0  0  0  0
  3  4  1  0  0  0  0
  4  9  2  0  0  0  0
  4  5  1  0  0  0  0
  5  6  2  0  0  0  0
  5 28  1  0  0  0  0
  6  7  1  0  0  0  0
  6 29  1  0  0  0  0
  7  8  2  0  0  0  0
  7 30  1  0  0  0  0
  8  9  1  0  0  0  0
  8 31  1  0  0  0  0
  9 10  1  0  0  0  0
 10 11  2  0  0  0  0
 11 16  1  0  0  0  0
 11 12  1  0  0  0  0
 12 13  1  0  0  0  0
 12 19  1  0  0  0  0
 13 14  1  0  0  0  0
 13 32  1  0  0  0  0
 13 33  1  0  0  0  0
 14 15  1  0  0  0  0
 14 17  1  0  0  0  0
 14 18  1  0  0  0  0
 15 16  1  0  0  0  0
 15 34  1  0  0  0  0
 15 35  1  0  0  0  0
 17 36  1  0  0  0  0
 17 37  1  0  0  0  0
 17 38  1  0  0  0  0
 18 39  1  0  0  0  0
 18 40  1  0  0  0  0
 18 41  1  0  0  0  0
 19 20  2  0  0  0  0
 19 21  1  0  0  0  0
 21 22  1  0  0  0  0
 22 42  1  0  0  0  0
 22 43  1  0  0  0  0
 22 44  1  0  0  0  0
M  END
$$$$
CHEMBL2206846
 OpenBabel12022418103D

 49 52  0  0  0  0  0  0  0  0999 V2000
    0.8270    2.5572   -0.9745 C   0  0  0  0  0  0  0  0  0  0  0  0
    2.3444    2.5448   -0.9684 C   0  0  0  0  0  0  0  0  0  0  0  0
    2.9084    3.2355   -2.2108 C   0  0  0  0  0  0  0  0  0  0  0  0
    4.4394    3.2377   -2.2513 C   0  0  0  0  0  0  0  0  0  0  0  0
    5.0173    1.8224   -2.2264 C   0  0  0  0  0  0  0  0  0  0  0  0
    6.4761    1.7958   -2.2531 N   0  0  0  0  0  0  0  0  0  0  0  0
    7.2012    1.6795   -3.4073 C   0  0  0  0  0  0  0  0  0  0  0  0
    8.5434    1.7221   -3.0771 C   0  0  0  0  0  0  0  0  0  0  0  0
    9.6620    1.8223   -4.0163 C   0  0  0  0  0  0  0  0  0  0  0  0
   10.7900    1.5423   -3.6523 O   0  0  0  0  0  0  0  0  0  0  0  0
    9.4859    2.4547   -5.3270 C   0  0  0  0  0  0  0  0  0  0  0  0
    8.6281    3.6029   -5.2730 C   0  0  0  0  0  0  0  0  0  0  0  0
    8.3568    4.3487   -6.4010 C   0  0  0  0  0  0  0  0  0  0  0  0
    8.8209    3.9355   -7.5843 C   0  0  0  0  0  0  0  0  0  0  0  0
    9.6200    2.7725   -7.7257 C   0  0  0  0  0  0  0  0  0  0  0  0
    9.8047    2.2956   -8.9881 C   0  0  0  0  0  0  0  0  0  0  0  0
   10.4976    1.1149   -9.1855 C   0  0  0  0  0  0  0  0  0  0  0  0
   11.4506    0.8533   -8.2327 C   0  0  0  0  0  0  0  0  0  0  0  0
   11.1150    1.0601   -6.9107 C   0  0  0  0  0  0  0  0  0  0  0  0
   10.0837    2.0483   -6.5839 C   0  0  0  0  0  0  0  0  0  0  0  0
   12.0276   -0.0646   -5.7180 Br  0  0  0  0  0  0  0  0  0  0  0  0
    8.6087    1.7697   -1.6420 C   0  0  0  0  0  0  0  0  0  0  0  0
    9.6824    1.8008   -0.7178 C   0  0  0  0  0  0  0  0  0  0  0  0
    9.4153    1.8516    0.6530 C   0  0  0  0  0  0  0  0  0  0  0  0
    8.1056    1.9040    1.1141 C   0  0  0  0  0  0  0  0  0  0  0  0
    7.0273    1.9100    0.2223 C   0  0  0  0  0  0  0  0  0  0  0  0
    7.3056    1.8247   -1.1527 C   0  0  0  0  0  0  0  0  0  0  0  0
    0.4427    2.0401   -0.0899 H   0  0  0  0  0  0  0  0  0  0  0  0
    0.4421    2.0437   -1.8616 H   0  0  0  0  0  0  0  0  0  0  0  0
    0.4439    3.5813   -0.9717 H   0  0  0  0  0  0  0  0  0  0  0  0
    2.6655    1.4991   -0.9246 H   0  0  0  0  0  0  0  0  0  0  0  0
    2.7183    3.0389   -0.0643 H   0  0  0  0  0  0  0  0  0  0  0  0
    2.5532    4.2730   -2.2405 H   0  0  0  0  0  0  0  0  0  0  0  0
    2.5219    2.7450   -3.1130 H   0  0  0  0  0  0  0  0  0  0  0  0
    4.8280    3.8284   -1.4127 H   0  0  0  0  0  0  0  0  0  0  0  0
    4.7640    3.7539   -3.1651 H   0  0  0  0  0  0  0  0  0  0  0  0
    4.6644    1.2576   -3.0953 H   0  0  0  0  0  0  0  0  0  0  0  0
    4.7152    1.2678   -1.3330 H   0  0  0  0  0  0  0  0  0  0  0  0
    6.7109    1.6183   -4.3609 H   0  0  0  0  0  0  0  0  0  0  0  0
    8.2054    3.9425   -4.3212 H   0  0  0  0  0  0  0  0  0  0  0  0
    7.7359    5.2382   -6.3108 H   0  0  0  0  0  0  0  0  0  0  0  0
    8.5456    4.5058   -8.4935 H   0  0  0  0  0  0  0  0  0  0  0  0
    9.2867    2.7549   -9.8655 H   0  0  0  0  0  0  0  0  0  0  0  0
    9.7786    0.2643   -9.3450 H   0  0  0  0  0  0  0  0  0  0  0  0
   12.3183    0.2000   -8.5141 H   0  0  0  0  0  0  0  0  0  0  0  0
   10.7056    1.7716   -1.0732 H   0  0  0  0  0  0  0  0  0  0  0  0
   10.2447    1.8534    1.3538 H   0  0  0  0  0  0  0  0  0  0  0  0
    7.9193    1.9402    2.1844 H   0  0  0  0  0  0  0  0  0  0  0  0
    6.0100    1.9704    0.5983 H   0  0  0  0  0  0  0  0  0  0  0  0
  1  2  1  0  0  0  0
  1 28  1  0  0  0  0
  1 29  1  0  0  0  0
  1 30  1  0  0  0  0
  2  3  1  0  0  0  0
  2 31  1  0  0  0  0
  2 32  1  0  0  0  0
  3  4  1  0  0  0  0
  3 33  1  0  0  0  0
  3 34  1  0  0  0  0
  4  5  1  0  0  0  0
  4 35  1  0  0  0  0
  4 36  1  0  0  0  0
  5  6  1  0  0  0  0
  5 37  1  0  0  0  0
  5 38  1  0  0  0  0
  6 27  1  0  0  0  0
  6  7  1  0  0  0  0
  7  8  2  0  0  0  0
  7 39  1  0  0  0  0
  8  9  1  0  0  0  0
  8 22  1  0  0  0  0
  9 10  2  0  0  0  0
  9 11  1  0  0  0  0
 11 20  2  0  0  0  0
 11 12  1  0  0  0  0
 12 13  2  0  0  0  0
 12 40  1  0  0  0  0
 13 14  1  0  0  0  0
 13 41  1  0  0  0  0
 14 15  2  0  0  0  0
 14 42  1  0  0  0  0
 15 20  1  0  0  0  0
 15 16  1  0  0  0  0
 16 17  2  0  0  0  0
 16 43  1  0  0  0  0
 17 18  1  0  0  0  0
 17 44  1  0  0  0  0
 18 19  2  0  0  0  0
 18 45  1  0  0  0  0
 19 20  1  0  0  0  0
 19 21  1  0  0  0  0
 22 27  2  0  0  0  0
 22 23  1  0  0  0  0
 23 24  2  0  0  0  0
 23 46  1  0  0  0  0
 24 25  1  0  0  0  0
 24 47  1  0  0  0  0
 25 26  2  0  0  0  0
 25 48  1  0  0  0  0
 26 27  1  0  0  0  0
 26 49  1  0  0  0  0
M  END
$$$$
CHEMBL392416
 OpenBabel12022418103D

 49 50  0  0  0  0  0  0  0  0999 V2000
    1.0191    1.5762    2.0017 C   0  0  0  0  0  0  0  0  0  0  0  0
    2.4583    1.9224    1.6651 C   0  0  0  0  0  0  0  0  0  0  0  0
    3.5272    0.5162    2.0690 S   0  0  0  0  0  0  0  0  0  0  0  0
    5.0991    1.1795    1.6013 C   0  0  0  0  0  0  0  0  0  0  0  0
    5.6162    0.7522    0.0417 S   0  0  0  0  0  0  0  0  0  0  0  0
    5.8074    2.0309    2.5140 N   0  0  0  0  0  0  0  0  0  0  0  0
    6.9418    2.8166    1.9757 C   0  0  0  0  0  0  0  0  0  0  0  0
    6.7911    4.3327    2.1886 C   0  0  0  0  0  0  0  0  0  0  0  0
    5.4647    4.8549    1.5985 C   0  0  0  0  0  0  0  0  0  0  0  0
    7.9325    5.0764    1.4545 C   0  0  0  0  0  0  0  0  0  0  0  0
    6.8937    4.6458    3.6804 C   0  0  0  0  0  0  0  0  0  0  0  0
    6.5349    3.3006    4.8229 S   0  0  0  0  0  0  0  0  0  0  0  0
    5.5984    2.0932    3.9220 C   0  0  0  0  0  0  0  0  0  0  0  0
    4.8058    1.2505    4.5284 N   0  0  0  0  0  0  0  0  0  0  0  0
    4.5118    1.2920    5.9128 C   0  0  0  0  0  0  0  0  0  0  0  0
    3.9338    2.4586    6.4392 C   0  0  0  0  0  0  0  0  0  0  0  0
    3.6778    2.6179    7.8048 C   0  0  0  0  0  0  0  0  0  0  0  0
    3.9227    1.5620    8.6680 C   0  0  0  0  0  0  0  0  0  0  0  0
    4.3754    0.3422    8.1474 C   0  0  0  0  0  0  0  0  0  0  0  0
    4.6808    0.1794    6.7797 C   0  0  0  0  0  0  0  0  0  0  0  0
    5.0526   -1.2410    6.3750 C   0  0  0  0  0  0  0  0  0  0  0  0
    3.7989   -2.0527    6.0316 C   0  0  0  0  0  0  0  0  0  0  0  0
    6.1187   -1.3980    5.2924 C   0  0  0  0  0  0  0  0  0  0  0  0
    0.3688    2.4333    1.7968 H   0  0  0  0  0  0  0  0  0  0  0  0
    0.9027    1.3182    3.0588 H   0  0  0  0  0  0  0  0  0  0  0  0
    0.6566    0.7364    1.3947 H   0  0  0  0  0  0  0  0  0  0  0  0
    2.7731    2.8000    2.2423 H   0  0  0  0  0  0  0  0  0  0  0  0
    2.5436    2.1622    0.6005 H   0  0  0  0  0  0  0  0  0  0  0  0
    7.0940    2.6548    0.9084 H   0  0  0  0  0  0  0  0  0  0  0  0
    7.8576    2.4481    2.4585 H   0  0  0  0  0  0  0  0  0  0  0  0
    5.4133    4.6660    0.5204 H   0  0  0  0  0  0  0  0  0  0  0  0
    5.3701    5.9384    1.7426 H   0  0  0  0  0  0  0  0  0  0  0  0
    4.5923    4.3902    2.0651 H   0  0  0  0  0  0  0  0  0  0  0  0
    7.9061    4.8897    0.3758 H   0  0  0  0  0  0  0  0  0  0  0  0
    8.9142    4.7585    1.8193 H   0  0  0  0  0  0  0  0  0  0  0  0
    7.8575    6.1528    1.6045 H   0  0  0  0  0  0  0  0  0  0  0  0
    6.3115    5.5364    3.9444 H   0  0  0  0  0  0  0  0  0  0  0  0
    7.9328    4.9037    3.9212 H   0  0  0  0  0  0  0  0  0  0  0  0
    3.7076    3.2879    5.7760 H   0  0  0  0  0  0  0  0  0  0  0  0
    3.2876    3.5584    8.1777 H   0  0  0  0  0  0  0  0  0  0  0  0
    3.7254    1.6711    9.7313 H   0  0  0  0  0  0  0  0  0  0  0  0
    4.5082   -0.4813    8.8485 H   0  0  0  0  0  0  0  0  0  0  0  0
    5.4999   -1.7179    7.2621 H   0  0  0  0  0  0  0  0  0  0  0  0
    3.2332   -1.5918    5.2149 H   0  0  0  0  0  0  0  0  0  0  0  0
    3.1340   -2.1242    6.8974 H   0  0  0  0  0  0  0  0  0  0  0  0
    4.0595   -3.0742    5.7338 H   0  0  0  0  0  0  0  0  0  0  0  0
    5.7301   -1.1869    4.2909 H   0  0  0  0  0  0  0  0  0  0  0  0
    6.4840   -2.4337    5.2793 H   0  0  0  0  0  0  0  0  0  0  0  0
    6.9823   -0.7496    5.4822 H   0  0  0  0  0  0  0  0  0  0  0  0
  1  2  1  0  0  0  0
  1 24  1  0  0  0  0
  1 25  1  0  0  0  0
  1 26  1  0  0  0  0
  2  3  1  0  0  0  0
  2 27  1  0  0  0  0
  2 28  1  0  0  0  0
  3  4  1  0  0  0  0
  4  5  2  0  0  0  0
  4  6  1  0  0  0  0
  6 13  1  0  0  0  0
  6  7  1  0  0  0  0
  7  8  1  0  0  0  0
  7 29  1  0  0  0  0
  7 30  1  0  0  0  0
  8  9  1  0  0  0  0
  8 10  1  0  0  0  0
  8 11  1  0  0  0  0
  9 31  1  0  0  0  0
  9 32  1  0  0  0  0
  9 33  1  0  0  0  0
 10 34  1  0  0  0  0
 10 35  1  0  0  0  0
 10 36  1  0  0  0  0
 11 12  1  0  0  0  0
 11 37  1  0  0  0  0
 11 38  1  0  0  0  0
 12 13  1  0  0  0  0
 13 14  2  0  0  0  0
 14 15  1  0  0  0  0
 15 20  2  0  0  0  0
 15 16  1  0  0  0  0
 16 17  2  0  0  0  0
 16 39  1  0  0  0  0
 17 18  1  0  0  0  0
 17 40  1  0  0  0  0
 18 19  2  0  0  0  0
 18 41  1  0  0  0  0
 19 20  1  0  0  0  0
 19 42  1  0  0  0  0
 20 21  1  0  0  0  0
 21 22  1  0  0  0  0
 21 23  1  0  0  0  0
 21 43  1  0  0  0  0
 22 44  1  0  0  0  0
 22 45  1  0  0  0  0
 22 46  1  0  0  0  0
 23 47  1  0  0  0  0
 23 48  1  0  0  0  0
 23 49  1  0  0  0  0
M  END
$$$$
CHEMBL3353438
 OpenBabel12022418103D

 58 60  0  0  1  0  0  0  0  0999 V2000
   -2.3955    0.6352   -0.0499 C   0  0  0  0  0  0  0  0  0  0  0  0
   -2.3007   -0.7458   -0.0587 C   0  0  0  0  0  0  0  0  0  0  0  0
   -1.1296   -1.4174   -0.0229 N   0  0  0  0  0  0  0  0  0  0  0  0
    0.0159   -0.6962    0.0032 C   0  0  0  0  0  0  0  0  0  0  0  0
    0.0142    0.7014    0.0188 C   0  0  0  0  0  0  0  0  0  0  0  0
   -1.2158    1.3681   -0.0010 C   0  0  0  0  0  0  0  0  0  0  0  0
    1.2706    1.4450    0.0292 C   0  0  0  0  0  0  0  0  0  0  0  0
    2.4485    0.8009   -0.0306 C   0  0  0  0  0  0  0  0  0  0  0  0
    2.4675   -0.6927   -0.0925 C   0  0  0  0  0  0  0  0  0  0  0  0
    3.5490   -1.2777   -0.1994 O   0  0  0  0  0  0  0  0  0  0  0  0
    1.2606   -1.3748   -0.0194 N   0  0  0  0  0  0  0  0  0  0  0  0
    1.2775   -2.8414   -0.0526 C   0  0  0  0  0  0  0  0  0  0  0  0
    1.9401   -3.4325    1.1969 C   0  0  0  0  0  0  0  0  0  0  0  0
    1.9599   -4.9625    1.2015 C   0  0  0  0  0  0  0  0  0  0  0  0
    2.7048   -5.4531    2.4457 C   0  0  0  0  0  0  0  0  0  0  0  0
    2.7688   -6.9726    2.5413 C   0  0  0  0  0  0  0  0  0  0  0  0
    3.5124   -7.4017    3.7958 C   0  0  0  0  0  0  0  0  0  0  0  0
    3.5418   -8.7596    3.8453 F   0  0  0  0  0  0  0  0  0  0  0  0
    3.6991    1.6358   -0.0790 C   0  0  0  0  0  0  0  0  0  0  0  0
    3.6505    2.8642   -0.0694 O   0  0  0  0  0  0  0  0  0  0  0  0
    4.8764    0.9336   -0.1588 N   0  0  0  0  0  0  0  0  0  0  0  0
    6.1817    1.5460   -0.3647 C   0  0  2  0  0  0  0  0  0  0  0  0
    7.1048    0.5945   -1.1394 C   0  0  0  0  0  0  0  0  0  0  0  0
    7.6480   -0.5563   -0.2900 C   0  0  0  0  0  0  0  0  0  0  0  0
    8.3203   -0.0543    0.9922 C   0  0  1  0  0  0  0  0  0  0  0  0
    7.3688    0.8434    1.7922 C   0  0  0  0  0  0  0  0  0  0  0  0
    6.8215    1.9988    0.9533 C   0  0  0  0  0  0  0  0  0  0  0  0
    8.7982   -1.2289    1.8467 C   0  0  0  0  0  0  0  0  0  0  0  0
   -3.3622    1.1217   -0.0900 H   0  0  0  0  0  0  0  0  0  0  0  0
   -3.1905   -1.3691   -0.1070 H   0  0  0  0  0  0  0  0  0  0  0  0
   -1.2646    2.4544    0.0068 H   0  0  0  0  0  0  0  0  0  0  0  0
    1.2204    2.5297    0.0634 H   0  0  0  0  0  0  0  0  0  0  0  0
    1.8389   -3.1418   -0.9460 H   0  0  0  0  0  0  0  0  0  0  0  0
    0.2712   -3.2577   -0.1595 H   0  0  0  0  0  0  0  0  0  0  0  0
    1.4212   -3.0672    2.0914 H   0  0  0  0  0  0  0  0  0  0  0  0
    2.9744   -3.0803    1.2772 H   0  0  0  0  0  0  0  0  0  0  0  0
    2.4576   -5.3354    0.2980 H   0  0  0  0  0  0  0  0  0  0  0  0
    0.9348   -5.3509    1.1960 H   0  0  0  0  0  0  0  0  0  0  0  0
    2.2123   -5.0541    3.3410 H   0  0  0  0  0  0  0  0  0  0  0  0
    3.7258   -5.0507    2.4370 H   0  0  0  0  0  0  0  0  0  0  0  0
    3.2711   -7.3932    1.6624 H   0  0  0  0  0  0  0  0  0  0  0  0
    1.7596   -7.3999    2.5557 H   0  0  0  0  0  0  0  0  0  0  0  0
    3.0139   -7.0413    4.7009 H   0  0  0  0  0  0  0  0  0  0  0  0
    4.5456   -7.0408    3.7943 H   0  0  0  0  0  0  0  0  0  0  0  0
    4.8225   -0.0855   -0.1318 H   0  0  0  0  0  0  0  0  0  0  0  0
    6.0133    2.4363   -0.9831 H   0  0  0  0  0  0  0  0  0  0  0  0
    7.9543    1.1680   -1.5308 H   0  0  0  0  0  0  0  0  0  0  0  0
    6.5775    0.1799   -2.0077 H   0  0  0  0  0  0  0  0  0  0  0  0
    8.3714   -1.1269   -0.8858 H   0  0  0  0  0  0  0  0  0  0  0  0
    6.8348   -1.2491   -0.0408 H   0  0  0  0  0  0  0  0  0  0  0  0
    9.2024    0.5368    0.7112 H   0  0  0  0  0  0  0  0  0  0  0  0
    7.8990    1.2558    2.6598 H   0  0  0  0  0  0  0  0  0  0  0  0
    6.5344    0.2500    2.1856 H   0  0  0  0  0  0  0  0  0  0  0  0
    6.1044    2.5716    1.5529 H   0  0  0  0  0  0  0  0  0  0  0  0
    7.6515    2.6792    0.7215 H   0  0  0  0  0  0  0  0  0  0  0  0
    7.9594   -1.8570    2.1660 H   0  0  0  0  0  0  0  0  0  0  0  0
    9.3137   -0.8722    2.7448 H   0  0  0  0  0  0  0  0  0  0  0  0
    9.4982   -1.8591    1.2878 H   0  0  0  0  0  0  0  0  0  0  0  0
  1  6  2  0  0  0  0
  1  2  1  0  0  0  0
  1 29  1  0  0  0  0
  2  3  2  0  0  0  0
  2 30  1  0  0  0  0
  3  4  1  0  0  0  0
  4 11  1  0  0  0  0
  4  5  2  0  0  0  0
  5  6  1  0  0  0  0
  5  7  1  0  0  0  0
  6 31  1  0  0  0  0
  7  8  2  0  0  0  0
  7 32  1  0  0  0  0
  8  9  1  0  0  0  0
  8 19  1  0  0  0  0
  9 10  2  0  0  0  0
  9 11  1  0  0  0  0
 11 12  1  0  0  0  0
 12 13  1  0  0  0  0
 12 33  1  0  0  0  0
 12 34  1  0  0  0  0
 13 14  1  0  0  0  0
 13 35  1  0  0  0  0
 13 36  1  0  0  0  0
 14 15  1  0  0  0  0
 14 37  1  0  0  0  0
 14 38  1  0  0  0  0
 15 16  1  0  0  0  0
 15 39  1  0  0  0  0
 15 40  1  0  0  0  0
 16 17  1  0  0  0  0
 16 41  1  0  0  0  0
 16 42  1  0  0  0  0
 17 18  1  0  0  0  0
 17 43  1  0  0  0  0
 17 44  1  0  0  0  0
 19 20  2  0  0  0  0
 19 21  1  0  0  0  0
 21 45  1  0  0  0  0
 22 21  1  0  0  0  0
 22 23  1  0  0  0  0
 22 27  1  0  0  0  0
 22 46  1  6  0  0  0
 23 24  1  0  0  0  0
 23 47  1  0  0  0  0
 23 48  1  0  0  0  0
 24 25  1  0  0  0  0
 24 49  1  0  0  0  0
 24 50  1  0  0  0  0
 25 26  1  0  0  0  0
 25 28  1  0  0  0  0
 25 51  1  6  0  0  0
 26 27  1  0  0  0  0
 26 52  1  0  0  0  0
 26 53  1  0  0  0  0
 27 54  1  0  0  0  0
 27 55  1  0  0  0  0
 28 56  1  0  0  0  0
 28 57  1  0  0  0  0
 28 58  1  0  0  0  0
M  END
$$$$
CHEMBL125061
 OpenBabel12022418103D

 62 63  0  0  0  0  0  0  0  0999 V2000
    6.9519   -4.3047   -2.2574 C   0  0  0  0  0  0  0  0  0  0  0  0
    6.4495   -3.0123   -1.6330 C   0  0  0  0  0  0  0  0  0  0  0  0
    6.9007   -1.8053   -2.4467 C   0  0  0  0  0  0  0  0  0  0  0  0
    6.4278   -0.4811   -1.8396 C   0  0  0  0  0  0  0  0  0  0  0  0
    6.9030    0.6730   -2.7192 C   0  0  0  0  0  0  0  0  0  0  0  0
    6.4499    2.0551   -2.2073 C   0  0  0  0  0  0  0  0  0  0  0  0
    6.9228    3.2392   -3.1035 C   0  0  0  0  0  0  0  0  0  0  0  0
    6.3360    3.0888   -4.5270 C   0  0  0  0  0  0  0  0  0  0  0  0
    6.4120    4.5833   -2.5372 C   0  0  0  0  0  0  0  0  0  0  0  0
    8.4441    3.3010   -3.1188 C   0  0  0  0  0  0  0  0  0  0  0  0
    9.1365    3.5502   -1.9416 C   0  0  0  0  0  0  0  0  0  0  0  0
   10.5193    3.6364   -1.9662 C   0  0  0  0  0  0  0  0  0  0  0  0
   11.3400    3.3867   -3.0819 C   0  0  0  0  0  0  0  0  0  0  0  0
   12.8571    3.3085   -2.9505 C   0  0  0  0  0  0  0  0  0  0  0  0
   13.6231    2.9662   -4.0999 C   0  0  0  0  0  0  0  0  0  0  0  0
   15.0056    2.8160   -4.1775 C   0  0  0  0  0  0  0  0  0  0  0  0
   15.6351    2.4595   -5.4876 C   0  0  0  0  0  0  0  0  0  0  0  0
   15.7209    2.9713   -3.0221 C   0  0  0  0  0  0  0  0  0  0  0  0
   15.0499    3.2911   -1.8480 C   0  0  0  0  0  0  0  0  0  0  0  0
   13.6355    3.4525   -1.7500 C   0  0  0  0  0  0  0  0  0  0  0  0
   13.0899    3.6538   -0.3157 C   0  0  0  0  0  0  0  0  0  0  0  0
   13.9484    3.0303    0.7987 C   0  0  0  0  0  0  0  0  0  0  0  0
   12.7694    5.1101    0.0815 C   0  0  0  0  0  0  0  0  0  0  0  0
   10.5824    3.1861   -4.2666 C   0  0  0  0  0  0  0  0  0  0  0  0
    9.1853    3.1510   -4.2591 C   0  0  0  0  0  0  0  0  0  0  0  0
   11.0095    2.9875   -5.5506 O   0  0  0  0  0  0  0  0  0  0  0  0
    6.6249   -5.1648   -1.6693 H   0  0  0  0  0  0  0  0  0  0  0  0
    8.0459   -4.3163   -2.3047 H   0  0  0  0  0  0  0  0  0  0  0  0
    6.5679   -4.4208   -3.2765 H   0  0  0  0  0  0  0  0  0  0  0  0
    6.8291   -2.9358   -0.6073 H   0  0  0  0  0  0  0  0  0  0  0  0
    5.3554   -3.0385   -1.5757 H   0  0  0  0  0  0  0  0  0  0  0  0
    6.5210   -1.8970   -3.4725 H   0  0  0  0  0  0  0  0  0  0  0  0
    7.9966   -1.7988   -2.5132 H   0  0  0  0  0  0  0  0  0  0  0  0
    6.8106   -0.3759   -0.8179 H   0  0  0  0  0  0  0  0  0  0  0  0
    5.3318   -0.4708   -1.7848 H   0  0  0  0  0  0  0  0  0  0  0  0
    6.5123    0.5080   -3.7279 H   0  0  0  0  0  0  0  0  0  0  0  0
    7.9960    0.6381   -2.7865 H   0  0  0  0  0  0  0  0  0  0  0  0
    6.8147    2.1779   -1.1807 H   0  0  0  0  0  0  0  0  0  0  0  0
    5.3556    2.0673   -2.1472 H   0  0  0  0  0  0  0  0  0  0  0  0
    5.2438    3.0821   -4.4988 H   0  0  0  0  0  0  0  0  0  0  0  0
    6.6636    2.1653   -5.0132 H   0  0  0  0  0  0  0  0  0  0  0  0
    6.6487    3.9140   -5.1774 H   0  0  0  0  0  0  0  0  0  0  0  0
    5.3216    4.6517   -2.5945 H   0  0  0  0  0  0  0  0  0  0  0  0
    6.8367    5.4284   -3.0960 H   0  0  0  0  0  0  0  0  0  0  0  0
    6.6902    4.7246   -1.4865 H   0  0  0  0  0  0  0  0  0  0  0  0
    8.6222    3.7023   -0.9940 H   0  0  0  0  0  0  0  0  0  0  0  0
   10.8945    3.9350   -1.0044 H   0  0  0  0  0  0  0  0  0  0  0  0
   13.1863    2.6938   -5.0371 H   0  0  0  0  0  0  0  0  0  0  0  0
   14.8861    2.3493   -6.2833 H   0  0  0  0  0  0  0  0  0  0  0  0
   16.1660    1.5033   -5.4088 H   0  0  0  0  0  0  0  0  0  0  0  0
   16.3238    3.2514   -5.8034 H   0  0  0  0  0  0  0  0  0  0  0  0
   16.7986    2.8129   -3.0041 H   0  0  0  0  0  0  0  0  0  0  0  0
   15.6880    3.3644   -0.9747 H   0  0  0  0  0  0  0  0  0  0  0  0
   12.2005    3.0287   -0.2118 H   0  0  0  0  0  0  0  0  0  0  0  0
   14.9668    3.4175    0.8184 H   0  0  0  0  0  0  0  0  0  0  0  0
   13.9783    1.9439    0.6625 H   0  0  0  0  0  0  0  0  0  0  0  0
   13.5183    3.2400    1.7811 H   0  0  0  0  0  0  0  0  0  0  0  0
   13.6728    5.6761    0.3281 H   0  0  0  0  0  0  0  0  0  0  0  0
   12.1360    5.1156    0.9819 H   0  0  0  0  0  0  0  0  0  0  0  0
   12.2259    5.6707   -0.6866 H   0  0  0  0  0  0  0  0  0  0  0  0
    8.7018    2.9410   -5.2319 H   0  0  0  0  0  0  0  0  0  0  0  0
   11.8694    3.3859   -5.6943 H   0  0  0  0  0  0  0  0  0  0  0  0
  1  2  1  0  0  0  0
  1 27  1  0  0  0  0
  1 28  1  0  0  0  0
  1 29  1  0  0  0  0
  2  3  1  0  0  0  0
  2 30  1  0  0  0  0
  2 31  1  0  0  0  0
  3  4  1  0  0  0  0
  3 32  1  0  0  0  0
  3 33  1  0  0  0  0
  4  5  1  0  0  0  0
  4 34  1  0  0  0  0
  4 35  1  0  0  0  0
  5  6  1  0  0  0  0
  5 36  1  0  0  0  0
  5 37  1  0  0  0  0
  6  7  1  0  0  0  0
  6 38  1  0  0  0  0
  6 39  1  0  0  0  0
  7  8  1  0  0  0  0
  7  9  1  0  0  0  0
  7 10  1  0  0  0  0
  8 40  1  0  0  0  0
  8 41  1  0  0  0  0
  8 42  1  0  0  0  0
  9 43  1  0  0  0  0
  9 44  1  0  0  0  0
  9 45  1  0  0  0  0
 10 25  2  0  0  0  0
 10 11  1  0  0  0  0
 11 12  2  0  0  0  0
 11 46  1  0  0  0  0
 12 13  1  0  0  0  0
 12 47  1  0  0  0  0
 13 14  1  0  0  0  0
 13 24  2  0  0  0  0
 14 20  2  0  0  0  0
 14 15  1  0  0  0  0
 15 16  2  0  0  0  0
 15 48  1  0  0  0  0
 16 17  1  0  0  0  0
 16 18  1  0  0  0  0
 17 49  1  0  0  0  0
 17 50  1  0  0  0  0
 17 51  1  0  0  0  0
 18 19  2  0  0  0  0
 18 52  1  0  0  0  0
 19 20  1  0  0  0  0
 19 53  1  0  0  0  0
 20 21  1  0  0  0  0
 21 22  1  0  0  0  0
 21 23  1  0  0  0  0
 21 54  1  0  0  0  0
 22 55  1  0  0  0  0
 22 56  1  0  0  0  0
 22 57  1  0  0  0  0
 23 58  1  0  0  0  0
 23 59  1  0  0  0  0
 23 60  1  0  0  0  0
 24 25  1  0  0  0  0
 24 26  1  0  0  0  0
 25 61  1  0  0  0  0
 26 62  1  0  0  0  0
M  END
$$$$
CHEMBL3234035
 OpenBabel12022418103D

 72 74  0  0  1  0  0  0  0  0999 V2000
   -6.4323   -5.4748    9.4359 C   0  0  0  0  0  0  0  0  0  0  0  0
   -6.0362   -5.7997    8.0016 C   0  0  0  0  0  0  0  0  0  0  0  0
   -6.6384   -4.7909    7.0236 C   0  0  0  0  0  0  0  0  0  0  0  0
   -6.2735   -5.0878    5.5641 C   0  0  0  0  0  0  0  0  0  0  0  0
   -6.9104   -4.0423    4.6358 C   0  0  0  0  0  0  0  0  0  0  0  0
   -6.5814   -4.2756    3.1518 C   0  0  0  0  0  0  0  0  0  0  0  0
   -7.1850   -3.2159    2.1590 C   0  0  0  0  0  0  0  0  0  0  0  0
   -6.6288   -1.8194    2.5256 C   0  0  0  0  0  0  0  0  0  0  0  0
   -6.6541   -3.5352    0.7381 C   0  0  0  0  0  0  0  0  0  0  0  0
   -8.7278   -3.2714    2.1136 C   0  0  0  0  0  0  0  0  0  0  0  0
   -9.3802   -4.4541    1.7609 C   0  0  0  0  0  0  0  0  0  0  0  0
  -10.7798   -4.5532    1.7967 C   0  0  0  0  0  0  0  0  0  0  0  0
  -11.6302   -3.4779    2.1609 C   0  0  0  0  0  0  0  0  0  0  0  0
  -13.1086   -3.7856    2.4693 C   0  0  1  0  0  0  0  0  0  0  0  0
  -13.9824   -2.6703    3.0538 C   0  0  0  0  0  0  0  0  0  0  0  0
  -14.5708   -1.9039    1.8787 C   0  0  0  0  0  0  0  0  0  0  0  0
  -14.4975   -0.6719    1.8393 O   0  0  0  0  0  0  0  0  0  0  0  0
  -15.1736   -2.8934    0.7223 C   0  0  1  0  0  0  0  0  0  0  0  0
  -14.0369   -3.5553   -0.0341 C   0  0  0  0  0  0  0  0  0  0  0  0
  -13.8745   -4.3891    1.2720 C   0  0  2  0  0  0  0  0  0  0  0  0
  -15.5485   -4.4005    1.3311 C   0  0  0  0  0  0  0  0  0  0  0  0
  -16.8531   -3.9535    2.0338 C   0  0  0  0  0  0  0  0  0  0  0  0
  -15.7829   -5.9026    1.0602 C   0  0  0  0  0  0  0  0  0  0  0  0
  -10.9692   -2.2454    2.3778 C   0  0  0  0  0  0  0  0  0  0  0  0
   -9.5503   -2.1631    2.3684 C   0  0  0  0  0  0  0  0  0  0  0  0
  -11.6800   -0.9996    2.4668 O   0  0  0  0  0  0  0  0  0  0  0  0
  -11.3183   -0.1660    3.5181 C   0  0  0  0  0  0  0  0  0  0  0  0
  -10.6316   -0.4866    4.4789 O   0  0  0  0  0  0  0  0  0  0  0  0
  -11.8898    1.2011    3.4992 C   0  0  0  0  0  0  0  0  0  0  0  0
  -12.3476    2.1430    2.6338 C   0  0  0  0  0  0  0  0  0  0  0  0
  -12.5216    2.2519    1.1749 C   0  0  0  0  0  0  0  0  0  0  0  0
  -12.6995    3.3466    0.6704 O   0  0  0  0  0  0  0  0  0  0  0  0
  -12.4258    1.1205    0.4905 O   0  0  0  0  0  0  0  0  0  0  0  0
  -11.3138   -5.7781    1.4829 O   0  0  0  0  0  0  0  0  0  0  0  0
   -5.9946   -6.2006   10.1279 H   0  0  0  0  0  0  0  0  0  0  0  0
   -7.5201   -5.5030    9.5584 H   0  0  0  0  0  0  0  0  0  0  0  0
   -6.0824   -4.4779    9.7240 H   0  0  0  0  0  0  0  0  0  0  0  0
   -6.3779   -6.8112    7.7550 H   0  0  0  0  0  0  0  0  0  0  0  0
   -4.9434   -5.7946    7.9207 H   0  0  0  0  0  0  0  0  0  0  0  0
   -6.2913   -3.7836    7.2868 H   0  0  0  0  0  0  0  0  0  0  0  0
   -7.7303   -4.7910    7.1308 H   0  0  0  0  0  0  0  0  0  0  0  0
   -6.6180   -6.0925    5.2908 H   0  0  0  0  0  0  0  0  0  0  0  0
   -5.1828   -5.0744    5.4480 H   0  0  0  0  0  0  0  0  0  0  0  0
   -6.5475   -3.0577    4.9472 H   0  0  0  0  0  0  0  0  0  0  0  0
   -7.9965   -4.0514    4.7783 H   0  0  0  0  0  0  0  0  0  0  0  0
   -6.9060   -5.2863    2.8741 H   0  0  0  0  0  0  0  0  0  0  0  0
   -5.4874   -4.2757    3.0423 H   0  0  0  0  0  0  0  0  0  0  0  0
   -5.5325   -1.8232    2.5324 H   0  0  0  0  0  0  0  0  0  0  0  0
   -6.9613   -1.4858    3.5140 H   0  0  0  0  0  0  0  0  0  0  0  0
   -6.9445   -1.0591    1.8021 H   0  0  0  0  0  0  0  0  0  0  0  0
   -5.5676   -3.4021    0.6807 H   0  0  0  0  0  0  0  0  0  0  0  0
   -7.1102   -2.8761   -0.0107 H   0  0  0  0  0  0  0  0  0  0  0  0
   -6.8653   -4.5681    0.4396 H   0  0  0  0  0  0  0  0  0  0  0  0
   -8.7926   -5.3252    1.4821 H   0  0  0  0  0  0  0  0  0  0  0  0
  -13.0698   -4.5664    3.2482 H   0  0  0  0  0  0  0  0  0  0  0  0
  -13.4584   -2.0353    3.7647 H   0  0  0  0  0  0  0  0  0  0  0  0
  -14.8188   -3.1097    3.6109 H   0  0  0  0  0  0  0  0  0  0  0  0
  -15.9196   -2.4183    0.0810 H   0  0  0  0  0  0  0  0  0  0  0  0
  -13.2096   -2.8998   -0.3159 H   0  0  0  0  0  0  0  0  0  0  0  0
  -14.3687   -4.1066   -0.9242 H   0  0  0  0  0  0  0  0  0  0  0  0
  -13.4205   -5.3368    0.9735 H   0  0  0  0  0  0  0  0  0  0  0  0
  -17.1287   -2.8997    1.8999 H   0  0  0  0  0  0  0  0  0  0  0  0
  -16.8512   -4.1764    3.1014 H   0  0  0  0  0  0  0  0  0  0  0  0
  -17.7097   -4.4876    1.5878 H   0  0  0  0  0  0  0  0  0  0  0  0
  -14.8955   -6.5363    1.1760 H   0  0  0  0  0  0  0  0  0  0  0  0
  -16.2263   -6.0920    0.0837 H   0  0  0  0  0  0  0  0  0  0  0  0
  -16.4509   -6.3249    1.8287 H   0  0  0  0  0  0  0  0  0  0  0  0
   -9.0931   -1.2026    2.5865 H   0  0  0  0  0  0  0  0  0  0  0  0
  -11.8298    1.5869    4.5171 H   0  0  0  0  0  0  0  0  0  0  0  0
  -12.5986    3.0848    3.0836 H   0  0  0  0  0  0  0  0  0  0  0  0
  -12.6328    0.3246    1.0228 H   0  0  0  0  0  0  0  0  0  0  0  0
  -10.6389   -6.3115    1.0285 H   0  0  0  0  0  0  0  0  0  0  0  0
  1  2  1  0  0  0  0
  1 35  1  0  0  0  0
  1 36  1  0  0  0  0
  1 37  1  0  0  0  0
  2  3  1  0  0  0  0
  2 38  1  0  0  0  0
  2 39  1  0  0  0  0
  3  4  1  0  0  0  0
  3 40  1  0  0  0  0
  3 41  1  0  0  0  0
  4  5  1  0  0  0  0
  4 42  1  0  0  0  0
  4 43  1  0  0  0  0
  5  6  1  0  0  0  0
  5 44  1  0  0  0  0
  5 45  1  0  0  0  0
  6  7  1  0  0  0  0
  6 46  1  0  0  0  0
  6 47  1  0  0  0  0
  7  8  1  0  0  0  0
  7  9  1  0  0  0  0
  7 10  1  0  0  0  0
  8 48  1  0  0  0  0
  8 49  1  0  0  0  0
  8 50  1  0  0  0  0
  9 51  1  0  0  0  0
  9 52  1  0  0  0  0
  9 53  1  0  0  0  0
 10 25  2  0  0  0  0
 10 11  1  0  0  0  0
 11 12  2  0  0  0  0
 11 54  1  0  0  0  0
 12 13  1  0  0  0  0
 12 34  1  0  0  0  0
 13 24  2  0  0  0  0
 14 15  1  0  0  0  0
 14 20  1  0  0  0  0
 14 13  1  0  0  0  0
 14 55  1  1  0  0  0
 15 16  1  0  0  0  0
 15 56  1  0  0  0  0
 15 57  1  0  0  0  0
 16 18  1  0  0  0  0
 16 17  2  0  0  0  0
 18 19  1  0  0  0  0
 18 21  1  0  0  0  0
 18 58  1  6  0  0  0
 19 59  1  0  0  0  0
 19 60  1  0  0  0  0
 20 19  1  0  0  0  0
 20 21  1  0  0  0  0
 20 61  1  6  0  0  0
 21 22  1  0  0  0  0
 21 23  1  0  0  0  0
 22 62  1  0  0  0  0
 22 63  1  0  0  0  0
 22 64  1  0  0  0  0
 23 65  1  0  0  0  0
 23 66  1  0  0  0  0
 23 67  1  0  0  0  0
 24 25  1  0  0  0  0
 24 26  1  0  0  0  0
 25 68  1  0  0  0  0
 26 27  1  0  0  0  0
 27 28  2  0  0  0  0
 27 29  1  0  0  0  0
 29 30  2  0  0  0  0
 29 69  1  0  0  0  0
 30 31  1  0  0  0  0
 30 70  1  0  0  0  0
 31 32  2  0  0  0  0
 31 33  1  0  0  0  0
 33 71  1  0  0  0  0
 34 72  1  0  0  0  0
M  END
$$$$
CHEMBL432750
 OpenBabel12022418103D

 72 76  0  0  1  0  0  0  0  0999 V2000
    1.3084   -1.0586    0.1805 C   0  0  0  0  0  0  0  0  0  0  0  0
    2.0194    0.1285    0.0940 C   0  0  0  0  0  0  0  0  0  0  0  0
    3.4584    0.4172   -0.0230 C   0  0  0  0  0  0  0  0  0  0  0  0
    1.1324    1.2006    0.1012 N   0  0  0  0  0  0  0  0  0  0  0  0
   -0.1705    0.7206    0.1331 C   0  0  0  0  0  0  0  0  0  0  0  0
   -0.0811   -0.6845    0.1143 C   0  0  0  0  0  0  0  0  0  0  0  0
   -1.2667   -1.4492    0.0548 C   0  0  0  0  0  0  0  0  0  0  0  0
   -2.5042   -0.8253    0.0029 C   0  0  0  0  0  0  0  0  0  0  0  0
   -2.5817    0.5633    0.0742 C   0  0  0  0  0  0  0  0  0  0  0  0
   -1.4323    1.3681    0.1685 C   0  0  0  0  0  0  0  0  0  0  0  0
   -1.4612    2.7279    0.2905 O   0  0  0  0  0  0  0  0  0  0  0  0
   -2.7194    3.3857    0.3262 C   0  0  0  0  0  0  0  0  0  0  0  0
    1.6326    2.5723    0.1301 C   0  0  0  0  0  0  0  0  0  0  0  0
    2.4289    3.0827   -1.0816 C   0  0  0  0  0  0  0  0  0  0  0  0
    2.8791    4.4167   -0.8831 N   0  0  0  0  0  0  0  0  0  0  0  0
    2.7223    5.3995   -1.9198 C   0  0  0  0  0  0  0  0  0  0  0  0
    4.0581    6.0577   -2.3260 C   0  0  0  0  0  0  0  0  0  0  0  0
    4.8297    6.4669   -1.1885 O   0  0  0  0  0  0  0  0  0  0  0  0
    5.1032    5.3518   -0.3344 C   0  0  0  0  0  0  0  0  0  0  0  0
    3.8083    4.7288    0.1929 C   0  0  0  0  0  0  0  0  0  0  0  0
    1.7959   -2.4587    0.3034 C   0  0  0  0  0  0  0  0  0  0  0  0
    1.1584   -3.4562   -0.1072 O   0  0  0  0  0  0  0  0  0  0  0  0
    2.9474   -2.5722    0.9900 N   0  0  0  0  0  0  0  0  0  0  0  0
    3.7811   -3.7171    1.4490 C   0  0  2  0  0  0  0  0  0  0  0  0
    3.3193   -4.2193    2.8823 C   0  0  1  0  0  0  0  0  0  0  0  0
    4.6218   -4.4798    3.6610 C   0  0  0  0  0  0  0  0  0  0  0  0
    5.2323   -3.1117    3.2905 C   0  0  1  0  0  0  0  0  0  0  0  0
    5.2441   -3.1746    1.7278 C   0  0  0  0  0  0  0  0  0  0  0  0
    6.4103   -4.0899    1.3028 C   0  0  0  0  0  0  0  0  0  0  0  0
    5.5484   -1.8880    0.9342 C   0  0  0  0  0  0  0  0  0  0  0  0
    4.1367   -2.1686    3.8334 C   0  0  0  0  0  0  0  0  0  0  0  0
    2.8391   -3.0073    3.7039 C   0  0  0  0  0  0  0  0  0  0  0  0
    2.2986   -5.3453    2.8664 C   0  0  0  0  0  0  0  0  0  0  0  0
    3.9595   -0.4667   -0.3480 H   0  0  0  0  0  0  0  0  0  0  0  0
    3.8694    0.8676    0.8702 H   0  0  0  0  0  0  0  0  0  0  0  0
    3.7232    1.0240   -0.8799 H   0  0  0  0  0  0  0  0  0  0  0  0
   -1.2004   -2.5356    0.0239 H   0  0  0  0  0  0  0  0  0  0  0  0
   -3.4012   -1.4303   -0.0773 H   0  0  0  0  0  0  0  0  0  0  0  0
   -3.5787    0.9939    0.0575 H   0  0  0  0  0  0  0  0  0  0  0  0
   -2.5150    4.4559    0.2285 H   0  0  0  0  0  0  0  0  0  0  0  0
   -3.2273    3.2282    1.2826 H   0  0  0  0  0  0  0  0  0  0  0  0
   -3.3605    3.1053   -0.5131 H   0  0  0  0  0  0  0  0  0  0  0  0
    2.2739    2.6253    1.0298 H   0  0  0  0  0  0  0  0  0  0  0  0
    0.7967    3.2503    0.3003 H   0  0  0  0  0  0  0  0  0  0  0  0
    1.8521    2.9250   -1.9975 H   0  0  0  0  0  0  0  0  0  0  0  0
    3.3850    2.5730   -1.2730 H   0  0  0  0  0  0  0  0  0  0  0  0
    2.0598    6.1691   -1.4908 H   0  0  0  0  0  0  0  0  0  0  0  0
    2.2229    5.0071   -2.8057 H   0  0  0  0  0  0  0  0  0  0  0  0
    3.8516    6.9453   -2.9284 H   0  0  0  0  0  0  0  0  0  0  0  0
    4.6535    5.3670   -2.9339 H   0  0  0  0  0  0  0  0  0  0  0  0
    5.7063    5.7054    0.5089 H   0  0  0  0  0  0  0  0  0  0  0  0
    5.7005    4.6090   -0.8808 H   0  0  0  0  0  0  0  0  0  0  0  0
    4.0565    3.8637    0.8098 H   0  0  0  0  0  0  0  0  0  0  0  0
    3.2838    5.4472    0.8354 H   0  0  0  0  0  0  0  0  0  0  0  0
    3.1163   -1.7139    1.5128 H   0  0  0  0  0  0  0  0  0  0  0  0
    3.7623   -4.5129    0.6981 H   0  0  0  0  0  0  0  0  0  0  0  0
    5.1782   -5.3606    3.3397 H   0  0  0  0  0  0  0  0  0  0  0  0
    4.4618   -4.5722    4.7449 H   0  0  0  0  0  0  0  0  0  0  0  0
    6.2138   -2.9058    3.7243 H   0  0  0  0  0  0  0  0  0  0  0  0
    6.4679   -5.0264    1.8522 H   0  0  0  0  0  0  0  0  0  0  0  0
    7.3586   -3.5659    1.5010 H   0  0  0  0  0  0  0  0  0  0  0  0
    6.3804   -4.3204    0.2354 H   0  0  0  0  0  0  0  0  0  0  0  0
    4.8583   -1.0862    1.1590 H   0  0  0  0  0  0  0  0  0  0  0  0
    5.4908   -2.0948   -0.1495 H   0  0  0  0  0  0  0  0  0  0  0  0
    6.5232   -1.4517    1.1405 H   0  0  0  0  0  0  0  0  0  0  0  0
    4.1528   -1.2259    3.2812 H   0  0  0  0  0  0  0  0  0  0  0  0
    4.2974   -1.9293    4.8906 H   0  0  0  0  0  0  0  0  0  0  0  0
    2.5108   -3.3264    4.7030 H   0  0  0  0  0  0  0  0  0  0  0  0
    1.9748   -2.5191    3.2495 H   0  0  0  0  0  0  0  0  0  0  0  0
    1.5046   -5.1377    2.1414 H   0  0  0  0  0  0  0  0  0  0  0  0
    1.8153   -5.4600    3.8436 H   0  0  0  0  0  0  0  0  0  0  0  0
    2.7484   -6.3092    2.6047 H   0  0  0  0  0  0  0  0  0  0  0  0
  1  6  1  0  0  0  0
  1  2  2  0  0  0  0
  1 21  1  0  0  0  0
  2  3  1  0  0  0  0
  2  4  1  0  0  0  0
  3 34  1  0  0  0  0
  3 35  1  0  0  0  0
  3 36  1  0  0  0  0
  4  5  1  0  0  0  0
  4 13  1  0  0  0  0
  5 10  2  0  0  0  0
  5  6  1  0  0  0  0
  6  7  2  0  0  0  0
  7  8  1  0  0  0  0
  7 37  1  0  0  0  0
  8  9  2  0  0  0  0
  8 38  1  0  0  0  0
  9 10  1  0  0  0  0
  9 39  1  0  0  0  0
 10 11  1  0  0  0  0
 11 12  1  0  0  0  0
 12 40  1  0  0  0  0
 12 41  1  0  0  0  0
 12 42  1  0  0  0  0
 13 14  1  0  0  0  0
 13 43  1  0  0  0  0
 13 44  1  0  0  0  0
 14 15  1  0  0  0  0
 14 45  1  0  0  0  0
 14 46  1  0  0  0  0
 15 20  1  0  0  0  0
 15 16  1  0  0  0  0
 16 17  1  0  0  0  0
 16 47  1  0  0  0  0
 16 48  1  0  0  0  0
 17 18  1  0  0  0  0
 17 49  1  0  0  0  0
 17 50  1  0  0  0  0
 18 19  1  0  0  0  0
 19 20  1  0  0  0  0
 19 51  1  0  0  0  0
 19 52  1  0  0  0  0
 20 53  1  0  0  0  0
 20 54  1  0  0  0  0
 21 22  2  0  0  0  0
 21 23  1  0  0  0  0
 23 55  1  0  0  0  0
 24 23  1  0  0  0  0
 24 25  1  0  0  0  0
 24 28  1  0  0  0  0
 24 56  1  6  0  0  0
 25 32  1  0  0  0  0
 25 26  1  0  0  0  0
 25 33  1  6  0  0  0
 26 57  1  0  0  0  0
 26 58  1  0  0  0  0
 27 26  1  0  0  0  0
 27 28  1  0  0  0  0
 27 31  1  0  0  0  0
 27 59  1  1  0  0  0
 28 29  1  0  0  0  0
 28 30  1  0  0  0  0
 29 60  1  0  0  0  0
 29 61  1  0  0  0  0
 29 62  1  0  0  0  0
 30 63  1  0  0  0  0
 30 64  1  0  0  0  0
 30 65  1  0  0  0  0
 31 32  1  0  0  0  0
 31 66  1  0  0  0  0
 31 67  1  0  0  0  0
 32 68  1  0  0  0  0
 32 69  1  0  0  0  0
 33 70  1  0  0  0  0
 33 71  1  0  0  0  0
 33 72  1  0  0  0  0
M  END
$$$$
CHEMBL248137
 OpenBabel12022418103D

 49 50  0  0  0  0  0  0  0  0999 V2000
    2.3838   -2.4084    1.3704 C   0  0  0  0  0  0  0  0  0  0  0  0
    3.4667   -1.4146    0.9749 C   0  0  0  0  0  0  0  0  0  0  0  0
    3.5065   -0.0414    2.1615 S   0  0  0  0  0  0  0  0  0  0  0  0
    5.1085    0.6424    1.8285 C   0  0  0  0  0  0  0  0  0  0  0  0
    5.5781    0.4908    0.7022 O   0  0  0  0  0  0  0  0  0  0  0  0
    5.7304    1.4107    2.8383 N   0  0  0  0  0  0  0  0  0  0  0  0
    6.8481    2.2437    2.3589 C   0  0  0  0  0  0  0  0  0  0  0  0
    6.7848    3.7099    2.8246 C   0  0  0  0  0  0  0  0  0  0  0  0
    5.4786    4.3834    2.3606 C   0  0  0  0  0  0  0  0  0  0  0  0
    7.9583    4.5181    2.2224 C   0  0  0  0  0  0  0  0  0  0  0  0
    6.9474    3.7655    4.3402 C   0  0  0  0  0  0  0  0  0  0  0  0
    6.2960    2.4122    5.3042 S   0  0  0  0  0  0  0  0  0  0  0  0
    5.5425    1.2472    4.2238 C   0  0  0  0  0  0  0  0  0  0  0  0
    4.8478    0.2349    4.6796 N   0  0  0  0  0  0  0  0  0  0  0  0
    4.5092    0.0568    6.0421 C   0  0  0  0  0  0  0  0  0  0  0  0
    3.8735    1.1140    6.7332 C   0  0  0  0  0  0  0  0  0  0  0  0
    3.6144    1.0629    8.0988 C   0  0  0  0  0  0  0  0  0  0  0  0
    3.8818   -0.0969    8.7986 C   0  0  0  0  0  0  0  0  0  0  0  0
    4.3728   -1.2104    8.1121 C   0  0  0  0  0  0  0  0  0  0  0  0
    4.6872   -1.1619    6.7324 C   0  0  0  0  0  0  0  0  0  0  0  0
    5.0980   -2.4962    6.1130 C   0  0  0  0  0  0  0  0  0  0  0  0
    3.8525   -3.2626    5.6409 C   0  0  0  0  0  0  0  0  0  0  0  0
    6.1588   -2.4691    5.0153 C   0  0  0  0  0  0  0  0  0  0  0  0
    2.2268   -3.1351    0.5657 H   0  0  0  0  0  0  0  0  0  0  0  0
    1.4229   -1.9192    1.5623 H   0  0  0  0  0  0  0  0  0  0  0  0
    2.6703   -2.9713    2.2661 H   0  0  0  0  0  0  0  0  0  0  0  0
    3.2516   -1.0091   -0.0180 H   0  0  0  0  0  0  0  0  0  0  0  0
    4.4317   -1.9305    0.9363 H   0  0  0  0  0  0  0  0  0  0  0  0
    6.8989    2.2382    1.2645 H   0  0  0  0  0  0  0  0  0  0  0  0
    7.7761    1.7747    2.7121 H   0  0  0  0  0  0  0  0  0  0  0  0
    5.4300    4.4196    1.2655 H   0  0  0  0  0  0  0  0  0  0  0  0
    5.4153    5.4142    2.7236 H   0  0  0  0  0  0  0  0  0  0  0  0
    4.5907    3.8560    2.7142 H   0  0  0  0  0  0  0  0  0  0  0  0
    7.9346    4.5158    1.1272 H   0  0  0  0  0  0  0  0  0  0  0  0
    8.9288    4.1073    2.5358 H   0  0  0  0  0  0  0  0  0  0  0  0
    7.9249    5.5613    2.5570 H   0  0  0  0  0  0  0  0  0  0  0  0
    6.5715    4.7171    4.7351 H   0  0  0  0  0  0  0  0  0  0  0  0
    8.0143    3.7563    4.5881 H   0  0  0  0  0  0  0  0  0  0  0  0
    3.6121    2.0233    6.1976 H   0  0  0  0  0  0  0  0  0  0  0  0
    3.2057    1.9322    8.6072 H   0  0  0  0  0  0  0  0  0  0  0  0
    3.6788   -0.1582    9.8626 H   0  0  0  0  0  0  0  0  0  0  0  0
    4.5009   -2.1360    8.6681 H   0  0  0  0  0  0  0  0  0  0  0  0
    5.5493   -3.0932    6.9175 H   0  0  0  0  0  0  0  0  0  0  0  0
    3.2721   -2.6820    4.9184 H   0  0  0  0  0  0  0  0  0  0  0  0
    3.1964   -3.4968    6.4861 H   0  0  0  0  0  0  0  0  0  0  0  0
    4.1316   -4.2127    5.1722 H   0  0  0  0  0  0  0  0  0  0  0  0
    5.7591   -2.1300    4.0569 H   0  0  0  0  0  0  0  0  0  0  0  0
    6.5447   -3.4858    4.8565 H   0  0  0  0  0  0  0  0  0  0  0  0
    7.0087   -1.8383    5.2946 H   0  0  0  0  0  0  0  0  0  0  0  0
  1  2  1  0  0  0  0
  1 24  1  0  0  0  0
  1 25  1  0  0  0  0
  1 26  1  0  0  0  0
  2  3  1  0  0  0  0
  2 27  1  0  0  0  0
  2 28  1  0  0  0  0
  3  4  1  0  0  0  0
  4  5  2  0  0  0  0
  4  6  1  0  0  0  0
  6 13  1  0  0  0  0
  6  7  1  0  0  0  0
  7  8  1  0  0  0  0
  7 29  1  0  0  0  0
  7 30  1  0  0  0  0
  8  9  1  0  0  0  0
  8 10  1  0  0  0  0
  8 11  1  0  0  0  0
  9 31  1  0  0  0  0
  9 32  1  0  0  0  0
  9 33  1  0  0  0  0
 10 34  1  0  0  0  0
 10 35  1  0  0  0  0
 10 36  1  0  0  0  0
 11 12  1  0  0  0  0
 11 37  1  0  0  0  0
 11 38  1  0  0  0  0
 12 13  1  0  0  0  0
 13 14  2  0  0  0  0
 14 15  1  0  0  0  0
 15 20  2  0  0  0  0
 15 16  1  0  0  0  0
 16 17  2  0  0  0  0
 16 39  1  0  0  0  0
 17 18  1  0  0  0  0
 17 40  1  0  0  0  0
 18 19  2  0  0  0  0
 18 41  1  0  0  0  0
 19 20  1  0  0  0  0
 19 42  1  0  0  0  0
 20 21  1  0  0  0  0
 21 22  1  0  0  0  0
 21 23  1  0  0  0  0
 21 43  1  0  0  0  0
 22 44  1  0  0  0  0
 22 45  1  0  0  0  0
 22 46  1  0  0  0  0
 23 47  1  0  0  0  0
 23 48  1  0  0  0  0
 23 49  1  0  0  0  0
M  END
$$$$
CHEMBL4066866
 OpenBabel12022418103D

 60 64  0  0  1  0  0  0  0  0999 V2000
    3.2358   -1.6782   -3.7407 C   0  0  0  0  0  0  0  0  0  0  0  0
    2.0995   -1.2014   -2.7988 C   0  0  2  0  0  0  0  0  0  0  0  0
    1.6771   -2.4213   -1.9260 C   0  0  0  0  0  0  0  0  0  0  0  0
    1.2163   -3.5998   -2.8132 C   0  0  2  0  0  0  0  0  0  0  0  0
    2.3647   -4.0200   -3.7448 C   0  0  0  0  0  0  0  0  0  0  0  0
    2.7725   -2.8371   -4.6324 C   0  0  1  0  0  0  0  0  0  0  0  0
    1.5721   -2.3709   -5.4685 C   0  0  0  0  0  0  0  0  0  0  0  0
    0.4130   -1.9618   -4.5450 C   0  0  2  0  0  0  0  0  0  0  0  0
    0.8682   -0.7981   -3.6475 C   0  0  0  0  0  0  0  0  0  0  0  0
    0.0169   -3.1584   -3.6678 C   0  0  0  0  0  0  0  0  0  0  0  0
    2.5573   -0.0238   -1.8988 C   0  0  0  0  0  0  0  0  0  0  0  0
    2.9332    1.2645   -2.6450 C   0  0  0  0  0  0  0  0  0  0  0  0
    2.0545    2.1049   -2.8560 O   0  0  0  0  0  0  0  0  0  0  0  0
    4.3063    1.4662   -3.1267 C   0  0  0  0  0  0  0  0  0  0  0  0
    4.8080    2.5555   -3.9237 C   0  0  0  0  0  0  0  0  0  0  0  0
    4.2253    3.7473   -4.4128 C   0  0  0  0  0  0  0  0  0  0  0  0
    4.9779    4.6283   -5.1936 C   0  0  0  0  0  0  0  0  0  0  0  0
    6.3007    4.3363   -5.5001 C   0  0  0  0  0  0  0  0  0  0  0  0
    6.9063    3.1645   -5.0330 C   0  0  0  0  0  0  0  0  0  0  0  0
    6.1439    2.2837   -4.2418 C   0  0  0  0  0  0  0  0  0  0  0  0
    6.4533    1.0760   -3.6532 N   0  0  0  0  0  0  0  0  0  0  0  0
    5.3911    0.6363   -2.9053 C   0  0  0  0  0  0  0  0  0  0  0  0
    7.7160    0.3594   -3.7456 C   0  0  0  0  0  0  0  0  0  0  0  0
    7.6010   -1.0825   -4.2584 C   0  0  0  0  0  0  0  0  0  0  0  0
    7.0744   -1.2119   -5.6917 C   0  0  0  0  0  0  0  0  0  0  0  0
    7.0198   -2.6887   -6.0955 C   0  0  0  0  0  0  0  0  0  0  0  0
    6.4957   -2.8866   -7.5074 C   0  0  0  0  0  0  0  0  0  0  0  0
    3.5634   -0.8626   -4.3909 H   0  0  0  0  0  0  0  0  0  0  0  0
    4.0993   -2.0025   -3.1494 H   0  0  0  0  0  0  0  0  0  0  0  0
    0.8615   -2.1403   -1.2466 H   0  0  0  0  0  0  0  0  0  0  0  0
    2.5133   -2.7470   -1.2938 H   0  0  0  0  0  0  0  0  0  0  0  0
    0.9258   -4.4496   -2.1847 H   0  0  0  0  0  0  0  0  0  0  0  0
    2.0558   -4.8660   -4.3705 H   0  0  0  0  0  0  0  0  0  0  0  0
    3.2229   -4.3592   -3.1518 H   0  0  0  0  0  0  0  0  0  0  0  0
    3.5931   -3.1364   -5.2963 H   0  0  0  0  0  0  0  0  0  0  0  0
    1.2501   -3.1735   -6.1421 H   0  0  0  0  0  0  0  0  0  0  0  0
    1.8626   -1.5218   -6.1000 H   0  0  0  0  0  0  0  0  0  0  0  0
   -0.4457   -1.6445   -5.1474 H   0  0  0  0  0  0  0  0  0  0  0  0
    1.0982    0.0659   -4.2795 H   0  0  0  0  0  0  0  0  0  0  0  0
    0.0411   -0.4992   -2.9888 H   0  0  0  0  0  0  0  0  0  0  0  0
   -0.8267   -2.8893   -3.0209 H   0  0  0  0  0  0  0  0  0  0  0  0
   -0.3205   -3.9883   -4.3013 H   0  0  0  0  0  0  0  0  0  0  0  0
    3.3848   -0.3205   -1.2452 H   0  0  0  0  0  0  0  0  0  0  0  0
    1.7377    0.2485   -1.2189 H   0  0  0  0  0  0  0  0  0  0  0  0
    3.1914    3.9890   -4.1744 H   0  0  0  0  0  0  0  0  0  0  0  0
    4.5224    5.5451   -5.5592 H   0  0  0  0  0  0  0  0  0  0  0  0
    6.8730    5.0288   -6.1147 H   0  0  0  0  0  0  0  0  0  0  0  0
    7.9401    2.9578   -5.2834 H   0  0  0  0  0  0  0  0  0  0  0  0
    5.4773   -0.2752   -2.3261 H   0  0  0  0  0  0  0  0  0  0  0  0
    8.1268    0.3441   -2.7285 H   0  0  0  0  0  0  0  0  0  0  0  0
    8.4110    0.9280   -4.3687 H   0  0  0  0  0  0  0  0  0  0  0  0
    6.9588   -1.6670   -3.5883 H   0  0  0  0  0  0  0  0  0  0  0  0
    8.5968   -1.5401   -4.2069 H   0  0  0  0  0  0  0  0  0  0  0  0
    7.7270   -0.6610   -6.3797 H   0  0  0  0  0  0  0  0  0  0  0  0
    6.0725   -0.7745   -5.7709 H   0  0  0  0  0  0  0  0  0  0  0  0
    6.3760   -3.2378   -5.3978 H   0  0  0  0  0  0  0  0  0  0  0  0
    8.0214   -3.1291   -6.0226 H   0  0  0  0  0  0  0  0  0  0  0  0
    5.4797   -2.4925   -7.6089 H   0  0  0  0  0  0  0  0  0  0  0  0
    6.4707   -3.9534   -7.7519 H   0  0  0  0  0  0  0  0  0  0  0  0
    7.1375   -2.3869   -8.2392 H   0  0  0  0  0  0  0  0  0  0  0  0
  1  6  1  0  0  0  0
  1  2  1  0  0  0  0
  1 28  1  0  0  0  0
  1 29  1  0  0  0  0
  2  9  1  0  0  0  0
  2  3  1  0  0  0  0
  2 11  1  1  0  0  0
  3 30  1  0  0  0  0
  3 31  1  0  0  0  0
  4  3  1  0  0  0  0
  4  5  1  0  0  0  0
  4 10  1  0  0  0  0
  4 32  1  1  0  0  0
  5 33  1  0  0  0  0
  5 34  1  0  0  0  0
  6  5  1  0  0  0  0
  6  7  1  0  0  0  0
  6 35  1  6  0  0  0
  7 36  1  0  0  0  0
  7 37  1  0  0  0  0
  8  7  1  0  0  0  0
  8  9  1  0  0  0  0
  8 10  1  0  0  0  0
  8 38  1  6  0  0  0
  9 39  1  0  0  0  0
  9 40  1  0  0  0  0
 10 41  1  0  0  0  0
 10 42  1  0  0  0  0
 11 12  1  0  0  0  0
 11 43  1  0  0  0  0
 11 44  1  0  0  0  0
 12 13  2  0  0  0  0
 12 14  1  0  0  0  0
 14 22  2  0  0  0  0
 14 15  1  0  0  0  0
 15 20  2  0  0  0  0
 15 16  1  0  0  0  0
 16 17  2  0  0  0  0
 16 45  1  0  0  0  0
 17 18  1  0  0  0  0
 17 46  1  0  0  0  0
 18 19  2  0  0  0  0
 18 47  1  0  0  0  0
 19 20  1  0  0  0  0
 19 48  1  0  0  0  0
 20 21  1  0  0  0  0
 21 22  1  0  0  0  0
 21 23  1  0  0  0  0
 22 49  1  0  0  0  0
 23 24  1  0  0  0  0
 23 50  1  0  0  0  0
 23 51  1  0  0  0  0
 24 25  1  0  0  0  0
 24 52  1  0  0  0  0
 24 53  1  0  0  0  0
 25 26  1  0  0  0  0
 25 54  1  0  0  0  0
 25 55  1  0  0  0  0
 26 27  1  0  0  0  0
 26 56  1  0  0  0  0
 26 57  1  0  0  0  0
 27 58  1  0  0  0  0
 27 59  1  0  0  0  0
 27 60  1  0  0  0  0
M  END
$$$$
CHEMBL564066
 OpenBabel12022418103D

 55 58  0  0  0  0  0  0  0  0999 V2000
    1.5700    1.1473   -1.1632 C   0  0  0  0  0  0  0  0  0  0  0  0
    0.3333    0.6389   -0.7916 C   0  0  0  0  0  0  0  0  0  0  0  0
    0.2369   -0.6786   -0.3641 C   0  0  0  0  0  0  0  0  0  0  0  0
    1.3564   -1.5363   -0.3851 C   0  0  0  0  0  0  0  0  0  0  0  0
    2.6370   -1.0207   -0.7552 C   0  0  0  0  0  0  0  0  0  0  0  0
    2.7225    0.3505   -1.1145 C   0  0  0  0  0  0  0  0  0  0  0  0
    3.9650    0.9340   -1.4034 C   0  0  0  0  0  0  0  0  0  0  0  0
    5.1430    0.1941   -1.3338 C   0  0  0  0  0  0  0  0  0  0  0  0
    5.0943   -1.1623   -1.0298 C   0  0  0  0  0  0  0  0  0  0  0  0
    3.8500   -1.7593   -0.7755 C   0  0  0  0  0  0  0  0  0  0  0  0
    6.3509   -1.9675   -0.8806 C   0  0  0  0  0  0  0  0  0  0  0  0
    1.1658   -2.9621    0.0634 C   0  0  0  0  0  0  0  0  0  0  0  0
    2.0837   -3.5545    0.6219 O   0  0  0  0  0  0  0  0  0  0  0  0
   -0.1555   -3.5954   -0.0633 C   0  0  0  0  0  0  0  0  0  0  0  0
   -1.0679   -3.5012   -1.1172 C   0  0  0  0  0  0  0  0  0  0  0  0
   -0.9365   -2.8089   -2.4339 C   0  0  0  0  0  0  0  0  0  0  0  0
   -2.2225   -4.1707   -0.7317 N   0  0  0  0  0  0  0  0  0  0  0  0
   -2.0452   -4.7420    0.5222 C   0  0  0  0  0  0  0  0  0  0  0  0
   -0.7481   -4.4327    0.9351 C   0  0  0  0  0  0  0  0  0  0  0  0
   -0.3013   -4.9000    2.1930 C   0  0  0  0  0  0  0  0  0  0  0  0
   -1.1561   -5.6373    3.0120 C   0  0  0  0  0  0  0  0  0  0  0  0
   -2.4519   -5.9101    2.5990 C   0  0  0  0  0  0  0  0  0  0  0  0
   -2.9168   -5.4754    1.3516 C   0  0  0  0  0  0  0  0  0  0  0  0
   -3.5038   -4.1331   -1.4281 C   0  0  0  0  0  0  0  0  0  0  0  0
   -3.5576   -4.6536   -2.8673 C   0  0  0  0  0  0  0  0  0  0  0  0
   -3.1001   -6.1019   -3.0408 C   0  0  0  0  0  0  0  0  0  0  0  0
   -3.0781   -6.4717   -4.5272 C   0  0  0  0  0  0  0  0  0  0  0  0
   -2.6923   -7.9233   -4.7527 C   0  0  0  0  0  0  0  0  0  0  0  0
    1.6328    2.1895   -1.4710 H   0  0  0  0  0  0  0  0  0  0  0  0
   -0.5499    1.2718   -0.8158 H   0  0  0  0  0  0  0  0  0  0  0  0
   -0.7343   -1.0314   -0.0243 H   0  0  0  0  0  0  0  0  0  0  0  0
    4.0322    1.9917   -1.6512 H   0  0  0  0  0  0  0  0  0  0  0  0
    6.0949    0.6888   -1.5095 H   0  0  0  0  0  0  0  0  0  0  0  0
    3.8494   -2.8250   -0.5541 H   0  0  0  0  0  0  0  0  0  0  0  0
    7.2175   -1.4370   -1.2878 H   0  0  0  0  0  0  0  0  0  0  0  0
    6.2646   -2.9216   -1.4098 H   0  0  0  0  0  0  0  0  0  0  0  0
    6.5371   -2.1619    0.1811 H   0  0  0  0  0  0  0  0  0  0  0  0
    0.0358   -2.3298   -2.5607 H   0  0  0  0  0  0  0  0  0  0  0  0
   -1.7057   -2.0375   -2.5397 H   0  0  0  0  0  0  0  0  0  0  0  0
   -1.0116   -3.5190   -3.2610 H   0  0  0  0  0  0  0  0  0  0  0  0
    0.7109   -4.6766    2.5287 H   0  0  0  0  0  0  0  0  0  0  0  0
   -0.8039   -5.9859    3.9809 H   0  0  0  0  0  0  0  0  0  0  0  0
   -3.1164   -6.4680    3.2549 H   0  0  0  0  0  0  0  0  0  0  0  0
   -3.9349   -5.7001    1.0571 H   0  0  0  0  0  0  0  0  0  0  0  0
   -3.8226   -3.0835   -1.4093 H   0  0  0  0  0  0  0  0  0  0  0  0
   -4.2393   -4.6876   -0.8375 H   0  0  0  0  0  0  0  0  0  0  0  0
   -2.9884   -4.0028   -3.5340 H   0  0  0  0  0  0  0  0  0  0  0  0
   -4.5953   -4.5696   -3.2159 H   0  0  0  0  0  0  0  0  0  0  0  0
   -3.7826   -6.7672   -2.4992 H   0  0  0  0  0  0  0  0  0  0  0  0
   -2.0992   -6.2438   -2.6181 H   0  0  0  0  0  0  0  0  0  0  0  0
   -2.3646   -5.8278   -5.0557 H   0  0  0  0  0  0  0  0  0  0  0  0
   -4.0639   -6.2902   -4.9713 H   0  0  0  0  0  0  0  0  0  0  0  0
   -1.6910   -8.1298   -4.3625 H   0  0  0  0  0  0  0  0  0  0  0  0
   -2.6923   -8.1495   -5.8240 H   0  0  0  0  0  0  0  0  0  0  0  0
   -3.4015   -8.5981   -4.2638 H   0  0  0  0  0  0  0  0  0  0  0  0
  1  6  2  0  0  0  0
  1  2  1  0  0  0  0
  1 29  1  0  0  0  0
  2  3  2  0  0  0  0
  2 30  1  0  0  0  0
  3  4  1  0  0  0  0
  3 31  1  0  0  0  0
  4  5  2  0  0  0  0
  4 12  1  0  0  0  0
  5 10  1  0  0  0  0
  5  6  1  0  0  0  0
  6  7  1  0  0  0  0
  7  8  2  0  0  0  0
  7 32  1  0  0  0  0
  8  9  1  0  0  0  0
  8 33  1  0  0  0  0
  9 10  2  0  0  0  0
  9 11  1  0  0  0  0
 10 34  1  0  0  0  0
 11 35  1  0  0  0  0
 11 36  1  0  0  0  0
 11 37  1  0  0  0  0
 12 13  2  0  0  0  0
 12 14  1  0  0  0  0
 14 19  1  0  0  0  0
 14 15  2  0  0  0  0
 15 16  1  0  0  0  0
 15 17  1  0  0  0  0
 16 38  1  0  0  0  0
 16 39  1  0  0  0  0
 16 40  1  0  0  0  0
 17 18  1  0  0  0  0
 17 24  1  0  0  0  0
 18 23  2  0  0  0  0
 18 19  1  0  0  0  0
 19 20  2  0  0  0  0
 20 21  1  0  0  0  0
 20 41  1  0  0  0  0
 21 22  2  0  0  0  0
 21 42  1  0  0  0  0
 22 23  1  0  0  0  0
 22 43  1  0  0  0  0
 23 44  1  0  0  0  0
 24 25  1  0  0  0  0
 24 45  1  0  0  0  0
 24 46  1  0  0  0  0
 25 26  1  0  0  0  0
 25 47  1  0  0  0  0
 25 48  1  0  0  0  0
 26 27  1  0  0  0  0
 26 49  1  0  0  0  0
 26 50  1  0  0  0  0
 27 28  1  0  0  0  0
 27 51  1  0  0  0  0
 27 52  1  0  0  0  0
 28 53  1  0  0  0  0
 28 54  1  0  0  0  0
 28 55  1  0  0  0  0
M  END
$$$$
CHEMBL4870368
 OpenBabel12022418103D

 47 50  0  0  1  0  0  0  0  0999 V2000
    2.8117    1.4849    3.5827 C   0  0  0  0  0  0  0  0  0  0  0  0
    2.5541    0.6094    2.3415 C   0  0  0  0  0  0  0  0  0  0  0  0
    2.4498   -0.8668    2.7662 C   0  0  0  0  0  0  0  0  0  0  0  0
    3.7236    0.7162    1.3409 C   0  0  0  0  0  0  0  0  0  0  0  0
    1.2835    0.9864    1.6973 N   0  0  0  0  0  0  0  0  0  0  0  0
    1.0815    2.1968    1.0707 C   0  0  0  0  0  0  0  0  0  0  0  0
    1.9350    3.0657    1.0642 O   0  0  0  0  0  0  0  0  0  0  0  0
   -0.2127    2.3973    0.4792 C   0  0  0  0  0  0  0  0  0  0  0  0
   -1.4277    1.7163    0.5402 C   0  0  0  0  0  0  0  0  0  0  0  0
   -1.9063    0.3731    0.9750 C   0  0  0  0  0  0  0  0  0  0  0  0
   -3.3152    0.0636    0.3561 C   0  0  1  0  0  0  0  0  0  0  0  0
   -4.4907    0.3281    1.2621 C   0  0  0  0  0  0  0  0  0  0  0  0
   -4.9619    1.6924    0.7937 C   0  0  0  0  0  0  0  0  0  0  0  0
   -3.8698    2.2902   -0.1640 C   0  0  1  0  0  0  0  0  0  0  0  0
   -2.3705    2.6254    0.0128 C   0  0  0  0  0  0  0  0  0  0  0  0
   -1.8174    3.7772   -0.3540 N   0  0  0  0  0  0  0  0  0  0  0  0
   -0.4841    3.4765   -0.3703 N   0  0  0  0  0  0  0  0  0  0  0  0
    0.2998    4.1027   -1.3811 C   0  0  0  0  0  0  0  0  0  0  0  0
    1.3863    3.4637   -1.9870 C   0  0  0  0  0  0  0  0  0  0  0  0
    1.9285    3.9666   -3.1708 C   0  0  0  0  0  0  0  0  0  0  0  0
    1.3795    5.1074   -3.7440 C   0  0  0  0  0  0  0  0  0  0  0  0
    0.3436    5.7956   -3.1269 C   0  0  0  0  0  0  0  0  0  0  0  0
   -0.1900    5.3010   -1.9389 C   0  0  0  0  0  0  0  0  0  0  0  0
    1.8243    5.5263   -4.9347 F   0  0  0  0  0  0  0  0  0  0  0  0
    1.8589    2.2897   -1.5481 F   0  0  0  0  0  0  0  0  0  0  0  0
   -3.6268    0.9777   -0.7221 O   0  0  0  0  0  0  0  0  0  0  0  0
    2.9534    0.8801    4.4855 H   0  0  0  0  0  0  0  0  0  0  0  0
    1.9781    2.1660    3.7867 H   0  0  0  0  0  0  0  0  0  0  0  0
    3.7110    2.0993    3.4659 H   0  0  0  0  0  0  0  0  0  0  0  0
    2.2170   -1.5099    1.9077 H   0  0  0  0  0  0  0  0  0  0  0  0
    3.3907   -1.2226    3.2030 H   0  0  0  0  0  0  0  0  0  0  0  0
    1.6568   -1.0144    3.5074 H   0  0  0  0  0  0  0  0  0  0  0  0
    3.9284    1.7504    1.0472 H   0  0  0  0  0  0  0  0  0  0  0  0
    4.6506    0.3207    1.7705 H   0  0  0  0  0  0  0  0  0  0  0  0
    3.5073    0.1572    0.4231 H   0  0  0  0  0  0  0  0  0  0  0  0
    0.4738    0.4282    1.9038 H   0  0  0  0  0  0  0  0  0  0  0  0
   -1.9411    0.3045    2.0680 H   0  0  0  0  0  0  0  0  0  0  0  0
   -1.2033   -0.3917    0.6255 H   0  0  0  0  0  0  0  0  0  0  0  0
   -3.3336   -0.9643   -0.0226 H   0  0  0  0  0  0  0  0  0  0  0  0
   -4.2445    0.2896    2.3262 H   0  0  0  0  0  0  0  0  0  0  0  0
   -5.2902   -0.3998    1.0785 H   0  0  0  0  0  0  0  0  0  0  0  0
   -5.2545    2.3232    1.6482 H   0  0  0  0  0  0  0  0  0  0  0  0
   -5.8855    1.5897    0.2049 H   0  0  0  0  0  0  0  0  0  0  0  0
   -3.7939    2.9419    0.7410 H   0  0  0  0  0  0  0  0  0  0  0  0
    2.7304    3.4390   -3.6742 H   0  0  0  0  0  0  0  0  0  0  0  0
   -0.0756    6.6797   -3.5926 H   0  0  0  0  0  0  0  0  0  0  0  0
   -1.0285    5.8253   -1.4797 H   0  0  0  0  0  0  0  0  0  0  0  0
  1  2  1  0  0  0  0
  1 27  1  0  0  0  0
  1 28  1  0  0  0  0
  1 29  1  0  0  0  0
  2  3  1  0  0  0  0
  2  4  1  0  0  0  0
  2  5  1  0  0  0  0
  3 30  1  0  0  0  0
  3 31  1  0  0  0  0
  3 32  1  0  0  0  0
  4 33  1  0  0  0  0
  4 34  1  0  0  0  0
  4 35  1  0  0  0  0
  5  6  1  0  0  0  0
  5 36  1  0  0  0  0
  6  7  2  0  0  0  0
  6  8  1  0  0  0  0
  8 17  1  0  0  0  0
  8  9  2  0  0  0  0
  9 15  1  0  0  0  0
  9 10  1  0  0  0  0
 10 37  1  0  0  0  0
 10 38  1  0  0  0  0
 11 10  1  0  0  0  0
 11 12  1  0  0  0  0
 11 26  1  0  0  0  0
 11 39  1  6  0  0  0
 12 13  1  0  0  0  0
 12 40  1  0  0  0  0
 12 41  1  0  0  0  0
 13 42  1  0  0  0  0
 13 43  1  0  0  0  0
 14 13  1  0  0  0  0
 14 15  1  0  0  0  0
 14 26  1  0  0  0  0
 14 44  1  6  0  0  0
 15 16  2  0  0  0  0
 16 17  1  0  0  0  0
 17 18  1  0  0  0  0
 18 23  2  0  0  0  0
 18 19  1  0  0  0  0
 19 20  2  0  0  0  0
 19 25  1  0  0  0  0
 20 21  1  0  0  0  0
 20 45  1  0  0  0  0
 21 22  2  0  0  0  0
 21 24  1  0  0  0  0
 22 23  1  0  0  0  0
 22 46  1  0  0  0  0
 23 47  1  0  0  0  0
M  END
$$$$
CHEMBL4796229
 OpenBabel12022418103D

 53 53  0  0  0  0  0  0  0  0999 V2000
   -0.2380   -1.1527   -0.0609 C   0  0  0  0  0  0  0  0  0  0  0  0
   -1.0995   -0.0499   -0.1475 C   0  0  0  0  0  0  0  0  0  0  0  0
   -0.3269    1.1318   -0.0754 C   0  0  0  0  0  0  0  0  0  0  0  0
   -0.7723    2.5408   -0.0086 C   0  0  0  0  0  0  0  0  0  0  0  0
   -1.9578    2.8590    0.0364 O   0  0  0  0  0  0  0  0  0  0  0  0
    0.2358    3.4890    0.0274 N   0  0  0  0  0  0  0  0  0  0  0  0
   -0.0173    4.9535    0.0523 C   0  0  0  0  0  0  0  0  0  0  0  0
    1.3347    5.6958    0.0672 C   0  0  0  0  0  0  0  0  0  0  0  0
   -0.7799    5.3960   -1.2126 C   0  0  0  0  0  0  0  0  0  0  0  0
   -0.8304    5.3795    1.3059 C   0  0  0  0  0  0  0  0  0  0  0  0
   -0.1472    5.0304    2.5111 O   0  0  0  0  0  0  0  0  0  0  0  0
    0.9790    0.8176   -0.0522 N   0  0  0  0  0  0  0  0  0  0  0  0
    1.0205   -0.5421   -0.0718 N   0  0  0  0  0  0  0  0  0  0  0  0
    2.3708   -1.0718    0.0015 C   0  0  0  0  0  0  0  0  0  0  0  0
    3.0146   -1.4638   -1.3336 C   0  0  0  0  0  0  0  0  0  0  0  0
    3.2240   -0.3182   -2.3388 C   0  0  0  0  0  0  0  0  0  0  0  0
    3.9186   -0.8639   -3.5949 C   0  0  0  0  0  0  0  0  0  0  0  0
    4.1107    0.1726   -4.6905 C   0  0  0  0  0  0  0  0  0  0  0  0
   -2.9795   -0.0067   -0.2985 Br  0  0  0  0  0  0  0  0  0  0  0  0
   -0.5731   -2.6773    0.0118 C   0  0  0  0  0  0  0  0  0  0  0  0
    0.4584   -3.5218    0.7810 C   0  0  0  0  0  0  0  0  0  0  0  0
   -1.9121   -2.9382    0.7562 C   0  0  0  0  0  0  0  0  0  0  0  0
   -0.7262   -3.2910   -1.3946 C   0  0  0  0  0  0  0  0  0  0  0  0
    1.1791    3.1230   -0.0389 H   0  0  0  0  0  0  0  0  0  0  0  0
    1.9355    5.4435   -0.8137 H   0  0  0  0  0  0  0  0  0  0  0  0
    1.9275    5.4402    0.9519 H   0  0  0  0  0  0  0  0  0  0  0  0
    1.1863    6.7830    0.0683 H   0  0  0  0  0  0  0  0  0  0  0  0
   -0.2336    5.1179   -2.1208 H   0  0  0  0  0  0  0  0  0  0  0  0
   -0.9263    6.4827   -1.2258 H   0  0  0  0  0  0  0  0  0  0  0  0
   -1.7729    4.9398   -1.2764 H   0  0  0  0  0  0  0  0  0  0  0  0
   -1.8242    4.9238    1.3396 H   0  0  0  0  0  0  0  0  0  0  0  0
   -0.9778    6.4655    1.3187 H   0  0  0  0  0  0  0  0  0  0  0  0
   -0.0795    4.0592    2.5044 H   0  0  0  0  0  0  0  0  0  0  0  0
    2.3833   -1.9022    0.7046 H   0  0  0  0  0  0  0  0  0  0  0  0
    2.9936   -0.3046    0.4814 H   0  0  0  0  0  0  0  0  0  0  0  0
    2.4304   -2.2568   -1.8049 H   0  0  0  0  0  0  0  0  0  0  0  0
    4.0021   -1.8881   -1.1022 H   0  0  0  0  0  0  0  0  0  0  0  0
    3.8366    0.4739   -1.8901 H   0  0  0  0  0  0  0  0  0  0  0  0
    2.2621    0.1278   -2.6143 H   0  0  0  0  0  0  0  0  0  0  0  0
    3.3308   -1.6942   -4.0052 H   0  0  0  0  0  0  0  0  0  0  0  0
    4.8984   -1.2701   -3.3211 H   0  0  0  0  0  0  0  0  0  0  0  0
    3.1537    0.5836   -5.0229 H   0  0  0  0  0  0  0  0  0  0  0  0
    4.5931   -0.2953   -5.5578 H   0  0  0  0  0  0  0  0  0  0  0  0
    4.7503    0.9954   -4.3571 H   0  0  0  0  0  0  0  0  0  0  0  0
    0.6326   -3.1255    1.7871 H   0  0  0  0  0  0  0  0  0  0  0  0
    1.4080   -3.6029    0.2480 H   0  0  0  0  0  0  0  0  0  0  0  0
    0.1107   -4.5574    0.8972 H   0  0  0  0  0  0  0  0  0  0  0  0
   -1.9362   -2.4444    1.7336 H   0  0  0  0  0  0  0  0  0  0  0  0
   -2.0778   -4.0103    0.9225 H   0  0  0  0  0  0  0  0  0  0  0  0
   -2.7804   -2.6214    0.1755 H   0  0  0  0  0  0  0  0  0  0  0  0
    0.2162   -3.2834   -1.9501 H   0  0  0  0  0  0  0  0  0  0  0  0
   -1.4792   -2.7663   -1.9921 H   0  0  0  0  0  0  0  0  0  0  0  0
   -1.0486   -4.3397   -1.3223 H   0  0  0  0  0  0  0  0  0  0  0  0
  1 13  1  0  0  0  0
  1  2  2  0  0  0  0
  1 20  1  0  0  0  0
  2  3  1  0  0  0  0
  2 19  1  0  0  0  0
  3  4  1  0  0  0  0
  3 12  2  0  0  0  0
  4  5  2  0  0  0  0
  4  6  1  0  0  0  0
  6  7  1  0  0  0  0
  6 24  1  0  0  0  0
  7  8  1  0  0  0  0
  7  9  1  0  0  0  0
  7 10  1  0  0  0  0
  8 25  1  0  0  0  0
  8 26  1  0  0  0  0
  8 27  1  0  0  0  0
  9 28  1  0  0  0  0
  9 29  1  0  0  0  0
  9 30  1  0  0  0  0
 10 11  1  0  0  0  0
 10 31  1  0  0  0  0
 10 32  1  0  0  0  0
 11 33  1  0  0  0  0
 12 13  1  0  0  0  0
 13 14  1  0  0  0  0
 14 15  1  0  0  0  0
 14 34  1  0  0  0  0
 14 35  1  0  0  0  0
 15 16  1  0  0  0  0
 15 36  1  0  0  0  0
 15 37  1  0  0  0  0
 16 17  1  0  0  0  0
 16 38  1  0  0  0  0
 16 39  1  0  0  0  0
 17 18  1  0  0  0  0
 17 40  1  0  0  0  0
 17 41  1  0  0  0  0
 18 42  1  0  0  0  0
 18 43  1  0  0  0  0
 18 44  1  0  0  0  0
 20 21  1  0  0  0  0
 20 22  1  0  0  0  0
 20 23  1  0  0  0  0
 21 45  1  0  0  0  0
 21 46  1  0  0  0  0
 21 47  1  0  0  0  0
 22 48  1  0  0  0  0
 22 49  1  0  0  0  0
 22 50  1  0  0  0  0
 23 51  1  0  0  0  0
 23 52  1  0  0  0  0
 23 53  1  0  0  0  0
M  END
$$$$
CHEMBL403628
 OpenBabel12022418103D

 49 50  0  0  0  0  0  0  0  0999 V2000
    3.3065   -3.3168   -4.7360 C   0  0  0  0  0  0  0  0  0  0  0  0
    3.0339   -1.8085   -4.8685 C   0  0  0  0  0  0  0  0  0  0  0  0
    3.8769   -1.2381   -6.0246 C   0  0  0  0  0  0  0  0  0  0  0  0
    1.5451   -1.5996   -5.1927 C   0  0  0  0  0  0  0  0  0  0  0  0
    3.3632   -1.0942   -3.5388 C   0  0  0  0  0  0  0  0  0  0  0  0
    4.7561   -1.2522   -3.1731 N   0  0  0  0  0  0  0  0  0  0  0  0
    5.1597   -1.8879   -2.0246 C   0  0  0  0  0  0  0  0  0  0  0  0
    4.3999   -2.3397   -1.1753 O   0  0  0  0  0  0  0  0  0  0  0  0
    6.6277   -1.9779   -1.8347 C   0  0  0  0  0  0  0  0  0  0  0  0
    7.1321   -1.9902   -0.5320 C   0  0  0  0  0  0  0  0  0  0  0  0
    8.5140   -2.0104   -0.3397 C   0  0  0  0  0  0  0  0  0  0  0  0
    9.4062   -2.0376   -1.4236 C   0  0  0  0  0  0  0  0  0  0  0  0
    8.8941   -2.0643   -2.7234 C   0  0  0  0  0  0  0  0  0  0  0  0
    7.5026   -2.0352   -2.9187 C   0  0  0  0  0  0  0  0  0  0  0  0
    9.8384   -2.0361   -4.2260 S   0  0  0  0  0  0  0  0  0  0  0  0
    9.4080   -0.8667   -4.9526 O   0  0  0  0  0  0  0  0  0  0  0  0
   11.2429   -2.2802   -3.9723 O   0  0  0  0  0  0  0  0  0  0  0  0
    9.2495   -3.4319   -5.1151 N   0  0  0  0  0  0  0  0  0  0  0  0
    9.6812   -3.3713   -6.5522 C   0  0  0  0  0  0  0  0  0  0  0  0
    9.3872   -4.6371   -7.3545 C   0  0  0  0  0  0  0  0  0  0  0  0
    9.7981   -5.9085   -6.6379 C   0  0  0  0  0  0  0  0  0  0  0  0
    9.1920   -5.9539   -5.2521 C   0  0  0  0  0  0  0  0  0  0  0  0
    9.5046   -4.7215   -4.4137 C   0  0  0  0  0  0  0  0  0  0  0  0
   11.2427   -2.0195   -0.9546 Br  0  0  0  0  0  0  0  0  0  0  0  0
    3.0585   -3.8465   -5.6618 H   0  0  0  0  0  0  0  0  0  0  0  0
    2.7085   -3.7528   -3.9278 H   0  0  0  0  0  0  0  0  0  0  0  0
    4.3609   -3.5188   -4.5174 H   0  0  0  0  0  0  0  0  0  0  0  0
    3.6439   -1.7440   -6.9679 H   0  0  0  0  0  0  0  0  0  0  0  0
    4.9505   -1.3658   -5.8497 H   0  0  0  0  0  0  0  0  0  0  0  0
    3.6861   -0.1678   -6.1629 H   0  0  0  0  0  0  0  0  0  0  0  0
    1.2698   -2.1098   -6.1226 H   0  0  0  0  0  0  0  0  0  0  0  0
    1.3088   -0.5363   -5.3138 H   0  0  0  0  0  0  0  0  0  0  0  0
    0.9062   -1.9951   -4.3951 H   0  0  0  0  0  0  0  0  0  0  0  0
    2.7264   -1.4723   -2.7314 H   0  0  0  0  0  0  0  0  0  0  0  0
    3.1880   -0.0162   -3.6209 H   0  0  0  0  0  0  0  0  0  0  0  0
    5.4405   -0.8174   -3.7776 H   0  0  0  0  0  0  0  0  0  0  0  0
    6.4528   -1.9483    0.3250 H   0  0  0  0  0  0  0  0  0  0  0  0
    8.8870   -1.9851    0.6892 H   0  0  0  0  0  0  0  0  0  0  0  0
    7.1180   -2.0572   -3.9382 H   0  0  0  0  0  0  0  0  0  0  0  0
   10.7444   -3.1212   -6.6361 H   0  0  0  0  0  0  0  0  0  0  0  0
    9.1113   -2.5620   -7.0282 H   0  0  0  0  0  0  0  0  0  0  0  0
    9.9038   -4.5821   -8.3205 H   0  0  0  0  0  0  0  0  0  0  0  0
    8.3150   -4.6836   -7.5835 H   0  0  0  0  0  0  0  0  0  0  0  0
   10.8864   -5.9894   -6.5903 H   0  0  0  0  0  0  0  0  0  0  0  0
    9.4418   -6.7787   -7.2179 H   0  0  0  0  0  0  0  0  0  0  0  0
    9.5543   -6.8446   -4.7267 H   0  0  0  0  0  0  0  0  0  0  0  0
    8.1045   -6.0649   -5.3395 H   0  0  0  0  0  0  0  0  0  0  0  0
    8.8279   -4.7538   -3.5510 H   0  0  0  0  0  0  0  0  0  0  0  0
   10.5302   -4.7747   -4.0324 H   0  0  0  0  0  0  0  0  0  0  0  0
  1  2  1  0  0  0  0
  1 25  1  0  0  0  0
  1 26  1  0  0  0  0
  1 27  1  0  0  0  0
  2  3  1  0  0  0  0
  2  4  1  0  0  0  0
  2  5  1  0  0  0  0
  3 28  1  0  0  0  0
  3 29  1  0  0  0  0
  3 30  1  0  0  0  0
  4 31  1  0  0  0  0
  4 32  1  0  0  0  0
  4 33  1  0  0  0  0
  5  6  1  0  0  0  0
  5 34  1  0  0  0  0
  5 35  1  0  0  0  0
  6  7  1  0  0  0  0
  6 36  1  0  0  0  0
  7  8  2  0  0  0  0
  7  9  1  0  0  0  0
  9 14  2  0  0  0  0
  9 10  1  0  0  0  0
 10 11  2  0  0  0  0
 10 37  1  0  0  0  0
 11 12  1  0  0  0  0
 11 38  1  0  0  0  0
 12 13  2  0  0  0  0
 12 24  1  0  0  0  0
 13 14  1  0  0  0  0
 13 15  1  0  0  0  0
 14 39  1  0  0  0  0
 15 16  2  0  0  0  0
 15 17  2  0  0  0  0
 15 18  1  0  0  0  0
 18 23  1  0  0  0  0
 18 19  1  0  0  0  0
 19 20  1  0  0  0  0
 19 40  1  0  0  0  0
 19 41  1  0  0  0  0
 20 21  1  0  0  0  0
 20 42  1  0  0  0  0
 20 43  1  0  0  0  0
 21 22  1  0  0  0  0
 21 44  1  0  0  0  0
 21 45  1  0  0  0  0
 22 23  1  0  0  0  0
 22 46  1  0  0  0  0
 22 47  1  0  0  0  0
 23 48  1  0  0  0  0
 23 49  1  0  0  0  0
M  END
$$$$
CHEMBL1270885
 OpenBabel12022418103D

 58 61  0  0  0  0  0  0  0  0999 V2000
    6.9234    0.4071    2.2859 N   0  0  0  0  0  0  0  0  0  0  0  0
    8.3189    0.6536    3.3053 S   0  0  0  0  0  0  0  0  0  0  0  0
    9.2749    1.3764    2.4846 O   0  0  0  0  0  0  0  0  0  0  0  0
    7.7696    1.2936    4.4887 O   0  0  0  0  0  0  0  0  0  0  0  0
    8.9808   -1.0530    3.7389 C   0  0  0  0  0  0  0  0  0  0  0  0
    8.2264   -2.0467    3.1901 F   0  0  0  0  0  0  0  0  0  0  0  0
   10.2619   -1.2368    3.3146 F   0  0  0  0  0  0  0  0  0  0  0  0
    8.9799   -1.2631    5.0869 F   0  0  0  0  0  0  0  0  0  0  0  0
    6.3593    1.7256    1.8605 C   0  0  0  0  0  0  0  0  0  0  0  0
    5.2384    1.6320    0.8100 C   0  0  0  0  0  0  0  0  0  0  0  0
    4.9120    3.0480    0.2882 C   0  0  0  0  0  0  0  0  0  0  0  0
    4.2146    3.9102    1.3497 C   0  0  0  0  0  0  0  0  0  0  0  0
    2.9268    3.2842    1.7214 N   0  0  0  0  0  0  0  0  0  0  0  0
    1.9416    4.1644    2.8104 S   0  0  0  0  0  0  0  0  0  0  0  0
    0.6887    3.4718    2.9828 O   0  0  0  0  0  0  0  0  0  0  0  0
    2.7807    4.4442    3.9603 O   0  0  0  0  0  0  0  0  0  0  0  0
    1.4568    5.7826    2.2687 C   0  0  0  0  0  0  0  0  0  0  0  0
    0.5934    6.0964    1.2314 N   0  0  0  0  0  0  0  0  0  0  0  0
   -0.0236    5.0234    0.0521 S   0  0  0  0  0  0  0  0  0  0  0  0
   -0.0010    5.7842   -1.1835 O   0  0  0  0  0  0  0  0  0  0  0  0
    0.7197    3.7854    0.1443 O   0  0  0  0  0  0  0  0  0  0  0  0
   -1.7083    4.6596    0.4040 C   0  0  0  0  0  0  0  0  0  0  0  0
   -2.2314    4.7352    1.6845 C   0  0  0  0  0  0  0  0  0  0  0  0
   -3.5554    4.3663    1.9233 C   0  0  0  0  0  0  0  0  0  0  0  0
   -4.3653    3.9362    0.8702 C   0  0  0  0  0  0  0  0  0  0  0  0
   -3.8502    3.8799   -0.4237 C   0  0  0  0  0  0  0  0  0  0  0  0
   -2.5215    4.2378   -0.6587 C   0  0  0  0  0  0  0  0  0  0  0  0
   -1.4989    5.1633    2.7175 F   0  0  0  0  0  0  0  0  0  0  0  0
    0.2554    7.4513    1.2451 C   0  0  0  0  0  0  0  0  0  0  0  0
   -0.5917    8.2412    0.4389 C   0  0  0  0  0  0  0  0  0  0  0  0
   -0.7007    9.6110    0.7129 C   0  0  0  0  0  0  0  0  0  0  0  0
   -0.0122   10.1855    1.7730 C   0  0  0  0  0  0  0  0  0  0  0  0
    0.8111    9.4011    2.5829 C   0  0  0  0  0  0  0  0  0  0  0  0
    0.9587    8.0258    2.3064 C   0  0  0  0  0  0  0  0  0  0  0  0
    1.7019    6.9915    2.9191 C   0  0  0  0  0  0  0  0  0  0  0  0
    3.0772    1.8735    2.2015 C   0  0  0  0  0  0  0  0  0  0  0  0
    3.9282    0.9955    1.2858 C   0  0  0  0  0  0  0  0  0  0  0  0
    6.2337   -0.1528    2.7941 H   0  0  0  0  0  0  0  0  0  0  0  0
    7.1760    2.3006    1.4076 H   0  0  0  0  0  0  0  0  0  0  0  0
    6.0101    2.2506    2.7526 H   0  0  0  0  0  0  0  0  0  0  0  0
    5.6145    1.0289   -0.0278 H   0  0  0  0  0  0  0  0  0  0  0  0
    4.2621    2.9626   -0.5926 H   0  0  0  0  0  0  0  0  0  0  0  0
    5.8308    3.5435   -0.0468 H   0  0  0  0  0  0  0  0  0  0  0  0
    4.0333    4.9032    0.9260 H   0  0  0  0  0  0  0  0  0  0  0  0
    4.8511    4.0339    2.2317 H   0  0  0  0  0  0  0  0  0  0  0  0
   -3.9488    4.4079    2.9353 H   0  0  0  0  0  0  0  0  0  0  0  0
   -5.3959    3.6432    1.0588 H   0  0  0  0  0  0  0  0  0  0  0  0
   -4.4783    3.5460   -1.2472 H   0  0  0  0  0  0  0  0  0  0  0  0
   -2.1218    4.1784   -1.6707 H   0  0  0  0  0  0  0  0  0  0  0  0
   -1.1472    7.8292   -0.3992 H   0  0  0  0  0  0  0  0  0  0  0  0
   -1.3321   10.2356    0.0833 H   0  0  0  0  0  0  0  0  0  0  0  0
   -0.1113   11.2504    1.9738 H   0  0  0  0  0  0  0  0  0  0  0  0
    1.3379    9.8551    3.4187 H   0  0  0  0  0  0  0  0  0  0  0  0
    2.3105    7.0914    3.8115 H   0  0  0  0  0  0  0  0  0  0  0  0
    2.0788    1.4194    2.2450 H   0  0  0  0  0  0  0  0  0  0  0  0
    3.4969    1.8672    3.2129 H   0  0  0  0  0  0  0  0  0  0  0  0
    4.1194    0.0374    1.7830 H   0  0  0  0  0  0  0  0  0  0  0  0
    3.3281    0.7567    0.3966 H   0  0  0  0  0  0  0  0  0  0  0  0
  1  2  1  0  0  0  0
  1  9  1  0  0  0  0
  1 38  1  0  0  0  0
  2  3  2  0  0  0  0
  2  4  2  0  0  0  0
  2  5  1  0  0  0  0
  5  6  1  0  0  0  0
  5  7  1  0  0  0  0
  5  8  1  0  0  0  0
  9 10  1  0  0  0  0
  9 39  1  0  0  0  0
  9 40  1  0  0  0  0
 10 37  1  0  0  0  0
 10 11  1  0  0  0  0
 10 41  1  0  0  0  0
 11 12  1  0  0  0  0
 11 42  1  0  0  0  0
 11 43  1  0  0  0  0
 12 13  1  0  0  0  0
 12 44  1  0  0  0  0
 12 45  1  0  0  0  0
 13 14  1  0  0  0  0
 13 36  1  0  0  0  0
 14 15  2  0  0  0  0
 14 16  2  0  0  0  0
 14 17  1  0  0  0  0
 17 35  2  0  0  0  0
 17 18  1  0  0  0  0
 18 19  1  0  0  0  0
 18 29  1  0  0  0  0
 19 20  2  0  0  0  0
 19 21  2  0  0  0  0
 19 22  1  0  0  0  0
 22 27  2  0  0  0  0
 22 23  1  0  0  0  0
 23 24  2  0  0  0  0
 23 28  1  0  0  0  0
 24 25  1  0  0  0  0
 24 46  1  0  0  0  0
 25 26  2  0  0  0  0
 25 47  1  0  0  0  0
 26 27  1  0  0  0  0
 26 48  1  0  0  0  0
 27 49  1  0  0  0  0
 29 34  2  0  0  0  0
 29 30  1  0  0  0  0
 30 31  2  0  0  0  0
 30 50  1  0  0  0  0
 31 32  1  0  0  0  0
 31 51  1  0  0  0  0
 32 33  2  0  0  0  0
 32 52  1  0  0  0  0
 33 34  1  0  0  0  0
 33 53  1  0  0  0  0
 34 35  1  0  0  0  0
 35 54  1  0  0  0  0
 36 37  1  0  0  0  0
 36 55  1  0  0  0  0
 36 56  1  0  0  0  0
 37 57  1  0  0  0  0
 37 58  1  0  0  0  0
M  END
$$$$
CHEMBL5204014
 OpenBabel12022418103D

 60 61  0  0  0  0  0  0  0  0999 V2000
    0.8799   -0.0933   -0.1225 C   0  0  0  0  0  0  0  0  0  0  0  0
    2.7541   -0.0605   -0.1143 Si  0  0  0  0  0  0  0  0  0  0  0  0
    3.4524   -1.6383   -0.8391 C   0  0  0  0  0  0  0  0  0  0  0  0
    3.3050    1.4683   -1.0942 C   0  0  0  0  0  0  0  0  0  0  0  0
    4.0816    1.3730   -2.2505 C   0  0  0  0  0  0  0  0  0  0  0  0
    4.4181    2.5260   -2.9690 C   0  0  0  0  0  0  0  0  0  0  0  0
    4.0091    3.8114   -2.5689 C   0  0  0  0  0  0  0  0  0  0  0  0
    3.2689    3.8849   -1.3779 C   0  0  0  0  0  0  0  0  0  0  0  0
    2.9125    2.7410   -0.6617 C   0  0  0  0  0  0  0  0  0  0  0  0
    2.8318    5.0561   -0.8229 O   0  0  0  0  0  0  0  0  0  0  0  0
    4.3121    5.0573   -3.4037 C   0  0  0  0  0  0  0  0  0  0  0  0
    5.7864    5.5023   -3.2998 C   0  0  0  0  0  0  0  0  0  0  0  0
    6.7599    5.0605   -4.3897 C   0  0  0  0  0  0  0  0  0  0  0  0
    6.6812    5.8759   -5.6765 C   0  0  0  0  0  0  0  0  0  0  0  0
    5.4100    5.7066   -6.4988 C   0  0  0  0  0  0  0  0  0  0  0  0
    4.1169    6.0597   -5.7712 C   0  0  0  0  0  0  0  0  0  0  0  0
    3.6801    4.9671   -4.8034 C   0  0  0  0  0  0  0  0  0  0  0  0
    5.1480    2.3718   -4.1130 O   0  0  0  0  0  0  0  0  0  0  0  0
    3.3929    0.1561    1.6774 C   0  0  0  0  0  0  0  0  0  0  0  0
    4.9193    0.1878    1.7855 C   0  0  0  0  0  0  0  0  0  0  0  0
    5.3791    0.3862    3.2281 C   0  0  0  0  0  0  0  0  0  0  0  0
    6.9056    0.3976    3.3006 C   0  0  0  0  0  0  0  0  0  0  0  0
    7.4002    0.5895    4.7312 C   0  0  0  0  0  0  0  0  0  0  0  0
    8.9193    0.5951    4.7857 C   0  0  0  0  0  0  0  0  0  0  0  0
    0.5026   -0.1760   -1.1469 H   0  0  0  0  0  0  0  0  0  0  0  0
    0.4781    0.8260    0.3131 H   0  0  0  0  0  0  0  0  0  0  0  0
    0.5013   -0.9411    0.4539 H   0  0  0  0  0  0  0  0  0  0  0  0
    3.1188   -1.7805   -1.8708 H   0  0  0  0  0  0  0  0  0  0  0  0
    3.1286   -2.5054   -0.2552 H   0  0  0  0  0  0  0  0  0  0  0  0
    4.5471   -1.6219   -0.8365 H   0  0  0  0  0  0  0  0  0  0  0  0
    4.4145    0.4026   -2.6083 H   0  0  0  0  0  0  0  0  0  0  0  0
    2.3188    2.8675    0.2429 H   0  0  0  0  0  0  0  0  0  0  0  0
    3.4457    5.7666   -1.0668 H   0  0  0  0  0  0  0  0  0  0  0  0
    3.7635    5.8892   -2.9444 H   0  0  0  0  0  0  0  0  0  0  0  0
    6.1879    5.1834   -2.3280 H   0  0  0  0  0  0  0  0  0  0  0  0
    5.8078    6.6012   -3.2643 H   0  0  0  0  0  0  0  0  0  0  0  0
    6.6802    3.9975   -4.6134 H   0  0  0  0  0  0  0  0  0  0  0  0
    7.7730    5.1975   -3.9897 H   0  0  0  0  0  0  0  0  0  0  0  0
    7.5277    5.5818   -6.3106 H   0  0  0  0  0  0  0  0  0  0  0  0
    6.8281    6.9374   -5.4460 H   0  0  0  0  0  0  0  0  0  0  0  0
    5.3541    4.6813   -6.8859 H   0  0  0  0  0  0  0  0  0  0  0  0
    5.4943    6.3580   -7.3775 H   0  0  0  0  0  0  0  0  0  0  0  0
    3.3303    6.1612   -6.5298 H   0  0  0  0  0  0  0  0  0  0  0  0
    4.1928    7.0318   -5.2712 H   0  0  0  0  0  0  0  0  0  0  0  0
    2.5908    5.0428   -4.6723 H   0  0  0  0  0  0  0  0  0  0  0  0
    3.8342    3.9920   -5.2736 H   0  0  0  0  0  0  0  0  0  0  0  0
    5.3462    1.4343   -4.2482 H   0  0  0  0  0  0  0  0  0  0  0  0
    2.9923   -0.6688    2.2788 H   0  0  0  0  0  0  0  0  0  0  0  0
    2.9708    1.0842    2.0758 H   0  0  0  0  0  0  0  0  0  0  0  0
    5.3241    0.9981    1.1648 H   0  0  0  0  0  0  0  0  0  0  0  0
    5.3414   -0.7479    1.3979 H   0  0  0  0  0  0  0  0  0  0  0  0
    4.9827   -0.4197    3.8570 H   0  0  0  0  0  0  0  0  0  0  0  0
    4.9808    1.3309    3.6174 H   0  0  0  0  0  0  0  0  0  0  0  0
    7.2962    1.2027    2.6655 H   0  0  0  0  0  0  0  0  0  0  0  0
    7.2975   -0.5457    2.9001 H   0  0  0  0  0  0  0  0  0  0  0  0
    7.0174   -0.2152    5.3694 H   0  0  0  0  0  0  0  0  0  0  0  0
    7.0192    1.5351    5.1340 H   0  0  0  0  0  0  0  0  0  0  0  0
    9.3273   -0.3507    4.4141 H   0  0  0  0  0  0  0  0  0  0  0  0
    9.2627    0.7333    5.8156 H   0  0  0  0  0  0  0  0  0  0  0  0
    9.3295    1.4077    4.1773 H   0  0  0  0  0  0  0  0  0  0  0  0
  1  2  1  0  0  0  0
  1 25  1  0  0  0  0
  1 26  1  0  0  0  0
  1 27  1  0  0  0  0
  2  3  1  0  0  0  0
  2  4  1  0  0  0  0
  2 19  1  0  0  0  0
  3 28  1  0  0  0  0
  3 29  1  0  0  0  0
  3 30  1  0  0  0  0
  4  9  2  0  0  0  0
  4  5  1  0  0  0  0
  5  6  2  0  0  0  0
  5 31  1  0  0  0  0
  6  7  1  0  0  0  0
  6 18  1  0  0  0  0
  7  8  2  0  0  0  0
  7 11  1  0  0  0  0
  8  9  1  0  0  0  0
  8 10  1  0  0  0  0
  9 32  1  0  0  0  0
 10 33  1  0  0  0  0
 11 17  1  0  0  0  0
 11 12  1  0  0  0  0
 11 34  1  0  0  0  0
 12 13  1  0  0  0  0
 12 35  1  0  0  0  0
 12 36  1  0  0  0  0
 13 14  1  0  0  0  0
 13 37  1  0  0  0  0
 13 38  1  0  0  0  0
 14 15  1  0  0  0  0
 14 39  1  0  0  0  0
 14 40  1  0  0  0  0
 15 16  1  0  0  0  0
 15 41  1  0  0  0  0
 15 42  1  0  0  0  0
 16 17  1  0  0  0  0
 16 43  1  0  0  0  0
 16 44  1  0  0  0  0
 17 45  1  0  0  0  0
 17 46  1  0  0  0  0
 18 47  1  0  0  0  0
 19 20  1  0  0  0  0
 19 48  1  0  0  0  0
 19 49  1  0  0  0  0
 20 21  1  0  0  0  0
 20 50  1  0  0  0  0
 20 51  1  0  0  0  0
 21 22  1  0  0  0  0
 21 52  1  0  0  0  0
 21 53  1  0  0  0  0
 22 23  1  0  0  0  0
 22 54  1  0  0  0  0
 22 55  1  0  0  0  0
 23 24  1  0  0  0  0
 23 56  1  0  0  0  0
 23 57  1  0  0  0  0
 24 58  1  0  0  0  0
 24 59  1  0  0  0  0
 24 60  1  0  0  0  0
M  END
$$$$
CHEMBL3650101
 OpenBabel12022418103D

 60 61  0  0  0  0  0  0  0  0999 V2000
    8.0445    0.0461   -0.2455 C   0  0  0  0  0  0  0  0  0  0  0  0
    6.9426   -0.6621    0.5319 C   0  0  0  0  0  0  0  0  0  0  0  0
    5.7795    0.2827    0.8544 C   0  0  0  0  0  0  0  0  0  0  0  0
    4.6311   -0.3875    1.6260 C   0  0  0  0  0  0  0  0  0  0  0  0
    5.0864   -0.9800    2.8745 N   0  0  0  0  0  0  0  0  0  0  0  0
    5.5772   -0.2626    3.9414 C   0  0  0  0  0  0  0  0  0  0  0  0
    5.3726    0.9809    4.2195 N   0  0  0  0  0  0  0  0  0  0  0  0
    5.9219    1.5758    5.3258 C   0  0  0  0  0  0  0  0  0  0  0  0
    6.5770    2.6063    5.2396 O   0  0  0  0  0  0  0  0  0  0  0  0
    5.7573    0.9825    6.6959 C   0  0  0  0  0  0  0  0  0  0  0  0
    6.8993    1.0797    7.5203 C   0  0  0  0  0  0  0  0  0  0  0  0
    6.9277    0.4577    8.7638 C   0  0  0  0  0  0  0  0  0  0  0  0
    5.8243   -0.2538    9.2105 C   0  0  0  0  0  0  0  0  0  0  0  0
    4.6911   -0.3558    8.4043 C   0  0  0  0  0  0  0  0  0  0  0  0
    4.6324    0.2550    7.1358 C   0  0  0  0  0  0  0  0  0  0  0  0
    3.5262    0.1452    6.3059 O   0  0  0  0  0  0  0  0  0  0  0  0
    2.4657   -0.6639    6.9169 N   0  0  0  0  0  0  0  0  0  0  0  0
    1.3386   -0.7921    5.9692 C   0  0  0  0  0  0  0  0  0  0  0  0
    1.6972   -1.6329    4.7397 C   0  0  0  0  0  0  0  0  0  0  0  0
    0.2136   -1.5183    6.7346 C   0  0  0  0  0  0  0  0  0  0  0  0
    0.8388    0.5946    5.5447 C   0  0  0  0  0  0  0  0  0  0  0  0
    8.3469    0.5262    9.7313 Cl  0  0  0  0  0  0  0  0  0  0  0  0
    6.4759   -1.4213    4.9205 S   0  0  0  0  0  0  0  0  0  0  0  0
    5.5264   -2.6844    4.1512 C   0  0  0  0  0  0  0  0  0  0  0  0
    5.4355   -4.0570    4.8141 C   0  0  0  0  0  0  0  0  0  0  0  0
    4.5699   -3.9922    6.0866 C   0  0  0  0  0  0  0  0  0  0  0  0
    4.7934   -5.0536    3.8363 C   0  0  0  0  0  0  0  0  0  0  0  0
    6.8347   -4.5610    5.1962 C   0  0  0  0  0  0  0  0  0  0  0  0
    4.9200   -2.3416    3.0500 N   0  0  0  0  0  0  0  0  0  0  0  0
    8.8791   -0.6383   -0.4298 H   0  0  0  0  0  0  0  0  0  0  0  0
    8.4310    0.9050    0.3129 H   0  0  0  0  0  0  0  0  0  0  0  0
    7.6791    0.4021   -1.2140 H   0  0  0  0  0  0  0  0  0  0  0  0
    7.3753   -1.0604    1.4559 H   0  0  0  0  0  0  0  0  0  0  0  0
    6.5806   -1.5155   -0.0528 H   0  0  0  0  0  0  0  0  0  0  0  0
    5.3759    0.6831   -0.0848 H   0  0  0  0  0  0  0  0  0  0  0  0
    6.1578    1.1416    1.4213 H   0  0  0  0  0  0  0  0  0  0  0  0
    4.1778   -1.1552    0.9876 H   0  0  0  0  0  0  0  0  0  0  0  0
    3.8483    0.3531    1.8301 H   0  0  0  0  0  0  0  0  0  0  0  0
    7.7872    1.5977    7.1619 H   0  0  0  0  0  0  0  0  0  0  0  0
    5.8408   -0.7514   10.1764 H   0  0  0  0  0  0  0  0  0  0  0  0
    3.8657   -0.9552    8.7830 H   0  0  0  0  0  0  0  0  0  0  0  0
    2.1507   -0.0281    7.6534 H   0  0  0  0  0  0  0  0  0  0  0  0
    1.9280   -2.6657    5.0135 H   0  0  0  0  0  0  0  0  0  0  0  0
    2.5525   -1.2207    4.1995 H   0  0  0  0  0  0  0  0  0  0  0  0
    0.8555   -1.6788    4.0393 H   0  0  0  0  0  0  0  0  0  0  0  0
    0.5209   -2.5243    7.0466 H   0  0  0  0  0  0  0  0  0  0  0  0
   -0.6808   -1.6263    6.1103 H   0  0  0  0  0  0  0  0  0  0  0  0
   -0.0796   -0.9693    7.6376 H   0  0  0  0  0  0  0  0  0  0  0  0
    1.6055    1.1469    4.9904 H   0  0  0  0  0  0  0  0  0  0  0  0
    0.5557    1.1952    6.4170 H   0  0  0  0  0  0  0  0  0  0  0  0
   -0.0416    0.5143    4.8981 H   0  0  0  0  0  0  0  0  0  0  0  0
    3.5353   -3.7306    5.8569 H   0  0  0  0  0  0  0  0  0  0  0  0
    4.9383   -3.2519    6.8044 H   0  0  0  0  0  0  0  0  0  0  0  0
    4.5487   -4.9624    6.5972 H   0  0  0  0  0  0  0  0  0  0  0  0
    3.7620   -4.7684    3.5956 H   0  0  0  0  0  0  0  0  0  0  0  0
    4.7670   -6.0643    4.2580 H   0  0  0  0  0  0  0  0  0  0  0  0
    5.3509   -5.0942    2.8942 H   0  0  0  0  0  0  0  0  0  0  0  0
    7.2931   -3.9391    5.9740 H   0  0  0  0  0  0  0  0  0  0  0  0
    7.5043   -4.5542    4.3297 H   0  0  0  0  0  0  0  0  0  0  0  0
    6.7934   -5.5808    5.5930 H   0  0  0  0  0  0  0  0  0  0  0  0
  1  2  1  0  0  0  0
  1 30  1  0  0  0  0
  1 31  1  0  0  0  0
  1 32  1  0  0  0  0
  2  3  1  0  0  0  0
  2 33  1  0  0  0  0
  2 34  1  0  0  0  0
  3  4  1  0  0  0  0
  3 35  1  0  0  0  0
  3 36  1  0  0  0  0
  4  5  1  0  0  0  0
  4 37  1  0  0  0  0
  4 38  1  0  0  0  0
  5 29  1  0  0  0  0
  5  6  1  0  0  0  0
  6  7  2  0  0  0  0
  6 23  1  0  0  0  0
  7  8  1  0  0  0  0
  8  9  2  0  0  0  0
  8 10  1  0  0  0  0
 10 15  2  0  0  0  0
 10 11  1  0  0  0  0
 11 12  2  0  0  0  0
 11 39  1  0  0  0  0
 12 13  1  0  0  0  0
 12 22  1  0  0  0  0
 13 14  2  0  0  0  0
 13 40  1  0  0  0  0
 14 15  1  0  0  0  0
 14 41  1  0  0  0  0
 15 16  1  0  0  0  0
 16 17  1  0  0  0  0
 17 18  1  0  0  0  0
 17 42  1  0  0  0  0
 18 19  1  0  0  0  0
 18 20  1  0  0  0  0
 18 21  1  0  0  0  0
 19 43  1  0  0  0  0
 19 44  1  0  0  0  0
 19 45  1  0  0  0  0
 20 46  1  0  0  0  0
 20 47  1  0  0  0  0
 20 48  1  0  0  0  0
 21 49  1  0  0  0  0
 21 50  1  0  0  0  0
 21 51  1  0  0  0  0
 23 24  1  0  0  0  0
 24 25  1  0  0  0  0
 24 29  2  0  0  0  0
 25 26  1  0  0  0  0
 25 27  1  0  0  0  0
 25 28  1  0  0  0  0
 26 52  1  0  0  0  0
 26 53  1  0  0  0  0
 26 54  1  0  0  0  0
 27 55  1  0  0  0  0
 27 56  1  0  0  0  0
 27 57  1  0  0  0  0
 28 58  1  0  0  0  0
 28 59  1  0  0  0  0
 28 60  1  0  0  0  0
M  END
$$$$
CHEMBL3979953
 OpenBabel12022418103D

 48 50  0  0  0  0  0  0  0  0999 V2000
    7.1248    2.4334   -0.1181 C   0  0  0  0  0  0  0  0  0  0  0  0
    6.8418    0.9903    0.3494 C   0  0  0  0  0  0  0  0  0  0  0  0
    7.5784    0.1076   -0.7020 C   0  0  0  0  0  0  0  0  0  0  0  0
    7.5013    0.4973    1.6645 C   0  0  0  0  0  0  0  0  0  0  0  0
    5.3509    0.8106    0.3778 N   0  0  0  0  0  0  0  0  0  0  0  0
    4.7099    0.2809   -0.8217 C   0  0  0  0  0  0  0  0  0  0  0  0
    4.4623    1.2252    1.4062 C   0  0  0  0  0  0  0  0  0  0  0  0
    3.2512    0.9330    1.3612 O   0  0  0  0  0  0  0  0  0  0  0  0
    4.9237    1.9428    2.6465 C   0  0  0  0  0  0  0  0  0  0  0  0
    4.3364    1.6063    3.8601 C   0  0  0  0  0  0  0  0  0  0  0  0
    4.7865    2.2476    5.0164 C   0  0  0  0  0  0  0  0  0  0  0  0
    5.8377    3.1811    4.9712 C   0  0  0  0  0  0  0  0  0  0  0  0
    6.4021    3.3951    3.7075 C   0  0  0  0  0  0  0  0  0  0  0  0
    5.9218    2.8568    2.5572 N   0  0  0  0  0  0  0  0  0  0  0  0
    7.5823    4.1444    3.6602 O   0  0  0  0  0  0  0  0  0  0  0  0
    8.3403    3.8774    2.4761 C   0  0  0  0  0  0  0  0  0  0  0  0
    9.7999    4.1992    2.6314 C   0  0  0  0  0  0  0  0  0  0  0  0
   10.8405    3.1231    2.8590 C   0  0  0  0  0  0  0  0  0  0  0  0
   10.7377    3.7803    1.5144 C   0  0  0  0  0  0  0  0  0  0  0  0
    6.2802    3.9322    6.2026 C   0  0  0  0  0  0  0  0  0  0  0  0
    6.5111    3.2275    7.5186 C   0  0  0  0  0  0  0  0  0  0  0  0
    7.6783    3.7612    6.7456 C   0  0  0  0  0  0  0  0  0  0  0  0
    8.1874    2.6785   -0.0721 H   0  0  0  0  0  0  0  0  0  0  0  0
    6.5577    3.1979    0.4123 H   0  0  0  0  0  0  0  0  0  0  0  0
    6.8131    2.5623   -1.1631 H   0  0  0  0  0  0  0  0  0  0  0  0
    8.6639    0.2753   -0.6334 H   0  0  0  0  0  0  0  0  0  0  0  0
    7.3037    0.3420   -1.7333 H   0  0  0  0  0  0  0  0  0  0  0  0
    7.3964   -0.9578   -0.5296 H   0  0  0  0  0  0  0  0  0  0  0  0
    8.5890    0.6252    1.6400 H   0  0  0  0  0  0  0  0  0  0  0  0
    7.2951   -0.5708    1.8093 H   0  0  0  0  0  0  0  0  0  0  0  0
    7.1703    0.9560    2.5893 H   0  0  0  0  0  0  0  0  0  0  0  0
    5.2309    0.6171   -1.7219 H   0  0  0  0  0  0  0  0  0  0  0  0
    3.6784    0.6311   -0.9153 H   0  0  0  0  0  0  0  0  0  0  0  0
    4.7171   -0.8105   -0.7669 H   0  0  0  0  0  0  0  0  0  0  0  0
    3.5467    0.8612    3.9099 H   0  0  0  0  0  0  0  0  0  0  0  0
    4.3284    1.9976    5.9705 H   0  0  0  0  0  0  0  0  0  0  0  0
    7.9338    4.4808    1.6581 H   0  0  0  0  0  0  0  0  0  0  0  0
    8.2958    2.8190    2.2343 H   0  0  0  0  0  0  0  0  0  0  0  0
    9.9585    5.1764    3.0669 H   0  0  0  0  0  0  0  0  0  0  0  0
   10.5272    2.0874    2.9347 H   0  0  0  0  0  0  0  0  0  0  0  0
   11.7106    3.3628    3.4585 H   0  0  0  0  0  0  0  0  0  0  0  0
   11.5254    4.4625    1.2164 H   0  0  0  0  0  0  0  0  0  0  0  0
   10.3618    3.1726    0.6963 H   0  0  0  0  0  0  0  0  0  0  0  0
    5.8683    4.9379    6.2761 H   0  0  0  0  0  0  0  0  0  0  0  0
    6.4024    2.1510    7.5761 H   0  0  0  0  0  0  0  0  0  0  0  0
    6.2154    3.7503    8.4213 H   0  0  0  0  0  0  0  0  0  0  0  0
    8.1780    4.6529    7.1074 H   0  0  0  0  0  0  0  0  0  0  0  0
    8.3414    3.0485    6.2684 H   0  0  0  0  0  0  0  0  0  0  0  0
  1  2  1  0  0  0  0
  1 23  1  0  0  0  0
  1 24  1  0  0  0  0
  1 25  1  0  0  0  0
  2  3  1  0  0  0  0
  2  4  1  0  0  0  0
  2  5  1  0  0  0  0
  3 26  1  0  0  0  0
  3 27  1  0  0  0  0
  3 28  1  0  0  0  0
  4 29  1  0  0  0  0
  4 30  1  0  0  0  0
  4 31  1  0  0  0  0
  5  6  1  0  0  0  0
  5  7  1  0  0  0  0
  6 32  1  0  0  0  0
  6 33  1  0  0  0  0
  6 34  1  0  0  0  0
  7  8  2  0  0  0  0
  7  9  1  0  0  0  0
  9 14  2  0  0  0  0
  9 10  1  0  0  0  0
 10 11  2  0  0  0  0
 10 35  1  0  0  0  0
 11 12  1  0  0  0  0
 11 36  1  0  0  0  0
 12 13  2  0  0  0  0
 12 20  1  0  0  0  0
 13 14  1  0  0  0  0
 13 15  1  0  0  0  0
 15 16  1  0  0  0  0
 16 17  1  0  0  0  0
 16 37  1  0  0  0  0
 16 38  1  0  0  0  0
 17 19  1  0  0  0  0
 17 18  1  0  0  0  0
 17 39  1  0  0  0  0
 18 19  1  0  0  0  0
 18 40  1  0  0  0  0
 18 41  1  0  0  0  0
 19 42  1  0  0  0  0
 19 43  1  0  0  0  0
 20 22  1  0  0  0  0
 20 21  1  0  0  0  0
 20 44  1  0  0  0  0
 21 22  1  0  0  0  0
 21 45  1  0  0  0  0
 21 46  1  0  0  0  0
 22 47  1  0  0  0  0
 22 48  1  0  0  0  0
M  END
$$$$
CHEMBL480541
 OpenBabel12022418103D

 48 51  0  0  0  0  0  0  0  0999 V2000
    3.8688    1.2893    0.8597 O   0  0  0  0  0  0  0  0  0  0  0  0
    2.7772    1.1634    0.2982 C   0  0  0  0  0  0  0  0  0  0  0  0
    2.6867    0.9893   -1.1957 C   0  0  0  0  0  0  0  0  0  0  0  0
    1.7997    1.9395   -1.8441 N   0  0  0  0  0  0  0  0  0  0  0  0
    0.9486    1.5319   -2.8007 N   0  0  0  0  0  0  0  0  0  0  0  0
    0.5099    2.6930   -3.3229 C   0  0  0  0  0  0  0  0  0  0  0  0
   -0.4480    2.7054   -4.4429 C   0  0  0  0  0  0  0  0  0  0  0  0
   -0.2257    3.5910   -5.5216 C   0  0  0  0  0  0  0  0  0  0  0  0
   -1.1408    3.6991   -6.5732 C   0  0  0  0  0  0  0  0  0  0  0  0
   -2.2619    2.8791   -6.5998 C   0  0  0  0  0  0  0  0  0  0  0  0
   -2.4866    1.9686   -5.5723 C   0  0  0  0  0  0  0  0  0  0  0  0
   -1.5950    1.8922   -4.4919 C   0  0  0  0  0  0  0  0  0  0  0  0
   -2.0389    0.8001   -3.2206 Cl  0  0  0  0  0  0  0  0  0  0  0  0
   -3.3765    2.9949   -7.9044 Cl  0  0  0  0  0  0  0  0  0  0  0  0
    1.1803    3.7806   -2.6425 C   0  0  0  0  0  0  0  0  0  0  0  0
    1.1395    5.2302   -2.8771 C   0  0  0  0  0  0  0  0  0  0  0  0
   -0.0750    5.8297   -3.2642 C   0  0  0  0  0  0  0  0  0  0  0  0
   -0.1351    7.1796   -3.6269 C   0  0  0  0  0  0  0  0  0  0  0  0
    1.0039    7.9696   -3.5407 C   0  0  0  0  0  0  0  0  0  0  0  0
    2.2039    7.4224   -3.1013 C   0  0  0  0  0  0  0  0  0  0  0  0
    2.2806    6.0584   -2.7860 C   0  0  0  0  0  0  0  0  0  0  0  0
    3.8589    5.4860   -2.3519 Cl  0  0  0  0  0  0  0  0  0  0  0  0
    0.9319    9.6271   -3.9908 Cl  0  0  0  0  0  0  0  0  0  0  0  0
    1.9386    3.2557   -1.6629 N   0  0  0  0  0  0  0  0  0  0  0  0
    1.5981    1.0362    1.0049 N   0  0  0  0  0  0  0  0  0  0  0  0
    1.5550    1.1729    2.4471 C   0  0  0  0  0  0  0  0  0  0  0  0
    1.1825    2.5727    2.8736 C   0  0  0  0  0  0  0  0  0  0  0  0
    2.0598    3.6440    2.6394 C   0  0  0  0  0  0  0  0  0  0  0  0
    1.7340    4.9370    3.0541 C   0  0  0  0  0  0  0  0  0  0  0  0
    0.5305    5.1680    3.7130 C   0  0  0  0  0  0  0  0  0  0  0  0
   -0.3517    4.1177    3.9576 C   0  0  0  0  0  0  0  0  0  0  0  0
   -0.0277    2.8243    3.5369 C   0  0  0  0  0  0  0  0  0  0  0  0
    0.1323    6.7586    4.2353 Cl  0  0  0  0  0  0  0  0  0  0  0  0
    2.3379   -0.0250   -1.4174 H   0  0  0  0  0  0  0  0  0  0  0  0
    3.6759    1.1290   -1.6443 H   0  0  0  0  0  0  0  0  0  0  0  0
    0.6581    4.2270   -5.5507 H   0  0  0  0  0  0  0  0  0  0  0  0
   -0.9712    4.4249   -7.3669 H   0  0  0  0  0  0  0  0  0  0  0  0
   -3.3651    1.3281   -5.6030 H   0  0  0  0  0  0  0  0  0  0  0  0
   -0.9935    5.2500   -3.3155 H   0  0  0  0  0  0  0  0  0  0  0  0
   -1.0737    7.6024   -3.9783 H   0  0  0  0  0  0  0  0  0  0  0  0
    3.0883    8.0502   -3.0237 H   0  0  0  0  0  0  0  0  0  0  0  0
    0.7167    1.0309    0.5095 H   0  0  0  0  0  0  0  0  0  0  0  0
    2.5163    0.8966    2.8920 H   0  0  0  0  0  0  0  0  0  0  0  0
    0.8104    0.4530    2.8030 H   0  0  0  0  0  0  0  0  0  0  0  0
    3.0094    3.4747    2.1347 H   0  0  0  0  0  0  0  0  0  0  0  0
    2.4271    5.7516    2.8624 H   0  0  0  0  0  0  0  0  0  0  0  0
   -1.2881    4.2978    4.4782 H   0  0  0  0  0  0  0  0  0  0  0  0
   -0.7244    2.0137    3.7441 H   0  0  0  0  0  0  0  0  0  0  0  0
  1  2  2  0  0  0  0
  2  3  1  0  0  0  0
  2 25  1  0  0  0  0
  3  4  1  0  0  0  0
  3 34  1  0  0  0  0
  3 35  1  0  0  0  0
  4 24  1  0  0  0  0
  4  5  1  0  0  0  0
  5  6  2  0  0  0  0
  6  7  1  0  0  0  0
  6 15  1  0  0  0  0
  7 12  2  0  0  0  0
  7  8  1  0  0  0  0
  8  9  2  0  0  0  0
  8 36  1  0  0  0  0
  9 10  1  0  0  0  0
  9 37  1  0  0  0  0
 10 11  2  0  0  0  0
 10 14  1  0  0  0  0
 11 12  1  0  0  0  0
 11 38  1  0  0  0  0
 12 13  1  0  0  0  0
 15 16  1  0  0  0  0
 15 24  2  0  0  0  0
 16 21  2  0  0  0  0
 16 17  1  0  0  0  0
 17 18  2  0  0  0  0
 17 39  1  0  0  0  0
 18 19  1  0  0  0  0
 18 40  1  0  0  0  0
 19 20  2  0  0  0  0
 19 23  1  0  0  0  0
 20 21  1  0  0  0  0
 20 41  1  0  0  0  0
 21 22  1  0  0  0  0
 25 26  1  0  0  0  0
 25 42  1  0  0  0  0
 26 27  1  0  0  0  0
 26 43  1  0  0  0  0
 26 44  1  0  0  0  0
 27 32  2  0  0  0  0
 27 28  1  0  0  0  0
 28 29  2  0  0  0  0
 28 45  1  0  0  0  0
 29 30  1  0  0  0  0
 29 46  1  0  0  0  0
 30 31  2  0  0  0  0
 30 33  1  0  0  0  0
 31 32  1  0  0  0  0
 31 47  1  0  0  0  0
 32 48  1  0  0  0  0
M  END
$$$$
CHEMBL1223775
 OpenBabel12022418103D

 69 72  0  0  1  0  0  0  0  0999 V2000
    0.2033    2.2040   -2.3700 C   0  0  2  0  0  0  0  0  0  0  0  0
   -1.1938    2.6776   -2.8471 C   0  0  0  0  0  0  0  0  0  0  0  0
   -1.0425    4.2164   -2.9342 C   0  0  2  0  0  0  0  0  0  0  0  0
    0.4023    4.4144   -3.4554 C   0  0  0  0  0  0  0  0  0  0  0  0
    0.9906    3.5607   -2.2841 C   0  0  1  0  0  0  0  0  0  0  0  0
    0.4228    4.2882   -1.0266 C   0  0  0  0  0  0  0  0  0  0  0  0
   -0.9736    4.7413   -1.4853 C   0  0  0  0  0  0  0  0  0  0  0  0
    2.5034    3.4301   -2.2222 C   0  0  0  0  0  0  0  0  0  0  0  0
    0.6239    3.8864   -4.8862 C   0  0  0  0  0  0  0  0  0  0  0  0
    0.8592    5.8905   -3.4881 C   0  0  0  0  0  0  0  0  0  0  0  0
    0.8284    1.2322   -3.2391 N   0  0  0  0  0  0  0  0  0  0  0  0
    0.2727    0.0502   -3.6661 C   0  0  0  0  0  0  0  0  0  0  0  0
   -0.8145   -0.3666   -3.2897 O   0  0  0  0  0  0  0  0  0  0  0  0
    1.0712   -0.5420   -4.6571 N   0  0  0  0  0  0  0  0  0  0  0  0
    0.5762   -1.4934   -5.6739 C   0  0  0  0  0  0  0  0  0  0  0  0
    1.8490   -1.7544   -6.5341 C   0  0  1  0  0  0  0  0  0  0  0  0
    2.6770   -0.5665   -6.0955 C   0  0  0  0  0  0  0  0  0  0  0  0
    2.2535    0.0697   -5.0460 N   0  0  0  0  0  0  0  0  0  0  0  0
    3.8966   -0.1015   -6.8499 C   0  0  0  0  0  0  0  0  0  0  0  0
    3.5784    0.3555   -8.2735 C   0  0  0  0  0  0  0  0  0  0  0  0
    2.6006    1.5325   -8.3285 C   0  0  0  0  0  0  0  0  0  0  0  0
    2.2956    1.9419   -9.7615 C   0  0  0  0  0  0  0  0  0  0  0  0
    2.5353   -3.1018   -6.3959 C   0  0  0  0  0  0  0  0  0  0  0  0
    3.5399   -3.3729   -5.4543 C   0  0  0  0  0  0  0  0  0  0  0  0
    4.1245   -4.6431   -5.3805 C   0  0  0  0  0  0  0  0  0  0  0  0
    3.7005   -5.6643   -6.2295 C   0  0  0  0  0  0  0  0  0  0  0  0
    2.6950   -5.4182   -7.1562 C   0  0  0  0  0  0  0  0  0  0  0  0
    2.1219   -4.1476   -7.2414 C   0  0  0  0  0  0  0  0  0  0  0  0
   -0.0702   -2.7458   -5.0718 C   0  0  0  0  0  0  0  0  0  0  0  0
   -0.4726   -0.7714   -6.5509 C   0  0  0  0  0  0  0  0  0  0  0  0
    0.1214    1.7209   -1.3880 H   0  0  0  0  0  0  0  0  0  0  0  0
   -1.9701    2.3924   -2.1265 H   0  0  0  0  0  0  0  0  0  0  0  0
   -1.4777    2.2575   -3.8165 H   0  0  0  0  0  0  0  0  0  0  0  0
   -1.8265    4.6896   -3.5249 H   0  0  0  0  0  0  0  0  0  0  0  0
    1.0337    5.1514   -0.7376 H   0  0  0  0  0  0  0  0  0  0  0  0
    0.3638    3.6304   -0.1540 H   0  0  0  0  0  0  0  0  0  0  0  0
   -1.7657    4.3340   -0.8482 H   0  0  0  0  0  0  0  0  0  0  0  0
   -1.0605    5.8326   -1.4517 H   0  0  0  0  0  0  0  0  0  0  0  0
    2.9166    2.9761   -3.1275 H   0  0  0  0  0  0  0  0  0  0  0  0
    2.8025    2.8123   -1.3684 H   0  0  0  0  0  0  0  0  0  0  0  0
    2.9826    4.4074   -2.1085 H   0  0  0  0  0  0  0  0  0  0  0  0
    0.3660    2.8391   -5.0390 H   0  0  0  0  0  0  0  0  0  0  0  0
    1.6708    4.0070   -5.1868 H   0  0  0  0  0  0  0  0  0  0  0  0
    0.0084    4.4520   -5.5962 H   0  0  0  0  0  0  0  0  0  0  0  0
    0.7647    6.4214   -2.5385 H   0  0  0  0  0  0  0  0  0  0  0  0
    0.2706    6.4540   -4.2217 H   0  0  0  0  0  0  0  0  0  0  0  0
    1.9125    5.9622   -3.7826 H   0  0  0  0  0  0  0  0  0  0  0  0
    1.6669    1.4439   -3.7683 H   0  0  0  0  0  0  0  0  0  0  0  0
    1.6262   -1.6133   -7.5976 H   0  0  0  0  0  0  0  0  0  0  0  0
    4.6235   -0.9174   -6.8779 H   0  0  0  0  0  0  0  0  0  0  0  0
    4.3599    0.7255   -6.2934 H   0  0  0  0  0  0  0  0  0  0  0  0
    3.1760   -0.4844   -8.8518 H   0  0  0  0  0  0  0  0  0  0  0  0
    4.5163    0.6488   -8.7613 H   0  0  0  0  0  0  0  0  0  0  0  0
    3.0143    2.3897   -7.7855 H   0  0  0  0  0  0  0  0  0  0  0  0
    1.6589    1.2679   -7.8403 H   0  0  0  0  0  0  0  0  0  0  0  0
    3.2004    2.2808  -10.2751 H   0  0  0  0  0  0  0  0  0  0  0  0
    1.5696    2.7612   -9.7745 H   0  0  0  0  0  0  0  0  0  0  0  0
    1.8703    1.1061  -10.3269 H   0  0  0  0  0  0  0  0  0  0  0  0
    3.8830   -2.6073   -4.7604 H   0  0  0  0  0  0  0  0  0  0  0  0
    4.9087   -4.8383   -4.6538 H   0  0  0  0  0  0  0  0  0  0  0  0
    4.1501   -6.6522   -6.1617 H   0  0  0  0  0  0  0  0  0  0  0  0
    2.3499   -6.2145   -7.8110 H   0  0  0  0  0  0  0  0  0  0  0  0
    1.3312   -3.9825   -7.9717 H   0  0  0  0  0  0  0  0  0  0  0  0
    0.6019   -3.2655   -4.3822 H   0  0  0  0  0  0  0  0  0  0  0  0
   -0.3754   -3.4447   -5.8590 H   0  0  0  0  0  0  0  0  0  0  0  0
   -0.9770   -2.5023   -4.5088 H   0  0  0  0  0  0  0  0  0  0  0  0
   -0.0775    0.1678   -6.9526 H   0  0  0  0  0  0  0  0  0  0  0  0
   -1.3689   -0.5135   -5.9781 H   0  0  0  0  0  0  0  0  0  0  0  0
   -0.7778   -1.3963   -7.3978 H   0  0  0  0  0  0  0  0  0  0  0  0
  1  2  1  0  0  0  0
  1  5  1  0  0  0  0
  1 11  1  0  0  0  0
  1 31  1  1  0  0  0
  2 32  1  0  0  0  0
  2 33  1  0  0  0  0
  3  2  1  0  0  0  0
  3  4  1  0  0  0  0
  3  7  1  0  0  0  0
  3 34  1  6  0  0  0
  4  5  1  0  0  0  0
  4  9  1  0  0  0  0
  4 10  1  0  0  0  0
  5  6  1  0  0  0  0
  5  8  1  6  0  0  0
  6  7  1  0  0  0  0
  6 35  1  0  0  0  0
  6 36  1  0  0  0  0
  7 37  1  0  0  0  0
  7 38  1  0  0  0  0
  8 39  1  0  0  0  0
  8 40  1  0  0  0  0
  8 41  1  0  0  0  0
  9 42  1  0  0  0  0
  9 43  1  0  0  0  0
  9 44  1  0  0  0  0
 10 45  1  0  0  0  0
 10 46  1  0  0  0  0
 10 47  1  0  0  0  0
 11 12  1  0  0  0  0
 11 48  1  0  0  0  0
 12 13  2  0  0  0  0
 12 14  1  0  0  0  0
 14 18  1  0  0  0  0
 14 15  1  0  0  0  0
 15 16  1  0  0  0  0
 15 29  1  0  0  0  0
 15 30  1  0  0  0  0
 16 17  1  0  0  0  0
 16 23  1  0  0  0  0
 16 49  1  6  0  0  0
 17 18  2  0  0  0  0
 17 19  1  0  0  0  0
 19 20  1  0  0  0  0
 19 50  1  0  0  0  0
 19 51  1  0  0  0  0
 20 21  1  0  0  0  0
 20 52  1  0  0  0  0
 20 53  1  0  0  0  0
 21 22  1  0  0  0  0
 21 54  1  0  0  0  0
 21 55  1  0  0  0  0
 22 56  1  0  0  0  0
 22 57  1  0  0  0  0
 22 58  1  0  0  0  0
 23 28  2  0  0  0  0
 23 24  1  0  0  0  0
 24 25  2  0  0  0  0
 24 59  1  0  0  0  0
 25 26  1  0  0  0  0
 25 60  1  0  0  0  0
 26 27  2  0  0  0  0
 26 61  1  0  0  0  0
 27 28  1  0  0  0  0
 27 62  1  0  0  0  0
 28 63  1  0  0  0  0
 29 64  1  0  0  0  0
 29 65  1  0  0  0  0
 29 66  1  0  0  0  0
 30 67  1  0  0  0  0
 30 68  1  0  0  0  0
 30 69  1  0  0  0  0
M  END
$$$$
CHEMBL2387742
 OpenBabel12022418103D

 47 48  0  0  1  0  0  0  0  0999 V2000
    4.7973   -0.6156    1.3820 C   0  0  0  0  0  0  0  0  0  0  0  0
    4.6558   -1.1985    0.1785 C   0  0  0  0  0  0  0  0  0  0  0  0
    5.8658   -1.8542   -0.4497 C   0  0  0  0  0  0  0  0  0  0  0  0
    3.2906   -1.2149   -0.5455 C   0  0  2  0  0  0  0  0  0  0  0  0
    2.4830   -2.4676   -0.1695 C   0  0  0  0  0  0  0  0  0  0  0  0
    2.9613   -3.7559   -0.8530 C   0  0  0  0  0  0  0  0  0  0  0  0
    3.6359   -3.5644   -2.1991 C   0  0  0  0  0  0  0  0  0  0  0  0
    3.7966   -2.3487   -2.7591 C   0  0  0  0  0  0  0  0  0  0  0  0
    3.3590   -1.0574   -2.0997 C   0  0  1  0  0  0  0  0  0  0  0  0
    2.0832   -0.4659   -2.7446 C   0  0  0  0  0  0  0  0  0  0  0  0
    1.0097   -1.2127   -3.2624 C   0  0  0  0  0  0  0  0  0  0  0  0
   -0.0527   -0.6118   -3.9455 C   0  0  0  0  0  0  0  0  0  0  0  0
   -0.1178    0.7617   -4.1186 C   0  0  0  0  0  0  0  0  0  0  0  0
   -1.2915    1.3856   -4.8248 C   0  0  0  0  0  0  0  0  0  0  0  0
   -2.6379    1.1076   -4.1489 C   0  0  0  0  0  0  0  0  0  0  0  0
   -2.7182    1.6413   -2.7266 C   0  0  0  0  0  0  0  0  0  0  0  0
    0.9185    1.5401   -3.5934 C   0  0  0  0  0  0  0  0  0  0  0  0
    1.9790    0.9340   -2.9013 C   0  0  0  0  0  0  0  0  0  0  0  0
    2.9051    1.8071   -2.3983 O   0  0  0  0  0  0  0  0  0  0  0  0
    0.8439   -2.5599   -3.1778 O   0  0  0  0  0  0  0  0  0  0  0  0
    4.0698   -4.8005   -2.9231 C   0  0  0  0  0  0  0  0  0  0  0  0
    5.7525   -0.6087    1.9018 H   0  0  0  0  0  0  0  0  0  0  0  0
    3.9633   -0.1391    1.8942 H   0  0  0  0  0  0  0  0  0  0  0  0
    6.7395   -1.8249    0.2125 H   0  0  0  0  0  0  0  0  0  0  0  0
    6.1494   -1.3401   -1.3719 H   0  0  0  0  0  0  0  0  0  0  0  0
    5.6891   -2.9091   -0.6592 H   0  0  0  0  0  0  0  0  0  0  0  0
    2.7321   -0.3496   -0.1521 H   0  0  0  0  0  0  0  0  0  0  0  0
    1.4318   -2.2935   -0.4335 H   0  0  0  0  0  0  0  0  0  0  0  0
    2.4773   -2.6177    0.9201 H   0  0  0  0  0  0  0  0  0  0  0  0
    2.0901   -4.4098   -0.9846 H   0  0  0  0  0  0  0  0  0  0  0  0
    3.6498   -4.2835   -0.1837 H   0  0  0  0  0  0  0  0  0  0  0  0
    4.2732   -2.2521   -3.7316 H   0  0  0  0  0  0  0  0  0  0  0  0
    4.1712   -0.3455   -2.3137 H   0  0  0  0  0  0  0  0  0  0  0  0
   -0.8421   -1.2518   -4.3400 H   0  0  0  0  0  0  0  0  0  0  0  0
   -1.3166    1.0006   -5.8522 H   0  0  0  0  0  0  0  0  0  0  0  0
   -1.1460    2.4713   -4.9129 H   0  0  0  0  0  0  0  0  0  0  0  0
   -2.8487    0.0325   -4.1402 H   0  0  0  0  0  0  0  0  0  0  0  0
   -3.4314    1.5742   -4.7453 H   0  0  0  0  0  0  0  0  0  0  0  0
   -1.9757    1.1710   -2.0744 H   0  0  0  0  0  0  0  0  0  0  0  0
   -3.7070    1.4312   -2.3011 H   0  0  0  0  0  0  0  0  0  0  0  0
   -2.5617    2.7237   -2.7033 H   0  0  0  0  0  0  0  0  0  0  0  0
    0.9031    2.6164   -3.7006 H   0  0  0  0  0  0  0  0  0  0  0  0
    3.0999    1.5356   -1.4845 H   0  0  0  0  0  0  0  0  0  0  0  0
    1.5758   -2.9470   -2.6872 H   0  0  0  0  0  0  0  0  0  0  0  0
    3.8123   -5.7019   -2.3605 H   0  0  0  0  0  0  0  0  0  0  0  0
    5.1540   -4.7965   -3.0748 H   0  0  0  0  0  0  0  0  0  0  0  0
    3.5730   -4.8670   -3.8979 H   0  0  0  0  0  0  0  0  0  0  0  0
  1  2  2  0  0  0  0
  1 22  1  0  0  0  0
  1 23  1  0  0  0  0
  2  3  1  0  0  0  0
  3 24  1  0  0  0  0
  3 25  1  0  0  0  0
  3 26  1  0  0  0  0
  4  5  1  0  0  0  0
  4  9  1  0  0  0  0
  4  2  1  0  0  0  0
  4 27  1  1  0  0  0
  5  6  1  0  0  0  0
  5 28  1  0  0  0  0
  5 29  1  0  0  0  0
  6  7  1  0  0  0  0
  6 30  1  0  0  0  0
  6 31  1  0  0  0  0
  7  8  2  0  0  0  0
  7 21  1  0  0  0  0
  8  9  1  0  0  0  0
  8 32  1  0  0  0  0
  9 10  1  0  0  0  0
  9 33  1  6  0  0  0
 10 18  2  0  0  0  0
 10 11  1  0  0  0  0
 11 12  2  0  0  0  0
 11 20  1  0  0  0  0
 12 13  1  0  0  0  0
 12 34  1  0  0  0  0
 13 14  1  0  0  0  0
 13 17  2  0  0  0  0
 14 15  1  0  0  0  0
 14 35  1  0  0  0  0
 14 36  1  0  0  0  0
 15 16  1  0  0  0  0
 15 37  1  0  0  0  0
 15 38  1  0  0  0  0
 16 39  1  0  0  0  0
 16 40  1  0  0  0  0
 16 41  1  0  0  0  0
 17 18  1  0  0  0  0
 17 42  1  0  0  0  0
 18 19  1  0  0  0  0
 19 43  1  0  0  0  0
 20 44  1  0  0  0  0
 21 45  1  0  0  0  0
 21 46  1  0  0  0  0
 21 47  1  0  0  0  0
M  END
$$$$
CHEMBL3967364
 OpenBabel12022418103D

 50 53  0  0  1  0  0  0  0  0999 V2000
    0.6085    1.6867    1.0282 C   0  0  0  0  0  0  0  0  0  0  0  0
   -0.6543    1.1822    0.3121 C   0  0  0  0  0  0  0  0  0  0  0  0
    0.2124    0.0622   -0.3377 C   0  0  0  0  0  0  0  0  0  0  0  0
    1.1798    0.2681    0.8826 C   0  0  0  0  0  0  0  0  0  0  0  0
    0.8297    0.1808   -1.8211 C   0  0  0  0  0  0  0  0  0  0  0  0
    0.5961    1.1652   -2.7942 C   0  0  0  0  0  0  0  0  0  0  0  0
    0.9526    1.0546   -4.1042 N   0  0  0  0  0  0  0  0  0  0  0  0
    1.7321    0.0244   -4.4789 C   0  0  0  0  0  0  0  0  0  0  0  0
    2.1583   -0.9361   -3.5894 C   0  0  0  0  0  0  0  0  0  0  0  0
    1.6729   -0.8679   -2.2795 C   0  0  0  0  0  0  0  0  0  0  0  0
    2.2136    0.0458   -5.9000 C   0  0  0  0  0  0  0  0  0  0  0  0
    3.3760   -0.2749   -6.1332 O   0  0  0  0  0  0  0  0  0  0  0  0
    1.3396    0.4527   -6.9113 N   0  0  0  0  0  0  0  0  0  0  0  0
   -0.1161    0.4034   -6.8221 C   0  0  0  0  0  0  0  0  0  0  0  0
   -0.5362   -0.2815   -8.1123 C   0  0  0  0  0  0  0  0  0  0  0  0
    0.4960    0.1126   -9.1410 C   0  0  0  0  0  0  0  0  0  0  0  0
    1.7618    0.4256   -8.3261 C   0  0  1  0  0  0  0  0  0  0  0  0
    2.3297    1.7614   -8.8335 C   0  0  0  0  0  0  0  0  0  0  0  0
    2.8107    1.9016   -9.9560 O   0  0  0  0  0  0  0  0  0  0  0  0
    2.1308    2.8551   -8.0358 N   0  0  0  0  0  0  0  0  0  0  0  0
   -1.7764    0.0768   -8.4977 F   0  0  0  0  0  0  0  0  0  0  0  0
   -0.5325   -1.6264   -7.9465 F   0  0  0  0  0  0  0  0  0  0  0  0
    0.0588    2.3929   -2.4271 O   0  0  0  0  0  0  0  0  0  0  0  0
    0.2855    3.3598   -3.4781 C   0  0  0  0  0  0  0  0  0  0  0  0
    0.1856    4.7877   -3.0495 C   0  0  0  0  0  0  0  0  0  0  0  0
   -0.5651    5.2974   -1.8530 C   0  0  0  0  0  0  0  0  0  0  0  0
    0.9412    5.2505   -1.8330 C   0  0  0  0  0  0  0  0  0  0  0  0
   -0.4035   -1.1542   -0.3027 F   0  0  0  0  0  0  0  0  0  0  0  0
    1.1645    2.4442    0.4678 H   0  0  0  0  0  0  0  0  0  0  0  0
    0.4642    2.0367    2.0546 H   0  0  0  0  0  0  0  0  0  0  0  0
   -1.1562    1.8933   -0.3419 H   0  0  0  0  0  0  0  0  0  0  0  0
   -1.4082    0.7789    1.0050 H   0  0  0  0  0  0  0  0  0  0  0  0
    0.9430   -0.3860    1.7338 H   0  0  0  0  0  0  0  0  0  0  0  0
    2.2535    0.2063    0.6933 H   0  0  0  0  0  0  0  0  0  0  0  0
    2.8260   -1.7322   -3.9003 H   0  0  0  0  0  0  0  0  0  0  0  0
    1.9476   -1.6582   -1.5801 H   0  0  0  0  0  0  0  0  0  0  0  0
   -0.4900    1.4317   -6.7807 H   0  0  0  0  0  0  0  0  0  0  0  0
   -0.4610   -0.1561   -5.9511 H   0  0  0  0  0  0  0  0  0  0  0  0
    0.1511    0.9711   -9.7287 H   0  0  0  0  0  0  0  0  0  0  0  0
    0.6920   -0.7072   -9.8401 H   0  0  0  0  0  0  0  0  0  0  0  0
    2.5332   -0.3399   -8.4653 H   0  0  0  0  0  0  0  0  0  0  0  0
    2.5618    3.7175   -8.3452 H   0  0  0  0  0  0  0  0  0  0  0  0
    2.0271    2.7122   -7.0387 H   0  0  0  0  0  0  0  0  0  0  0  0
   -0.4310    3.1798   -4.2894 H   0  0  0  0  0  0  0  0  0  0  0  0
    1.3098    3.2730   -3.8680 H   0  0  0  0  0  0  0  0  0  0  0  0
    0.2255    5.4351   -3.9226 H   0  0  0  0  0  0  0  0  0  0  0  0
   -1.1099    4.5925   -1.2405 H   0  0  0  0  0  0  0  0  0  0  0  0
   -1.0319    6.2738   -1.9400 H   0  0  0  0  0  0  0  0  0  0  0  0
    1.5009    6.1742   -1.9262 H   0  0  0  0  0  0  0  0  0  0  0  0
    1.4135    4.5074   -1.2014 H   0  0  0  0  0  0  0  0  0  0  0  0
  1  4  1  0  0  0  0
  1  2  1  0  0  0  0
  1 29  1  0  0  0  0
  1 30  1  0  0  0  0
  2  3  1  0  0  0  0
  2 31  1  0  0  0  0
  2 32  1  0  0  0  0
  3  4  1  0  0  0  0
  3  5  1  0  0  0  0
  3 28  1  0  0  0  0
  4 33  1  0  0  0  0
  4 34  1  0  0  0  0
  5 10  2  0  0  0  0
  5  6  1  0  0  0  0
  6  7  2  0  0  0  0
  6 23  1  0  0  0  0
  7  8  1  0  0  0  0
  8  9  2  0  0  0  0
  8 11  1  0  0  0  0
  9 10  1  0  0  0  0
  9 35  1  0  0  0  0
 10 36  1  0  0  0  0
 11 12  2  0  0  0  0
 11 13  1  0  0  0  0
 13 17  1  0  0  0  0
 13 14  1  0  0  0  0
 14 15  1  0  0  0  0
 14 37  1  0  0  0  0
 14 38  1  0  0  0  0
 15 16  1  0  0  0  0
 15 21  1  0  0  0  0
 15 22  1  0  0  0  0
 16 17  1  0  0  0  0
 16 39  1  0  0  0  0
 16 40  1  0  0  0  0
 17 18  1  0  0  0  0
 17 41  1  6  0  0  0
 18 19  2  0  0  0  0
 18 20  1  0  0  0  0
 20 42  1  0  0  0  0
 20 43  1  0  0  0  0
 23 24  1  0  0  0  0
 24 25  1  0  0  0  0
 24 44  1  0  0  0  0
 24 45  1  0  0  0  0
 25 27  1  0  0  0  0
 25 26  1  0  0  0  0
 25 46  1  0  0  0  0
 26 27  1  0  0  0  0
 26 47  1  0  0  0  0
 26 48  1  0  0  0  0
 27 49  1  0  0  0  0
 27 50  1  0  0  0  0
M  END
$$$$
CHEMBL3906383
 OpenBabel12022418103D

 48 51  0  0  0  0  0  0  0  0999 V2000
    4.3697    0.3840    0.9032 C   0  0  0  0  0  0  0  0  0  0  0  0
    3.5949   -0.8479    0.9022 N   0  0  0  0  0  0  0  0  0  0  0  0
    3.1952   -1.3891   -0.3437 C   0  0  0  0  0  0  0  0  0  0  0  0
    3.3982   -0.8197   -1.4112 O   0  0  0  0  0  0  0  0  0  0  0  0
    2.4807   -2.7015   -0.3827 C   0  0  0  0  0  0  0  0  0  0  0  0
    1.4070   -2.8800   -1.2402 C   0  0  0  0  0  0  0  0  0  0  0  0
    0.7315   -4.1016   -1.2058 C   0  0  0  0  0  0  0  0  0  0  0  0
    1.1485   -5.1361   -0.3537 C   0  0  0  0  0  0  0  0  0  0  0  0
    2.3004   -4.8742    0.4042 C   0  0  0  0  0  0  0  0  0  0  0  0
    2.9432   -3.6783    0.4269 N   0  0  0  0  0  0  0  0  0  0  0  0
    2.8671   -5.9244    1.1189 O   0  0  0  0  0  0  0  0  0  0  0  0
    4.1876   -5.6075    1.5603 C   0  0  0  0  0  0  0  0  0  0  0  0
    4.9329   -6.8362    1.9745 C   0  0  0  0  0  0  0  0  0  0  0  0
    5.8087   -6.7451    3.2020 C   0  0  0  0  0  0  0  0  0  0  0  0
    4.5938   -7.6281    3.2075 C   0  0  0  0  0  0  0  0  0  0  0  0
    0.4117   -6.3248   -0.2867 N   0  0  0  0  0  0  0  0  0  0  0  0
   -0.4999   -6.9347   -1.1962 C   0  0  0  0  0  0  0  0  0  0  0  0
   -0.7974   -7.9859   -0.1104 C   0  0  0  0  0  0  0  0  0  0  0  0
    0.4742   -7.4554    0.5815 C   0  0  0  0  0  0  0  0  0  0  0  0
   -0.7748   -9.2808   -0.5056 F   0  0  0  0  0  0  0  0  0  0  0  0
   -1.9598   -7.8105    0.5676 F   0  0  0  0  0  0  0  0  0  0  0  0
    3.1266   -1.3564    2.2150 C   0  0  0  0  0  0  0  0  0  0  0  0
    4.0032   -2.4172    2.8778 C   0  0  0  0  0  0  0  0  0  0  0  0
    3.9365   -1.0727    3.4930 C   0  0  0  0  0  0  0  0  0  0  0  0
    1.5990   -1.4148    2.4130 C   0  0  0  0  0  0  0  0  0  0  0  0
    0.9247   -0.8951    1.3548 F   0  0  0  0  0  0  0  0  0  0  0  0
    1.1628   -2.6855    2.5883 F   0  0  0  0  0  0  0  0  0  0  0  0
    1.2255   -0.7025    3.5102 F   0  0  0  0  0  0  0  0  0  0  0  0
    4.2868    0.9206   -0.0448 H   0  0  0  0  0  0  0  0  0  0  0  0
    5.4207    0.1223    1.0665 H   0  0  0  0  0  0  0  0  0  0  0  0
    4.0263    1.0430    1.7064 H   0  0  0  0  0  0  0  0  0  0  0  0
    1.0769   -2.0783   -1.8940 H   0  0  0  0  0  0  0  0  0  0  0  0
   -0.1427   -4.2306   -1.8382 H   0  0  0  0  0  0  0  0  0  0  0  0
    4.1128   -4.9416    2.4173 H   0  0  0  0  0  0  0  0  0  0  0  0
    4.7761   -5.1314    0.7656 H   0  0  0  0  0  0  0  0  0  0  0  0
    5.3121   -7.3770    1.1158 H   0  0  0  0  0  0  0  0  0  0  0  0
    5.7727   -5.8498    3.8159 H   0  0  0  0  0  0  0  0  0  0  0  0
    6.7907   -7.2001    3.1557 H   0  0  0  0  0  0  0  0  0  0  0  0
    4.7580   -8.7008    3.1790 H   0  0  0  0  0  0  0  0  0  0  0  0
    3.7355   -7.3244    3.7965 H   0  0  0  0  0  0  0  0  0  0  0  0
    0.0124   -7.3254   -2.0816 H   0  0  0  0  0  0  0  0  0  0  0  0
   -1.3449   -6.3073   -1.4848 H   0  0  0  0  0  0  0  0  0  0  0  0
    0.3556   -7.2111    1.6399 H   0  0  0  0  0  0  0  0  0  0  0  0
    1.3669   -8.0656    0.4180 H   0  0  0  0  0  0  0  0  0  0  0  0
    4.9224   -2.6979    2.3799 H   0  0  0  0  0  0  0  0  0  0  0  0
    3.5045   -3.2256    3.3995 H   0  0  0  0  0  0  0  0  0  0  0  0
    3.4189   -1.0141    4.4469 H   0  0  0  0  0  0  0  0  0  0  0  0
    4.8315   -0.4647    3.4576 H   0  0  0  0  0  0  0  0  0  0  0  0
  1  2  1  0  0  0  0
  1 29  1  0  0  0  0
  1 30  1  0  0  0  0
  1 31  1  0  0  0  0
  2  3  1  0  0  0  0
  2 22  1  0  0  0  0
  3  4  2  0  0  0  0
  3  5  1  0  0  0  0
  5 10  2  0  0  0  0
  5  6  1  0  0  0  0
  6  7  2  0  0  0  0
  6 32  1  0  0  0  0
  7  8  1  0  0  0  0
  7 33  1  0  0  0  0
  8  9  2  0  0  0  0
  8 16  1  0  0  0  0
  9 10  1  0  0  0  0
  9 11  1  0  0  0  0
 11 12  1  0  0  0  0
 12 13  1  0  0  0  0
 12 34  1  0  0  0  0
 12 35  1  0  0  0  0
 13 15  1  0  0  0  0
 13 14  1  0  0  0  0
 13 36  1  0  0  0  0
 14 15  1  0  0  0  0
 14 37  1  0  0  0  0
 14 38  1  0  0  0  0
 15 39  1  0  0  0  0
 15 40  1  0  0  0  0
 16 19  1  0  0  0  0
 16 17  1  0  0  0  0
 17 18  1  0  0  0  0
 17 41  1  0  0  0  0
 17 42  1  0  0  0  0
 18 19  1  0  0  0  0
 18 20  1  0  0  0  0
 18 21  1  0  0  0  0
 19 43  1  0  0  0  0
 19 44  1  0  0  0  0
 22 24  1  0  0  0  0
 22 23  1  0  0  0  0
 22 25  1  0  0  0  0
 23 24  1  0  0  0  0
 23 45  1  0  0  0  0
 23 46  1  0  0  0  0
 24 47  1  0  0  0  0
 24 48  1  0  0  0  0
 25 26  1  0  0  0  0
 25 27  1  0  0  0  0
 25 28  1  0  0  0  0
M  END
$$$$
CHEMBL1909856
 OpenBabel12022418103D

 50 53  0  0  0  0  0  0  0  0999 V2000
    1.1402    0.3004   -0.0538 C   0  0  0  0  0  0  0  0  0  0  0  0
    2.6104    0.0600   -0.0337 C   0  0  0  0  0  0  0  0  0  0  0  0
    3.6074    1.0897    0.0700 C   0  0  0  0  0  0  0  0  0  0  0  0
    3.3996    2.5708    0.0730 C   0  0  0  0  0  0  0  0  0  0  0  0
    2.2915    3.0849   -0.0347 O   0  0  0  0  0  0  0  0  0  0  0  0
    4.5699    3.2950    0.1916 N   0  0  0  0  0  0  0  0  0  0  0  0
    4.7105    4.7518    0.2212 C   0  0  0  0  0  0  0  0  0  0  0  0
    4.3558    5.4305   -1.1108 C   0  0  0  0  0  0  0  0  0  0  0  0
    4.6235    6.9390   -1.0584 C   0  0  0  0  0  0  0  0  0  0  0  0
    3.9083    7.6086    0.1119 C   0  0  0  0  0  0  0  0  0  0  0  0
    4.2358    6.9253    1.4367 C   0  0  0  0  0  0  0  0  0  0  0  0
    3.9630    5.4188    1.3861 C   0  0  0  0  0  0  0  0  0  0  0  0
    4.8384    0.5514    0.2062 N   0  0  0  0  0  0  0  0  0  0  0  0
    4.6664   -0.7860    0.0110 N   0  0  0  0  0  0  0  0  0  0  0  0
    5.8152   -1.5736   -0.3015 C   0  0  0  0  0  0  0  0  0  0  0  0
    5.7422   -2.6479   -1.1997 C   0  0  0  0  0  0  0  0  0  0  0  0
    6.8760   -3.4269   -1.4498 C   0  0  0  0  0  0  0  0  0  0  0  0
    8.0855   -3.1392   -0.8107 C   0  0  0  0  0  0  0  0  0  0  0  0
    8.1635   -2.0599    0.0772 C   0  0  0  0  0  0  0  0  0  0  0  0
    7.0361   -1.2658    0.3164 C   0  0  0  0  0  0  0  0  0  0  0  0
    9.6157   -1.6704    0.9295 Cl  0  0  0  0  0  0  0  0  0  0  0  0
    9.4416   -4.1477   -1.1697 Cl  0  0  0  0  0  0  0  0  0  0  0  0
    3.3253   -1.1323    0.0037 C   0  0  0  0  0  0  0  0  0  0  0  0
    2.8341   -2.4507    0.0462 N   0  0  0  0  0  0  0  0  0  0  0  0
    1.7228   -2.9089   -0.6549 C   0  0  0  0  0  0  0  0  0  0  0  0
    1.5891   -4.2722   -0.4906 C   0  0  0  0  0  0  0  0  0  0  0  0
    2.6180   -4.6901    0.3748 C   0  0  0  0  0  0  0  0  0  0  0  0
    3.3108   -3.5596    0.7324 C   0  0  0  0  0  0  0  0  0  0  0  0
    4.4979   -3.4423    1.9608 Cl  0  0  0  0  0  0  0  0  0  0  0  0
    0.5576   -0.6105    0.0961 H   0  0  0  0  0  0  0  0  0  0  0  0
    0.8418    0.7455   -1.0080 H   0  0  0  0  0  0  0  0  0  0  0  0
    0.8537    0.9806    0.7549 H   0  0  0  0  0  0  0  0  0  0  0  0
    5.4090    2.7224    0.2364 H   0  0  0  0  0  0  0  0  0  0  0  0
    5.7842    4.9110    0.3909 H   0  0  0  0  0  0  0  0  0  0  0  0
    3.3008    5.2615   -1.3574 H   0  0  0  0  0  0  0  0  0  0  0  0
    4.9439    4.9907   -1.9247 H   0  0  0  0  0  0  0  0  0  0  0  0
    4.3059    7.4071   -1.9974 H   0  0  0  0  0  0  0  0  0  0  0  0
    5.7029    7.1155   -0.9679 H   0  0  0  0  0  0  0  0  0  0  0  0
    2.8250    7.5820   -0.0568 H   0  0  0  0  0  0  0  0  0  0  0  0
    4.1945    8.6663    0.1626 H   0  0  0  0  0  0  0  0  0  0  0  0
    3.6468    7.3830    2.2400 H   0  0  0  0  0  0  0  0  0  0  0  0
    5.2916    7.0981    1.6808 H   0  0  0  0  0  0  0  0  0  0  0  0
    4.2663    4.9648    2.3366 H   0  0  0  0  0  0  0  0  0  0  0  0
    2.8825    5.2587    1.2908 H   0  0  0  0  0  0  0  0  0  0  0  0
    4.8276   -2.8885   -1.7364 H   0  0  0  0  0  0  0  0  0  0  0  0
    6.8092   -4.2609   -2.1458 H   0  0  0  0  0  0  0  0  0  0  0  0
    7.1000   -0.4441    1.0278 H   0  0  0  0  0  0  0  0  0  0  0  0
    1.1426   -2.2348   -1.2686 H   0  0  0  0  0  0  0  0  0  0  0  0
    0.8221   -4.8929   -0.9384 H   0  0  0  0  0  0  0  0  0  0  0  0
    2.7963   -5.6921    0.7445 H   0  0  0  0  0  0  0  0  0  0  0  0
  1  2  1  0  0  0  0
  1 30  1  0  0  0  0
  1 31  1  0  0  0  0
  1 32  1  0  0  0  0
  2 23  2  0  0  0  0
  2  3  1  0  0  0  0
  3  4  1  0  0  0  0
  3 13  2  0  0  0  0
  4  5  2  0  0  0  0
  4  6  1  0  0  0  0
  6  7  1  0  0  0  0
  6 33  1  0  0  0  0
  7 12  1  0  0  0  0
  7  8  1  0  0  0  0
  7 34  1  0  0  0  0
  8  9  1  0  0  0  0
  8 35  1  0  0  0  0
  8 36  1  0  0  0  0
  9 10  1  0  0  0  0
  9 37  1  0  0  0  0
  9 38  1  0  0  0  0
 10 11  1  0  0  0  0
 10 39  1  0  0  0  0
 10 40  1  0  0  0  0
 11 12  1  0  0  0  0
 11 41  1  0  0  0  0
 11 42  1  0  0  0  0
 12 43  1  0  0  0  0
 12 44  1  0  0  0  0
 13 14  1  0  0  0  0
 14 15  1  0  0  0  0
 14 23  1  0  0  0  0
 15 20  2  0  0  0  0
 15 16  1  0  0  0  0
 16 17  2  0  0  0  0
 16 45  1  0  0  0  0
 17 18  1  0  0  0  0
 17 46  1  0  0  0  0
 18 19  2  0  0  0  0
 18 22  1  0  0  0  0
 19 20  1  0  0  0  0
 19 21  1  0  0  0  0
 20 47  1  0  0  0  0
 23 24  1  0  0  0  0
 24 28  1  0  0  0  0
 24 25  1  0  0  0  0
 25 26  2  0  0  0  0
 25 48  1  0  0  0  0
 26 27  1  0  0  0  0
 26 49  1  0  0  0  0
 27 28  2  0  0  0  0
 27 50  1  0  0  0  0
 28 29  1  0  0  0  0
M  END
$$$$
CHEMBL1909957
 OpenBabel12022418103D

 59 62  0  0  0  0  0  0  0  0999 V2000
    3.6943    1.2222   -0.7152 C   0  0  0  0  0  0  0  0  0  0  0  0
    3.0149    0.0039   -0.1215 C   0  0  0  0  0  0  0  0  0  0  0  0
    3.1369   -1.3410   -0.8006 C   0  0  0  0  0  0  0  0  0  0  0  0
    4.0031   -1.7109   -1.8980 C   0  0  0  0  0  0  0  0  0  0  0  0
    4.8037   -0.8764   -2.8420 C   0  0  0  0  0  0  0  0  0  0  0  0
    4.4381    0.2256   -3.2454 O   0  0  0  0  0  0  0  0  0  0  0  0
    5.9872   -1.4554   -3.2624 N   0  0  0  0  0  0  0  0  0  0  0  0
    6.9242   -0.7876   -4.1722 C   0  0  0  0  0  0  0  0  0  0  0  0
    8.3630   -1.2247   -3.8653 C   0  0  0  0  0  0  0  0  0  0  0  0
    9.3829   -0.6206   -4.8295 C   0  0  0  0  0  0  0  0  0  0  0  0
    9.0215   -0.8977   -6.2842 C   0  0  0  0  0  0  0  0  0  0  0  0
    7.6039   -0.4308   -6.5991 C   0  0  0  0  0  0  0  0  0  0  0  0
    6.5757   -1.0477   -5.6458 C   0  0  0  0  0  0  0  0  0  0  0  0
    4.1040   -3.0545   -1.9798 N   0  0  0  0  0  0  0  0  0  0  0  0
    3.0814   -3.5310   -1.2271 N   0  0  0  0  0  0  0  0  0  0  0  0
    2.6757   -4.8786   -1.4526 C   0  0  0  0  0  0  0  0  0  0  0  0
    1.3402   -5.2750   -1.3195 C   0  0  0  0  0  0  0  0  0  0  0  0
    1.0047   -6.6277   -1.4452 C   0  0  0  0  0  0  0  0  0  0  0  0
    1.9938   -7.5847   -1.7003 C   0  0  0  0  0  0  0  0  0  0  0  0
    3.3260   -7.1856   -1.8525 C   0  0  0  0  0  0  0  0  0  0  0  0
    3.6630   -5.8326   -1.7558 C   0  0  0  0  0  0  0  0  0  0  0  0
    4.6094   -8.3159   -2.1018 Cl  0  0  0  0  0  0  0  0  0  0  0  0
    1.5066   -9.2392   -1.7979 Cl  0  0  0  0  0  0  0  0  0  0  0  0
    2.5668   -2.5608   -0.3795 C   0  0  0  0  0  0  0  0  0  0  0  0
    1.7159   -2.8378    0.7329 N   0  0  0  0  0  0  0  0  0  0  0  0
    0.6234   -2.0716    1.1798 C   0  0  0  0  0  0  0  0  0  0  0  0
   -0.0030   -0.9135    0.4866 C   0  0  0  0  0  0  0  0  0  0  0  0
    0.1095   -2.6239    2.3368 C   0  0  0  0  0  0  0  0  0  0  0  0
    0.7839   -3.8174    2.5717 C   0  0  0  0  0  0  0  0  0  0  0  0
    1.7689   -3.9468    1.6105 C   0  0  0  0  0  0  0  0  0  0  0  0
    2.7382   -5.0829    1.6033 C   0  0  0  0  0  0  0  0  0  0  0  0
    3.5766    2.0763   -0.0382 H   0  0  0  0  0  0  0  0  0  0  0  0
    3.2169    1.5126   -1.6568 H   0  0  0  0  0  0  0  0  0  0  0  0
    4.7655    1.0737   -0.8681 H   0  0  0  0  0  0  0  0  0  0  0  0
    1.9724    0.2921   -0.0685 H   0  0  0  0  0  0  0  0  0  0  0  0
    3.3693   -0.1127    0.9103 H   0  0  0  0  0  0  0  0  0  0  0  0
    6.1080   -2.4378   -3.0333 H   0  0  0  0  0  0  0  0  0  0  0  0
    6.8475    0.2933   -3.9925 H   0  0  0  0  0  0  0  0  0  0  0  0
    8.4326   -2.3188   -3.9103 H   0  0  0  0  0  0  0  0  0  0  0  0
    8.6249   -0.9395   -2.8390 H   0  0  0  0  0  0  0  0  0  0  0  0
   10.3775   -1.0282   -4.6152 H   0  0  0  0  0  0  0  0  0  0  0  0
    9.4443    0.4635   -4.6706 H   0  0  0  0  0  0  0  0  0  0  0  0
    9.1089   -1.9721   -6.4876 H   0  0  0  0  0  0  0  0  0  0  0  0
    9.7350   -0.3917   -6.9462 H   0  0  0  0  0  0  0  0  0  0  0  0
    7.3552   -0.6924   -7.6331 H   0  0  0  0  0  0  0  0  0  0  0  0
    7.5602    0.6636   -6.5292 H   0  0  0  0  0  0  0  0  0  0  0  0
    5.5836   -0.6425   -5.8767 H   0  0  0  0  0  0  0  0  0  0  0  0
    6.5210   -2.1283   -5.8278 H   0  0  0  0  0  0  0  0  0  0  0  0
    0.5493   -4.5584   -1.1090 H   0  0  0  0  0  0  0  0  0  0  0  0
   -0.0316   -6.9340   -1.3176 H   0  0  0  0  0  0  0  0  0  0  0  0
    4.7076   -5.5352   -1.8383 H   0  0  0  0  0  0  0  0  0  0  0  0
    0.2816   -0.8324   -0.5632 H   0  0  0  0  0  0  0  0  0  0  0  0
    0.2269    0.0124    1.0264 H   0  0  0  0  0  0  0  0  0  0  0  0
   -1.0939   -1.0170    0.5038 H   0  0  0  0  0  0  0  0  0  0  0  0
   -0.7253   -2.2310    2.9047 H   0  0  0  0  0  0  0  0  0  0  0  0
    0.5896   -4.5241    3.3701 H   0  0  0  0  0  0  0  0  0  0  0  0
    3.6509   -4.8861    1.0437 H   0  0  0  0  0  0  0  0  0  0  0  0
    2.2491   -5.9864    1.2214 H   0  0  0  0  0  0  0  0  0  0  0  0
    3.0433   -5.3207    2.6286 H   0  0  0  0  0  0  0  0  0  0  0  0
  1  2  1  0  0  0  0
  1 32  1  0  0  0  0
  1 33  1  0  0  0  0
  1 34  1  0  0  0  0
  2  3  1  0  0  0  0
  2 35  1  0  0  0  0
  2 36  1  0  0  0  0
  3 24  2  0  0  0  0
  3  4  1  0  0  0  0
  4  5  1  0  0  0  0
  4 14  2  0  0  0  0
  5  6  2  0  0  0  0
  5  7  1  0  0  0  0
  7  8  1  0  0  0  0
  7 37  1  0  0  0  0
  8 13  1  0  0  0  0
  8  9  1  0  0  0  0
  8 38  1  0  0  0  0
  9 10  1  0  0  0  0
  9 39  1  0  0  0  0
  9 40  1  0  0  0  0
 10 11  1  0  0  0  0
 10 41  1  0  0  0  0
 10 42  1  0  0  0  0
 11 12  1  0  0  0  0
 11 43  1  0  0  0  0
 11 44  1  0  0  0  0
 12 13  1  0  0  0  0
 12 45  1  0  0  0  0
 12 46  1  0  0  0  0
 13 47  1  0  0  0  0
 13 48  1  0  0  0  0
 14 15  1  0  0  0  0
 15 16  1  0  0  0  0
 15 24  1  0  0  0  0
 16 21  2  0  0  0  0
 16 17  1  0  0  0  0
 17 18  2  0  0  0  0
 17 49  1  0  0  0  0
 18 19  1  0  0  0  0
 18 50  1  0  0  0  0
 19 20  2  0  0  0  0
 19 23  1  0  0  0  0
 20 21  1  0  0  0  0
 20 22  1  0  0  0  0
 21 51  1  0  0  0  0
 24 25  1  0  0  0  0
 25 30  1  0  0  0  0
 25 26  1  0  0  0  0
 26 27  1  0  0  0  0
 26 28  2  0  0  0  0
 27 52  1  0  0  0  0
 27 53  1  0  0  0  0
 27 54  1  0  0  0  0
 28 29  1  0  0  0  0
 28 55  1  0  0  0  0
 29 30  2  0  0  0  0
 29 56  1  0  0  0  0
 30 31  1  0  0  0  0
 31 57  1  0  0  0  0
 31 58  1  0  0  0  0
 31 59  1  0  0  0  0
M  END
$$$$
CHEMBL429797
 OpenBabel12022418103D

 52 54  0  0  0  0  0  0  0  0999 V2000
    7.0770   -0.7027    4.3222 C   0  0  0  0  0  0  0  0  0  0  0  0
    6.5757   -0.4287    2.9148 C   0  0  0  0  0  0  0  0  0  0  0  0
    7.0517   -1.5118    1.9555 C   0  0  0  0  0  0  0  0  0  0  0  0
    6.5607   -1.2601    0.5303 C   0  0  0  0  0  0  0  0  0  0  0  0
    7.0630   -2.3808   -0.3718 C   0  0  0  0  0  0  0  0  0  0  0  0
    6.6081   -2.2229   -1.8287 C   0  0  0  0  0  0  0  0  0  0  0  0
    7.1395   -3.3521   -2.7657 C   0  0  0  0  0  0  0  0  0  0  0  0
    6.5691   -4.7201   -2.3023 C   0  0  0  0  0  0  0  0  0  0  0  0
    6.6070   -3.1281   -4.1977 C   0  0  0  0  0  0  0  0  0  0  0  0
    8.6733   -3.3246   -2.7817 C   0  0  0  0  0  0  0  0  0  0  0  0
    9.4311   -4.4190   -2.3543 C   0  0  0  0  0  0  0  0  0  0  0  0
   10.8273   -4.3850   -2.2935 C   0  0  0  0  0  0  0  0  0  0  0  0
   11.5570   -3.2427   -2.6607 C   0  0  0  0  0  0  0  0  0  0  0  0
   10.7877   -2.1617   -3.1060 C   0  0  0  0  0  0  0  0  0  0  0  0
    9.3882   -2.1808   -3.1742 C   0  0  0  0  0  0  0  0  0  0  0  0
   11.3952   -0.9503   -3.5060 O   0  0  0  0  0  0  0  0  0  0  0  0
   12.7611   -0.7468   -3.5043 C   0  0  0  0  0  0  0  0  0  0  0  0
   13.2587    0.3135   -3.8608 O   0  0  0  0  0  0  0  0  0  0  0  0
   13.6007   -1.8773   -3.0278 C   0  0  0  0  0  0  0  0  0  0  0  0
   14.9979   -1.6907   -3.0042 C   0  0  0  0  0  0  0  0  0  0  0  0
   15.8414   -2.7076   -2.5676 C   0  0  0  0  0  0  0  0  0  0  0  0
   15.2803   -3.9011   -2.1586 C   0  0  0  0  0  0  0  0  0  0  0  0
   13.9036   -4.0908   -2.1769 C   0  0  0  0  0  0  0  0  0  0  0  0
   13.0224   -3.0904   -2.6183 C   0  0  0  0  0  0  0  0  0  0  0  0
   16.0426   -4.9399   -1.7113 O   0  0  0  0  0  0  0  0  0  0  0  0
   11.4457   -5.5197   -1.8435 O   0  0  0  0  0  0  0  0  0  0  0  0
    6.7324    0.0785    5.0062 H   0  0  0  0  0  0  0  0  0  0  0  0
    8.1713   -0.7241    4.3498 H   0  0  0  0  0  0  0  0  0  0  0  0
    6.7073   -1.6660    4.6882 H   0  0  0  0  0  0  0  0  0  0  0  0
    6.9390    0.5493    2.5806 H   0  0  0  0  0  0  0  0  0  0  0  0
    5.4807   -0.3900    2.9177 H   0  0  0  0  0  0  0  0  0  0  0  0
    6.6928   -2.4903    2.2994 H   0  0  0  0  0  0  0  0  0  0  0  0
    8.1483   -1.5547    1.9631 H   0  0  0  0  0  0  0  0  0  0  0  0
    6.9280   -0.2923    0.1699 H   0  0  0  0  0  0  0  0  0  0  0  0
    5.4652   -1.2282    0.5103 H   0  0  0  0  0  0  0  0  0  0  0  0
    6.6985   -3.3279    0.0365 H   0  0  0  0  0  0  0  0  0  0  0  0
    8.1576   -2.4067   -0.3172 H   0  0  0  0  0  0  0  0  0  0  0  0
    6.9369   -1.2400   -2.1923 H   0  0  0  0  0  0  0  0  0  0  0  0
    5.5112   -2.2023   -1.8620 H   0  0  0  0  0  0  0  0  0  0  0  0
    5.4781   -4.7533   -2.3894 H   0  0  0  0  0  0  0  0  0  0  0  0
    6.8187   -4.9480   -1.2609 H   0  0  0  0  0  0  0  0  0  0  0  0
    6.9634   -5.5440   -2.9094 H   0  0  0  0  0  0  0  0  0  0  0  0
    5.5207   -3.2731   -4.2405 H   0  0  0  0  0  0  0  0  0  0  0  0
    7.0611   -3.8372   -4.9004 H   0  0  0  0  0  0  0  0  0  0  0  0
    6.8135   -2.1177   -4.5645 H   0  0  0  0  0  0  0  0  0  0  0  0
    8.9378   -5.3319   -2.0364 H   0  0  0  0  0  0  0  0  0  0  0  0
    8.8712   -1.2870   -3.5147 H   0  0  0  0  0  0  0  0  0  0  0  0
   15.4269   -0.7422   -3.3250 H   0  0  0  0  0  0  0  0  0  0  0  0
   16.9142   -2.5470   -2.5575 H   0  0  0  0  0  0  0  0  0  0  0  0
   13.5523   -5.0553   -1.8335 H   0  0  0  0  0  0  0  0  0  0  0  0
   16.9770   -4.6905   -1.7675 H   0  0  0  0  0  0  0  0  0  0  0  0
   10.7819   -6.1833   -1.5918 H   0  0  0  0  0  0  0  0  0  0  0  0
  1  2  1  0  0  0  0
  1 27  1  0  0  0  0
  1 28  1  0  0  0  0
  1 29  1  0  0  0  0
  2  3  1  0  0  0  0
  2 30  1  0  0  0  0
  2 31  1  0  0  0  0
  3  4  1  0  0  0  0
  3 32  1  0  0  0  0
  3 33  1  0  0  0  0
  4  5  1  0  0  0  0
  4 34  1  0  0  0  0
  4 35  1  0  0  0  0
  5  6  1  0  0  0  0
  5 36  1  0  0  0  0
  5 37  1  0  0  0  0
  6  7  1  0  0  0  0
  6 38  1  0  0  0  0
  6 39  1  0  0  0  0
  7  8  1  0  0  0  0
  7  9  1  0  0  0  0
  7 10  1  0  0  0  0
  8 40  1  0  0  0  0
  8 41  1  0  0  0  0
  8 42  1  0  0  0  0
  9 43  1  0  0  0  0
  9 44  1  0  0  0  0
  9 45  1  0  0  0  0
 10 15  2  0  0  0  0
 10 11  1  0  0  0  0
 11 12  2  0  0  0  0
 11 46  1  0  0  0  0
 12 13  1  0  0  0  0
 12 26  1  0  0  0  0
 13 24  1  0  0  0  0
 13 14  2  0  0  0  0
 14 15  1  0  0  0  0
 14 16  1  0  0  0  0
 15 47  1  0  0  0  0
 16 17  1  0  0  0  0
 17 18  2  0  0  0  0
 17 19  1  0  0  0  0
 19 24  2  0  0  0  0
 19 20  1  0  0  0  0
 20 21  2  0  0  0  0
 20 48  1  0  0  0  0
 21 22  1  0  0  0  0
 21 49  1  0  0  0  0
 22 23  2  0  0  0  0
 22 25  1  0  0  0  0
 23 24  1  0  0  0  0
 23 50  1  0  0  0  0
 25 51  1  0  0  0  0
 26 52  1  0  0  0  0
M  END
$$$$
CHEMBL4647926
 OpenBabel12022418103D

 79 80  0  0  0  0  0  0  0  0999 V2000
    1.4556   -0.2240    0.0410 C   0  0  0  0  0  0  0  0  0  0  0  0
    0.8941    1.0568    0.0798 C   0  0  0  0  0  0  0  0  0  0  0  0
   -0.4958    1.2365    0.0343 C   0  0  0  0  0  0  0  0  0  0  0  0
   -1.3189    0.1048   -0.1041 C   0  0  0  0  0  0  0  0  0  0  0  0
   -0.7513   -1.1743   -0.1082 C   0  0  0  0  0  0  0  0  0  0  0  0
    0.6331   -1.3453   -0.0283 C   0  0  0  0  0  0  0  0  0  0  0  0
    1.0474   -2.6499   -0.0338 O   0  0  0  0  0  0  0  0  0  0  0  0
    2.4475   -2.8791    0.0605 C   0  0  0  0  0  0  0  0  0  0  0  0
   -2.6548    0.3643   -0.2440 O   0  0  0  0  0  0  0  0  0  0  0  0
   -3.5393   -0.7469   -0.3180 C   0  0  0  0  0  0  0  0  0  0  0  0
   -4.9563   -0.1908   -0.4242 C   0  0  0  0  0  0  0  0  0  0  0  0
   -6.0060   -1.2806   -0.6043 C   0  0  0  0  0  0  0  0  0  0  0  0
   -6.0801   -2.2523    0.5772 C   0  0  0  0  0  0  0  0  0  0  0  0
   -7.1457   -3.3318    0.3889 C   0  0  0  0  0  0  0  0  0  0  0  0
   -6.8639   -4.2140   -0.8275 C   0  0  0  0  0  0  0  0  0  0  0  0
   -7.9246   -5.2922   -0.9904 C   0  0  0  0  0  0  0  0  0  0  0  0
   -7.6543   -6.1318   -2.2387 C   0  0  0  0  0  0  0  0  0  0  0  0
   -8.7382   -7.1891   -2.3952 C   0  0  0  0  0  0  0  0  0  0  0  0
   -8.5211   -8.0704   -3.6204 C   0  0  0  0  0  0  0  0  0  0  0  0
   -9.6164   -9.1126   -3.7166 C   0  0  0  0  0  0  0  0  0  0  0  0
  -10.4903   -9.2565   -2.8659 O   0  0  0  0  0  0  0  0  0  0  0  0
   -9.5414   -9.8846   -4.8496 N   0  0  0  0  0  0  0  0  0  0  0  0
  -10.5016  -10.9409   -5.0730 C   0  0  0  0  0  0  0  0  0  0  0  0
  -10.5995  -11.2264   -6.5345 C   0  0  0  0  0  0  0  0  0  0  0  0
  -11.9518  -11.3554   -7.1896 C   0  0  0  0  0  0  0  0  0  0  0  0
  -11.0866  -10.1644   -7.4895 C   0  0  0  0  0  0  0  0  0  0  0  0
   -1.0784    2.6335    0.1540 C   0  0  0  0  0  0  0  0  0  0  0  0
   -1.9164    2.8017    1.4287 C   0  0  0  0  0  0  0  0  0  0  0  0
   -2.4487    4.2247    1.6137 C   0  0  0  0  0  0  0  0  0  0  0  0
   -3.3109    4.2913    2.8781 C   0  0  0  0  0  0  0  0  0  0  0  0
   -3.8819    5.6839    3.1322 C   0  0  0  0  0  0  0  0  0  0  0  0
   -4.7263    5.6959    4.3989 C   0  0  0  0  0  0  0  0  0  0  0  0
    2.5362   -0.3082    0.0743 H   0  0  0  0  0  0  0  0  0  0  0  0
    1.5551    1.9178    0.1500 H   0  0  0  0  0  0  0  0  0  0  0  0
   -1.3635   -2.0677   -0.1749 H   0  0  0  0  0  0  0  0  0  0  0  0
    2.6095   -3.9612    0.0775 H   0  0  0  0  0  0  0  0  0  0  0  0
    2.8567   -2.4677    0.9893 H   0  0  0  0  0  0  0  0  0  0  0  0
    2.9684   -2.4772   -0.8145 H   0  0  0  0  0  0  0  0  0  0  0  0
   -3.4403   -1.3536    0.5883 H   0  0  0  0  0  0  0  0  0  0  0  0
   -3.3141   -1.3506   -1.2054 H   0  0  0  0  0  0  0  0  0  0  0  0
   -5.0053    0.4938   -1.2809 H   0  0  0  0  0  0  0  0  0  0  0  0
   -5.1843    0.4204    0.4571 H   0  0  0  0  0  0  0  0  0  0  0  0
   -5.7739   -1.8163   -1.5304 H   0  0  0  0  0  0  0  0  0  0  0  0
   -6.9864   -0.8103   -0.7467 H   0  0  0  0  0  0  0  0  0  0  0  0
   -6.3004   -1.6922    1.4940 H   0  0  0  0  0  0  0  0  0  0  0  0
   -5.1152   -2.7474    0.7309 H   0  0  0  0  0  0  0  0  0  0  0  0
   -8.1327   -2.8637    0.2951 H   0  0  0  0  0  0  0  0  0  0  0  0
   -7.1734   -3.9559    1.2910 H   0  0  0  0  0  0  0  0  0  0  0  0
   -5.8741   -4.6758   -0.7280 H   0  0  0  0  0  0  0  0  0  0  0  0
   -6.8511   -3.6108   -1.7407 H   0  0  0  0  0  0  0  0  0  0  0  0
   -8.9132   -4.8232   -1.0703 H   0  0  0  0  0  0  0  0  0  0  0  0
   -7.9406   -5.9354   -0.1026 H   0  0  0  0  0  0  0  0  0  0  0  0
   -6.6707   -6.6101   -2.1605 H   0  0  0  0  0  0  0  0  0  0  0  0
   -7.6328   -5.4866   -3.1257 H   0  0  0  0  0  0  0  0  0  0  0  0
   -9.7169   -6.6975   -2.4691 H   0  0  0  0  0  0  0  0  0  0  0  0
   -8.7673   -7.8138   -1.4935 H   0  0  0  0  0  0  0  0  0  0  0  0
   -7.5558   -8.5844   -3.5541 H   0  0  0  0  0  0  0  0  0  0  0  0
   -8.5291   -7.4613   -4.5316 H   0  0  0  0  0  0  0  0  0  0  0  0
   -8.7222   -9.8313   -5.4419 H   0  0  0  0  0  0  0  0  0  0  0  0
  -11.4715  -10.6503   -4.6522 H   0  0  0  0  0  0  0  0  0  0  0  0
  -10.1540  -11.8262   -4.5309 H   0  0  0  0  0  0  0  0  0  0  0  0
   -9.8091  -11.8862   -6.8733 H   0  0  0  0  0  0  0  0  0  0  0  0
  -12.8420  -11.1907   -6.5917 H   0  0  0  0  0  0  0  0  0  0  0  0
  -12.0731  -12.1038   -7.9636 H   0  0  0  0  0  0  0  0  0  0  0  0
  -10.6178  -10.1071   -8.4647 H   0  0  0  0  0  0  0  0  0  0  0  0
  -11.3882   -9.2043   -7.0842 H   0  0  0  0  0  0  0  0  0  0  0  0
   -1.6784    2.8498   -0.7380 H   0  0  0  0  0  0  0  0  0  0  0  0
   -0.2652    3.3700    0.1639 H   0  0  0  0  0  0  0  0  0  0  0  0
   -1.3141    2.5222    2.3025 H   0  0  0  0  0  0  0  0  0  0  0  0
   -2.7731    2.1189    1.4156 H   0  0  0  0  0  0  0  0  0  0  0  0
   -3.0454    4.5173    0.7412 H   0  0  0  0  0  0  0  0  0  0  0  0
   -1.6126    4.9292    1.6918 H   0  0  0  0  0  0  0  0  0  0  0  0
   -2.7097    3.9827    3.7424 H   0  0  0  0  0  0  0  0  0  0  0  0
   -4.1369    3.5741    2.7914 H   0  0  0  0  0  0  0  0  0  0  0  0
   -4.4996    5.9977    2.2830 H   0  0  0  0  0  0  0  0  0  0  0  0
   -3.0684    6.4111    3.2326 H   0  0  0  0  0  0  0  0  0  0  0  0
   -5.5646    4.9959    4.3173 H   0  0  0  0  0  0  0  0  0  0  0  0
   -5.1340    6.6950    4.5789 H   0  0  0  0  0  0  0  0  0  0  0  0
   -4.1282    5.4103    5.2706 H   0  0  0  0  0  0  0  0  0  0  0  0
  1  6  2  0  0  0  0
  1  2  1  0  0  0  0
  1 33  1  0  0  0  0
  2  3  2  0  0  0  0
  2 34  1  0  0  0  0
  3  4  1  0  0  0  0
  3 27  1  0  0  0  0
  4  5  2  0  0  0  0
  4  9  1  0  0  0  0
  5  6  1  0  0  0  0
  5 35  1  0  0  0  0
  6  7  1  0  0  0  0
  7  8  1  0  0  0  0
  8 36  1  0  0  0  0
  8 37  1  0  0  0  0
  8 38  1  0  0  0  0
  9 10  1  0  0  0  0
 10 11  1  0  0  0  0
 10 39  1  0  0  0  0
 10 40  1  0  0  0  0
 11 12  1  0  0  0  0
 11 41  1  0  0  0  0
 11 42  1  0  0  0  0
 12 13  1  0  0  0  0
 12 43  1  0  0  0  0
 12 44  1  0  0  0  0
 13 14  1  0  0  0  0
 13 45  1  0  0  0  0
 13 46  1  0  0  0  0
 14 15  1  0  0  0  0
 14 47  1  0  0  0  0
 14 48  1  0  0  0  0
 15 16  1  0  0  0  0
 15 49  1  0  0  0  0
 15 50  1  0  0  0  0
 16 17  1  0  0  0  0
 16 51  1  0  0  0  0
 16 52  1  0  0  0  0
 17 18  1  0  0  0  0
 17 53  1  0  0  0  0
 17 54  1  0  0  0  0
 18 19  1  0  0  0  0
 18 55  1  0  0  0  0
 18 56  1  0  0  0  0
 19 20  1  0  0  0  0
 19 57  1  0  0  0  0
 19 58  1  0  0  0  0
 20 21  2  0  0  0  0
 20 22  1  0  0  0  0
 22 23  1  0  0  0  0
 22 59  1  0  0  0  0
 23 24  1  0  0  0  0
 23 60  1  0  0  0  0
 23 61  1  0  0  0  0
 24 26  1  0  0  0  0
 24 25  1  0  0  0  0
 24 62  1  0  0  0  0
 25 26  1  0  0  0  0
 25 63  1  0  0  0  0
 25 64  1  0  0  0  0
 26 65  1  0  0  0  0
 26 66  1  0  0  0  0
 27 28  1  0  0  0  0
 27 67  1  0  0  0  0
 27 68  1  0  0  0  0
 28 29  1  0  0  0  0
 28 69  1  0  0  0  0
 28 70  1  0  0  0  0
 29 30  1  0  0  0  0
 29 71  1  0  0  0  0
 29 72  1  0  0  0  0
 30 31  1  0  0  0  0
 30 73  1  0  0  0  0
 30 74  1  0  0  0  0
 31 32  1  0  0  0  0
 31 75  1  0  0  0  0
 31 76  1  0  0  0  0
 32 77  1  0  0  0  0
 32 78  1  0  0  0  0
 32 79  1  0  0  0  0
M  END
$$$$
CHEMBL4089341
 OpenBabel12022418103D

 44 46  0  0  0  0  0  0  0  0999 V2000
    1.7183    1.8524   -0.0910 C   0  0  0  0  0  0  0  0  0  0  0  0
    2.8853    0.8791   -0.0289 C   0  0  0  0  0  0  0  0  0  0  0  0
    3.3868    0.5472   -1.4319 C   0  0  0  0  0  0  0  0  0  0  0  0
    4.5834   -0.4017   -1.4017 C   0  0  0  0  0  0  0  0  0  0  0  0
    5.0479   -0.7411   -2.7398 N   0  0  0  0  0  0  0  0  0  0  0  0
    5.5404    0.1793   -3.6284 C   0  0  0  0  0  0  0  0  0  0  0  0
    5.9855   -0.4761   -4.7655 C   0  0  0  0  0  0  0  0  0  0  0  0
    5.6441   -1.8571   -4.5780 C   0  0  0  0  0  0  0  0  0  0  0  0
    5.7890   -3.0161   -5.3750 C   0  0  0  0  0  0  0  0  0  0  0  0
    5.4051   -4.2650   -4.8746 C   0  0  0  0  0  0  0  0  0  0  0  0
    4.8906   -4.3841   -3.5900 C   0  0  0  0  0  0  0  0  0  0  0  0
    4.7310   -3.2588   -2.7761 C   0  0  0  0  0  0  0  0  0  0  0  0
    5.1012   -2.0021   -3.2922 C   0  0  0  0  0  0  0  0  0  0  0  0
    6.6859    0.1353   -5.9126 C   0  0  0  0  0  0  0  0  0  0  0  0
    6.6196   -0.3543   -7.0372 O   0  0  0  0  0  0  0  0  0  0  0  0
    7.5766    1.3256   -5.6546 C   0  0  0  0  0  0  0  0  0  0  0  0
    8.2475    1.4050   -4.4164 C   0  0  0  0  0  0  0  0  0  0  0  0
    9.0478    2.4979   -4.0902 C   0  0  0  0  0  0  0  0  0  0  0  0
    9.2306    3.5120   -5.0175 C   0  0  0  0  0  0  0  0  0  0  0  0
    8.6279    3.4239   -6.2726 C   0  0  0  0  0  0  0  0  0  0  0  0
    7.8123    2.3298   -6.6150 C   0  0  0  0  0  0  0  0  0  0  0  0
    7.1967    2.2464   -7.8378 O   0  0  0  0  0  0  0  0  0  0  0  0
    7.8753    2.8830   -8.9215 C   0  0  0  0  0  0  0  0  0  0  0  0
    1.3606    2.0859    0.9161 H   0  0  0  0  0  0  0  0  0  0  0  0
    0.8851    1.4274   -0.6600 H   0  0  0  0  0  0  0  0  0  0  0  0
    2.0170    2.7898   -0.5721 H   0  0  0  0  0  0  0  0  0  0  0  0
    2.5688   -0.0366    0.4834 H   0  0  0  0  0  0  0  0  0  0  0  0
    3.6942    1.3223    0.5636 H   0  0  0  0  0  0  0  0  0  0  0  0
    3.6628    1.4792   -1.9404 H   0  0  0  0  0  0  0  0  0  0  0  0
    2.5767    0.0973   -2.0190 H   0  0  0  0  0  0  0  0  0  0  0  0
    4.3247   -1.3222   -0.8702 H   0  0  0  0  0  0  0  0  0  0  0  0
    5.4342    0.0511   -0.8784 H   0  0  0  0  0  0  0  0  0  0  0  0
    5.5685    1.2296   -3.3668 H   0  0  0  0  0  0  0  0  0  0  0  0
    6.1979   -2.9356   -6.3797 H   0  0  0  0  0  0  0  0  0  0  0  0
    5.5165   -5.1491   -5.4981 H   0  0  0  0  0  0  0  0  0  0  0  0
    4.6062   -5.3627   -3.2111 H   0  0  0  0  0  0  0  0  0  0  0  0
    4.3306   -3.3708   -1.7736 H   0  0  0  0  0  0  0  0  0  0  0  0
    8.1544    0.6090   -3.6803 H   0  0  0  0  0  0  0  0  0  0  0  0
    9.5247    2.5511   -3.1154 H   0  0  0  0  0  0  0  0  0  0  0  0
    9.8487    4.3720   -4.7700 H   0  0  0  0  0  0  0  0  0  0  0  0
    8.8005    4.2421   -6.9649 H   0  0  0  0  0  0  0  0  0  0  0  0
    7.3984    2.5732   -9.8561 H   0  0  0  0  0  0  0  0  0  0  0  0
    8.9294    2.5845   -8.9684 H   0  0  0  0  0  0  0  0  0  0  0  0
    7.7835    3.9728   -8.8585 H   0  0  0  0  0  0  0  0  0  0  0  0
  1  2  1  0  0  0  0
  1 24  1  0  0  0  0
  1 25  1  0  0  0  0
  1 26  1  0  0  0  0
  2  3  1  0  0  0  0
  2 27  1  0  0  0  0
  2 28  1  0  0  0  0
  3  4  1  0  0  0  0
  3 29  1  0  0  0  0
  3 30  1  0  0  0  0
  4  5  1  0  0  0  0
  4 31  1  0  0  0  0
  4 32  1  0  0  0  0
  5 13  1  0  0  0  0
  5  6  1  0  0  0  0
  6  7  2  0  0  0  0
  6 33  1  0  0  0  0
  7  8  1  0  0  0  0
  7 14  1  0  0  0  0
  8 13  2  0  0  0  0
  8  9  1  0  0  0  0
  9 10  2  0  0  0  0
  9 34  1  0  0  0  0
 10 11  1  0  0  0  0
 10 35  1  0  0  0  0
 11 12  2  0  0  0  0
 11 36  1  0  0  0  0
 12 13  1  0  0  0  0
 12 37  1  0  0  0  0
 14 15  2  0  0  0  0
 14 16  1  0  0  0  0
 16 21  2  0  0  0  0
 16 17  1  0  0  0  0
 17 18  2  0  0  0  0
 17 38  1  0  0  0  0
 18 19  1  0  0  0  0
 18 39  1  0  0  0  0
 19 20  2  0  0  0  0
 19 40  1  0  0  0  0
 20 21  1  0  0  0  0
 20 41  1  0  0  0  0
 21 22  1  0  0  0  0
 22 23  1  0  0  0  0
 23 42  1  0  0  0  0
 23 43  1  0  0  0  0
 23 44  1  0  0  0  0
M  END
$$$$
CHEMBL3409151
 OpenBabel12022418103D

 51 53  0  0  0  0  0  0  0  0999 V2000
   -2.5538    0.6497   -0.0885 C   0  0  0  0  0  0  0  0  0  0  0  0
   -2.5234   -0.7399   -0.0703 C   0  0  0  0  0  0  0  0  0  0  0  0
   -1.3070   -1.4509    0.0051 C   0  0  0  0  0  0  0  0  0  0  0  0
   -0.0626   -0.7561    0.0301 C   0  0  0  0  0  0  0  0  0  0  0  0
   -0.1420    0.6634    0.0246 C   0  0  0  0  0  0  0  0  0  0  0  0
   -1.3656    1.3533   -0.0325 C   0  0  0  0  0  0  0  0  0  0  0  0
    1.0869    1.4963    0.0768 C   0  0  0  0  0  0  0  0  0  0  0  0
    1.0080    2.7247    0.1013 O   0  0  0  0  0  0  0  0  0  0  0  0
    2.3959    0.8163    0.0857 C   0  0  0  0  0  0  0  0  0  0  0  0
    2.3612   -0.5243    0.0697 C   0  0  0  0  0  0  0  0  0  0  0  0
    1.2342   -1.3477    0.0633 N   0  0  0  0  0  0  0  0  0  0  0  0
    1.4214   -2.8156    0.0096 C   0  0  0  0  0  0  0  0  0  0  0  0
    1.4001   -3.3275   -1.4365 C   0  0  0  0  0  0  0  0  0  0  0  0
    1.4877   -4.8544   -1.4983 C   0  0  0  0  0  0  0  0  0  0  0  0
    1.5367   -5.3564   -2.9342 C   0  0  0  0  0  0  0  0  0  0  0  0
    3.7162    1.5206    0.1214 C   0  0  0  0  0  0  0  0  0  0  0  0
    4.7779    0.9046    0.0703 O   0  0  0  0  0  0  0  0  0  0  0  0
    3.6495    2.8904    0.2219 N   0  0  0  0  0  0  0  0  0  0  0  0
    4.8122    3.7514    0.2066 C   0  0  0  0  0  0  0  0  0  0  0  0
    5.1727    4.2374   -1.1938 C   0  0  0  0  0  0  0  0  0  0  0  0
    6.0746    5.4394   -0.9384 C   0  0  0  0  0  0  0  0  0  0  0  0
    5.6159    6.0300    0.3946 C   0  0  0  0  0  0  0  0  0  0  0  0
    4.5811    5.0595    0.9602 C   0  0  0  0  0  0  0  0  0  0  0  0
   -1.2952   -2.8227    0.0514 O   0  0  0  0  0  0  0  0  0  0  0  0
   -2.5274   -3.5237    0.1729 C   0  0  0  0  0  0  0  0  0  0  0  0
   -3.5014    1.1796   -0.1434 H   0  0  0  0  0  0  0  0  0  0  0  0
   -3.4814   -1.2486   -0.1188 H   0  0  0  0  0  0  0  0  0  0  0  0
   -1.3873    2.4408   -0.0370 H   0  0  0  0  0  0  0  0  0  0  0  0
    3.2967   -1.0812    0.0696 H   0  0  0  0  0  0  0  0  0  0  0  0
    0.7298   -3.3502    0.6657 H   0  0  0  0  0  0  0  0  0  0  0  0
    2.4020   -3.0681    0.4385 H   0  0  0  0  0  0  0  0  0  0  0  0
    2.2459   -2.8920   -1.9838 H   0  0  0  0  0  0  0  0  0  0  0  0
    0.4931   -2.9947   -1.9537 H   0  0  0  0  0  0  0  0  0  0  0  0
    0.6205   -5.2967   -0.9941 H   0  0  0  0  0  0  0  0  0  0  0  0
    2.3829   -5.2008   -0.9689 H   0  0  0  0  0  0  0  0  0  0  0  0
    0.6390   -5.0600   -3.4861 H   0  0  0  0  0  0  0  0  0  0  0  0
    1.6005   -6.4492   -2.9534 H   0  0  0  0  0  0  0  0  0  0  0  0
    2.4105   -4.9582   -3.4602 H   0  0  0  0  0  0  0  0  0  0  0  0
    2.7252    3.3191    0.1692 H   0  0  0  0  0  0  0  0  0  0  0  0
    5.6649    3.2162    0.6422 H   0  0  0  0  0  0  0  0  0  0  0  0
    4.2761    4.5540   -1.7418 H   0  0  0  0  0  0  0  0  0  0  0  0
    5.6711    3.4671   -1.7902 H   0  0  0  0  0  0  0  0  0  0  0  0
    6.0194    6.1707   -1.7511 H   0  0  0  0  0  0  0  0  0  0  0  0
    7.1194    5.1171   -0.8571 H   0  0  0  0  0  0  0  0  0  0  0  0
    5.1834    7.0279    0.2638 H   0  0  0  0  0  0  0  0  0  0  0  0
    6.4689    6.1322    1.0750 H   0  0  0  0  0  0  0  0  0  0  0  0
    4.6835    4.9356    2.0431 H   0  0  0  0  0  0  0  0  0  0  0  0
    3.5730    5.4501    0.7719 H   0  0  0  0  0  0  0  0  0  0  0  0
   -2.2952   -4.5722    0.3833 H   0  0  0  0  0  0  0  0  0  0  0  0
   -3.0822   -3.4855   -0.7697 H   0  0  0  0  0  0  0  0  0  0  0  0
   -3.1326   -3.1530    1.0074 H   0  0  0  0  0  0  0  0  0  0  0  0
  1  6  2  0  0  0  0
  1  2  1  0  0  0  0
  1 26  1  0  0  0  0
  2  3  2  0  0  0  0
  2 27  1  0  0  0  0
  3  4  1  0  0  0  0
  3 24  1  0  0  0  0
  4 11  1  0  0  0  0
  4  5  2  0  0  0  0
  5  6  1  0  0  0  0
  5  7  1  0  0  0  0
  6 28  1  0  0  0  0
  7  8  2  0  0  0  0
  7  9  1  0  0  0  0
  9 10  2  0  0  0  0
  9 16  1  0  0  0  0
 10 11  1  0  0  0  0
 10 29  1  0  0  0  0
 11 12  1  0  0  0  0
 12 13  1  0  0  0  0
 12 30  1  0  0  0  0
 12 31  1  0  0  0  0
 13 14  1  0  0  0  0
 13 32  1  0  0  0  0
 13 33  1  0  0  0  0
 14 15  1  0  0  0  0
 14 34  1  0  0  0  0
 14 35  1  0  0  0  0
 15 36  1  0  0  0  0
 15 37  1  0  0  0  0
 15 38  1  0  0  0  0
 16 17  2  0  0  0  0
 16 18  1  0  0  0  0
 18 19  1  0  0  0  0
 18 39  1  0  0  0  0
 19 23  1  0  0  0  0
 19 20  1  0  0  0  0
 19 40  1  0  0  0  0
 20 21  1  0  0  0  0
 20 41  1  0  0  0  0
 20 42  1  0  0  0  0
 21 22  1  0  0  0  0
 21 43  1  0  0  0  0
 21 44  1  0  0  0  0
 22 23  1  0  0  0  0
 22 45  1  0  0  0  0
 22 46  1  0  0  0  0
 23 47  1  0  0  0  0
 23 48  1  0  0  0  0
 24 25  1  0  0  0  0
 25 49  1  0  0  0  0
 25 50  1  0  0  0  0
 25 51  1  0  0  0  0
M  END
$$$$
CHEMBL240100
 OpenBabel12022418103D

 80 80  0  0  1  0  0  0  0  0999 V2000
   21.0065    5.5327   -7.9498 C   0  0  0  0  0  0  0  0  0  0  0  0
   20.0887    4.3333   -8.1171 C   0  0  0  0  0  0  0  0  0  0  0  0
   19.1929    4.1669   -6.8976 C   0  0  0  0  0  0  0  0  0  0  0  0
   18.2586    2.9650   -7.0401 C   0  0  0  0  0  0  0  0  0  0  0  0
   17.3919    2.8628   -5.7919 C   0  0  0  0  0  0  0  0  0  0  0  0
   16.4056    1.6898   -5.8406 C   0  0  0  0  0  0  0  0  0  0  0  0
   15.5289    1.5777   -4.5570 C   0  0  0  0  0  0  0  0  0  0  0  0
   14.6420    2.8436   -4.4092 C   0  0  0  0  0  0  0  0  0  0  0  0
   14.5479    0.3910   -4.7072 C   0  0  0  0  0  0  0  0  0  0  0  0
   16.4261    1.3503   -3.3295 C   0  0  0  0  0  0  0  0  0  0  0  0
   17.2731    0.2300   -3.2308 C   0  0  0  0  0  0  0  0  0  0  0  0
   18.0513    0.0169   -2.0874 C   0  0  0  0  0  0  0  0  0  0  0  0
   18.0166    0.9251   -1.0335 C   0  0  0  0  0  0  0  0  0  0  0  0
   17.2109    2.0517   -1.1275 C   0  0  0  0  0  0  0  0  0  0  0  0
   16.4427    2.2656   -2.2664 C   0  0  0  0  0  0  0  0  0  0  0  0
   18.7743    0.6098    0.0575 O   0  0  0  0  0  0  0  0  0  0  0  0
   19.2311    1.7370    0.8045 C   0  0  0  0  0  0  0  0  0  0  0  0
   20.0643    1.2200    1.9620 C   0  0  0  0  0  0  0  0  0  0  0  0
   20.6201    2.3344    2.8050 C   0  0  0  0  0  0  0  0  0  0  0  0
   21.3808    2.1125    3.8884 C   0  0  0  0  0  0  0  0  0  0  0  0
   21.7371    0.7330    4.3497 C   0  0  0  0  0  0  0  0  0  0  0  0
   23.0379    0.6873    5.0887 C   0  0  0  0  0  0  0  0  0  0  0  0
   23.1690    0.2359    6.3494 C   0  0  0  0  0  0  0  0  0  0  0  0
   22.0213   -0.1939    7.2156 C   0  0  0  0  0  0  0  0  0  0  0  0
   21.7023   -1.6849    7.0879 C   0  0  0  0  0  0  0  0  0  0  0  0
   20.5050   -2.0245    7.9858 C   0  0  0  0  0  0  0  0  0  0  0  0
   20.1191   -3.4808    7.9430 C   0  0  0  0  0  0  0  0  0  0  0  0
   20.6330   -4.2891    7.1883 O   0  0  0  0  0  0  0  0  0  0  0  0
   19.0636   -3.8016    8.7949 N   0  0  0  0  0  0  0  0  0  0  0  0
   18.4176   -5.1151    8.9038 C   0  0  2  0  0  0  0  0  0  0  0  0
   19.3210   -6.1646    9.5434 C   0  0  0  0  0  0  0  0  0  0  0  0
   17.8135   -5.6382    7.5808 C   0  0  0  0  0  0  0  0  0  0  0  0
   18.7676   -5.9865    6.5940 O   0  0  0  0  0  0  0  0  0  0  0  0
   21.6469    5.6458   -8.8291 H   0  0  0  0  0  0  0  0  0  0  0  0
   21.6487    5.4136   -7.0710 H   0  0  0  0  0  0  0  0  0  0  0  0
   20.4274    6.4539   -7.8270 H   0  0  0  0  0  0  0  0  0  0  0  0
   20.6914    3.4298   -8.2618 H   0  0  0  0  0  0  0  0  0  0  0  0
   19.4744    4.4664   -9.0147 H   0  0  0  0  0  0  0  0  0  0  0  0
   18.5981    5.0778   -6.7516 H   0  0  0  0  0  0  0  0  0  0  0  0
   19.8118    4.0447   -5.9996 H   0  0  0  0  0  0  0  0  0  0  0  0
   18.8421    2.0463   -7.1706 H   0  0  0  0  0  0  0  0  0  0  0  0
   17.6243    3.0850   -7.9261 H   0  0  0  0  0  0  0  0  0  0  0  0
   16.8492    3.8060   -5.6839 H   0  0  0  0  0  0  0  0  0  0  0  0
   18.0482    2.7665   -4.9196 H   0  0  0  0  0  0  0  0  0  0  0  0
   16.9714    0.7615   -5.9978 H   0  0  0  0  0  0  0  0  0  0  0  0
   15.7575    1.7980   -6.7205 H   0  0  0  0  0  0  0  0  0  0  0  0
   13.9153    2.9299   -5.2226 H   0  0  0  0  0  0  0  0  0  0  0  0
   15.2301    3.7669   -4.3974 H   0  0  0  0  0  0  0  0  0  0  0  0
   14.0706    2.8212   -3.4729 H   0  0  0  0  0  0  0  0  0  0  0  0
   13.8073    0.5900   -5.4912 H   0  0  0  0  0  0  0  0  0  0  0  0
   13.9975    0.2138   -3.7752 H   0  0  0  0  0  0  0  0  0  0  0  0
   15.0570   -0.5408   -4.9743 H   0  0  0  0  0  0  0  0  0  0  0  0
   17.3440   -0.4910   -4.0417 H   0  0  0  0  0  0  0  0  0  0  0  0
   18.6911   -0.8591   -2.0211 H   0  0  0  0  0  0  0  0  0  0  0  0
   17.1294    2.7819   -0.3316 H   0  0  0  0  0  0  0  0  0  0  0  0
   15.8536    3.1774   -2.2843 H   0  0  0  0  0  0  0  0  0  0  0  0
   18.3932    2.3084    1.2188 H   0  0  0  0  0  0  0  0  0  0  0  0
   19.8447    2.3803    0.1605 H   0  0  0  0  0  0  0  0  0  0  0  0
   20.8777    0.6057    1.5580 H   0  0  0  0  0  0  0  0  0  0  0  0
   19.4400    0.5570    2.5761 H   0  0  0  0  0  0  0  0  0  0  0  0
   20.3720    3.3595    2.5400 H   0  0  0  0  0  0  0  0  0  0  0  0
   21.7134    2.9584    4.4860 H   0  0  0  0  0  0  0  0  0  0  0  0
   21.8221    0.0364    3.5091 H   0  0  0  0  0  0  0  0  0  0  0  0
   20.9015    0.3716    4.9549 H   0  0  0  0  0  0  0  0  0  0  0  0
   23.9261    0.9829    4.5382 H   0  0  0  0  0  0  0  0  0  0  0  0
   24.1593    0.1982    6.7933 H   0  0  0  0  0  0  0  0  0  0  0  0
   21.1228    0.3945    6.9894 H   0  0  0  0  0  0  0  0  0  0  0  0
   22.2583    0.0521    8.2579 H   0  0  0  0  0  0  0  0  0  0  0  0
   22.5736   -2.2845    7.3778 H   0  0  0  0  0  0  0  0  0  0  0  0
   21.4785   -1.9460    6.0446 H   0  0  0  0  0  0  0  0  0  0  0  0
   19.6383   -1.4357    7.6663 H   0  0  0  0  0  0  0  0  0  0  0  0
   20.7448   -1.7597    9.0168 H   0  0  0  0  0  0  0  0  0  0  0  0
   18.8050   -3.0983    9.4725 H   0  0  0  0  0  0  0  0  0  0  0  0
   17.5724   -4.9467    9.5851 H   0  0  0  0  0  0  0  0  0  0  0  0
   20.3038   -6.2094    9.0650 H   0  0  0  0  0  0  0  0  0  0  0  0
   18.8663   -7.1606    9.4773 H   0  0  0  0  0  0  0  0  0  0  0  0
   19.4747   -5.9509   10.6069 H   0  0  0  0  0  0  0  0  0  0  0  0
   17.1287   -4.9026    7.1457 H   0  0  0  0  0  0  0  0  0  0  0  0
   17.2334   -6.5483    7.7831 H   0  0  0  0  0  0  0  0  0  0  0  0
   19.3824   -5.2243    6.5046 H   0  0  0  0  0  0  0  0  0  0  0  0
  1  2  1  0  0  0  0
  1 34  1  0  0  0  0
  1 35  1  0  0  0  0
  1 36  1  0  0  0  0
  2  3  1  0  0  0  0
  2 37  1  0  0  0  0
  2 38  1  0  0  0  0
  3  4  1  0  0  0  0
  3 39  1  0  0  0  0
  3 40  1  0  0  0  0
  4  5  1  0  0  0  0
  4 41  1  0  0  0  0
  4 42  1  0  0  0  0
  5  6  1  0  0  0  0
  5 43  1  0  0  0  0
  5 44  1  0  0  0  0
  6  7  1  0  0  0  0
  6 45  1  0  0  0  0
  6 46  1  0  0  0  0
  7  8  1  0  0  0  0
  7  9  1  0  0  0  0
  7 10  1  0  0  0  0
  8 47  1  0  0  0  0
  8 48  1  0  0  0  0
  8 49  1  0  0  0  0
  9 50  1  0  0  0  0
  9 51  1  0  0  0  0
  9 52  1  0  0  0  0
 10 15  2  0  0  0  0
 10 11  1  0  0  0  0
 11 12  2  0  0  0  0
 11 53  1  0  0  0  0
 12 13  1  0  0  0  0
 12 54  1  0  0  0  0
 13 14  2  0  0  0  0
 13 16  1  0  0  0  0
 14 15  1  0  0  0  0
 14 55  1  0  0  0  0
 15 56  1  0  0  0  0
 16 17  1  0  0  0  0
 17 18  1  0  0  0  0
 17 57  1  0  0  0  0
 17 58  1  0  0  0  0
 18 19  1  0  0  0  0
 18 59  1  0  0  0  0
 18 60  1  0  0  0  0
 19 20  2  0  0  0  0
 19 61  1  0  0  0  0
 20 21  1  0  0  0  0
 20 62  1  0  0  0  0
 21 22  1  0  0  0  0
 21 63  1  0  0  0  0
 21 64  1  0  0  0  0
 22 23  2  0  0  0  0
 22 65  1  0  0  0  0
 23 24  1  0  0  0  0
 23 66  1  0  0  0  0
 24 25  1  0  0  0  0
 24 67  1  0  0  0  0
 24 68  1  0  0  0  0
 25 26  1  0  0  0  0
 25 69  1  0  0  0  0
 25 70  1  0  0  0  0
 26 27  1  0  0  0  0
 26 71  1  0  0  0  0
 26 72  1  0  0  0  0
 27 28  2  0  0  0  0
 27 29  1  0  0  0  0
 29 73  1  0  0  0  0
 30 32  1  0  0  0  0
 30 31  1  0  0  0  0
 30 29  1  0  0  0  0
 30 74  1  1  0  0  0
 31 75  1  0  0  0  0
 31 76  1  0  0  0  0
 31 77  1  0  0  0  0
 32 33  1  0  0  0  0
 32 78  1  0  0  0  0
 32 79  1  0  0  0  0
 33 80  1  0  0  0  0
M  END
$$$$
CHEMBL2387179
 OpenBabel12022418103D

 55 57  0  0  0  0  0  0  0  0999 V2000
    0.4909    0.5794    1.1105 C   0  0  0  0  0  0  0  0  0  0  0  0
    0.8455    0.9988   -0.1708 C   0  0  0  0  0  0  0  0  0  0  0  0
    0.3472    0.3278   -1.2857 C   0  0  0  0  0  0  0  0  0  0  0  0
   -0.5182   -0.7544   -1.1198 C   0  0  0  0  0  0  0  0  0  0  0  0
   -0.9042   -1.1675    0.1638 C   0  0  0  0  0  0  0  0  0  0  0  0
   -0.3751   -0.5028    1.2785 C   0  0  0  0  0  0  0  0  0  0  0  0
   -1.8496   -2.3270    0.3324 C   0  0  0  0  0  0  0  0  0  0  0  0
   -1.1296   -3.5738    0.3706 N   0  0  0  0  0  0  0  0  0  0  0  0
   -1.6230   -4.7282   -0.1725 C   0  0  0  0  0  0  0  0  0  0  0  0
   -2.7030   -4.7802   -0.7569 O   0  0  0  0  0  0  0  0  0  0  0  0
   -0.7513   -5.9320   -0.0266 C   0  0  0  0  0  0  0  0  0  0  0  0
    0.4169   -6.0135    0.8929 C   0  0  0  0  0  0  0  0  0  0  0  0
    0.7874   -4.9991    1.4907 O   0  0  0  0  0  0  0  0  0  0  0  0
    1.0457   -7.2644    1.0370 N   0  0  0  0  0  0  0  0  0  0  0  0
    2.1684   -7.2972    1.9950 C   0  0  0  0  0  0  0  0  0  0  0  0
    1.8358   -6.9116    3.4507 C   0  0  0  0  0  0  0  0  0  0  0  0
    0.9851   -7.8813    4.0652 O   0  0  0  0  0  0  0  0  0  0  0  0
    0.6957   -7.5074    5.4152 C   0  0  0  0  0  0  0  0  0  0  0  0
    0.7251   -8.3446    0.1902 C   0  0  0  0  0  0  0  0  0  0  0  0
   -0.2710   -8.2152   -0.7202 C   0  0  0  0  0  0  0  0  0  0  0  0
   -1.0372   -6.9931   -0.7921 C   0  0  0  0  0  0  0  0  0  0  0  0
   -0.6896   -9.3095   -1.6737 C   0  0  0  0  0  0  0  0  0  0  0  0
   -1.8990  -10.1293   -1.2302 C   0  0  0  0  0  0  0  0  0  0  0  0
   -1.9979  -10.6943    0.1957 C   0  0  0  0  0  0  0  0  0  0  0  0
   -0.9273  -10.4512    1.2649 C   0  0  0  0  0  0  0  0  0  0  0  0
    0.5116  -10.8185    0.8843 C   0  0  0  0  0  0  0  0  0  0  0  0
    1.4041   -9.6973    0.3130 C   0  0  0  0  0  0  0  0  0  0  0  0
    0.8876    1.0971    1.9798 H   0  0  0  0  0  0  0  0  0  0  0  0
    1.5134    1.8462   -0.3005 H   0  0  0  0  0  0  0  0  0  0  0  0
    0.6302    0.6475   -2.2851 H   0  0  0  0  0  0  0  0  0  0  0  0
   -0.8967   -1.2751   -1.9972 H   0  0  0  0  0  0  0  0  0  0  0  0
   -0.6392   -0.8218    2.2842 H   0  0  0  0  0  0  0  0  0  0  0  0
   -2.5888   -2.3321   -0.4764 H   0  0  0  0  0  0  0  0  0  0  0  0
   -2.4062   -2.2361    1.2716 H   0  0  0  0  0  0  0  0  0  0  0  0
   -0.2733   -3.6219    0.9219 H   0  0  0  0  0  0  0  0  0  0  0  0
    2.9185   -6.5913    1.6176 H   0  0  0  0  0  0  0  0  0  0  0  0
    2.6425   -8.2732    2.0339 H   0  0  0  0  0  0  0  0  0  0  0  0
    1.3741   -5.9250    3.5283 H   0  0  0  0  0  0  0  0  0  0  0  0
    2.7782   -6.8802    4.0124 H   0  0  0  0  0  0  0  0  0  0  0  0
    0.0144   -8.2451    5.8471 H   0  0  0  0  0  0  0  0  0  0  0  0
    0.2124   -6.5256    5.4480 H   0  0  0  0  0  0  0  0  0  0  0  0
    1.6144   -7.4900    6.0095 H   0  0  0  0  0  0  0  0  0  0  0  0
   -1.8790   -6.9673   -1.4802 H   0  0  0  0  0  0  0  0  0  0  0  0
    0.1326   -9.9958   -1.8988 H   0  0  0  0  0  0  0  0  0  0  0  0
   -0.9139   -8.8637   -2.6528 H   0  0  0  0  0  0  0  0  0  0  0  0
   -1.9796  -10.9779   -1.9238 H   0  0  0  0  0  0  0  0  0  0  0  0
   -2.8040   -9.5370   -1.4219 H   0  0  0  0  0  0  0  0  0  0  0  0
   -2.1345  -11.7805    0.1085 H   0  0  0  0  0  0  0  0  0  0  0  0
   -2.9489  -10.3351    0.6159 H   0  0  0  0  0  0  0  0  0  0  0  0
   -1.2042  -11.0864    2.1170 H   0  0  0  0  0  0  0  0  0  0  0  0
   -1.0058   -9.4332    1.6638 H   0  0  0  0  0  0  0  0  0  0  0  0
    0.5069  -11.6690    0.1905 H   0  0  0  0  0  0  0  0  0  0  0  0
    1.0061  -11.1844    1.7918 H   0  0  0  0  0  0  0  0  0  0  0  0
    2.3364   -9.6807    0.8774 H   0  0  0  0  0  0  0  0  0  0  0  0
    1.7724  -10.0028   -0.6767 H   0  0  0  0  0  0  0  0  0  0  0  0
  1  6  2  0  0  0  0
  1  2  1  0  0  0  0
  1 28  1  0  0  0  0
  2  3  2  0  0  0  0
  2 29  1  0  0  0  0
  3  4  1  0  0  0  0
  3 30  1  0  0  0  0
  4  5  2  0  0  0  0
  4 31  1  0  0  0  0
  5  6  1  0  0  0  0
  5  7  1  0  0  0  0
  6 32  1  0  0  0  0
  7  8  1  0  0  0  0
  7 33  1  0  0  0  0
  7 34  1  0  0  0  0
  8  9  1  0  0  0  0
  8 35  1  0  0  0  0
  9 10  2  0  0  0  0
  9 11  1  0  0  0  0
 11 21  2  0  0  0  0
 11 12  1  0  0  0  0
 12 13  2  0  0  0  0
 12 14  1  0  0  0  0
 14 15  1  0  0  0  0
 14 19  1  0  0  0  0
 15 16  1  0  0  0  0
 15 36  1  0  0  0  0
 15 37  1  0  0  0  0
 16 17  1  0  0  0  0
 16 38  1  0  0  0  0
 16 39  1  0  0  0  0
 17 18  1  0  0  0  0
 18 40  1  0  0  0  0
 18 41  1  0  0  0  0
 18 42  1  0  0  0  0
 19 27  1  0  0  0  0
 19 20  2  0  0  0  0
 20 21  1  0  0  0  0
 20 22  1  0  0  0  0
 21 43  1  0  0  0  0
 22 23  1  0  0  0  0
 22 44  1  0  0  0  0
 22 45  1  0  0  0  0
 23 24  1  0  0  0  0
 23 46  1  0  0  0  0
 23 47  1  0  0  0  0
 24 25  1  0  0  0  0
 24 48  1  0  0  0  0
 24 49  1  0  0  0  0
 25 26  1  0  0  0  0
 25 50  1  0  0  0  0
 25 51  1  0  0  0  0
 26 27  1  0  0  0  0
 26 52  1  0  0  0  0
 26 53  1  0  0  0  0
 27 54  1  0  0  0  0
 27 55  1  0  0  0  0
M  END
$$$$
CHEMBL3114519
 OpenBabel12022418103D

 48 51  0  0  0  0  0  0  0  0999 V2000
   -0.8445   -1.4561    0.0252 C   0  0  0  0  0  0  0  0  0  0  0  0
   -2.0381   -0.7439    0.0321 C   0  0  0  0  0  0  0  0  0  0  0  0
   -2.0341    0.6498    0.0526 C   0  0  0  0  0  0  0  0  0  0  0  0
   -0.8353    1.4102    0.0545 C   0  0  0  0  0  0  0  0  0  0  0  0
   -0.8613    2.8903    0.0380 C   0  0  0  0  0  0  0  0  0  0  0  0
   -1.8978    3.5949   -0.6089 C   0  0  0  0  0  0  0  0  0  0  0  0
   -1.9415    4.9930   -0.6276 C   0  0  0  0  0  0  0  0  0  0  0  0
   -0.9373    5.7255   -0.0053 C   0  0  0  0  0  0  0  0  0  0  0  0
    0.0956    5.0607    0.6446 C   0  0  0  0  0  0  0  0  0  0  0  0
    0.1262    3.6617    0.6723 C   0  0  0  0  0  0  0  0  0  0  0  0
    0.3846    0.6758    0.0577 C   0  0  0  0  0  0  0  0  0  0  0  0
    0.3461   -0.7188    0.0418 C   0  0  0  0  0  0  0  0  0  0  0  0
    1.6682   -1.1138    0.0295 N   0  0  0  0  0  0  0  0  0  0  0  0
    2.4615    0.0152    0.0539 C   0  0  0  0  0  0  0  0  0  0  0  0
    3.9229    0.0488    0.0480 C   0  0  0  0  0  0  0  0  0  0  0  0
    4.6268   -0.9594    0.0792 O   0  0  0  0  0  0  0  0  0  0  0  0
    4.4810    1.3121    0.0114 N   0  0  0  0  0  0  0  0  0  0  0  0
    5.9193    1.4944    0.0972 C   0  0  0  0  0  0  0  0  0  0  0  0
    6.4396    2.7527   -0.5576 C   0  0  0  0  0  0  0  0  0  0  0  0
    7.6651    3.3320   -0.1725 C   0  0  0  0  0  0  0  0  0  0  0  0
    8.1581    4.4740   -0.8155 C   0  0  0  0  0  0  0  0  0  0  0  0
    7.4531    5.0436   -1.8724 C   0  0  0  0  0  0  0  0  0  0  0  0
    6.2632    4.4583   -2.2986 C   0  0  0  0  0  0  0  0  0  0  0  0
    5.7660    3.3225   -1.6566 C   0  0  0  0  0  0  0  0  0  0  0  0
    8.6444    2.6520    1.0806 Cl  0  0  0  0  0  0  0  0  0  0  0  0
    1.7059    1.1043    0.0651 N   0  0  0  0  0  0  0  0  0  0  0  0
    2.1008   -2.4950   -0.0891 C   0  0  0  0  0  0  0  0  0  0  0  0
    2.2324   -3.2086    1.2459 C   0  0  0  0  0  0  0  0  0  0  0  0
   -0.8502   -2.5410    0.0107 H   0  0  0  0  0  0  0  0  0  0  0  0
   -2.9850   -1.2797    0.0220 H   0  0  0  0  0  0  0  0  0  0  0  0
   -2.9983    1.1542    0.0779 H   0  0  0  0  0  0  0  0  0  0  0  0
   -2.6928    3.0606   -1.1256 H   0  0  0  0  0  0  0  0  0  0  0  0
   -2.7564    5.5033   -1.1337 H   0  0  0  0  0  0  0  0  0  0  0  0
   -0.9601    6.8119   -0.0290 H   0  0  0  0  0  0  0  0  0  0  0  0
    0.8838    5.6256    1.1356 H   0  0  0  0  0  0  0  0  0  0  0  0
    0.9415    3.1779    1.2065 H   0  0  0  0  0  0  0  0  0  0  0  0
    3.8495    2.0897    0.1856 H   0  0  0  0  0  0  0  0  0  0  0  0
    6.4213    0.6360   -0.3631 H   0  0  0  0  0  0  0  0  0  0  0  0
    6.1473    1.4888    1.1686 H   0  0  0  0  0  0  0  0  0  0  0  0
    9.1006    4.9161   -0.5014 H   0  0  0  0  0  0  0  0  0  0  0  0
    7.8364    5.9271   -2.3737 H   0  0  0  0  0  0  0  0  0  0  0  0
    5.7220    4.8814   -3.1441 H   0  0  0  0  0  0  0  0  0  0  0  0
    4.8514    2.8716   -2.0318 H   0  0  0  0  0  0  0  0  0  0  0  0
    3.0361   -2.5307   -0.6528 H   0  0  0  0  0  0  0  0  0  0  0  0
    1.3633   -3.0167   -0.7101 H   0  0  0  0  0  0  0  0  0  0  0  0
    2.9914   -2.7406    1.8801 H   0  0  0  0  0  0  0  0  0  0  0  0
    2.5201   -4.2529    1.0833 H   0  0  0  0  0  0  0  0  0  0  0  0
    1.2855   -3.2060    1.7968 H   0  0  0  0  0  0  0  0  0  0  0  0
  1 12  2  0  0  0  0
  1  2  1  0  0  0  0
  1 29  1  0  0  0  0
  2  3  2  0  0  0  0
  2 30  1  0  0  0  0
  3  4  1  0  0  0  0
  3 31  1  0  0  0  0
  4  5  1  0  0  0  0
  4 11  2  0  0  0  0
  5 10  2  0  0  0  0
  5  6  1  0  0  0  0
  6  7  2  0  0  0  0
  6 32  1  0  0  0  0
  7  8  1  0  0  0  0
  7 33  1  0  0  0  0
  8  9  2  0  0  0  0
  8 34  1  0  0  0  0
  9 10  1  0  0  0  0
  9 35  1  0  0  0  0
 10 36  1  0  0  0  0
 11 26  1  0  0  0  0
 11 12  1  0  0  0  0
 12 13  1  0  0  0  0
 13 14  1  0  0  0  0
 13 27  1  0  0  0  0
 14 15  1  0  0  0  0
 14 26  2  0  0  0  0
 15 16  2  0  0  0  0
 15 17  1  0  0  0  0
 17 18  1  0  0  0  0
 17 37  1  0  0  0  0
 18 19  1  0  0  0  0
 18 38  1  0  0  0  0
 18 39  1  0  0  0  0
 19 24  2  0  0  0  0
 19 20  1  0  0  0  0
 20 21  2  0  0  0  0
 20 25  1  0  0  0  0
 21 22  1  0  0  0  0
 21 40  1  0  0  0  0
 22 23  2  0  0  0  0
 22 41  1  0  0  0  0
 23 24  1  0  0  0  0
 23 42  1  0  0  0  0
 24 43  1  0  0  0  0
 27 28  1  0  0  0  0
 27 44  1  0  0  0  0
 27 45  1  0  0  0  0
 28 46  1  0  0  0  0
 28 47  1  0  0  0  0
 28 48  1  0  0  0  0
M  END
$$$$
CHEMBL3647327
 OpenBabel12022418103D

 53 55  0  0  1  0  0  0  0  0999 V2000
    1.7264   -0.0039    3.7398 C   0  0  0  0  0  0  0  0  0  0  0  0
    2.5648    0.0775    2.4706 C   0  0  0  0  0  0  0  0  0  0  0  0
    3.7819   -0.8472    2.5594 C   0  0  0  0  0  0  0  0  0  0  0  0
    4.6235   -0.8410    1.2759 C   0  0  0  0  0  0  0  0  0  0  0  0
    5.8027   -1.6952    1.4164 N   0  0  0  0  0  0  0  0  0  0  0  0
    5.7400   -3.0884    1.5578 C   0  0  0  0  0  0  0  0  0  0  0  0
    4.6522   -3.7851    1.4868 N   0  0  0  0  0  0  0  0  0  0  0  0
    4.6558   -5.1620    1.5563 C   0  0  0  0  0  0  0  0  0  0  0  0
    5.3109   -5.8601    2.3188 O   0  0  0  0  0  0  0  0  0  0  0  0
    3.6121   -5.7860    0.6881 C   0  0  0  0  0  0  0  0  0  0  0  0
    2.3660   -5.1195    0.6426 C   0  0  0  0  0  0  0  0  0  0  0  0
    1.3157   -5.5834   -0.1548 C   0  0  0  0  0  0  0  0  0  0  0  0
    1.5287   -6.7292   -0.9195 C   0  0  0  0  0  0  0  0  0  0  0  0
    2.7518   -7.4046   -0.8681 C   0  0  0  0  0  0  0  0  0  0  0  0
    3.8136   -6.9613   -0.0589 C   0  0  0  0  0  0  0  0  0  0  0  0
    5.0259   -7.6173    0.0038 O   0  0  0  0  0  0  0  0  0  0  0  0
    5.1064   -8.8384   -0.7573 C   0  0  0  0  0  0  0  0  0  0  0  0
    6.4411   -9.5750   -0.5765 C   0  0  1  0  0  0  0  0  0  0  0  0
    7.6463   -8.7438   -0.9745 C   0  0  0  0  0  0  0  0  0  0  0  0
    6.5918  -10.0110    0.7709 O   0  0  0  0  0  0  0  0  0  0  0  0
   -0.0141   -4.8784   -0.1997 C   0  0  0  0  0  0  0  0  0  0  0  0
   -0.0882   -3.7988    0.6266 F   0  0  0  0  0  0  0  0  0  0  0  0
   -0.3102   -4.4181   -1.4454 F   0  0  0  0  0  0  0  0  0  0  0  0
   -1.0429   -5.6953    0.1548 F   0  0  0  0  0  0  0  0  0  0  0  0
    7.3789   -3.7600    1.7736 S   0  0  0  0  0  0  0  0  0  0  0  0
    8.1000   -2.1656    1.5071 C   0  0  0  0  0  0  0  0  0  0  0  0
    9.4508   -1.8814    1.4493 C   0  0  0  0  0  0  0  0  0  0  0  0
    9.7868   -0.5785    1.1483 C   0  0  0  0  0  0  0  0  0  0  0  0
    8.8772    0.4000    0.9199 N   0  0  0  0  0  0  0  0  0  0  0  0
    7.5602    0.0699    1.0089 C   0  0  0  0  0  0  0  0  0  0  0  0
    7.1069   -1.1996    1.3093 C   0  0  0  0  0  0  0  0  0  0  0  0
    0.8590    0.6602    3.6722 H   0  0  0  0  0  0  0  0  0  0  0  0
    2.3126    0.2910    4.6163 H   0  0  0  0  0  0  0  0  0  0  0  0
    1.3601   -1.0231    3.9013 H   0  0  0  0  0  0  0  0  0  0  0  0
    2.8875    1.1141    2.3182 H   0  0  0  0  0  0  0  0  0  0  0  0
    1.9417   -0.1993    1.6121 H   0  0  0  0  0  0  0  0  0  0  0  0
    3.4328   -1.8632    2.7728 H   0  0  0  0  0  0  0  0  0  0  0  0
    4.4071   -0.5442    3.4083 H   0  0  0  0  0  0  0  0  0  0  0  0
    4.8916    0.1971    1.0514 H   0  0  0  0  0  0  0  0  0  0  0  0
    4.0212   -1.1847    0.4261 H   0  0  0  0  0  0  0  0  0  0  0  0
    2.2150   -4.2251    1.2511 H   0  0  0  0  0  0  0  0  0  0  0  0
    0.7392   -7.1110   -1.5645 H   0  0  0  0  0  0  0  0  0  0  0  0
    2.8332   -8.2883   -1.4935 H   0  0  0  0  0  0  0  0  0  0  0  0
    4.9893   -8.6050   -1.8223 H   0  0  0  0  0  0  0  0  0  0  0  0
    4.3138   -9.5186   -0.4206 H   0  0  0  0  0  0  0  0  0  0  0  0
    6.4149  -10.4771   -1.2016 H   0  0  0  0  0  0  0  0  0  0  0  0
    7.7528   -7.8633   -0.3342 H   0  0  0  0  0  0  0  0  0  0  0  0
    7.5756   -8.4208   -2.0175 H   0  0  0  0  0  0  0  0  0  0  0  0
    8.5621   -9.3339   -0.8579 H   0  0  0  0  0  0  0  0  0  0  0  0
    6.4834   -9.2188    1.3367 H   0  0  0  0  0  0  0  0  0  0  0  0
   10.2027   -2.6407    1.6190 H   0  0  0  0  0  0  0  0  0  0  0  0
   10.8273   -0.2751    1.0700 H   0  0  0  0  0  0  0  0  0  0  0  0
    6.8936    0.8977    0.7967 H   0  0  0  0  0  0  0  0  0  0  0  0
  1  2  1  0  0  0  0
  1 32  1  0  0  0  0
  1 33  1  0  0  0  0
  1 34  1  0  0  0  0
  2  3  1  0  0  0  0
  2 35  1  0  0  0  0
  2 36  1  0  0  0  0
  3  4  1  0  0  0  0
  3 37  1  0  0  0  0
  3 38  1  0  0  0  0
  4  5  1  0  0  0  0
  4 39  1  0  0  0  0
  4 40  1  0  0  0  0
  5 31  1  0  0  0  0
  5  6  1  0  0  0  0
  6  7  2  0  0  0  0
  6 25  1  0  0  0  0
  7  8  1  0  0  0  0
  8  9  2  0  0  0  0
  8 10  1  0  0  0  0
 10 15  2  0  0  0  0
 10 11  1  0  0  0  0
 11 12  2  0  0  0  0
 11 41  1  0  0  0  0
 12 13  1  0  0  0  0
 12 21  1  0  0  0  0
 13 14  2  0  0  0  0
 13 42  1  0  0  0  0
 14 15  1  0  0  0  0
 14 43  1  0  0  0  0
 15 16  1  0  0  0  0
 16 17  1  0  0  0  0
 17 18  1  0  0  0  0
 17 44  1  0  0  0  0
 17 45  1  0  0  0  0
 18 19  1  0  0  0  0
 18 20  1  0  0  0  0
 18 46  1  6  0  0  0
 19 47  1  0  0  0  0
 19 48  1  0  0  0  0
 19 49  1  0  0  0  0
 20 50  1  0  0  0  0
 21 22  1  0  0  0  0
 21 23  1  0  0  0  0
 21 24  1  0  0  0  0
 25 26  1  0  0  0  0
 26 31  2  0  0  0  0
 26 27  1  0  0  0  0
 27 28  2  0  0  0  0
 27 51  1  0  0  0  0
 28 29  1  0  0  0  0
 28 52  1  0  0  0  0
 29 30  2  0  0  0  0
 30 31  1  0  0  0  0
 30 53  1  0  0  0  0
M  END
$$$$
CHEMBL4581598
 OpenBabel12022418103D

 48 50  0  0  0  0  0  0  0  0999 V2000
   -2.0943    0.6784   -0.0521 C   0  0  0  0  0  0  0  0  0  0  0  0
   -2.1614   -0.7246   -0.0345 C   0  0  0  0  0  0  0  0  0  0  0  0
   -0.9785   -1.4764   -0.0486 C   0  0  0  0  0  0  0  0  0  0  0  0
    0.2365   -0.8066   -0.0630 C   0  0  0  0  0  0  0  0  0  0  0  0
    0.3113    0.5874   -0.0798 C   0  0  0  0  0  0  0  0  0  0  0  0
   -0.8572    1.3389   -0.0765 C   0  0  0  0  0  0  0  0  0  0  0  0
    1.6435    1.0643   -0.0801 N   0  0  0  0  0  0  0  0  0  0  0  0
    2.6133    0.0692    0.0145 C   0  0  0  0  0  0  0  0  0  0  0  0
    3.8207    0.2177    0.1336 O   0  0  0  0  0  0  0  0  0  0  0  0
    1.8501   -1.5281   -0.0282 S   0  0  0  0  0  0  0  0  0  0  0  0
    2.0042    2.4691   -0.0003 C   0  0  0  0  0  0  0  0  0  0  0  0
    2.9367    2.9554   -1.1169 C   0  0  0  0  0  0  0  0  0  0  0  0
    2.3386    2.8541   -2.5225 C   0  0  0  0  0  0  0  0  0  0  0  0
    3.3343    3.3836   -3.5600 C   0  0  0  0  0  0  0  0  0  0  0  0
    2.7907    3.3012   -4.9759 C   0  0  0  0  0  0  0  0  0  0  0  0
   -3.4626   -1.4593   -0.0113 C   0  0  0  0  0  0  0  0  0  0  0  0
   -3.4885   -2.5991   -0.4745 O   0  0  0  0  0  0  0  0  0  0  0  0
   -4.6967   -0.7967    0.6141 C   0  0  0  0  0  0  0  0  0  0  0  0
   -5.9611   -1.6230    0.3132 C   0  0  0  0  0  0  0  0  0  0  0  0
   -7.1916   -1.1064    1.0542 C   0  0  0  0  0  0  0  0  0  0  0  0
   -6.9376   -1.0177    2.5542 C   0  0  0  0  0  0  0  0  0  0  0  0
   -5.7341   -0.1327    2.8466 C   0  0  0  0  0  0  0  0  0  0  0  0
   -4.4842   -0.6302    2.1266 C   0  0  0  0  0  0  0  0  0  0  0  0
   -2.9955    1.2846   -0.0572 H   0  0  0  0  0  0  0  0  0  0  0  0
   -1.0090   -2.5635   -0.0357 H   0  0  0  0  0  0  0  0  0  0  0  0
   -0.8491    2.4225   -0.0883 H   0  0  0  0  0  0  0  0  0  0  0  0
    2.5171    2.6101    0.9592 H   0  0  0  0  0  0  0  0  0  0  0  0
    1.1176    3.1075    0.0214 H   0  0  0  0  0  0  0  0  0  0  0  0
    3.8834    2.4049   -1.0875 H   0  0  0  0  0  0  0  0  0  0  0  0
    3.1865    4.0046   -0.9132 H   0  0  0  0  0  0  0  0  0  0  0  0
    1.4079    3.4314   -2.5726 H   0  0  0  0  0  0  0  0  0  0  0  0
    2.0900    1.8119   -2.7534 H   0  0  0  0  0  0  0  0  0  0  0  0
    4.2667    2.8093   -3.5031 H   0  0  0  0  0  0  0  0  0  0  0  0
    3.5847    4.4266   -3.3341 H   0  0  0  0  0  0  0  0  0  0  0  0
    2.5634    2.2658   -5.2508 H   0  0  0  0  0  0  0  0  0  0  0  0
    3.5305    3.6839   -5.6869 H   0  0  0  0  0  0  0  0  0  0  0  0
    1.8790    3.8967   -5.0834 H   0  0  0  0  0  0  0  0  0  0  0  0
   -4.8447    0.1844    0.1486 H   0  0  0  0  0  0  0  0  0  0  0  0
   -5.8024   -2.6743    0.5860 H   0  0  0  0  0  0  0  0  0  0  0  0
   -6.1583   -1.6108   -0.7662 H   0  0  0  0  0  0  0  0  0  0  0  0
   -8.0420   -1.7708    0.8629 H   0  0  0  0  0  0  0  0  0  0  0  0
   -7.4656   -0.1169    0.6685 H   0  0  0  0  0  0  0  0  0  0  0  0
   -6.7639   -2.0225    2.9587 H   0  0  0  0  0  0  0  0  0  0  0  0
   -7.8245   -0.6178    3.0579 H   0  0  0  0  0  0  0  0  0  0  0  0
   -5.5493   -0.1061    3.9265 H   0  0  0  0  0  0  0  0  0  0  0  0
   -5.9509    0.8964    2.5343 H   0  0  0  0  0  0  0  0  0  0  0  0
   -3.6667    0.0736    2.3217 H   0  0  0  0  0  0  0  0  0  0  0  0
   -4.1721   -1.5878    2.5636 H   0  0  0  0  0  0  0  0  0  0  0  0
  1  6  2  0  0  0  0
  1  2  1  0  0  0  0
  1 24  1  0  0  0  0
  2  3  2  0  0  0  0
  2 16  1  0  0  0  0
  3  4  1  0  0  0  0
  3 25  1  0  0  0  0
  4 10  1  0  0  0  0
  4  5  2  0  0  0  0
  5  6  1  0  0  0  0
  5  7  1  0  0  0  0
  6 26  1  0  0  0  0
  7  8  1  0  0  0  0
  7 11  1  0  0  0  0
  8  9  2  0  0  0  0
  8 10  1  0  0  0  0
 11 12  1  0  0  0  0
 11 27  1  0  0  0  0
 11 28  1  0  0  0  0
 12 13  1  0  0  0  0
 12 29  1  0  0  0  0
 12 30  1  0  0  0  0
 13 14  1  0  0  0  0
 13 31  1  0  0  0  0
 13 32  1  0  0  0  0
 14 15  1  0  0  0  0
 14 33  1  0  0  0  0
 14 34  1  0  0  0  0
 15 35  1  0  0  0  0
 15 36  1  0  0  0  0
 15 37  1  0  0  0  0
 16 17  2  0  0  0  0
 16 18  1  0  0  0  0
 18 23  1  0  0  0  0
 18 19  1  0  0  0  0
 18 38  1  0  0  0  0
 19 20  1  0  0  0  0
 19 39  1  0  0  0  0
 19 40  1  0  0  0  0
 20 21  1  0  0  0  0
 20 41  1  0  0  0  0
 20 42  1  0  0  0  0
 21 22  1  0  0  0  0
 21 43  1  0  0  0  0
 21 44  1  0  0  0  0
 22 23  1  0  0  0  0
 22 45  1  0  0  0  0
 22 46  1  0  0  0  0
 23 47  1  0  0  0  0
 23 48  1  0  0  0  0
M  END
$$$$
CHEMBL3409150
 OpenBabel12022418103D

 50 51  0  0  0  0  0  0  0  0999 V2000
   -2.5652    0.6807   -0.0795 C   0  0  0  0  0  0  0  0  0  0  0  0
   -2.5437   -0.7084   -0.0573 C   0  0  0  0  0  0  0  0  0  0  0  0
   -1.3329   -1.4270    0.0234 C   0  0  0  0  0  0  0  0  0  0  0  0
   -0.0807   -0.7415    0.0626 C   0  0  0  0  0  0  0  0  0  0  0  0
   -0.1528    0.6813    0.0481 C   0  0  0  0  0  0  0  0  0  0  0  0
   -1.3719    1.3766   -0.0191 C   0  0  0  0  0  0  0  0  0  0  0  0
    1.0795    1.5113    0.0758 C   0  0  0  0  0  0  0  0  0  0  0  0
    1.0153    2.7366    0.1612 O   0  0  0  0  0  0  0  0  0  0  0  0
    2.3746    0.8231   -0.0407 C   0  0  0  0  0  0  0  0  0  0  0  0
    2.3332   -0.5156   -0.0319 C   0  0  0  0  0  0  0  0  0  0  0  0
    1.2209   -1.3438    0.1134 N   0  0  0  0  0  0  0  0  0  0  0  0
    1.3587   -2.8212    0.0248 C   0  0  0  0  0  0  0  0  0  0  0  0
    2.6287   -3.4139    0.6586 C   0  0  0  0  0  0  0  0  0  0  0  0
    2.6932   -3.1574    2.1666 C   0  0  0  0  0  0  0  0  0  0  0  0
    3.9197   -3.8043    2.7863 C   0  0  0  0  0  0  0  0  0  0  0  0
    3.7024    1.4956   -0.1649 C   0  0  0  0  0  0  0  0  0  0  0  0
    4.7321    0.8407   -0.2978 O   0  0  0  0  0  0  0  0  0  0  0  0
    3.6822    2.8698   -0.1149 N   0  0  0  0  0  0  0  0  0  0  0  0
    4.8688    3.7338   -0.2008 C   0  0  0  0  0  0  0  0  0  0  0  0
    5.5768    3.5537   -1.5536 C   0  0  0  0  0  0  0  0  0  0  0  0
    4.4235    5.2043   -0.0855 C   0  0  0  0  0  0  0  0  0  0  0  0
    5.8425    3.4425    0.9532 C   0  0  0  0  0  0  0  0  0  0  0  0
   -1.3425   -2.7977    0.0318 O   0  0  0  0  0  0  0  0  0  0  0  0
   -2.5695   -3.4958    0.2019 C   0  0  0  0  0  0  0  0  0  0  0  0
   -3.5091    1.2149   -0.1501 H   0  0  0  0  0  0  0  0  0  0  0  0
   -3.5028   -1.2139   -0.1176 H   0  0  0  0  0  0  0  0  0  0  0  0
   -1.3881    2.4647   -0.0399 H   0  0  0  0  0  0  0  0  0  0  0  0
    3.2702   -1.0535   -0.1382 H   0  0  0  0  0  0  0  0  0  0  0  0
    1.3092   -3.1161   -1.0306 H   0  0  0  0  0  0  0  0  0  0  0  0
    0.5717   -3.3368    0.5698 H   0  0  0  0  0  0  0  0  0  0  0  0
    3.5387   -3.0617    0.1632 H   0  0  0  0  0  0  0  0  0  0  0  0
    2.6063   -4.4995    0.4912 H   0  0  0  0  0  0  0  0  0  0  0  0
    1.7939   -3.5580    2.6497 H   0  0  0  0  0  0  0  0  0  0  0  0
    2.7168   -2.0823    2.3730 H   0  0  0  0  0  0  0  0  0  0  0  0
    3.8984   -4.8905    2.6531 H   0  0  0  0  0  0  0  0  0  0  0  0
    3.9559   -3.5935    3.8595 H   0  0  0  0  0  0  0  0  0  0  0  0
    4.8370   -3.4181    2.3312 H   0  0  0  0  0  0  0  0  0  0  0  0
    2.7699    3.3139    0.0001 H   0  0  0  0  0  0  0  0  0  0  0  0
    4.8982    3.7815   -2.3839 H   0  0  0  0  0  0  0  0  0  0  0  0
    5.9344    2.5297   -1.6985 H   0  0  0  0  0  0  0  0  0  0  0  0
    6.4454    4.2165   -1.6377 H   0  0  0  0  0  0  0  0  0  0  0  0
    3.7264    5.4739   -0.8870 H   0  0  0  0  0  0  0  0  0  0  0  0
    5.2812    5.8852   -0.1451 H   0  0  0  0  0  0  0  0  0  0  0  0
    3.9144    5.3917    0.8670 H   0  0  0  0  0  0  0  0  0  0  0  0
    6.2234    2.4172    0.9238 H   0  0  0  0  0  0  0  0  0  0  0  0
    5.3510    3.5793    1.9236 H   0  0  0  0  0  0  0  0  0  0  0  0
    6.7096    4.1118    0.9183 H   0  0  0  0  0  0  0  0  0  0  0  0
   -2.3294   -4.5415    0.4192 H   0  0  0  0  0  0  0  0  0  0  0  0
   -3.1475   -3.4706   -0.7265 H   0  0  0  0  0  0  0  0  0  0  0  0
   -3.1524   -3.1153    1.0475 H   0  0  0  0  0  0  0  0  0  0  0  0
  1  6  2  0  0  0  0
  1  2  1  0  0  0  0
  1 25  1  0  0  0  0
  2  3  2  0  0  0  0
  2 26  1  0  0  0  0
  3  4  1  0  0  0  0
  3 23  1  0  0  0  0
  4 11  1  0  0  0  0
  4  5  2  0  0  0  0
  5  6  1  0  0  0  0
  5  7  1  0  0  0  0
  6 27  1  0  0  0  0
  7  8  2  0  0  0  0
  7  9  1  0  0  0  0
  9 10  2  0  0  0  0
  9 16  1  0  0  0  0
 10 11  1  0  0  0  0
 10 28  1  0  0  0  0
 11 12  1  0  0  0  0
 12 13  1  0  0  0  0
 12 29  1  0  0  0  0
 12 30  1  0  0  0  0
 13 14  1  0  0  0  0
 13 31  1  0  0  0  0
 13 32  1  0  0  0  0
 14 15  1  0  0  0  0
 14 33  1  0  0  0  0
 14 34  1  0  0  0  0
 15 35  1  0  0  0  0
 15 36  1  0  0  0  0
 15 37  1  0  0  0  0
 16 17  2  0  0  0  0
 16 18  1  0  0  0  0
 18 19  1  0  0  0  0
 18 38  1  0  0  0  0
 19 20  1  0  0  0  0
 19 21  1  0  0  0  0
 19 22  1  0  0  0  0
 20 39  1  0  0  0  0
 20 40  1  0  0  0  0
 20 41  1  0  0  0  0
 21 42  1  0  0  0  0
 21 43  1  0  0  0  0
 21 44  1  0  0  0  0
 22 45  1  0  0  0  0
 22 46  1  0  0  0  0
 22 47  1  0  0  0  0
 23 24  1  0  0  0  0
 24 48  1  0  0  0  0
 24 49  1  0  0  0  0
 24 50  1  0  0  0  0
M  END
$$$$
CHEMBL4516360
 OpenBabel12022418103D

 49 52  0  0  0  0  0  0  0  0999 V2000
    5.0447   -5.4849    5.7319 C   0  0  0  0  0  0  0  0  0  0  0  0
    4.5308   -5.0914    4.3586 C   0  0  0  0  0  0  0  0  0  0  0  0
    5.0971   -3.7388    3.9398 C   0  0  0  0  0  0  0  0  0  0  0  0
    4.5927   -3.3335    2.5553 C   0  0  0  0  0  0  0  0  0  0  0  0
    5.1996   -2.0165    2.0640 C   0  0  0  0  0  0  0  0  0  0  0  0
    6.6566   -2.0244    2.0111 N   0  0  0  0  0  0  0  0  0  0  0  0
    7.4573   -1.2132    2.7842 C   0  0  0  0  0  0  0  0  0  0  0  0
    8.7705   -1.4973    2.5016 C   0  0  0  0  0  0  0  0  0  0  0  0
    8.7629   -2.6154    1.5834 C   0  0  0  0  0  0  0  0  0  0  0  0
    7.4299   -2.8333    1.2251 C   0  0  0  0  0  0  0  0  0  0  0  0
    7.0853   -3.7670    0.2285 C   0  0  0  0  0  0  0  0  0  0  0  0
    8.0823   -4.5097   -0.3940 C   0  0  0  0  0  0  0  0  0  0  0  0
    9.4097   -4.3458   -0.0166 C   0  0  0  0  0  0  0  0  0  0  0  0
    9.7628   -3.4225    0.9763 C   0  0  0  0  0  0  0  0  0  0  0  0
    5.8138   -3.9382   -0.1613 F   0  0  0  0  0  0  0  0  0  0  0  0
    9.8963   -0.7093    3.0411 C   0  0  0  0  0  0  0  0  0  0  0  0
    9.7980   -0.1364    4.1242 O   0  0  0  0  0  0  0  0  0  0  0  0
   11.1319   -0.5453    2.2060 C   0  0  0  0  0  0  0  0  0  0  0  0
   10.9712   -0.4924    0.8070 C   0  0  0  0  0  0  0  0  0  0  0  0
   12.0694   -0.5277   -0.0400 C   0  0  0  0  0  0  0  0  0  0  0  0
   13.3403   -0.6624    0.4995 C   0  0  0  0  0  0  0  0  0  0  0  0
   13.5283   -0.7344    1.8872 C   0  0  0  0  0  0  0  0  0  0  0  0
   14.7962   -1.0520    2.3928 C   0  0  0  0  0  0  0  0  0  0  0  0
   15.0243   -1.1095    3.7638 C   0  0  0  0  0  0  0  0  0  0  0  0
   14.0351   -0.6843    4.6368 C   0  0  0  0  0  0  0  0  0  0  0  0
   12.7511   -0.4264    4.1521 C   0  0  0  0  0  0  0  0  0  0  0  0
   12.4377   -0.5522    2.7738 C   0  0  0  0  0  0  0  0  0  0  0  0
    4.6245   -6.4491    6.0341 H   0  0  0  0  0  0  0  0  0  0  0  0
    4.7639   -4.7377    6.4811 H   0  0  0  0  0  0  0  0  0  0  0  0
    6.1360   -5.5738    5.7296 H   0  0  0  0  0  0  0  0  0  0  0  0
    3.4359   -5.0520    4.3711 H   0  0  0  0  0  0  0  0  0  0  0  0
    4.8212   -5.8596    3.6309 H   0  0  0  0  0  0  0  0  0  0  0  0
    6.1917   -3.8069    3.9389 H   0  0  0  0  0  0  0  0  0  0  0  0
    4.8202   -2.9693    4.6679 H   0  0  0  0  0  0  0  0  0  0  0  0
    3.5013   -3.2324    2.5719 H   0  0  0  0  0  0  0  0  0  0  0  0
    4.8107   -4.1430    1.8500 H   0  0  0  0  0  0  0  0  0  0  0  0
    4.8963   -1.1952    2.7285 H   0  0  0  0  0  0  0  0  0  0  0  0
    4.8432   -1.7646    1.0632 H   0  0  0  0  0  0  0  0  0  0  0  0
    7.0306   -0.4742    3.4515 H   0  0  0  0  0  0  0  0  0  0  0  0
    7.8107   -5.2128   -1.1719 H   0  0  0  0  0  0  0  0  0  0  0  0
   10.1873   -4.9270   -0.5055 H   0  0  0  0  0  0  0  0  0  0  0  0
   10.8006   -3.3099    1.2510 H   0  0  0  0  0  0  0  0  0  0  0  0
    9.9804   -0.4739    0.3586 H   0  0  0  0  0  0  0  0  0  0  0  0
   11.9268   -0.5088   -1.1170 H   0  0  0  0  0  0  0  0  0  0  0  0
   14.1913   -0.7207   -0.1763 H   0  0  0  0  0  0  0  0  0  0  0  0
   15.6095   -1.3060    1.7162 H   0  0  0  0  0  0  0  0  0  0  0  0
   15.9741   -1.4735    4.1451 H   0  0  0  0  0  0  0  0  0  0  0  0
   14.2486   -0.5845    5.6979 H   0  0  0  0  0  0  0  0  0  0  0  0
   11.9935   -0.1242    4.8728 H   0  0  0  0  0  0  0  0  0  0  0  0
  1  2  1  0  0  0  0
  1 28  1  0  0  0  0
  1 29  1  0  0  0  0
  1 30  1  0  0  0  0
  2  3  1  0  0  0  0
  2 31  1  0  0  0  0
  2 32  1  0  0  0  0
  3  4  1  0  0  0  0
  3 33  1  0  0  0  0
  3 34  1  0  0  0  0
  4  5  1  0  0  0  0
  4 35  1  0  0  0  0
  4 36  1  0  0  0  0
  5  6  1  0  0  0  0
  5 37  1  0  0  0  0
  5 38  1  0  0  0  0
  6 10  1  0  0  0  0
  6  7  1  0  0  0  0
  7  8  2  0  0  0  0
  7 39  1  0  0  0  0
  8  9  1  0  0  0  0
  8 16  1  0  0  0  0
  9 14  2  0  0  0  0
  9 10  1  0  0  0  0
 10 11  2  0  0  0  0
 11 12  1  0  0  0  0
 11 15  1  0  0  0  0
 12 13  2  0  0  0  0
 12 40  1  0  0  0  0
 13 14  1  0  0  0  0
 13 41  1  0  0  0  0
 14 42  1  0  0  0  0
 16 17  2  0  0  0  0
 16 18  1  0  0  0  0
 18 27  2  0  0  0  0
 18 19  1  0  0  0  0
 19 20  2  0  0  0  0
 19 43  1  0  0  0  0
 20 21  1  0  0  0  0
 20 44  1  0  0  0  0
 21 22  2  0  0  0  0
 21 45  1  0  0  0  0
 22 27  1  0  0  0  0
 22 23  1  0  0  0  0
 23 24  2  0  0  0  0
 23 46  1  0  0  0  0
 24 25  1  0  0  0  0
 24 47  1  0  0  0  0
 25 26  2  0  0  0  0
 25 48  1  0  0  0  0
 26 27  1  0  0  0  0
 26 49  1  0  0  0  0
M  END
$$$$
CHEMBL3409149
 OpenBabel12022418103D

 62 66  0  0  1  0  0  0  0  0999 V2000
   -2.4220    0.6760   -0.0893 C   0  0  0  0  0  0  0  0  0  0  0  0
   -2.4113   -0.7114   -0.0362 C   0  0  0  0  0  0  0  0  0  0  0  0
   -1.2055   -1.4297    0.0854 C   0  0  0  0  0  0  0  0  0  0  0  0
    0.0503   -0.7425    0.0588 C   0  0  0  0  0  0  0  0  0  0  0  0
   -0.0084    0.6725    0.0236 C   0  0  0  0  0  0  0  0  0  0  0  0
   -1.2260    1.3673   -0.0183 C   0  0  0  0  0  0  0  0  0  0  0  0
    1.2321    1.4745   -0.0008 C   0  0  0  0  0  0  0  0  0  0  0  0
    1.1733    2.7028    0.2045 O   0  0  0  0  0  0  0  0  0  0  0  0
    2.5149    0.8239   -0.2867 C   0  0  0  0  0  0  0  0  0  0  0  0
    2.4724   -0.5207   -0.2067 C   0  0  0  0  0  0  0  0  0  0  0  0
    1.3595   -1.3408    0.0389 N   0  0  0  0  0  0  0  0  0  0  0  0
    1.4018   -2.8272   -0.0263 C   0  0  0  0  0  0  0  0  0  0  0  0
    2.8110   -3.4081   -0.0421 C   0  0  0  0  0  0  0  0  0  0  0  0
    2.8365   -4.9299   -0.1062 C   0  0  0  0  0  0  0  0  0  0  0  0
    4.2845   -5.3950   -0.1206 C   0  0  0  0  0  0  0  0  0  0  0  0
    3.7863    1.5914   -0.6488 C   0  0  0  0  0  0  0  0  0  0  0  0
    4.7024    1.0073   -1.2091 O   0  0  0  0  0  0  0  0  0  0  0  0
    3.8255    2.9591   -0.3365 N   0  0  0  0  0  0  0  0  0  0  0  0
    4.9835    3.8294   -0.6888 C   0  0  2  0  0  0  0  0  0  0  0  0
    4.8234    5.3302   -0.2536 C   0  0  0  0  0  0  0  0  0  0  0  0
    6.0608    6.1573   -0.7110 C   0  0  2  0  0  0  0  0  0  0  0  0
    6.1813    6.0737   -2.2441 C   0  0  0  0  0  0  0  0  0  0  0  0
    6.3679    4.6145   -2.6721 C   0  0  2  0  0  0  0  0  0  0  0  0
    5.1462    3.8118   -2.2225 C   0  0  0  0  0  0  0  0  0  0  0  0
    7.6328    4.0434   -2.0151 C   0  0  0  0  0  0  0  0  0  0  0  0
    7.5088    4.1115   -0.4869 C   0  0  1  0  0  0  0  0  0  0  0  0
    7.3232    5.5716   -0.0522 C   0  0  0  0  0  0  0  0  0  0  0  0
    6.2866    3.3024   -0.0313 C   0  0  0  0  0  0  0  0  0  0  0  0
   -1.2184   -2.7970    0.2288 O   0  0  0  0  0  0  0  0  0  0  0  0
   -2.4668   -3.4834    0.2536 C   0  0  0  0  0  0  0  0  0  0  0  0
   -3.3625    1.2126   -0.1869 H   0  0  0  0  0  0  0  0  0  0  0  0
   -3.3727   -1.2125   -0.0970 H   0  0  0  0  0  0  0  0  0  0  0  0
   -1.2393    2.4563   -0.0241 H   0  0  0  0  0  0  0  0  0  0  0  0
    3.3955   -1.0743   -0.3352 H   0  0  0  0  0  0  0  0  0  0  0  0
    0.8935   -3.1680   -0.9387 H   0  0  0  0  0  0  0  0  0  0  0  0
    0.8986   -3.2477    0.8548 H   0  0  0  0  0  0  0  0  0  0  0  0
    3.3488   -3.0799    0.8563 H   0  0  0  0  0  0  0  0  0  0  0  0
    3.3492   -3.0312   -0.9188 H   0  0  0  0  0  0  0  0  0  0  0  0
    2.3257   -5.2835   -1.0099 H   0  0  0  0  0  0  0  0  0  0  0  0
    2.3157   -5.3583    0.7570 H   0  0  0  0  0  0  0  0  0  0  0  0
    4.8141   -4.9826   -0.9868 H   0  0  0  0  0  0  0  0  0  0  0  0
    4.3428   -6.4846   -0.1676 H   0  0  0  0  0  0  0  0  0  0  0  0
    4.8049   -5.0583    0.7822 H   0  0  0  0  0  0  0  0  0  0  0  0
    2.9419    3.4127   -0.1056 H   0  0  0  0  0  0  0  0  0  0  0  0
    4.7135    5.4281    0.8381 H   0  0  0  0  0  0  0  0  0  0  0  0
    3.9180    5.7751   -0.6915 H   0  0  0  0  0  0  0  0  0  0  0  0
    5.9571    7.2088   -0.4174 H   0  0  0  0  0  0  0  0  0  0  0  0
    7.0224    6.6788   -2.6047 H   0  0  0  0  0  0  0  0  0  0  0  0
    5.2762    6.4843   -2.7095 H   0  0  0  0  0  0  0  0  0  0  0  0
    6.4579    4.5510   -3.7615 H   0  0  0  0  0  0  0  0  0  0  0  0
    4.2385    4.2069   -2.6949 H   0  0  0  0  0  0  0  0  0  0  0  0
    5.2498    2.7863   -2.5731 H   0  0  0  0  0  0  0  0  0  0  0  0
    8.5123    4.6108   -2.3434 H   0  0  0  0  0  0  0  0  0  0  0  0
    7.7860    3.0047   -2.3323 H   0  0  0  0  0  0  0  0  0  0  0  0
    8.4121    3.6982   -0.0242 H   0  0  0  0  0  0  0  0  0  0  0  0
    7.2275    5.6255    1.0399 H   0  0  0  0  0  0  0  0  0  0  0  0
    8.2114    6.1583   -0.3180 H   0  0  0  0  0  0  0  0  0  0  0  0
    6.4392    2.2512   -0.2815 H   0  0  0  0  0  0  0  0  0  0  0  0
    6.2248    3.3507    1.0659 H   0  0  0  0  0  0  0  0  0  0  0  0
   -2.2707   -4.5327    0.4967 H   0  0  0  0  0  0  0  0  0  0  0  0
   -2.9390   -3.4544   -0.7331 H   0  0  0  0  0  0  0  0  0  0  0  0
   -3.1358   -3.0917    1.0273 H   0  0  0  0  0  0  0  0  0  0  0  0
  1  6  2  0  0  0  0
  1  2  1  0  0  0  0
  1 31  1  0  0  0  0
  2  3  2  0  0  0  0
  2 32  1  0  0  0  0
  3  4  1  0  0  0  0
  3 29  1  0  0  0  0
  4 11  1  0  0  0  0
  4  5  2  0  0  0  0
  5  6  1  0  0  0  0
  5  7  1  0  0  0  0
  6 33  1  0  0  0  0
  7  8  2  0  0  0  0
  7  9  1  0  0  0  0
  9 10  2  0  0  0  0
  9 16  1  0  0  0  0
 10 11  1  0  0  0  0
 10 34  1  0  0  0  0
 11 12  1  0  0  0  0
 12 13  1  0  0  0  0
 12 35  1  0  0  0  0
 12 36  1  0  0  0  0
 13 14  1  0  0  0  0
 13 37  1  0  0  0  0
 13 38  1  0  0  0  0
 14 15  1  0  0  0  0
 14 39  1  0  0  0  0
 14 40  1  0  0  0  0
 15 41  1  0  0  0  0
 15 42  1  0  0  0  0
 15 43  1  0  0  0  0
 16 17  2  0  0  0  0
 16 18  1  0  0  0  0
 18 44  1  0  0  0  0
 19 18  1  1  0  0  0
 19 24  1  0  0  0  0
 19 28  1  0  0  0  0
 19 20  1  0  0  0  0
 20 45  1  0  0  0  0
 20 46  1  0  0  0  0
 21 20  1  0  0  0  0
 21 22  1  0  0  0  0
 21 27  1  0  0  0  0
 21 47  1  1  0  0  0
 22 48  1  0  0  0  0
 22 49  1  0  0  0  0
 23 22  1  0  0  0  0
 23 24  1  0  0  0  0
 23 25  1  0  0  0  0
 23 50  1  6  0  0  0
 24 51  1  0  0  0  0
 24 52  1  0  0  0  0
 25 53  1  0  0  0  0
 25 54  1  0  0  0  0
 26 25  1  0  0  0  0
 26 27  1  0  0  0  0
 26 28  1  0  0  0  0
 26 55  1  1  0  0  0
 27 56  1  0  0  0  0
 27 57  1  0  0  0  0
 28 58  1  0  0  0  0
 28 59  1  0  0  0  0
 29 30  1  0  0  0  0
 30 60  1  0  0  0  0
 30 61  1  0  0  0  0
 30 62  1  0  0  0  0
M  END
$$$$
CHEMBL4863350
 OpenBabel12022418103D

 58 60  0  0  0  0  0  0  0  0999 V2000
    6.3978   -0.8772    3.1189 C   0  0  0  0  0  0  0  0  0  0  0  0
    6.2385   -1.1385    1.6288 C   0  0  0  0  0  0  0  0  0  0  0  0
    4.7644   -1.1050    1.2220 C   0  0  0  0  0  0  0  0  0  0  0  0
    4.5252   -1.3975   -0.2653 C   0  0  0  0  0  0  0  0  0  0  0  0
    5.0438   -2.7277   -0.7530 C   0  0  0  0  0  0  0  0  0  0  0  0
    6.0242   -2.8121   -1.6669 C   0  0  0  0  0  0  0  0  0  0  0  0
    6.5111   -4.1019   -2.1376 C   0  0  0  0  0  0  0  0  0  0  0  0
    7.5502   -4.2734   -3.0498 C   0  0  0  0  0  0  0  0  0  0  0  0
    7.9417   -5.5525   -3.4592 C   0  0  0  0  0  0  0  0  0  0  0  0
    7.3295   -6.7186   -2.9592 C   0  0  0  0  0  0  0  0  0  0  0  0
    6.2776   -6.5369   -2.0488 C   0  0  0  0  0  0  0  0  0  0  0  0
    5.8922   -5.2516   -1.6518 C   0  0  0  0  0  0  0  0  0  0  0  0
    4.8462   -5.1695   -0.7145 O   0  0  0  0  0  0  0  0  0  0  0  0
    4.3973   -3.9532   -0.2173 C   0  0  0  0  0  0  0  0  0  0  0  0
    3.5005   -3.9018    0.6170 O   0  0  0  0  0  0  0  0  0  0  0  0
    7.7887   -8.1394   -3.3867 C   0  0  0  0  0  0  0  0  0  0  0  0
    9.0830   -8.0792   -4.2569 C   0  0  0  0  0  0  0  0  0  0  0  0
    9.7471   -9.4210   -4.5308 C   0  0  0  0  0  0  0  0  0  0  0  0
   10.0674  -10.1517   -3.2368 C   0  0  0  0  0  0  0  0  0  0  0  0
    8.8446  -10.2834   -2.3404 C   0  0  0  0  0  0  0  0  0  0  0  0
    8.1381   -8.9472   -2.0959 C   0  0  0  0  0  0  0  0  0  0  0  0
    6.6198   -8.8565   -4.1514 C   0  0  0  0  0  0  0  0  0  0  0  0
    6.1570   -8.1396   -5.4300 C   0  0  0  0  0  0  0  0  0  0  0  0
    4.9909   -8.8500   -6.1213 C   0  0  0  0  0  0  0  0  0  0  0  0
    4.5777   -8.0927   -7.3771 C   0  0  0  0  0  0  0  0  0  0  0  0
    8.2687   -3.2472   -3.5997 O   0  0  0  0  0  0  0  0  0  0  0  0
    7.4551   -0.9055    3.3993 H   0  0  0  0  0  0  0  0  0  0  0  0
    5.8713   -1.6373    3.7058 H   0  0  0  0  0  0  0  0  0  0  0  0
    5.9977    0.1044    3.3914 H   0  0  0  0  0  0  0  0  0  0  0  0
    6.6804   -2.1139    1.3982 H   0  0  0  0  0  0  0  0  0  0  0  0
    6.7983   -0.3839    1.0644 H   0  0  0  0  0  0  0  0  0  0  0  0
    4.3553   -0.1108    1.4432 H   0  0  0  0  0  0  0  0  0  0  0  0
    4.1981   -1.8104    1.8400 H   0  0  0  0  0  0  0  0  0  0  0  0
    4.9770   -0.5831   -0.8493 H   0  0  0  0  0  0  0  0  0  0  0  0
    3.4492   -1.3422   -0.4711 H   0  0  0  0  0  0  0  0  0  0  0  0
    6.4549   -1.9056   -2.0735 H   0  0  0  0  0  0  0  0  0  0  0  0
    8.7510   -5.5999   -4.1815 H   0  0  0  0  0  0  0  0  0  0  0  0
    5.7435   -7.3920   -1.6318 H   0  0  0  0  0  0  0  0  0  0  0  0
    9.8319   -7.4624   -3.7407 H   0  0  0  0  0  0  0  0  0  0  0  0
    8.8914   -7.5847   -5.2169 H   0  0  0  0  0  0  0  0  0  0  0  0
   10.6800   -9.2477   -5.0828 H   0  0  0  0  0  0  0  0  0  0  0  0
    9.1130  -10.0402   -5.1736 H   0  0  0  0  0  0  0  0  0  0  0  0
   10.8560   -9.6106   -2.6985 H   0  0  0  0  0  0  0  0  0  0  0  0
   10.4680  -11.1453   -3.4659 H   0  0  0  0  0  0  0  0  0  0  0  0
    9.1547  -10.7043   -1.3758 H   0  0  0  0  0  0  0  0  0  0  0  0
    8.1430  -11.0012   -2.7795 H   0  0  0  0  0  0  0  0  0  0  0  0
    7.2341   -9.1492   -1.5072 H   0  0  0  0  0  0  0  0  0  0  0  0
    8.7858   -8.3347   -1.4529 H   0  0  0  0  0  0  0  0  0  0  0  0
    5.7543   -8.9668   -3.4838 H   0  0  0  0  0  0  0  0  0  0  0  0
    6.9150   -9.8789   -4.4172 H   0  0  0  0  0  0  0  0  0  0  0  0
    6.9876   -8.0740   -6.1396 H   0  0  0  0  0  0  0  0  0  0  0  0
    5.8461   -7.1163   -5.1943 H   0  0  0  0  0  0  0  0  0  0  0  0
    4.1322   -8.9219   -5.4437 H   0  0  0  0  0  0  0  0  0  0  0  0
    5.2797   -9.8718   -6.3936 H   0  0  0  0  0  0  0  0  0  0  0  0
    4.2108   -7.0920   -7.1253 H   0  0  0  0  0  0  0  0  0  0  0  0
    3.7807   -8.6242   -7.9048 H   0  0  0  0  0  0  0  0  0  0  0  0
    5.4243   -7.9809   -8.0631 H   0  0  0  0  0  0  0  0  0  0  0  0
    8.0923   -2.4261   -3.1185 H   0  0  0  0  0  0  0  0  0  0  0  0
  1  2  1  0  0  0  0
  1 27  1  0  0  0  0
  1 28  1  0  0  0  0
  1 29  1  0  0  0  0
  2  3  1  0  0  0  0
  2 30  1  0  0  0  0
  2 31  1  0  0  0  0
  3  4  1  0  0  0  0
  3 32  1  0  0  0  0
  3 33  1  0  0  0  0
  4  5  1  0  0  0  0
  4 34  1  0  0  0  0
  4 35  1  0  0  0  0
  5 14  1  0  0  0  0
  5  6  2  0  0  0  0
  6  7  1  0  0  0  0
  6 36  1  0  0  0  0
  7 12  2  0  0  0  0
  7  8  1  0  0  0  0
  8  9  2  0  0  0  0
  8 26  1  0  0  0  0
  9 10  1  0  0  0  0
  9 37  1  0  0  0  0
 10 11  2  0  0  0  0
 10 16  1  0  0  0  0
 11 12  1  0  0  0  0
 11 38  1  0  0  0  0
 12 13  1  0  0  0  0
 13 14  1  0  0  0  0
 14 15  2  0  0  0  0
 16 21  1  0  0  0  0
 16 17  1  0  0  0  0
 16 22  1  0  0  0  0
 17 18  1  0  0  0  0
 17 39  1  0  0  0  0
 17 40  1  0  0  0  0
 18 19  1  0  0  0  0
 18 41  1  0  0  0  0
 18 42  1  0  0  0  0
 19 20  1  0  0  0  0
 19 43  1  0  0  0  0
 19 44  1  0  0  0  0
 20 21  1  0  0  0  0
 20 45  1  0  0  0  0
 20 46  1  0  0  0  0
 21 47  1  0  0  0  0
 21 48  1  0  0  0  0
 22 23  1  0  0  0  0
 22 49  1  0  0  0  0
 22 50  1  0  0  0  0
 23 24  1  0  0  0  0
 23 51  1  0  0  0  0
 23 52  1  0  0  0  0
 24 25  1  0  0  0  0
 24 53  1  0  0  0  0
 24 54  1  0  0  0  0
 25 55  1  0  0  0  0
 25 56  1  0  0  0  0
 25 57  1  0  0  0  0
 26 58  1  0  0  0  0
M  END
$$$$
CHEMBL4213900
 OpenBabel12022418103D

 67 67  0  0  1  0  0  0  0  0999 V2000
    0.5560    0.5746   -0.7534 C   0  0  0  0  0  0  0  0  0  0  0  0
   -0.0695   -0.1203   -1.7256 C   0  0  0  0  0  0  0  0  0  0  0  0
   -1.5094   -0.5494   -1.6570 C   0  0  0  0  0  0  0  0  0  0  0  0
   -2.5030    0.2819   -2.4111 C   0  0  0  0  0  0  0  0  0  0  0  0
   -3.7831    0.4553   -2.0263 C   0  0  0  0  0  0  0  0  0  0  0  0
   -4.4114   -0.1398   -0.7898 C   0  0  0  0  0  0  0  0  0  0  0  0
   -5.8567   -0.6068   -0.9606 C   0  0  0  0  0  0  0  0  0  0  0  0
   -6.0289   -1.7155   -1.9991 C   0  0  0  0  0  0  0  0  0  0  0  0
   -7.4723   -2.1823   -2.0642 C   0  0  0  0  0  0  0  0  0  0  0  0
   -8.3677   -1.7149   -1.3710 O   0  0  0  0  0  0  0  0  0  0  0  0
   -7.6691   -3.1987   -2.9799 N   0  0  0  0  0  0  0  0  0  0  0  0
   -8.9576   -3.7728   -3.1971 C   0  0  0  0  0  0  0  0  0  0  0  0
   -9.7434   -3.4193   -4.4283 C   0  0  0  0  0  0  0  0  0  0  0  0
   -9.1831   -4.8034   -4.2665 C   0  0  0  0  0  0  0  0  0  0  0  0
    2.0371    0.4346   -0.4872 C   0  0  0  0  0  0  0  0  0  0  0  0
    2.8761    1.6498   -0.7382 C   0  0  0  0  0  0  0  0  0  0  0  0
    4.0576    1.9201   -0.1423 C   0  0  0  0  0  0  0  0  0  0  0  0
    4.7316    1.1755    1.0012 C   0  0  1  0  0  0  0  0  0  0  0  0
    5.6686    0.0701    0.5384 C   0  0  0  0  0  0  0  0  0  0  0  0
    5.9135   -1.0643    1.2293 C   0  0  0  0  0  0  0  0  0  0  0  0
    5.2750   -1.4094    2.5520 C   0  0  0  0  0  0  0  0  0  0  0  0
    5.7630   -2.6909    3.2434 C   0  0  0  0  0  0  0  0  0  0  0  0
    7.2309   -2.6627    3.6815 C   0  0  0  0  0  0  0  0  0  0  0  0
    7.6363   -3.8852    4.5206 C   0  0  0  0  0  0  0  0  0  0  0  0
    7.4747   -5.2170    3.7857 C   0  0  0  0  0  0  0  0  0  0  0  0
    7.9950   -6.2905    4.6404 N   0  0  0  0  0  0  0  0  0  0  0  0
    7.9102   -7.4360    4.1603 N   0  3  0  0  0  0  0  0  0  0  0  0
    7.8369   -8.4845    3.7206 N   0  5  0  0  0  0  0  0  0  0  0  0
    5.5308    2.1621    1.8659 C   0  0  0  0  0  0  0  0  0  0  0  0
   -0.0323    1.0648    0.0213 H   0  0  0  0  0  0  0  0  0  0  0  0
    0.5274   -0.6417   -2.4718 H   0  0  0  0  0  0  0  0  0  0  0  0
   -1.7826   -0.6185   -0.5977 H   0  0  0  0  0  0  0  0  0  0  0  0
   -1.5628   -1.5720   -2.0521 H   0  0  0  0  0  0  0  0  0  0  0  0
   -2.1741    0.7352   -3.3439 H   0  0  0  0  0  0  0  0  0  0  0  0
   -4.4315    1.0767   -2.6451 H   0  0  0  0  0  0  0  0  0  0  0  0
   -4.3880    0.6213   -0.0013 H   0  0  0  0  0  0  0  0  0  0  0  0
   -3.8359   -0.9976   -0.4269 H   0  0  0  0  0  0  0  0  0  0  0  0
   -6.4980    0.2458   -1.2130 H   0  0  0  0  0  0  0  0  0  0  0  0
   -6.2065   -0.9765    0.0129 H   0  0  0  0  0  0  0  0  0  0  0  0
   -5.3966   -2.5740   -1.7435 H   0  0  0  0  0  0  0  0  0  0  0  0
   -5.7431   -1.3582   -2.9944 H   0  0  0  0  0  0  0  0  0  0  0  0
   -6.8776   -3.5592   -3.4975 H   0  0  0  0  0  0  0  0  0  0  0  0
   -9.5297   -3.8961   -2.2787 H   0  0  0  0  0  0  0  0  0  0  0  0
   -9.2899   -2.7663   -5.1625 H   0  0  0  0  0  0  0  0  0  0  0  0
  -10.8148   -3.2844   -4.3168 H   0  0  0  0  0  0  0  0  0  0  0  0
   -9.8751   -5.6077   -4.0453 H   0  0  0  0  0  0  0  0  0  0  0  0
   -8.3538   -5.0925   -4.8996 H   0  0  0  0  0  0  0  0  0  0  0  0
    2.4399   -0.3785   -1.1033 H   0  0  0  0  0  0  0  0  0  0  0  0
    2.1290    0.1162    0.5562 H   0  0  0  0  0  0  0  0  0  0  0  0
    2.5439    2.3151   -1.5348 H   0  0  0  0  0  0  0  0  0  0  0  0
    4.5950    2.7980   -0.5019 H   0  0  0  0  0  0  0  0  0  0  0  0
    3.9488    0.7482    1.6377 H   0  0  0  0  0  0  0  0  0  0  0  0
    6.2089    0.2424   -0.3860 H   0  0  0  0  0  0  0  0  0  0  0  0
    6.6312   -1.7706    0.8161 H   0  0  0  0  0  0  0  0  0  0  0  0
    4.1982   -1.5307    2.3804 H   0  0  0  0  0  0  0  0  0  0  0  0
    5.4030   -0.5754    3.2504 H   0  0  0  0  0  0  0  0  0  0  0  0
    5.5810   -3.5437    2.5807 H   0  0  0  0  0  0  0  0  0  0  0  0
    5.1392   -2.8410    4.1350 H   0  0  0  0  0  0  0  0  0  0  0  0
    7.4131   -1.7621    4.2816 H   0  0  0  0  0  0  0  0  0  0  0  0
    7.8846   -2.5971    2.8048 H   0  0  0  0  0  0  0  0  0  0  0  0
    7.0526   -3.9038    5.4510 H   0  0  0  0  0  0  0  0  0  0  0  0
    8.6840   -3.7666    4.8225 H   0  0  0  0  0  0  0  0  0  0  0  0
    8.0211   -5.1891    2.8393 H   0  0  0  0  0  0  0  0  0  0  0  0
    6.4160   -5.4064    3.5729 H   0  0  0  0  0  0  0  0  0  0  0  0
    6.2898    2.6939    1.2828 H   0  0  0  0  0  0  0  0  0  0  0  0
    6.0464    1.6482    2.6862 H   0  0  0  0  0  0  0  0  0  0  0  0
    4.8658    2.9071    2.3153 H   0  0  0  0  0  0  0  0  0  0  0  0
  1  2  2  0  0  0  0
  1 15  1  0  0  0  0
  1 30  1  0  0  0  0
  2  3  1  0  0  0  0
  2 31  1  0  0  0  0
  3  4  1  0  0  0  0
  3 32  1  0  0  0  0
  3 33  1  0  0  0  0
  4  5  2  0  0  0  0
  4 34  1  0  0  0  0
  5  6  1  0  0  0  0
  5 35  1  0  0  0  0
  6  7  1  0  0  0  0
  6 36  1  0  0  0  0
  6 37  1  0  0  0  0
  7  8  1  0  0  0  0
  7 38  1  0  0  0  0
  7 39  1  0  0  0  0
  8  9  1  0  0  0  0
  8 40  1  0  0  0  0
  8 41  1  0  0  0  0
  9 10  2  0  0  0  0
  9 11  1  0  0  0  0
 11 12  1  0  0  0  0
 11 42  1  0  0  0  0
 12 14  1  0  0  0  0
 12 13  1  0  0  0  0
 12 43  1  0  0  0  0
 13 14  1  0  0  0  0
 13 44  1  0  0  0  0
 13 45  1  0  0  0  0
 14 46  1  0  0  0  0
 14 47  1  0  0  0  0
 15 16  1  0  0  0  0
 15 48  1  0  0  0  0
 15 49  1  0  0  0  0
 16 17  2  0  0  0  0
 16 50  1  0  0  0  0
 17 18  1  0  0  0  0
 17 51  1  0  0  0  0
 18 19  1  0  0  0  0
 18 29  1  0  0  0  0
 18 52  1  1  0  0  0
 19 20  2  0  0  0  0
 19 53  1  0  0  0  0
 20 21  1  0  0  0  0
 20 54  1  0  0  0  0
 21 22  1  0  0  0  0
 21 55  1  0  0  0  0
 21 56  1  0  0  0  0
 22 23  1  0  0  0  0
 22 57  1  0  0  0  0
 22 58  1  0  0  0  0
 23 24  1  0  0  0  0
 23 59  1  0  0  0  0
 23 60  1  0  0  0  0
 24 25  1  0  0  0  0
 24 61  1  0  0  0  0
 24 62  1  0  0  0  0
 25 26  1  0  0  0  0
 25 63  1  0  0  0  0
 25 64  1  0  0  0  0
 26 27  2  0  0  0  0
 27 28  2  0  0  0  0
 29 65  1  0  0  0  0
 29 66  1  0  0  0  0
 29 67  1  0  0  0  0
M  CHG  2  27   1  28  -1
M  END
$$$$
CHEMBL562549
 OpenBabel12022418103D

 59 62  0  0  0  0  0  0  0  0999 V2000
    4.6911   -0.4764    7.8417 C   0  0  0  0  0  0  0  0  0  0  0  0
    4.3244   -1.0088    6.4668 C   0  0  0  0  0  0  0  0  0  0  0  0
    5.1031   -0.3022    5.3530 C   0  0  0  0  0  0  0  0  0  0  0  0
    4.7549   -0.9081    3.9932 C   0  0  0  0  0  0  0  0  0  0  0  0
    5.5438   -0.3269    2.8126 C   0  0  0  0  0  0  0  0  0  0  0  0
    7.0028   -0.3056    2.9271 N   0  0  0  0  0  0  0  0  0  0  0  0
    7.8542   -1.3989    2.9420 C   0  0  0  0  0  0  0  0  0  0  0  0
    7.3343   -2.8003    2.8274 C   0  0  0  0  0  0  0  0  0  0  0  0
    9.1855   -0.9383    3.0594 C   0  0  0  0  0  0  0  0  0  0  0  0
   10.3867   -1.8208    3.1376 C   0  0  0  0  0  0  0  0  0  0  0  0
   10.3020   -3.0059    2.8026 O   0  0  0  0  0  0  0  0  0  0  0  0
   11.7878   -1.3601    3.5238 C   0  0  0  0  0  0  0  0  0  0  0  0
   12.8174   -1.8539    2.6994 C   0  0  0  0  0  0  0  0  0  0  0  0
   14.1604   -1.5371    2.9073 C   0  0  0  0  0  0  0  0  0  0  0  0
   14.5348   -0.7027    3.9499 C   0  0  0  0  0  0  0  0  0  0  0  0
   13.5574   -0.3152    4.9051 C   0  0  0  0  0  0  0  0  0  0  0  0
   13.9465    0.3468    6.0887 C   0  0  0  0  0  0  0  0  0  0  0  0
   13.0219    0.6593    7.0797 C   0  0  0  0  0  0  0  0  0  0  0  0
   11.6879    0.3390    6.8953 C   0  0  0  0  0  0  0  0  0  0  0  0
   11.2618   -0.2929    5.7218 C   0  0  0  0  0  0  0  0  0  0  0  0
   12.1681   -0.6462    4.6977 C   0  0  0  0  0  0  0  0  0  0  0  0
   15.8411   -0.2692    4.1450 O   0  0  0  0  0  0  0  0  0  0  0  0
   16.7188   -0.3493    3.0128 C   0  0  0  0  0  0  0  0  0  0  0  0
   17.9410    0.5447    3.1896 C   0  0  0  0  0  0  0  0  0  0  0  0
    9.1040    0.4956    2.9511 C   0  0  0  0  0  0  0  0  0  0  0  0
   10.0621    1.5306    2.8582 C   0  0  0  0  0  0  0  0  0  0  0  0
    9.6557    2.8675    2.7483 C   0  0  0  0  0  0  0  0  0  0  0  0
    8.3104    3.2008    2.7190 C   0  0  0  0  0  0  0  0  0  0  0  0
    7.3390    2.2009    2.7808 C   0  0  0  0  0  0  0  0  0  0  0  0
    7.7503    0.8576    2.8915 C   0  0  0  0  0  0  0  0  0  0  0  0
    4.1419   -1.0220    8.6158 H   0  0  0  0  0  0  0  0  0  0  0  0
    4.4416    0.5852    7.9313 H   0  0  0  0  0  0  0  0  0  0  0  0
    5.7612   -0.5985    8.0368 H   0  0  0  0  0  0  0  0  0  0  0  0
    3.2467   -0.8863    6.3070 H   0  0  0  0  0  0  0  0  0  0  0  0
    4.5338   -2.0849    6.4375 H   0  0  0  0  0  0  0  0  0  0  0  0
    6.1764   -0.4047    5.5456 H   0  0  0  0  0  0  0  0  0  0  0  0
    4.8690    0.7694    5.3553 H   0  0  0  0  0  0  0  0  0  0  0  0
    3.6855   -0.7440    3.7987 H   0  0  0  0  0  0  0  0  0  0  0  0
    4.8852   -1.9935    4.0376 H   0  0  0  0  0  0  0  0  0  0  0  0
    5.1881    0.6946    2.6466 H   0  0  0  0  0  0  0  0  0  0  0  0
    5.3013   -0.8709    1.8920 H   0  0  0  0  0  0  0  0  0  0  0  0
    6.2688   -2.8405    2.5824 H   0  0  0  0  0  0  0  0  0  0  0  0
    7.4759   -3.3402    3.7675 H   0  0  0  0  0  0  0  0  0  0  0  0
    7.8374   -3.3399    2.0200 H   0  0  0  0  0  0  0  0  0  0  0  0
   12.5813   -2.5303    1.8779 H   0  0  0  0  0  0  0  0  0  0  0  0
   14.9084   -1.9802    2.2564 H   0  0  0  0  0  0  0  0  0  0  0  0
   14.9926    0.5837    6.2724 H   0  0  0  0  0  0  0  0  0  0  0  0
   13.3538    1.1211    8.0073 H   0  0  0  0  0  0  0  0  0  0  0  0
   10.9629    0.5645    7.6790 H   0  0  0  0  0  0  0  0  0  0  0  0
   10.2057   -0.5387    5.6385 H   0  0  0  0  0  0  0  0  0  0  0  0
   16.2023   -0.0219    2.1035 H   0  0  0  0  0  0  0  0  0  0  0  0
   17.0610   -1.3839    2.8955 H   0  0  0  0  0  0  0  0  0  0  0  0
   17.6497    1.5866    3.3555 H   0  0  0  0  0  0  0  0  0  0  0  0
   18.5729    0.5038    2.2938 H   0  0  0  0  0  0  0  0  0  0  0  0
   18.5457    0.2336    4.0470 H   0  0  0  0  0  0  0  0  0  0  0  0
   11.1220    1.3080    2.8431 H   0  0  0  0  0  0  0  0  0  0  0  0
   10.4047    3.6496    2.6782 H   0  0  0  0  0  0  0  0  0  0  0  0
    8.0049    4.2357    2.6278 H   0  0  0  0  0  0  0  0  0  0  0  0
    6.2912    2.4795    2.7261 H   0  0  0  0  0  0  0  0  0  0  0  0
  1  2  1  0  0  0  0
  1 31  1  0  0  0  0
  1 32  1  0  0  0  0
  1 33  1  0  0  0  0
  2  3  1  0  0  0  0
  2 34  1  0  0  0  0
  2 35  1  0  0  0  0
  3  4  1  0  0  0  0
  3 36  1  0  0  0  0
  3 37  1  0  0  0  0
  4  5  1  0  0  0  0
  4 38  1  0  0  0  0
  4 39  1  0  0  0  0
  5  6  1  0  0  0  0
  5 40  1  0  0  0  0
  5 41  1  0  0  0  0
  6 30  1  0  0  0  0
  6  7  1  0  0  0  0
  7  8  1  0  0  0  0
  7  9  2  0  0  0  0
  8 42  1  0  0  0  0
  8 43  1  0  0  0  0
  8 44  1  0  0  0  0
  9 10  1  0  0  0  0
  9 25  1  0  0  0  0
 10 11  2  0  0  0  0
 10 12  1  0  0  0  0
 12 21  2  0  0  0  0
 12 13  1  0  0  0  0
 13 14  2  0  0  0  0
 13 45  1  0  0  0  0
 14 15  1  0  0  0  0
 14 46  1  0  0  0  0
 15 16  2  0  0  0  0
 15 22  1  0  0  0  0
 16 21  1  0  0  0  0
 16 17  1  0  0  0  0
 17 18  2  0  0  0  0
 17 47  1  0  0  0  0
 18 19  1  0  0  0  0
 18 48  1  0  0  0  0
 19 20  2  0  0  0  0
 19 49  1  0  0  0  0
 20 21  1  0  0  0  0
 20 50  1  0  0  0  0
 22 23  1  0  0  0  0
 23 24  1  0  0  0  0
 23 51  1  0  0  0  0
 23 52  1  0  0  0  0
 24 53  1  0  0  0  0
 24 54  1  0  0  0  0
 24 55  1  0  0  0  0
 25 30  2  0  0  0  0
 25 26  1  0  0  0  0
 26 27  2  0  0  0  0
 26 56  1  0  0  0  0
 27 28  1  0  0  0  0
 27 57  1  0  0  0  0
 28 29  2  0  0  0  0
 28 58  1  0  0  0  0
 29 30  1  0  0  0  0
 29 59  1  0  0  0  0
M  END
$$$$
CHEMBL2112290
 OpenBabel12022418103D

 75 79  0  0  1  0  0  0  0  0999 V2000
    1.6633   -1.2676    0.0694 C   0  0  0  0  0  0  0  0  0  0  0  0
    2.4365   -0.1120    0.0496 C   0  0  0  0  0  0  0  0  0  0  0  0
    3.9199    0.0288    0.0042 C   0  0  0  0  0  0  0  0  0  0  0  0
    1.5760    0.9884    0.0027 N   0  0  0  0  0  0  0  0  0  0  0  0
    0.2457    0.5567    0.0131 C   0  0  0  0  0  0  0  0  0  0  0  0
    0.2927   -0.8482    0.0055 C   0  0  0  0  0  0  0  0  0  0  0  0
   -0.9129   -1.5835   -0.0334 C   0  0  0  0  0  0  0  0  0  0  0  0
   -2.1355   -0.9275   -0.0445 C   0  0  0  0  0  0  0  0  0  0  0  0
   -2.1808    0.4557    0.0002 C   0  0  0  0  0  0  0  0  0  0  0  0
   -1.0107    1.2382    0.0345 C   0  0  0  0  0  0  0  0  0  0  0  0
   -1.0414    2.6109    0.1034 O   0  0  0  0  0  0  0  0  0  0  0  0
   -2.3210    3.2374    0.1528 C   0  0  0  0  0  0  0  0  0  0  0  0
    2.0224    2.3783    0.1057 C   0  0  0  0  0  0  0  0  0  0  0  0
    2.9825    2.9248   -0.9674 C   0  0  0  0  0  0  0  0  0  0  0  0
    2.3853    3.0937   -2.3685 C   0  0  0  0  0  0  0  0  0  0  0  0
    1.2507    4.0198   -2.4123 N   0  0  0  0  0  0  0  0  0  0  0  0
    0.5992    4.0270   -3.7406 C   0  0  0  0  0  0  0  0  0  0  0  0
    1.3232    4.8775   -4.8001 C   0  0  0  0  0  0  0  0  0  0  0  0
    1.5219    6.2221   -4.3472 O   0  0  0  0  0  0  0  0  0  0  0  0
    2.2735    6.2303   -3.1294 C   0  0  0  0  0  0  0  0  0  0  0  0
    1.5711    5.4117   -2.0351 C   0  0  0  0  0  0  0  0  0  0  0  0
    2.1171   -2.6662    0.0710 C   0  0  0  0  0  0  0  0  0  0  0  0
    1.5186   -3.5377   -0.5589 O   0  0  0  0  0  0  0  0  0  0  0  0
    3.2439   -2.9515    0.8219 N   0  0  0  0  0  0  0  0  0  0  0  0
    3.9122   -4.2361    0.7241 C   0  0  1  0  0  0  0  0  0  0  0  0
    5.4707   -4.1741    0.7365 C   0  0  2  0  0  0  0  0  0  0  0  0
    5.7911   -5.6742    0.8362 C   0  0  0  0  0  0  0  0  0  0  0  0
    5.0367   -5.8423    2.1626 C   0  0  2  0  0  0  0  0  0  0  0  0
    3.5986   -5.3082    1.8254 C   0  0  0  0  0  0  0  0  0  0  0  0
    2.8510   -4.7856    3.0603 C   0  0  0  0  0  0  0  0  0  0  0  0
    2.7516   -6.4506    1.2262 C   0  0  0  0  0  0  0  0  0  0  0  0
    5.8252   -4.8485    3.0307 C   0  0  0  0  0  0  0  0  0  0  0  0
    6.0167   -3.6535    2.0875 C   0  0  0  0  0  0  0  0  0  0  0  0
    6.0878   -3.4896   -0.4675 C   0  0  0  0  0  0  0  0  0  0  0  0
    4.4394   -0.9112    0.1647 H   0  0  0  0  0  0  0  0  0  0  0  0
    4.2751    0.7240    0.7703 H   0  0  0  0  0  0  0  0  0  0  0  0
    4.2403    0.3604   -0.9865 H   0  0  0  0  0  0  0  0  0  0  0  0
   -0.8861   -2.6699   -0.0540 H   0  0  0  0  0  0  0  0  0  0  0  0
   -3.0592   -1.5058   -0.0703 H   0  0  0  0  0  0  0  0  0  0  0  0
   -3.1669    0.9092    0.0043 H   0  0  0  0  0  0  0  0  0  0  0  0
   -2.1705    4.3180    0.2374 H   0  0  0  0  0  0  0  0  0  0  0  0
   -2.8899    2.9185    1.0344 H   0  0  0  0  0  0  0  0  0  0  0  0
   -2.8879    3.0550   -0.7674 H   0  0  0  0  0  0  0  0  0  0  0  0
    2.5216    2.4420    1.0807 H   0  0  0  0  0  0  0  0  0  0  0  0
    1.1599    3.0386    0.1781 H   0  0  0  0  0  0  0  0  0  0  0  0
    3.8791    2.3139   -1.0608 H   0  0  0  0  0  0  0  0  0  0  0  0
    3.3734    3.8845   -0.6116 H   0  0  0  0  0  0  0  0  0  0  0  0
    2.0652    2.1021   -2.7145 H   0  0  0  0  0  0  0  0  0  0  0  0
    3.1816    3.4148   -3.0521 H   0  0  0  0  0  0  0  0  0  0  0  0
   -0.4067    4.4415   -3.5983 H   0  0  0  0  0  0  0  0  0  0  0  0
    0.4573    3.0058   -4.1134 H   0  0  0  0  0  0  0  0  0  0  0  0
    0.7148    4.9274   -5.7089 H   0  0  0  0  0  0  0  0  0  0  0  0
    2.2924    4.4461   -5.0751 H   0  0  0  0  0  0  0  0  0  0  0  0
    2.3586    7.2725   -2.8041 H   0  0  0  0  0  0  0  0  0  0  0  0
    3.2870    5.8630   -3.3272 H   0  0  0  0  0  0  0  0  0  0  0  0
    2.1512    5.4646   -1.1098 H   0  0  0  0  0  0  0  0  0  0  0  0
    0.6169    5.9001   -1.8019 H   0  0  0  0  0  0  0  0  0  0  0  0
    3.5672   -2.2517    1.4737 H   0  0  0  0  0  0  0  0  0  0  0  0
    3.6273   -4.6525   -0.2524 H   0  0  0  0  0  0  0  0  0  0  0  0
    6.8639   -5.8837    0.9186 H   0  0  0  0  0  0  0  0  0  0  0  0
    5.3810   -6.2668    0.0124 H   0  0  0  0  0  0  0  0  0  0  0  0
    5.0510   -6.8593    2.5632 H   0  0  0  0  0  0  0  0  0  0  0  0
    3.3282   -3.9096    3.5078 H   0  0  0  0  0  0  0  0  0  0  0  0
    2.7943   -5.5651    3.8303 H   0  0  0  0  0  0  0  0  0  0  0  0
    1.8245   -4.4964    2.8105 H   0  0  0  0  0  0  0  0  0  0  0  0
    3.1983   -6.8653    0.3168 H   0  0  0  0  0  0  0  0  0  0  0  0
    1.7469   -6.0991    0.9671 H   0  0  0  0  0  0  0  0  0  0  0  0
    2.6458   -7.2742    1.9415 H   0  0  0  0  0  0  0  0  0  0  0  0
    6.8037   -5.2735    3.2904 H   0  0  0  0  0  0  0  0  0  0  0  0
    5.3393   -4.5806    3.9712 H   0  0  0  0  0  0  0  0  0  0  0  0
    5.4889   -2.7652    2.4460 H   0  0  0  0  0  0  0  0  0  0  0  0
    7.0825   -3.4033    2.0237 H   0  0  0  0  0  0  0  0  0  0  0  0
    5.9572   -2.4060   -0.4185 H   0  0  0  0  0  0  0  0  0  0  0  0
    5.6393   -3.8437   -1.4015 H   0  0  0  0  0  0  0  0  0  0  0  0
    7.1640   -3.6869   -0.5213 H   0  0  0  0  0  0  0  0  0  0  0  0
  1  6  1  0  0  0  0
  1  2  2  0  0  0  0
  1 22  1  0  0  0  0
  2  3  1  0  0  0  0
  2  4  1  0  0  0  0
  3 35  1  0  0  0  0
  3 36  1  0  0  0  0
  3 37  1  0  0  0  0
  4  5  1  0  0  0  0
  4 13  1  0  0  0  0
  5 10  2  0  0  0  0
  5  6  1  0  0  0  0
  6  7  2  0  0  0  0
  7  8  1  0  0  0  0
  7 38  1  0  0  0  0
  8  9  2  0  0  0  0
  8 39  1  0  0  0  0
  9 10  1  0  0  0  0
  9 40  1  0  0  0  0
 10 11  1  0  0  0  0
 11 12  1  0  0  0  0
 12 41  1  0  0  0  0
 12 42  1  0  0  0  0
 12 43  1  0  0  0  0
 13 14  1  0  0  0  0
 13 44  1  0  0  0  0
 13 45  1  0  0  0  0
 14 15  1  0  0  0  0
 14 46  1  0  0  0  0
 14 47  1  0  0  0  0
 15 16  1  0  0  0  0
 15 48  1  0  0  0  0
 15 49  1  0  0  0  0
 16 21  1  0  0  0  0
 16 17  1  0  0  0  0
 17 18  1  0  0  0  0
 17 50  1  0  0  0  0
 17 51  1  0  0  0  0
 18 19  1  0  0  0  0
 18 52  1  0  0  0  0
 18 53  1  0  0  0  0
 19 20  1  0  0  0  0
 20 21  1  0  0  0  0
 20 54  1  0  0  0  0
 20 55  1  0  0  0  0
 21 56  1  0  0  0  0
 21 57  1  0  0  0  0
 22 23  2  0  0  0  0
 22 24  1  0  0  0  0
 24 58  1  0  0  0  0
 25 24  1  0  0  0  0
 25 26  1  0  0  0  0
 25 29  1  0  0  0  0
 25 59  1  6  0  0  0
 26 33  1  0  0  0  0
 26 27  1  0  0  0  0
 26 34  1  6  0  0  0
 27 60  1  0  0  0  0
 27 61  1  0  0  0  0
 28 27  1  0  0  0  0
 28 29  1  0  0  0  0
 28 32  1  0  0  0  0
 28 62  1  1  0  0  0
 29 30  1  0  0  0  0
 29 31  1  0  0  0  0
 30 63  1  0  0  0  0
 30 64  1  0  0  0  0
 30 65  1  0  0  0  0
 31 66  1  0  0  0  0
 31 67  1  0  0  0  0
 31 68  1  0  0  0  0
 32 33  1  0  0  0  0
 32 69  1  0  0  0  0
 32 70  1  0  0  0  0
 33 71  1  0  0  0  0
 33 72  1  0  0  0  0
 34 73  1  0  0  0  0
 34 74  1  0  0  0  0
 34 75  1  0  0  0  0
M  END
$$$$
CHEMBL556101
 OpenBabel12022418103D

 47 50  0  0  0  0  0  0  0  0999 V2000
    0.8360   -0.9623   -1.7874 C   0  0  0  0  0  0  0  0  0  0  0  0
    2.1019   -0.5244   -1.4151 C   0  0  0  0  0  0  0  0  0  0  0  0
    2.2743    0.7148   -0.7940 C   0  0  0  0  0  0  0  0  0  0  0  0
    1.1545    1.5645   -0.5994 C   0  0  0  0  0  0  0  0  0  0  0  0
   -0.1660    1.1118   -0.9812 C   0  0  0  0  0  0  0  0  0  0  0  0
   -0.2945   -0.1787   -1.5572 C   0  0  0  0  0  0  0  0  0  0  0  0
   -1.5554   -0.7100   -1.8849 C   0  0  0  0  0  0  0  0  0  0  0  0
   -2.7219    0.0116   -1.6593 C   0  0  0  0  0  0  0  0  0  0  0  0
   -2.6361    1.2886   -1.1324 C   0  0  0  0  0  0  0  0  0  0  0  0
   -1.3846    1.8307   -0.8169 C   0  0  0  0  0  0  0  0  0  0  0  0
    1.2935    2.8620    0.1604 C   0  0  0  0  0  0  0  0  0  0  0  0
    0.3783    3.1851    0.9183 O   0  0  0  0  0  0  0  0  0  0  0  0
    2.4970    3.6985    0.0951 C   0  0  0  0  0  0  0  0  0  0  0  0
    3.4171    3.8396   -0.9329 C   0  0  0  0  0  0  0  0  0  0  0  0
    4.4772    4.5849   -0.4749 N   0  0  0  0  0  0  0  0  0  0  0  0
    4.2076    5.0714    0.7895 C   0  0  0  0  0  0  0  0  0  0  0  0
    2.9590    4.5588    1.1512 C   0  0  0  0  0  0  0  0  0  0  0  0
    2.4317    4.9036    2.4225 C   0  0  0  0  0  0  0  0  0  0  0  0
    3.1498    5.7415    3.2731 C   0  0  0  0  0  0  0  0  0  0  0  0
    4.3939    6.2313    2.8950 C   0  0  0  0  0  0  0  0  0  0  0  0
    4.9461    5.8996    1.6520 C   0  0  0  0  0  0  0  0  0  0  0  0
    5.7352    4.7268   -1.1865 C   0  0  0  0  0  0  0  0  0  0  0  0
    5.7554    5.8590   -2.2128 C   0  0  0  0  0  0  0  0  0  0  0  0
    5.6662    7.2424   -1.5908 C   0  0  0  0  0  0  0  0  0  0  0  0
    3.4872    1.1118   -0.2991 O   0  0  0  0  0  0  0  0  0  0  0  0
    4.6388    0.3197   -0.5552 C   0  0  0  0  0  0  0  0  0  0  0  0
    0.7414   -1.9495   -2.2386 H   0  0  0  0  0  0  0  0  0  0  0  0
    2.9302   -1.2036   -1.5867 H   0  0  0  0  0  0  0  0  0  0  0  0
   -1.6411   -1.7114   -2.3036 H   0  0  0  0  0  0  0  0  0  0  0  0
   -3.6896   -0.4227   -1.8938 H   0  0  0  0  0  0  0  0  0  0  0  0
   -3.5380    1.8676   -0.9502 H   0  0  0  0  0  0  0  0  0  0  0  0
   -1.3876    2.8401   -0.4099 H   0  0  0  0  0  0  0  0  0  0  0  0
    3.4454    3.3893   -1.9173 H   0  0  0  0  0  0  0  0  0  0  0  0
    1.4668    4.5159    2.7327 H   0  0  0  0  0  0  0  0  0  0  0  0
    2.7302    6.0085    4.2428 H   0  0  0  0  0  0  0  0  0  0  0  0
    4.9444    6.8760    3.5714 H   0  0  0  0  0  0  0  0  0  0  0  0
    5.9214    6.2855    1.3720 H   0  0  0  0  0  0  0  0  0  0  0  0
    5.9204    3.7709   -1.6919 H   0  0  0  0  0  0  0  0  0  0  0  0
    6.5379    4.8486   -0.4496 H   0  0  0  0  0  0  0  0  0  0  0  0
    4.9376    5.7290   -2.9311 H   0  0  0  0  0  0  0  0  0  0  0  0
    6.6914    5.7925   -2.7804 H   0  0  0  0  0  0  0  0  0  0  0  0
    4.7075    7.3928   -1.0847 H   0  0  0  0  0  0  0  0  0  0  0  0
    5.7522    8.0089   -2.3673 H   0  0  0  0  0  0  0  0  0  0  0  0
    6.4732    7.4024   -0.8690 H   0  0  0  0  0  0  0  0  0  0  0  0
    5.5173    0.9080   -0.2723 H   0  0  0  0  0  0  0  0  0  0  0  0
    4.7446    0.0737   -1.6170 H   0  0  0  0  0  0  0  0  0  0  0  0
    4.6219   -0.5829    0.0631 H   0  0  0  0  0  0  0  0  0  0  0  0
  1  6  2  0  0  0  0
  1  2  1  0  0  0  0
  1 27  1  0  0  0  0
  2  3  2  0  0  0  0
  2 28  1  0  0  0  0
  3  4  1  0  0  0  0
  3 25  1  0  0  0  0
  4  5  2  0  0  0  0
  4 11  1  0  0  0  0
  5 10  1  0  0  0  0
  5  6  1  0  0  0  0
  6  7  1  0  0  0  0
  7  8  2  0  0  0  0
  7 29  1  0  0  0  0
  8  9  1  0  0  0  0
  8 30  1  0  0  0  0
  9 10  2  0  0  0  0
  9 31  1  0  0  0  0
 10 32  1  0  0  0  0
 11 12  2  0  0  0  0
 11 13  1  0  0  0  0
 13 17  1  0  0  0  0
 13 14  2  0  0  0  0
 14 15  1  0  0  0  0
 14 33  1  0  0  0  0
 15 16  1  0  0  0  0
 15 22  1  0  0  0  0
 16 21  2  0  0  0  0
 16 17  1  0  0  0  0
 17 18  2  0  0  0  0
 18 19  1  0  0  0  0
 18 34  1  0  0  0  0
 19 20  2  0  0  0  0
 19 35  1  0  0  0  0
 20 21  1  0  0  0  0
 20 36  1  0  0  0  0
 21 37  1  0  0  0  0
 22 23  1  0  0  0  0
 22 38  1  0  0  0  0
 22 39  1  0  0  0  0
 23 24  1  0  0  0  0
 23 40  1  0  0  0  0
 23 41  1  0  0  0  0
 24 42  1  0  0  0  0
 24 43  1  0  0  0  0
 24 44  1  0  0  0  0
 25 26  1  0  0  0  0
 26 45  1  0  0  0  0
 26 46  1  0  0  0  0
 26 47  1  0  0  0  0
M  END
$$$$
CHEMBL4780771
 OpenBabel12022418103D

 51 53  0  0  0  0  0  0  0  0999 V2000
   -0.8226    1.1444   -0.0208 C   0  0  0  0  0  0  0  0  0  0  0  0
    0.5599    1.1276   -0.0275 C   0  0  0  0  0  0  0  0  0  0  0  0
    1.4352    2.3452   -0.0345 C   0  0  0  0  0  0  0  0  0  0  0  0
    1.2403   -0.0454   -0.0136 N   0  0  0  0  0  0  0  0  0  0  0  0
    0.5738   -1.2373    0.0176 C   0  0  0  0  0  0  0  0  0  0  0  0
   -0.8112   -1.3122    0.0064 C   0  0  0  0  0  0  0  0  0  0  0  0
   -1.4967   -0.0768   -0.0097 C   0  0  0  0  0  0  0  0  0  0  0  0
   -1.6857   -2.5198    0.0507 C   0  0  0  0  0  0  0  0  0  0  0  0
   -2.9074   -2.3395    0.0646 O   0  0  0  0  0  0  0  0  0  0  0  0
   -1.1645   -3.8009    0.0843 N   0  0  0  0  0  0  0  0  0  0  0  0
   -2.0914   -4.9503    0.1523 C   0  0  0  0  0  0  0  0  0  0  0  0
   -2.7308   -5.2579   -1.2192 C   0  0  0  0  0  0  0  0  0  0  0  0
   -2.3175   -6.5581   -1.9120 C   0  0  0  0  0  0  0  0  0  0  0  0
   -3.0214   -7.7993   -1.3621 C   0  0  0  0  0  0  0  0  0  0  0  0
   -2.4836   -8.3131   -0.0319 C   0  0  0  0  0  0  0  0  0  0  0  0
   -2.4657   -7.2913    1.1004 C   0  0  0  0  0  0  0  0  0  0  0  0
   -1.4715   -6.1459    0.8812 C   0  0  0  0  0  0  0  0  0  0  0  0
    1.3684   -2.3718    0.0596 O   0  0  0  0  0  0  0  0  0  0  0  0
    2.7237   -2.0142    0.4125 C   0  0  0  0  0  0  0  0  0  0  0  0
    3.7013   -3.1685    0.4066 C   0  0  0  0  0  0  0  0  0  0  0  0
    4.9513   -2.9858    1.0333 C   0  0  0  0  0  0  0  0  0  0  0  0
    5.9047   -4.0026    1.0307 C   0  0  0  0  0  0  0  0  0  0  0  0
    5.6157   -5.1982    0.3911 C   0  0  0  0  0  0  0  0  0  0  0  0
    4.4007   -5.3899   -0.2644 C   0  0  0  0  0  0  0  0  0  0  0  0
    3.4467   -4.3696   -0.2643 C   0  0  0  0  0  0  0  0  0  0  0  0
    6.5236   -6.1836    0.3930 F   0  0  0  0  0  0  0  0  0  0  0  0
   -1.8535    2.7329   -0.0054 Br  0  0  0  0  0  0  0  0  0  0  0  0
    0.8881    3.2890   -0.0512 H   0  0  0  0  0  0  0  0  0  0  0  0
    2.0874    2.3247   -0.9145 H   0  0  0  0  0  0  0  0  0  0  0  0
    2.0661    2.3431    0.8614 H   0  0  0  0  0  0  0  0  0  0  0  0
   -2.5865   -0.0677    0.0042 H   0  0  0  0  0  0  0  0  0  0  0  0
   -0.1662   -3.9475   -0.0191 H   0  0  0  0  0  0  0  0  0  0  0  0
   -2.9163   -4.6101    0.7951 H   0  0  0  0  0  0  0  0  0  0  0  0
   -2.5345   -4.4298   -1.9118 H   0  0  0  0  0  0  0  0  0  0  0  0
   -3.8226   -5.2716   -1.0926 H   0  0  0  0  0  0  0  0  0  0  0  0
   -1.2299   -6.6847   -1.9062 H   0  0  0  0  0  0  0  0  0  0  0  0
   -2.6098   -6.4701   -2.9667 H   0  0  0  0  0  0  0  0  0  0  0  0
   -2.9135   -8.6085   -2.0965 H   0  0  0  0  0  0  0  0  0  0  0  0
   -4.0995   -7.6137   -1.2777 H   0  0  0  0  0  0  0  0  0  0  0  0
   -1.4737   -8.7148   -0.1775 H   0  0  0  0  0  0  0  0  0  0  0  0
   -3.1057   -9.1634    0.2787 H   0  0  0  0  0  0  0  0  0  0  0  0
   -2.1770   -7.8241    2.0153 H   0  0  0  0  0  0  0  0  0  0  0  0
   -3.4774   -6.9058    1.2781 H   0  0  0  0  0  0  0  0  0  0  0  0
   -1.1346   -5.7999    1.8674 H   0  0  0  0  0  0  0  0  0  0  0  0
   -0.5686   -6.5005    0.3677 H   0  0  0  0  0  0  0  0  0  0  0  0
    2.7108   -1.5960    1.4292 H   0  0  0  0  0  0  0  0  0  0  0  0
    3.1365   -1.2825   -0.2961 H   0  0  0  0  0  0  0  0  0  0  0  0
    5.1904   -2.0400    1.5183 H   0  0  0  0  0  0  0  0  0  0  0  0
    6.8661   -3.8673    1.5161 H   0  0  0  0  0  0  0  0  0  0  0  0
    4.2097   -6.3267   -0.7742 H   0  0  0  0  0  0  0  0  0  0  0  0
    2.5118   -4.5147   -0.7993 H   0  0  0  0  0  0  0  0  0  0  0  0
  1  7  2  0  0  0  0
  1  2  1  0  0  0  0
  1 27  1  0  0  0  0
  2  3  1  0  0  0  0
  2  4  2  0  0  0  0
  3 28  1  0  0  0  0
  3 29  1  0  0  0  0
  3 30  1  0  0  0  0
  4  5  1  0  0  0  0
  5  6  2  0  0  0  0
  5 18  1  0  0  0  0
  6  7  1  0  0  0  0
  6  8  1  0  0  0  0
  7 31  1  0  0  0  0
  8  9  2  0  0  0  0
  8 10  1  0  0  0  0
 10 11  1  0  0  0  0
 10 32  1  0  0  0  0
 11 17  1  0  0  0  0
 11 12  1  0  0  0  0
 11 33  1  0  0  0  0
 12 13  1  0  0  0  0
 12 34  1  0  0  0  0
 12 35  1  0  0  0  0
 13 14  1  0  0  0  0
 13 36  1  0  0  0  0
 13 37  1  0  0  0  0
 14 15  1  0  0  0  0
 14 38  1  0  0  0  0
 14 39  1  0  0  0  0
 15 16  1  0  0  0  0
 15 40  1  0  0  0  0
 15 41  1  0  0  0  0
 16 17  1  0  0  0  0
 16 42  1  0  0  0  0
 16 43  1  0  0  0  0
 17 44  1  0  0  0  0
 17 45  1  0  0  0  0
 18 19  1  0  0  0  0
 19 20  1  0  0  0  0
 19 46  1  0  0  0  0
 19 47  1  0  0  0  0
 20 25  2  0  0  0  0
 20 21  1  0  0  0  0
 21 22  2  0  0  0  0
 21 48  1  0  0  0  0
 22 23  1  0  0  0  0
 22 49  1  0  0  0  0
 23 24  2  0  0  0  0
 23 26  1  0  0  0  0
 24 25  1  0  0  0  0
 24 50  1  0  0  0  0
 25 51  1  0  0  0  0
M  END
$$$$
CHEMBL3647323
 OpenBabel12022418103D

 60 63  0  0  1  0  0  0  0  0999 V2000
    6.3116    4.3606    8.6854 C   0  0  0  0  0  0  0  0  0  0  0  0
    5.7271    2.9888    8.7116 C   0  0  0  0  0  0  0  0  0  0  0  0
    4.5463    2.5697    9.2166 C   0  0  0  0  0  0  0  0  0  0  0  0
    3.5555    3.4827    9.8699 C   0  0  0  0  0  0  0  0  0  0  0  0
    4.2730    1.1948    8.9961 N   0  0  0  0  0  0  0  0  0  0  0  0
    5.1650    0.6028    8.0888 C   0  0  0  0  0  0  0  0  0  0  0  0
    4.9856   -0.5041    7.4379 N   0  0  0  0  0  0  0  0  0  0  0  0
    5.8780   -0.8913    6.4570 C   0  0  0  0  0  0  0  0  0  0  0  0
    6.4941   -0.1111    5.7518 O   0  0  0  0  0  0  0  0  0  0  0  0
    6.0146   -2.3741    6.2593 C   0  0  0  0  0  0  0  0  0  0  0  0
    5.7003   -3.1296    7.4209 C   0  0  0  0  0  0  0  0  0  0  0  0
    5.7180   -4.5304    7.4397 C   0  0  0  0  0  0  0  0  0  0  0  0
    5.3659   -5.2876    8.7024 C   0  0  0  0  0  0  0  0  0  0  0  0
    5.0775   -4.4754    9.7605 F   0  0  0  0  0  0  0  0  0  0  0  0
    4.2782   -6.0919    8.5449 F   0  0  0  0  0  0  0  0  0  0  0  0
    6.3740   -6.0976    9.1261 F   0  0  0  0  0  0  0  0  0  0  0  0
    6.0680   -5.1953    6.2677 C   0  0  0  0  0  0  0  0  0  0  0  0
    6.3931   -4.4674    5.1213 C   0  0  0  0  0  0  0  0  0  0  0  0
    6.3916   -3.0529    5.0795 C   0  0  0  0  0  0  0  0  0  0  0  0
    6.7236   -2.6283    3.8136 O   0  0  0  0  0  0  0  0  0  0  0  0
    7.1109   -1.2777    3.5379 C   0  0  0  0  0  0  0  0  0  0  0  0
    7.7541   -1.1362    2.1232 C   0  0  2  0  0  0  0  0  0  0  0  0
    9.1154   -1.8356    2.0741 C   0  0  0  0  0  0  0  0  0  0  0  0
   10.1103   -0.7872    2.5865 C   0  0  0  0  0  0  0  0  0  0  0  0
    9.3525    0.5356    2.5470 C   0  0  0  0  0  0  0  0  0  0  0  0
    8.2096    0.2051    1.7027 N   0  0  0  0  0  0  0  0  0  0  0  0
    7.2154    1.2515    1.6117 C   0  0  0  0  0  0  0  0  0  0  0  0
    6.5776    1.6839    7.9376 S   0  0  0  0  0  0  0  0  0  0  0  0
    3.0144    0.5296    9.3397 C   0  0  0  0  0  0  0  0  0  0  0  0
    2.9556   -0.1866   10.6695 C   0  0  0  0  0  0  0  0  0  0  0  0
    4.1278   -0.7573   11.4336 C   0  0  0  0  0  0  0  0  0  0  0  0
    3.3917    0.4378   11.9745 C   0  0  0  0  0  0  0  0  0  0  0  0
    7.2896    4.3744    8.1888 H   0  0  0  0  0  0  0  0  0  0  0  0
    6.4600    4.7352    9.7019 H   0  0  0  0  0  0  0  0  0  0  0  0
    5.6654    5.0523    8.1357 H   0  0  0  0  0  0  0  0  0  0  0  0
    3.9663    4.4838   10.0348 H   0  0  0  0  0  0  0  0  0  0  0  0
    3.2431    3.1032   10.8438 H   0  0  0  0  0  0  0  0  0  0  0  0
    2.6677    3.5948    9.2389 H   0  0  0  0  0  0  0  0  0  0  0  0
    5.4294   -2.6176    8.3438 H   0  0  0  0  0  0  0  0  0  0  0  0
    6.0804   -6.2844    6.2391 H   0  0  0  0  0  0  0  0  0  0  0  0
    6.6598   -5.0187    4.2184 H   0  0  0  0  0  0  0  0  0  0  0  0
    7.8568   -0.9763    4.2769 H   0  0  0  0  0  0  0  0  0  0  0  0
    6.2111   -0.6573    3.5610 H   0  0  0  0  0  0  0  0  0  0  0  0
    7.0868   -1.5763    1.3733 H   0  0  0  0  0  0  0  0  0  0  0  0
    9.3655   -2.0836    1.0329 H   0  0  0  0  0  0  0  0  0  0  0  0
    9.1579   -2.7610    2.6542 H   0  0  0  0  0  0  0  0  0  0  0  0
   10.9942   -0.7582    1.9394 H   0  0  0  0  0  0  0  0  0  0  0  0
   10.4391   -1.0185    3.6041 H   0  0  0  0  0  0  0  0  0  0  0  0
    9.9680    1.3376    2.1275 H   0  0  0  0  0  0  0  0  0  0  0  0
    9.0483    0.8378    3.5575 H   0  0  0  0  0  0  0  0  0  0  0  0
    6.4943    1.0138    0.8220 H   0  0  0  0  0  0  0  0  0  0  0  0
    7.6894    2.1954    1.3116 H   0  0  0  0  0  0  0  0  0  0  0  0
    6.6771    1.4291    2.5456 H   0  0  0  0  0  0  0  0  0  0  0  0
    2.7573   -0.2072    8.5687 H   0  0  0  0  0  0  0  0  0  0  0  0
    2.1883    1.2496    9.3170 H   0  0  0  0  0  0  0  0  0  0  0  0
    2.0399   -0.7745   10.7099 H   0  0  0  0  0  0  0  0  0  0  0  0
    5.1408   -0.5986   11.0858 H   0  0  0  0  0  0  0  0  0  0  0  0
    3.9862   -1.6975   11.9603 H   0  0  0  0  0  0  0  0  0  0  0  0
    2.7473    0.2960   12.8371 H   0  0  0  0  0  0  0  0  0  0  0  0
    3.9416    1.3686   11.9905 H   0  0  0  0  0  0  0  0  0  0  0  0
  1  2  1  0  0  0  0
  1 33  1  0  0  0  0
  1 34  1  0  0  0  0
  1 35  1  0  0  0  0
  2 28  1  0  0  0  0
  2  3  2  0  0  0  0
  3  4  1  0  0  0  0
  3  5  1  0  0  0  0
  4 36  1  0  0  0  0
  4 37  1  0  0  0  0
  4 38  1  0  0  0  0
  5  6  1  0  0  0  0
  5 29  1  0  0  0  0
  6  7  2  0  0  0  0
  6 28  1  0  0  0  0
  7  8  1  0  0  0  0
  8  9  2  0  0  0  0
  8 10  1  0  0  0  0
 10 19  2  0  0  0  0
 10 11  1  0  0  0  0
 11 12  2  0  0  0  0
 11 39  1  0  0  0  0
 12 13  1  0  0  0  0
 12 17  1  0  0  0  0
 13 14  1  0  0  0  0
 13 15  1  0  0  0  0
 13 16  1  0  0  0  0
 17 18  2  0  0  0  0
 17 40  1  0  0  0  0
 18 19  1  0  0  0  0
 18 41  1  0  0  0  0
 19 20  1  0  0  0  0
 20 21  1  0  0  0  0
 21 42  1  0  0  0  0
 21 43  1  0  0  0  0
 22 23  1  0  0  0  0
 22 26  1  0  0  0  0
 22 21  1  0  0  0  0
 22 44  1  6  0  0  0
 23 24  1  0  0  0  0
 23 45  1  0  0  0  0
 23 46  1  0  0  0  0
 24 25  1  0  0  0  0
 24 47  1  0  0  0  0
 24 48  1  0  0  0  0
 25 26  1  0  0  0  0
 25 49  1  0  0  0  0
 25 50  1  0  0  0  0
 26 27  1  0  0  0  0
 27 51  1  0  0  0  0
 27 52  1  0  0  0  0
 27 53  1  0  0  0  0
 29 30  1  0  0  0  0
 29 54  1  0  0  0  0
 29 55  1  0  0  0  0
 30 32  1  0  0  0  0
 30 31  1  0  0  0  0
 30 56  1  0  0  0  0
 31 32  1  0  0  0  0
 31 57  1  0  0  0  0
 31 58  1  0  0  0  0
 32 59  1  0  0  0  0
 32 60  1  0  0  0  0
M  END
$$$$
CHEMBL565042
 OpenBabel12022418103D

 53 56  0  0  0  0  0  0  0  0999 V2000
    1.0485   -1.0753    0.0458 C   0  0  0  0  0  0  0  0  0  0  0  0
    2.5702   -0.9881    0.0734 C   0  0  0  0  0  0  0  0  0  0  0  0
    3.1682   -0.8765   -1.3330 C   0  0  0  0  0  0  0  0  0  0  0  0
    4.7046   -0.8119   -1.2419 C   0  0  0  0  0  0  0  0  0  0  0  0
    5.3542   -0.6952   -2.6200 C   0  0  0  0  0  0  0  0  0  0  0  0
    6.8052   -0.7194   -2.5184 N   0  0  0  0  0  0  0  0  0  0  0  0
    7.5839    0.4053   -2.3863 C   0  0  0  0  0  0  0  0  0  0  0  0
    8.8821    0.0145   -2.1057 C   0  0  0  0  0  0  0  0  0  0  0  0
   10.0395    0.8281   -1.7081 C   0  0  0  0  0  0  0  0  0  0  0  0
   11.1687    0.5333   -2.1014 O   0  0  0  0  0  0  0  0  0  0  0  0
    9.8708    2.0103   -0.7968 C   0  0  0  0  0  0  0  0  0  0  0  0
   10.8845    2.3840    0.1147 C   0  0  0  0  0  0  0  0  0  0  0  0
   11.8415    1.4845    0.6157 C   0  0  0  0  0  0  0  0  0  0  0  0
   12.2946    1.6292    1.9276 C   0  0  0  0  0  0  0  0  0  0  0  0
   11.8998    2.7259    2.6903 C   0  0  0  0  0  0  0  0  0  0  0  0
   11.1752    3.7558    2.0982 C   0  0  0  0  0  0  0  0  0  0  0  0
   10.7091    3.6130    0.7877 C   0  0  0  0  0  0  0  0  0  0  0  0
    9.8159    4.5335    0.2494 C   0  0  0  0  0  0  0  0  0  0  0  0
    8.6050    3.9444   -0.0293 C   0  0  0  0  0  0  0  0  0  0  0  0
    8.6430    2.6713   -0.5941 C   0  0  0  0  0  0  0  0  0  0  0  0
   10.4139    5.1516   -0.8941 O   0  0  0  0  0  0  0  0  0  0  0  0
    9.6931    6.2564   -1.4304 C   0  0  0  0  0  0  0  0  0  0  0  0
    8.9170   -1.3991   -2.3297 C   0  0  0  0  0  0  0  0  0  0  0  0
    9.9627   -2.3508   -2.3301 C   0  0  0  0  0  0  0  0  0  0  0  0
    9.6668   -3.6996   -2.5308 C   0  0  0  0  0  0  0  0  0  0  0  0
    8.3502   -4.1146   -2.6964 C   0  0  0  0  0  0  0  0  0  0  0  0
    7.2988   -3.1959   -2.6935 C   0  0  0  0  0  0  0  0  0  0  0  0
    7.6074   -1.8367   -2.5326 C   0  0  0  0  0  0  0  0  0  0  0  0
    0.6737   -1.1348    1.0724 H   0  0  0  0  0  0  0  0  0  0  0  0
    0.7243   -1.9645   -0.4920 H   0  0  0  0  0  0  0  0  0  0  0  0
    0.6205   -0.1922   -0.4269 H   0  0  0  0  0  0  0  0  0  0  0  0
    2.9722   -1.8743    0.5792 H   0  0  0  0  0  0  0  0  0  0  0  0
    2.8703   -0.1175    0.6700 H   0  0  0  0  0  0  0  0  0  0  0  0
    2.7885    0.0130   -1.8294 H   0  0  0  0  0  0  0  0  0  0  0  0
    2.8808   -1.7482   -1.9289 H   0  0  0  0  0  0  0  0  0  0  0  0
    5.0791   -1.7042   -0.7257 H   0  0  0  0  0  0  0  0  0  0  0  0
    4.9957    0.0490   -0.6272 H   0  0  0  0  0  0  0  0  0  0  0  0
    5.0710    0.2428   -3.1105 H   0  0  0  0  0  0  0  0  0  0  0  0
    5.0516   -1.5149   -3.2801 H   0  0  0  0  0  0  0  0  0  0  0  0
    7.1160    1.3767   -2.4600 H   0  0  0  0  0  0  0  0  0  0  0  0
   12.0967    0.5708    0.0854 H   0  0  0  0  0  0  0  0  0  0  0  0
   12.8789    0.8326    2.3810 H   0  0  0  0  0  0  0  0  0  0  0  0
   12.1341    2.7672    3.7498 H   0  0  0  0  0  0  0  0  0  0  0  0
   10.8736    4.6157    2.6923 H   0  0  0  0  0  0  0  0  0  0  0  0
    7.6734    4.4212    0.2509 H   0  0  0  0  0  0  0  0  0  0  0  0
    7.6939    2.1875   -0.7550 H   0  0  0  0  0  0  0  0  0  0  0  0
    9.4185    6.0469   -2.4717 H   0  0  0  0  0  0  0  0  0  0  0  0
   10.3722    7.1139   -1.4352 H   0  0  0  0  0  0  0  0  0  0  0  0
    8.7950    6.5197   -0.8657 H   0  0  0  0  0  0  0  0  0  0  0  0
   10.9941   -2.0338   -2.1952 H   0  0  0  0  0  0  0  0  0  0  0  0
   10.4743   -4.4248   -2.5577 H   0  0  0  0  0  0  0  0  0  0  0  0
    8.1327   -5.1695   -2.8315 H   0  0  0  0  0  0  0  0  0  0  0  0
    6.2754   -3.5312   -2.8193 H   0  0  0  0  0  0  0  0  0  0  0  0
  1  2  1  0  0  0  0
  1 29  1  0  0  0  0
  1 30  1  0  0  0  0
  1 31  1  0  0  0  0
  2  3  1  0  0  0  0
  2 32  1  0  0  0  0
  2 33  1  0  0  0  0
  3  4  1  0  0  0  0
  3 34  1  0  0  0  0
  3 35  1  0  0  0  0
  4  5  1  0  0  0  0
  4 36  1  0  0  0  0
  4 37  1  0  0  0  0
  5  6  1  0  0  0  0
  5 38  1  0  0  0  0
  5 39  1  0  0  0  0
  6 28  1  0  0  0  0
  6  7  1  0  0  0  0
  7  8  2  0  0  0  0
  7 40  1  0  0  0  0
  8  9  1  0  0  0  0
  8 23  1  0  0  0  0
  9 10  2  0  0  0  0
  9 11  1  0  0  0  0
 11 20  2  0  0  0  0
 11 12  1  0  0  0  0
 12 17  2  0  0  0  0
 12 13  1  0  0  0  0
 13 14  2  0  0  0  0
 13 41  1  0  0  0  0
 14 15  1  0  0  0  0
 14 42  1  0  0  0  0
 15 16  2  0  0  0  0
 15 43  1  0  0  0  0
 16 17  1  0  0  0  0
 16 44  1  0  0  0  0
 17 18  1  0  0  0  0
 18 19  2  0  0  0  0
 18 21  1  0  0  0  0
 19 20  1  0  0  0  0
 19 45  1  0  0  0  0
 20 46  1  0  0  0  0
 21 22  1  0  0  0  0
 22 47  1  0  0  0  0
 22 48  1  0  0  0  0
 22 49  1  0  0  0  0
 23 28  2  0  0  0  0
 23 24  1  0  0  0  0
 24 25  2  0  0  0  0
 24 50  1  0  0  0  0
 25 26  1  0  0  0  0
 25 51  1  0  0  0  0
 26 27  2  0  0  0  0
 26 52  1  0  0  0  0
 27 28  1  0  0  0  0
 27 53  1  0  0  0  0
M  END
$$$$
CHEMBL4129909
 OpenBabel12022418103D

 61 64  0  0  1  0  0  0  0  0999 V2000
   -0.2609    2.5722    3.2697 C   0  0  1  0  0  0  0  0  0  0  0  0
    1.0458    2.8105    4.0695 C   0  0  1  0  0  0  0  0  0  0  0  0
    0.8121    3.8425    5.1912 C   0  0  0  0  0  0  0  0  0  0  0  0
   -0.2931    3.3508    6.1411 C   0  0  1  0  0  0  0  0  0  0  0  0
   -1.5935    3.1072    5.3536 C   0  0  0  0  0  0  0  0  0  0  0  0
   -1.3599    2.0677    4.2402 C   0  0  2  0  0  0  0  0  0  0  0  0
   -0.8934    0.7489    4.8979 C   0  0  0  0  0  0  0  0  0  0  0  0
    0.4087    0.9755    5.6878 C   0  0  1  0  0  0  0  0  0  0  0  0
    1.4933    1.4848    4.7226 C   0  0  0  0  0  0  0  0  0  0  0  0
    0.1608    2.0292    6.7820 C   0  0  0  0  0  0  0  0  0  0  0  0
   -0.6659    3.7793    2.5418 N   0  0  0  0  0  0  0  0  0  0  0  0
   -1.3500    3.7621    1.3404 C   0  0  0  0  0  0  0  0  0  0  0  0
   -1.6806    2.7336    0.7613 O   0  0  0  0  0  0  0  0  0  0  0  0
   -1.6683    5.1106    0.7457 C   0  0  0  0  0  0  0  0  0  0  0  0
   -2.3508    5.2215   -0.4447 C   0  0  0  0  0  0  0  0  0  0  0  0
   -2.5804    6.4965   -1.0198 C   0  0  0  0  0  0  0  0  0  0  0  0
   -2.0613    7.6311   -0.3520 C   0  0  0  0  0  0  0  0  0  0  0  0
   -1.4148    7.4546    0.8306 N   0  0  0  0  0  0  0  0  0  0  0  0
   -1.2092    6.1951    1.3927 N   0  0  0  0  0  0  0  0  0  0  0  0
   -2.2828    8.9504   -0.8232 N   0  0  0  0  0  0  0  0  0  0  0  0
   -1.2874    9.9312   -0.3554 C   0  0  0  0  0  0  0  0  0  0  0  0
   -1.5316   11.3299   -0.9586 C   0  0  0  0  0  0  0  0  0  0  0  0
   -0.4439   12.3118   -0.4930 C   0  0  0  0  0  0  0  0  0  0  0  0
   -0.6354   13.7262   -1.0221 C   0  0  0  0  0  0  0  0  0  0  0  0
   -3.2840    6.5803   -2.3762 C   0  0  0  0  0  0  0  0  0  0  0  0
   -2.2556    6.5216   -3.5138 C   0  0  0  0  0  0  0  0  0  0  0  0
   -4.3540    5.5038   -2.6422 C   0  0  0  0  0  0  0  0  0  0  0  0
   -0.0763    1.7920    2.5191 H   0  0  0  0  0  0  0  0  0  0  0  0
    1.8342    3.1709    3.3986 H   0  0  0  0  0  0  0  0  0  0  0  0
    0.5436    4.8184    4.7729 H   0  0  0  0  0  0  0  0  0  0  0  0
    1.7434    3.9957    5.7515 H   0  0  0  0  0  0  0  0  0  0  0  0
   -0.4691    4.0995    6.9213 H   0  0  0  0  0  0  0  0  0  0  0  0
   -1.9564    4.0480    4.9251 H   0  0  0  0  0  0  0  0  0  0  0  0
   -2.3773    2.7502    6.0333 H   0  0  0  0  0  0  0  0  0  0  0  0
   -2.2946    1.8911    3.6980 H   0  0  0  0  0  0  0  0  0  0  0  0
   -0.7346   -0.0210    4.1329 H   0  0  0  0  0  0  0  0  0  0  0  0
   -1.6726    0.3692    5.5717 H   0  0  0  0  0  0  0  0  0  0  0  0
    0.7336    0.0363    6.1506 H   0  0  0  0  0  0  0  0  0  0  0  0
    2.4348    1.6341    5.2663 H   0  0  0  0  0  0  0  0  0  0  0  0
    1.6906    0.7310    3.9505 H   0  0  0  0  0  0  0  0  0  0  0  0
   -0.6022    1.6715    7.4844 H   0  0  0  0  0  0  0  0  0  0  0  0
    1.0770    2.1904    7.3636 H   0  0  0  0  0  0  0  0  0  0  0  0
   -0.5866    4.6818    2.9931 H   0  0  0  0  0  0  0  0  0  0  0  0
   -2.6864    4.3148   -0.9357 H   0  0  0  0  0  0  0  0  0  0  0  0
   -2.3826    8.9736   -1.8306 H   0  0  0  0  0  0  0  0  0  0  0  0
   -0.2800    9.6037   -0.6446 H   0  0  0  0  0  0  0  0  0  0  0  0
   -1.3177   10.0260    0.7372 H   0  0  0  0  0  0  0  0  0  0  0  0
   -2.5178   11.6991   -0.6532 H   0  0  0  0  0  0  0  0  0  0  0  0
   -1.5374   11.2779   -2.0553 H   0  0  0  0  0  0  0  0  0  0  0  0
    0.5405   11.9499   -0.8126 H   0  0  0  0  0  0  0  0  0  0  0  0
   -0.4311   12.3503    0.6024 H   0  0  0  0  0  0  0  0  0  0  0  0
   -0.6200   13.7493   -2.1159 H   0  0  0  0  0  0  0  0  0  0  0  0
    0.1742   14.3721   -0.6624 H   0  0  0  0  0  0  0  0  0  0  0  0
   -1.5812   14.1544   -0.6767 H   0  0  0  0  0  0  0  0  0  0  0  0
   -3.8158    7.5382   -2.4249 H   0  0  0  0  0  0  0  0  0  0  0  0
   -1.9181    5.4934   -3.6948 H   0  0  0  0  0  0  0  0  0  0  0  0
   -1.3693    7.1278   -3.3065 H   0  0  0  0  0  0  0  0  0  0  0  0
   -2.7034    6.8862   -4.4465 H   0  0  0  0  0  0  0  0  0  0  0  0
   -3.9212    4.5022   -2.7511 H   0  0  0  0  0  0  0  0  0  0  0  0
   -4.8793    5.7180   -3.5811 H   0  0  0  0  0  0  0  0  0  0  0  0
   -5.0987    5.4660   -1.8409 H   0  0  0  0  0  0  0  0  0  0  0  0
  1  2  1  0  0  0  0
  1  6  1  0  0  0  0
  1 11  1  0  0  0  0
  1 28  1  6  0  0  0
  2  3  1  0  0  0  0
  2  9  1  0  0  0  0
  2 29  1  6  0  0  0
  3 30  1  0  0  0  0
  3 31  1  0  0  0  0
  4  3  1  0  0  0  0
  4  5  1  0  0  0  0
  4 10  1  0  0  0  0
  4 32  1  1  0  0  0
  5 33  1  0  0  0  0
  5 34  1  0  0  0  0
  6  5  1  0  0  0  0
  6  7  1  0  0  0  0
  6 35  1  6  0  0  0
  7 36  1  0  0  0  0
  7 37  1  0  0  0  0
  8  7  1  0  0  0  0
  8  9  1  0  0  0  0
  8 10  1  0  0  0  0
  8 38  1  1  0  0  0
  9 39  1  0  0  0  0
  9 40  1  0  0  0  0
 10 41  1  0  0  0  0
 10 42  1  0  0  0  0
 11 12  1  0  0  0  0
 11 43  1  0  0  0  0
 12 13  2  0  0  0  0
 12 14  1  0  0  0  0
 14 19  2  0  0  0  0
 14 15  1  0  0  0  0
 15 16  2  0  0  0  0
 15 44  1  0  0  0  0
 16 17  1  0  0  0  0
 16 25  1  0  0  0  0
 17 18  2  0  0  0  0
 17 20  1  0  0  0  0
 18 19  1  0  0  0  0
 20 21  1  0  0  0  0
 20 45  1  0  0  0  0
 21 22  1  0  0  0  0
 21 46  1  0  0  0  0
 21 47  1  0  0  0  0
 22 23  1  0  0  0  0
 22 48  1  0  0  0  0
 22 49  1  0  0  0  0
 23 24  1  0  0  0  0
 23 50  1  0  0  0  0
 23 51  1  0  0  0  0
 24 52  1  0  0  0  0
 24 53  1  0  0  0  0
 24 54  1  0  0  0  0
 25 26  1  0  0  0  0
 25 27  1  0  0  0  0
 25 55  1  0  0  0  0
 26 56  1  0  0  0  0
 26 57  1  0  0  0  0
 26 58  1  0  0  0  0
 27 59  1  0  0  0  0
 27 60  1  0  0  0  0
 27 61  1  0  0  0  0
M  END
$$$$
CHEMBL4856531
 OpenBabel12022418103D

 51 53  0  0  0  0  0  0  0  0999 V2000
    0.8690   -0.2996    0.2601 C   0  0  0  0  0  0  0  0  0  0  0  0
    2.3538   -0.0288    0.1921 C   0  0  0  0  0  0  0  0  0  0  0  0
    2.8952    1.2187    0.1880 C   0  0  0  0  0  0  0  0  0  0  0  0
    4.4202    1.3625    0.2511 C   0  0  0  0  0  0  0  0  0  0  0  0
    4.9076    2.4952    0.2373 O   0  0  0  0  0  0  0  0  0  0  0  0
    5.1724    0.1900    0.2760 N   0  0  0  0  0  0  0  0  0  0  0  0
    4.5700   -1.0481    0.2701 C   0  0  0  0  0  0  0  0  0  0  0  0
    3.2426   -1.2044    0.2081 C   0  0  0  0  0  0  0  0  0  0  0  0
    2.5643   -2.9557    0.0884 Br  0  0  0  0  0  0  0  0  0  0  0  0
    6.6259    0.2532    0.0955 C   0  0  0  0  0  0  0  0  0  0  0  0
    7.4500    0.3582    1.3535 C   0  0  0  0  0  0  0  0  0  0  0  0
    7.9456    1.6007    1.7781 C   0  0  0  0  0  0  0  0  0  0  0  0
    8.8406    1.6807    2.8502 C   0  0  0  0  0  0  0  0  0  0  0  0
    9.2345    0.5275    3.5283 C   0  0  0  0  0  0  0  0  0  0  0  0
    8.7170   -0.7091    3.1474 C   0  0  0  0  0  0  0  0  0  0  0  0
    7.8319   -0.7829    2.0717 C   0  0  0  0  0  0  0  0  0  0  0  0
    7.3902   -1.9916    1.6881 F   0  0  0  0  0  0  0  0  0  0  0  0
    2.2103    2.4451    0.1632 N   0  0  0  0  0  0  0  0  0  0  0  0
    1.0132    2.7214   -0.4683 C   0  0  0  0  0  0  0  0  0  0  0  0
    0.4812    1.9693   -1.2860 O   0  0  0  0  0  0  0  0  0  0  0  0
    0.3164    4.0514   -0.1196 C   0  0  0  0  0  0  0  0  0  0  0  0
   -0.1533    4.1068    1.3443 C   0  0  0  0  0  0  0  0  0  0  0  0
    0.4499    5.1974    2.2319 C   0  0  0  0  0  0  0  0  0  0  0  0
   -0.1633    6.5806    2.0056 C   0  0  0  0  0  0  0  0  0  0  0  0
    0.3017    7.3134    0.7513 C   0  0  0  0  0  0  0  0  0  0  0  0
    0.1718    6.5438   -0.5593 C   0  0  0  0  0  0  0  0  0  0  0  0
    1.0523    5.2887   -0.6356 C   0  0  0  0  0  0  0  0  0  0  0  0
    0.6229   -1.1851    0.8529 H   0  0  0  0  0  0  0  0  0  0  0  0
    0.4625   -0.4493   -0.7457 H   0  0  0  0  0  0  0  0  0  0  0  0
    0.3265    0.5075    0.7601 H   0  0  0  0  0  0  0  0  0  0  0  0
    5.2346   -1.9122    0.2711 H   0  0  0  0  0  0  0  0  0  0  0  0
    6.8589    1.1044   -0.5569 H   0  0  0  0  0  0  0  0  0  0  0  0
    6.9561   -0.6309   -0.4694 H   0  0  0  0  0  0  0  0  0  0  0  0
    7.6623    2.5081    1.2490 H   0  0  0  0  0  0  0  0  0  0  0  0
    9.2440    2.6475    3.1424 H   0  0  0  0  0  0  0  0  0  0  0  0
    9.9495    0.5935    4.3452 H   0  0  0  0  0  0  0  0  0  0  0  0
    9.0141   -1.6151    3.6666 H   0  0  0  0  0  0  0  0  0  0  0  0
    2.8147    3.2461    0.3392 H   0  0  0  0  0  0  0  0  0  0  0  0
   -0.6118    3.9964   -0.7118 H   0  0  0  0  0  0  0  0  0  0  0  0
    0.0109    3.1357    1.8262 H   0  0  0  0  0  0  0  0  0  0  0  0
   -1.2448    4.2410    1.3438 H   0  0  0  0  0  0  0  0  0  0  0  0
    1.5408    5.2278    2.1443 H   0  0  0  0  0  0  0  0  0  0  0  0
    0.2360    4.9218    3.2731 H   0  0  0  0  0  0  0  0  0  0  0  0
    0.0920    7.2124    2.8671 H   0  0  0  0  0  0  0  0  0  0  0  0
   -1.2581    6.5075    2.0046 H   0  0  0  0  0  0  0  0  0  0  0  0
    1.3432    7.6300    0.8820 H   0  0  0  0  0  0  0  0  0  0  0  0
   -0.2862    8.2376    0.6654 H   0  0  0  0  0  0  0  0  0  0  0  0
    0.4693    7.2220   -1.3688 H   0  0  0  0  0  0  0  0  0  0  0  0
   -0.8812    6.2961   -0.7441 H   0  0  0  0  0  0  0  0  0  0  0  0
    1.3104    5.1186   -1.6888 H   0  0  0  0  0  0  0  0  0  0  0  0
    2.0058    5.4448   -0.1189 H   0  0  0  0  0  0  0  0  0  0  0  0
  1  2  1  0  0  0  0
  1 28  1  0  0  0  0
  1 29  1  0  0  0  0
  1 30  1  0  0  0  0
  2  8  1  0  0  0  0
  2  3  2  0  0  0  0
  3  4  1  0  0  0  0
  3 18  1  0  0  0  0
  4  5  2  0  0  0  0
  4  6  1  0  0  0  0
  6  7  1  0  0  0  0
  6 10  1  0  0  0  0
  7  8  2  0  0  0  0
  7 31  1  0  0  0  0
  8  9  1  0  0  0  0
 10 11  1  0  0  0  0
 10 32  1  0  0  0  0
 10 33  1  0  0  0  0
 11 16  2  0  0  0  0
 11 12  1  0  0  0  0
 12 13  2  0  0  0  0
 12 34  1  0  0  0  0
 13 14  1  0  0  0  0
 13 35  1  0  0  0  0
 14 15  2  0  0  0  0
 14 36  1  0  0  0  0
 15 16  1  0  0  0  0
 15 37  1  0  0  0  0
 16 17  1  0  0  0  0
 18 19  1  0  0  0  0
 18 38  1  0  0  0  0
 19 20  2  0  0  0  0
 19 21  1  0  0  0  0
 21 27  1  0  0  0  0
 21 22  1  0  0  0  0
 21 39  1  0  0  0  0
 22 23  1  0  0  0  0
 22 40  1  0  0  0  0
 22 41  1  0  0  0  0
 23 24  1  0  0  0  0
 23 42  1  0  0  0  0
 23 43  1  0  0  0  0
 24 25  1  0  0  0  0
 24 44  1  0  0  0  0
 24 45  1  0  0  0  0
 25 26  1  0  0  0  0
 25 46  1  0  0  0  0
 25 47  1  0  0  0  0
 26 27  1  0  0  0  0
 26 48  1  0  0  0  0
 26 49  1  0  0  0  0
 27 50  1  0  0  0  0
 27 51  1  0  0  0  0
M  END
$$$$
CHEMBL3650109
 OpenBabel12022418103D

 57 58  0  0  0  0  0  0  0  0999 V2000
    1.2358   -0.7240   -0.7926 C   0  0  0  0  0  0  0  0  0  0  0  0
    2.7177   -0.4527   -0.5818 C   0  0  0  0  0  0  0  0  0  0  0  0
    3.1816    0.7306   -1.4302 C   0  0  0  0  0  0  0  0  0  0  0  0
    4.6400    1.0927   -1.1549 C   0  0  0  0  0  0  0  0  0  0  0  0
    5.0502    2.2341   -1.9666 N   0  0  0  0  0  0  0  0  0  0  0  0
    5.2617    3.5343   -1.5329 C   0  0  0  0  0  0  0  0  0  0  0  0
    5.0425    4.2747   -0.5027 N   0  0  0  0  0  0  0  0  0  0  0  0
    4.2224    3.8753    0.5099 C   0  0  0  0  0  0  0  0  0  0  0  0
    3.2712    3.1072    0.3855 O   0  0  0  0  0  0  0  0  0  0  0  0
    4.4899    4.3644    1.8842 C   0  0  0  0  0  0  0  0  0  0  0  0
    4.4168    3.3520    2.8726 C   0  0  0  0  0  0  0  0  0  0  0  0
    4.5410    3.6334    4.2412 C   0  0  0  0  0  0  0  0  0  0  0  0
    4.3485    2.5482    5.2719 C   0  0  0  0  0  0  0  0  0  0  0  0
    4.0831    1.3264    4.7294 F   0  0  0  0  0  0  0  0  0  0  0  0
    5.4418    2.3748    6.0628 F   0  0  0  0  0  0  0  0  0  0  0  0
    3.3124    2.8138    6.1140 F   0  0  0  0  0  0  0  0  0  0  0  0
    4.7985    4.9521    4.6254 C   0  0  0  0  0  0  0  0  0  0  0  0
    4.8935    5.9583    3.6589 C   0  0  0  0  0  0  0  0  0  0  0  0
    4.7091    5.6850    2.2899 C   0  0  0  0  0  0  0  0  0  0  0  0
    4.7895    6.8167    1.5077 O   0  0  0  0  0  0  0  0  0  0  0  0
    3.7456    6.8639    0.4964 N   0  0  0  0  0  0  0  0  0  0  0  0
    2.7695    7.8621    0.9435 C   0  0  0  0  0  0  0  0  0  0  0  0
    4.4450    7.3753   -0.6867 C   0  0  0  0  0  0  0  0  0  0  0  0
    6.0664    4.4007   -2.8649 S   0  0  0  0  0  0  0  0  0  0  0  0
    5.9801    2.9364   -3.8278 C   0  0  0  0  0  0  0  0  0  0  0  0
    6.5161    2.9296   -5.2635 C   0  0  0  0  0  0  0  0  0  0  0  0
    7.9764    3.4096   -5.2947 C   0  0  0  0  0  0  0  0  0  0  0  0
    6.4736    1.5022   -5.8448 C   0  0  0  0  0  0  0  0  0  0  0  0
    5.6506    3.8332   -6.1565 C   0  0  0  0  0  0  0  0  0  0  0  0
    5.4522    1.9010   -3.2500 N   0  0  0  0  0  0  0  0  0  0  0  0
    0.9175   -1.5913   -0.2067 H   0  0  0  0  0  0  0  0  0  0  0  0
    1.0203   -0.9257   -1.8467 H   0  0  0  0  0  0  0  0  0  0  0  0
    0.6349    0.1363   -0.4792 H   0  0  0  0  0  0  0  0  0  0  0  0
    3.2915   -1.3482   -0.8480 H   0  0  0  0  0  0  0  0  0  0  0  0
    2.8987   -0.2542    0.4812 H   0  0  0  0  0  0  0  0  0  0  0  0
    2.5322    1.5918   -1.2456 H   0  0  0  0  0  0  0  0  0  0  0  0
    3.0569    0.4874   -2.4919 H   0  0  0  0  0  0  0  0  0  0  0  0
    5.2711    0.2290   -1.4125 H   0  0  0  0  0  0  0  0  0  0  0  0
    4.8310    1.2702   -0.0904 H   0  0  0  0  0  0  0  0  0  0  0  0
    4.2292    2.3236    2.5604 H   0  0  0  0  0  0  0  0  0  0  0  0
    4.9013    5.2071    5.6800 H   0  0  0  0  0  0  0  0  0  0  0  0
    5.0714    6.9844    3.9823 H   0  0  0  0  0  0  0  0  0  0  0  0
    2.3229    7.5738    1.9012 H   0  0  0  0  0  0  0  0  0  0  0  0
    1.9511    7.9327    0.2178 H   0  0  0  0  0  0  0  0  0  0  0  0
    3.2066    8.8608    1.0610 H   0  0  0  0  0  0  0  0  0  0  0  0
    5.3357    6.7802   -0.9048 H   0  0  0  0  0  0  0  0  0  0  0  0
    4.7853    8.4099   -0.5550 H   0  0  0  0  0  0  0  0  0  0  0  0
    3.7918    7.3306   -1.5632 H   0  0  0  0  0  0  0  0  0  0  0  0
    8.6067    2.7895   -4.6470 H   0  0  0  0  0  0  0  0  0  0  0  0
    8.0763    4.4457   -4.9545 H   0  0  0  0  0  0  0  0  0  0  0  0
    8.3873    3.3639   -6.3096 H   0  0  0  0  0  0  0  0  0  0  0  0
    7.1077    0.8186   -5.2686 H   0  0  0  0  0  0  0  0  0  0  0  0
    6.8273    1.4856   -6.8829 H   0  0  0  0  0  0  0  0  0  0  0  0
    5.4561    1.0946   -5.8382 H   0  0  0  0  0  0  0  0  0  0  0  0
    5.6916    4.8809   -5.8413 H   0  0  0  0  0  0  0  0  0  0  0  0
    4.5997    3.5233   -6.1331 H   0  0  0  0  0  0  0  0  0  0  0  0
    5.9869    3.7945   -7.1999 H   0  0  0  0  0  0  0  0  0  0  0  0
  1  2  1  0  0  0  0
  1 31  1  0  0  0  0
  1 32  1  0  0  0  0
  1 33  1  0  0  0  0
  2  3  1  0  0  0  0
  2 34  1  0  0  0  0
  2 35  1  0  0  0  0
  3  4  1  0  0  0  0
  3 36  1  0  0  0  0
  3 37  1  0  0  0  0
  4  5  1  0  0  0  0
  4 38  1  0  0  0  0
  4 39  1  0  0  0  0
  5 30  1  0  0  0  0
  5  6  1  0  0  0  0
  6  7  2  0  0  0  0
  6 24  1  0  0  0  0
  7  8  1  0  0  0  0
  8  9  2  0  0  0  0
  8 10  1  0  0  0  0
 10 19  2  0  0  0  0
 10 11  1  0  0  0  0
 11 12  2  0  0  0  0
 11 40  1  0  0  0  0
 12 13  1  0  0  0  0
 12 17  1  0  0  0  0
 13 14  1  0  0  0  0
 13 15  1  0  0  0  0
 13 16  1  0  0  0  0
 17 18  2  0  0  0  0
 17 41  1  0  0  0  0
 18 19  1  0  0  0  0
 18 42  1  0  0  0  0
 19 20  1  0  0  0  0
 20 21  1  0  0  0  0
 21 22  1  0  0  0  0
 21 23  1  0  0  0  0
 22 43  1  0  0  0  0
 22 44  1  0  0  0  0
 22 45  1  0  0  0  0
 23 46  1  0  0  0  0
 23 47  1  0  0  0  0
 23 48  1  0  0  0  0
 24 25  1  0  0  0  0
 25 26  1  0  0  0  0
 25 30  2  0  0  0  0
 26 27  1  0  0  0  0
 26 28  1  0  0  0  0
 26 29  1  0  0  0  0
 27 49  1  0  0  0  0
 27 50  1  0  0  0  0
 27 51  1  0  0  0  0
 28 52  1  0  0  0  0
 28 53  1  0  0  0  0
 28 54  1  0  0  0  0
 29 55  1  0  0  0  0
 29 56  1  0  0  0  0
 29 57  1  0  0  0  0
M  END
$$$$
CHEMBL3650085
 OpenBabel12022418103D

 66 68  0  0  0  0  0  0  0  0999 V2000
    1.0169    0.2618   -0.3016 C   0  0  0  0  0  0  0  0  0  0  0  0
    2.3170    0.3518    0.3440 N   0  0  0  0  0  0  0  0  0  0  0  0
    3.2184    1.4352    0.2310 C   0  0  0  0  0  0  0  0  0  0  0  0
    2.8314    2.9113    0.0738 C   0  0  0  0  0  0  0  0  0  0  0  0
    1.5654    3.2842    0.8732 C   0  0  0  0  0  0  0  0  0  0  0  0
    3.9563    3.8333    0.6228 C   0  0  0  0  0  0  0  0  0  0  0  0
    2.6363    3.2783   -1.4083 C   0  0  0  0  0  0  0  0  0  0  0  0
    4.4931    1.0066    0.3659 C   0  0  0  0  0  0  0  0  0  0  0  0
    4.3930   -0.4565    0.6379 C   0  0  0  0  0  0  0  0  0  0  0  0
    5.3750   -1.2823    0.7986 N   0  0  0  0  0  0  0  0  0  0  0  0
    6.6601   -0.9004    0.5315 C   0  0  0  0  0  0  0  0  0  0  0  0
    7.0029   -0.1505   -0.3822 O   0  0  0  0  0  0  0  0  0  0  0  0
    7.7510   -1.4401    1.3944 C   0  0  0  0  0  0  0  0  0  0  0  0
    8.7336   -0.4847    1.7612 C   0  0  0  0  0  0  0  0  0  0  0  0
    9.8499   -0.8160    2.5471 C   0  0  0  0  0  0  0  0  0  0  0  0
   10.9137    0.2007    2.8896 C   0  0  0  0  0  0  0  0  0  0  0  0
   10.6896    1.4329    2.3574 F   0  0  0  0  0  0  0  0  0  0  0  0
   11.0427    0.3880    4.2316 F   0  0  0  0  0  0  0  0  0  0  0  0
   12.1478   -0.1766    2.4472 F   0  0  0  0  0  0  0  0  0  0  0  0
    9.9742   -2.1296    2.9943 C   0  0  0  0  0  0  0  0  0  0  0  0
    9.0186   -3.0783    2.6307 C   0  0  0  0  0  0  0  0  0  0  0  0
    7.9184   -2.7633    1.8117 C   0  0  0  0  0  0  0  0  0  0  0  0
    7.1815   -3.8937    1.5412 O   0  0  0  0  0  0  0  0  0  0  0  0
    6.2781   -3.8025    0.4181 N   0  0  0  0  0  0  0  0  0  0  0  0
    5.7490   -5.1557    0.1842 C   0  0  0  0  0  0  0  0  0  0  0  0
    5.1060   -5.7331    1.4583 C   0  0  0  0  0  0  0  0  0  0  0  0
    4.6690   -5.0363   -0.9028 C   0  0  0  0  0  0  0  0  0  0  0  0
    6.8713   -6.0774   -0.3150 C   0  0  0  0  0  0  0  0  0  0  0  0
    3.0380   -0.7941    0.7083 N   0  0  0  0  0  0  0  0  0  0  0  0
    2.5908   -2.1796    0.6057 C   0  0  0  0  0  0  0  0  0  0  0  0
    1.3396   -2.4757    1.3916 C   0  0  0  0  0  0  0  0  0  0  0  0
    0.0571   -3.0025    0.7187 C   0  0  0  0  0  0  0  0  0  0  0  0
    0.9593   -3.8786    1.5970 C   0  0  0  0  0  0  0  0  0  0  0  0
    0.8568   -0.7009   -0.7896 H   0  0  0  0  0  0  0  0  0  0  0  0
    0.9018    1.0048   -1.0947 H   0  0  0  0  0  0  0  0  0  0  0  0
    0.2207    0.4207    0.4318 H   0  0  0  0  0  0  0  0  0  0  0  0
    1.7314    3.1798    1.9518 H   0  0  0  0  0  0  0  0  0  0  0  0
    0.6972    2.6780    0.6093 H   0  0  0  0  0  0  0  0  0  0  0  0
    1.2811    4.3269    0.6848 H   0  0  0  0  0  0  0  0  0  0  0  0
    4.1772    3.6054    1.6740 H   0  0  0  0  0  0  0  0  0  0  0  0
    3.6690    4.8884    0.5696 H   0  0  0  0  0  0  0  0  0  0  0  0
    4.8870    3.7299    0.0525 H   0  0  0  0  0  0  0  0  0  0  0  0
    1.7965    2.7506   -1.8659 H   0  0  0  0  0  0  0  0  0  0  0  0
    3.5336    3.0529   -1.9962 H   0  0  0  0  0  0  0  0  0  0  0  0
    2.4359    4.3513   -1.5197 H   0  0  0  0  0  0  0  0  0  0  0  0
    5.4101    1.5613    0.3341 H   0  0  0  0  0  0  0  0  0  0  0  0
    8.6233    0.5466    1.4120 H   0  0  0  0  0  0  0  0  0  0  0  0
   10.8193   -2.4258    3.6120 H   0  0  0  0  0  0  0  0  0  0  0  0
    9.1477   -4.1056    2.9718 H   0  0  0  0  0  0  0  0  0  0  0  0
    6.8770   -3.5369   -0.3640 H   0  0  0  0  0  0  0  0  0  0  0  0
    4.2989   -5.0902    1.8281 H   0  0  0  0  0  0  0  0  0  0  0  0
    5.8334   -5.8496    2.2703 H   0  0  0  0  0  0  0  0  0  0  0  0
    4.6792   -6.7242    1.2659 H   0  0  0  0  0  0  0  0  0  0  0  0
    3.7875   -4.5058   -0.5368 H   0  0  0  0  0  0  0  0  0  0  0  0
    4.3368   -6.0239   -1.2383 H   0  0  0  0  0  0  0  0  0  0  0  0
    5.0402   -4.4948   -1.7822 H   0  0  0  0  0  0  0  0  0  0  0  0
    7.6379   -6.2363    0.4514 H   0  0  0  0  0  0  0  0  0  0  0  0
    7.3644   -5.6552   -1.1989 H   0  0  0  0  0  0  0  0  0  0  0  0
    6.4763   -7.0595   -0.5965 H   0  0  0  0  0  0  0  0  0  0  0  0
    3.3689   -2.8312    1.0179 H   0  0  0  0  0  0  0  0  0  0  0  0
    2.4708   -2.4608   -0.4477 H   0  0  0  0  0  0  0  0  0  0  0  0
    1.2330   -1.8170    2.2508 H   0  0  0  0  0  0  0  0  0  0  0  0
    0.1735   -2.7250   -0.3471 H   0  0  0  0  0  0  0  0  0  0  0  0
   -0.5524   -3.8487    0.3532 H   0  0  0  0  0  0  0  0  0  0  0  0
    0.5722   -4.1718    2.5670 H   0  0  0  0  0  0  0  0  0  0  0  0
    1.5193   -4.6696    1.1082 H   0  0  0  0  0  0  0  0  0  0  0  0
  1  2  1  0  0  0  0
  1 34  1  0  0  0  0
  1 35  1  0  0  0  0
  1 36  1  0  0  0  0
  2 29  1  0  0  0  0
  2  3  1  0  0  0  0
  3  4  1  0  0  0  0
  3  8  2  0  0  0  0
  4  5  1  0  0  0  0
  4  6  1  0  0  0  0
  4  7  1  0  0  0  0
  5 37  1  0  0  0  0
  5 38  1  0  0  0  0
  5 39  1  0  0  0  0
  6 40  1  0  0  0  0
  6 41  1  0  0  0  0
  6 42  1  0  0  0  0
  7 43  1  0  0  0  0
  7 44  1  0  0  0  0
  7 45  1  0  0  0  0
  8  9  1  0  0  0  0
  8 46  1  0  0  0  0
  9 10  2  0  0  0  0
  9 29  1  0  0  0  0
 10 11  1  0  0  0  0
 11 12  2  0  0  0  0
 11 13  1  0  0  0  0
 13 22  2  0  0  0  0
 13 14  1  0  0  0  0
 14 15  2  0  0  0  0
 14 47  1  0  0  0  0
 15 16  1  0  0  0  0
 15 20  1  0  0  0  0
 16 17  1  0  0  0  0
 16 18  1  0  0  0  0
 16 19  1  0  0  0  0
 20 21  2  0  0  0  0
 20 48  1  0  0  0  0
 21 22  1  0  0  0  0
 21 49  1  0  0  0  0
 22 23  1  0  0  0  0
 23 24  1  0  0  0  0
 24 25  1  0  0  0  0
 24 50  1  0  0  0  0
 25 26  1  0  0  0  0
 25 27  1  0  0  0  0
 25 28  1  0  0  0  0
 26 51  1  0  0  0  0
 26 52  1  0  0  0  0
 26 53  1  0  0  0  0
 27 54  1  0  0  0  0
 27 55  1  0  0  0  0
 27 56  1  0  0  0  0
 28 57  1  0  0  0  0
 28 58  1  0  0  0  0
 28 59  1  0  0  0  0
 29 30  1  0  0  0  0
 30 31  1  0  0  0  0
 30 60  1  0  0  0  0
 30 61  1  0  0  0  0
 31 33  1  0  0  0  0
 31 32  1  0  0  0  0
 31 62  1  0  0  0  0
 32 33  1  0  0  0  0
 32 63  1  0  0  0  0
 32 64  1  0  0  0  0
 33 65  1  0  0  0  0
 33 66  1  0  0  0  0
M  END
$$$$
CHEMBL2112289
 OpenBabel12022418103D

 68 71  0  0  1  0  0  0  0  0999 V2000
    4.6866    7.2090    3.4543 C   0  0  0  0  0  0  0  0  0  0  0  0
    4.2250    5.7635    3.5120 C   0  0  0  0  0  0  0  0  0  0  0  0
    4.8657    4.9448    2.3938 C   0  0  0  0  0  0  0  0  0  0  0  0
    4.4092    3.4890    2.4592 C   0  0  0  0  0  0  0  0  0  0  0  0
    5.0838    2.5991    1.4087 C   0  0  0  0  0  0  0  0  0  0  0  0
    6.5444    2.5935    1.4548 N   0  0  0  0  0  0  0  0  0  0  0  0
    7.2911    2.0899    2.5144 C   0  0  0  0  0  0  0  0  0  0  0  0
    6.6715    1.4212    3.7012 C   0  0  0  0  0  0  0  0  0  0  0  0
    8.6312    2.3981    2.2681 C   0  0  0  0  0  0  0  0  0  0  0  0
    9.7999    2.2148    3.1488 C   0  0  0  0  0  0  0  0  0  0  0  0
   10.7945    2.9268    3.0770 O   0  0  0  0  0  0  0  0  0  0  0  0
    9.7142    1.1627    4.0346 N   0  0  0  0  0  0  0  0  0  0  0  0
   10.8100    0.7793    4.9053 C   0  0  2  0  0  0  0  0  0  0  0  0
   11.8714   -0.1937    4.2774 C   0  0  0  0  0  0  0  0  0  0  0  0
   11.5865   -0.6689    2.8439 C   0  0  0  0  0  0  0  0  0  0  0  0
   13.2612    0.4832    4.2576 C   0  0  0  0  0  0  0  0  0  0  0  0
   11.8624   -1.3720    5.3069 C   0  0  2  0  0  0  0  0  0  0  0  0
   10.5586   -2.1910    5.2177 C   0  0  0  0  0  0  0  0  0  0  0  0
    9.5083   -1.2429    5.8100 C   0  0  0  0  0  0  0  0  0  0  0  0
   10.3389    0.0067    6.1814 C   0  0  2  0  0  0  0  0  0  0  0  0
    9.6856    0.8823    7.2332 C   0  0  0  0  0  0  0  0  0  0  0  0
   11.6450   -0.6535    6.6435 C   0  0  0  0  0  0  0  0  0  0  0  0
    8.6873    2.9646    0.9510 C   0  0  0  0  0  0  0  0  0  0  0  0
    9.7669    3.3760    0.1376 C   0  0  0  0  0  0  0  0  0  0  0  0
    9.5344    3.8938   -1.1322 C   0  0  0  0  0  0  0  0  0  0  0  0
    8.2340    4.0339   -1.6003 C   0  0  0  0  0  0  0  0  0  0  0  0
    7.1265    3.6529   -0.8246 C   0  0  0  0  0  0  0  0  0  0  0  0
    7.3802    3.0893    0.4572 C   0  0  0  0  0  0  0  0  0  0  0  0
    5.8296    3.7978   -1.2393 O   0  0  0  0  0  0  0  0  0  0  0  0
    5.5929    4.3416   -2.5300 C   0  0  0  0  0  0  0  0  0  0  0  0
    4.2181    7.7901    4.2537 H   0  0  0  0  0  0  0  0  0  0  0  0
    4.4189    7.6637    2.4956 H   0  0  0  0  0  0  0  0  0  0  0  0
    5.7729    7.2759    3.5748 H   0  0  0  0  0  0  0  0  0  0  0  0
    3.1331    5.7222    3.4302 H   0  0  0  0  0  0  0  0  0  0  0  0
    4.4938    5.3389    4.4873 H   0  0  0  0  0  0  0  0  0  0  0  0
    5.9549    5.0039    2.4974 H   0  0  0  0  0  0  0  0  0  0  0  0
    4.6058    5.3680    1.4173 H   0  0  0  0  0  0  0  0  0  0  0  0
    3.3233    3.4362    2.3135 H   0  0  0  0  0  0  0  0  0  0  0  0
    4.5907    3.1160    3.4711 H   0  0  0  0  0  0  0  0  0  0  0  0
    4.7381    2.9085    0.4268 H   0  0  0  0  0  0  0  0  0  0  0  0
    4.7611    1.5561    1.5155 H   0  0  0  0  0  0  0  0  0  0  0  0
    5.5847    1.3490    3.6561 H   0  0  0  0  0  0  0  0  0  0  0  0
    6.9331    1.9555    4.6204 H   0  0  0  0  0  0  0  0  0  0  0  0
    7.0127    0.3861    3.7775 H   0  0  0  0  0  0  0  0  0  0  0  0
    9.0004    0.4840    3.8336 H   0  0  0  0  0  0  0  0  0  0  0  0
   11.3087    1.7050    5.2239 H   0  0  0  0  0  0  0  0  0  0  0  0
   11.7957    0.1196    2.1123 H   0  0  0  0  0  0  0  0  0  0  0  0
   10.5481   -0.9777    2.6953 H   0  0  0  0  0  0  0  0  0  0  0  0
   12.2250   -1.5244    2.5926 H   0  0  0  0  0  0  0  0  0  0  0  0
   13.2647    1.3459    3.5818 H   0  0  0  0  0  0  0  0  0  0  0  0
   14.0316   -0.2159    3.9134 H   0  0  0  0  0  0  0  0  0  0  0  0
   13.5685    0.8476    5.2426 H   0  0  0  0  0  0  0  0  0  0  0  0
   12.7584   -1.9968    5.2669 H   0  0  0  0  0  0  0  0  0  0  0  0
   10.6322   -3.0914    5.8392 H   0  0  0  0  0  0  0  0  0  0  0  0
   10.3031   -2.5201    4.2082 H   0  0  0  0  0  0  0  0  0  0  0  0
    9.0601   -1.7005    6.7003 H   0  0  0  0  0  0  0  0  0  0  0  0
    8.6924   -1.0444    5.1115 H   0  0  0  0  0  0  0  0  0  0  0  0
    8.7633    1.3349    6.8562 H   0  0  0  0  0  0  0  0  0  0  0  0
   10.3575    1.6892    7.5458 H   0  0  0  0  0  0  0  0  0  0  0  0
    9.4350    0.3012    8.1277 H   0  0  0  0  0  0  0  0  0  0  0  0
   12.4285    0.0618    6.9075 H   0  0  0  0  0  0  0  0  0  0  0  0
   11.5077   -1.3453    7.4829 H   0  0  0  0  0  0  0  0  0  0  0  0
   10.7881    3.2765    0.4988 H   0  0  0  0  0  0  0  0  0  0  0  0
   10.3741    4.1936   -1.7544 H   0  0  0  0  0  0  0  0  0  0  0  0
    8.1100    4.4559   -2.5935 H   0  0  0  0  0  0  0  0  0  0  0  0
    4.5073    4.4220   -2.6634 H   0  0  0  0  0  0  0  0  0  0  0  0
    5.9746    3.6791   -3.3108 H   0  0  0  0  0  0  0  0  0  0  0  0
    6.0079    5.3521   -2.6252 H   0  0  0  0  0  0  0  0  0  0  0  0
  1  2  1  0  0  0  0
  1 31  1  0  0  0  0
  1 32  1  0  0  0  0
  1 33  1  0  0  0  0
  2  3  1  0  0  0  0
  2 34  1  0  0  0  0
  2 35  1  0  0  0  0
  3  4  1  0  0  0  0
  3 36  1  0  0  0  0
  3 37  1  0  0  0  0
  4  5  1  0  0  0  0
  4 38  1  0  0  0  0
  4 39  1  0  0  0  0
  5  6  1  0  0  0  0
  5 40  1  0  0  0  0
  5 41  1  0  0  0  0
  6 28  1  0  0  0  0
  6  7  1  0  0  0  0
  7  8  1  0  0  0  0
  7  9  2  0  0  0  0
  8 42  1  0  0  0  0
  8 43  1  0  0  0  0
  8 44  1  0  0  0  0
  9 10  1  0  0  0  0
  9 23  1  0  0  0  0
 10 11  2  0  0  0  0
 10 12  1  0  0  0  0
 12 45  1  0  0  0  0
 13 12  1  0  0  0  0
 13 14  1  0  0  0  0
 13 20  1  0  0  0  0
 13 46  1  1  0  0  0
 14 15  1  0  0  0  0
 14 16  1  0  0  0  0
 14 17  1  0  0  0  0
 15 47  1  0  0  0  0
 15 48  1  0  0  0  0
 15 49  1  0  0  0  0
 16 50  1  0  0  0  0
 16 51  1  0  0  0  0
 16 52  1  0  0  0  0
 17 18  1  0  0  0  0
 17 22  1  0  0  0  0
 17 53  1  6  0  0  0
 18 19  1  0  0  0  0
 18 54  1  0  0  0  0
 18 55  1  0  0  0  0
 19 20  1  0  0  0  0
 19 56  1  0  0  0  0
 19 57  1  0  0  0  0
 20 21  1  1  0  0  0
 20 22  1  0  0  0  0
 21 58  1  0  0  0  0
 21 59  1  0  0  0  0
 21 60  1  0  0  0  0
 22 61  1  0  0  0  0
 22 62  1  0  0  0  0
 23 28  2  0  0  0  0
 23 24  1  0  0  0  0
 24 25  2  0  0  0  0
 24 63  1  0  0  0  0
 25 26  1  0  0  0  0
 25 64  1  0  0  0  0
 26 27  2  0  0  0  0
 26 65  1  0  0  0  0
 27 28  1  0  0  0  0
 27 29  1  0  0  0  0
 29 30  1  0  0  0  0
 30 66  1  0  0  0  0
 30 67  1  0  0  0  0
 30 68  1  0  0  0  0
M  END
$$$$
CHEMBL3890640
 OpenBabel12022418103D

 50 53  0  0  1  0  0  0  0  0999 V2000
    1.5041    1.0921    1.2130 C   0  0  0  0  0  0  0  0  0  0  0  0
    0.1430    1.4147    0.5718 C   0  0  0  0  0  0  0  0  0  0  0  0
    0.2963    0.1263   -0.2948 C   0  0  0  0  0  0  0  0  0  0  0  0
    1.2357   -0.3793    0.8697 C   0  0  0  0  0  0  0  0  0  0  0  0
    0.9113    0.1782   -1.7778 C   0  0  0  0  0  0  0  0  0  0  0  0
    0.6958    1.1815   -2.7353 C   0  0  0  0  0  0  0  0  0  0  0  0
    1.0532    1.0807   -4.0403 N   0  0  0  0  0  0  0  0  0  0  0  0
    1.8081    0.0389   -4.4209 C   0  0  0  0  0  0  0  0  0  0  0  0
    2.1863   -0.9655   -3.5607 C   0  0  0  0  0  0  0  0  0  0  0  0
    1.6927   -0.9074   -2.2556 C   0  0  0  0  0  0  0  0  0  0  0  0
    2.2700    0.0734   -5.8379 C   0  0  0  0  0  0  0  0  0  0  0  0
    3.4487   -0.1637   -6.0752 O   0  0  0  0  0  0  0  0  0  0  0  0
    1.3409    0.3305   -6.8396 N   0  0  0  0  0  0  0  0  0  0  0  0
   -0.0854    0.5330   -6.6280 C   0  0  0  0  0  0  0  0  0  0  0  0
   -0.8705    0.1357   -8.1726 S   0  0  0  0  0  0  0  0  0  0  0  0
   -2.0084    0.9998   -8.3909 O   0  0  0  0  0  0  0  0  0  0  0  0
   -0.9580   -1.3105   -8.2746 O   0  0  0  0  0  0  0  0  0  0  0  0
    0.5033    0.6939   -9.1440 C   0  0  0  0  0  0  0  0  0  0  0  0
    1.7502    0.5540   -8.2469 C   0  0  2  0  0  0  0  0  0  0  0  0
    2.6089   -0.5648   -8.8515 C   0  0  0  0  0  0  0  0  0  0  0  0
    3.4551   -0.3473   -9.7161 O   0  0  0  0  0  0  0  0  0  0  0  0
    2.2378   -1.8426   -8.5569 N   0  0  0  0  0  0  0  0  0  0  0  0
    0.1482    2.4023   -2.3654 O   0  0  0  0  0  0  0  0  0  0  0  0
    0.4019    3.3845   -3.3967 C   0  0  0  0  0  0  0  0  0  0  0  0
    0.2764    4.8081   -2.9596 C   0  0  0  0  0  0  0  0  0  0  0  0
   -0.5479    5.3079   -1.8080 C   0  0  0  0  0  0  0  0  0  0  0  0
    0.9548    5.2648   -1.6970 C   0  0  0  0  0  0  0  0  0  0  0  0
   -0.8475   -0.6042   -0.3912 F   0  0  0  0  0  0  0  0  0  0  0  0
    2.3585    1.5208    0.6787 H   0  0  0  0  0  0  0  0  0  0  0  0
    1.5969    1.3216    2.2780 H   0  0  0  0  0  0  0  0  0  0  0  0
    0.0827    2.3795    0.0704 H   0  0  0  0  0  0  0  0  0  0  0  0
   -0.6941    1.3512    1.2800 H   0  0  0  0  0  0  0  0  0  0  0  0
    0.6972   -0.9238    1.6572 H   0  0  0  0  0  0  0  0  0  0  0  0
    2.1216   -0.9611    0.6050 H   0  0  0  0  0  0  0  0  0  0  0  0
    2.8179   -1.7824   -3.8922 H   0  0  0  0  0  0  0  0  0  0  0  0
    1.9226   -1.7344   -1.5842 H   0  0  0  0  0  0  0  0  0  0  0  0
   -0.2606    1.5949   -6.4243 H   0  0  0  0  0  0  0  0  0  0  0  0
   -0.4890   -0.0945   -5.8334 H   0  0  0  0  0  0  0  0  0  0  0  0
    0.3170    1.7427   -9.3921 H   0  0  0  0  0  0  0  0  0  0  0  0
    0.5354    0.1063  -10.0663 H   0  0  0  0  0  0  0  0  0  0  0  0
    2.3463    1.4748   -8.2763 H   0  0  0  0  0  0  0  0  0  0  0  0
    1.5475   -2.0659   -7.8525 H   0  0  0  0  0  0  0  0  0  0  0  0
    2.8099   -2.5905   -8.9272 H   0  0  0  0  0  0  0  0  0  0  0  0
   -0.2882    3.2102   -4.2316 H   0  0  0  0  0  0  0  0  0  0  0  0
    1.4386    3.3052   -3.7537 H   0  0  0  0  0  0  0  0  0  0  0  0
    0.3629    5.4625   -3.8234 H   0  0  0  0  0  0  0  0  0  0  0  0
   -1.1288    4.5979   -1.2346 H   0  0  0  0  0  0  0  0  0  0  0  0
   -1.0126    6.2827   -1.9183 H   0  0  0  0  0  0  0  0  0  0  0  0
    1.5167    6.1904   -1.7534 H   0  0  0  0  0  0  0  0  0  0  0  0
    1.3902    4.5199   -1.0412 H   0  0  0  0  0  0  0  0  0  0  0  0
  1  4  1  0  0  0  0
  1  2  1  0  0  0  0
  1 29  1  0  0  0  0
  1 30  1  0  0  0  0
  2  3  1  0  0  0  0
  2 31  1  0  0  0  0
  2 32  1  0  0  0  0
  3  4  1  0  0  0  0
  3  5  1  0  0  0  0
  3 28  1  0  0  0  0
  4 33  1  0  0  0  0
  4 34  1  0  0  0  0
  5 10  2  0  0  0  0
  5  6  1  0  0  0  0
  6  7  2  0  0  0  0
  6 23  1  0  0  0  0
  7  8  1  0  0  0  0
  8  9  2  0  0  0  0
  8 11  1  0  0  0  0
  9 10  1  0  0  0  0
  9 35  1  0  0  0  0
 10 36  1  0  0  0  0
 11 12  2  0  0  0  0
 11 13  1  0  0  0  0
 13 19  1  0  0  0  0
 13 14  1  0  0  0  0
 14 15  1  0  0  0  0
 14 37  1  0  0  0  0
 14 38  1  0  0  0  0
 15 16  2  0  0  0  0
 15 17  2  0  0  0  0
 15 18  1  0  0  0  0
 18 19  1  0  0  0  0
 18 39  1  0  0  0  0
 18 40  1  0  0  0  0
 19 20  1  0  0  0  0
 19 41  1  6  0  0  0
 20 21  2  0  0  0  0
 20 22  1  0  0  0  0
 22 42  1  0  0  0  0
 22 43  1  0  0  0  0
 23 24  1  0  0  0  0
 24 25  1  0  0  0  0
 24 44  1  0  0  0  0
 24 45  1  0  0  0  0
 25 27  1  0  0  0  0
 25 26  1  0  0  0  0
 25 46  1  0  0  0  0
 26 27  1  0  0  0  0
 26 47  1  0  0  0  0
 26 48  1  0  0  0  0
 27 49  1  0  0  0  0
 27 50  1  0  0  0  0
M  END
$$$$
CHEMBL3907722
 OpenBabel12022418103D

 50 52  0  0  0  0  0  0  0  0999 V2000
    1.0693   -0.2951    0.5750 C   0  0  0  0  0  0  0  0  0  0  0  0
    2.5714    0.0036    0.3274 C   0  0  0  0  0  0  0  0  0  0  0  0
    3.3479   -1.0699    1.1225 C   0  0  0  0  0  0  0  0  0  0  0  0
    2.8028   -0.1907   -1.1874 C   0  0  0  0  0  0  0  0  0  0  0  0
    2.9891    1.3921    0.7439 N   0  0  0  0  0  0  0  0  0  0  0  0
    1.9755    2.3246    1.2394 C   0  0  0  0  0  0  0  0  0  0  0  0
    4.3561    1.7679    0.6321 C   0  0  0  0  0  0  0  0  0  0  0  0
    5.2081    1.0217    0.1373 O   0  0  0  0  0  0  0  0  0  0  0  0
    4.8483    3.1090    1.1090 C   0  0  0  0  0  0  0  0  0  0  0  0
    4.4452    3.6886    2.2962 C   0  0  0  0  0  0  0  0  0  0  0  0
    4.9308    4.9560    2.6194 C   0  0  0  0  0  0  0  0  0  0  0  0
    5.8893    5.6021    1.8224 C   0  0  0  0  0  0  0  0  0  0  0  0
    6.3372    4.8662    0.7153 C   0  0  0  0  0  0  0  0  0  0  0  0
    5.7957    3.6812    0.3317 N   0  0  0  0  0  0  0  0  0  0  0  0
    7.4104    5.3278   -0.0350 O   0  0  0  0  0  0  0  0  0  0  0  0
    8.0640    4.2299   -0.6995 C   0  0  0  0  0  0  0  0  0  0  0  0
    9.2240    4.7212   -1.5163 C   0  0  0  0  0  0  0  0  0  0  0  0
    9.4963    4.0728   -2.8550 C   0  0  0  0  0  0  0  0  0  0  0  0
    9.0127    5.4936   -2.7915 C   0  0  0  0  0  0  0  0  0  0  0  0
    6.3432    6.8741    2.2126 N   0  0  0  0  0  0  0  0  0  0  0  0
    5.7762    7.7953    3.1511 C   0  0  0  0  0  0  0  0  0  0  0  0
    6.3417    8.9511    2.3153 C   0  0  0  0  0  0  0  0  0  0  0  0
    7.1115    7.8686    1.5337 C   0  0  0  0  0  0  0  0  0  0  0  0
    7.0823    9.8612    2.9913 F   0  0  0  0  0  0  0  0  0  0  0  0
    5.4239    9.6548    1.6060 F   0  0  0  0  0  0  0  0  0  0  0  0
    0.8229   -1.3322    0.3158 H   0  0  0  0  0  0  0  0  0  0  0  0
    0.4207    0.3351   -0.0443 H   0  0  0  0  0  0  0  0  0  0  0  0
    0.7973   -0.1476    1.6258 H   0  0  0  0  0  0  0  0  0  0  0  0
    2.9986   -2.0772    0.8684 H   0  0  0  0  0  0  0  0  0  0  0  0
    3.2102   -0.9273    2.2002 H   0  0  0  0  0  0  0  0  0  0  0  0
    4.4223   -1.0556    0.9232 H   0  0  0  0  0  0  0  0  0  0  0  0
    2.4111   -1.1561   -1.5277 H   0  0  0  0  0  0  0  0  0  0  0  0
    3.8610   -0.1660   -1.4619 H   0  0  0  0  0  0  0  0  0  0  0  0
    2.2977    0.5954   -1.7612 H   0  0  0  0  0  0  0  0  0  0  0  0
    0.9873    2.1276    0.8269 H   0  0  0  0  0  0  0  0  0  0  0  0
    2.2212    3.3496    0.9576 H   0  0  0  0  0  0  0  0  0  0  0  0
    1.9254    2.2302    2.3282 H   0  0  0  0  0  0  0  0  0  0  0  0
    3.7712    3.1872    2.9769 H   0  0  0  0  0  0  0  0  0  0  0  0
    4.5665    5.4265    3.5284 H   0  0  0  0  0  0  0  0  0  0  0  0
    7.3672    3.7080   -1.3675 H   0  0  0  0  0  0  0  0  0  0  0  0
    8.4473    3.5252    0.0507 H   0  0  0  0  0  0  0  0  0  0  0  0
   10.0770    4.9765   -0.8986 H   0  0  0  0  0  0  0  0  0  0  0  0
    8.8040    3.3218   -3.2251 H   0  0  0  0  0  0  0  0  0  0  0  0
   10.5259    3.8922   -3.1426 H   0  0  0  0  0  0  0  0  0  0  0  0
    9.7217    6.2766   -3.0342 H   0  0  0  0  0  0  0  0  0  0  0  0
    7.9943    5.7018   -3.1002 H   0  0  0  0  0  0  0  0  0  0  0  0
    6.2160    7.6792    4.1457 H   0  0  0  0  0  0  0  0  0  0  0  0
    4.6853    7.7766    3.2118 H   0  0  0  0  0  0  0  0  0  0  0  0
    6.9715    7.9099    0.4525 H   0  0  0  0  0  0  0  0  0  0  0  0
    8.1735    7.8003    1.7881 H   0  0  0  0  0  0  0  0  0  0  0  0
  1  2  1  0  0  0  0
  1 26  1  0  0  0  0
  1 27  1  0  0  0  0
  1 28  1  0  0  0  0
  2  3  1  0  0  0  0
  2  4  1  0  0  0  0
  2  5  1  0  0  0  0
  3 29  1  0  0  0  0
  3 30  1  0  0  0  0
  3 31  1  0  0  0  0
  4 32  1  0  0  0  0
  4 33  1  0  0  0  0
  4 34  1  0  0  0  0
  5  6  1  0  0  0  0
  5  7  1  0  0  0  0
  6 35  1  0  0  0  0
  6 36  1  0  0  0  0
  6 37  1  0  0  0  0
  7  8  2  0  0  0  0
  7  9  1  0  0  0  0
  9 14  2  0  0  0  0
  9 10  1  0  0  0  0
 10 11  2  0  0  0  0
 10 38  1  0  0  0  0
 11 12  1  0  0  0  0
 11 39  1  0  0  0  0
 12 13  2  0  0  0  0
 12 20  1  0  0  0  0
 13 14  1  0  0  0  0
 13 15  1  0  0  0  0
 15 16  1  0  0  0  0
 16 17  1  0  0  0  0
 16 40  1  0  0  0  0
 16 41  1  0  0  0  0
 17 19  1  0  0  0  0
 17 18  1  0  0  0  0
 17 42  1  0  0  0  0
 18 19  1  0  0  0  0
 18 43  1  0  0  0  0
 18 44  1  0  0  0  0
 19 45  1  0  0  0  0
 19 46  1  0  0  0  0
 20 23  1  0  0  0  0
 20 21  1  0  0  0  0
 21 22  1  0  0  0  0
 21 47  1  0  0  0  0
 21 48  1  0  0  0  0
 22 23  1  0  0  0  0
 22 24  1  0  0  0  0
 22 25  1  0  0  0  0
 23 49  1  0  0  0  0
 23 50  1  0  0  0  0
M  END
$$$$
CHEMBL4084719
 OpenBabel12022418103D

 52 53  0  0  0  0  0  0  0  0999 V2000
   -2.4485   -0.8496    0.0513 C   0  0  0  0  0  0  0  0  0  0  0  0
   -2.5122    0.5391    0.0714 C   0  0  0  0  0  0  0  0  0  0  0  0
   -1.3375    1.2976    0.1293 C   0  0  0  0  0  0  0  0  0  0  0  0
   -0.0777    0.6777    0.1199 C   0  0  0  0  0  0  0  0  0  0  0  0
   -0.0319   -0.7165    0.1494 C   0  0  0  0  0  0  0  0  0  0  0  0
   -1.2094   -1.4806    0.1171 C   0  0  0  0  0  0  0  0  0  0  0  0
    1.2762   -1.3953    0.1724 C   0  0  0  0  0  0  0  0  0  0  0  0
    1.3157   -2.6231    0.2346 O   0  0  0  0  0  0  0  0  0  0  0  0
    2.3957   -0.5935    0.0419 N   0  0  0  0  0  0  0  0  0  0  0  0
    2.3264    0.7428   -0.3180 C   0  0  0  0  0  0  0  0  0  0  0  0
    3.2729    1.3036   -0.8797 O   0  0  0  0  0  0  0  0  0  0  0  0
    1.1349    1.4059   -0.0358 N   0  0  0  0  0  0  0  0  0  0  0  0
    1.1405    2.8720   -0.0660 C   0  0  0  0  0  0  0  0  0  0  0  0
    1.1446    3.5096    1.3340 C   0  0  0  0  0  0  0  0  0  0  0  0
    2.3993    3.2453    2.1797 C   0  0  0  0  0  0  0  0  0  0  0  0
    3.6907    3.7379    1.5246 C   0  0  0  0  0  0  0  0  0  0  0  0
    4.9082    3.4987    2.4022 C   0  0  0  0  0  0  0  0  0  0  0  0
    3.6853   -1.2505   -0.1477 C   0  0  0  0  0  0  0  0  0  0  0  0
    4.8294   -0.5755    0.6211 C   0  0  0  0  0  0  0  0  0  0  0  0
    4.6792   -0.0189    1.7041 O   0  0  0  0  0  0  0  0  0  0  0  0
    6.0610   -0.6937   -0.0054 N   0  0  0  0  0  0  0  0  0  0  0  0
    7.2592   -0.0518    0.4966 C   0  0  0  0  0  0  0  0  0  0  0  0
    8.0373   -0.9328    1.4735 C   0  0  0  0  0  0  0  0  0  0  0  0
    8.5948   -2.1943    0.8114 C   0  0  0  0  0  0  0  0  0  0  0  0
    9.3874   -3.0369    1.8006 C   0  0  0  0  0  0  0  0  0  0  0  0
   -3.3597   -1.4388   -0.0195 H   0  0  0  0  0  0  0  0  0  0  0  0
   -3.4767    1.0396    0.0174 H   0  0  0  0  0  0  0  0  0  0  0  0
   -1.4491    2.3769    0.1299 H   0  0  0  0  0  0  0  0  0  0  0  0
   -1.1596   -2.5677    0.1137 H   0  0  0  0  0  0  0  0  0  0  0  0
    0.2829    3.2319   -0.6433 H   0  0  0  0  0  0  0  0  0  0  0  0
    2.0076    3.2343   -0.6268 H   0  0  0  0  0  0  0  0  0  0  0  0
    0.2713    3.1665    1.9023 H   0  0  0  0  0  0  0  0  0  0  0  0
    1.0283    4.5945    1.2170 H   0  0  0  0  0  0  0  0  0  0  0  0
    2.4754    2.1757    2.4077 H   0  0  0  0  0  0  0  0  0  0  0  0
    2.2748    3.7583    3.1427 H   0  0  0  0  0  0  0  0  0  0  0  0
    3.6102    4.8072    1.2996 H   0  0  0  0  0  0  0  0  0  0  0  0
    3.8589    3.2240    0.5764 H   0  0  0  0  0  0  0  0  0  0  0  0
    4.8469    4.0770    3.3284 H   0  0  0  0  0  0  0  0  0  0  0  0
    5.8166    3.7997    1.8701 H   0  0  0  0  0  0  0  0  0  0  0  0
    5.0068    2.4410    2.6625 H   0  0  0  0  0  0  0  0  0  0  0  0
    3.9027   -1.2641   -1.2203 H   0  0  0  0  0  0  0  0  0  0  0  0
    3.6500   -2.2882    0.2081 H   0  0  0  0  0  0  0  0  0  0  0  0
    6.1224   -1.1796   -0.8921 H   0  0  0  0  0  0  0  0  0  0  0  0
    6.9806    0.8858    0.9892 H   0  0  0  0  0  0  0  0  0  0  0  0
    7.8814    0.1996   -0.3706 H   0  0  0  0  0  0  0  0  0  0  0  0
    7.3910   -1.2115    2.3155 H   0  0  0  0  0  0  0  0  0  0  0  0
    8.8691   -0.3459    1.8847 H   0  0  0  0  0  0  0  0  0  0  0  0
    9.2462   -1.9196   -0.0273 H   0  0  0  0  0  0  0  0  0  0  0  0
    7.7794   -2.8010    0.4051 H   0  0  0  0  0  0  0  0  0  0  0  0
   10.2450   -2.4829    2.1921 H   0  0  0  0  0  0  0  0  0  0  0  0
    9.7616   -3.9427    1.3111 H   0  0  0  0  0  0  0  0  0  0  0  0
    8.7605   -3.3436    2.6449 H   0  0  0  0  0  0  0  0  0  0  0  0
  1  6  2  0  0  0  0
  1  2  1  0  0  0  0
  1 26  1  0  0  0  0
  2  3  2  0  0  0  0
  2 27  1  0  0  0  0
  3  4  1  0  0  0  0
  3 28  1  0  0  0  0
  4 12  1  0  0  0  0
  4  5  2  0  0  0  0
  5  6  1  0  0  0  0
  5  7  1  0  0  0  0
  6 29  1  0  0  0  0
  7  8  2  0  0  0  0
  7  9  1  0  0  0  0
  9 10  1  0  0  0  0
  9 18  1  0  0  0  0
 10 11  2  0  0  0  0
 10 12  1  0  0  0  0
 12 13  1  0  0  0  0
 13 14  1  0  0  0  0
 13 30  1  0  0  0  0
 13 31  1  0  0  0  0
 14 15  1  0  0  0  0
 14 32  1  0  0  0  0
 14 33  1  0  0  0  0
 15 16  1  0  0  0  0
 15 34  1  0  0  0  0
 15 35  1  0  0  0  0
 16 17  1  0  0  0  0
 16 36  1  0  0  0  0
 16 37  1  0  0  0  0
 17 38  1  0  0  0  0
 17 39  1  0  0  0  0
 17 40  1  0  0  0  0
 18 19  1  0  0  0  0
 18 41  1  0  0  0  0
 18 42  1  0  0  0  0
 19 20  2  0  0  0  0
 19 21  1  0  0  0  0
 21 22  1  0  0  0  0
 21 43  1  0  0  0  0
 22 23  1  0  0  0  0
 22 44  1  0  0  0  0
 22 45  1  0  0  0  0
 23 24  1  0  0  0  0
 23 46  1  0  0  0  0
 23 47  1  0  0  0  0
 24 25  1  0  0  0  0
 24 48  1  0  0  0  0
 24 49  1  0  0  0  0
 25 50  1  0  0  0  0
 25 51  1  0  0  0  0
 25 52  1  0  0  0  0
M  END
$$$$
CHEMBL3354966
 OpenBabel12022418103D

 48 52  0  0  1  0  0  0  0  0999 V2000
    0.7823   -1.4764   -0.3091 C   0  0  0  0  0  0  0  0  0  0  0  0
   -0.6388   -1.8158   -0.7399 C   0  0  0  0  0  0  0  0  0  0  0  0
   -0.6276   -2.6452   -1.9004 O   0  0  0  0  0  0  0  0  0  0  0  0
   -0.0350   -1.9929   -3.0219 C   0  0  0  0  0  0  0  0  0  0  0  0
    1.4254   -1.6577   -2.7431 C   0  0  0  0  0  0  0  0  0  0  0  0
    1.5594   -0.8281   -1.4609 C   0  0  0  0  0  0  0  0  0  0  0  0
    3.0198   -0.5460   -1.0940 C   0  0  0  0  0  0  0  0  0  0  0  0
    3.8234   -1.7068   -0.7777 N   0  0  0  0  0  0  0  0  0  0  0  0
    5.1468   -1.5535   -0.4180 C   0  0  0  0  0  0  0  0  0  0  0  0
    5.7035   -0.4564   -0.4100 O   0  0  0  0  0  0  0  0  0  0  0  0
    5.8547   -2.7857   -0.0334 C   0  0  0  0  0  0  0  0  0  0  0  0
    7.1946   -2.8543    0.3711 C   0  0  0  0  0  0  0  0  0  0  0  0
    7.4222   -4.1613    0.6837 C   0  0  0  0  0  0  0  0  0  0  0  0
    8.7648   -4.3307    1.3585 C   0  0  2  0  0  0  0  0  0  0  0  0
    9.2845   -2.8763    1.4446 C   0  0  2  0  0  0  0  0  0  0  0  0
    8.3077   -1.9365    0.7131 C   0  0  0  0  0  0  0  0  0  0  0  0
   10.0467   -3.9111    0.6810 C   0  0  0  0  0  0  0  0  0  0  0  0
    6.2697   -4.8606    0.4809 N   0  0  0  0  0  0  0  0  0  0  0  0
    6.1061   -6.2653    0.5877 C   0  0  0  0  0  0  0  0  0  0  0  0
    4.8403   -6.8411    0.7172 C   0  0  0  0  0  0  0  0  0  0  0  0
    4.6965   -8.2268    0.8007 C   0  0  0  0  0  0  0  0  0  0  0  0
    5.8189   -9.0406    0.7362 C   0  0  0  0  0  0  0  0  0  0  0  0
    7.0885   -8.4922    0.6053 C   0  0  0  0  0  0  0  0  0  0  0  0
    7.2352   -7.1060    0.5351 C   0  0  0  0  0  0  0  0  0  0  0  0
    5.6835  -10.3703    0.7989 F   0  0  0  0  0  0  0  0  0  0  0  0
    3.7328   -6.0949    0.8276 F   0  0  0  0  0  0  0  0  0  0  0  0
    5.2769   -4.0141    0.0375 N   0  0  0  0  0  0  0  0  0  0  0  0
    0.7588   -0.8081    0.5592 H   0  0  0  0  0  0  0  0  0  0  0  0
    1.2833   -2.4012   -0.0009 H   0  0  0  0  0  0  0  0  0  0  0  0
   -1.2239   -0.9107   -0.9422 H   0  0  0  0  0  0  0  0  0  0  0  0
   -1.1471   -2.3651    0.0590 H   0  0  0  0  0  0  0  0  0  0  0  0
   -0.6130   -1.0942   -3.2687 H   0  0  0  0  0  0  0  0  0  0  0  0
   -0.1024   -2.6723   -3.8774 H   0  0  0  0  0  0  0  0  0  0  0  0
    1.8497   -1.1142   -3.5950 H   0  0  0  0  0  0  0  0  0  0  0  0
    1.9860   -2.5934   -2.6356 H   0  0  0  0  0  0  0  0  0  0  0  0
    1.0910    0.1476   -1.6581 H   0  0  0  0  0  0  0  0  0  0  0  0
    3.0575    0.1255   -0.2269 H   0  0  0  0  0  0  0  0  0  0  0  0
    3.5137   -0.0182   -1.9195 H   0  0  0  0  0  0  0  0  0  0  0  0
    3.4418   -2.6472   -0.7151 H   0  0  0  0  0  0  0  0  0  0  0  0
    8.8668   -5.0597    2.1501 H   0  0  0  0  0  0  0  0  0  0  0  0
    9.6518   -2.5059    2.3895 H   0  0  0  0  0  0  0  0  0  0  0  0
    7.9788   -1.1340    1.3787 H   0  0  0  0  0  0  0  0  0  0  0  0
    8.7725   -1.5137   -0.1828 H   0  0  0  0  0  0  0  0  0  0  0  0
   10.0633   -3.8661   -0.4026 H   0  0  0  0  0  0  0  0  0  0  0  0
   10.9785   -4.2665    1.1091 H   0  0  0  0  0  0  0  0  0  0  0  0
    3.7138   -8.6684    0.9190 H   0  0  0  0  0  0  0  0  0  0  0  0
    7.9525   -9.1460    0.5431 H   0  0  0  0  0  0  0  0  0  0  0  0
    8.2384   -6.7118    0.3889 H   0  0  0  0  0  0  0  0  0  0  0  0
  1  6  1  0  0  0  0
  1  2  1  0  0  0  0
  1 28  1  0  0  0  0
  1 29  1  0  0  0  0
  2  3  1  0  0  0  0
  2 30  1  0  0  0  0
  2 31  1  0  0  0  0
  3  4  1  0  0  0  0
  4  5  1  0  0  0  0
  4 32  1  0  0  0  0
  4 33  1  0  0  0  0
  5  6  1  0  0  0  0
  5 34  1  0  0  0  0
  5 35  1  0  0  0  0
  6  7  1  0  0  0  0
  6 36  1  0  0  0  0
  7  8  1  0  0  0  0
  7 37  1  0  0  0  0
  7 38  1  0  0  0  0
  8  9  1  0  0  0  0
  8 39  1  0  0  0  0
  9 10  2  0  0  0  0
  9 11  1  0  0  0  0
 11 27  2  0  0  0  0
 11 12  1  0  0  0  0
 12 16  1  0  0  0  0
 12 13  2  0  0  0  0
 13 14  1  0  0  0  0
 13 18  1  0  0  0  0
 14 15  1  0  0  0  0
 14 17  1  0  0  0  0
 14 40  1  1  0  0  0
 15 16  1  0  0  0  0
 15 17  1  0  0  0  0
 15 41  1  1  0  0  0
 16 42  1  0  0  0  0
 16 43  1  0  0  0  0
 17 44  1  0  0  0  0
 17 45  1  0  0  0  0
 18 27  1  0  0  0  0
 18 19  1  0  0  0  0
 19 24  2  0  0  0  0
 19 20  1  0  0  0  0
 20 21  2  0  0  0  0
 20 26  1  0  0  0  0
 21 22  1  0  0  0  0
 21 46  1  0  0  0  0
 22 23  2  0  0  0  0
 22 25  1  0  0  0  0
 23 24  1  0  0  0  0
 23 47  1  0  0  0  0
 24 48  1  0  0  0  0
M  END
$$$$
CHEMBL3357365
 OpenBabel12022418103D

 55 58  0  0  0  0  0  0  0  0999 V2000
    1.2539   -0.3385    0.1572 O   0  0  0  0  0  0  0  0  0  0  0  0
    2.6621   -0.3226   -0.1880 S   0  0  0  0  0  0  0  0  0  0  0  0
    3.0920   -0.9378   -1.4295 O   0  0  0  0  0  0  0  0  0  0  0  0
    3.1224    1.4031   -0.3022 C   0  0  0  0  0  0  0  0  0  0  0  0
    2.3580    2.3529    0.3780 C   0  0  0  0  0  0  0  0  0  0  0  0
    2.6714    3.7118    0.2901 C   0  0  0  0  0  0  0  0  0  0  0  0
    3.7741    4.0650   -0.4997 C   0  0  0  0  0  0  0  0  0  0  0  0
    4.5715    3.1229   -1.1417 C   0  0  0  0  0  0  0  0  0  0  0  0
    4.2362    1.7616   -1.0744 C   0  0  0  0  0  0  0  0  0  0  0  0
    5.6322    3.7279   -1.7612 N   0  0  0  0  0  0  0  0  0  0  0  0
    5.4968    5.0204   -1.5368 C   0  0  0  0  0  0  0  0  0  0  0  0
    6.4470    6.0715   -2.0477 C   0  0  0  0  0  0  0  0  0  0  0  0
    7.7175    6.3349   -1.1880 C   0  0  0  0  0  0  0  0  0  0  0  0
    8.5660    5.0574   -1.0180 C   0  0  0  0  0  0  0  0  0  0  0  0
    8.5540    7.4112   -1.9228 C   0  0  0  0  0  0  0  0  0  0  0  0
    7.3806    6.8840    0.2107 C   0  0  0  0  0  0  0  0  0  0  0  0
    4.3226    5.2792   -0.8622 N   0  0  0  0  0  0  0  0  0  0  0  0
    3.7841    6.5831   -0.4993 C   0  0  0  0  0  0  0  0  0  0  0  0
    2.8167    7.2196   -1.4526 C   0  0  0  0  0  0  0  0  0  0  0  0
    2.6068    6.8291   -2.8957 C   0  0  0  0  0  0  0  0  0  0  0  0
    1.5341    6.5431   -1.8779 C   0  0  0  0  0  0  0  0  0  0  0  0
    3.6287   -0.9840    1.1402 C   0  0  0  0  0  0  0  0  0  0  0  0
    3.2504   -0.5208    2.5553 C   0  0  0  0  0  0  0  0  0  0  0  0
    3.3988   -1.9199    3.0295 N   0  0  0  0  0  0  0  0  0  0  0  0
    3.2316   -2.3825    1.6260 C   0  0  0  0  0  0  0  0  0  0  0  0
    4.7620   -2.1683    3.5056 C   0  0  0  0  0  0  0  0  0  0  0  0
    1.5005    2.0488    0.9759 H   0  0  0  0  0  0  0  0  0  0  0  0
    2.0733    4.4533    0.8074 H   0  0  0  0  0  0  0  0  0  0  0  0
    4.8351    1.0301   -1.6067 H   0  0  0  0  0  0  0  0  0  0  0  0
    5.9137    7.0137   -2.2217 H   0  0  0  0  0  0  0  0  0  0  0  0
    6.7705    5.7368   -3.0445 H   0  0  0  0  0  0  0  0  0  0  0  0
    8.5232    4.4180   -1.9055 H   0  0  0  0  0  0  0  0  0  0  0  0
    8.2265    4.4633   -0.1614 H   0  0  0  0  0  0  0  0  0  0  0  0
    9.6208    5.2950   -0.8366 H   0  0  0  0  0  0  0  0  0  0  0  0
    8.5349    7.2664   -3.0086 H   0  0  0  0  0  0  0  0  0  0  0  0
    9.6031    7.4022   -1.6078 H   0  0  0  0  0  0  0  0  0  0  0  0
    8.1655    8.4168   -1.7221 H   0  0  0  0  0  0  0  0  0  0  0  0
    6.8091    6.1634    0.8050 H   0  0  0  0  0  0  0  0  0  0  0  0
    6.7960    7.8079    0.1459 H   0  0  0  0  0  0  0  0  0  0  0  0
    8.2953    7.1176    0.7689 H   0  0  0  0  0  0  0  0  0  0  0  0
    4.6312    7.2582   -0.3588 H   0  0  0  0  0  0  0  0  0  0  0  0
    3.3151    6.4827    0.4859 H   0  0  0  0  0  0  0  0  0  0  0  0
    2.7263    8.2842   -1.2192 H   0  0  0  0  0  0  0  0  0  0  0  0
    3.1297    5.9792   -3.3172 H   0  0  0  0  0  0  0  0  0  0  0  0
    2.4015    7.6158   -3.6167 H   0  0  0  0  0  0  0  0  0  0  0  0
    0.6297    7.1422   -1.9122 H   0  0  0  0  0  0  0  0  0  0  0  0
    1.3554    5.5040   -1.6286 H   0  0  0  0  0  0  0  0  0  0  0  0
    4.6999   -0.8915    0.9221 H   0  0  0  0  0  0  0  0  0  0  0  0
    2.2244   -0.1503    2.6702 H   0  0  0  0  0  0  0  0  0  0  0  0
    3.9208    0.2191    3.0059 H   0  0  0  0  0  0  0  0  0  0  0  0
    3.8830   -3.2007    1.3041 H   0  0  0  0  0  0  0  0  0  0  0  0
    2.1960   -2.6751    1.4055 H   0  0  0  0  0  0  0  0  0  0  0  0
    4.8814   -1.7457    4.5088 H   0  0  0  0  0  0  0  0  0  0  0  0
    5.5454   -1.7407    2.8690 H   0  0  0  0  0  0  0  0  0  0  0  0
    4.9429   -3.2456    3.5828 H   0  0  0  0  0  0  0  0  0  0  0  0
  1  2  2  0  0  0  0
  2  3  2  0  0  0  0
  2  4  1  0  0  0  0
  2 22  1  0  0  0  0
  4  9  2  0  0  0  0
  4  5  1  0  0  0  0
  5  6  2  0  0  0  0
  5 27  1  0  0  0  0
  6  7  1  0  0  0  0
  6 28  1  0  0  0  0
  7 17  1  0  0  0  0
  7  8  2  0  0  0  0
  8  9  1  0  0  0  0
  8 10  1  0  0  0  0
  9 29  1  0  0  0  0
 10 11  2  0  0  0  0
 11 12  1  0  0  0  0
 11 17  1  0  0  0  0
 12 13  1  0  0  0  0
 12 30  1  0  0  0  0
 12 31  1  0  0  0  0
 13 14  1  0  0  0  0
 13 15  1  0  0  0  0
 13 16  1  0  0  0  0
 14 32  1  0  0  0  0
 14 33  1  0  0  0  0
 14 34  1  0  0  0  0
 15 35  1  0  0  0  0
 15 36  1  0  0  0  0
 15 37  1  0  0  0  0
 16 38  1  0  0  0  0
 16 39  1  0  0  0  0
 16 40  1  0  0  0  0
 17 18  1  0  0  0  0
 18 19  1  0  0  0  0
 18 41  1  0  0  0  0
 18 42  1  0  0  0  0
 19 21  1  0  0  0  0
 19 20  1  0  0  0  0
 19 43  1  0  0  0  0
 20 21  1  0  0  0  0
 20 44  1  0  0  0  0
 20 45  1  0  0  0  0
 21 46  1  0  0  0  0
 21 47  1  0  0  0  0
 22 25  1  0  0  0  0
 22 23  1  0  0  0  0
 22 48  1  0  0  0  0
 23 24  1  0  0  0  0
 23 49  1  0  0  0  0
 23 50  1  0  0  0  0
 24 25  1  0  0  0  0
 24 26  1  0  0  0  0
 25 51  1  0  0  0  0
 25 52  1  0  0  0  0
 26 53  1  0  0  0  0
 26 54  1  0  0  0  0
 26 55  1  0  0  0  0
M  END
$$$$
CHEMBL3354949
 OpenBabel12022418103D

 49 53  0  0  1  0  0  0  0  0999 V2000
    4.5041    1.6293   -0.9391 C   0  0  0  0  0  0  0  0  0  0  0  0
    3.2736    0.7670   -1.3028 C   0  0  0  0  0  0  0  0  0  0  0  0
    2.3949    0.5308   -0.0555 C   0  0  0  0  0  0  0  0  0  0  0  0
    2.4449    1.5550   -2.3491 C   0  0  0  0  0  0  0  0  0  0  0  0
    1.9357    2.8277   -2.0518 C   0  0  0  0  0  0  0  0  0  0  0  0
    1.2407    3.5394   -3.0262 C   0  0  0  0  0  0  0  0  0  0  0  0
    1.0551    2.9682   -4.2751 C   0  0  0  0  0  0  0  0  0  0  0  0
    1.5723    1.7021   -4.4955 C   0  0  0  0  0  0  0  0  0  0  0  0
    2.2581    0.9869   -3.5715 N   0  0  0  0  0  0  0  0  0  0  0  0
    3.7141   -0.5322   -1.8625 N   0  0  0  0  0  0  0  0  0  0  0  0
    4.5118   -1.4255   -1.1830 C   0  0  0  0  0  0  0  0  0  0  0  0
    4.9220   -1.2137   -0.0406 O   0  0  0  0  0  0  0  0  0  0  0  0
    4.8803   -2.6730   -1.8810 C   0  0  0  0  0  0  0  0  0  0  0  0
    5.7471   -3.6440   -1.3393 C   0  0  0  0  0  0  0  0  0  0  0  0
    5.8533   -4.6113   -2.2901 C   0  0  0  0  0  0  0  0  0  0  0  0
    6.9697   -5.5767   -1.9727 C   0  0  1  0  0  0  0  0  0  0  0  0
    7.5527   -4.9962   -0.6636 C   0  0  1  0  0  0  0  0  0  0  0  0
    6.6842   -3.8066   -0.2020 C   0  0  0  0  0  0  0  0  0  0  0  0
    6.9860   -6.3792   -0.6978 C   0  0  0  0  0  0  0  0  0  0  0  0
    5.0898   -4.2582   -3.3543 N   0  0  0  0  0  0  0  0  0  0  0  0
    4.9334   -5.0098   -4.5414 C   0  0  0  0  0  0  0  0  0  0  0  0
    4.7544   -4.3671   -5.7696 C   0  0  0  0  0  0  0  0  0  0  0  0
    4.7453   -5.1332   -6.9418 C   0  0  0  0  0  0  0  0  0  0  0  0
    4.8645   -6.5210   -6.8729 C   0  0  0  0  0  0  0  0  0  0  0  0
    4.9832   -7.1696   -5.6553 C   0  0  0  0  0  0  0  0  0  0  0  0
    5.0212   -6.4086   -4.4948 C   0  0  0  0  0  0  0  0  0  0  0  0
    5.0827   -7.0700   -3.3301 F   0  0  0  0  0  0  0  0  0  0  0  0
    4.8649   -7.2428   -8.0010 F   0  0  0  0  0  0  0  0  0  0  0  0
    4.5127   -3.0213   -3.1469 N   0  0  0  0  0  0  0  0  0  0  0  0
    4.2201    2.6038   -0.5261 H   0  0  0  0  0  0  0  0  0  0  0  0
    5.1255    1.8151   -1.8236 H   0  0  0  0  0  0  0  0  0  0  0  0
    5.1407    1.1560   -0.1867 H   0  0  0  0  0  0  0  0  0  0  0  0
    2.0960    1.4703    0.4230 H   0  0  0  0  0  0  0  0  0  0  0  0
    2.9112   -0.0556    0.7106 H   0  0  0  0  0  0  0  0  0  0  0  0
    1.4793   -0.0135   -0.3165 H   0  0  0  0  0  0  0  0  0  0  0  0
    2.0841    3.2812   -1.0764 H   0  0  0  0  0  0  0  0  0  0  0  0
    0.8559    4.5326   -2.8102 H   0  0  0  0  0  0  0  0  0  0  0  0
    0.5229    3.4973   -5.0577 H   0  0  0  0  0  0  0  0  0  0  0  0
    1.4481    1.2149   -5.4581 H   0  0  0  0  0  0  0  0  0  0  0  0
    3.3919   -0.7739   -2.7957 H   0  0  0  0  0  0  0  0  0  0  0  0
    7.5594   -5.9772   -2.7853 H   0  0  0  0  0  0  0  0  0  0  0  0
    8.6180   -4.8364   -0.5964 H   0  0  0  0  0  0  0  0  0  0  0  0
    6.1602   -4.0490    0.7271 H   0  0  0  0  0  0  0  0  0  0  0  0
    7.3047   -2.9168   -0.0631 H   0  0  0  0  0  0  0  0  0  0  0  0
    7.6777   -7.2140   -0.6529 H   0  0  0  0  0  0  0  0  0  0  0  0
    6.0356   -6.5833   -0.2181 H   0  0  0  0  0  0  0  0  0  0  0  0
    4.6895   -3.2830   -5.8321 H   0  0  0  0  0  0  0  0  0  0  0  0
    4.6631   -4.6571   -7.9143 H   0  0  0  0  0  0  0  0  0  0  0  0
    5.0478   -8.2506   -5.6036 H   0  0  0  0  0  0  0  0  0  0  0  0
  1  2  1  0  0  0  0
  1 30  1  0  0  0  0
  1 31  1  0  0  0  0
  1 32  1  0  0  0  0
  2  3  1  0  0  0  0
  2  4  1  0  0  0  0
  2 10  1  0  0  0  0
  3 33  1  0  0  0  0
  3 34  1  0  0  0  0
  3 35  1  0  0  0  0
  4  9  2  0  0  0  0
  4  5  1  0  0  0  0
  5  6  2  0  0  0  0
  5 36  1  0  0  0  0
  6  7  1  0  0  0  0
  6 37  1  0  0  0  0
  7  8  2  0  0  0  0
  7 38  1  0  0  0  0
  8  9  1  0  0  0  0
  8 39  1  0  0  0  0
 10 11  1  0  0  0  0
 10 40  1  0  0  0  0
 11 12  2  0  0  0  0
 11 13  1  0  0  0  0
 13 29  2  0  0  0  0
 13 14  1  0  0  0  0
 14 18  1  0  0  0  0
 14 15  2  0  0  0  0
 15 16  1  0  0  0  0
 15 20  1  0  0  0  0
 16 17  1  0  0  0  0
 16 19  1  0  0  0  0
 16 41  1  6  0  0  0
 17 18  1  0  0  0  0
 17 19  1  0  0  0  0
 17 42  1  1  0  0  0
 18 43  1  0  0  0  0
 18 44  1  0  0  0  0
 19 45  1  0  0  0  0
 19 46  1  0  0  0  0
 20 21  1  0  0  0  0
 20 29  1  0  0  0  0
 21 26  2  0  0  0  0
 21 22  1  0  0  0  0
 22 23  2  0  0  0  0
 22 47  1  0  0  0  0
 23 24  1  0  0  0  0
 23 48  1  0  0  0  0
 24 25  2  0  0  0  0
 24 28  1  0  0  0  0
 25 26  1  0  0  0  0
 25 49  1  0  0  0  0
 26 27  1  0  0  0  0
M  END
$$$$
CHEMBL3354951
 OpenBabel12022418103D

 43 46  0  0  1  0  0  0  0  0999 V2000
    2.0192    0.3544   -2.2435 C   0  0  0  0  0  0  0  0  0  0  0  0
    2.9953    0.1026   -1.0802 C   0  0  0  0  0  0  0  0  0  0  0  0
    4.0989    1.1780   -1.1541 C   0  0  0  0  0  0  0  0  0  0  0  0
    2.2167    0.2712    0.2472 C   0  0  0  0  0  0  0  0  0  0  0  0
    1.1759   -0.6087    0.2820 F   0  0  0  0  0  0  0  0  0  0  0  0
    3.5755   -1.2541   -1.2202 N   0  0  0  0  0  0  0  0  0  0  0  0
    4.4784   -1.7807   -0.3184 C   0  0  0  0  0  0  0  0  0  0  0  0
    4.9049   -1.1310    0.6348 O   0  0  0  0  0  0  0  0  0  0  0  0
    4.9223   -3.1703   -0.5455 C   0  0  0  0  0  0  0  0  0  0  0  0
    5.9133   -3.8014    0.2251 C   0  0  0  0  0  0  0  0  0  0  0  0
    6.0579   -5.0463   -0.3017 C   0  0  0  0  0  0  0  0  0  0  0  0
    7.2862   -5.7349    0.2419 C   0  0  1  0  0  0  0  0  0  0  0  0
    7.8911   -4.6550    1.1697 C   0  0  1  0  0  0  0  0  0  0  0  0
    6.9351   -3.4476    1.2403 C   0  0  0  0  0  0  0  0  0  0  0  0
    7.4724   -5.9809    1.7169 C   0  0  0  0  0  0  0  0  0  0  0  0
    5.1935   -5.1823   -1.3399 N   0  0  0  0  0  0  0  0  0  0  0  0
    5.0392   -6.3421   -2.1306 C   0  0  0  0  0  0  0  0  0  0  0  0
    4.7094   -6.2505   -3.4888 C   0  0  0  0  0  0  0  0  0  0  0  0
    4.7067   -7.4127   -4.2716 C   0  0  0  0  0  0  0  0  0  0  0  0
    4.9796   -8.6518   -3.6906 C   0  0  0  0  0  0  0  0  0  0  0  0
    5.2445   -8.7602   -2.3371 C   0  0  0  0  0  0  0  0  0  0  0  0
    5.2760   -7.6060   -1.5685 C   0  0  0  0  0  0  0  0  0  0  0  0
    5.4801   -7.7556   -0.2505 F   0  0  0  0  0  0  0  0  0  0  0  0
    4.9880   -9.7533   -4.4520 F   0  0  0  0  0  0  0  0  0  0  0  0
    4.5124   -3.9933   -1.5563 N   0  0  0  0  0  0  0  0  0  0  0  0
    1.5845    1.3600   -2.1834 H   0  0  0  0  0  0  0  0  0  0  0  0
    1.1938   -0.3657   -2.2351 H   0  0  0  0  0  0  0  0  0  0  0  0
    2.5241    0.2667   -3.2118 H   0  0  0  0  0  0  0  0  0  0  0  0
    3.6722    2.1872   -1.1083 H   0  0  0  0  0  0  0  0  0  0  0  0
    4.6667    1.0958   -2.0876 H   0  0  0  0  0  0  0  0  0  0  0  0
    4.8140    1.0995   -0.3295 H   0  0  0  0  0  0  0  0  0  0  0  0
    1.7955    1.2791    0.3357 H   0  0  0  0  0  0  0  0  0  0  0  0
    2.8322    0.0903    1.1319 H   0  0  0  0  0  0  0  0  0  0  0  0
    3.2124   -1.9026   -1.9122 H   0  0  0  0  0  0  0  0  0  0  0  0
    7.8582   -6.3752   -0.4149 H   0  0  0  0  0  0  0  0  0  0  0  0
    8.9347   -4.4039    1.0577 H   0  0  0  0  0  0  0  0  0  0  0  0
    6.4992   -3.3541    2.2387 H   0  0  0  0  0  0  0  0  0  0  0  0
    7.4628   -2.5279    0.9727 H   0  0  0  0  0  0  0  0  0  0  0  0
    8.2506   -6.6806    2.0031 H   0  0  0  0  0  0  0  0  0  0  0  0
    6.5831   -6.0511    2.3328 H   0  0  0  0  0  0  0  0  0  0  0  0
    4.5246   -5.2854   -3.9557 H   0  0  0  0  0  0  0  0  0  0  0  0
    4.5123   -7.3628   -5.3389 H   0  0  0  0  0  0  0  0  0  0  0  0
    5.4294   -9.7291   -1.8824 H   0  0  0  0  0  0  0  0  0  0  0  0
  1  2  1  0  0  0  0
  1 26  1  0  0  0  0
  1 27  1  0  0  0  0
  1 28  1  0  0  0  0
  2  3  1  0  0  0  0
  2  4  1  0  0  0  0
  2  6  1  0  0  0  0
  3 29  1  0  0  0  0
  3 30  1  0  0  0  0
  3 31  1  0  0  0  0
  4  5  1  0  0  0  0
  4 32  1  0  0  0  0
  4 33  1  0  0  0  0
  6  7  1  0  0  0  0
  6 34  1  0  0  0  0
  7  8  2  0  0  0  0
  7  9  1  0  0  0  0
  9 25  2  0  0  0  0
  9 10  1  0  0  0  0
 10 14  1  0  0  0  0
 10 11  2  0  0  0  0
 11 12  1  0  0  0  0
 11 16  1  0  0  0  0
 12 13  1  0  0  0  0
 12 15  1  0  0  0  0
 12 35  1  6  0  0  0
 13 14  1  0  0  0  0
 13 15  1  0  0  0  0
 13 36  1  6  0  0  0
 14 37  1  0  0  0  0
 14 38  1  0  0  0  0
 15 39  1  0  0  0  0
 15 40  1  0  0  0  0
 16 17  1  0  0  0  0
 16 25  1  0  0  0  0
 17 22  2  0  0  0  0
 17 18  1  0  0  0  0
 18 19  2  0  0  0  0
 18 41  1  0  0  0  0
 19 20  1  0  0  0  0
 19 42  1  0  0  0  0
 20 21  2  0  0  0  0
 20 24  1  0  0  0  0
 21 22  1  0  0  0  0
 21 43  1  0  0  0  0
 22 23  1  0  0  0  0
M  END
$$$$
CHEMBL3910469
 OpenBabel12022418103D

 53 55  0  0  0  0  0  0  0  0999 V2000
    4.9022   -0.2383   -2.8668 C   0  0  0  0  0  0  0  0  0  0  0  0
    3.9842   -1.4034   -3.2137 C   0  0  0  0  0  0  0  0  0  0  0  0
    2.5120   -1.3184   -3.1673 N   0  0  0  0  0  0  0  0  0  0  0  0
    1.8688   -0.1529   -2.6319 C   0  0  0  0  0  0  0  0  0  0  0  0
    2.5274    0.8560   -2.3183 O   0  0  0  0  0  0  0  0  0  0  0  0
    0.3731   -0.0295   -2.3683 C   0  0  0  0  0  0  0  0  0  0  0  0
   -0.1543    1.0854   -1.7366 C   0  0  0  0  0  0  0  0  0  0  0  0
   -1.5230    1.0976   -1.4250 C   0  0  0  0  0  0  0  0  0  0  0  0
   -2.3759    0.0151   -1.7339 C   0  0  0  0  0  0  0  0  0  0  0  0
   -1.7719   -1.0046   -2.4722 C   0  0  0  0  0  0  0  0  0  0  0  0
   -0.4467   -1.0305   -2.7400 N   0  0  0  0  0  0  0  0  0  0  0  0
   -2.3684   -2.1403   -2.9562 O   0  0  0  0  0  0  0  0  0  0  0  0
   -3.5966   -1.9617   -3.6465 C   0  0  0  0  0  0  0  0  0  0  0  0
   -3.4990   -2.2845   -5.1057 C   0  0  0  0  0  0  0  0  0  0  0  0
   -4.3025   -1.4250   -6.0525 C   0  0  0  0  0  0  0  0  0  0  0  0
   -2.8012   -1.3775   -6.0760 C   0  0  0  0  0  0  0  0  0  0  0  0
   -3.7178    0.0386   -1.2747 N   0  0  0  0  0  0  0  0  0  0  0  0
   -4.2740    0.8169   -0.2088 C   0  0  0  0  0  0  0  0  0  0  0  0
   -5.1222   -0.3886    0.2143 C   0  0  0  0  0  0  0  0  0  0  0  0
   -4.6395   -1.0476   -1.0719 C   0  0  0  0  0  0  0  0  0  0  0  0
   -6.4575   -0.1820    0.3077 F   0  0  0  0  0  0  0  0  0  0  0  0
   -4.7474   -1.0119    1.3578 F   0  0  0  0  0  0  0  0  0  0  0  0
    1.7808   -2.5827   -3.6057 C   0  0  0  0  0  0  0  0  0  0  0  0
    2.7249   -3.6923   -4.1858 C   0  0  0  0  0  0  0  0  0  0  0  0
    1.1384   -3.2962   -2.3876 C   0  0  0  0  0  0  0  0  0  0  0  0
    0.8561   -2.2963   -4.8190 C   0  0  0  0  0  0  0  0  0  0  0  0
    5.9435   -0.5806   -2.9349 H   0  0  0  0  0  0  0  0  0  0  0  0
    4.7568    0.1215   -1.8456 H   0  0  0  0  0  0  0  0  0  0  0  0
    4.7888    0.5876   -3.5741 H   0  0  0  0  0  0  0  0  0  0  0  0
    4.2655   -2.2290   -2.5515 H   0  0  0  0  0  0  0  0  0  0  0  0
    4.2485   -1.6752   -4.2397 H   0  0  0  0  0  0  0  0  0  0  0  0
    0.4784    1.9238   -1.4593 H   0  0  0  0  0  0  0  0  0  0  0  0
   -1.9187    1.9739   -0.9102 H   0  0  0  0  0  0  0  0  0  0  0  0
   -3.9982   -0.9512   -3.5562 H   0  0  0  0  0  0  0  0  0  0  0  0
   -4.3125   -2.6647   -3.2104 H   0  0  0  0  0  0  0  0  0  0  0  0
   -3.4658   -3.3530   -5.2878 H   0  0  0  0  0  0  0  0  0  0  0  0
   -4.8220   -0.5562   -5.6620 H   0  0  0  0  0  0  0  0  0  0  0  0
   -4.8243   -1.9104   -6.8690 H   0  0  0  0  0  0  0  0  0  0  0  0
   -2.2971   -1.8322   -6.9230 H   0  0  0  0  0  0  0  0  0  0  0  0
   -2.2979   -0.5030   -5.6788 H   0  0  0  0  0  0  0  0  0  0  0  0
   -4.8418    1.6702   -0.5921 H   0  0  0  0  0  0  0  0  0  0  0  0
   -3.5550    1.1385    0.5480 H   0  0  0  0  0  0  0  0  0  0  0  0
   -4.1816   -2.0282   -0.9360 H   0  0  0  0  0  0  0  0  0  0  0  0
   -5.4153   -1.0769   -1.8462 H   0  0  0  0  0  0  0  0  0  0  0  0
    3.4550   -4.0481   -3.4509 H   0  0  0  0  0  0  0  0  0  0  0  0
    3.2724   -3.3490   -5.0703 H   0  0  0  0  0  0  0  0  0  0  0  0
    2.1384   -4.5660   -4.4974 H   0  0  0  0  0  0  0  0  0  0  0  0
    1.9108   -3.7991   -1.7900 H   0  0  0  0  0  0  0  0  0  0  0  0
    0.4206   -4.0588   -2.7072 H   0  0  0  0  0  0  0  0  0  0  0  0
    0.6475   -2.6494   -1.6624 H   0  0  0  0  0  0  0  0  0  0  0  0
    1.4616   -2.0948   -5.7138 H   0  0  0  0  0  0  0  0  0  0  0  0
    0.2188   -1.4196   -4.7538 H   0  0  0  0  0  0  0  0  0  0  0  0
    0.2170   -3.1595   -5.0388 H   0  0  0  0  0  0  0  0  0  0  0  0
  1  2  1  0  0  0  0
  1 27  1  0  0  0  0
  1 28  1  0  0  0  0
  1 29  1  0  0  0  0
  2  3  1  0  0  0  0
  2 30  1  0  0  0  0
  2 31  1  0  0  0  0
  3  4  1  0  0  0  0
  3 23  1  0  0  0  0
  4  5  2  0  0  0  0
  4  6  1  0  0  0  0
  6 11  2  0  0  0  0
  6  7  1  0  0  0  0
  7  8  2  0  0  0  0
  7 32  1  0  0  0  0
  8  9  1  0  0  0  0
  8 33  1  0  0  0  0
  9 10  2  0  0  0  0
  9 17  1  0  0  0  0
 10 11  1  0  0  0  0
 10 12  1  0  0  0  0
 12 13  1  0  0  0  0
 13 14  1  0  0  0  0
 13 34  1  0  0  0  0
 13 35  1  0  0  0  0
 14 16  1  0  0  0  0
 14 15  1  0  0  0  0
 14 36  1  0  0  0  0
 15 16  1  0  0  0  0
 15 37  1  0  0  0  0
 15 38  1  0  0  0  0
 16 39  1  0  0  0  0
 16 40  1  0  0  0  0
 17 20  1  0  0  0  0
 17 18  1  0  0  0  0
 18 19  1  0  0  0  0
 18 41  1  0  0  0  0
 18 42  1  0  0  0  0
 19 20  1  0  0  0  0
 19 21  1  0  0  0  0
 19 22  1  0  0  0  0
 20 43  1  0  0  0  0
 20 44  1  0  0  0  0
 23 24  1  0  0  0  0
 23 25  1  0  0  0  0
 23 26  1  0  0  0  0
 24 45  1  0  0  0  0
 24 46  1  0  0  0  0
 24 47  1  0  0  0  0
 25 48  1  0  0  0  0
 25 49  1  0  0  0  0
 25 50  1  0  0  0  0
 26 51  1  0  0  0  0
 26 52  1  0  0  0  0
 26 53  1  0  0  0  0
M  END
$$$$
CHEMBL4438072
 OpenBabel12022418103D

 49 52  0  0  0  0  0  0  0  0999 V2000
    4.9535   -1.9074    2.8772 C   0  0  0  0  0  0  0  0  0  0  0  0
    4.4744   -2.6102    1.6183 C   0  0  0  0  0  0  0  0  0  0  0  0
    5.0092   -1.9114    0.3689 C   0  0  0  0  0  0  0  0  0  0  0  0
    4.5426   -2.6134   -0.9068 C   0  0  0  0  0  0  0  0  0  0  0  0
    5.1177   -1.9812   -2.1836 C   0  0  0  0  0  0  0  0  0  0  0  0
    6.5745   -1.9654   -2.2545 N   0  0  0  0  0  0  0  0  0  0  0  0
    7.3472   -0.8262   -2.3173 C   0  0  0  0  0  0  0  0  0  0  0  0
    8.6890   -1.1818   -2.2734 C   0  0  0  0  0  0  0  0  0  0  0  0
    8.7080   -2.6249   -2.2153 C   0  0  0  0  0  0  0  0  0  0  0  0
    7.3884   -3.0784   -2.2509 C   0  0  0  0  0  0  0  0  0  0  0  0
    7.0769   -4.4521   -2.2668 C   0  0  0  0  0  0  0  0  0  0  0  0
    8.1038   -5.3844   -2.1904 C   0  0  0  0  0  0  0  0  0  0  0  0
    9.4182   -4.9573   -2.0964 C   0  0  0  0  0  0  0  0  0  0  0  0
    9.7309   -3.5933   -2.1201 C   0  0  0  0  0  0  0  0  0  0  0  0
   11.0117   -3.2480   -2.0172 F   0  0  0  0  0  0  0  0  0  0  0  0
    9.8673   -0.2802   -2.3300 C   0  0  0  0  0  0  0  0  0  0  0  0
   10.9282   -0.6634   -2.8119 O   0  0  0  0  0  0  0  0  0  0  0  0
    9.7771    1.1237   -1.7932 C   0  0  0  0  0  0  0  0  0  0  0  0
    8.9776    1.3480   -0.6612 C   0  0  0  0  0  0  0  0  0  0  0  0
    8.7797    2.6340   -0.1631 C   0  0  0  0  0  0  0  0  0  0  0  0
    9.2901    3.7208   -0.8574 C   0  0  0  0  0  0  0  0  0  0  0  0
   10.0405    3.5312   -2.0210 C   0  0  0  0  0  0  0  0  0  0  0  0
   10.3317    4.6302   -2.8353 C   0  0  0  0  0  0  0  0  0  0  0  0
   11.0449    4.4560   -4.0130 C   0  0  0  0  0  0  0  0  0  0  0  0
   11.7657    3.2903   -4.1969 C   0  0  0  0  0  0  0  0  0  0  0  0
   11.4233    2.1688   -3.4421 C   0  0  0  0  0  0  0  0  0  0  0  0
   10.4267    2.2380   -2.4184 C   0  0  0  0  0  0  0  0  0  0  0  0
    4.5650   -2.4108    3.7679 H   0  0  0  0  0  0  0  0  0  0  0  0
    4.6123   -0.8669    2.8964 H   0  0  0  0  0  0  0  0  0  0  0  0
    6.0468   -1.9100    2.9343 H   0  0  0  0  0  0  0  0  0  0  0  0
    3.3789   -2.6262    1.6023 H   0  0  0  0  0  0  0  0  0  0  0  0
    4.8146   -3.6529    1.6384 H   0  0  0  0  0  0  0  0  0  0  0  0
    6.1042   -1.9022    0.4150 H   0  0  0  0  0  0  0  0  0  0  0  0
    4.6750   -0.8677    0.3529 H   0  0  0  0  0  0  0  0  0  0  0  0
    3.4469   -2.5802   -0.9617 H   0  0  0  0  0  0  0  0  0  0  0  0
    4.8082   -3.6739   -0.8484 H   0  0  0  0  0  0  0  0  0  0  0  0
    4.7638   -0.9479   -2.2754 H   0  0  0  0  0  0  0  0  0  0  0  0
    4.7654   -2.5272   -3.0666 H   0  0  0  0  0  0  0  0  0  0  0  0
    6.8776    0.1471   -2.3865 H   0  0  0  0  0  0  0  0  0  0  0  0
    6.0468   -4.7994   -2.3505 H   0  0  0  0  0  0  0  0  0  0  0  0
    7.8794   -6.4405   -2.2002 H   0  0  0  0  0  0  0  0  0  0  0  0
   10.2234   -5.6802   -2.0166 H   0  0  0  0  0  0  0  0  0  0  0  0
    8.4965    0.5193   -0.1512 H   0  0  0  0  0  0  0  0  0  0  0  0
    8.1810    2.7922    0.7283 H   0  0  0  0  0  0  0  0  0  0  0  0
    9.0791    4.7279   -0.4982 H   0  0  0  0  0  0  0  0  0  0  0  0
    9.9248    5.6128   -2.6069 H   0  0  0  0  0  0  0  0  0  0  0  0
   11.0094    5.2077   -4.7941 H   0  0  0  0  0  0  0  0  0  0  0  0
   12.5272    3.2317   -4.9709 H   0  0  0  0  0  0  0  0  0  0  0  0
   11.9275    1.2356   -3.6801 H   0  0  0  0  0  0  0  0  0  0  0  0
  1  2  1  0  0  0  0
  1 28  1  0  0  0  0
  1 29  1  0  0  0  0
  1 30  1  0  0  0  0
  2  3  1  0  0  0  0
  2 31  1  0  0  0  0
  2 32  1  0  0  0  0
  3  4  1  0  0  0  0
  3 33  1  0  0  0  0
  3 34  1  0  0  0  0
  4  5  1  0  0  0  0
  4 35  1  0  0  0  0
  4 36  1  0  0  0  0
  5  6  1  0  0  0  0
  5 37  1  0  0  0  0
  5 38  1  0  0  0  0
  6 10  1  0  0  0  0
  6  7  1  0  0  0  0
  7  8  2  0  0  0  0
  7 39  1  0  0  0  0
  8  9  1  0  0  0  0
  8 16  1  0  0  0  0
  9 14  2  0  0  0  0
  9 10  1  0  0  0  0
 10 11  2  0  0  0  0
 11 12  1  0  0  0  0
 11 40  1  0  0  0  0
 12 13  2  0  0  0  0
 12 41  1  0  0  0  0
 13 14  1  0  0  0  0
 13 42  1  0  0  0  0
 14 15  1  0  0  0  0
 16 17  2  0  0  0  0
 16 18  1  0  0  0  0
 18 27  2  0  0  0  0
 18 19  1  0  0  0  0
 19 20  2  0  0  0  0
 19 43  1  0  0  0  0
 20 21  1  0  0  0  0
 20 44  1  0  0  0  0
 21 22  2  0  0  0  0
 21 45  1  0  0  0  0
 22 27  1  0  0  0  0
 22 23  1  0  0  0  0
 23 24  2  0  0  0  0
 23 46  1  0  0  0  0
 24 25  1  0  0  0  0
 24 47  1  0  0  0  0
 25 26  2  0  0  0  0
 25 48  1  0  0  0  0
 26 27  1  0  0  0  0
 26 49  1  0  0  0  0
M  END
$$$$
CHEMBL4103902
 OpenBabel12022418103D

 63 67  0  0  1  0  0  0  0  0999 V2000
    0.0239    0.7985   -3.2687 C   0  0  0  0  0  0  0  0  0  0  0  0
    0.8905   -0.1793   -2.4266 C   0  0  2  0  0  0  0  0  0  0  0  0
    0.3203   -1.6104   -2.6797 C   0  0  0  0  0  0  0  0  0  0  0  0
   -1.1701   -1.6916   -2.2615 C   0  0  2  0  0  0  0  0  0  0  0  0
   -1.9892   -0.6816   -3.0817 C   0  0  0  0  0  0  0  0  0  0  0  0
   -1.4525    0.7364   -2.8435 C   0  0  1  0  0  0  0  0  0  0  0  0
   -1.5611    1.0801   -1.3482 C   0  0  0  0  0  0  0  0  0  0  0  0
   -0.7647    0.0659   -0.5112 C   0  0  2  0  0  0  0  0  0  0  0  0
    0.7118    0.1192   -0.9172 C   0  0  0  0  0  0  0  0  0  0  0  0
   -1.3063   -1.3465   -0.7691 C   0  0  0  0  0  0  0  0  0  0  0  0
    2.3212   -0.0886   -2.7946 N   0  0  0  0  0  0  0  0  0  0  0  0
    3.0503    1.0917   -2.6624 C   0  0  0  0  0  0  0  0  0  0  0  0
    2.5319    2.1356   -2.2780 O   0  0  0  0  0  0  0  0  0  0  0  0
    4.4725    1.0533   -3.0152 C   0  0  0  0  0  0  0  0  0  0  0  0
    5.3951    2.1636   -2.9411 C   0  0  0  0  0  0  0  0  0  0  0  0
    5.2767    3.5009   -2.4859 C   0  0  0  0  0  0  0  0  0  0  0  0
    6.3625    4.3770   -2.5599 C   0  0  0  0  0  0  0  0  0  0  0  0
    7.5753    3.9444   -3.0826 C   0  0  0  0  0  0  0  0  0  0  0  0
    7.7337    2.6284   -3.5376 C   0  0  0  0  0  0  0  0  0  0  0  0
    6.6265    1.7509   -3.4542 C   0  0  0  0  0  0  0  0  0  0  0  0
    6.4761    0.4298   -3.8306 N   0  0  0  0  0  0  0  0  0  0  0  0
    5.2093   -0.0124   -3.5053 C   0  0  0  0  0  0  0  0  0  0  0  0
    7.4914   -0.4128   -4.4406 C   0  0  0  0  0  0  0  0  0  0  0  0
    7.0716   -1.0657   -5.7622 C   0  0  0  0  0  0  0  0  0  0  0  0
    6.7580   -0.0711   -6.8802 C   0  0  0  0  0  0  0  0  0  0  0  0
    6.3624   -0.8175   -8.1618 C   0  0  0  0  0  0  0  0  0  0  0  0
    6.0200    0.1290   -9.3061 C   0  0  0  0  0  0  0  0  0  0  0  0
    7.1641    0.9198   -9.6178 O   0  0  0  0  0  0  0  0  0  0  0  0
    6.8906    1.8404  -10.6649 C   0  0  0  0  0  0  0  0  0  0  0  0
    0.3680    1.8303   -3.1703 H   0  0  0  0  0  0  0  0  0  0  0  0
    0.1126    0.5517   -4.3383 H   0  0  0  0  0  0  0  0  0  0  0  0
    0.8955   -2.3565   -2.1165 H   0  0  0  0  0  0  0  0  0  0  0  0
    0.4168   -1.8829   -3.7393 H   0  0  0  0  0  0  0  0  0  0  0  0
   -1.5570   -2.7018   -2.4379 H   0  0  0  0  0  0  0  0  0  0  0  0
   -3.0487   -0.7313   -2.7972 H   0  0  0  0  0  0  0  0  0  0  0  0
   -1.9363   -0.9307   -4.1483 H   0  0  0  0  0  0  0  0  0  0  0  0
   -2.0356    1.4552   -3.4301 H   0  0  0  0  0  0  0  0  0  0  0  0
   -2.6132    1.0725   -1.0388 H   0  0  0  0  0  0  0  0  0  0  0  0
   -1.1836    2.0944   -1.1688 H   0  0  0  0  0  0  0  0  0  0  0  0
   -0.8572    0.3107    0.5531 H   0  0  0  0  0  0  0  0  0  0  0  0
    1.1072    1.1057   -0.6581 H   0  0  0  0  0  0  0  0  0  0  0  0
    1.2915   -0.6050   -0.3289 H   0  0  0  0  0  0  0  0  0  0  0  0
   -0.7576   -2.0771   -0.1627 H   0  0  0  0  0  0  0  0  0  0  0  0
   -2.3574   -1.4017   -0.4594 H   0  0  0  0  0  0  0  0  0  0  0  0
    2.8426   -0.9421   -2.9149 H   0  0  0  0  0  0  0  0  0  0  0  0
    4.3335    3.8561   -2.0769 H   0  0  0  0  0  0  0  0  0  0  0  0
    6.2542    5.4013   -2.2103 H   0  0  0  0  0  0  0  0  0  0  0  0
    8.4111    4.6387   -3.1435 H   0  0  0  0  0  0  0  0  0  0  0  0
    8.6834    2.3092   -3.9418 H   0  0  0  0  0  0  0  0  0  0  0  0
    4.9309   -1.0375   -3.6982 H   0  0  0  0  0  0  0  0  0  0  0  0
    7.7203   -1.1952   -3.7065 H   0  0  0  0  0  0  0  0  0  0  0  0
    8.4042    0.1721   -4.5864 H   0  0  0  0  0  0  0  0  0  0  0  0
    6.2009   -1.7128   -5.6001 H   0  0  0  0  0  0  0  0  0  0  0  0
    7.8872   -1.7221   -6.0909 H   0  0  0  0  0  0  0  0  0  0  0  0
    7.6352    0.5602   -7.0672 H   0  0  0  0  0  0  0  0  0  0  0  0
    5.9376    0.5925   -6.5832 H   0  0  0  0  0  0  0  0  0  0  0  0
    5.4985   -1.4632   -7.9630 H   0  0  0  0  0  0  0  0  0  0  0  0
    7.1945   -1.4641   -8.4668 H   0  0  0  0  0  0  0  0  0  0  0  0
    5.1823    0.7771   -9.0231 H   0  0  0  0  0  0  0  0  0  0  0  0
    5.7323   -0.4546  -10.1881 H   0  0  0  0  0  0  0  0  0  0  0  0
    7.7914    2.4323  -10.8468 H   0  0  0  0  0  0  0  0  0  0  0  0
    6.0789    2.5165  -10.3792 H   0  0  0  0  0  0  0  0  0  0  0  0
    6.6307    1.3050  -11.5829 H   0  0  0  0  0  0  0  0  0  0  0  0
  1  6  1  0  0  0  0
  1  2  1  0  0  0  0
  1 30  1  0  0  0  0
  1 31  1  0  0  0  0
  2  9  1  0  0  0  0
  2  3  1  0  0  0  0
  2 11  1  6  0  0  0
  3 32  1  0  0  0  0
  3 33  1  0  0  0  0
  4  3  1  0  0  0  0
  4  5  1  0  0  0  0
  4 10  1  0  0  0  0
  4 34  1  6  0  0  0
  5 35  1  0  0  0  0
  5 36  1  0  0  0  0
  6  5  1  0  0  0  0
  6  7  1  0  0  0  0
  6 37  1  6  0  0  0
  7 38  1  0  0  0  0
  7 39  1  0  0  0  0
  8  7  1  0  0  0  0
  8  9  1  0  0  0  0
  8 10  1  0  0  0  0
  8 40  1  1  0  0  0
  9 41  1  0  0  0  0
  9 42  1  0  0  0  0
 10 43  1  0  0  0  0
 10 44  1  0  0  0  0
 11 12  1  0  0  0  0
 11 45  1  0  0  0  0
 12 13  2  0  0  0  0
 12 14  1  0  0  0  0
 14 22  2  0  0  0  0
 14 15  1  0  0  0  0
 15 20  2  0  0  0  0
 15 16  1  0  0  0  0
 16 17  2  0  0  0  0
 16 46  1  0  0  0  0
 17 18  1  0  0  0  0
 17 47  1  0  0  0  0
 18 19  2  0  0  0  0
 18 48  1  0  0  0  0
 19 20  1  0  0  0  0
 19 49  1  0  0  0  0
 20 21  1  0  0  0  0
 21 22  1  0  0  0  0
 21 23  1  0  0  0  0
 22 50  1  0  0  0  0
 23 24  1  0  0  0  0
 23 51  1  0  0  0  0
 23 52  1  0  0  0  0
 24 25  1  0  0  0  0
 24 53  1  0  0  0  0
 24 54  1  0  0  0  0
 25 26  1  0  0  0  0
 25 55  1  0  0  0  0
 25 56  1  0  0  0  0
 26 27  1  0  0  0  0
 26 57  1  0  0  0  0
 26 58  1  0  0  0  0
 27 28  1  0  0  0  0
 27 59  1  0  0  0  0
 27 60  1  0  0  0  0
 28 29  1  0  0  0  0
 29 61  1  0  0  0  0
 29 62  1  0  0  0  0
 29 63  1  0  0  0  0
M  END
$$$$
CHEMBL3586105
 OpenBabel12022418103D

 54 56  0  0  1  0  0  0  0  0999 V2000
    4.6738    0.6029   -2.1523 C   0  0  0  0  0  0  0  0  0  0  0  0
    4.2848    0.7646   -0.6913 C   0  0  0  0  0  0  0  0  0  0  0  0
    4.9441   -0.2939    0.1993 C   0  0  0  0  0  0  0  0  0  0  0  0
    4.6679   -0.0505    1.6689 C   0  0  0  0  0  0  0  0  0  0  0  0
    5.3597   -0.9658    2.6510 C   0  0  0  0  0  0  0  0  0  0  0  0
    6.8478   -1.0121    2.4939 C   0  0  0  0  0  0  0  0  0  0  0  0
    7.7909    0.0278    2.6614 C   0  0  0  0  0  0  0  0  0  0  0  0
    9.2152   -0.1438    2.4037 C   0  0  0  0  0  0  0  0  0  0  0  0
    9.7444   -1.3525    1.9166 C   0  0  0  0  0  0  0  0  0  0  0  0
    8.7196   -2.3680    1.8873 C   0  0  0  0  0  0  0  0  0  0  0  0
    7.3638   -2.2257    2.1391 C   0  0  0  0  0  0  0  0  0  0  0  0
    8.9543   -3.6706    1.5614 O   0  0  0  0  0  0  0  0  0  0  0  0
   10.2489   -3.6531    0.9963 C   0  0  0  0  0  0  0  0  0  0  0  0
   11.1564   -3.0119    2.4710 C   0  0  2  0  0  0  0  0  0  0  0  0
   11.4019   -1.7543    1.7177 C   0  0  1  0  0  0  0  0  0  0  0  0
   12.5107   -2.8697    0.7787 C   0  0  0  0  0  0  0  0  0  0  0  0
   13.0708   -4.0722    1.2837 C   0  0  0  0  0  0  0  0  0  0  0  0
   13.4058   -4.1188    2.7535 C   0  0  1  0  0  0  0  0  0  0  0  0
   12.5645   -3.0075    3.2605 C   0  0  0  0  0  0  0  0  0  0  0  0
   13.0600   -5.2971    3.4593 O   0  0  0  0  0  0  0  0  0  0  0  0
   13.2193   -5.5013    0.7156 C   0  0  0  0  0  0  0  0  0  0  0  0
   10.0368   -2.7109   -0.4296 C   0  0  0  0  0  0  0  0  0  0  0  0
   10.2746   -5.0464    0.3995 C   0  0  0  0  0  0  0  0  0  0  0  0
   10.0495    0.8784    2.7285 O   0  0  0  0  0  0  0  0  0  0  0  0
    4.2081    1.3899   -2.7545 H   0  0  0  0  0  0  0  0  0  0  0  0
    4.3451   -0.3646   -2.5436 H   0  0  0  0  0  0  0  0  0  0  0  0
    5.7584    0.6768   -2.2809 H   0  0  0  0  0  0  0  0  0  0  0  0
    3.1967    0.6960   -0.5945 H   0  0  0  0  0  0  0  0  0  0  0  0
    4.5797    1.7652   -0.3564 H   0  0  0  0  0  0  0  0  0  0  0  0
    6.0350   -0.2622    0.0216 H   0  0  0  0  0  0  0  0  0  0  0  0
    4.6052   -1.2882   -0.0887 H   0  0  0  0  0  0  0  0  0  0  0  0
    3.5547   -0.1314    1.8298 H   0  0  0  0  0  0  0  0  0  0  0  0
    4.8970    1.0135    1.9308 H   0  0  0  0  0  0  0  0  0  0  0  0
    4.9320   -1.9711    2.4737 H   0  0  0  0  0  0  0  0  0  0  0  0
    5.0945   -0.7127    3.7073 H   0  0  0  0  0  0  0  0  0  0  0  0
    7.4170    0.9852    3.0239 H   0  0  0  0  0  0  0  0  0  0  0  0
    6.7350   -3.1035    2.0236 H   0  0  0  0  0  0  0  0  0  0  0  0
   10.4570   -3.0152    3.3262 H   0  0  0  0  0  0  0  0  0  0  0  0
   11.9940   -0.9289    2.1389 H   0  0  0  0  0  0  0  0  0  0  0  0
   12.5357   -2.7496   -0.3070 H   0  0  0  0  0  0  0  0  0  0  0  0
   14.4847   -3.9571    2.8762 H   0  0  0  0  0  0  0  0  0  0  0  0
   12.4119   -3.0463    4.3381 H   0  0  0  0  0  0  0  0  0  0  0  0
   13.1663   -2.1067    3.1202 H   0  0  0  0  0  0  0  0  0  0  0  0
   12.1659   -5.1831    3.8219 H   0  0  0  0  0  0  0  0  0  0  0  0
   14.2225   -5.7879    0.4171 H   0  0  0  0  0  0  0  0  0  0  0  0
   12.5361   -5.8053   -0.0670 H   0  0  0  0  0  0  0  0  0  0  0  0
   12.9292   -6.2363    1.5021 H   0  0  0  0  0  0  0  0  0  0  0  0
    9.5415   -1.7383   -0.3075 H   0  0  0  0  0  0  0  0  0  0  0  0
    9.3652   -3.2329   -1.1179 H   0  0  0  0  0  0  0  0  0  0  0  0
   10.9252   -2.4873   -1.0187 H   0  0  0  0  0  0  0  0  0  0  0  0
   10.4294   -5.8351    1.1244 H   0  0  0  0  0  0  0  0  0  0  0  0
   10.9314   -5.0729   -0.4616 H   0  0  0  0  0  0  0  0  0  0  0  0
    9.2836   -5.2534   -0.0731 H   0  0  0  0  0  0  0  0  0  0  0  0
    9.5483    1.5333    3.2452 H   0  0  0  0  0  0  0  0  0  0  0  0
  1  2  1  0  0  0  0
  1 25  1  0  0  0  0
  1 26  1  0  0  0  0
  1 27  1  0  0  0  0
  2  3  1  0  0  0  0
  2 28  1  0  0  0  0
  2 29  1  0  0  0  0
  3  4  1  0  0  0  0
  3 30  1  0  0  0  0
  3 31  1  0  0  0  0
  4  5  1  0  0  0  0
  4 32  1  0  0  0  0
  4 33  1  0  0  0  0
  5  6  1  0  0  0  0
  5 34  1  0  0  0  0
  5 35  1  0  0  0  0
  6 11  2  0  0  0  0
  6  7  1  0  0  0  0
  7  8  2  0  0  0  0
  7 36  1  0  0  0  0
  8  9  1  0  0  0  0
  8 24  1  0  0  0  0
  9 15  1  0  0  0  0
  9 10  2  0  0  0  0
 10 11  1  0  0  0  0
 10 12  1  0  0  0  0
 11 37  1  0  0  0  0
 12 13  1  0  0  0  0
 13 14  1  0  0  0  0
 13 22  1  0  0  0  0
 13 23  1  0  0  0  0
 14 15  1  0  0  0  0
 14 19  1  0  0  0  0
 14 38  1  1  0  0  0
 15 16  1  0  0  0  0
 15 39  1  1  0  0  0
 16 17  2  0  0  0  0
 16 40  1  0  0  0  0
 17 18  1  0  0  0  0
 17 21  1  0  0  0  0
 18 19  1  0  0  0  0
 18 20  1  0  0  0  0
 18 41  1  1  0  0  0
 19 42  1  0  0  0  0
 19 43  1  0  0  0  0
 20 44  1  0  0  0  0
 21 45  1  0  0  0  0
 21 46  1  0  0  0  0
 21 47  1  0  0  0  0
 22 48  1  0  0  0  0
 22 49  1  0  0  0  0
 22 50  1  0  0  0  0
 23 51  1  0  0  0  0
 23 52  1  0  0  0  0
 23 53  1  0  0  0  0
 24 54  1  0  0  0  0
M  END
$$$$
CHEMBL4519883
 OpenBabel12022418103D

 49 52  0  0  0  0  0  0  0  0999 V2000
    1.0420    0.4085    0.7459 C   0  0  0  0  0  0  0  0  0  0  0  0
    2.5396    0.2607    0.4838 C   0  0  0  0  0  0  0  0  0  0  0  0
    3.1242   -1.0701    1.0012 C   0  0  0  0  0  0  0  0  0  0  0  0
    4.6449   -1.1843    0.7041 C   0  0  0  0  0  0  0  0  0  0  0  0
    5.2748   -2.5247    1.1506 C   0  0  0  0  0  0  0  0  0  0  0  0
    6.7469   -2.6015    1.0492 N   0  0  0  0  0  0  0  0  0  0  0  0
    7.4780   -3.0512   -0.0296 C   0  0  0  0  0  0  0  0  0  0  0  0
    8.8571   -2.8438    0.1812 C   0  0  0  0  0  0  0  0  0  0  0  0
    8.9309   -2.3192    1.5171 C   0  0  0  0  0  0  0  0  0  0  0  0
    7.6234   -2.1736    2.0267 C   0  0  0  0  0  0  0  0  0  0  0  0
    7.3583   -1.5946    3.2843 C   0  0  0  0  0  0  0  0  0  0  0  0
    8.4331   -1.1491    4.0481 C   0  0  0  0  0  0  0  0  0  0  0  0
    9.7275   -1.2676    3.5525 C   0  0  0  0  0  0  0  0  0  0  0  0
    9.9904   -1.8266    2.3083 C   0  0  0  0  0  0  0  0  0  0  0  0
   10.7431   -0.8094    4.2983 F   0  0  0  0  0  0  0  0  0  0  0  0
    9.8077   -2.6943   -0.9571 C   0  0  0  0  0  0  0  0  0  0  0  0
    9.3901   -1.9198   -1.8354 O   0  0  0  0  0  0  0  0  0  0  0  0
   11.0948   -3.4790   -1.3862 C   0  0  0  0  0  0  0  0  0  0  0  0
   11.0001   -3.6191   -2.7703 C   0  0  0  0  0  0  0  0  0  0  0  0
   12.1040   -3.8791   -3.5727 C   0  0  0  0  0  0  0  0  0  0  0  0
   12.9680   -4.7936   -3.0393 C   0  0  0  0  0  0  0  0  0  0  0  0
   13.1776   -4.7635   -1.6982 C   0  0  0  0  0  0  0  0  0  0  0  0
   14.3519   -5.4441   -1.3260 C   0  0  0  0  0  0  0  0  0  0  0  0
   14.9468   -5.1462   -0.1353 C   0  0  0  0  0  0  0  0  0  0  0  0
   14.3645   -4.1836    0.6866 C   0  0  0  0  0  0  0  0  0  0  0  0
   13.0932   -3.6307    0.3963 C   0  0  0  0  0  0  0  0  0  0  0  0
   12.3731   -3.9042   -0.8166 C   0  0  0  0  0  0  0  0  0  0  0  0
    0.6804    1.3572    0.3378 H   0  0  0  0  0  0  0  0  0  0  0  0
    0.8231    0.4045    1.8211 H   0  0  0  0  0  0  0  0  0  0  0  0
    0.4722   -0.3957    0.2738 H   0  0  0  0  0  0  0  0  0  0  0  0
    3.0595    1.1018    0.9524 H   0  0  0  0  0  0  0  0  0  0  0  0
    2.7087    0.3385   -0.5982 H   0  0  0  0  0  0  0  0  0  0  0  0
    2.5891   -1.8998    0.5363 H   0  0  0  0  0  0  0  0  0  0  0  0
    2.9530   -1.1352    2.0813 H   0  0  0  0  0  0  0  0  0  0  0  0
    5.1562   -0.3504    1.1995 H   0  0  0  0  0  0  0  0  0  0  0  0
    4.8040   -1.0574   -0.3737 H   0  0  0  0  0  0  0  0  0  0  0  0
    4.8639   -3.3561    0.5588 H   0  0  0  0  0  0  0  0  0  0  0  0
    5.0164   -2.7256    2.1954 H   0  0  0  0  0  0  0  0  0  0  0  0
    6.9598   -3.3408   -0.9376 H   0  0  0  0  0  0  0  0  0  0  0  0
    6.3422   -1.4568    3.6445 H   0  0  0  0  0  0  0  0  0  0  0  0
    8.2686   -0.6830    5.0160 H   0  0  0  0  0  0  0  0  0  0  0  0
   11.0109   -1.8531    1.9553 H   0  0  0  0  0  0  0  0  0  0  0  0
   10.0736   -3.4285   -3.3331 H   0  0  0  0  0  0  0  0  0  0  0  0
   12.6322   -2.9741   -3.9254 H   0  0  0  0  0  0  0  0  0  0  0  0
   13.6660   -5.2856   -3.7222 H   0  0  0  0  0  0  0  0  0  0  0  0
   14.8352   -6.1328   -2.0093 H   0  0  0  0  0  0  0  0  0  0  0  0
   15.9103   -5.6018    0.1039 H   0  0  0  0  0  0  0  0  0  0  0  0
   14.9343   -3.8523    1.5621 H   0  0  0  0  0  0  0  0  0  0  0  0
   12.7324   -2.8426    1.0723 H   0  0  0  0  0  0  0  0  0  0  0  0
  1  2  1  0  0  0  0
  1 28  1  0  0  0  0
  1 29  1  0  0  0  0
  1 30  1  0  0  0  0
  2  3  1  0  0  0  0
  2 31  1  0  0  0  0
  2 32  1  0  0  0  0
  3  4  1  0  0  0  0
  3 33  1  0  0  0  0
  3 34  1  0  0  0  0
  4  5  1  0  0  0  0
  4 35  1  0  0  0  0
  4 36  1  0  0  0  0
  5  6  1  0  0  0  0
  5 37  1  0  0  0  0
  5 38  1  0  0  0  0
  6 10  1  0  0  0  0
  6  7  1  0  0  0  0
  7  8  2  0  0  0  0
  7 39  1  0  0  0  0
  8  9  1  0  0  0  0
  8 16  1  0  0  0  0
  9 14  2  0  0  0  0
  9 10  1  0  0  0  0
 10 11  2  0  0  0  0
 11 12  1  0  0  0  0
 11 40  1  0  0  0  0
 12 13  2  0  0  0  0
 12 41  1  0  0  0  0
 13 14  1  0  0  0  0
 13 15  1  0  0  0  0
 14 42  1  0  0  0  0
 16 17  2  0  0  0  0
 16 18  1  0  0  0  0
 18 27  2  0  0  0  0
 18 19  1  0  0  0  0
 19 20  2  0  0  0  0
 19 43  1  0  0  0  0
 20 21  1  0  0  0  0
 20 44  1  0  0  0  0
 21 22  2  0  0  0  0
 21 45  1  0  0  0  0
 22 27  1  0  0  0  0
 22 23  1  0  0  0  0
 23 24  2  0  0  0  0
 23 46  1  0  0  0  0
 24 25  1  0  0  0  0
 24 47  1  0  0  0  0
 25 26  2  0  0  0  0
 25 48  1  0  0  0  0
 26 27  1  0  0  0  0
 26 49  1  0  0  0  0
M  END
$$$$
CHEMBL3900956
 OpenBabel12022418103D

 52 54  0  0  1  0  0  0  0  0999 V2000
    3.5318    1.7094   -2.3502 C   0  0  0  0  0  0  0  0  0  0  0  0
    3.6630    0.9431   -1.1029 N   0  0  0  0  0  0  0  0  0  0  0  0
    3.2215    1.4361    0.1580 C   0  0  0  0  0  0  0  0  0  0  0  0
    3.4023    0.8394    1.2213 O   0  0  0  0  0  0  0  0  0  0  0  0
    2.4440    2.7083    0.2698 C   0  0  0  0  0  0  0  0  0  0  0  0
    1.3507    2.8104    1.1231 C   0  0  0  0  0  0  0  0  0  0  0  0
    0.6053    3.9983    1.1188 C   0  0  0  0  0  0  0  0  0  0  0  0
    0.9743    5.0771    0.2995 C   0  0  0  0  0  0  0  0  0  0  0  0
    0.1585    6.3445    0.1422 C   0  0  0  0  0  0  0  0  0  0  0  0
   -0.8889    6.8303    1.1117 C   0  0  0  0  0  0  0  0  0  0  0  0
    0.4523    7.4979    1.0721 C   0  0  0  0  0  0  0  0  0  0  0  0
    2.1681    4.8987   -0.4144 C   0  0  0  0  0  0  0  0  0  0  0  0
    2.8776    3.7565   -0.4497 N   0  0  0  0  0  0  0  0  0  0  0  0
    2.6447    5.9615   -1.1514 O   0  0  0  0  0  0  0  0  0  0  0  0
    3.9781    5.7655   -1.6349 C   0  0  0  0  0  0  0  0  0  0  0  0
    4.7741    7.0544   -1.4901 C   0  0  2  0  0  0  0  0  0  0  0  0
    4.2393    8.2055   -2.3258 C   0  0  0  0  0  0  0  0  0  0  0  0
    5.5014    8.9768   -2.6314 C   0  0  0  0  0  0  0  0  0  0  0  0
    6.5087    7.8657   -2.8154 C   0  0  0  0  0  0  0  0  0  0  0  0
    6.1352    6.8271   -1.9052 O   0  0  0  0  0  0  0  0  0  0  0  0
    4.4982   -0.3117   -1.1874 C   0  0  0  0  0  0  0  0  0  0  0  0
    5.9702    0.0231   -0.8813 C   0  0  0  0  0  0  0  0  0  0  0  0
    4.0222   -1.4261   -0.2292 C   0  0  0  0  0  0  0  0  0  0  0  0
    4.4444   -0.9450   -2.6027 C   0  0  0  0  0  0  0  0  0  0  0  0
    2.9776    2.6362   -2.2825 H   0  0  0  0  0  0  0  0  0  0  0  0
    2.9904    1.1048   -3.0823 H   0  0  0  0  0  0  0  0  0  0  0  0
    4.5335    1.9413   -2.7276 H   0  0  0  0  0  0  0  0  0  0  0  0
    1.0714    1.9792    1.7626 H   0  0  0  0  0  0  0  0  0  0  0  0
   -0.2696    4.0708    1.7591 H   0  0  0  0  0  0  0  0  0  0  0  0
   -0.0507    6.6042   -0.8967 H   0  0  0  0  0  0  0  0  0  0  0  0
   -1.1405    6.2447    1.9856 H   0  0  0  0  0  0  0  0  0  0  0  0
   -1.7301    7.3856    0.7070 H   0  0  0  0  0  0  0  0  0  0  0  0
    0.5371    8.4821    0.6269 H   0  0  0  0  0  0  0  0  0  0  0  0
    1.1169    7.3348    1.9134 H   0  0  0  0  0  0  0  0  0  0  0  0
    3.9302    5.4491   -2.6847 H   0  0  0  0  0  0  0  0  0  0  0  0
    4.5521    4.9968   -1.1021 H   0  0  0  0  0  0  0  0  0  0  0  0
    4.8002    7.3503   -0.4336 H   0  0  0  0  0  0  0  0  0  0  0  0
    3.4870    8.7951   -1.7961 H   0  0  0  0  0  0  0  0  0  0  0  0
    3.7920    7.8394   -3.2578 H   0  0  0  0  0  0  0  0  0  0  0  0
    5.7768    9.5887   -1.7651 H   0  0  0  0  0  0  0  0  0  0  0  0
    5.4167    9.6266   -3.5045 H   0  0  0  0  0  0  0  0  0  0  0  0
    7.5355    8.1797   -2.6113 H   0  0  0  0  0  0  0  0  0  0  0  0
    6.4640    7.4486   -3.8285 H   0  0  0  0  0  0  0  0  0  0  0  0
    6.0927    0.4137    0.1339 H   0  0  0  0  0  0  0  0  0  0  0  0
    6.3585    0.7803   -1.5726 H   0  0  0  0  0  0  0  0  0  0  0  0
    6.6058   -0.8651   -0.9783 H   0  0  0  0  0  0  0  0  0  0  0  0
    4.2808   -1.2218    0.8133 H   0  0  0  0  0  0  0  0  0  0  0  0
    4.5017   -2.3834   -0.4658 H   0  0  0  0  0  0  0  0  0  0  0  0
    2.9381   -1.5666   -0.2986 H   0  0  0  0  0  0  0  0  0  0  0  0
    4.8663   -0.2881   -3.3710 H   0  0  0  0  0  0  0  0  0  0  0  0
    3.4061   -1.1771   -2.8878 H   0  0  0  0  0  0  0  0  0  0  0  0
    5.0117   -1.8804   -2.6474 H   0  0  0  0  0  0  0  0  0  0  0  0
  1  2  1  0  0  0  0
  1 25  1  0  0  0  0
  1 26  1  0  0  0  0
  1 27  1  0  0  0  0
  2  3  1  0  0  0  0
  2 21  1  0  0  0  0
  3  4  2  0  0  0  0
  3  5  1  0  0  0  0
  5 13  2  0  0  0  0
  5  6  1  0  0  0  0
  6  7  2  0  0  0  0
  6 28  1  0  0  0  0
  7  8  1  0  0  0  0
  7 29  1  0  0  0  0
  8  9  1  0  0  0  0
  8 12  2  0  0  0  0
  9 11  1  0  0  0  0
  9 10  1  0  0  0  0
  9 30  1  0  0  0  0
 10 11  1  0  0  0  0
 10 31  1  0  0  0  0
 10 32  1  0  0  0  0
 11 33  1  0  0  0  0
 11 34  1  0  0  0  0
 12 13  1  0  0  0  0
 12 14  1  0  0  0  0
 14 15  1  0  0  0  0
 15 35  1  0  0  0  0
 15 36  1  0  0  0  0
 16 15  1  0  0  0  0
 16 17  1  0  0  0  0
 16 20  1  0  0  0  0
 16 37  1  1  0  0  0
 17 18  1  0  0  0  0
 17 38  1  0  0  0  0
 17 39  1  0  0  0  0
 18 19  1  0  0  0  0
 18 40  1  0  0  0  0
 18 41  1  0  0  0  0
 19 20  1  0  0  0  0
 19 42  1  0  0  0  0
 19 43  1  0  0  0  0
 21 22  1  0  0  0  0
 21 23  1  0  0  0  0
 21 24  1  0  0  0  0
 22 44  1  0  0  0  0
 22 45  1  0  0  0  0
 22 46  1  0  0  0  0
 23 47  1  0  0  0  0
 23 48  1  0  0  0  0
 23 49  1  0  0  0  0
 24 50  1  0  0  0  0
 24 51  1  0  0  0  0
 24 52  1  0  0  0  0
M  END
$$$$
CHEMBL4439977
 OpenBabel12022418103D

 50 53  0  0  0  0  0  0  0  0999 V2000
   -2.1119   -0.7449   -0.0101 C   0  0  0  0  0  0  0  0  0  0  0  0
   -2.1828    0.6348   -0.0743 C   0  0  0  0  0  0  0  0  0  0  0  0
   -1.0163    1.4086   -0.0432 C   0  0  0  0  0  0  0  0  0  0  0  0
    0.2468    0.7700   -0.0158 C   0  0  0  0  0  0  0  0  0  0  0  0
    0.3175   -0.6252    0.0532 C   0  0  0  0  0  0  0  0  0  0  0  0
   -0.8769   -1.3833    0.0745 C   0  0  0  0  0  0  0  0  0  0  0  0
    1.6935   -0.9930    0.0971 C   0  0  0  0  0  0  0  0  0  0  0  0
    2.4356    0.1770    0.0743 C   0  0  0  0  0  0  0  0  0  0  0  0
    3.9245    0.3438    0.0755 C   0  0  0  0  0  0  0  0  0  0  0  0
    1.5619    1.2681   -0.0040 N   0  0  0  0  0  0  0  0  0  0  0  0
    1.9699    2.6331   -0.0920 C   0  0  0  0  0  0  0  0  0  0  0  0
    3.1056    2.9211    0.2767 O   0  0  0  0  0  0  0  0  0  0  0  0
    1.1653    3.7110   -0.7022 C   0  0  0  0  0  0  0  0  0  0  0  0
    1.0317    4.9827   -0.1206 C   0  0  0  0  0  0  0  0  0  0  0  0
    0.2390    5.9392   -0.7748 C   0  0  0  0  0  0  0  0  0  0  0  0
   -0.4061    5.6258   -1.9778 C   0  0  0  0  0  0  0  0  0  0  0  0
   -0.2372    4.3751   -2.5644 C   0  0  0  0  0  0  0  0  0  0  0  0
    0.5708    3.4303   -1.9454 C   0  0  0  0  0  0  0  0  0  0  0  0
   -0.0035    7.5366   -0.1528 Cl  0  0  0  0  0  0  0  0  0  0  0  0
    1.7800    5.3682    1.3959 Cl  0  0  0  0  0  0  0  0  0  0  0  0
    2.2154   -2.3988    0.1851 C   0  0  0  0  0  0  0  0  0  0  0  0
    1.8381   -3.2634   -1.0304 C   0  0  0  0  0  0  0  0  0  0  0  0
    2.2689   -4.6640   -0.9987 N   0  0  0  0  0  0  0  0  0  0  0  0
    3.7241   -4.8317   -1.1389 C   0  0  0  0  0  0  0  0  0  0  0  0
    4.0524   -6.3277   -1.2624 C   0  0  0  0  0  0  0  0  0  0  0  0
    3.6005   -7.0565   -0.1102 O   0  0  0  0  0  0  0  0  0  0  0  0
    2.1863   -6.8842    0.0695 C   0  0  0  0  0  0  0  0  0  0  0  0
    1.8209   -5.3981    0.1992 C   0  0  0  0  0  0  0  0  0  0  0  0
   -3.6959   -1.7782   -0.0168 Br  0  0  0  0  0  0  0  0  0  0  0  0
   -3.1500    1.1312   -0.1320 H   0  0  0  0  0  0  0  0  0  0  0  0
   -1.1219    2.4865   -0.0470 H   0  0  0  0  0  0  0  0  0  0  0  0
   -0.8353   -2.4656    0.1526 H   0  0  0  0  0  0  0  0  0  0  0  0
    4.4473   -0.6151    0.0454 H   0  0  0  0  0  0  0  0  0  0  0  0
    4.2572    0.8600    0.9813 H   0  0  0  0  0  0  0  0  0  0  0  0
    4.2494    0.9055   -0.8069 H   0  0  0  0  0  0  0  0  0  0  0  0
   -1.0418    6.3609   -2.4669 H   0  0  0  0  0  0  0  0  0  0  0  0
   -0.7359    4.1349   -3.5007 H   0  0  0  0  0  0  0  0  0  0  0  0
    0.7105    2.4618   -2.4247 H   0  0  0  0  0  0  0  0  0  0  0  0
    1.8158   -2.8331    1.1084 H   0  0  0  0  0  0  0  0  0  0  0  0
    3.3037   -2.3924    0.2937 H   0  0  0  0  0  0  0  0  0  0  0  0
    2.2145   -2.7933   -1.9488 H   0  0  0  0  0  0  0  0  0  0  0  0
    0.7511   -3.2752   -1.1621 H   0  0  0  0  0  0  0  0  0  0  0  0
    4.2453   -4.4202   -0.2651 H   0  0  0  0  0  0  0  0  0  0  0  0
    4.0873   -4.3093   -2.0303 H   0  0  0  0  0  0  0  0  0  0  0  0
    5.1352   -6.4647   -1.3378 H   0  0  0  0  0  0  0  0  0  0  0  0
    3.5965   -6.7571   -2.1631 H   0  0  0  0  0  0  0  0  0  0  0  0
    1.9013   -7.4169    0.9827 H   0  0  0  0  0  0  0  0  0  0  0  0
    1.6540   -7.3491   -0.7693 H   0  0  0  0  0  0  0  0  0  0  0  0
    0.7384   -5.3022    0.3262 H   0  0  0  0  0  0  0  0  0  0  0  0
    2.3086   -5.0010    1.0999 H   0  0  0  0  0  0  0  0  0  0  0  0
  1  6  2  0  0  0  0
  1  2  1  0  0  0  0
  1 29  1  0  0  0  0
  2  3  2  0  0  0  0
  2 30  1  0  0  0  0
  3  4  1  0  0  0  0
  3 31  1  0  0  0  0
  4 10  1  0  0  0  0
  4  5  2  0  0  0  0
  5  6  1  0  0  0  0
  5  7  1  0  0  0  0
  6 32  1  0  0  0  0
  7  8  2  0  0  0  0
  7 21  1  0  0  0  0
  8  9  1  0  0  0  0
  8 10  1  0  0  0  0
  9 33  1  0  0  0  0
  9 34  1  0  0  0  0
  9 35  1  0  0  0  0
 10 11  1  0  0  0  0
 11 12  2  0  0  0  0
 11 13  1  0  0  0  0
 13 18  2  0  0  0  0
 13 14  1  0  0  0  0
 14 15  2  0  0  0  0
 14 20  1  0  0  0  0
 15 16  1  0  0  0  0
 15 19  1  0  0  0  0
 16 17  2  0  0  0  0
 16 36  1  0  0  0  0
 17 18  1  0  0  0  0
 17 37  1  0  0  0  0
 18 38  1  0  0  0  0
 21 22  1  0  0  0  0
 21 39  1  0  0  0  0
 21 40  1  0  0  0  0
 22 23  1  0  0  0  0
 22 41  1  0  0  0  0
 22 42  1  0  0  0  0
 23 28  1  0  0  0  0
 23 24  1  0  0  0  0
 24 25  1  0  0  0  0
 24 43  1  0  0  0  0
 24 44  1  0  0  0  0
 25 26  1  0  0  0  0
 25 45  1  0  0  0  0
 25 46  1  0  0  0  0
 26 27  1  0  0  0  0
 27 28  1  0  0  0  0
 27 47  1  0  0  0  0
 27 48  1  0  0  0  0
 28 49  1  0  0  0  0
 28 50  1  0  0  0  0
M  END
$$$$
CHEMBL4777097
 OpenBabel12022418103D

 53 53  0  0  0  0  0  0  0  0999 V2000
   -0.3918   -1.1309   -0.0942 C   0  0  0  0  0  0  0  0  0  0  0  0
   -1.1605    0.0241   -0.1106 C   0  0  0  0  0  0  0  0  0  0  0  0
   -0.2773    1.1224   -0.0578 C   0  0  0  0  0  0  0  0  0  0  0  0
   -0.6633    2.5399    0.0211 C   0  0  0  0  0  0  0  0  0  0  0  0
   -1.8378    2.8928    0.0651 O   0  0  0  0  0  0  0  0  0  0  0  0
    0.3990    3.4219    0.0505 N   0  0  0  0  0  0  0  0  0  0  0  0
    0.2641    4.8915    0.0543 C   0  0  0  0  0  0  0  0  0  0  0  0
    1.6737    5.5127    0.0368 C   0  0  0  0  0  0  0  0  0  0  0  0
   -0.4832    5.3686   -1.2040 C   0  0  0  0  0  0  0  0  0  0  0  0
   -0.4904    5.3830    1.3195 C   0  0  0  0  0  0  0  0  0  0  0  0
    0.1882    4.9901    2.5109 O   0  0  0  0  0  0  0  0  0  0  0  0
    0.9942    0.6983   -0.0765 N   0  0  0  0  0  0  0  0  0  0  0  0
    0.9121   -0.6589   -0.0969 N   0  0  0  0  0  0  0  0  0  0  0  0
    2.1787   -1.3659   -0.0166 C   0  0  0  0  0  0  0  0  0  0  0  0
    2.7863   -1.7726   -1.3593 C   0  0  0  0  0  0  0  0  0  0  0  0
    3.1853   -0.6174   -2.2850 C   0  0  0  0  0  0  0  0  0  0  0  0
    4.2376    0.3105   -1.6788 C   0  0  0  0  0  0  0  0  0  0  0  0
    4.6967    1.3698   -2.6649 C   0  0  0  0  0  0  0  0  0  0  0  0
    5.6170    2.1600   -2.0484 F   0  0  0  0  0  0  0  0  0  0  0  0
   -0.9074   -2.5763   -0.0736 C   0  0  0  0  0  0  0  0  0  0  0  0
   -0.0958   -3.5078    0.8403 C   0  0  0  0  0  0  0  0  0  0  0  0
   -2.3729   -2.6028    0.4460 C   0  0  0  0  0  0  0  0  0  0  0  0
   -0.9283   -3.1544   -1.4995 C   0  0  0  0  0  0  0  0  0  0  0  0
   -2.2399    0.0902   -0.1083 H   0  0  0  0  0  0  0  0  0  0  0  0
    1.3180    2.9893   -0.0159 H   0  0  0  0  0  0  0  0  0  0  0  0
    2.2337    5.1968   -0.8509 H   0  0  0  0  0  0  0  0  0  0  0  0
    2.2600    5.2131    0.9125 H   0  0  0  0  0  0  0  0  0  0  0  0
    1.6219    6.6081    0.0264 H   0  0  0  0  0  0  0  0  0  0  0  0
    0.0261    5.0333   -2.1147 H   0  0  0  0  0  0  0  0  0  0  0  0
   -0.5467    6.4621   -1.2352 H   0  0  0  0  0  0  0  0  0  0  0  0
   -1.5076    4.9855   -1.2449 H   0  0  0  0  0  0  0  0  0  0  0  0
   -1.5112    4.9920    1.3726 H   0  0  0  0  0  0  0  0  0  0  0  0
   -0.5607    6.4765    1.3263 H   0  0  0  0  0  0  0  0  0  0  0  0
    0.2546    4.0181    2.4709 H   0  0  0  0  0  0  0  0  0  0  0  0
    2.0531   -2.2337    0.6255 H   0  0  0  0  0  0  0  0  0  0  0  0
    2.8752   -0.7264    0.5411 H   0  0  0  0  0  0  0  0  0  0  0  0
    2.0907   -2.4205   -1.9002 H   0  0  0  0  0  0  0  0  0  0  0  0
    3.6777   -2.3806   -1.1600 H   0  0  0  0  0  0  0  0  0  0  0  0
    2.2976   -0.0423   -2.5728 H   0  0  0  0  0  0  0  0  0  0  0  0
    3.5852   -1.0513   -3.2107 H   0  0  0  0  0  0  0  0  0  0  0  0
    5.1070   -0.2681   -1.3455 H   0  0  0  0  0  0  0  0  0  0  0  0
    3.8469    0.8163   -0.7904 H   0  0  0  0  0  0  0  0  0  0  0  0
    3.8690    2.0071   -2.9889 H   0  0  0  0  0  0  0  0  0  0  0  0
    5.1725    0.9247   -3.5435 H   0  0  0  0  0  0  0  0  0  0  0  0
    0.1746   -3.0203    1.7830 H   0  0  0  0  0  0  0  0  0  0  0  0
    0.8170   -3.8589    0.3482 H   0  0  0  0  0  0  0  0  0  0  0  0
   -0.6567   -4.4164    1.0909 H   0  0  0  0  0  0  0  0  0  0  0  0
   -2.4933   -2.0063    1.3583 H   0  0  0  0  0  0  0  0  0  0  0  0
   -2.7044   -3.6219    0.6751 H   0  0  0  0  0  0  0  0  0  0  0  0
   -3.0700   -2.2081   -0.3040 H   0  0  0  0  0  0  0  0  0  0  0  0
    0.0733   -3.2131   -1.9300 H   0  0  0  0  0  0  0  0  0  0  0  0
   -1.5370   -2.5406   -2.1739 H   0  0  0  0  0  0  0  0  0  0  0  0
   -1.3470   -4.1676   -1.5048 H   0  0  0  0  0  0  0  0  0  0  0  0
  1 13  1  0  0  0  0
  1  2  2  0  0  0  0
  1 20  1  0  0  0  0
  2  3  1  0  0  0  0
  2 24  1  0  0  0  0
  3  4  1  0  0  0  0
  3 12  2  0  0  0  0
  4  5  2  0  0  0  0
  4  6  1  0  0  0  0
  6  7  1  0  0  0  0
  6 25  1  0  0  0  0
  7  8  1  0  0  0  0
  7  9  1  0  0  0  0
  7 10  1  0  0  0  0
  8 26  1  0  0  0  0
  8 27  1  0  0  0  0
  8 28  1  0  0  0  0
  9 29  1  0  0  0  0
  9 30  1  0  0  0  0
  9 31  1  0  0  0  0
 10 11  1  0  0  0  0
 10 32  1  0  0  0  0
 10 33  1  0  0  0  0
 11 34  1  0  0  0  0
 12 13  1  0  0  0  0
 13 14  1  0  0  0  0
 14 15  1  0  0  0  0
 14 35  1  0  0  0  0
 14 36  1  0  0  0  0
 15 16  1  0  0  0  0
 15 37  1  0  0  0  0
 15 38  1  0  0  0  0
 16 17  1  0  0  0  0
 16 39  1  0  0  0  0
 16 40  1  0  0  0  0
 17 18  1  0  0  0  0
 17 41  1  0  0  0  0
 17 42  1  0  0  0  0
 18 19  1  0  0  0  0
 18 43  1  0  0  0  0
 18 44  1  0  0  0  0
 20 21  1  0  0  0  0
 20 22  1  0  0  0  0
 20 23  1  0  0  0  0
 21 45  1  0  0  0  0
 21 46  1  0  0  0  0
 21 47  1  0  0  0  0
 22 48  1  0  0  0  0
 22 49  1  0  0  0  0
 22 50  1  0  0  0  0
 23 51  1  0  0  0  0
 23 52  1  0  0  0  0
 23 53  1  0  0  0  0
M  END
$$$$
CHEMBL3686312
 OpenBabel12022418103D

 70 73  0  0  1  0  0  0  0  0999 V2000
    2.4486   -7.9640   -5.4559 C   0  0  0  0  0  0  0  0  0  0  0  0
    2.3679   -9.2628   -4.8122 N   0  0  0  0  0  0  0  0  0  0  0  0
    3.5200  -10.1083   -5.1185 C   0  0  0  0  0  0  0  0  0  0  0  0
    3.4705  -11.2013   -4.0744 C   0  0  2  0  0  0  0  0  0  0  0  0
    2.8082  -10.5596   -2.8571 C   0  0  0  0  0  0  0  0  0  0  0  0
    2.1484   -9.2505   -3.3463 C   0  0  1  0  0  0  0  0  0  0  0  0
    2.5048   -7.9350   -2.5413 C   0  0  0  0  0  0  0  0  0  0  0  0
    1.8936   -7.9332   -1.2461 O   0  0  0  0  0  0  0  0  0  0  0  0
    2.3280   -7.1114   -0.2319 C   0  0  0  0  0  0  0  0  0  0  0  0
    2.2413   -7.8187    0.9884 C   0  0  0  0  0  0  0  0  0  0  0  0
    2.6174   -7.2636    2.2134 C   0  0  0  0  0  0  0  0  0  0  0  0
    3.0741   -5.9508    2.2729 C   0  0  0  0  0  0  0  0  0  0  0  0
    3.5424   -5.3455    3.5763 C   0  0  0  0  0  0  0  0  0  0  0  0
    3.5473   -6.2274    4.6162 F   0  0  0  0  0  0  0  0  0  0  0  0
    4.8159   -4.8678    3.4918 F   0  0  0  0  0  0  0  0  0  0  0  0
    2.7750   -4.2984    3.9804 F   0  0  0  0  0  0  0  0  0  0  0  0
    3.1016   -5.2050    1.0798 C   0  0  0  0  0  0  0  0  0  0  0  0
    2.7493   -5.7581   -0.1859 C   0  0  0  0  0  0  0  0  0  0  0  0
    2.8151   -4.7767   -1.3432 C   0  0  0  0  0  0  0  0  0  0  0  0
    2.1560   -4.9874   -2.3519 O   0  0  0  0  0  0  0  0  0  0  0  0
    3.6957   -3.7118   -1.1966 N   0  0  0  0  0  0  0  0  0  0  0  0
    3.3723   -2.5025   -1.5415 C   0  0  0  0  0  0  0  0  0  0  0  0
    4.2093   -1.3678   -1.5879 N   0  0  0  0  0  0  0  0  0  0  0  0
    3.5863   -0.2191   -2.0407 C   0  0  0  0  0  0  0  0  0  0  0  0
    2.2962   -0.3104   -2.3848 C   0  0  0  0  0  0  0  0  0  0  0  0
    1.4266    0.7717   -3.0102 C   0  0  0  0  0  0  0  0  0  0  0  0
    2.2033    2.0890   -3.2565 C   0  0  0  0  0  0  0  0  0  0  0  0
    0.9254    0.2762   -4.3801 C   0  0  0  0  0  0  0  0  0  0  0  0
    0.2338    1.1060   -2.0978 C   0  0  0  0  0  0  0  0  0  0  0  0
    1.7325   -1.9505   -2.0462 S   0  0  0  0  0  0  0  0  0  0  0  0
    5.6206   -1.3209   -1.2263 C   0  0  0  0  0  0  0  0  0  0  0  0
    6.4628   -2.5280   -1.6260 C   0  0  1  0  0  0  0  0  0  0  0  0
    6.3694   -2.8707   -3.1030 C   0  0  0  0  0  0  0  0  0  0  0  0
    7.7784   -3.1965   -3.5261 C   0  0  0  0  0  0  0  0  0  0  0  0
    8.6614   -2.7714   -2.3757 C   0  0  0  0  0  0  0  0  0  0  0  0
    7.8393   -2.1962   -1.3639 O   0  0  0  0  0  0  0  0  0  0  0  0
    4.7272  -11.6108   -3.7625 F   0  0  0  0  0  0  0  0  0  0  0  0
    1.5406   -7.3847   -5.2610 H   0  0  0  0  0  0  0  0  0  0  0  0
    2.5193   -8.0790   -6.5425 H   0  0  0  0  0  0  0  0  0  0  0  0
    3.3186   -7.3886   -5.1197 H   0  0  0  0  0  0  0  0  0  0  0  0
    4.4749   -9.5729   -5.0647 H   0  0  0  0  0  0  0  0  0  0  0  0
    3.4320  -10.5339   -6.1261 H   0  0  0  0  0  0  0  0  0  0  0  0
    2.9099  -12.0735   -4.4321 H   0  0  0  0  0  0  0  0  0  0  0  0
    3.5283  -10.4145   -2.0476 H   0  0  0  0  0  0  0  0  0  0  0  0
    2.0381  -11.2561   -2.4991 H   0  0  0  0  0  0  0  0  0  0  0  0
    1.0684   -9.3915   -3.2038 H   0  0  0  0  0  0  0  0  0  0  0  0
    3.5871   -7.7911   -2.4762 H   0  0  0  0  0  0  0  0  0  0  0  0
    2.0456   -7.1096   -3.0819 H   0  0  0  0  0  0  0  0  0  0  0  0
    1.8782   -8.8467    0.9797 H   0  0  0  0  0  0  0  0  0  0  0  0
    2.5518   -7.8699    3.1160 H   0  0  0  0  0  0  0  0  0  0  0  0
    3.3975   -4.1568    1.1510 H   0  0  0  0  0  0  0  0  0  0  0  0
    4.1999    0.6721   -2.1314 H   0  0  0  0  0  0  0  0  0  0  0  0
    3.0561    1.9361   -3.9291 H   0  0  0  0  0  0  0  0  0  0  0  0
    2.5843    2.5167   -2.3215 H   0  0  0  0  0  0  0  0  0  0  0  0
    1.5604    2.8471   -3.7198 H   0  0  0  0  0  0  0  0  0  0  0  0
    1.7678    0.0675   -5.0520 H   0  0  0  0  0  0  0  0  0  0  0  0
    0.2938    1.0284   -4.8636 H   0  0  0  0  0  0  0  0  0  0  0  0
    0.3324   -0.6410   -4.2980 H   0  0  0  0  0  0  0  0  0  0  0  0
    0.5749    1.4866   -1.1276 H   0  0  0  0  0  0  0  0  0  0  0  0
   -0.4004    0.2336   -1.9105 H   0  0  0  0  0  0  0  0  0  0  0  0
   -0.4019    1.8782   -2.5488 H   0  0  0  0  0  0  0  0  0  0  0  0
    5.7336   -1.1053   -0.1573 H   0  0  0  0  0  0  0  0  0  0  0  0
    6.0790   -0.4492   -1.7224 H   0  0  0  0  0  0  0  0  0  0  0  0
    6.2200   -3.3941   -1.0029 H   0  0  0  0  0  0  0  0  0  0  0  0
    5.9907   -2.0281   -3.6933 H   0  0  0  0  0  0  0  0  0  0  0  0
    5.6867   -3.7089   -3.2767 H   0  0  0  0  0  0  0  0  0  0  0  0
    8.0455   -2.6623   -4.4446 H   0  0  0  0  0  0  0  0  0  0  0  0
    7.9010   -4.2638   -3.7357 H   0  0  0  0  0  0  0  0  0  0  0  0
    9.4036   -2.0283   -2.6831 H   0  0  0  0  0  0  0  0  0  0  0  0
    9.1941   -3.6255   -1.9465 H   0  0  0  0  0  0  0  0  0  0  0  0
  1  2  1  0  0  0  0
  1 38  1  0  0  0  0
  1 39  1  0  0  0  0
  1 40  1  0  0  0  0
  2  6  1  0  0  0  0
  2  3  1  0  0  0  0
  3  4  1  0  0  0  0
  3 41  1  0  0  0  0
  3 42  1  0  0  0  0
  4  5  1  0  0  0  0
  4 37  1  0  0  0  0
  4 43  1  6  0  0  0
  5  6  1  0  0  0  0
  5 44  1  0  0  0  0
  5 45  1  0  0  0  0
  6  7  1  0  0  0  0
  6 46  1  1  0  0  0
  7  8  1  0  0  0  0
  7 47  1  0  0  0  0
  7 48  1  0  0  0  0
  8  9  1  0  0  0  0
  9 18  2  0  0  0  0
  9 10  1  0  0  0  0
 10 11  2  0  0  0  0
 10 49  1  0  0  0  0
 11 12  1  0  0  0  0
 11 50  1  0  0  0  0
 12 13  1  0  0  0  0
 12 17  2  0  0  0  0
 13 14  1  0  0  0  0
 13 15  1  0  0  0  0
 13 16  1  0  0  0  0
 17 18  1  0  0  0  0
 17 51  1  0  0  0  0
 18 19  1  0  0  0  0
 19 20  2  0  0  0  0
 19 21  1  0  0  0  0
 21 22  2  0  0  0  0
 22 30  1  0  0  0  0
 22 23  1  0  0  0  0
 23 24  1  0  0  0  0
 23 31  1  0  0  0  0
 24 25  2  0  0  0  0
 24 52  1  0  0  0  0
 25 26  1  0  0  0  0
 25 30  1  0  0  0  0
 26 27  1  0  0  0  0
 26 28  1  0  0  0  0
 26 29  1  0  0  0  0
 27 53  1  0  0  0  0
 27 54  1  0  0  0  0
 27 55  1  0  0  0  0
 28 56  1  0  0  0  0
 28 57  1  0  0  0  0
 28 58  1  0  0  0  0
 29 59  1  0  0  0  0
 29 60  1  0  0  0  0
 29 61  1  0  0  0  0
 31 62  1  0  0  0  0
 31 63  1  0  0  0  0
 32 33  1  0  0  0  0
 32 36  1  0  0  0  0
 32 31  1  0  0  0  0
 32 64  1  1  0  0  0
 33 34  1  0  0  0  0
 33 65  1  0  0  0  0
 33 66  1  0  0  0  0
 34 35  1  0  0  0  0
 34 67  1  0  0  0  0
 34 68  1  0  0  0  0
 35 36  1  0  0  0  0
 35 69  1  0  0  0  0
 35 70  1  0  0  0  0
M  END
$$$$
CHEMBL3960116
 OpenBabel12022418103D

 59 62  0  0  0  0  0  0  0  0999 V2000
    2.9625    2.7533    1.8943 C   0  0  0  0  0  0  0  0  0  0  0  0
    2.4583    2.7440    0.4564 C   0  0  0  0  0  0  0  0  0  0  0  0
    2.9538    1.5536   -0.4146 C   0  0  0  0  0  0  0  0  0  0  0  0
    2.5538    0.1820    0.2134 C   0  0  0  0  0  0  0  0  0  0  0  0
    1.0555   -0.0428    0.4103 C   0  0  0  0  0  0  0  0  0  0  0  0
    2.2519    1.6374   -1.8248 C   0  0  0  0  0  0  0  0  0  0  0  0
    1.2518    2.3425   -2.0025 O   0  0  0  0  0  0  0  0  0  0  0  0
    2.5957    0.7011   -2.7820 N   0  0  0  0  0  0  0  0  0  0  0  0
    3.9112    0.3594   -3.3085 C   0  0  0  0  0  0  0  0  0  0  0  0
    3.3365    0.5273   -4.7268 C   0  0  0  0  0  0  0  0  0  0  0  0
    1.9455    0.5823   -4.0906 C   0  0  0  0  0  0  0  0  0  0  0  0
    3.5571   -0.5075   -5.5735 F   0  0  0  0  0  0  0  0  0  0  0  0
    3.7257    1.6457   -5.3863 F   0  0  0  0  0  0  0  0  0  0  0  0
    4.4360    1.5723   -0.5277 N   0  0  0  0  0  0  0  0  0  0  0  0
    5.1278    2.6368   -1.0712 C   0  0  0  0  0  0  0  0  0  0  0  0
    4.5900    3.5533   -1.6805 O   0  0  0  0  0  0  0  0  0  0  0  0
    6.6193    2.5807   -0.9501 C   0  0  0  0  0  0  0  0  0  0  0  0
    7.3869    3.2936   -1.8555 C   0  0  0  0  0  0  0  0  0  0  0  0
    8.7688    3.1444   -1.8048 C   0  0  0  0  0  0  0  0  0  0  0  0
    9.3763    2.3427   -0.8249 C   0  0  0  0  0  0  0  0  0  0  0  0
    8.4974    1.7407    0.0950 C   0  0  0  0  0  0  0  0  0  0  0  0
    9.0672    1.0703    1.1719 O   0  0  0  0  0  0  0  0  0  0  0  0
    8.1237    0.8813    2.2312 C   0  0  0  0  0  0  0  0  0  0  0  0
    8.8264    0.5872    3.5244 C   0  0  0  0  0  0  0  0  0  0  0  0
    8.2624   -0.4992    4.4069 C   0  0  0  0  0  0  0  0  0  0  0  0
    9.6231   -0.6648    3.7895 C   0  0  0  0  0  0  0  0  0  0  0  0
    7.1376    1.7911    0.0218 N   0  0  0  0  0  0  0  0  0  0  0  0
   10.8731    2.1163   -0.8467 C   0  0  0  0  0  0  0  0  0  0  0  0
   11.8267    3.2771   -1.0509 C   0  0  0  0  0  0  0  0  0  0  0  0
   11.7574    2.5891    0.2780 C   0  0  0  0  0  0  0  0  0  0  0  0
    2.8181    3.7479    2.3288 H   0  0  0  0  0  0  0  0  0  0  0  0
    4.0263    2.5103    1.9619 H   0  0  0  0  0  0  0  0  0  0  0  0
    2.4030    2.0431    2.5106 H   0  0  0  0  0  0  0  0  0  0  0  0
    2.7467    3.6918   -0.0131 H   0  0  0  0  0  0  0  0  0  0  0  0
    1.3613    2.7695    0.4828 H   0  0  0  0  0  0  0  0  0  0  0  0
    3.0507    0.0625    1.1851 H   0  0  0  0  0  0  0  0  0  0  0  0
    2.9356   -0.6374   -0.4106 H   0  0  0  0  0  0  0  0  0  0  0  0
    0.6064    0.7136    1.0585 H   0  0  0  0  0  0  0  0  0  0  0  0
    0.8844   -1.0176    0.8787 H   0  0  0  0  0  0  0  0  0  0  0  0
    0.5188   -0.0426   -0.5446 H   0  0  0  0  0  0  0  0  0  0  0  0
    4.2220   -0.6570   -3.0526 H   0  0  0  0  0  0  0  0  0  0  0  0
    4.7129    1.0647   -3.0989 H   0  0  0  0  0  0  0  0  0  0  0  0
    1.3377    1.4409   -4.3858 H   0  0  0  0  0  0  0  0  0  0  0  0
    1.3595   -0.3380   -4.1782 H   0  0  0  0  0  0  0  0  0  0  0  0
    4.9845    0.9628    0.0686 H   0  0  0  0  0  0  0  0  0  0  0  0
    6.9214    3.9225   -2.6082 H   0  0  0  0  0  0  0  0  0  0  0  0
    9.3815    3.6582   -2.5430 H   0  0  0  0  0  0  0  0  0  0  0  0
    7.4424    0.0651    1.9623 H   0  0  0  0  0  0  0  0  0  0  0  0
    7.5412    1.7963    2.4044 H   0  0  0  0  0  0  0  0  0  0  0  0
    9.1773    1.4973    3.9986 H   0  0  0  0  0  0  0  0  0  0  0  0
    7.4702   -1.1398    4.0253 H   0  0  0  0  0  0  0  0  0  0  0  0
    8.1905   -0.3046    5.4688 H   0  0  0  0  0  0  0  0  0  0  0  0
   10.4761   -0.5915    4.4577 H   0  0  0  0  0  0  0  0  0  0  0  0
    9.7484   -1.3803    2.9869 H   0  0  0  0  0  0  0  0  0  0  0  0
   11.1739    1.1858   -1.3268 H   0  0  0  0  0  0  0  0  0  0  0  0
   11.4431    4.2892   -1.1070 H   0  0  0  0  0  0  0  0  0  0  0  0
   12.7015    3.1076   -1.6694 H   0  0  0  0  0  0  0  0  0  0  0  0
   12.5889    1.9522    0.5620 H   0  0  0  0  0  0  0  0  0  0  0  0
   11.3105    3.1254    1.1060 H   0  0  0  0  0  0  0  0  0  0  0  0
  1  2  1  0  0  0  0
  1 31  1  0  0  0  0
  1 32  1  0  0  0  0
  1 33  1  0  0  0  0
  2  3  1  0  0  0  0
  2 34  1  0  0  0  0
  2 35  1  0  0  0  0
  3  4  1  0  0  0  0
  3  6  1  0  0  0  0
  3 14  1  0  0  0  0
  4  5  1  0  0  0  0
  4 36  1  0  0  0  0
  4 37  1  0  0  0  0
  5 38  1  0  0  0  0
  5 39  1  0  0  0  0
  5 40  1  0  0  0  0
  6  7  2  0  0  0  0
  6  8  1  0  0  0  0
  8 11  1  0  0  0  0
  8  9  1  0  0  0  0
  9 10  1  0  0  0  0
  9 41  1  0  0  0  0
  9 42  1  0  0  0  0
 10 11  1  0  0  0  0
 10 12  1  0  0  0  0
 10 13  1  0  0  0  0
 11 43  1  0  0  0  0
 11 44  1  0  0  0  0
 14 15  1  0  0  0  0
 14 45  1  0  0  0  0
 15 16  2  0  0  0  0
 15 17  1  0  0  0  0
 17 27  2  0  0  0  0
 17 18  1  0  0  0  0
 18 19  2  0  0  0  0
 18 46  1  0  0  0  0
 19 20  1  0  0  0  0
 19 47  1  0  0  0  0
 20 21  2  0  0  0  0
 20 28  1  0  0  0  0
 21 22  1  0  0  0  0
 21 27  1  0  0  0  0
 22 23  1  0  0  0  0
 23 24  1  0  0  0  0
 23 48  1  0  0  0  0
 23 49  1  0  0  0  0
 24 26  1  0  0  0  0
 24 25  1  0  0  0  0
 24 50  1  0  0  0  0
 25 26  1  0  0  0  0
 25 51  1  0  0  0  0
 25 52  1  0  0  0  0
 26 53  1  0  0  0  0
 26 54  1  0  0  0  0
 28 30  1  0  0  0  0
 28 29  1  0  0  0  0
 28 55  1  0  0  0  0
 29 30  1  0  0  0  0
 29 56  1  0  0  0  0
 29 57  1  0  0  0  0
 30 58  1  0  0  0  0
 30 59  1  0  0  0  0
M  END
$$$$
CHEMBL3940907
 OpenBabel12022418103D

 56 58  0  0  1  0  0  0  0  0999 V2000
   -0.8081    1.2263    3.3462 C   0  0  0  0  0  0  0  0  0  0  0  0
    0.0429    0.7946    2.2241 C   0  0  0  0  0  0  0  0  0  0  0  0
    0.1353   -0.3862    1.6535 N   0  0  0  0  0  0  0  0  0  0  0  0
    1.0907   -0.2685    0.6663 N   0  0  0  0  0  0  0  0  0  0  0  0
    1.4947    0.9866    0.6844 C   0  0  0  0  0  0  0  0  0  0  0  0
    2.4722    1.6981   -0.2048 C   0  0  2  0  0  0  0  0  0  0  0  0
    1.9368    1.8814   -1.6690 C   0  0  0  0  0  0  0  0  0  0  0  0
    1.7240    0.5380   -2.3936 C   0  0  0  0  0  0  0  0  0  0  0  0
    0.5972    2.6549   -1.6366 C   0  0  0  0  0  0  0  0  0  0  0  0
    2.9180    2.7176   -2.5199 C   0  0  0  0  0  0  0  0  0  0  0  0
    3.7542    1.0020   -0.1309 N   0  0  0  0  0  0  0  0  0  0  0  0
    4.9531    1.6832   -0.1138 C   0  0  0  0  0  0  0  0  0  0  0  0
    5.0242    2.9059   -0.1849 O   0  0  0  0  0  0  0  0  0  0  0  0
    6.1863    0.8601    0.0305 C   0  0  0  0  0  0  0  0  0  0  0  0
    7.3982    1.5143    0.1942 C   0  0  0  0  0  0  0  0  0  0  0  0
    8.5319    0.7507    0.4458 C   0  0  0  0  0  0  0  0  0  0  0  0
    8.4841   -0.6551    0.3993 C   0  0  0  0  0  0  0  0  0  0  0  0
    7.1996   -1.1918    0.2287 C   0  0  0  0  0  0  0  0  0  0  0  0
    6.0526   -0.4851    0.0579 N   0  0  0  0  0  0  0  0  0  0  0  0
    9.7564   -1.5888    0.5806 C   0  0  0  0  0  0  0  0  0  0  0  0
    9.9565   -2.7376   -0.4419 C   0  0  0  0  0  0  0  0  0  0  0  0
   11.3664   -2.4340   -0.5745 O   0  0  0  0  0  0  0  0  0  0  0  0
   11.1365   -1.1360    0.0325 C   0  0  0  0  0  0  0  0  0  0  0  0
    9.7688   -1.9896    1.8809 F   0  0  0  0  0  0  0  0  0  0  0  0
    9.7491    1.2895    0.7711 O   0  0  0  0  0  0  0  0  0  0  0  0
    9.7931    2.5770    1.4294 C   0  0  1  0  0  0  0  0  0  0  0  0
    9.0702    2.5385    2.7805 C   0  0  0  0  0  0  0  0  0  0  0  0
   11.2639    3.0001    1.6312 C   0  0  0  0  0  0  0  0  0  0  0  0
   12.1313    2.1054    1.1035 F   0  0  0  0  0  0  0  0  0  0  0  0
   11.5018    4.1885    1.0247 F   0  0  0  0  0  0  0  0  0  0  0  0
   11.5890    3.1479    2.9357 F   0  0  0  0  0  0  0  0  0  0  0  0
    0.8730    1.7259    1.6607 O   0  0  0  0  0  0  0  0  0  0  0  0
   -0.4853    2.1930    3.7437 H   0  0  0  0  0  0  0  0  0  0  0  0
   -0.7607    0.4926    4.1567 H   0  0  0  0  0  0  0  0  0  0  0  0
   -1.8497    1.3160    3.0247 H   0  0  0  0  0  0  0  0  0  0  0  0
    2.6239    2.6997    0.2189 H   0  0  0  0  0  0  0  0  0  0  0  0
    1.3615    0.6996   -3.4155 H   0  0  0  0  0  0  0  0  0  0  0  0
    0.9818   -0.0889   -1.8916 H   0  0  0  0  0  0  0  0  0  0  0  0
    2.6578   -0.0303   -2.4636 H   0  0  0  0  0  0  0  0  0  0  0  0
    0.2446    2.8810   -2.6483 H   0  0  0  0  0  0  0  0  0  0  0  0
    0.7104    3.6064   -1.1040 H   0  0  0  0  0  0  0  0  0  0  0  0
   -0.1919    2.0823   -1.1385 H   0  0  0  0  0  0  0  0  0  0  0  0
    2.5187    2.8848   -3.5276 H   0  0  0  0  0  0  0  0  0  0  0  0
    3.8825    2.2149   -2.6429 H   0  0  0  0  0  0  0  0  0  0  0  0
    3.0956    3.7012   -2.0716 H   0  0  0  0  0  0  0  0  0  0  0  0
    3.7819   -0.0092   -0.0204 H   0  0  0  0  0  0  0  0  0  0  0  0
    7.4205    2.5972    0.1586 H   0  0  0  0  0  0  0  0  0  0  0  0
    7.0555   -2.2707    0.2456 H   0  0  0  0  0  0  0  0  0  0  0  0
    9.4429   -2.6289   -1.4023 H   0  0  0  0  0  0  0  0  0  0  0  0
    9.7915   -3.7440   -0.0460 H   0  0  0  0  0  0  0  0  0  0  0  0
   11.8854   -0.9056    0.7956 H   0  0  0  0  0  0  0  0  0  0  0  0
   11.1359   -0.3533   -0.7329 H   0  0  0  0  0  0  0  0  0  0  0  0
    9.3337    3.3281    0.7767 H   0  0  0  0  0  0  0  0  0  0  0  0
    9.5044    1.7688    3.4281 H   0  0  0  0  0  0  0  0  0  0  0  0
    8.0101    2.2924    2.6776 H   0  0  0  0  0  0  0  0  0  0  0  0
    9.1326    3.5067    3.2869 H   0  0  0  0  0  0  0  0  0  0  0  0
  1  2  1  0  0  0  0
  1 33  1  0  0  0  0
  1 34  1  0  0  0  0
  1 35  1  0  0  0  0
  2 32  1  0  0  0  0
  2  3  2  0  0  0  0
  3  4  1  0  0  0  0
  4  5  2  0  0  0  0
  5 32  1  0  0  0  0
  6 11  1  0  0  0  0
  6  7  1  0  0  0  0
  6  5  1  0  0  0  0
  6 36  1  1  0  0  0
  7  8  1  0  0  0  0
  7  9  1  0  0  0  0
  7 10  1  0  0  0  0
  8 37  1  0  0  0  0
  8 38  1  0  0  0  0
  8 39  1  0  0  0  0
  9 40  1  0  0  0  0
  9 41  1  0  0  0  0
  9 42  1  0  0  0  0
 10 43  1  0  0  0  0
 10 44  1  0  0  0  0
 10 45  1  0  0  0  0
 11 12  1  0  0  0  0
 11 46  1  0  0  0  0
 12 13  2  0  0  0  0
 12 14  1  0  0  0  0
 14 19  2  0  0  0  0
 14 15  1  0  0  0  0
 15 16  2  0  0  0  0
 15 47  1  0  0  0  0
 16 17  1  0  0  0  0
 16 25  1  0  0  0  0
 17 18  2  0  0  0  0
 17 20  1  0  0  0  0
 18 19  1  0  0  0  0
 18 48  1  0  0  0  0
 20 23  1  0  0  0  0
 20 21  1  0  0  0  0
 20 24  1  0  0  0  0
 21 22  1  0  0  0  0
 21 49  1  0  0  0  0
 21 50  1  0  0  0  0
 22 23  1  0  0  0  0
 23 51  1  0  0  0  0
 23 52  1  0  0  0  0
 25 26  1  0  0  0  0
 26 27  1  0  0  0  0
 26 28  1  0  0  0  0
 26 53  1  6  0  0  0
 27 54  1  0  0  0  0
 27 55  1  0  0  0  0
 27 56  1  0  0  0  0
 28 29  1  0  0  0  0
 28 30  1  0  0  0  0
 28 31  1  0  0  0  0
M  END
$$$$
CHEMBL5192105
 OpenBabel12022418113D

 59 60  0  0  1  0  0  0  0  0999 V2000
    0.1230   -0.8613    0.3329 C   0  0  0  0  0  0  0  0  0  0  0  0
   -1.1198   -0.2734    0.0205 C   0  0  0  0  0  0  0  0  0  0  0  0
   -1.2969    1.1174   -0.0284 C   0  0  0  0  0  0  0  0  0  0  0  0
   -0.2224    1.9710    0.2369 C   0  0  0  0  0  0  0  0  0  0  0  0
    0.9746    1.3957    0.6807 C   0  0  0  0  0  0  0  0  0  0  0  0
    1.1219    0.0155    0.7762 C   0  0  0  0  0  0  0  0  0  0  0  0
    2.3215   -0.3799    1.2935 O   0  0  0  0  0  0  0  0  0  0  0  0
   -0.2996    3.8576    0.0345 Si  0  0  0  0  0  0  0  0  0  0  0  0
   -0.4952    4.6201    1.7767 C   0  0  0  0  0  0  0  0  0  0  0  0
    0.5701    4.2027    2.7954 C   0  0  0  0  0  0  0  0  0  0  0  0
    0.3032    4.8125    4.1700 C   0  0  0  0  0  0  0  0  0  0  0  0
    1.3596    4.3798    5.1749 C   0  0  0  0  0  0  0  0  0  0  0  0
    1.3214    4.4194   -0.7559 C   0  0  0  0  0  0  0  0  0  0  0  0
   -1.7124    4.4158   -1.0579 C   0  0  0  0  0  0  0  0  0  0  0  0
   -2.2269   -1.0154   -0.2948 O   0  0  0  0  0  0  0  0  0  0  0  0
    0.4338   -2.2981   -0.1184 C   0  0  2  0  0  0  0  0  0  0  0  0
    1.1299   -3.1571    0.9161 C   0  0  0  0  0  0  0  0  0  0  0  0
    2.3877   -3.6238    0.7757 C   0  0  0  0  0  0  0  0  0  0  0  0
    3.2711   -3.2406   -0.3903 C   0  0  0  0  0  0  0  0  0  0  0  0
    2.7082   -2.1522   -1.3065 C   0  0  0  0  0  0  0  0  0  0  0  0
    1.1844   -2.2576   -1.5026 C   0  0  1  0  0  0  0  0  0  0  0  0
    0.8721   -3.3971   -2.4826 C   0  0  0  0  0  0  0  0  0  0  0  0
    0.5084   -4.6426   -2.1340 C   0  0  0  0  0  0  0  0  0  0  0  0
    1.0066   -3.0323   -3.9416 C   0  0  0  0  0  0  0  0  0  0  0  0
    2.9927   -4.5991    1.7402 C   0  0  0  0  0  0  0  0  0  0  0  0
   -2.2721    1.5104   -0.3090 H   0  0  0  0  0  0  0  0  0  0  0  0
    1.8316    2.0120    0.9477 H   0  0  0  0  0  0  0  0  0  0  0  0
    2.1958   -1.2476    1.7092 H   0  0  0  0  0  0  0  0  0  0  0  0
   -1.4869    4.3313    2.1442 H   0  0  0  0  0  0  0  0  0  0  0  0
   -0.4950    5.7092    1.6661 H   0  0  0  0  0  0  0  0  0  0  0  0
    1.5645    4.5052    2.4438 H   0  0  0  0  0  0  0  0  0  0  0  0
    0.5868    3.1120    2.8996 H   0  0  0  0  0  0  0  0  0  0  0  0
   -0.6837    4.4979    4.5292 H   0  0  0  0  0  0  0  0  0  0  0  0
    0.2931    5.9058    4.0998 H   0  0  0  0  0  0  0  0  0  0  0  0
    1.3734    3.2904    5.2852 H   0  0  0  0  0  0  0  0  0  0  0  0
    1.1519    4.8174    6.1558 H   0  0  0  0  0  0  0  0  0  0  0  0
    2.3564    4.7052    4.8599 H   0  0  0  0  0  0  0  0  0  0  0  0
    2.1813    4.1290   -0.1457 H   0  0  0  0  0  0  0  0  0  0  0  0
    1.3392    5.5055   -0.8765 H   0  0  0  0  0  0  0  0  0  0  0  0
    1.4367    3.9618   -1.7444 H   0  0  0  0  0  0  0  0  0  0  0  0
   -2.6791    4.1256   -0.6375 H   0  0  0  0  0  0  0  0  0  0  0  0
   -1.6271    3.9858   -2.0601 H   0  0  0  0  0  0  0  0  0  0  0  0
   -1.7046    5.5063   -1.1596 H   0  0  0  0  0  0  0  0  0  0  0  0
   -2.1915   -1.8450    0.2058 H   0  0  0  0  0  0  0  0  0  0  0  0
   -0.5247   -2.8017   -0.2911 H   0  0  0  0  0  0  0  0  0  0  0  0
    0.5272   -3.4664    1.7688 H   0  0  0  0  0  0  0  0  0  0  0  0
    3.4661   -4.1399   -0.9867 H   0  0  0  0  0  0  0  0  0  0  0  0
    4.2417   -2.8980   -0.0094 H   0  0  0  0  0  0  0  0  0  0  0  0
    3.2371   -2.1868   -2.2667 H   0  0  0  0  0  0  0  0  0  0  0  0
    2.9617   -1.1685   -0.8995 H   0  0  0  0  0  0  0  0  0  0  0  0
    0.8580   -1.3420   -2.0189 H   0  0  0  0  0  0  0  0  0  0  0  0
    0.3158   -5.4065   -2.8816 H   0  0  0  0  0  0  0  0  0  0  0  0
    0.4170   -4.9576   -1.0993 H   0  0  0  0  0  0  0  0  0  0  0  0
    0.7838   -3.8767   -4.6010 H   0  0  0  0  0  0  0  0  0  0  0  0
    2.0257   -2.7012   -4.1663 H   0  0  0  0  0  0  0  0  0  0  0  0
    0.3149   -2.2223   -4.1945 H   0  0  0  0  0  0  0  0  0  0  0  0
    2.2591   -4.9892    2.4507 H   0  0  0  0  0  0  0  0  0  0  0  0
    3.8045   -4.1275    2.3038 H   0  0  0  0  0  0  0  0  0  0  0  0
    3.4059   -5.4566    1.1946 H   0  0  0  0  0  0  0  0  0  0  0  0
  1  6  2  0  0  0  0
  1  2  1  0  0  0  0
  2  3  2  0  0  0  0
  2 15  1  0  0  0  0
  3  4  1  0  0  0  0
  3 26  1  0  0  0  0
  4  5  2  0  0  0  0
  4  8  1  0  0  0  0
  5  6  1  0  0  0  0
  5 27  1  0  0  0  0
  6  7  1  0  0  0  0
  7 28  1  0  0  0  0
  8  9  1  0  0  0  0
  8 13  1  0  0  0  0
  8 14  1  0  0  0  0
  9 10  1  0  0  0  0
  9 29  1  0  0  0  0
  9 30  1  0  0  0  0
 10 11  1  0  0  0  0
 10 31  1  0  0  0  0
 10 32  1  0  0  0  0
 11 12  1  0  0  0  0
 11 33  1  0  0  0  0
 11 34  1  0  0  0  0
 12 35  1  0  0  0  0
 12 36  1  0  0  0  0
 12 37  1  0  0  0  0
 13 38  1  0  0  0  0
 13 39  1  0  0  0  0
 13 40  1  0  0  0  0
 14 41  1  0  0  0  0
 14 42  1  0  0  0  0
 14 43  1  0  0  0  0
 15 44  1  0  0  0  0
 16  1  1  0  0  0  0
 16 17  1  0  0  0  0
 16 21  1  0  0  0  0
 16 45  1  6  0  0  0
 17 18  2  0  0  0  0
 17 46  1  0  0  0  0
 18 19  1  0  0  0  0
 18 25  1  0  0  0  0
 19 20  1  0  0  0  0
 19 47  1  0  0  0  0
 19 48  1  0  0  0  0
 20 21  1  0  0  0  0
 20 49  1  0  0  0  0
 20 50  1  0  0  0  0
 21 22  1  0  0  0  0
 21 51  1  6  0  0  0
 22 23  2  0  0  0  0
 22 24  1  0  0  0  0
 23 52  1  0  0  0  0
 23 53  1  0  0  0  0
 24 54  1  0  0  0  0
 24 55  1  0  0  0  0
 24 56  1  0  0  0  0
 25 57  1  0  0  0  0
 25 58  1  0  0  0  0
 25 59  1  0  0  0  0
M  END
$$$$
CHEMBL4872695
 OpenBabel12022418113D

 56 62  0  0  1  0  0  0  0  0999 V2000
    4.6267   -0.7251   -2.7553 C   0  0  0  0  0  0  0  0  0  0  0  0
    4.9218   -0.2112   -1.3472 C   0  0  0  0  0  0  0  0  0  0  0  0
    3.5874   -0.2962   -0.6086 C   0  0  1  0  0  0  0  0  0  0  0  0
    2.7769    0.9469   -0.7411 C   0  0  0  0  0  0  0  0  0  0  0  0
    2.1450    1.2702   -1.9369 C   0  0  0  0  0  0  0  0  0  0  0  0
    2.3706    0.4487   -3.1583 C   0  0  0  0  0  0  0  0  0  0  0  0
    3.1117   -0.8709   -2.7926 C   0  0  2  0  0  0  0  0  0  0  0  0
    2.8371   -1.2529   -1.4148 O   0  0  0  0  0  0  0  0  0  0  0  0
    1.0357    2.0003   -1.4739 C   0  0  0  0  0  0  0  0  0  0  0  0
   -0.3855    1.7658   -1.7969 C   0  0  0  0  0  0  0  0  0  0  0  0
   -0.7786    1.3052   -2.8612 O   0  0  0  0  0  0  0  0  0  0  0  0
   -1.1772    1.9563   -0.6801 N   0  0  0  0  0  0  0  0  0  0  0  0
   -2.5347    1.5036   -0.5333 C   0  0  1  0  0  0  0  0  0  0  0  0
   -3.4827    2.1258   -1.5744 C   0  0  0  0  0  0  0  0  0  0  0  0
   -4.8065    2.0965   -0.8169 C   0  0  1  0  0  0  0  0  0  0  0  0
   -5.2088    0.6184   -0.5455 C   0  0  0  0  0  0  0  0  0  0  0  0
   -4.0724   -0.1609    0.1813 C   0  0  1  0  0  0  0  0  0  0  0  0
   -2.7468   -0.0252   -0.5847 C   0  0  0  0  0  0  0  0  0  0  0  0
   -3.6958    0.5926    1.4557 C   0  0  0  0  0  0  0  0  0  0  0  0
   -3.1556    1.9073    0.8653 C   0  0  2  0  0  0  0  0  0  0  0  0
   -4.3647    2.7690    0.4861 C   0  0  0  0  0  0  0  0  0  0  0  0
    1.3907    2.6597   -0.3517 N   0  0  0  0  0  0  0  0  0  0  0  0
    2.2958    1.8019    0.2122 N   0  0  0  0  0  0  0  0  0  0  0  0
    2.2639    1.7926    1.6225 C   0  0  0  0  0  0  0  0  0  0  0  0
    1.7827    0.6643    2.2916 C   0  0  0  0  0  0  0  0  0  0  0  0
    1.2871    0.7861    3.5867 C   0  0  0  0  0  0  0  0  0  0  0  0
    1.3092    2.0240    4.2211 C   0  0  0  0  0  0  0  0  0  0  0  0
    1.8414    3.1452    3.5953 C   0  0  0  0  0  0  0  0  0  0  0  0
    2.3045    3.0366    2.2866 C   0  0  0  0  0  0  0  0  0  0  0  0
    0.7552    2.1533    5.4340 F   0  0  0  0  0  0  0  0  0  0  0  0
    1.6363   -0.5115    1.6692 F   0  0  0  0  0  0  0  0  0  0  0  0
    5.0347   -0.0943   -3.5483 H   0  0  0  0  0  0  0  0  0  0  0  0
    5.0746   -1.7220   -2.8647 H   0  0  0  0  0  0  0  0  0  0  0  0
    5.3473    0.7989   -1.3516 H   0  0  0  0  0  0  0  0  0  0  0  0
    5.6567   -0.8746   -0.8756 H   0  0  0  0  0  0  0  0  0  0  0  0
    3.6821   -0.6625    0.4128 H   0  0  0  0  0  0  0  0  0  0  0  0
    1.4167    0.2170   -3.6396 H   0  0  0  0  0  0  0  0  0  0  0  0
    2.9570    1.0259   -3.8858 H   0  0  0  0  0  0  0  0  0  0  0  0
    2.7998   -1.6671   -3.4758 H   0  0  0  0  0  0  0  0  0  0  0  0
   -0.6777    2.3120    0.1312 H   0  0  0  0  0  0  0  0  0  0  0  0
   -3.5196    1.5617   -2.5127 H   0  0  0  0  0  0  0  0  0  0  0  0
   -3.1863    3.1536   -1.8173 H   0  0  0  0  0  0  0  0  0  0  0  0
   -5.5965    2.6477   -1.3319 H   0  0  0  0  0  0  0  0  0  0  0  0
   -5.4438    0.1219   -1.4939 H   0  0  0  0  0  0  0  0  0  0  0  0
   -6.1157    0.6004    0.0713 H   0  0  0  0  0  0  0  0  0  0  0  0
   -4.3527   -1.2009    0.3703 H   0  0  0  0  0  0  0  0  0  0  0  0
   -2.8116   -0.4234   -1.6026 H   0  0  0  0  0  0  0  0  0  0  0  0
   -1.9411   -0.5639   -0.0687 H   0  0  0  0  0  0  0  0  0  0  0  0
   -2.9111    0.0591    2.0072 H   0  0  0  0  0  0  0  0  0  0  0  0
   -4.5441    0.7354    2.1330 H   0  0  0  0  0  0  0  0  0  0  0  0
   -2.4758    2.4127    1.5569 H   0  0  0  0  0  0  0  0  0  0  0  0
   -4.0496    3.8045    0.3080 H   0  0  0  0  0  0  0  0  0  0  0  0
   -5.1492    2.7777    1.2488 H   0  0  0  0  0  0  0  0  0  0  0  0
    0.8220   -0.0639    4.0732 H   0  0  0  0  0  0  0  0  0  0  0  0
    1.8297    4.1039    4.1018 H   0  0  0  0  0  0  0  0  0  0  0  0
    2.6295    3.9325    1.7588 H   0  0  0  0  0  0  0  0  0  0  0  0
  1  7  1  0  0  0  0
  1  2  1  0  0  0  0
  1 32  1  0  0  0  0
  1 33  1  0  0  0  0
  2 34  1  0  0  0  0
  2 35  1  0  0  0  0
  3  2  1  0  0  0  0
  3  4  1  0  0  0  0
  3  8  1  0  0  0  0
  3 36  1  1  0  0  0
  4 23  1  0  0  0  0
  4  5  2  0  0  0  0
  5  6  1  0  0  0  0
  5  9  1  0  0  0  0
  6 37  1  0  0  0  0
  6 38  1  0  0  0  0
  7  6  1  0  0  0  0
  7  8  1  0  0  0  0
  7 39  1  6  0  0  0
  9 10  1  0  0  0  0
  9 22  2  0  0  0  0
 10 11  2  0  0  0  0
 10 12  1  0  0  0  0
 12 40  1  0  0  0  0
 13 12  1  6  0  0  0
 13 18  1  0  0  0  0
 13 20  1  0  0  0  0
 13 14  1  0  0  0  0
 14 41  1  0  0  0  0
 14 42  1  0  0  0  0
 15 14  1  0  0  0  0
 15 16  1  0  0  0  0
 15 21  1  0  0  0  0
 15 43  1  6  0  0  0
 16 44  1  0  0  0  0
 16 45  1  0  0  0  0
 17 16  1  0  0  0  0
 17 18  1  0  0  0  0
 17 19  1  0  0  0  0
 17 46  1  1  0  0  0
 18 47  1  0  0  0  0
 18 48  1  0  0  0  0
 19 49  1  0  0  0  0
 19 50  1  0  0  0  0
 20 19  1  0  0  0  0
 20 21  1  0  0  0  0
 20 51  1  1  0  0  0
 21 52  1  0  0  0  0
 21 53  1  0  0  0  0
 22 23  1  0  0  0  0
 23 24  1  0  0  0  0
 24 29  2  0  0  0  0
 24 25  1  0  0  0  0
 25 26  2  0  0  0  0
 25 31  1  0  0  0  0
 26 27  1  0  0  0  0
 26 54  1  0  0  0  0
 27 28  2  0  0  0  0
 27 30  1  0  0  0  0
 28 29  1  0  0  0  0
 28 55  1  0  0  0  0
 29 56  1  0  0  0  0
M  END
$$$$
CHEMBL3234696
 OpenBabel12022418113D

 50 53  0  0  0  0  0  0  0  0999 V2000
    0.9098    0.7176    2.4386 C   0  0  0  0  0  0  0  0  0  0  0  0
    2.4188    0.8583    2.5687 C   0  0  0  0  0  0  0  0  0  0  0  0
    3.1029    0.8114    1.2042 C   0  0  0  0  0  0  0  0  0  0  0  0
    4.5568    0.8933    1.3083 N   0  0  0  0  0  0  0  0  0  0  0  0
    5.3199    2.0523    1.3349 C   0  0  0  0  0  0  0  0  0  0  0  0
    4.7285    3.4189    1.1670 C   0  0  0  0  0  0  0  0  0  0  0  0
    6.6591    1.6631    1.4840 C   0  0  0  0  0  0  0  0  0  0  0  0
    7.8786    2.4761    1.6158 C   0  0  0  0  0  0  0  0  0  0  0  0
    8.9013    2.1854    1.0023 O   0  0  0  0  0  0  0  0  0  0  0  0
    7.7954    3.6269    2.4899 C   0  0  0  0  0  0  0  0  0  0  0  0
    6.9828    3.8600    3.6120 C   0  0  0  0  0  0  0  0  0  0  0  0
    6.9141    5.2449    3.6639 C   0  0  0  0  0  0  0  0  0  0  0  0
    6.0438    6.1142    4.3046 C   0  0  0  0  0  0  0  0  0  0  0  0
    6.0835    7.3156    3.6038 C   0  0  0  0  0  0  0  0  0  0  0  0
    7.4350    7.3999    2.4907 S   0  0  0  0  0  0  0  0  0  0  0  0
    7.7471    5.7936    2.7721 C   0  0  0  0  0  0  0  0  0  0  0  0
    8.5505    4.7941    2.3344 N   0  0  0  0  0  0  0  0  0  0  0  0
    9.9247    4.8992    1.8774 C   0  0  0  0  0  0  0  0  0  0  0  0
   10.9611    4.6828    2.9984 C   0  0  0  0  0  0  0  0  0  0  0  0
   10.9409    3.3026    3.6483 C   0  0  0  0  0  0  0  0  0  0  0  0
    6.6901    0.2367    1.3782 C   0  0  0  0  0  0  0  0  0  0  0  0
    7.7447   -0.7025    1.3369 C   0  0  0  0  0  0  0  0  0  0  0  0
    7.4668   -2.0631    1.2782 C   0  0  0  0  0  0  0  0  0  0  0  0
    6.1498   -2.5071    1.2803 C   0  0  0  0  0  0  0  0  0  0  0  0
    5.0843   -1.5955    1.3065 C   0  0  0  0  0  0  0  0  0  0  0  0
    5.3777   -0.2241    1.3358 C   0  0  0  0  0  0  0  0  0  0  0  0
    0.4346    0.7889    3.4222 H   0  0  0  0  0  0  0  0  0  0  0  0
    0.6424   -0.2513    2.0041 H   0  0  0  0  0  0  0  0  0  0  0  0
    0.4940    1.5055    1.8027 H   0  0  0  0  0  0  0  0  0  0  0  0
    2.7989    0.0534    3.2094 H   0  0  0  0  0  0  0  0  0  0  0  0
    2.6523    1.8021    3.0753 H   0  0  0  0  0  0  0  0  0  0  0  0
    2.7520    1.6134    0.5491 H   0  0  0  0  0  0  0  0  0  0  0  0
    2.8541   -0.1190    0.6825 H   0  0  0  0  0  0  0  0  0  0  0  0
    3.6736    3.4080    0.8839 H   0  0  0  0  0  0  0  0  0  0  0  0
    5.2579    3.9638    0.3784 H   0  0  0  0  0  0  0  0  0  0  0  0
    4.7846    3.9948    2.0912 H   0  0  0  0  0  0  0  0  0  0  0  0
    6.3412    3.1398    4.1002 H   0  0  0  0  0  0  0  0  0  0  0  0
    5.3335    5.8781    5.0848 H   0  0  0  0  0  0  0  0  0  0  0  0
    5.3992    8.1486    3.6792 H   0  0  0  0  0  0  0  0  0  0  0  0
   10.0571    5.9069    1.4685 H   0  0  0  0  0  0  0  0  0  0  0  0
   10.0912    4.2018    1.0545 H   0  0  0  0  0  0  0  0  0  0  0  0
   10.8237    5.4368    3.7830 H   0  0  0  0  0  0  0  0  0  0  0  0
   11.9635    4.8433    2.5816 H   0  0  0  0  0  0  0  0  0  0  0  0
    9.9995    3.1121    4.1706 H   0  0  0  0  0  0  0  0  0  0  0  0
   11.7390    3.2268    4.3959 H   0  0  0  0  0  0  0  0  0  0  0  0
   11.0991    2.5109    2.9101 H   0  0  0  0  0  0  0  0  0  0  0  0
    8.7795   -0.3613    1.3380 H   0  0  0  0  0  0  0  0  0  0  0  0
    8.2833   -2.7808    1.2338 H   0  0  0  0  0  0  0  0  0  0  0  0
    5.9450   -3.5691    1.2431 H   0  0  0  0  0  0  0  0  0  0  0  0
    4.0623   -1.9602    1.2925 H   0  0  0  0  0  0  0  0  0  0  0  0
  1  2  1  0  0  0  0
  1 27  1  0  0  0  0
  1 28  1  0  0  0  0
  1 29  1  0  0  0  0
  2  3  1  0  0  0  0
  2 30  1  0  0  0  0
  2 31  1  0  0  0  0
  3  4  1  0  0  0  0
  3 32  1  0  0  0  0
  3 33  1  0  0  0  0
  4 26  1  0  0  0  0
  4  5  1  0  0  0  0
  5  6  1  0  0  0  0
  5  7  2  0  0  0  0
  6 34  1  0  0  0  0
  6 35  1  0  0  0  0
  6 36  1  0  0  0  0
  7  8  1  0  0  0  0
  7 21  1  0  0  0  0
  8  9  2  0  0  0  0
  8 10  1  0  0  0  0
 10 17  1  0  0  0  0
 10 11  2  0  0  0  0
 11 12  1  0  0  0  0
 11 37  1  0  0  0  0
 12 16  2  0  0  0  0
 12 13  1  0  0  0  0
 13 14  2  0  0  0  0
 13 38  1  0  0  0  0
 14 15  1  0  0  0  0
 14 39  1  0  0  0  0
 15 16  1  0  0  0  0
 16 17  1  0  0  0  0
 17 18  1  0  0  0  0
 18 19  1  0  0  0  0
 18 40  1  0  0  0  0
 18 41  1  0  0  0  0
 19 20  1  0  0  0  0
 19 42  1  0  0  0  0
 19 43  1  0  0  0  0
 20 44  1  0  0  0  0
 20 45  1  0  0  0  0
 20 46  1  0  0  0  0
 21 26  2  0  0  0  0
 21 22  1  0  0  0  0
 22 23  2  0  0  0  0
 22 47  1  0  0  0  0
 23 24  1  0  0  0  0
 23 48  1  0  0  0  0
 24 25  2  0  0  0  0
 24 49  1  0  0  0  0
 25 26  1  0  0  0  0
 25 50  1  0  0  0  0
M  END
$$$$
CHEMBL3650113
 OpenBabel12022418113D

 63 64  0  0  0  0  0  0  0  0999 V2000
    6.5625   -0.4322   -1.7487 C   0  0  0  0  0  0  0  0  0  0  0  0
    5.3439   -0.4126   -0.8407 C   0  0  0  0  0  0  0  0  0  0  0  0
    5.7499   -0.6336    0.6148 C   0  0  0  0  0  0  0  0  0  0  0  0
    4.5424   -0.5851    1.5437 C   0  0  0  0  0  0  0  0  0  0  0  0
    4.9336   -0.8068    2.9272 N   0  0  0  0  0  0  0  0  0  0  0  0
    5.1277    0.1579    3.8997 C   0  0  0  0  0  0  0  0  0  0  0  0
    5.2421    1.4363    4.0133 N   0  0  0  0  0  0  0  0  0  0  0  0
    5.2884    2.3021    2.9501 C   0  0  0  0  0  0  0  0  0  0  0  0
    5.5729    1.9972    1.7981 O   0  0  0  0  0  0  0  0  0  0  0  0
    5.0238    3.7460    3.2582 C   0  0  0  0  0  0  0  0  0  0  0  0
    4.4049    4.0762    4.4790 C   0  0  0  0  0  0  0  0  0  0  0  0
    4.0350    5.3996    4.7765 C   0  0  0  0  0  0  0  0  0  0  0  0
    3.2032    5.7180    5.9949 C   0  0  0  0  0  0  0  0  0  0  0  0
    2.8747    4.6198    6.7291 F   0  0  0  0  0  0  0  0  0  0  0  0
    3.8192    6.5764    6.8505 F   0  0  0  0  0  0  0  0  0  0  0  0
    2.0200    6.3050    5.6592 F   0  0  0  0  0  0  0  0  0  0  0  0
    4.3862    6.4198    3.8850 C   0  0  0  0  0  0  0  0  0  0  0  0
    5.0307    6.1139    2.6888 C   0  0  0  0  0  0  0  0  0  0  0  0
    5.3051    4.7801    2.3409 C   0  0  0  0  0  0  0  0  0  0  0  0
    5.8853    4.5001    1.1143 O   0  0  0  0  0  0  0  0  0  0  0  0
    5.3712    5.3796    0.1388 N   0  0  0  0  0  0  0  0  0  0  0  0
    5.9709    5.2661   -1.0098 C   0  0  0  0  0  0  0  0  0  0  0  0
    7.0875    4.3119   -1.3468 C   0  0  0  0  0  0  0  0  0  0  0  0
    6.5233    2.9987   -1.8391 C   0  0  0  0  0  0  0  0  0  0  0  0
    5.4889    6.1392   -2.1569 C   0  0  0  0  0  0  0  0  0  0  0  0
    5.4297    5.7437   -3.3103 O   0  0  0  0  0  0  0  0  0  0  0  0
    5.1700    7.3797   -1.6860 O   0  0  0  0  0  0  0  0  0  0  0  0
    4.7691    8.3002   -2.7666 N   0  0  0  0  0  0  0  0  0  0  0  0
    5.2493   -0.7173    5.4594 S   0  0  0  0  0  0  0  0  0  0  0  0
    5.1723   -2.2396    4.5807 C   0  0  0  0  0  0  0  0  0  0  0  0
    5.3189   -3.5853    5.3163 C   0  0  0  0  0  0  0  0  0  0  0  0
    4.1532   -3.8187    6.2897 C   0  0  0  0  0  0  0  0  0  0  0  0
    5.3172   -4.7471    4.3006 C   0  0  0  0  0  0  0  0  0  0  0  0
    6.6417   -3.6380    6.0986 C   0  0  0  0  0  0  0  0  0  0  0  0
    4.9852   -2.1414    3.3003 N   0  0  0  0  0  0  0  0  0  0  0  0
    6.2798   -0.1852   -2.7767 H   0  0  0  0  0  0  0  0  0  0  0  0
    7.0381   -1.4164   -1.7469 H   0  0  0  0  0  0  0  0  0  0  0  0
    7.3119    0.2885   -1.4119 H   0  0  0  0  0  0  0  0  0  0  0  0
    4.6442   -1.1928   -1.1592 H   0  0  0  0  0  0  0  0  0  0  0  0
    4.8208    0.5450   -0.9437 H   0  0  0  0  0  0  0  0  0  0  0  0
    6.4979    0.1119    0.9050 H   0  0  0  0  0  0  0  0  0  0  0  0
    6.2546   -1.6016    0.7117 H   0  0  0  0  0  0  0  0  0  0  0  0
    3.8387   -1.3789    1.2440 H   0  0  0  0  0  0  0  0  0  0  0  0
    3.9598    0.3397    1.4417 H   0  0  0  0  0  0  0  0  0  0  0  0
    4.1594    3.2897    5.1924 H   0  0  0  0  0  0  0  0  0  0  0  0
    4.1280    7.4558    4.0985 H   0  0  0  0  0  0  0  0  0  0  0  0
    5.2876    6.9223    2.0067 H   0  0  0  0  0  0  0  0  0  0  0  0
    7.7222    4.1471   -0.4714 H   0  0  0  0  0  0  0  0  0  0  0  0
    7.7227    4.7521   -2.1239 H   0  0  0  0  0  0  0  0  0  0  0  0
    5.8448    2.5653   -1.0990 H   0  0  0  0  0  0  0  0  0  0  0  0
    7.3444    2.3051   -2.0256 H   0  0  0  0  0  0  0  0  0  0  0  0
    5.9652    3.1123   -2.7739 H   0  0  0  0  0  0  0  0  0  0  0  0
    4.0112    8.8121   -2.3139 H   0  0  0  0  0  0  0  0  0  0  0  0
    4.3067    7.6715   -3.4346 H   0  0  0  0  0  0  0  0  0  0  0  0
    3.1917   -3.8216    5.7654 H   0  0  0  0  0  0  0  0  0  0  0  0
    4.1079   -3.0507    7.0673 H   0  0  0  0  0  0  0  0  0  0  0  0
    4.2578   -4.7877    6.7956 H   0  0  0  0  0  0  0  0  0  0  0  0
    4.3730   -4.7900    3.7445 H   0  0  0  0  0  0  0  0  0  0  0  0
    5.4447   -5.7159    4.8009 H   0  0  0  0  0  0  0  0  0  0  0  0
    6.1268   -4.6455    3.5687 H   0  0  0  0  0  0  0  0  0  0  0  0
    6.6832   -2.8783    6.8863 H   0  0  0  0  0  0  0  0  0  0  0  0
    7.4986   -3.4741    5.4366 H   0  0  0  0  0  0  0  0  0  0  0  0
    6.7765   -4.6124    6.5849 H   0  0  0  0  0  0  0  0  0  0  0  0
  1  2  1  0  0  0  0
  1 36  1  0  0  0  0
  1 37  1  0  0  0  0
  1 38  1  0  0  0  0
  2  3  1  0  0  0  0
  2 39  1  0  0  0  0
  2 40  1  0  0  0  0
  3  4  1  0  0  0  0
  3 41  1  0  0  0  0
  3 42  1  0  0  0  0
  4  5  1  0  0  0  0
  4 43  1  0  0  0  0
  4 44  1  0  0  0  0
  5 35  1  0  0  0  0
  5  6  1  0  0  0  0
  6  7  2  0  0  0  0
  6 29  1  0  0  0  0
  7  8  1  0  0  0  0
  8  9  2  0  0  0  0
  8 10  1  0  0  0  0
 10 19  2  0  0  0  0
 10 11  1  0  0  0  0
 11 12  2  0  0  0  0
 11 45  1  0  0  0  0
 12 13  1  0  0  0  0
 12 17  1  0  0  0  0
 13 14  1  0  0  0  0
 13 15  1  0  0  0  0
 13 16  1  0  0  0  0
 17 18  2  0  0  0  0
 17 46  1  0  0  0  0
 18 19  1  0  0  0  0
 18 47  1  0  0  0  0
 19 20  1  0  0  0  0
 20 21  1  0  0  0  0
 21 22  2  0  0  0  0
 22 23  1  0  0  0  0
 22 25  1  0  0  0  0
 23 24  1  0  0  0  0
 23 48  1  0  0  0  0
 23 49  1  0  0  0  0
 24 50  1  0  0  0  0
 24 51  1  0  0  0  0
 24 52  1  0  0  0  0
 25 26  2  0  0  0  0
 25 27  1  0  0  0  0
 27 28  1  0  0  0  0
 28 53  1  0  0  0  0
 28 54  1  0  0  0  0
 29 30  1  0  0  0  0
 30 31  1  0  0  0  0
 30 35  2  0  0  0  0
 31 32  1  0  0  0  0
 31 33  1  0  0  0  0
 31 34  1  0  0  0  0
 32 55  1  0  0  0  0
 32 56  1  0  0  0  0
 32 57  1  0  0  0  0
 33 58  1  0  0  0  0
 33 59  1  0  0  0  0
 33 60  1  0  0  0  0
 34 61  1  0  0  0  0
 34 62  1  0  0  0  0
 34 63  1  0  0  0  0
M  END
$$$$
CHEMBL3696823
 OpenBabel12022418113D

 47 48  0  0  0  0  0  0  0  0999 V2000
    0.9301    0.0597    0.2893 C   0  0  0  0  0  0  0  0  0  0  0  0
    2.4490    0.1101    0.0261 C   0  0  0  0  0  0  0  0  0  0  0  0
    2.9849   -1.2769   -0.3930 C   0  0  0  0  0  0  0  0  0  0  0  0
    2.5660   -1.6567   -1.8198 C   0  0  0  0  0  0  0  0  0  0  0  0
    3.0496   -0.6187   -2.8444 C   0  0  0  0  0  0  0  0  0  0  0  0
    2.5161    0.8006   -2.5325 C   0  0  0  0  0  0  0  0  0  0  0  0
    2.8354    1.1616   -1.0530 C   0  0  0  0  0  0  0  0  0  0  0  0
    1.0114    0.9123   -2.8549 C   0  0  0  0  0  0  0  0  0  0  0  0
    3.2241    1.8123   -3.4618 C   0  0  0  0  0  0  0  0  0  0  0  0
    2.9731   -3.0252   -2.1650 N   0  0  0  0  0  0  0  0  0  0  0  0
    1.9982   -3.9590   -2.4832 C   0  0  0  0  0  0  0  0  0  0  0  0
    0.7943   -3.6911   -2.5150 O   0  0  0  0  0  0  0  0  0  0  0  0
    2.4785   -5.3473   -2.7867 C   0  0  0  0  0  0  0  0  0  0  0  0
    3.7789   -5.7031   -2.7619 C   0  0  0  0  0  0  0  0  0  0  0  0
    4.6531   -4.5318   -2.4106 C   0  0  0  0  0  0  0  0  0  0  0  0
    4.3065   -3.3206   -2.1372 N   0  0  0  0  0  0  0  0  0  0  0  0
    4.4034   -6.9460   -3.0196 N   0  0  0  0  0  0  0  0  0  0  0  0
    3.8768   -7.9732   -3.9288 C   0  0  0  0  0  0  0  0  0  0  0  0
    5.6712   -7.3770   -2.4159 C   0  0  0  0  0  0  0  0  0  0  0  0
    1.1832   -6.4728   -3.0815 Cl  0  0  0  0  0  0  0  0  0  0  0  0
    3.1004    0.5036    1.3707 C   0  0  0  0  0  0  0  0  0  0  0  0
    0.3643   -0.4346   -0.4991 H   0  0  0  0  0  0  0  0  0  0  0  0
    0.5184    1.0665    0.4168 H   0  0  0  0  0  0  0  0  0  0  0  0
    0.7098   -0.5061    1.2024 H   0  0  0  0  0  0  0  0  0  0  0  0
    2.6354   -2.0436    0.3108 H   0  0  0  0  0  0  0  0  0  0  0  0
    4.0816   -1.2806   -0.3248 H   0  0  0  0  0  0  0  0  0  0  0  0
    1.4755   -1.6457   -1.8478 H   0  0  0  0  0  0  0  0  0  0  0  0
    2.7433   -0.9207   -3.8548 H   0  0  0  0  0  0  0  0  0  0  0  0
    4.1483   -0.6028   -2.8538 H   0  0  0  0  0  0  0  0  0  0  0  0
    3.9245    1.3089   -0.9850 H   0  0  0  0  0  0  0  0  0  0  0  0
    2.3945    2.1350   -0.8011 H   0  0  0  0  0  0  0  0  0  0  0  0
    0.4136    0.1002   -2.4443 H   0  0  0  0  0  0  0  0  0  0  0  0
    0.8394    0.8818   -3.9374 H   0  0  0  0  0  0  0  0  0  0  0  0
    0.5968    1.8549   -2.4811 H   0  0  0  0  0  0  0  0  0  0  0  0
    4.3113    1.7878   -3.3355 H   0  0  0  0  0  0  0  0  0  0  0  0
    2.8838    2.8353   -3.2632 H   0  0  0  0  0  0  0  0  0  0  0  0
    3.0111    1.5926   -4.5154 H   0  0  0  0  0  0  0  0  0  0  0  0
    5.7353   -4.7319   -2.4022 H   0  0  0  0  0  0  0  0  0  0  0  0
    2.9693   -7.6889   -4.4565 H   0  0  0  0  0  0  0  0  0  0  0  0
    3.6854   -8.9012   -3.3718 H   0  0  0  0  0  0  0  0  0  0  0  0
    4.6191   -8.1911   -4.6998 H   0  0  0  0  0  0  0  0  0  0  0  0
    6.0936   -6.6614   -1.7075 H   0  0  0  0  0  0  0  0  0  0  0  0
    6.4116   -7.5658   -3.2008 H   0  0  0  0  0  0  0  0  0  0  0  0
    5.5163   -8.3120   -1.8656 H   0  0  0  0  0  0  0  0  0  0  0  0
    2.7571    1.4907    1.7005 H   0  0  0  0  0  0  0  0  0  0  0  0
    4.1926    0.5316    1.2998 H   0  0  0  0  0  0  0  0  0  0  0  0
    2.8416   -0.2164    2.1571 H   0  0  0  0  0  0  0  0  0  0  0  0
  1  2  1  0  0  0  0
  1 22  1  0  0  0  0
  1 23  1  0  0  0  0
  1 24  1  0  0  0  0
  2  7  1  0  0  0  0
  2  3  1  0  0  0  0
  2 21  1  0  0  0  0
  3  4  1  0  0  0  0
  3 25  1  0  0  0  0
  3 26  1  0  0  0  0
  4  5  1  0  0  0  0
  4 10  1  0  0  0  0
  4 27  1  0  0  0  0
  5  6  1  0  0  0  0
  5 28  1  0  0  0  0
  5 29  1  0  0  0  0
  6  7  1  0  0  0  0
  6  8  1  0  0  0  0
  6  9  1  0  0  0  0
  7 30  1  0  0  0  0
  7 31  1  0  0  0  0
  8 32  1  0  0  0  0
  8 33  1  0  0  0  0
  8 34  1  0  0  0  0
  9 35  1  0  0  0  0
  9 36  1  0  0  0  0
  9 37  1  0  0  0  0
 10 16  1  0  0  0  0
 10 11  1  0  0  0  0
 11 12  2  0  0  0  0
 11 13  1  0  0  0  0
 13 14  2  0  0  0  0
 13 20  1  0  0  0  0
 14 15  1  0  0  0  0
 14 17  1  0  0  0  0
 15 16  2  0  0  0  0
 15 38  1  0  0  0  0
 17 18  1  0  0  0  0
 17 19  1  0  0  0  0
 18 39  1  0  0  0  0
 18 40  1  0  0  0  0
 18 41  1  0  0  0  0
 19 42  1  0  0  0  0
 19 43  1  0  0  0  0
 19 44  1  0  0  0  0
 21 45  1  0  0  0  0
 21 46  1  0  0  0  0
 21 47  1  0  0  0  0
M  END
$$$$
CHEMBL3896334
 OpenBabel12022418113D

 51 54  0  0  0  0  0  0  0  0999 V2000
    4.8600   -1.4047    2.3429 C   0  0  0  0  0  0  0  0  0  0  0  0
    4.0093   -0.2660    2.8757 C   0  0  0  0  0  0  0  0  0  0  0  0
    2.5292   -0.2837    2.7530 N   0  0  0  0  0  0  0  0  0  0  0  0
    1.8500   -1.3179    2.0633 C   0  0  0  0  0  0  0  0  0  0  0  0
    2.4238   -2.2910    1.5699 O   0  0  0  0  0  0  0  0  0  0  0  0
    0.3552   -1.2568    1.8566 C   0  0  0  0  0  0  0  0  0  0  0  0
   -0.1864   -1.7603    0.6829 C   0  0  0  0  0  0  0  0  0  0  0  0
   -1.5591   -1.6143    0.4541 C   0  0  0  0  0  0  0  0  0  0  0  0
   -2.3902   -1.0086    1.4046 C   0  0  0  0  0  0  0  0  0  0  0  0
   -1.7615   -0.6714    2.6161 C   0  0  0  0  0  0  0  0  0  0  0  0
   -0.4139   -0.7336    2.8355 N   0  0  0  0  0  0  0  0  0  0  0  0
   -2.5755   -0.3235    3.6901 O   0  0  0  0  0  0  0  0  0  0  0  0
   -1.8433   -0.3225    4.9150 C   0  0  0  0  0  0  0  0  0  0  0  0
   -2.7547   -0.2629    6.0966 C   0  0  0  0  0  0  0  0  0  0  0  0
   -2.2946    0.5050    7.3149 C   0  0  0  0  0  0  0  0  0  0  0  0
   -3.4567    1.0051    6.5017 C   0  0  0  0  0  0  0  0  0  0  0  0
   -3.7640   -0.8125    1.1273 N   0  0  0  0  0  0  0  0  0  0  0  0
   -4.4112   -0.7778   -0.1554 C   0  0  0  0  0  0  0  0  0  0  0  0
   -5.2374    0.4285    0.3078 C   0  0  0  0  0  0  0  0  0  0  0  0
   -4.6627    0.1516    1.7048 C   0  0  0  0  0  0  0  0  0  0  0  0
   -6.5810    0.3188    0.1720 F   0  0  0  0  0  0  0  0  0  0  0  0
   -4.8953    1.6189   -0.2469 F   0  0  0  0  0  0  0  0  0  0  0  0
    1.8752    0.9803    3.2149 C   0  0  0  0  0  0  0  0  0  0  0  0
    1.3004    0.9945    4.6318 C   0  0  0  0  0  0  0  0  0  0  0  0
    2.5285    1.7741    4.3712 C   0  0  0  0  0  0  0  0  0  0  0  0
    1.1920    1.8514    2.1412 C   0  0  0  0  0  0  0  0  0  0  0  0
    1.2511    1.2871    0.9102 F   0  0  0  0  0  0  0  0  0  0  0  0
   -0.1117    2.0809    2.4309 F   0  0  0  0  0  0  0  0  0  0  0  0
    1.7992    3.0619    2.0498 F   0  0  0  0  0  0  0  0  0  0  0  0
    5.9180   -1.1676    2.5114 H   0  0  0  0  0  0  0  0  0  0  0  0
    4.7283   -1.5534    1.2694 H   0  0  0  0  0  0  0  0  0  0  0  0
    4.6500   -2.3385    2.8738 H   0  0  0  0  0  0  0  0  0  0  0  0
    4.3517    0.6671    2.4120 H   0  0  0  0  0  0  0  0  0  0  0  0
    4.2280   -0.2104    3.9464 H   0  0  0  0  0  0  0  0  0  0  0  0
    0.4431   -2.2425   -0.0592 H   0  0  0  0  0  0  0  0  0  0  0  0
   -1.9711   -1.9909   -0.4784 H   0  0  0  0  0  0  0  0  0  0  0  0
   -1.2172    0.5639    4.9238 H   0  0  0  0  0  0  0  0  0  0  0  0
   -1.2310   -1.2272    5.0200 H   0  0  0  0  0  0  0  0  0  0  0  0
   -3.2608   -1.2068    6.2590 H   0  0  0  0  0  0  0  0  0  0  0  0
   -1.3679    1.0699    7.2667 H   0  0  0  0  0  0  0  0  0  0  0  0
   -2.4912    0.0760    8.2900 H   0  0  0  0  0  0  0  0  0  0  0  0
   -4.4464    0.9152    6.9336 H   0  0  0  0  0  0  0  0  0  0  0  0
   -3.3163    1.8878    5.8887 H   0  0  0  0  0  0  0  0  0  0  0  0
   -4.9899   -1.6889   -0.3351 H   0  0  0  0  0  0  0  0  0  0  0  0
   -3.7570   -0.5688   -1.0051 H   0  0  0  0  0  0  0  0  0  0  0  0
   -4.1900    1.0207    2.1677 H   0  0  0  0  0  0  0  0  0  0  0  0
   -5.3667   -0.3199    2.3975 H   0  0  0  0  0  0  0  0  0  0  0  0
    1.3692    0.0743    5.2029 H   0  0  0  0  0  0  0  0  0  0  0  0
    0.4305    1.5989    4.8468 H   0  0  0  0  0  0  0  0  0  0  0  0
    2.4314    2.8562    4.3794 H   0  0  0  0  0  0  0  0  0  0  0  0
    3.4206    1.4393    4.8807 H   0  0  0  0  0  0  0  0  0  0  0  0
  1  2  1  0  0  0  0
  1 30  1  0  0  0  0
  1 31  1  0  0  0  0
  1 32  1  0  0  0  0
  2  3  1  0  0  0  0
  2 33  1  0  0  0  0
  2 34  1  0  0  0  0
  3  4  1  0  0  0  0
  3 23  1  0  0  0  0
  4  5  2  0  0  0  0
  4  6  1  0  0  0  0
  6 11  2  0  0  0  0
  6  7  1  0  0  0  0
  7  8  2  0  0  0  0
  7 35  1  0  0  0  0
  8  9  1  0  0  0  0
  8 36  1  0  0  0  0
  9 10  2  0  0  0  0
  9 17  1  0  0  0  0
 10 11  1  0  0  0  0
 10 12  1  0  0  0  0
 12 13  1  0  0  0  0
 13 14  1  0  0  0  0
 13 37  1  0  0  0  0
 13 38  1  0  0  0  0
 14 16  1  0  0  0  0
 14 15  1  0  0  0  0
 14 39  1  0  0  0  0
 15 16  1  0  0  0  0
 15 40  1  0  0  0  0
 15 41  1  0  0  0  0
 16 42  1  0  0  0  0
 16 43  1  0  0  0  0
 17 20  1  0  0  0  0
 17 18  1  0  0  0  0
 18 19  1  0  0  0  0
 18 44  1  0  0  0  0
 18 45  1  0  0  0  0
 19 20  1  0  0  0  0
 19 21  1  0  0  0  0
 19 22  1  0  0  0  0
 20 46  1  0  0  0  0
 20 47  1  0  0  0  0
 23 25  1  0  0  0  0
 23 24  1  0  0  0  0
 23 26  1  0  0  0  0
 24 25  1  0  0  0  0
 24 48  1  0  0  0  0
 24 49  1  0  0  0  0
 25 50  1  0  0  0  0
 25 51  1  0  0  0  0
 26 27  1  0  0  0  0
 26 28  1  0  0  0  0
 26 29  1  0  0  0  0
M  END
$$$$
CHEMBL1338358
 OpenBabel12022418113D

 46 49  0  0  0  0  0  0  0  0999 V2000
    2.8211   -1.0340    0.8408 O   0  0  0  0  0  0  0  0  0  0  0  0
    2.1651   -0.3751    0.0276 C   0  0  0  0  0  0  0  0  0  0  0  0
    2.8654    0.2634   -1.0988 C   0  0  0  0  0  0  0  0  0  0  0  0
    2.6590    1.5478   -1.7951 C   0  0  0  0  0  0  0  0  0  0  0  0
    3.7102    1.6952   -2.6935 C   0  0  0  0  0  0  0  0  0  0  0  0
    3.8213    2.8164   -3.5291 C   0  0  0  0  0  0  0  0  0  0  0  0
    2.8411    3.8163   -3.4457 C   0  0  0  0  0  0  0  0  0  0  0  0
    1.8052    3.7008   -2.5209 C   0  0  0  0  0  0  0  0  0  0  0  0
    1.7175    2.5633   -1.6861 C   0  0  0  0  0  0  0  0  0  0  0  0
    4.5573    0.6116   -2.5519 N   0  0  0  0  0  0  0  0  0  0  0  0
    4.0693   -0.2448   -1.5964 C   0  0  0  0  0  0  0  0  0  0  0  0
    4.8232   -1.4811   -1.2020 C   0  0  0  0  0  0  0  0  0  0  0  0
    5.7896    0.4306   -3.3094 C   0  0  0  0  0  0  0  0  0  0  0  0
    5.5277   -0.3279   -4.6100 C   0  0  0  0  0  0  0  0  0  0  0  0
    6.7817   -0.5113   -5.4436 C   0  0  0  0  0  0  0  0  0  0  0  0
    0.7438   -0.2005    0.3850 C   0  0  0  0  0  0  0  0  0  0  0  0
   -0.3781   -0.0964   -0.4615 C   0  0  0  0  0  0  0  0  0  0  0  0
   -1.6175    0.3198    0.1325 C   0  0  0  0  0  0  0  0  0  0  0  0
   -1.4769    0.9445    1.3458 C   0  0  0  0  0  0  0  0  0  0  0  0
   -0.6715    0.3053    2.2597 C   0  0  0  0  0  0  0  0  0  0  0  0
    0.4842   -0.2583    1.7559 C   0  0  0  0  0  0  0  0  0  0  0  0
   -2.3817    1.9279    1.7114 C   0  0  0  0  0  0  0  0  0  0  0  0
   -3.6695    1.4615    1.7029 C   0  0  0  0  0  0  0  0  0  0  0  0
   -4.0296    0.6368    0.6494 C   0  0  0  0  0  0  0  0  0  0  0  0
   -3.0066    0.0921   -0.1739 C   0  0  0  0  0  0  0  0  0  0  0  0
    4.6409    2.9325   -4.2292 H   0  0  0  0  0  0  0  0  0  0  0  0
    2.9136    4.6896   -4.0804 H   0  0  0  0  0  0  0  0  0  0  0  0
    1.0727    4.5031   -2.4307 H   0  0  0  0  0  0  0  0  0  0  0  0
    0.9142    2.5345   -0.9433 H   0  0  0  0  0  0  0  0  0  0  0  0
    4.2774   -2.1103   -0.4973 H   0  0  0  0  0  0  0  0  0  0  0  0
    5.7787   -1.2216   -0.7316 H   0  0  0  0  0  0  0  0  0  0  0  0
    5.0201   -2.1117   -2.0757 H   0  0  0  0  0  0  0  0  0  0  0  0
    6.5068   -0.0996   -2.6731 H   0  0  0  0  0  0  0  0  0  0  0  0
    6.2299    1.4146   -3.5075 H   0  0  0  0  0  0  0  0  0  0  0  0
    4.7788    0.2067   -5.2052 H   0  0  0  0  0  0  0  0  0  0  0  0
    5.0991   -1.3157   -4.3863 H   0  0  0  0  0  0  0  0  0  0  0  0
    7.2057    0.4546   -5.7335 H   0  0  0  0  0  0  0  0  0  0  0  0
    6.5415   -1.0638   -6.3574 H   0  0  0  0  0  0  0  0  0  0  0  0
    7.5425   -1.0739   -4.8949 H   0  0  0  0  0  0  0  0  0  0  0  0
   -0.3141   -0.3441   -1.5176 H   0  0  0  0  0  0  0  0  0  0  0  0
   -0.9081    0.2947    3.3148 H   0  0  0  0  0  0  0  0  0  0  0  0
    1.2031   -0.6664    2.4634 H   0  0  0  0  0  0  0  0  0  0  0  0
   -2.3141    2.7408    0.9381 H   0  0  0  0  0  0  0  0  0  0  0  0
   -4.2020    1.3979    2.6565 H   0  0  0  0  0  0  0  0  0  0  0  0
   -5.0648    0.3260    0.5621 H   0  0  0  0  0  0  0  0  0  0  0  0
   -3.2861   -0.7142   -0.8508 H   0  0  0  0  0  0  0  0  0  0  0  0
  1  2  2  0  0  0  0
  2  3  1  0  0  0  0
  2 16  1  0  0  0  0
  3 11  2  0  0  0  0
  3  4  1  0  0  0  0
  4  9  2  0  0  0  0
  4  5  1  0  0  0  0
  5  6  2  0  0  0  0
  5 10  1  0  0  0  0
  6  7  1  0  0  0  0
  6 26  1  0  0  0  0
  7  8  2  0  0  0  0
  7 27  1  0  0  0  0
  8  9  1  0  0  0  0
  8 28  1  0  0  0  0
  9 29  1  0  0  0  0
 10 11  1  0  0  0  0
 10 13  1  0  0  0  0
 11 12  1  0  0  0  0
 12 30  1  0  0  0  0
 12 31  1  0  0  0  0
 12 32  1  0  0  0  0
 13 14  1  0  0  0  0
 13 33  1  0  0  0  0
 13 34  1  0  0  0  0
 14 15  1  0  0  0  0
 14 35  1  0  0  0  0
 14 36  1  0  0  0  0
 15 37  1  0  0  0  0
 15 38  1  0  0  0  0
 15 39  1  0  0  0  0
 16 21  2  0  0  0  0
 16 17  1  0  0  0  0
 17 18  2  0  0  0  0
 17 40  1  0  0  0  0
 18 25  1  0  0  0  0
 18 19  1  0  0  0  0
 19 20  2  0  0  0  0
 19 22  1  0  0  0  0
 20 21  1  0  0  0  0
 20 41  1  0  0  0  0
 21 42  1  0  0  0  0
 22 23  2  0  0  0  0
 22 43  1  0  0  0  0
 23 24  1  0  0  0  0
 23 44  1  0  0  0  0
 24 25  2  0  0  0  0
 24 45  1  0  0  0  0
 25 46  1  0  0  0  0
M  END
$$$$
CHEMBL3354942
 OpenBabel12022418113D

 50 54  0  0  1  0  0  0  0  0999 V2000
    4.1105   -1.6509    0.2316 C   0  0  0  0  0  0  0  0  0  0  0  0
    3.0109   -0.6270    0.6099 C   0  0  0  0  0  0  0  0  0  0  0  0
    2.5091    0.0218   -0.7043 C   0  0  0  0  0  0  0  0  0  0  0  0
    1.8829   -1.3905    1.3460 C   0  0  0  0  0  0  0  0  0  0  0  0
    0.5622   -1.4592    0.8603 C   0  0  0  0  0  0  0  0  0  0  0  0
   -0.4270   -2.1875    1.5301 C   0  0  0  0  0  0  0  0  0  0  0  0
   -0.1194   -2.8687    2.7017 C   0  0  0  0  0  0  0  0  0  0  0  0
    1.1761   -2.8187    3.2064 C   0  0  0  0  0  0  0  0  0  0  0  0
    2.1638   -2.0859    2.5394 C   0  0  0  0  0  0  0  0  0  0  0  0
    3.5532    0.4154    1.5034 N   0  0  0  0  0  0  0  0  0  0  0  0
    4.6063    1.2440    1.1662 C   0  0  0  0  0  0  0  0  0  0  0  0
    5.1986    1.1763    0.0937 O   0  0  0  0  0  0  0  0  0  0  0  0
    4.9984    2.2461    2.1733 C   0  0  0  0  0  0  0  0  0  0  0  0
    6.0581    3.1574    2.0176 C   0  0  0  0  0  0  0  0  0  0  0  0
    6.1359    3.8400    3.1934 C   0  0  0  0  0  0  0  0  0  0  0  0
    7.4336    4.6075    3.3007 C   0  0  1  0  0  0  0  0  0  0  0  0
    8.1496    4.2277    1.9775 C   0  0  1  0  0  0  0  0  0  0  0  0
    7.1934    3.4016    1.0954 C   0  0  0  0  0  0  0  0  0  0  0  0
    7.8447    5.6537    2.2971 C   0  0  0  0  0  0  0  0  0  0  0  0
    5.1412    3.4036    4.0075 N   0  0  0  0  0  0  0  0  0  0  0  0
    4.8090    3.9080    5.2841 C   0  0  0  0  0  0  0  0  0  0  0  0
    5.0312    5.2591    5.5869 C   0  0  0  0  0  0  0  0  0  0  0  0
    4.7156    5.7730    6.8394 C   0  0  0  0  0  0  0  0  0  0  0  0
    4.1986    4.9215    7.8032 C   0  0  0  0  0  0  0  0  0  0  0  0
    3.9691    3.5752    7.5247 C   0  0  0  0  0  0  0  0  0  0  0  0
    4.2513    3.0652    6.2525 C   0  0  0  0  0  0  0  0  0  0  0  0
    3.9096    5.4039    9.0184 F   0  0  0  0  0  0  0  0  0  0  0  0
    5.4778    6.1213    4.6623 F   0  0  0  0  0  0  0  0  0  0  0  0
    4.4530    2.3604    3.4151 N   0  0  0  0  0  0  0  0  0  0  0  0
    3.6991   -2.4693   -0.3713 H   0  0  0  0  0  0  0  0  0  0  0  0
    4.5831   -2.0935    1.1156 H   0  0  0  0  0  0  0  0  0  0  0  0
    4.9147   -1.1959   -0.3555 H   0  0  0  0  0  0  0  0  0  0  0  0
    2.1164   -0.7313   -1.3986 H   0  0  0  0  0  0  0  0  0  0  0  0
    3.3027    0.5481   -1.2430 H   0  0  0  0  0  0  0  0  0  0  0  0
    1.7203    0.7586   -0.5111 H   0  0  0  0  0  0  0  0  0  0  0  0
    0.2656   -0.9589   -0.0574 H   0  0  0  0  0  0  0  0  0  0  0  0
   -1.4360   -2.2272    1.1280 H   0  0  0  0  0  0  0  0  0  0  0  0
   -0.8858   -3.4396    3.2184 H   0  0  0  0  0  0  0  0  0  0  0  0
    1.4225   -3.3588    4.1170 H   0  0  0  0  0  0  0  0  0  0  0  0
    3.1682   -2.0753    2.9581 H   0  0  0  0  0  0  0  0  0  0  0  0
    3.1248    0.5820    2.4083 H   0  0  0  0  0  0  0  0  0  0  0  0
    7.9194    4.6675    4.2647 H   0  0  0  0  0  0  0  0  0  0  0  0
    9.1615    3.8543    2.0211 H   0  0  0  0  0  0  0  0  0  0  0  0
    6.8825    3.9769    0.2176 H   0  0  0  0  0  0  0  0  0  0  0  0
    7.6689    2.4685    0.7821 H   0  0  0  0  0  0  0  0  0  0  0  0
    8.6776    6.2961    2.5657 H   0  0  0  0  0  0  0  0  0  0  0  0
    7.0621    6.1714    1.7551 H   0  0  0  0  0  0  0  0  0  0  0  0
    4.8630    6.8257    7.0535 H   0  0  0  0  0  0  0  0  0  0  0  0
    3.5745    2.9312    8.3054 H   0  0  0  0  0  0  0  0  0  0  0  0
    4.0786    2.0117    6.0452 H   0  0  0  0  0  0  0  0  0  0  0  0
  1  2  1  0  0  0  0
  1 30  1  0  0  0  0
  1 31  1  0  0  0  0
  1 32  1  0  0  0  0
  2  3  1  0  0  0  0
  2  4  1  0  0  0  0
  2 10  1  0  0  0  0
  3 33  1  0  0  0  0
  3 34  1  0  0  0  0
  3 35  1  0  0  0  0
  4  9  2  0  0  0  0
  4  5  1  0  0  0  0
  5  6  2  0  0  0  0
  5 36  1  0  0  0  0
  6  7  1  0  0  0  0
  6 37  1  0  0  0  0
  7  8  2  0  0  0  0
  7 38  1  0  0  0  0
  8  9  1  0  0  0  0
  8 39  1  0  0  0  0
  9 40  1  0  0  0  0
 10 11  1  0  0  0  0
 10 41  1  0  0  0  0
 11 12  2  0  0  0  0
 11 13  1  0  0  0  0
 13 29  2  0  0  0  0
 13 14  1  0  0  0  0
 14 18  1  0  0  0  0
 14 15  2  0  0  0  0
 15 16  1  0  0  0  0
 15 20  1  0  0  0  0
 16 17  1  0  0  0  0
 16 19  1  0  0  0  0
 16 42  1  1  0  0  0
 17 18  1  0  0  0  0
 17 19  1  0  0  0  0
 17 43  1  1  0  0  0
 18 44  1  0  0  0  0
 18 45  1  0  0  0  0
 19 46  1  0  0  0  0
 19 47  1  0  0  0  0
 20 21  1  0  0  0  0
 20 29  1  0  0  0  0
 21 26  2  0  0  0  0
 21 22  1  0  0  0  0
 22 23  2  0  0  0  0
 22 28  1  0  0  0  0
 23 24  1  0  0  0  0
 23 48  1  0  0  0  0
 24 25  2  0  0  0  0
 24 27  1  0  0  0  0
 25 26  1  0  0  0  0
 25 49  1  0  0  0  0
 26 50  1  0  0  0  0
M  END
$$$$
CHEMBL5184521
 OpenBabel12022418113D

 44 45  0  0  1  0  0  0  0  0999 V2000
    1.8977   -1.1059   -0.1142 C   0  0  0  0  0  0  0  0  0  0  0  0
    2.8804    0.0355   -0.3245 C   0  0  0  0  0  0  0  0  0  0  0  0
    3.1059    0.8468    0.9236 C   0  0  0  0  0  0  0  0  0  0  0  0
    2.3429    1.9870    1.1652 C   0  0  0  0  0  0  0  0  0  0  0  0
    2.5821    2.7776    2.2964 C   0  0  0  0  0  0  0  0  0  0  0  0
    3.5730    2.4577    3.2486 C   0  0  0  0  0  0  0  0  0  0  0  0
    4.3305    1.3030    2.9752 C   0  0  0  0  0  0  0  0  0  0  0  0
    4.0911    0.5012    1.8509 C   0  0  0  0  0  0  0  0  0  0  0  0
    5.3639    0.8845    3.7700 O   0  0  0  0  0  0  0  0  0  0  0  0
    3.8330    3.2873    4.5244 C   0  0  2  0  0  0  0  0  0  0  0  0
    2.5849    3.9484    5.0801 C   0  0  0  0  0  0  0  0  0  0  0  0
    2.3237    5.2662    4.9498 C   0  0  0  0  0  0  0  0  0  0  0  0
    3.2503    6.2082    4.2160 C   0  0  0  0  0  0  0  0  0  0  0  0
    4.4797    5.5541    3.5750 C   0  0  0  0  0  0  0  0  0  0  0  0
    4.9925    4.3250    4.3449 C   0  0  1  0  0  0  0  0  0  0  0  0
    5.7350    4.7567    5.6309 C   0  0  0  0  0  0  0  0  0  0  0  0
    7.0483    5.0504    5.5929 C   0  0  0  0  0  0  0  0  0  0  0  0
    4.9935    4.8966    6.9359 C   0  0  0  0  0  0  0  0  0  0  0  0
    1.0698    5.8857    5.4892 C   0  0  0  0  0  0  0  0  0  0  0  0
    1.8252    3.9092    2.4228 O   0  0  0  0  0  0  0  0  0  0  0  0
    1.7688   -1.6653   -1.0462 H   0  0  0  0  0  0  0  0  0  0  0  0
    0.9150   -0.7332    0.1944 H   0  0  0  0  0  0  0  0  0  0  0  0
    2.2520   -1.8012    0.6545 H   0  0  0  0  0  0  0  0  0  0  0  0
    2.5108    0.6886   -1.1228 H   0  0  0  0  0  0  0  0  0  0  0  0
    3.8400   -0.3604   -0.6810 H   0  0  0  0  0  0  0  0  0  0  0  0
    1.5712    2.2703    0.4541 H   0  0  0  0  0  0  0  0  0  0  0  0
    4.7025   -0.3845    1.6928 H   0  0  0  0  0  0  0  0  0  0  0  0
    5.7982    1.6634    4.1529 H   0  0  0  0  0  0  0  0  0  0  0  0
    4.1448    2.5715    5.3005 H   0  0  0  0  0  0  0  0  0  0  0  0
    1.8813    3.2964    5.5906 H   0  0  0  0  0  0  0  0  0  0  0  0
    3.5908    6.9783    4.9177 H   0  0  0  0  0  0  0  0  0  0  0  0
    2.6930    6.7285    3.4258 H   0  0  0  0  0  0  0  0  0  0  0  0
    5.2752    6.3022    3.4623 H   0  0  0  0  0  0  0  0  0  0  0  0
    4.2289    5.2468    2.5522 H   0  0  0  0  0  0  0  0  0  0  0  0
    5.7556    3.8537    3.7076 H   0  0  0  0  0  0  0  0  0  0  0  0
    7.5805    5.3888    6.4780 H   0  0  0  0  0  0  0  0  0  0  0  0
    7.6222    4.9964    4.6729 H   0  0  0  0  0  0  0  0  0  0  0  0
    5.6592    5.1975    7.7539 H   0  0  0  0  0  0  0  0  0  0  0  0
    4.5378    3.9489    7.2356 H   0  0  0  0  0  0  0  0  0  0  0  0
    4.2217    5.6677    6.8766 H   0  0  0  0  0  0  0  0  0  0  0  0
    0.4525    5.1638    6.0272 H   0  0  0  0  0  0  0  0  0  0  0  0
    0.4698    6.2957    4.6710 H   0  0  0  0  0  0  0  0  0  0  0  0
    1.3190    6.6962    6.1793 H   0  0  0  0  0  0  0  0  0  0  0  0
    1.0815    3.8794    1.8020 H   0  0  0  0  0  0  0  0  0  0  0  0
  1  2  1  0  0  0  0
  1 21  1  0  0  0  0
  1 22  1  0  0  0  0
  1 23  1  0  0  0  0
  2  3  1  0  0  0  0
  2 24  1  0  0  0  0
  2 25  1  0  0  0  0
  3  8  2  0  0  0  0
  3  4  1  0  0  0  0
  4  5  2  0  0  0  0
  4 26  1  0  0  0  0
  5  6  1  0  0  0  0
  5 20  1  0  0  0  0
  6  7  2  0  0  0  0
  7  8  1  0  0  0  0
  7  9  1  0  0  0  0
  8 27  1  0  0  0  0
  9 28  1  0  0  0  0
 10  6  1  0  0  0  0
 10 11  1  0  0  0  0
 10 15  1  0  0  0  0
 10 29  1  1  0  0  0
 11 12  2  0  0  0  0
 11 30  1  0  0  0  0
 12 13  1  0  0  0  0
 12 19  1  0  0  0  0
 13 14  1  0  0  0  0
 13 31  1  0  0  0  0
 13 32  1  0  0  0  0
 14 15  1  0  0  0  0
 14 33  1  0  0  0  0
 14 34  1  0  0  0  0
 15 16  1  0  0  0  0
 15 35  1  6  0  0  0
 16 17  2  0  0  0  0
 16 18  1  0  0  0  0
 17 36  1  0  0  0  0
 17 37  1  0  0  0  0
 18 38  1  0  0  0  0
 18 39  1  0  0  0  0
 18 40  1  0  0  0  0
 19 41  1  0  0  0  0
 19 42  1  0  0  0  0
 19 43  1  0  0  0  0
 20 44  1  0  0  0  0
M  END
$$$$
CHEMBL4439452
 OpenBabel12022418113D

 60 65  0  0  1  0  0  0  0  0999 V2000
    1.0106   -4.5333   -1.2636 C   0  0  0  0  0  0  0  0  0  0  0  0
    0.7047   -3.0782   -1.0420 C   0  0  0  0  0  0  0  0  0  0  0  0
    1.6771   -2.4015   -0.4058 C   0  0  0  0  0  0  0  0  0  0  0  0
    1.1198   -1.8201    0.9190 C   0  0  2  0  0  0  0  0  0  0  0  0
    1.5268   -2.5164    2.2120 C   0  0  0  0  0  0  0  0  0  0  0  0
    0.7256   -3.3388    2.9271 C   0  0  0  0  0  0  0  0  0  0  0  0
   -0.6267   -3.7034    2.5271 C   0  0  0  0  0  0  0  0  0  0  0  0
   -1.2075   -3.0555    1.5126 C   0  0  0  0  0  0  0  0  0  0  0  0
   -0.3935   -2.0484    0.7631 C   0  0  2  0  0  0  0  0  0  0  0  0
   -0.4766   -2.6027   -0.5619 N   0  0  0  0  0  0  0  0  0  0  0  0
   -1.7238   -2.2803   -1.2189 C   0  0  1  0  0  0  0  0  0  0  0  0
   -2.7748   -3.0692   -0.3853 C   0  0  0  0  0  0  0  0  0  0  0  0
   -2.5120   -3.2843    1.0540 O   0  0  0  0  0  0  0  0  0  0  0  0
   -1.8500   -0.7067   -1.2993 C   0  0  0  0  0  0  0  0  0  0  0  0
   -3.1098   -0.2323   -1.8120 N   0  0  0  0  0  0  0  0  0  0  0  0
   -4.1794    0.0812   -0.8756 C   0  0  0  0  0  0  0  0  0  0  0  0
   -4.8771    1.4161   -1.1746 C   0  0  0  0  0  0  0  0  0  0  0  0
   -5.2911    1.5759   -2.5367 O   0  0  0  0  0  0  0  0  0  0  0  0
   -4.5727    0.7567   -3.4684 C   0  0  0  0  0  0  0  0  0  0  0  0
   -3.1164    0.4865   -3.0709 C   0  0  0  0  0  0  0  0  0  0  0  0
    2.3103   -1.6741   -1.5783 C   0  0  0  0  0  0  0  0  0  0  0  0
    1.8611   -1.6567   -2.7224 O   0  0  0  0  0  0  0  0  0  0  0  0
    3.5090   -0.8599   -1.3410 C   0  0  0  0  0  0  0  0  0  0  0  0
    3.6055    0.3394   -2.0546 C   0  0  0  0  0  0  0  0  0  0  0  0
    4.4586    1.3285   -1.5967 C   0  0  0  0  0  0  0  0  0  0  0  0
    5.1331    1.1297   -0.3901 C   0  0  0  0  0  0  0  0  0  0  0  0
    5.0738   -0.1145    0.2859 C   0  0  0  0  0  0  0  0  0  0  0  0
    5.6370   -0.3276    1.5485 C   0  0  0  0  0  0  0  0  0  0  0  0
    5.5897   -1.5861    2.1551 C   0  0  0  0  0  0  0  0  0  0  0  0
    5.0941   -2.6911    1.4690 C   0  0  0  0  0  0  0  0  0  0  0  0
    4.5027   -2.4882    0.2372 C   0  0  0  0  0  0  0  0  0  0  0  0
    4.3759   -1.1801   -0.2897 C   0  0  0  0  0  0  0  0  0  0  0  0
    2.0032   -4.7845   -0.8500 H   0  0  0  0  0  0  0  0  0  0  0  0
    0.2994   -5.1809   -0.7442 H   0  0  0  0  0  0  0  0  0  0  0  0
    1.0432   -4.7699   -2.3257 H   0  0  0  0  0  0  0  0  0  0  0  0
    1.3170   -0.7427    0.9853 H   0  0  0  0  0  0  0  0  0  0  0  0
    2.4880   -2.2420    2.6292 H   0  0  0  0  0  0  0  0  0  0  0  0
    1.0612   -3.7481    3.8775 H   0  0  0  0  0  0  0  0  0  0  0  0
   -1.1489   -4.4909    3.0607 H   0  0  0  0  0  0  0  0  0  0  0  0
   -0.8829   -1.0993    0.9703 H   0  0  0  0  0  0  0  0  0  0  0  0
   -1.7321   -2.6450   -2.2551 H   0  0  0  0  0  0  0  0  0  0  0  0
   -2.8301   -4.0767   -0.8218 H   0  0  0  0  0  0  0  0  0  0  0  0
   -3.7746   -2.6433   -0.4834 H   0  0  0  0  0  0  0  0  0  0  0  0
   -1.0055   -0.3409   -1.9064 H   0  0  0  0  0  0  0  0  0  0  0  0
   -1.6826   -0.1890   -0.3527 H   0  0  0  0  0  0  0  0  0  0  0  0
   -3.8558    0.0707    0.1733 H   0  0  0  0  0  0  0  0  0  0  0  0
   -4.9138   -0.7217   -0.9921 H   0  0  0  0  0  0  0  0  0  0  0  0
   -4.2234    2.2592   -0.9236 H   0  0  0  0  0  0  0  0  0  0  0  0
   -5.7718    1.5080   -0.5472 H   0  0  0  0  0  0  0  0  0  0  0  0
   -5.1121   -0.1938   -3.5654 H   0  0  0  0  0  0  0  0  0  0  0  0
   -4.6111    1.2528   -4.4416 H   0  0  0  0  0  0  0  0  0  0  0  0
   -2.6491   -0.1461   -3.8336 H   0  0  0  0  0  0  0  0  0  0  0  0
   -2.5577    1.4303   -3.0201 H   0  0  0  0  0  0  0  0  0  0  0  0
    2.9746    0.5187   -2.9297 H   0  0  0  0  0  0  0  0  0  0  0  0
    4.5299    2.2735   -2.1376 H   0  0  0  0  0  0  0  0  0  0  0  0
    5.7119    1.9543    0.0296 H   0  0  0  0  0  0  0  0  0  0  0  0
    6.0773    0.5114    2.1009 H   0  0  0  0  0  0  0  0  0  0  0  0
    5.9528   -1.7151    3.1691 H   0  0  0  0  0  0  0  0  0  0  0  0
    5.1108   -3.6852    1.9089 H   0  0  0  0  0  0  0  0  0  0  0  0
    4.1005   -3.3556   -0.3011 H   0  0  0  0  0  0  0  0  0  0  0  0
  1  2  1  0  0  0  0
  1 33  1  0  0  0  0
  1 34  1  0  0  0  0
  1 35  1  0  0  0  0
  2 10  1  0  0  0  0
  2  3  2  3  0  0  0
  3  4  1  0  0  0  0
  3 21  1  0  0  0  0
  4  5  1  0  0  0  0
  4  9  1  0  0  0  0
  4 36  1  1  0  0  0
  5  6  2  0  0  0  0
  5 37  1  0  0  0  0
  6  7  1  0  0  0  0
  6 38  1  0  0  0  0
  7  8  2  0  0  0  0
  7 39  1  0  0  0  0
  8 13  1  0  0  0  0
  9  8  1  0  0  0  0
  9 10  1  0  0  0  0
  9 40  1  1  0  0  0
 10 11  1  0  0  0  0
 11 12  1  0  0  0  0
 11 14  1  0  0  0  0
 11 41  1  6  0  0  0
 12 13  1  0  0  0  0
 12 42  1  0  0  0  0
 12 43  1  0  0  0  0
 14 15  1  0  0  0  0
 14 44  1  0  0  0  0
 14 45  1  0  0  0  0
 15 20  1  0  0  0  0
 15 16  1  0  0  0  0
 16 17  1  0  0  0  0
 16 46  1  0  0  0  0
 16 47  1  0  0  0  0
 17 18  1  0  0  0  0
 17 48  1  0  0  0  0
 17 49  1  0  0  0  0
 18 19  1  0  0  0  0
 19 20  1  0  0  0  0
 19 50  1  0  0  0  0
 19 51  1  0  0  0  0
 20 52  1  0  0  0  0
 20 53  1  0  0  0  0
 21 22  2  0  0  0  0
 21 23  1  0  0  0  0
 23 32  2  0  0  0  0
 23 24  1  0  0  0  0
 24 25  2  0  0  0  0
 24 54  1  0  0  0  0
 25 26  1  0  0  0  0
 25 55  1  0  0  0  0
 26 27  2  0  0  0  0
 26 56  1  0  0  0  0
 27 32  1  0  0  0  0
 27 28  1  0  0  0  0
 28 29  2  0  0  0  0
 28 57  1  0  0  0  0
 29 30  1  0  0  0  0
 29 58  1  0  0  0  0
 30 31  2  0  0  0  0
 30 59  1  0  0  0  0
 31 32  1  0  0  0  0
 31 60  1  0  0  0  0
M  END
$$$$
CHEMBL3354959
 OpenBabel12022418113D

 48 52  0  0  1  0  0  0  0  0999 V2000
    1.3207   -1.2746    0.0357 N   0  0  0  0  0  0  0  0  0  0  0  0
    2.4208   -0.4414    0.1430 N   0  0  0  0  0  0  0  0  0  0  0  0
    1.9136    0.8226    0.0056 C   0  0  0  0  0  0  0  0  0  0  0  0
    0.5129    0.7760   -0.1037 C   0  0  0  0  0  0  0  0  0  0  0  0
    0.1834   -0.5455   -0.0630 C   0  0  0  0  0  0  0  0  0  0  0  0
   -1.2964   -0.7419    0.1546 C   0  0  1  0  0  0  0  0  0  0  0  0
   -1.8106    0.7137    0.2681 C   0  0  1  0  0  0  0  0  0  0  0  0
   -0.6514    1.6903   -0.0270 C   0  0  0  0  0  0  0  0  0  0  0  0
   -2.3264   -0.1965   -0.8003 C   0  0  0  0  0  0  0  0  0  0  0  0
    2.7071    2.0687    0.0504 C   0  0  0  0  0  0  0  0  0  0  0  0
    2.1765    3.1754   -0.0262 O   0  0  0  0  0  0  0  0  0  0  0  0
    4.0729    1.9154    0.1666 N   0  0  0  0  0  0  0  0  0  0  0  0
    4.9820    3.0471    0.0987 C   0  0  0  0  0  0  0  0  0  0  0  0
    5.2249    3.7387    1.4545 C   0  0  0  0  0  0  0  0  0  0  0  0
    6.0826    5.0051    1.2658 C   0  0  0  0  0  0  0  0  0  0  0  0
    6.4987    5.6108    2.6021 C   0  0  0  0  0  0  0  0  0  0  0  0
    7.1644    4.6411    3.4083 O   0  0  0  0  0  0  0  0  0  0  0  0
    6.3132    3.5410    3.7233 C   0  0  0  0  0  0  0  0  0  0  0  0
    5.9085    2.7975    2.4562 C   0  0  0  0  0  0  0  0  0  0  0  0
    1.3805   -2.6848    0.0769 C   0  0  0  0  0  0  0  0  0  0  0  0
    2.3482   -3.3422    0.8435 C   0  0  0  0  0  0  0  0  0  0  0  0
    2.2773   -4.7354    0.9869 C   0  0  0  0  0  0  0  0  0  0  0  0
    1.2817   -5.4584    0.3305 C   0  0  0  0  0  0  0  0  0  0  0  0
    0.3568   -4.8232   -0.4815 C   0  0  0  0  0  0  0  0  0  0  0  0
    0.4075   -3.4407   -0.6006 C   0  0  0  0  0  0  0  0  0  0  0  0
   -0.4718   -2.8637   -1.4341 F   0  0  0  0  0  0  0  0  0  0  0  0
    1.2144   -6.7873    0.4888 F   0  0  0  0  0  0  0  0  0  0  0  0
   -1.6249   -1.5626    0.7764 H   0  0  0  0  0  0  0  0  0  0  0  0
   -2.4230    0.9780    1.1169 H   0  0  0  0  0  0  0  0  0  0  0  0
   -0.8190    2.2108   -0.9749 H   0  0  0  0  0  0  0  0  0  0  0  0
   -0.5451    2.4132    0.7857 H   0  0  0  0  0  0  0  0  0  0  0  0
   -3.3373   -0.5764   -0.6982 H   0  0  0  0  0  0  0  0  0  0  0  0
   -2.0269   -0.0434   -1.8301 H   0  0  0  0  0  0  0  0  0  0  0  0
    4.4220    0.9621    0.1788 H   0  0  0  0  0  0  0  0  0  0  0  0
    4.5687    3.7771   -0.6092 H   0  0  0  0  0  0  0  0  0  0  0  0
    5.9242    2.6823   -0.3240 H   0  0  0  0  0  0  0  0  0  0  0  0
    4.2587    4.0448    1.8779 H   0  0  0  0  0  0  0  0  0  0  0  0
    5.5405    5.7528    0.6758 H   0  0  0  0  0  0  0  0  0  0  0  0
    6.9900    4.7421    0.7072 H   0  0  0  0  0  0  0  0  0  0  0  0
    5.6378    6.0135    3.1486 H   0  0  0  0  0  0  0  0  0  0  0  0
    7.1966    6.4383    2.4349 H   0  0  0  0  0  0  0  0  0  0  0  0
    5.4380    3.9012    4.2763 H   0  0  0  0  0  0  0  0  0  0  0  0
    6.8696    2.8703    4.3857 H   0  0  0  0  0  0  0  0  0  0  0  0
    6.8097    2.3766    1.9925 H   0  0  0  0  0  0  0  0  0  0  0  0
    5.2475    1.9632    2.7141 H   0  0  0  0  0  0  0  0  0  0  0  0
    3.1081   -2.7853    1.3854 H   0  0  0  0  0  0  0  0  0  0  0  0
    2.9795   -5.2644    1.6246 H   0  0  0  0  0  0  0  0  0  0  0  0
   -0.3970   -5.3929   -1.0096 H   0  0  0  0  0  0  0  0  0  0  0  0
  1  5  1  0  0  0  0
  1  2  1  0  0  0  0
  1 20  1  0  0  0  0
  2  3  2  0  0  0  0
  3  4  1  0  0  0  0
  3 10  1  0  0  0  0
  4  8  1  0  0  0  0
  4  5  2  0  0  0  0
  5  6  1  0  0  0  0
  6  7  1  0  0  0  0
  6  9  1  0  0  0  0
  6 28  1  1  0  0  0
  7  8  1  0  0  0  0
  7  9  1  0  0  0  0
  7 29  1  1  0  0  0
  8 30  1  0  0  0  0
  8 31  1  0  0  0  0
  9 32  1  0  0  0  0
  9 33  1  0  0  0  0
 10 11  2  0  0  0  0
 10 12  1  0  0  0  0
 12 13  1  0  0  0  0
 12 34  1  0  0  0  0
 13 14  1  0  0  0  0
 13 35  1  0  0  0  0
 13 36  1  0  0  0  0
 14 19  1  0  0  0  0
 14 15  1  0  0  0  0
 14 37  1  0  0  0  0
 15 16  1  0  0  0  0
 15 38  1  0  0  0  0
 15 39  1  0  0  0  0
 16 17  1  0  0  0  0
 16 40  1  0  0  0  0
 16 41  1  0  0  0  0
 17 18  1  0  0  0  0
 18 19  1  0  0  0  0
 18 42  1  0  0  0  0
 18 43  1  0  0  0  0
 19 44  1  0  0  0  0
 19 45  1  0  0  0  0
 20 25  2  0  0  0  0
 20 21  1  0  0  0  0
 21 22  2  0  0  0  0
 21 46  1  0  0  0  0
 22 23  1  0  0  0  0
 22 47  1  0  0  0  0
 23 24  2  0  0  0  0
 23 27  1  0  0  0  0
 24 25  1  0  0  0  0
 24 48  1  0  0  0  0
 25 26  1  0  0  0  0
M  END
$$$$
CHEMBL3926267
 OpenBabel12022418113D

 58 62  0  0  0  0  0  0  0  0999 V2000
    0.6583    1.0150   -0.6384 C   0  0  0  0  0  0  0  0  0  0  0  0
    0.6459    2.3405    0.0709 C   0  0  0  0  0  0  0  0  0  0  0  0
    0.8808    1.0705    0.8530 C   0  0  0  0  0  0  0  0  0  0  0  0
    2.2398    0.7836    1.4265 C   0  0  0  0  0  0  0  0  0  0  0  0
    2.4635   -0.6147    1.3822 O   0  0  0  0  0  0  0  0  0  0  0  0
    3.6934   -1.0272    1.8753 C   0  0  0  0  0  0  0  0  0  0  0  0
    3.8142   -2.4146    2.0929 C   0  0  0  0  0  0  0  0  0  0  0  0
    5.0932   -2.8663    2.4234 C   0  0  0  0  0  0  0  0  0  0  0  0
    6.1276   -1.9568    2.6479 C   0  0  0  0  0  0  0  0  0  0  0  0
    5.8816   -0.5890    2.5127 C   0  0  0  0  0  0  0  0  0  0  0  0
    6.9609    0.3550    3.0123 C   0  0  0  0  0  0  0  0  0  0  0  0
    7.7301   -0.0911    3.8705 O   0  0  0  0  0  0  0  0  0  0  0  0
    7.1193    1.6606    2.5059 N   0  0  0  0  0  0  0  0  0  0  0  0
    8.1635    2.5122    3.1052 C   0  0  0  0  0  0  0  0  0  0  0  0
    7.7250    3.3381    4.2944 C   0  0  0  0  0  0  0  0  0  0  0  0
    7.0751    4.5693    4.1264 C   0  0  0  0  0  0  0  0  0  0  0  0
    6.7191    5.3519    5.2287 C   0  0  0  0  0  0  0  0  0  0  0  0
    7.0366    4.9294    6.5165 C   0  0  0  0  0  0  0  0  0  0  0  0
    7.7046    3.7217    6.6998 C   0  0  0  0  0  0  0  0  0  0  0  0
    8.0391    2.9277    5.5974 C   0  0  0  0  0  0  0  0  0  0  0  0
    6.4452    2.1717    1.3048 C   0  0  0  0  0  0  0  0  0  0  0  0
    7.3271    2.7004    0.1621 C   0  0  0  0  0  0  0  0  0  0  0  0
    6.6206    1.4036   -0.0107 C   0  0  0  0  0  0  0  0  0  0  0  0
    5.1519    2.9601    1.5302 C   0  0  0  0  0  0  0  0  0  0  0  0
    4.4996    2.6016    2.6583 F   0  0  0  0  0  0  0  0  0  0  0  0
    5.4173    4.2871    1.6162 F   0  0  0  0  0  0  0  0  0  0  0  0
    4.3051    2.8244    0.4811 F   0  0  0  0  0  0  0  0  0  0  0  0
    4.6876   -0.1060    2.0774 N   0  0  0  0  0  0  0  0  0  0  0  0
    2.7374   -3.3388    2.0156 N   0  0  0  0  0  0  0  0  0  0  0  0
    1.3264   -3.0537    2.0900 C   0  0  0  0  0  0  0  0  0  0  0  0
    1.1284   -4.2766    2.9886 C   0  0  0  0  0  0  0  0  0  0  0  0
    2.6193   -4.5550    2.7773 C   0  0  0  0  0  0  0  0  0  0  0  0
    0.2724   -5.2226    2.5343 F   0  0  0  0  0  0  0  0  0  0  0  0
    0.7570   -4.0091    4.2663 F   0  0  0  0  0  0  0  0  0  0  0  0
   -0.2863    0.6245   -0.9994 H   0  0  0  0  0  0  0  0  0  0  0  0
    1.5045    0.7867   -1.2771 H   0  0  0  0  0  0  0  0  0  0  0  0
   -0.3070    2.8450    0.1819 H   0  0  0  0  0  0  0  0  0  0  0  0
    1.4819    3.0110   -0.0982 H   0  0  0  0  0  0  0  0  0  0  0  0
    0.0834    0.7169    1.4962 H   0  0  0  0  0  0  0  0  0  0  0  0
    2.2833    1.1472    2.4592 H   0  0  0  0  0  0  0  0  0  0  0  0
    2.9873    1.2724    0.8110 H   0  0  0  0  0  0  0  0  0  0  0  0
    5.2904   -3.9279    2.5448 H   0  0  0  0  0  0  0  0  0  0  0  0
    7.1019   -2.3188    2.9651 H   0  0  0  0  0  0  0  0  0  0  0  0
    8.5611    3.1996    2.3526 H   0  0  0  0  0  0  0  0  0  0  0  0
    9.0198    1.8886    3.3879 H   0  0  0  0  0  0  0  0  0  0  0  0
    6.8585    4.9510    3.1342 H   0  0  0  0  0  0  0  0  0  0  0  0
    6.2115    6.3010    5.0772 H   0  0  0  0  0  0  0  0  0  0  0  0
    6.7754    5.5450    7.3735 H   0  0  0  0  0  0  0  0  0  0  0  0
    7.9754    3.3990    7.7022 H   0  0  0  0  0  0  0  0  0  0  0  0
    8.5714    1.9923    5.7625 H   0  0  0  0  0  0  0  0  0  0  0  0
    8.4077    2.6615    0.2412 H   0  0  0  0  0  0  0  0  0  0  0  0
    6.9707    3.5678   -0.3844 H   0  0  0  0  0  0  0  0  0  0  0  0
    5.7910    1.3675   -0.7078 H   0  0  0  0  0  0  0  0  0  0  0  0
    7.2314    0.5077   -0.0220 H   0  0  0  0  0  0  0  0  0  0  0  0
    0.8434   -3.1170    1.1100 H   0  0  0  0  0  0  0  0  0  0  0  0
    1.0597   -2.1199    2.5903 H   0  0  0  0  0  0  0  0  0  0  0  0
    3.2005   -4.5629    3.7030 H   0  0  0  0  0  0  0  0  0  0  0  0
    2.8443   -5.4390    2.1750 H   0  0  0  0  0  0  0  0  0  0  0  0
  1  3  1  0  0  0  0
  1  2  1  0  0  0  0
  1 35  1  0  0  0  0
  1 36  1  0  0  0  0
  2  3  1  0  0  0  0
  2 37  1  0  0  0  0
  2 38  1  0  0  0  0
  3  4  1  0  0  0  0
  3 39  1  0  0  0  0
  4  5  1  0  0  0  0
  4 40  1  0  0  0  0
  4 41  1  0  0  0  0
  5  6  1  0  0  0  0
  6 28  2  0  0  0  0
  6  7  1  0  0  0  0
  7  8  2  0  0  0  0
  7 29  1  0  0  0  0
  8  9  1  0  0  0  0
  8 42  1  0  0  0  0
  9 10  2  0  0  0  0
  9 43  1  0  0  0  0
 10 11  1  0  0  0  0
 10 28  1  0  0  0  0
 11 12  2  0  0  0  0
 11 13  1  0  0  0  0
 13 14  1  0  0  0  0
 13 21  1  0  0  0  0
 14 15  1  0  0  0  0
 14 44  1  0  0  0  0
 14 45  1  0  0  0  0
 15 20  2  0  0  0  0
 15 16  1  0  0  0  0
 16 17  2  0  0  0  0
 16 46  1  0  0  0  0
 17 18  1  0  0  0  0
 17 47  1  0  0  0  0
 18 19  2  0  0  0  0
 18 48  1  0  0  0  0
 19 20  1  0  0  0  0
 19 49  1  0  0  0  0
 20 50  1  0  0  0  0
 21 23  1  0  0  0  0
 21 22  1  0  0  0  0
 21 24  1  0  0  0  0
 22 23  1  0  0  0  0
 22 51  1  0  0  0  0
 22 52  1  0  0  0  0
 23 53  1  0  0  0  0
 23 54  1  0  0  0  0
 24 25  1  0  0  0  0
 24 26  1  0  0  0  0
 24 27  1  0  0  0  0
 29 32  1  0  0  0  0
 29 30  1  0  0  0  0
 30 31  1  0  0  0  0
 30 55  1  0  0  0  0
 30 56  1  0  0  0  0
 31 32  1  0  0  0  0
 31 33  1  0  0  0  0
 31 34  1  0  0  0  0
 32 57  1  0  0  0  0
 32 58  1  0  0  0  0
M  END
$$$$
CHEMBL5186682
 OpenBabel12022418113D

 66 68  0  0  1  0  0  0  0  0999 V2000
    3.0423    4.1497   -3.3044 C   0  0  0  0  0  0  0  0  0  0  0  0
    4.0654    3.1256   -3.8376 C   0  0  0  0  0  0  0  0  0  0  0  0
    4.0283    3.2469   -5.3718 C   0  0  0  0  0  0  0  0  0  0  0  0
    4.0509    1.5871   -3.3814 C   0  0  1  0  0  0  0  0  0  0  0  0
    5.0717    0.7648   -4.1716 C   0  0  0  0  0  0  0  0  0  0  0  0
    6.3001    1.3069   -4.2738 C   0  0  0  0  0  0  0  0  0  0  0  0
    6.6775    2.5919   -3.5696 C   0  0  2  0  0  0  0  0  0  0  0  0
    7.8357    2.4484   -2.5814 C   0  0  0  0  0  0  0  0  0  0  0  0
    8.2323    1.2290   -1.9838 C   0  0  0  0  0  0  0  0  0  0  0  0
    9.4094    1.1022   -1.2429 C   0  0  0  0  0  0  0  0  0  0  0  0
   10.2511    2.1989   -1.0317 C   0  0  0  0  0  0  0  0  0  0  0  0
    9.8522    3.4327   -1.5516 C   0  0  0  0  0  0  0  0  0  0  0  0
    8.6684    3.5532   -2.2992 C   0  0  0  0  0  0  0  0  0  0  0  0
    8.4210    4.8215   -2.7561 O   0  0  0  0  0  0  0  0  0  0  0  0
   11.8696    1.9483   -0.0738 Si  0  0  0  0  0  0  0  0  0  0  0  0
   12.9005    0.5974   -0.9858 C   0  0  0  0  0  0  0  0  0  0  0  0
   14.2160    0.2411   -0.2898 C   0  0  0  0  0  0  0  0  0  0  0  0
   14.9964   -0.8275   -1.0607 C   0  0  0  0  0  0  0  0  0  0  0  0
   16.3045   -1.1588   -0.3399 C   0  0  0  0  0  0  0  0  0  0  0  0
   17.1162   -2.2104   -1.0922 C   0  0  0  0  0  0  0  0  0  0  0  0
   18.4151   -2.5218   -0.3644 C   0  0  0  0  0  0  0  0  0  0  0  0
   12.8667    3.5265    0.0132 C   0  0  0  0  0  0  0  0  0  0  0  0
   11.4578    1.3239    1.6505 C   0  0  0  0  0  0  0  0  0  0  0  0
    7.5502    0.0450   -2.0812 O   0  0  0  0  0  0  0  0  0  0  0  0
    5.3976    3.1564   -2.9150 C   0  0  2  0  0  0  0  0  0  0  0  0
    4.6364    2.1022   -2.0286 C   0  0  0  0  0  0  0  0  0  0  0  0
    4.6064   -0.4734   -4.8765 C   0  0  0  0  0  0  0  0  0  0  0  0
    5.6762   -1.1020   -5.5746 O   0  0  0  0  0  0  0  0  0  0  0  0
    3.0185    4.2257   -2.2145 H   0  0  0  0  0  0  0  0  0  0  0  0
    2.0299    3.9174   -3.6500 H   0  0  0  0  0  0  0  0  0  0  0  0
    3.3002    5.1506   -3.6764 H   0  0  0  0  0  0  0  0  0  0  0  0
    4.6600    2.5355   -5.9045 H   0  0  0  0  0  0  0  0  0  0  0  0
    4.3262    4.2475   -5.6974 H   0  0  0  0  0  0  0  0  0  0  0  0
    3.0053    3.0645   -5.7303 H   0  0  0  0  0  0  0  0  0  0  0  0
    3.0703    1.1099   -3.3140 H   0  0  0  0  0  0  0  0  0  0  0  0
    7.0745    0.8573   -4.8963 H   0  0  0  0  0  0  0  0  0  0  0  0
    6.9938    3.2856   -4.3613 H   0  0  0  0  0  0  0  0  0  0  0  0
    9.6618    0.1186   -0.8475 H   0  0  0  0  0  0  0  0  0  0  0  0
   10.4600    4.3248   -1.4017 H   0  0  0  0  0  0  0  0  0  0  0  0
    7.4999    4.8994   -3.0420 H   0  0  0  0  0  0  0  0  0  0  0  0
   13.0971    0.9620   -2.0007 H   0  0  0  0  0  0  0  0  0  0  0  0
   12.2736   -0.2977   -1.0734 H   0  0  0  0  0  0  0  0  0  0  0  0
   14.0145   -0.1251    0.7236 H   0  0  0  0  0  0  0  0  0  0  0  0
   14.8391    1.1371   -0.1874 H   0  0  0  0  0  0  0  0  0  0  0  0
   15.2119   -0.4681   -2.0740 H   0  0  0  0  0  0  0  0  0  0  0  0
   14.3868   -1.7336   -1.1592 H   0  0  0  0  0  0  0  0  0  0  0  0
   16.0837   -1.5213    0.6718 H   0  0  0  0  0  0  0  0  0  0  0  0
   16.9022   -0.2457   -0.2301 H   0  0  0  0  0  0  0  0  0  0  0  0
   17.3452   -1.8534   -2.1030 H   0  0  0  0  0  0  0  0  0  0  0  0
   16.5306   -3.1311   -1.1961 H   0  0  0  0  0  0  0  0  0  0  0  0
   19.0361   -1.6252   -0.2705 H   0  0  0  0  0  0  0  0  0  0  0  0
   18.9872   -3.2759   -0.9135 H   0  0  0  0  0  0  0  0  0  0  0  0
   18.2180   -2.9090    0.6404 H   0  0  0  0  0  0  0  0  0  0  0  0
   13.1388    3.8687   -0.9897 H   0  0  0  0  0  0  0  0  0  0  0  0
   13.7900    3.3713    0.5792 H   0  0  0  0  0  0  0  0  0  0  0  0
   12.2995    4.3221    0.5052 H   0  0  0  0  0  0  0  0  0  0  0  0
   10.8981    0.3850    1.5983 H   0  0  0  0  0  0  0  0  0  0  0  0
   10.8508    2.0552    2.1924 H   0  0  0  0  0  0  0  0  0  0  0  0
   12.3705    1.1428    2.2261 H   0  0  0  0  0  0  0  0  0  0  0  0
    6.6203    0.2391   -2.2659 H   0  0  0  0  0  0  0  0  0  0  0  0
    5.5670    4.1131   -2.4068 H   0  0  0  0  0  0  0  0  0  0  0  0
    5.2315    1.4086   -1.4335 H   0  0  0  0  0  0  0  0  0  0  0  0
    3.8875    2.5114   -1.3397 H   0  0  0  0  0  0  0  0  0  0  0  0
    4.1984   -1.1949   -4.1660 H   0  0  0  0  0  0  0  0  0  0  0  0
    3.8380   -0.2207   -5.6080 H   0  0  0  0  0  0  0  0  0  0  0  0
    6.3823   -1.2782   -4.9295 H   0  0  0  0  0  0  0  0  0  0  0  0
  1  2  1  0  0  0  0
  1 29  1  0  0  0  0
  1 30  1  0  0  0  0
  1 31  1  0  0  0  0
  2 25  1  0  0  0  0
  2  4  1  0  0  0  0
  2  3  1  0  0  0  0
  3 32  1  0  0  0  0
  3 33  1  0  0  0  0
  3 34  1  0  0  0  0
  4  5  1  0  0  0  0
  4 26  1  0  0  0  0
  4 35  1  1  0  0  0
  5  6  2  0  0  0  0
  5 27  1  0  0  0  0
  6  7  1  0  0  0  0
  6 36  1  0  0  0  0
  7 25  1  0  0  0  0
  7  8  1  0  0  0  0
  7 37  1  6  0  0  0
  8 13  2  0  0  0  0
  8  9  1  0  0  0  0
  9 10  2  0  0  0  0
  9 24  1  0  0  0  0
 10 11  1  0  0  0  0
 10 38  1  0  0  0  0
 11 12  2  0  0  0  0
 11 15  1  0  0  0  0
 12 13  1  0  0  0  0
 12 39  1  0  0  0  0
 13 14  1  0  0  0  0
 14 40  1  0  0  0  0
 15 16  1  0  0  0  0
 15 22  1  0  0  0  0
 15 23  1  0  0  0  0
 16 17  1  0  0  0  0
 16 41  1  0  0  0  0
 16 42  1  0  0  0  0
 17 18  1  0  0  0  0
 17 43  1  0  0  0  0
 17 44  1  0  0  0  0
 18 19  1  0  0  0  0
 18 45  1  0  0  0  0
 18 46  1  0  0  0  0
 19 20  1  0  0  0  0
 19 47  1  0  0  0  0
 19 48  1  0  0  0  0
 20 21  1  0  0  0  0
 20 49  1  0  0  0  0
 20 50  1  0  0  0  0
 21 51  1  0  0  0  0
 21 52  1  0  0  0  0
 21 53  1  0  0  0  0
 22 54  1  0  0  0  0
 22 55  1  0  0  0  0
 22 56  1  0  0  0  0
 23 57  1  0  0  0  0
 23 58  1  0  0  0  0
 23 59  1  0  0  0  0
 24 60  1  0  0  0  0
 25 26  1  0  0  0  0
 25 61  1  1  0  0  0
 26 62  1  0  0  0  0
 26 63  1  0  0  0  0
 27 28  1  0  0  0  0
 27 64  1  0  0  0  0
 27 65  1  0  0  0  0
 28 66  1  0  0  0  0
M  END
$$$$
CHEMBL5091640
 OpenBabel12032413423D

 67 70  0  0  0  0  0  0  0  0999 V2000
   -0.7090    0.4420    0.7540 C   0  0  0  0  0  0  0  0  0  0  0  0
    0.6960    0.3990    0.7020 C   0  0  0  0  0  0  0  0  0  0  0  0
    1.3340   -0.6460    0.0540 C   0  0  0  0  0  0  0  0  0  0  0  0
    0.5480   -1.6310   -0.5210 C   0  0  0  0  0  0  0  0  0  0  0  0
   -0.8480   -1.4720   -0.6050 C   0  0  0  0  0  0  0  0  0  0  0  0
   -1.5280   -0.3800   -0.0330 C   0  0  0  0  0  0  0  0  0  0  0  0
   -2.9980   -0.1390   -0.2990 C   0  0  0  0  0  0  0  0  0  0  0  0
   -3.9720   -1.1150   -0.6060 C   0  0  0  0  0  0  0  0  0  0  0  0
   -5.1190   -0.4120   -1.1010 C   0  0  0  0  0  0  0  0  0  0  0  0
   -6.3270   -0.9480   -1.7720 C   0  0  0  0  0  0  0  0  0  0  0  0
   -6.3760   -2.1010   -2.2250 O   0  0  0  0  0  0  0  0  0  0  0  0
   -7.3700   -0.0670   -1.8680 N   0  0  0  0  0  0  0  0  0  0  0  0
   -8.6890   -0.4610   -2.3300 C   0  0  0  0  0  0  0  0  0  0  0  0
   -9.8380    0.3390   -1.7540 C   0  0  0  0  0  0  0  0  0  0  0  0
  -11.0800    0.3180   -2.4180 C   0  0  0  0  0  0  0  0  0  0  0  0
  -12.1280    1.1430   -2.0090 C   0  0  0  0  0  0  0  0  0  0  0  0
  -11.9360    2.0290   -0.9560 C   0  0  0  0  0  0  0  0  0  0  0  0
  -10.7600    1.9600   -0.2060 C   0  0  0  0  0  0  0  0  0  0  0  0
   -9.7560    1.0380   -0.5370 C   0  0  0  0  0  0  0  0  0  0  0  0
   -8.7060    0.7700    0.3800 N   0  0  0  0  0  0  0  0  0  0  0  0
   -9.0560   -0.0430    1.2800 N   0  0  0  0  0  0  0  0  0  0  0  0
   -9.0000   -1.4060    0.8760 C   0  0  0  0  0  0  0  0  0  0  0  0
  -10.1580   -2.0440    0.4020 C   0  0  0  0  0  0  0  0  0  0  0  0
  -10.1130   -3.3450   -0.1070 C   0  0  0  0  0  0  0  0  0  0  0  0
   -8.9160   -4.0510   -0.0980 C   0  0  0  0  0  0  0  0  0  0  0  0
   -7.7720   -3.4590    0.4350 C   0  0  0  0  0  0  0  0  0  0  0  0
   -7.8130   -2.1450    0.9210 C   0  0  0  0  0  0  0  0  0  0  0  0
   -4.9880    0.8920   -0.8680 N   0  0  0  0  0  0  0  0  0  0  0  0
   -3.7000    1.0730   -0.4760 N   0  0  0  0  0  0  0  0  0  0  0  0
   -3.3900    2.5090   -0.4360 C   0  0  0  0  0  0  0  0  0  0  0  0
   -2.0070    2.9530   -0.0560 C   0  0  0  0  0  0  0  0  0  0  0  0
   -1.6000    4.4150   -0.1890 C   0  0  0  0  0  0  0  0  0  0  0  0
   -0.0870    4.4420    0.0850 C   0  0  0  0  0  0  0  0  0  0  0  0
    0.5210    5.8240    0.2000 C   0  0  0  0  0  0  0  0  0  0  0  0
    1.9250    5.6920    0.3970 O   0  0  0  0  0  0  0  0  0  0  0  0
   -3.9270   -2.6020   -0.5290 C   0  0  0  0  0  0  0  0  0  0  0  0
   -1.1390    1.1650    1.4270 H   0  0  0  0  0  0  0  0  0  0  0  0
    1.2850    1.1830    1.1690 H   0  0  0  0  0  0  0  0  0  0  0  0
    2.4190   -0.7100    0.0340 H   0  0  0  0  0  0  0  0  0  0  0  0
    1.0200   -2.5170   -0.9390 H   0  0  0  0  0  0  0  0  0  0  0  0
   -1.3800   -2.2390   -1.1570 H   0  0  0  0  0  0  0  0  0  0  0  0
   -7.2330    0.8190   -1.3870 H   0  0  0  0  0  0  0  0  0  0  0  0
   -8.8440   -1.5290   -2.1550 H   0  0  0  0  0  0  0  0  0  0  0  0
   -8.6720   -0.3040   -3.4140 H   0  0  0  0  0  0  0  0  0  0  0  0
  -11.2400   -0.3630   -3.2520 H   0  0  0  0  0  0  0  0  0  0  0  0
  -13.0860    1.1080   -2.5240 H   0  0  0  0  0  0  0  0  0  0  0  0
  -12.7150    2.7400   -0.6890 H   0  0  0  0  0  0  0  0  0  0  0  0
  -10.6350    2.6080    0.6570 H   0  0  0  0  0  0  0  0  0  0  0  0
  -11.0950   -1.4930    0.3700 H   0  0  0  0  0  0  0  0  0  0  0  0
  -11.0080   -3.7920   -0.5350 H   0  0  0  0  0  0  0  0  0  0  0  0
   -8.8700   -5.0550   -0.5150 H   0  0  0  0  0  0  0  0  0  0  0  0
   -6.8370   -4.0160    0.4350 H   0  0  0  0  0  0  0  0  0  0  0  0
   -6.9040   -1.6850    1.2950 H   0  0  0  0  0  0  0  0  0  0  0  0
   -4.1130    2.9460    0.2690 H   0  0  0  0  0  0  0  0  0  0  0  0
   -3.6370    2.8930   -1.4340 H   0  0  0  0  0  0  0  0  0  0  0  0
   -1.3030    2.3730   -0.6560 H   0  0  0  0  0  0  0  0  0  0  0  0
   -1.9140    2.7550    1.0120 H   0  0  0  0  0  0  0  0  0  0  0  0
   -2.1380    5.0290    0.5410 H   0  0  0  0  0  0  0  0  0  0  0  0
   -1.8190    4.8020   -1.1900 H   0  0  0  0  0  0  0  0  0  0  0  0
    0.4350    3.8880   -0.7060 H   0  0  0  0  0  0  0  0  0  0  0  0
    0.1320    3.8910    1.0110 H   0  0  0  0  0  0  0  0  0  0  0  0
    0.1040    6.3720    1.0500 H   0  0  0  0  0  0  0  0  0  0  0  0
    0.3590    6.4030   -0.7130 H   0  0  0  0  0  0  0  0  0  0  0  0
    2.0660    5.1440    1.1880 H   0  0  0  0  0  0  0  0  0  0  0  0
   -2.9910   -3.0040   -0.1350 H   0  0  0  0  0  0  0  0  0  0  0  0
   -4.1050   -3.0540   -1.5090 H   0  0  0  0  0  0  0  0  0  0  0  0
   -4.7060   -2.9530    0.1540 H   0  0  0  0  0  0  0  0  0  0  0  0
  1  2  2  0  0  0  0
  1  6  1  0  0  0  0
  1 37  1  0  0  0  0
  2  3  1  0  0  0  0
  2 38  1  0  0  0  0
  3  4  2  0  0  0  0
  3 39  1  0  0  0  0
  4  5  1  0  0  0  0
  4 40  1  0  0  0  0
  5  6  2  0  0  0  0
  5 41  1  0  0  0  0
  6  7  1  0  0  0  0
  7  8  2  0  0  0  0
  7 29  1  0  0  0  0
  8  9  1  0  0  0  0
  8 36  1  0  0  0  0
  9 10  1  0  0  0  0
  9 28  2  0  0  0  0
 10 11  2  0  0  0  0
 10 12  1  0  0  0  0
 12 13  1  0  0  0  0
 12 42  1  0  0  0  0
 13 14  1  0  0  0  0
 13 43  1  0  0  0  0
 13 44  1  0  0  0  0
 14 15  2  0  0  0  0
 14 19  1  0  0  0  0
 15 16  1  0  0  0  0
 15 45  1  0  0  0  0
 16 17  2  0  0  0  0
 16 46  1  0  0  0  0
 17 18  1  0  0  0  0
 17 47  1  0  0  0  0
 18 19  2  0  0  0  0
 18 48  1  0  0  0  0
 19 20  1  0  0  0  0
 20 21  1  0  0  0  0
 21 22  1  0  0  0  0
 22 23  2  0  0  0  0
 22 27  1  0  0  0  0
 23 24  1  0  0  0  0
 23 49  1  0  0  0  0
 24 25  2  0  0  0  0
 24 50  1  0  0  0  0
 25 26  1  0  0  0  0
 25 51  1  0  0  0  0
 26 27  2  0  0  0  0
 26 52  1  0  0  0  0
 27 53  1  0  0  0  0
 28 29  1  0  0  0  0
 29 30  1  0  0  0  0
 30 31  1  0  0  0  0
 30 54  1  0  0  0  0
 30 55  1  0  0  0  0
 31 32  1  0  0  0  0
 31 56  1  0  0  0  0
 31 57  1  0  0  0  0
 32 33  1  0  0  0  0
 32 58  1  0  0  0  0
 32 59  1  0  0  0  0
 33 34  1  0  0  0  0
 33 60  1  0  0  0  0
 33 61  1  0  0  0  0
 34 35  1  0  0  0  0
 34 62  1  0  0  0  0
 34 63  1  0  0  0  0
 35 64  1  0  0  0  0
 36 65  1  0  0  0  0
 36 66  1  0  0  0  0
 36 67  1  0  0  0  0
M  END
$$$$
CHEMBL5195978
 OpenBabel12022418113D

 54 55  0  0  0  0  0  0  0  0999 V2000
    0.9854   -0.1174   -0.1463 C   0  0  0  0  0  0  0  0  0  0  0  0
    2.8569   -0.0316   -0.0501 Si  0  0  0  0  0  0  0  0  0  0  0  0
    3.6283   -1.5350   -0.8526 C   0  0  0  0  0  0  0  0  0  0  0  0
    3.3996    1.5798   -0.8937 C   0  0  0  0  0  0  0  0  0  0  0  0
    4.2379    1.5964   -2.0111 C   0  0  0  0  0  0  0  0  0  0  0  0
    4.5790    2.8132   -2.6150 C   0  0  0  0  0  0  0  0  0  0  0  0
    4.1120    4.0521   -2.1380 C   0  0  0  0  0  0  0  0  0  0  0  0
    3.2987    4.0128   -0.9918 C   0  0  0  0  0  0  0  0  0  0  0  0
    2.9416    2.8042   -0.3908 C   0  0  0  0  0  0  0  0  0  0  0  0
    2.7846    5.1180   -0.3776 O   0  0  0  0  0  0  0  0  0  0  0  0
    4.4421    5.3670   -2.8499 C   0  0  0  0  0  0  0  0  0  0  0  0
    5.8915    5.8309   -2.5921 C   0  0  0  0  0  0  0  0  0  0  0  0
    6.9618    5.5034   -3.6307 C   0  0  0  0  0  0  0  0  0  0  0  0
    6.9598    6.4164   -4.8527 C   0  0  0  0  0  0  0  0  0  0  0  0
    5.7648    6.2749   -5.7865 C   0  0  0  0  0  0  0  0  0  0  0  0
    4.4088    6.5488   -5.1440 C   0  0  0  0  0  0  0  0  0  0  0  0
    3.9210    5.3794   -4.2971 C   0  0  0  0  0  0  0  0  0  0  0  0
    5.3814    2.7728   -3.7195 O   0  0  0  0  0  0  0  0  0  0  0  0
    3.4115    0.0736    1.7830 C   0  0  0  0  0  0  0  0  0  0  0  0
    4.9309    0.1428    1.9688 C   0  0  0  0  0  0  0  0  0  0  0  0
    5.3165    0.2457    3.4428 C   0  0  0  0  0  0  0  0  0  0  0  0
    6.8276    0.3023    3.6059 C   0  0  0  0  0  0  0  0  0  0  0  0
    0.6547   -0.1311   -1.1896 H   0  0  0  0  0  0  0  0  0  0  0  0
    0.5349    0.7535    0.3405 H   0  0  0  0  0  0  0  0  0  0  0  0
    0.6109   -1.0177    0.3460 H   0  0  0  0  0  0  0  0  0  0  0  0
    3.3478   -1.6066   -1.9078 H   0  0  0  0  0  0  0  0  0  0  0  0
    3.2977   -2.4503   -0.3521 H   0  0  0  0  0  0  0  0  0  0  0  0
    4.7203   -1.4957   -0.7940 H   0  0  0  0  0  0  0  0  0  0  0  0
    4.6170    0.6662   -2.4242 H   0  0  0  0  0  0  0  0  0  0  0  0
    2.2938    2.8426    0.4840 H   0  0  0  0  0  0  0  0  0  0  0  0
    3.3440    5.8839   -0.5731 H   0  0  0  0  0  0  0  0  0  0  0  0
    3.8373    6.1475   -2.3723 H   0  0  0  0  0  0  0  0  0  0  0  0
    6.2243    5.4385   -1.6213 H   0  0  0  0  0  0  0  0  0  0  0  0
    5.8803    6.9225   -2.4636 H   0  0  0  0  0  0  0  0  0  0  0  0
    6.9359    4.4591   -3.9402 H   0  0  0  0  0  0  0  0  0  0  0  0
    7.9358    5.6369   -3.1398 H   0  0  0  0  0  0  0  0  0  0  0  0
    7.8637    6.1981   -5.4355 H   0  0  0  0  0  0  0  0  0  0  0  0
    7.0504    7.4604   -4.5307 H   0  0  0  0  0  0  0  0  0  0  0  0
    5.7696    5.2776   -6.2439 H   0  0  0  0  0  0  0  0  0  0  0  0
    5.9013    6.9868   -6.6099 H   0  0  0  0  0  0  0  0  0  0  0  0
    3.6842    6.6923   -5.9559 H   0  0  0  0  0  0  0  0  0  0  0  0
    4.4200    7.4821   -4.5696 H   0  0  0  0  0  0  0  0  0  0  0  0
    2.8234    5.4312   -4.2462 H   0  0  0  0  0  0  0  0  0  0  0  0
    4.1262    4.4468   -4.8304 H   0  0  0  0  0  0  0  0  0  0  0  0
    5.6118    1.8523   -3.9204 H   0  0  0  0  0  0  0  0  0  0  0  0
    3.0078   -0.8000    2.3067 H   0  0  0  0  0  0  0  0  0  0  0  0
    2.9429    0.9618    2.2225 H   0  0  0  0  0  0  0  0  0  0  0  0
    5.3374    1.0080    1.4296 H   0  0  0  0  0  0  0  0  0  0  0  0
    5.4004   -0.7485    1.5352 H   0  0  0  0  0  0  0  0  0  0  0  0
    4.9249   -0.6172    3.9934 H   0  0  0  0  0  0  0  0  0  0  0  0
    4.8708    1.1450    3.8844 H   0  0  0  0  0  0  0  0  0  0  0  0
    7.2991   -0.5939    3.1905 H   0  0  0  0  0  0  0  0  0  0  0  0
    7.0940    0.3686    4.6647 H   0  0  0  0  0  0  0  0  0  0  0  0
    7.2440    1.1761    3.0944 H   0  0  0  0  0  0  0  0  0  0  0  0
  1  2  1  0  0  0  0
  1 23  1  0  0  0  0
  1 24  1  0  0  0  0
  1 25  1  0  0  0  0
  2  3  1  0  0  0  0
  2  4  1  0  0  0  0
  2 19  1  0  0  0  0
  3 26  1  0  0  0  0
  3 27  1  0  0  0  0
  3 28  1  0  0  0  0
  4  9  2  0  0  0  0
  4  5  1  0  0  0  0
  5  6  2  0  0  0  0
  5 29  1  0  0  0  0
  6  7  1  0  0  0  0
  6 18  1  0  0  0  0
  7  8  2  0  0  0  0
  7 11  1  0  0  0  0
  8  9  1  0  0  0  0
  8 10  1  0  0  0  0
  9 30  1  0  0  0  0
 10 31  1  0  0  0  0
 11 17  1  0  0  0  0
 11 12  1  0  0  0  0
 11 32  1  0  0  0  0
 12 13  1  0  0  0  0
 12 33  1  0  0  0  0
 12 34  1  0  0  0  0
 13 14  1  0  0  0  0
 13 35  1  0  0  0  0
 13 36  1  0  0  0  0
 14 15  1  0  0  0  0
 14 37  1  0  0  0  0
 14 38  1  0  0  0  0
 15 16  1  0  0  0  0
 15 39  1  0  0  0  0
 15 40  1  0  0  0  0
 16 17  1  0  0  0  0
 16 41  1  0  0  0  0
 16 42  1  0  0  0  0
 17 43  1  0  0  0  0
 17 44  1  0  0  0  0
 18 45  1  0  0  0  0
 19 20  1  0  0  0  0
 19 46  1  0  0  0  0
 19 47  1  0  0  0  0
 20 21  1  0  0  0  0
 20 48  1  0  0  0  0
 20 49  1  0  0  0  0
 21 22  1  0  0  0  0
 21 50  1  0  0  0  0
 21 51  1  0  0  0  0
 22 52  1  0  0  0  0
 22 53  1  0  0  0  0
 22 54  1  0  0  0  0
M  END
$$$$
CHEMBL5282889
 OpenBabel12022418113D

 49 51  0  0  0  0  0  0  0  0999 V2000
    4.8599   -6.0095   -5.1907 C   0  0  0  0  0  0  0  0  0  0  0  0
    4.3612   -4.6498   -4.7322 C   0  0  0  0  0  0  0  0  0  0  0  0
    5.0791   -4.1849   -3.4640 C   0  0  0  0  0  0  0  0  0  0  0  0
    4.5669   -2.8103   -3.0320 C   0  0  0  0  0  0  0  0  0  0  0  0
    5.2944   -2.2294   -1.8130 C   0  0  0  0  0  0  0  0  0  0  0  0
    6.7371   -2.0829   -1.9753 N   0  0  0  0  0  0  0  0  0  0  0  0
    7.7217   -2.7651   -1.2755 C   0  0  0  0  0  0  0  0  0  0  0  0
    8.9759   -2.3614   -1.7606 C   0  0  0  0  0  0  0  0  0  0  0  0
    8.6876   -1.5120   -2.8630 C   0  0  0  0  0  0  0  0  0  0  0  0
    7.3359   -1.2333   -2.8886 C   0  0  0  0  0  0  0  0  0  0  0  0
    6.6060   -0.2596   -3.7530 C   0  0  0  0  0  0  0  0  0  0  0  0
    9.9172   -0.8567   -4.1371 Br  0  0  0  0  0  0  0  0  0  0  0  0
   10.2594   -2.8229   -1.1948 C   0  0  0  0  0  0  0  0  0  0  0  0
   10.3349   -3.8871   -0.5768 O   0  0  0  0  0  0  0  0  0  0  0  0
   11.4834   -1.9551   -1.2709 C   0  0  0  0  0  0  0  0  0  0  0  0
   11.3109   -0.5663   -1.1335 C   0  0  0  0  0  0  0  0  0  0  0  0
   12.3811    0.3039   -1.3023 C   0  0  0  0  0  0  0  0  0  0  0  0
   13.6510   -0.2045   -1.5450 C   0  0  0  0  0  0  0  0  0  0  0  0
   13.8798   -1.5872   -1.5818 C   0  0  0  0  0  0  0  0  0  0  0  0
   15.1922   -2.0578   -1.7539 C   0  0  0  0  0  0  0  0  0  0  0  0
   15.4741   -3.4205   -1.7582 C   0  0  0  0  0  0  0  0  0  0  0  0
   14.4403   -4.3323   -1.6087 C   0  0  0  0  0  0  0  0  0  0  0  0
   13.1241   -3.8793   -1.4686 C   0  0  0  0  0  0  0  0  0  0  0  0
   12.7973   -2.4979   -1.4384 C   0  0  0  0  0  0  0  0  0  0  0  0
    7.4547   -3.7700   -0.1961 C   0  0  0  0  0  0  0  0  0  0  0  0
    4.3278   -6.3216   -6.0947 H   0  0  0  0  0  0  0  0  0  0  0  0
    4.6952   -6.7675   -4.4187 H   0  0  0  0  0  0  0  0  0  0  0  0
    5.9295   -5.9770   -5.4204 H   0  0  0  0  0  0  0  0  0  0  0  0
    3.2812   -4.7003   -4.5532 H   0  0  0  0  0  0  0  0  0  0  0  0
    4.5219   -3.9220   -5.5369 H   0  0  0  0  0  0  0  0  0  0  0  0
    6.1563   -4.1448   -3.6614 H   0  0  0  0  0  0  0  0  0  0  0  0
    4.9218   -4.9085   -2.6556 H   0  0  0  0  0  0  0  0  0  0  0  0
    3.4982   -2.8812   -2.7932 H   0  0  0  0  0  0  0  0  0  0  0  0
    4.6395   -2.1263   -3.8831 H   0  0  0  0  0  0  0  0  0  0  0  0
    5.0804   -2.8458   -0.9398 H   0  0  0  0  0  0  0  0  0  0  0  0
    4.9023   -1.2330   -1.5766 H   0  0  0  0  0  0  0  0  0  0  0  0
    5.5411   -0.1840   -3.5252 H   0  0  0  0  0  0  0  0  0  0  0  0
    6.7105   -0.5340   -4.8071 H   0  0  0  0  0  0  0  0  0  0  0  0
    7.0223    0.7438   -3.6139 H   0  0  0  0  0  0  0  0  0  0  0  0
   10.3293   -0.1433   -0.9284 H   0  0  0  0  0  0  0  0  0  0  0  0
   12.2237    1.3792   -1.2560 H   0  0  0  0  0  0  0  0  0  0  0  0
   14.4744    0.4939   -1.6851 H   0  0  0  0  0  0  0  0  0  0  0  0
   16.0177   -1.3580   -1.8691 H   0  0  0  0  0  0  0  0  0  0  0  0
   16.4979   -3.7669   -1.8691 H   0  0  0  0  0  0  0  0  0  0  0  0
   14.6504   -5.3988   -1.5919 H   0  0  0  0  0  0  0  0  0  0  0  0
   12.3540   -4.6382   -1.3493 H   0  0  0  0  0  0  0  0  0  0  0  0
    6.3999   -3.9356    0.0213 H   0  0  0  0  0  0  0  0  0  0  0  0
    7.9309   -3.4558    0.7385 H   0  0  0  0  0  0  0  0  0  0  0  0
    7.8678   -4.7427   -0.4854 H   0  0  0  0  0  0  0  0  0  0  0  0
  1  2  1  0  0  0  0
  1 26  1  0  0  0  0
  1 27  1  0  0  0  0
  1 28  1  0  0  0  0
  2  3  1  0  0  0  0
  2 29  1  0  0  0  0
  2 30  1  0  0  0  0
  3  4  1  0  0  0  0
  3 31  1  0  0  0  0
  3 32  1  0  0  0  0
  4  5  1  0  0  0  0
  4 33  1  0  0  0  0
  4 34  1  0  0  0  0
  5  6  1  0  0  0  0
  5 35  1  0  0  0  0
  5 36  1  0  0  0  0
  6 10  1  0  0  0  0
  6  7  1  0  0  0  0
  7  8  2  0  0  0  0
  7 25  1  0  0  0  0
  8  9  1  0  0  0  0
  8 13  1  0  0  0  0
  9 10  2  0  0  0  0
  9 12  1  0  0  0  0
 10 11  1  0  0  0  0
 11 37  1  0  0  0  0
 11 38  1  0  0  0  0
 11 39  1  0  0  0  0
 13 14  2  0  0  0  0
 13 15  1  0  0  0  0
 15 24  2  0  0  0  0
 15 16  1  0  0  0  0
 16 17  2  0  0  0  0
 16 40  1  0  0  0  0
 17 18  1  0  0  0  0
 17 41  1  0  0  0  0
 18 19  2  0  0  0  0
 18 42  1  0  0  0  0
 19 24  1  0  0  0  0
 19 20  1  0  0  0  0
 20 21  2  0  0  0  0
 20 43  1  0  0  0  0
 21 22  1  0  0  0  0
 21 44  1  0  0  0  0
 22 23  2  0  0  0  0
 22 45  1  0  0  0  0
 23 24  1  0  0  0  0
 23 46  1  0  0  0  0
 25 47  1  0  0  0  0
 25 48  1  0  0  0  0
 25 49  1  0  0  0  0
M  END
$$$$
CHEMBL5193683
 OpenBabel12022418113D

 63 64  0  0  0  0  0  0  0  0999 V2000
    7.3378   -3.0618   -6.1253 C   0  0  0  0  0  0  0  0  0  0  0  0
    6.7461   -4.0015   -5.0875 C   0  0  0  0  0  0  0  0  0  0  0  0
    7.1708   -3.5917   -3.6809 C   0  0  0  0  0  0  0  0  0  0  0  0
    6.5884   -4.5215   -2.6181 C   0  0  0  0  0  0  0  0  0  0  0  0
    7.0463   -4.0755   -1.2323 C   0  0  0  0  0  0  0  0  0  0  0  0
    6.4986   -4.9920   -0.1313 C   0  0  0  0  0  0  0  0  0  0  0  0
    7.0399   -4.4656    1.6222 Si  0  0  0  0  0  0  0  0  0  0  0  0
    6.3425   -2.7448    1.9666 C   0  0  0  0  0  0  0  0  0  0  0  0
    6.3889   -5.6615    2.9029 C   0  0  0  0  0  0  0  0  0  0  0  0
    8.9472   -4.4152    1.6683 C   0  0  0  0  0  0  0  0  0  0  0  0
    9.7349   -5.5527    1.4762 C   0  0  0  0  0  0  0  0  0  0  0  0
   11.1323   -5.4414    1.5006 C   0  0  0  0  0  0  0  0  0  0  0  0
   11.7976   -4.2166    1.7569 C   0  0  0  0  0  0  0  0  0  0  0  0
   10.9919   -3.1149    2.0687 C   0  0  0  0  0  0  0  0  0  0  0  0
    9.5975   -3.2036    1.9290 C   0  0  0  0  0  0  0  0  0  0  0  0
   11.5767   -1.9738    2.5513 O   0  0  0  0  0  0  0  0  0  0  0  0
   10.7375   -1.1948    3.4142 C   0  0  0  0  0  0  0  0  0  0  0  0
   13.3393   -4.1824    1.6979 C   0  0  0  0  0  0  0  0  0  0  0  0
   13.9470   -3.1446    0.7186 C   0  0  0  0  0  0  0  0  0  0  0  0
   14.5013   -1.8177    1.2247 C   0  0  0  0  0  0  0  0  0  0  0  0
   15.8317   -1.8803    1.9795 C   0  0  0  0  0  0  0  0  0  0  0  0
   15.8056   -2.6216    3.3062 C   0  0  0  0  0  0  0  0  0  0  0  0
   15.4505   -4.0972    3.1807 C   0  0  0  0  0  0  0  0  0  0  0  0
   13.9427   -4.3187    3.1007 C   0  0  0  0  0  0  0  0  0  0  0  0
   11.8758   -6.5799    1.3054 O   0  0  0  0  0  0  0  0  0  0  0  0
    7.0301   -3.3623   -7.1312 H   0  0  0  0  0  0  0  0  0  0  0  0
    8.4317   -3.0740   -6.0848 H   0  0  0  0  0  0  0  0  0  0  0  0
    7.0014   -2.0335   -5.9581 H   0  0  0  0  0  0  0  0  0  0  0  0
    7.0762   -5.0258   -5.2941 H   0  0  0  0  0  0  0  0  0  0  0  0
    5.6530   -3.9882   -5.1664 H   0  0  0  0  0  0  0  0  0  0  0  0
    6.8447   -2.5626   -3.4850 H   0  0  0  0  0  0  0  0  0  0  0  0
    8.2658   -3.5992   -3.6101 H   0  0  0  0  0  0  0  0  0  0  0  0
    6.9139   -5.5519   -2.8034 H   0  0  0  0  0  0  0  0  0  0  0  0
    5.4933   -4.5095   -2.6683 H   0  0  0  0  0  0  0  0  0  0  0  0
    6.7145   -3.0435   -1.0618 H   0  0  0  0  0  0  0  0  0  0  0  0
    8.1435   -4.0636   -1.2059 H   0  0  0  0  0  0  0  0  0  0  0  0
    6.8347   -6.0183   -0.2996 H   0  0  0  0  0  0  0  0  0  0  0  0
    5.4028   -4.9938   -0.1590 H   0  0  0  0  0  0  0  0  0  0  0  0
    5.2490   -2.7565    1.9273 H   0  0  0  0  0  0  0  0  0  0  0  0
    6.7008   -2.0256    1.2239 H   0  0  0  0  0  0  0  0  0  0  0  0
    6.6476   -2.3960    2.9575 H   0  0  0  0  0  0  0  0  0  0  0  0
    5.2948   -5.6851    2.8855 H   0  0  0  0  0  0  0  0  0  0  0  0
    6.7031   -5.3605    3.9068 H   0  0  0  0  0  0  0  0  0  0  0  0
    6.7543   -6.6756    2.7191 H   0  0  0  0  0  0  0  0  0  0  0  0
    9.2679   -6.5162    1.2955 H   0  0  0  0  0  0  0  0  0  0  0  0
    9.0017   -2.3029    2.0477 H   0  0  0  0  0  0  0  0  0  0  0  0
   11.3699   -0.6276    4.1008 H   0  0  0  0  0  0  0  0  0  0  0  0
   10.0697   -1.8105    4.0324 H   0  0  0  0  0  0  0  0  0  0  0  0
   10.1525   -0.4819    2.8206 H   0  0  0  0  0  0  0  0  0  0  0  0
   13.6324   -5.1193    1.1948 H   0  0  0  0  0  0  0  0  0  0  0  0
   13.2061   -2.9221   -0.0613 H   0  0  0  0  0  0  0  0  0  0  0  0
   14.7709   -3.6406    0.1830 H   0  0  0  0  0  0  0  0  0  0  0  0
   13.7656   -1.2663    1.8143 H   0  0  0  0  0  0  0  0  0  0  0  0
   14.6960   -1.1994    0.3389 H   0  0  0  0  0  0  0  0  0  0  0  0
   16.1537   -0.8497    2.1815 H   0  0  0  0  0  0  0  0  0  0  0  0
   16.6055   -2.3139    1.3335 H   0  0  0  0  0  0  0  0  0  0  0  0
   15.1219   -2.1210    4.0020 H   0  0  0  0  0  0  0  0  0  0  0  0
   16.8049   -2.5449    3.7527 H   0  0  0  0  0  0  0  0  0  0  0  0
   15.8185   -4.6054    4.0803 H   0  0  0  0  0  0  0  0  0  0  0  0
   15.9695   -4.5621    2.3336 H   0  0  0  0  0  0  0  0  0  0  0  0
   13.7504   -5.3499    3.4373 H   0  0  0  0  0  0  0  0  0  0  0  0
   13.4286   -3.6742    3.8237 H   0  0  0  0  0  0  0  0  0  0  0  0
   11.2828   -7.3465    1.2780 H   0  0  0  0  0  0  0  0  0  0  0  0
  1  2  1  0  0  0  0
  1 26  1  0  0  0  0
  1 27  1  0  0  0  0
  1 28  1  0  0  0  0
  2  3  1  0  0  0  0
  2 29  1  0  0  0  0
  2 30  1  0  0  0  0
  3  4  1  0  0  0  0
  3 31  1  0  0  0  0
  3 32  1  0  0  0  0
  4  5  1  0  0  0  0
  4 33  1  0  0  0  0
  4 34  1  0  0  0  0
  5  6  1  0  0  0  0
  5 35  1  0  0  0  0
  5 36  1  0  0  0  0
  6  7  1  0  0  0  0
  6 37  1  0  0  0  0
  6 38  1  0  0  0  0
  7  8  1  0  0  0  0
  7  9  1  0  0  0  0
  7 10  1  0  0  0  0
  8 39  1  0  0  0  0
  8 40  1  0  0  0  0
  8 41  1  0  0  0  0
  9 42  1  0  0  0  0
  9 43  1  0  0  0  0
  9 44  1  0  0  0  0
 10 15  2  0  0  0  0
 10 11  1  0  0  0  0
 11 12  2  0  0  0  0
 11 45  1  0  0  0  0
 12 13  1  0  0  0  0
 12 25  1  0  0  0  0
 13 14  2  0  0  0  0
 13 18  1  0  0  0  0
 14 15  1  0  0  0  0
 14 16  1  0  0  0  0
 15 46  1  0  0  0  0
 16 17  1  0  0  0  0
 17 47  1  0  0  0  0
 17 48  1  0  0  0  0
 17 49  1  0  0  0  0
 18 24  1  0  0  0  0
 18 19  1  0  0  0  0
 18 50  1  0  0  0  0
 19 20  1  0  0  0  0
 19 51  1  0  0  0  0
 19 52  1  0  0  0  0
 20 21  1  0  0  0  0
 20 53  1  0  0  0  0
 20 54  1  0  0  0  0
 21 22  1  0  0  0  0
 21 55  1  0  0  0  0
 21 56  1  0  0  0  0
 22 23  1  0  0  0  0
 22 57  1  0  0  0  0
 22 58  1  0  0  0  0
 23 24  1  0  0  0  0
 23 59  1  0  0  0  0
 23 60  1  0  0  0  0
 24 61  1  0  0  0  0
 24 62  1  0  0  0  0
 25 63  1  0  0  0  0
M  END
$$$$
CHEMBL4850004
 OpenBabel12022418113D

 49 51  0  0  0  0  0  0  0  0999 V2000
    5.4310   -0.1542    2.5401 C   0  0  0  0  0  0  0  0  0  0  0  0
    4.5972   -0.1515    1.2603 C   0  0  0  0  0  0  0  0  0  0  0  0
    5.1816    0.8719    0.2920 C   0  0  0  0  0  0  0  0  0  0  0  0
    4.4906    0.9661   -1.0753 C   0  0  0  0  0  0  0  0  0  0  0  0
    5.0559    2.0710   -2.0413 C   0  0  0  0  0  0  0  0  0  0  0  0
    4.0988    2.1951   -3.2584 C   0  0  0  0  0  0  0  0  0  0  0  0
    4.3787    3.5743   -3.8484 C   0  0  0  0  0  0  0  0  0  0  0  0
    4.7983    4.4379   -2.6634 C   0  0  0  0  0  0  0  0  0  0  0  0
    4.8945    3.4978   -1.4578 C   0  0  0  0  0  0  0  0  0  0  0  0
    6.5298    1.7819   -2.4112 C   0  0  0  0  0  0  0  0  0  0  0  0
    7.5323    1.8761   -1.4227 C   0  0  0  0  0  0  0  0  0  0  0  0
    8.8441    1.4625   -1.6575 C   0  0  0  0  0  0  0  0  0  0  0  0
    9.2434    1.0761   -2.9288 C   0  0  0  0  0  0  0  0  0  0  0  0
   10.6073    0.7015   -3.2480 C   0  0  0  0  0  0  0  0  0  0  0  0
   10.9591    0.4064   -4.5105 C   0  0  0  0  0  0  0  0  0  0  0  0
    9.9574    0.4330   -5.6023 C   0  0  0  0  0  0  0  0  0  0  0  0
   10.2658    0.1891   -6.7610 O   0  0  0  0  0  0  0  0  0  0  0  0
    8.6440    0.7330   -5.2559 O   0  0  0  0  0  0  0  0  0  0  0  0
    8.2863    1.0680   -3.9347 C   0  0  0  0  0  0  0  0  0  0  0  0
    6.9436    1.3831   -3.6914 C   0  0  0  0  0  0  0  0  0  0  0  0
   12.3840    0.0834   -4.8706 C   0  0  0  0  0  0  0  0  0  0  0  0
   12.6468   -1.4131   -4.8643 C   0  0  0  0  0  0  0  0  0  0  0  0
    9.7359    1.4199   -0.6203 O   0  0  0  0  0  0  0  0  0  0  0  0
    5.0632   -0.9015    3.2470 H   0  0  0  0  0  0  0  0  0  0  0  0
    5.3998    0.8267    3.0271 H   0  0  0  0  0  0  0  0  0  0  0  0
    6.4817   -0.3823    2.3224 H   0  0  0  0  0  0  0  0  0  0  0  0
    3.5545    0.0827    1.4944 H   0  0  0  0  0  0  0  0  0  0  0  0
    4.6270   -1.1504    0.8102 H   0  0  0  0  0  0  0  0  0  0  0  0
    6.2152    0.5565    0.1495 H   0  0  0  0  0  0  0  0  0  0  0  0
    5.1831    1.8574    0.7723 H   0  0  0  0  0  0  0  0  0  0  0  0
    3.4228    1.1550   -0.8989 H   0  0  0  0  0  0  0  0  0  0  0  0
    4.5510   -0.0106   -1.5730 H   0  0  0  0  0  0  0  0  0  0  0  0
    3.0529    2.1785   -2.9212 H   0  0  0  0  0  0  0  0  0  0  0  0
    4.1925    1.3938   -3.9967 H   0  0  0  0  0  0  0  0  0  0  0  0
    3.5014    3.9805   -4.3618 H   0  0  0  0  0  0  0  0  0  0  0  0
    5.1893    3.5311   -4.5839 H   0  0  0  0  0  0  0  0  0  0  0  0
    4.0717    5.2353   -2.4744 H   0  0  0  0  0  0  0  0  0  0  0  0
    5.7631    4.9156   -2.8664 H   0  0  0  0  0  0  0  0  0  0  0  0
    5.6969    3.8120   -0.7844 H   0  0  0  0  0  0  0  0  0  0  0  0
    3.9584    3.5678   -0.8885 H   0  0  0  0  0  0  0  0  0  0  0  0
    7.2858    2.2491   -0.4332 H   0  0  0  0  0  0  0  0  0  0  0  0
   11.3297    0.6830   -2.4389 H   0  0  0  0  0  0  0  0  0  0  0  0
    6.2548    1.3183   -4.5264 H   0  0  0  0  0  0  0  0  0  0  0  0
   13.0701    0.5663   -4.1610 H   0  0  0  0  0  0  0  0  0  0  0  0
   12.6346    0.5055   -5.8538 H   0  0  0  0  0  0  0  0  0  0  0  0
   12.4690   -1.8405   -3.8718 H   0  0  0  0  0  0  0  0  0  0  0  0
   13.6893   -1.6162   -5.1355 H   0  0  0  0  0  0  0  0  0  0  0  0
   12.0062   -1.9348   -5.5809 H   0  0  0  0  0  0  0  0  0  0  0  0
    9.2419    1.4679    0.2159 H   0  0  0  0  0  0  0  0  0  0  0  0
  1  2  1  0  0  0  0
  1 24  1  0  0  0  0
  1 25  1  0  0  0  0
  1 26  1  0  0  0  0
  2  3  1  0  0  0  0
  2 27  1  0  0  0  0
  2 28  1  0  0  0  0
  3  4  1  0  0  0  0
  3 29  1  0  0  0  0
  3 30  1  0  0  0  0
  4  5  1  0  0  0  0
  4 31  1  0  0  0  0
  4 32  1  0  0  0  0
  5  9  1  0  0  0  0
  5  6  1  0  0  0  0
  5 10  1  0  0  0  0
  6  7  1  0  0  0  0
  6 33  1  0  0  0  0
  6 34  1  0  0  0  0
  7  8  1  0  0  0  0
  7 35  1  0  0  0  0
  7 36  1  0  0  0  0
  8  9  1  0  0  0  0
  8 37  1  0  0  0  0
  8 38  1  0  0  0  0
  9 39  1  0  0  0  0
  9 40  1  0  0  0  0
 10 20  2  0  0  0  0
 10 11  1  0  0  0  0
 11 12  2  0  0  0  0
 11 41  1  0  0  0  0
 12 13  1  0  0  0  0
 12 23  1  0  0  0  0
 13 19  2  0  0  0  0
 13 14  1  0  0  0  0
 14 15  2  0  0  0  0
 14 42  1  0  0  0  0
 15 16  1  0  0  0  0
 15 21  1  0  0  0  0
 16 17  2  0  0  0  0
 16 18  1  0  0  0  0
 18 19  1  0  0  0  0
 19 20  1  0  0  0  0
 20 43  1  0  0  0  0
 21 22  1  0  0  0  0
 21 44  1  0  0  0  0
 21 45  1  0  0  0  0
 22 46  1  0  0  0  0
 22 47  1  0  0  0  0
 22 48  1  0  0  0  0
 23 49  1  0  0  0  0
M  END
$$$$
