CHEMBL108868
 OpenBabel12022417463D

 69 72  0  0  1  0  0  0  0  0999 V2000
    0.5082    1.5904   -0.2889 C   0  0  0  0  0  0  0  0  0  0  0  0
    1.9778    1.2047   -0.2623 C   0  0  0  0  0  0  0  0  0  0  0  0
    2.6675    1.8369    0.9367 C   0  0  0  0  0  0  0  0  0  0  0  0
    4.1475    1.4714    1.0082 C   0  0  0  0  0  0  0  0  0  0  0  0
    4.7452    2.1512    2.2317 C   0  0  0  0  0  0  0  0  0  0  0  0
    6.2372    1.8772    2.3929 C   0  0  0  0  0  0  0  0  0  0  0  0
    6.7984    2.5141    3.7060 C   0  0  0  0  0  0  0  0  0  0  0  0
    6.1270    1.8309    4.9297 C   0  0  0  0  0  0  0  0  0  0  0  0
    5.3360    2.4369    5.9289 C   0  0  0  0  0  0  0  0  0  0  0  0
    4.7655    1.6885    7.0252 C   0  0  0  0  0  0  0  0  0  0  0  0
    4.9181    0.2988    7.1532 C   0  0  0  0  0  0  0  0  0  0  0  0
    5.5940   -0.2925    6.0378 C   0  0  0  0  0  0  0  0  0  0  0  0
    6.2174    0.4434    5.0181 C   0  0  0  0  0  0  0  0  0  0  0  0
    5.8386   -1.6488    5.8816 O   0  0  0  0  0  0  0  0  0  0  0  0
    5.3020   -2.4222    6.9704 C   0  0  0  0  0  0  0  0  0  0  0  0
    5.8619   -3.8382    6.8669 C   0  0  0  0  0  0  0  0  0  0  0  0
    3.7890   -2.5475    6.6184 C   0  0  0  0  0  0  0  0  0  0  0  0
    5.8453   -1.6417    8.2171 C   0  0  2  0  0  0  0  0  0  0  0  0
    6.3784   -2.3600    9.4354 C   0  0  0  0  0  0  0  0  0  0  0  0
    5.3327   -2.8667   10.3296 C   0  0  0  0  0  0  0  0  0  0  0  0
    4.0548   -2.4314   10.2761 C   0  0  0  0  0  0  0  0  0  0  0  0
    3.1176   -3.2557   11.1429 C   0  0  0  0  0  0  0  0  0  0  0  0
    3.6131   -1.2493    9.3401 C   0  0  0  0  0  0  0  0  0  0  0  0
    4.8308   -0.5259    8.5215 C   0  0  2  0  0  0  0  0  0  0  0  0
    4.0772    2.3704    7.9938 O   0  0  0  0  0  0  0  0  0  0  0  0
    8.3457    2.3563    3.7123 C   0  0  0  0  0  0  0  0  0  0  0  0
    8.8765    3.5189    4.5435 C   0  0  0  0  0  0  0  0  0  0  0  0
    7.8522    4.6367    4.4010 C   0  0  0  0  0  0  0  0  0  0  0  0
    6.6926    4.0541    3.6003 C   0  0  0  0  0  0  0  0  0  0  0  0
    0.0115    1.1384   -1.1517 H   0  0  0  0  0  0  0  0  0  0  0  0
    0.3914    2.6767   -0.3554 H   0  0  0  0  0  0  0  0  0  0  0  0
   -0.0007    1.2482    0.6187 H   0  0  0  0  0  0  0  0  0  0  0  0
    2.4609    1.5370   -1.1880 H   0  0  0  0  0  0  0  0  0  0  0  0
    2.0706    0.1141   -0.2148 H   0  0  0  0  0  0  0  0  0  0  0  0
    2.1689    1.5144    1.8600 H   0  0  0  0  0  0  0  0  0  0  0  0
    2.5652    2.9286    0.8853 H   0  0  0  0  0  0  0  0  0  0  0  0
    4.6667    1.7983    0.1000 H   0  0  0  0  0  0  0  0  0  0  0  0
    4.2655    0.3837    1.0846 H   0  0  0  0  0  0  0  0  0  0  0  0
    4.2008    1.8070    3.1171 H   0  0  0  0  0  0  0  0  0  0  0  0
    4.5817    3.2318    2.1537 H   0  0  0  0  0  0  0  0  0  0  0  0
    6.7674    2.2808    1.5189 H   0  0  0  0  0  0  0  0  0  0  0  0
    6.4240    0.7967    2.3628 H   0  0  0  0  0  0  0  0  0  0  0  0
    5.1749    3.5112    5.8859 H   0  0  0  0  0  0  0  0  0  0  0  0
    6.8101   -0.1170    4.2959 H   0  0  0  0  0  0  0  0  0  0  0  0
    6.9455   -3.8549    7.0068 H   0  0  0  0  0  0  0  0  0  0  0  0
    5.6720   -4.2574    5.8727 H   0  0  0  0  0  0  0  0  0  0  0  0
    5.3891   -4.4920    7.6076 H   0  0  0  0  0  0  0  0  0  0  0  0
    3.2536   -1.5881    6.5805 H   0  0  0  0  0  0  0  0  0  0  0  0
    3.2479   -3.2252    7.2797 H   0  0  0  0  0  0  0  0  0  0  0  0
    3.6803   -2.9281    5.5922 H   0  0  0  0  0  0  0  0  0  0  0  0
    6.7761   -1.1417    7.9049 H   0  0  0  0  0  0  0  0  0  0  0  0
    7.0340   -3.1834    9.1418 H   0  0  0  0  0  0  0  0  0  0  0  0
    7.0083   -1.6720   10.0148 H   0  0  0  0  0  0  0  0  0  0  0  0
    5.6511   -3.6306   11.0254 H   0  0  0  0  0  0  0  0  0  0  0  0
    3.6517   -4.1089   11.6171 H   0  0  0  0  0  0  0  0  0  0  0  0
    2.3217   -3.7211   10.5536 H   0  0  0  0  0  0  0  0  0  0  0  0
    2.7008   -2.6798   11.9735 H   0  0  0  0  0  0  0  0  0  0  0  0
    3.1206   -0.4975    9.9704 H   0  0  0  0  0  0  0  0  0  0  0  0
    2.8233   -1.6199    8.6808 H   0  0  0  0  0  0  0  0  0  0  0  0
    5.2726    0.1547    9.2640 H   0  0  0  0  0  0  0  0  0  0  0  0
    3.9615    3.2910    7.6928 H   0  0  0  0  0  0  0  0  0  0  0  0
    8.7443    2.4616    2.6921 H   0  0  0  0  0  0  0  0  0  0  0  0
    8.7056    1.3954    4.0919 H   0  0  0  0  0  0  0  0  0  0  0  0
    9.8712    3.8317    4.2040 H   0  0  0  0  0  0  0  0  0  0  0  0
    8.9644    3.2275    5.5941 H   0  0  0  0  0  0  0  0  0  0  0  0
    8.2795    5.5057    3.8853 H   0  0  0  0  0  0  0  0  0  0  0  0
    7.5180    4.9745    5.3864 H   0  0  0  0  0  0  0  0  0  0  0  0
    5.7299    4.4638    3.9130 H   0  0  0  0  0  0  0  0  0  0  0  0
    6.8337    4.3641    2.5527 H   0  0  0  0  0  0  0  0  0  0  0  0
  1  2  1  0  0  0  0
  1 30  1  0  0  0  0
  1 31  1  0  0  0  0
  1 32  1  0  0  0  0
  2  3  1  0  0  0  0
  2 33  1  0  0  0  0
  2 34  1  0  0  0  0
  3  4  1  0  0  0  0
  3 35  1  0  0  0  0
  3 36  1  0  0  0  0
  4  5  1  0  0  0  0
  4 37  1  0  0  0  0
  4 38  1  0  0  0  0
  5  6  1  0  0  0  0
  5 39  1  0  0  0  0
  5 40  1  0  0  0  0
  6  7  1  0  0  0  0
  6 41  1  0  0  0  0
  6 42  1  0  0  0  0
  7 29  1  0  0  0  0
  7 26  1  0  0  0  0
  7  8  1  0  0  0  0
  8 13  2  0  0  0  0
  8  9  1  0  0  0  0
  9 10  2  0  0  0  0
  9 43  1  0  0  0  0
 10 11  1  0  0  0  0
 10 25  1  0  0  0  0
 11 24  1  0  0  0  0
 11 12  2  0  0  0  0
 12 13  1  0  0  0  0
 12 14  1  0  0  0  0
 13 44  1  0  0  0  0
 14 15  1  0  0  0  0
 15 18  1  0  0  0  0
 15 16  1  0  0  0  0
 15 17  1  0  0  0  0
 16 45  1  0  0  0  0
 16 46  1  0  0  0  0
 16 47  1  0  0  0  0
 17 48  1  0  0  0  0
 17 49  1  0  0  0  0
 17 50  1  0  0  0  0
 18 19  1  0  0  0  0
 18 24  1  0  0  0  0
 18 51  1  6  0  0  0
 19 20  1  0  0  0  0
 19 52  1  0  0  0  0
 19 53  1  0  0  0  0
 20 21  2  0  0  0  0
 20 54  1  0  0  0  0
 21 23  1  0  0  0  0
 21 22  1  0  0  0  0
 22 55  1  0  0  0  0
 22 56  1  0  0  0  0
 22 57  1  0  0  0  0
 23 58  1  0  0  0  0
 23 59  1  0  0  0  0
 24 23  1  0  0  0  0
 24 60  1  1  0  0  0
 25 61  1  0  0  0  0
 26 27  1  0  0  0  0
 26 62  1  0  0  0  0
 26 63  1  0  0  0  0
 27 28  1  0  0  0  0
 27 64  1  0  0  0  0
 27 65  1  0  0  0  0
 28 29  1  0  0  0  0
 28 66  1  0  0  0  0
 28 67  1  0  0  0  0
 29 68  1  0  0  0  0
 29 69  1  0  0  0  0
M  END
$$$$
CHEMBL325135
 OpenBabel12022417463D

 71 74  0  0  1  0  0  0  0  0999 V2000
    0.8267    0.1333   -0.3069 C   0  0  0  0  0  0  0  0  0  0  0  0
    2.3239    0.0214   -0.1347 C   0  0  0  0  0  0  0  0  0  0  0  0
    2.9002   -0.8876   -1.1966 C   0  0  0  0  0  0  0  0  0  0  0  0
    4.4003   -0.9848   -1.0051 C   0  0  0  0  0  0  0  0  0  0  0  0
    4.9356   -1.8908   -2.0742 C   0  0  0  0  0  0  0  0  0  0  0  0
    6.4456   -2.0420   -1.9508 C   0  0  0  0  0  0  0  0  0  0  0  0
    6.9870   -2.9712   -3.0538 C   0  0  1  0  0  0  0  0  0  0  0  0
    6.7705   -2.3726   -4.4553 C   0  0  0  0  0  0  0  0  0  0  0  0
    5.9417   -2.9398   -5.4492 C   0  0  0  0  0  0  0  0  0  0  0  0
    5.6635   -2.3031   -6.6990 C   0  0  0  0  0  0  0  0  0  0  0  0
    6.1589   -1.0307   -7.0180 C   0  0  0  0  0  0  0  0  0  0  0  0
    7.0288   -0.4842   -5.9596 C   0  0  0  0  0  0  0  0  0  0  0  0
    7.3472   -1.1437   -4.7651 C   0  0  0  0  0  0  0  0  0  0  0  0
    7.6264    0.7950   -5.9853 O   0  0  0  0  0  0  0  0  0  0  0  0
    7.0554    1.4958   -7.0676 C   0  0  0  0  0  0  0  0  0  0  0  0
    7.4897    2.9907   -7.3118 C   0  0  0  0  0  0  0  0  0  0  0  0
    5.5598    1.7863   -6.6894 C   0  0  0  0  0  0  0  0  0  0  0  0
    7.3959    0.4651   -8.2168 C   0  0  2  0  0  0  0  0  0  0  0  0
    7.4435    1.0444   -9.4907 C   0  0  0  0  0  0  0  0  0  0  0  0
    7.6555    2.1229  -10.3295 C   0  0  0  0  0  0  0  0  0  0  0  0
    6.3920    2.0078  -10.8187 C   0  0  0  0  0  0  0  0  0  0  0  0
    6.6978    3.1545  -11.8971 C   0  0  0  0  0  0  0  0  0  0  0  0
    5.2273    0.8198   -9.8001 C   0  0  0  0  0  0  0  0  0  0  0  0
    6.1142   -0.3579   -8.5173 C   0  0  2  0  0  0  0  0  0  0  0  0
    4.8983   -2.9916   -7.5986 O   0  0  0  0  0  0  0  0  0  0  0  0
    8.7521   -3.2270   -2.6997 S   0  0  0  0  0  0  0  0  0  0  0  0
    8.8210   -4.8490   -3.4886 C   0  0  1  0  0  0  0  0  0  0  0  0
   10.1134   -5.5006   -3.0393 C   0  0  0  0  0  0  0  0  0  0  0  0
    7.5757   -5.6655   -3.1175 C   0  0  1  0  0  0  0  0  0  0  0  0
    7.6946   -6.5142   -1.8592 C   0  0  0  0  0  0  0  0  0  0  0  0
    6.1622   -4.6045   -2.8322 S   0  0  0  0  0  0  0  0  0  0  0  0
    0.4128    0.7937    0.4574 H   0  0  0  0  0  0  0  0  0  0  0  0
    0.3539   -0.8499   -0.2155 H   0  0  0  0  0  0  0  0  0  0  0  0
    0.5828    0.5410   -1.2931 H   0  0  0  0  0  0  0  0  0  0  0  0
    2.5599   -0.3776    0.8585 H   0  0  0  0  0  0  0  0  0  0  0  0
    2.7868    1.0116   -0.2113 H   0  0  0  0  0  0  0  0  0  0  0  0
    2.6772   -0.5018   -2.2000 H   0  0  0  0  0  0  0  0  0  0  0  0
    2.4453   -1.8858   -1.1333 H   0  0  0  0  0  0  0  0  0  0  0  0
    4.6331   -1.4042   -0.0188 H   0  0  0  0  0  0  0  0  0  0  0  0
    4.8745   -0.0017   -1.0805 H   0  0  0  0  0  0  0  0  0  0  0  0
    4.6699   -1.5152   -3.0687 H   0  0  0  0  0  0  0  0  0  0  0  0
    4.4281   -2.8524   -1.9461 H   0  0  0  0  0  0  0  0  0  0  0  0
    6.6793   -2.4219   -0.9436 H   0  0  0  0  0  0  0  0  0  0  0  0
    6.9129   -1.0484   -2.0011 H   0  0  0  0  0  0  0  0  0  0  0  0
    5.4861   -3.9084   -5.2486 H   0  0  0  0  0  0  0  0  0  0  0  0
    8.0248   -0.6515   -4.0660 H   0  0  0  0  0  0  0  0  0  0  0  0
    8.5010    3.1679   -7.6750 H   0  0  0  0  0  0  0  0  0  0  0  0
    7.3238    3.5908   -6.4128 H   0  0  0  0  0  0  0  0  0  0  0  0
    6.8146    3.4699   -8.0545 H   0  0  0  0  0  0  0  0  0  0  0  0
    4.9472    0.9209   -6.4422 H   0  0  0  0  0  0  0  0  0  0  0  0
    5.0386    2.3581   -7.4588 H   0  0  0  0  0  0  0  0  0  0  0  0
    5.5532    2.4090   -5.7890 H   0  0  0  0  0  0  0  0  0  0  0  0
    8.3374   -0.1050   -8.1664 H   0  0  0  0  0  0  0  0  0  0  0  0
    6.6780    1.7100   -9.0109 H   0  0  0  0  0  0  0  0  0  0  0  0
    7.2739    0.2099  -10.2079 H   0  0  0  0  0  0  0  0  0  0  0  0
    8.6455    2.1825   -9.9138 H   0  0  0  0  0  0  0  0  0  0  0  0
    7.8109    3.4492  -11.8230 H   0  0  0  0  0  0  0  0  0  0  0  0
    6.3476    4.1787  -11.7120 H   0  0  0  0  0  0  0  0  0  0  0  0
    6.7906    2.8590  -12.9497 H   0  0  0  0  0  0  0  0  0  0  0  0
    4.5409    0.1628  -10.3659 H   0  0  0  0  0  0  0  0  0  0  0  0
    4.5822    1.4216   -9.1435 H   0  0  0  0  0  0  0  0  0  0  0  0
    6.3051   -1.2445   -9.1548 H   0  0  0  0  0  0  0  0  0  0  0  0
    4.6134   -3.8259   -7.1818 H   0  0  0  0  0  0  0  0  0  0  0  0
    8.8440   -4.6810   -4.5725 H   0  0  0  0  0  0  0  0  0  0  0  0
   10.1436   -5.6202   -1.9492 H   0  0  0  0  0  0  0  0  0  0  0  0
   10.9842   -4.9056   -3.3266 H   0  0  0  0  0  0  0  0  0  0  0  0
   10.2028   -6.4906   -3.4931 H   0  0  0  0  0  0  0  0  0  0  0  0
    7.2946   -6.3054   -3.9604 H   0  0  0  0  0  0  0  0  0  0  0  0
    7.9943   -5.9110   -0.9936 H   0  0  0  0  0  0  0  0  0  0  0  0
    8.4391   -7.2990   -2.0095 H   0  0  0  0  0  0  0  0  0  0  0  0
    6.7514   -7.0143   -1.6106 H   0  0  0  0  0  0  0  0  0  0  0  0
  1  2  1  0  0  0  0
  1 32  1  0  0  0  0
  1 33  1  0  0  0  0
  1 34  1  0  0  0  0
  2  3  1  0  0  0  0
  2 35  1  0  0  0  0
  2 36  1  0  0  0  0
  3  4  1  0  0  0  0
  3 37  1  0  0  0  0
  3 38  1  0  0  0  0
  4  5  1  0  0  0  0
  4 39  1  0  0  0  0
  4 40  1  0  0  0  0
  5  6  1  0  0  0  0
  5 41  1  0  0  0  0
  5 42  1  0  0  0  0
  6 43  1  0  0  0  0
  6 44  1  0  0  0  0
  7  6  1  1  0  0  0
  7 31  1  0  0  0  0
  7 26  1  0  0  0  0
  7  8  1  0  0  0  0
  8 13  2  0  0  0  0
  8  9  1  0  0  0  0
  9 10  2  0  0  0  0
  9 45  1  0  0  0  0
 10 11  1  0  0  0  0
 10 25  1  0  0  0  0
 11 24  1  0  0  0  0
 11 12  2  0  0  0  0
 12 13  1  0  0  0  0
 12 14  1  0  0  0  0
 13 46  1  0  0  0  0
 14 15  1  0  0  0  0
 15 18  1  0  0  0  0
 15 16  1  0  0  0  0
 15 17  1  0  0  0  0
 16 47  1  0  0  0  0
 16 48  1  0  0  0  0
 16 49  1  0  0  0  0
 17 50  1  0  0  0  0
 17 51  1  0  0  0  0
 17 52  1  0  0  0  0
 18 19  1  0  0  0  0
 18 24  1  0  0  0  0
 18 53  1  1  0  0  0
 19 20  1  0  0  0  0
 19 54  1  0  0  0  0
 19 55  1  0  0  0  0
 20 21  2  3  0  0  0
 20 56  1  0  0  0  0
 21 23  1  0  0  0  0
 21 22  1  0  0  0  0
 22 57  1  0  0  0  0
 22 58  1  0  0  0  0
 22 59  1  0  0  0  0
 23 60  1  0  0  0  0
 23 61  1  0  0  0  0
 24 23  1  0  0  0  0
 24 62  1  6  0  0  0
 25 63  1  0  0  0  0
 26 27  1  0  0  0  0
 27 29  1  0  0  0  0
 27 28  1  0  0  0  0
 27 64  1  6  0  0  0
 28 65  1  0  0  0  0
 28 66  1  0  0  0  0
 28 67  1  0  0  0  0
 29 31  1  0  0  0  0
 29 30  1  0  0  0  0
 29 68  1  6  0  0  0
 30 69  1  0  0  0  0
 30 70  1  0  0  0  0
 30 71  1  0  0  0  0
M  END
$$$$
CHEMBL394305
 OpenBabel12022417463D

 63 65  0  0  1  0  0  0  0  0999 V2000
    4.4490    5.6994   -0.4814 C   0  0  0  0  0  0  0  0  0  0  0  0
    4.0905    4.5274    0.0755 C   0  0  0  0  0  0  0  0  0  0  0  0
    5.1394    3.6895    0.7618 C   0  0  0  0  0  0  0  0  0  0  0  0
    2.6176    4.0709    0.0496 C   0  0  2  0  0  0  0  0  0  0  0  0
    1.8904    4.5636    1.3110 C   0  0  0  0  0  0  0  0  0  0  0  0
    2.2494    3.7712    2.5768 C   0  0  0  0  0  0  0  0  0  0  0  0
    2.5467    2.3025    2.3495 C   0  0  0  0  0  0  0  0  0  0  0  0
    2.5868    1.7544    1.1199 C   0  0  0  0  0  0  0  0  0  0  0  0
    2.3733    2.5366   -0.1567 C   0  0  1  0  0  0  0  0  0  0  0  0
    1.0135    2.2396   -0.8140 C   0  0  0  0  0  0  0  0  0  0  0  0
   -0.1912    2.0128   -0.1186 C   0  0  0  0  0  0  0  0  0  0  0  0
   -1.3886    1.7372   -0.7765 C   0  0  0  0  0  0  0  0  0  0  0  0
   -1.4791    1.6917   -2.1651 C   0  0  0  0  0  0  0  0  0  0  0  0
   -2.8283    1.4905   -2.8325 C   0  0  0  0  0  0  0  0  0  0  0  0
   -3.1814    0.0703   -3.2289 C   0  0  0  0  0  0  0  0  0  0  0  0
   -3.2596   -0.9247   -2.0653 C   0  0  0  0  0  0  0  0  0  0  0  0
   -3.6361   -2.3011   -2.6188 C   0  0  0  0  0  0  0  0  0  0  0  0
   -3.7403   -3.3804   -1.5450 C   0  0  0  0  0  0  0  0  0  0  0  0
   -4.1094   -4.7211   -2.1858 C   0  0  0  0  0  0  0  0  0  0  0  0
   -4.2292   -5.8290   -1.1578 C   0  0  0  0  0  0  0  0  0  0  0  0
   -3.9590    2.4276   -2.4313 C   0  0  0  0  0  0  0  0  0  0  0  0
   -3.3046    2.5909   -3.7662 C   0  0  0  0  0  0  0  0  0  0  0  0
   -0.2930    1.8905   -2.8771 C   0  0  0  0  0  0  0  0  0  0  0  0
    0.9137    2.1779   -2.2211 C   0  0  0  0  0  0  0  0  0  0  0  0
    1.9761    2.4064   -3.0558 O   0  0  0  0  0  0  0  0  0  0  0  0
   -0.3735    2.0457    1.2345 O   0  0  0  0  0  0  0  0  0  0  0  0
    2.7238    1.4502    3.5729 C   0  0  0  0  0  0  0  0  0  0  0  0
    5.4750    6.0561   -0.4412 H   0  0  0  0  0  0  0  0  0  0  0  0
    3.7279    6.3539   -0.9604 H   0  0  0  0  0  0  0  0  0  0  0  0
    6.1324    4.1528    0.7078 H   0  0  0  0  0  0  0  0  0  0  0  0
    5.2234    2.7070    0.2910 H   0  0  0  0  0  0  0  0  0  0  0  0
    4.9245    3.5650    1.8258 H   0  0  0  0  0  0  0  0  0  0  0  0
    2.1557    4.5886   -0.8049 H   0  0  0  0  0  0  0  0  0  0  0  0
    0.8085    4.4987    1.1398 H   0  0  0  0  0  0  0  0  0  0  0  0
    2.0845    5.6300    1.4831 H   0  0  0  0  0  0  0  0  0  0  0  0
    1.4080    3.8633    3.2759 H   0  0  0  0  0  0  0  0  0  0  0  0
    3.1122    4.2359    3.0636 H   0  0  0  0  0  0  0  0  0  0  0  0
    2.7762    0.6866    1.0018 H   0  0  0  0  0  0  0  0  0  0  0  0
    3.1484    2.1670   -0.8416 H   0  0  0  0  0  0  0  0  0  0  0  0
   -2.2858    1.5727   -0.1802 H   0  0  0  0  0  0  0  0  0  0  0  0
   -2.4458   -0.2803   -3.9621 H   0  0  0  0  0  0  0  0  0  0  0  0
   -4.1521    0.0698   -3.7422 H   0  0  0  0  0  0  0  0  0  0  0  0
   -4.0029   -0.5945   -1.3299 H   0  0  0  0  0  0  0  0  0  0  0  0
   -2.2981   -0.9911   -1.5435 H   0  0  0  0  0  0  0  0  0  0  0  0
   -2.8855   -2.6049   -3.3594 H   0  0  0  0  0  0  0  0  0  0  0  0
   -4.5948   -2.2272   -3.1475 H   0  0  0  0  0  0  0  0  0  0  0  0
   -4.4996   -3.0997   -0.8056 H   0  0  0  0  0  0  0  0  0  0  0  0
   -2.7851   -3.4739   -1.0148 H   0  0  0  0  0  0  0  0  0  0  0  0
   -3.3493   -4.9982   -2.9274 H   0  0  0  0  0  0  0  0  0  0  0  0
   -5.0604   -4.6249   -2.7253 H   0  0  0  0  0  0  0  0  0  0  0  0
   -3.2838   -5.9728   -0.6257 H   0  0  0  0  0  0  0  0  0  0  0  0
   -4.4904   -6.7721   -1.6483 H   0  0  0  0  0  0  0  0  0  0  0  0
   -5.0084   -5.5995   -0.4245 H   0  0  0  0  0  0  0  0  0  0  0  0
   -3.7662    3.1997   -1.6881 H   0  0  0  0  0  0  0  0  0  0  0  0
   -4.9687    2.0398   -2.3925 H   0  0  0  0  0  0  0  0  0  0  0  0
   -3.8776    2.3123   -4.6507 H   0  0  0  0  0  0  0  0  0  0  0  0
   -2.6689    3.4552   -3.9203 H   0  0  0  0  0  0  0  0  0  0  0  0
   -0.3098    1.8532   -3.9646 H   0  0  0  0  0  0  0  0  0  0  0  0
    2.5480    3.0858   -2.6646 H   0  0  0  0  0  0  0  0  0  0  0  0
    0.4431    2.3062    1.6673 H   0  0  0  0  0  0  0  0  0  0  0  0
    2.4424    1.9952    4.4792 H   0  0  0  0  0  0  0  0  0  0  0  0
    3.7658    1.1347    3.6725 H   0  0  0  0  0  0  0  0  0  0  0  0
    2.0837    0.5627    3.5158 H   0  0  0  0  0  0  0  0  0  0  0  0
  1  2  2  0  0  0  0
  1 28  1  0  0  0  0
  1 29  1  0  0  0  0
  2  3  1  0  0  0  0
  3 30  1  0  0  0  0
  3 31  1  0  0  0  0
  3 32  1  0  0  0  0
  4  5  1  0  0  0  0
  4  9  1  0  0  0  0
  4  2  1  0  0  0  0
  4 33  1  6  0  0  0
  5  6  1  0  0  0  0
  5 34  1  0  0  0  0
  5 35  1  0  0  0  0
  6  7  1  0  0  0  0
  6 36  1  0  0  0  0
  6 37  1  0  0  0  0
  7  8  2  0  0  0  0
  7 27  1  0  0  0  0
  8  9  1  0  0  0  0
  8 38  1  0  0  0  0
  9 10  1  0  0  0  0
  9 39  1  6  0  0  0
 10 24  2  0  0  0  0
 10 11  1  0  0  0  0
 11 12  2  0  0  0  0
 11 26  1  0  0  0  0
 12 13  1  0  0  0  0
 12 40  1  0  0  0  0
 13 14  1  0  0  0  0
 13 23  2  0  0  0  0
 14 22  1  0  0  0  0
 14 15  1  0  0  0  0
 14 21  1  0  0  0  0
 15 16  1  0  0  0  0
 15 41  1  0  0  0  0
 15 42  1  0  0  0  0
 16 17  1  0  0  0  0
 16 43  1  0  0  0  0
 16 44  1  0  0  0  0
 17 18  1  0  0  0  0
 17 45  1  0  0  0  0
 17 46  1  0  0  0  0
 18 19  1  0  0  0  0
 18 47  1  0  0  0  0
 18 48  1  0  0  0  0
 19 20  1  0  0  0  0
 19 49  1  0  0  0  0
 19 50  1  0  0  0  0
 20 51  1  0  0  0  0
 20 52  1  0  0  0  0
 20 53  1  0  0  0  0
 21 22  1  0  0  0  0
 21 54  1  0  0  0  0
 21 55  1  0  0  0  0
 22 56  1  0  0  0  0
 22 57  1  0  0  0  0
 23 24  1  0  0  0  0
 23 58  1  0  0  0  0
 24 25  1  0  0  0  0
 25 59  1  0  0  0  0
 26 60  1  0  0  0  0
 27 61  1  0  0  0  0
 27 62  1  0  0  0  0
 27 63  1  0  0  0  0
M  END
$$$$
CHEMBL234845
 OpenBabel12022417463D

 54 55  0  0  0  0  0  0  0  0999 V2000
    6.9731   -4.2932   -1.0962 C   0  0  0  0  0  0  0  0  0  0  0  0
    6.4905   -2.9009   -0.7201 C   0  0  0  0  0  0  0  0  0  0  0  0
    6.9802   -1.8646   -1.7252 C   0  0  0  0  0  0  0  0  0  0  0  0
    6.5113   -0.4507   -1.3772 C   0  0  0  0  0  0  0  0  0  0  0  0
    7.0238    0.5296   -2.4313 C   0  0  0  0  0  0  0  0  0  0  0  0
    6.5812    1.9771   -2.1699 C   0  0  0  0  0  0  0  0  0  0  0  0
    7.1234    3.0025   -3.2178 C   0  0  0  0  0  0  0  0  0  0  0  0
    6.5306    2.6765   -4.6124 C   0  0  0  0  0  0  0  0  0  0  0  0
    6.6086    4.4152   -2.8540 C   0  0  0  0  0  0  0  0  0  0  0  0
    8.6614    3.0069   -3.1958 C   0  0  0  0  0  0  0  0  0  0  0  0
    9.3638    3.3520   -2.0333 C   0  0  0  0  0  0  0  0  0  0  0  0
   10.7653    3.3131   -1.9874 C   0  0  0  0  0  0  0  0  0  0  0  0
   11.5362    2.9040   -3.0949 C   0  0  0  0  0  0  0  0  0  0  0  0
   13.0203    2.8857   -2.9999 C   0  0  0  0  0  0  0  0  0  0  0  0
   13.6755    2.5429   -1.8041 C   0  0  0  0  0  0  0  0  0  0  0  0
   15.0708    2.5220   -1.7195 C   0  0  0  0  0  0  0  0  0  0  0  0
   15.8469    2.8080   -2.8390 C   0  0  0  0  0  0  0  0  0  0  0  0
   15.2301    3.1414   -4.0409 C   0  0  0  0  0  0  0  0  0  0  0  0
   13.8339    3.2162   -4.0984 C   0  0  0  0  0  0  0  0  0  0  0  0
   15.8543    3.4048   -5.2288 O   0  0  0  0  0  0  0  0  0  0  0  0
   17.2741    3.3434   -5.2352 C   0  0  0  0  0  0  0  0  0  0  0  0
   10.8162    2.5461   -4.2439 C   0  0  0  0  0  0  0  0  0  0  0  0
    9.4220    2.6169   -4.3041 C   0  0  0  0  0  0  0  0  0  0  0  0
   11.3910    2.0544   -5.3910 O   0  0  0  0  0  0  0  0  0  0  0  0
    6.6184   -5.0295   -0.3683 H   0  0  0  0  0  0  0  0  0  0  0  0
    8.0682   -4.3360   -1.1183 H   0  0  0  0  0  0  0  0  0  0  0  0
    6.6006   -4.5839   -2.0836 H   0  0  0  0  0  0  0  0  0  0  0  0
    6.8542   -2.6505    0.2830 H   0  0  0  0  0  0  0  0  0  0  0  0
    5.3954   -2.8965   -0.6817 H   0  0  0  0  0  0  0  0  0  0  0  0
    6.6185   -2.1316   -2.7273 H   0  0  0  0  0  0  0  0  0  0  0  0
    8.0764   -1.8854   -1.7666 H   0  0  0  0  0  0  0  0  0  0  0  0
    6.8836   -0.1652   -0.3860 H   0  0  0  0  0  0  0  0  0  0  0  0
    5.4156   -0.4175   -1.3394 H   0  0  0  0  0  0  0  0  0  0  0  0
    6.6597    0.2006   -3.4085 H   0  0  0  0  0  0  0  0  0  0  0  0
    8.1182    0.4686   -2.4576 H   0  0  0  0  0  0  0  0  0  0  0  0
    6.9006    2.2646   -1.1587 H   0  0  0  0  0  0  0  0  0  0  0  0
    5.4832    2.0166   -2.1586 H   0  0  0  0  0  0  0  0  0  0  0  0
    5.4371    2.7384   -4.6028 H   0  0  0  0  0  0  0  0  0  0  0  0
    6.7935    1.6701   -4.9553 H   0  0  0  0  0  0  0  0  0  0  0  0
    6.8906    3.3794   -5.3725 H   0  0  0  0  0  0  0  0  0  0  0  0
    5.5198    4.4796   -2.9660 H   0  0  0  0  0  0  0  0  0  0  0  0
    7.0539    5.1767   -3.5063 H   0  0  0  0  0  0  0  0  0  0  0  0
    6.8413    4.6896   -1.8197 H   0  0  0  0  0  0  0  0  0  0  0  0
    8.8329    3.6525   -1.1328 H   0  0  0  0  0  0  0  0  0  0  0  0
   11.2450    3.6146   -1.0606 H   0  0  0  0  0  0  0  0  0  0  0  0
   13.1079    2.2796   -0.9137 H   0  0  0  0  0  0  0  0  0  0  0  0
   15.5510    2.2766   -0.7728 H   0  0  0  0  0  0  0  0  0  0  0  0
   16.9265    2.7637   -2.7429 H   0  0  0  0  0  0  0  0  0  0  0  0
   13.3865    3.5431   -5.0345 H   0  0  0  0  0  0  0  0  0  0  0  0
   17.6101    3.5284   -6.2599 H   0  0  0  0  0  0  0  0  0  0  0  0
   17.6334    2.3506   -4.9435 H   0  0  0  0  0  0  0  0  0  0  0  0
   17.6961    4.1228   -4.5954 H   0  0  0  0  0  0  0  0  0  0  0  0
    8.9536    2.3271   -5.2394 H   0  0  0  0  0  0  0  0  0  0  0  0
   12.2567    1.6819   -5.1592 H   0  0  0  0  0  0  0  0  0  0  0  0
  1  2  1  0  0  0  0
  1 25  1  0  0  0  0
  1 26  1  0  0  0  0
  1 27  1  0  0  0  0
  2  3  1  0  0  0  0
  2 28  1  0  0  0  0
  2 29  1  0  0  0  0
  3  4  1  0  0  0  0
  3 30  1  0  0  0  0
  3 31  1  0  0  0  0
  4  5  1  0  0  0  0
  4 32  1  0  0  0  0
  4 33  1  0  0  0  0
  5  6  1  0  0  0  0
  5 34  1  0  0  0  0
  5 35  1  0  0  0  0
  6  7  1  0  0  0  0
  6 36  1  0  0  0  0
  6 37  1  0  0  0  0
  7  8  1  0  0  0  0
  7  9  1  0  0  0  0
  7 10  1  0  0  0  0
  8 38  1  0  0  0  0
  8 39  1  0  0  0  0
  8 40  1  0  0  0  0
  9 41  1  0  0  0  0
  9 42  1  0  0  0  0
  9 43  1  0  0  0  0
 10 23  2  0  0  0  0
 10 11  1  0  0  0  0
 11 12  2  0  0  0  0
 11 44  1  0  0  0  0
 12 13  1  0  0  0  0
 12 45  1  0  0  0  0
 13 14  1  0  0  0  0
 13 22  2  0  0  0  0
 14 19  2  0  0  0  0
 14 15  1  0  0  0  0
 15 16  2  0  0  0  0
 15 46  1  0  0  0  0
 16 17  1  0  0  0  0
 16 47  1  0  0  0  0
 17 18  2  0  0  0  0
 17 48  1  0  0  0  0
 18 19  1  0  0  0  0
 18 20  1  0  0  0  0
 19 49  1  0  0  0  0
 20 21  1  0  0  0  0
 21 50  1  0  0  0  0
 21 51  1  0  0  0  0
 21 52  1  0  0  0  0
 22 23  1  0  0  0  0
 22 24  1  0  0  0  0
 23 53  1  0  0  0  0
 24 54  1  0  0  0  0
M  END
$$$$
CHEMBL232411
 OpenBabel12022417463D

 56 57  0  0  0  0  0  0  0  0999 V2000
    6.8592    1.0302   -4.3217 C   0  0  0  0  0  0  0  0  0  0  0  0
    6.3812    0.6765   -2.9208 C   0  0  0  0  0  0  0  0  0  0  0  0
    6.8747    1.7032   -1.9041 C   0  0  0  0  0  0  0  0  0  0  0  0
    6.4097    1.3859   -0.4810 C   0  0  0  0  0  0  0  0  0  0  0  0
    6.9213    2.4631    0.4785 C   0  0  0  0  0  0  0  0  0  0  0  0
    6.4773    2.2297    1.9318 C   0  0  0  0  0  0  0  0  0  0  0  0
    7.0169    3.2918    2.9466 C   0  0  0  0  0  0  0  0  0  0  0  0
    6.4229    4.6801    2.6004 C   0  0  0  0  0  0  0  0  0  0  0  0
    6.4902    2.9432    4.3604 C   0  0  0  0  0  0  0  0  0  0  0  0
    8.5557    3.2682    2.9636 C   0  0  0  0  0  0  0  0  0  0  0  0
    9.2510    2.1411    3.4232 C   0  0  0  0  0  0  0  0  0  0  0  0
   10.6532    2.0810    3.3941 C   0  0  0  0  0  0  0  0  0  0  0  0
   11.4332    3.0961    2.8184 C   0  0  0  0  0  0  0  0  0  0  0  0
   12.9165    2.9515    2.6957 C   0  0  0  0  0  0  0  0  0  0  0  0
   13.7346    4.0753    2.9670 C   0  0  0  0  0  0  0  0  0  0  0  0
   15.1166    4.0807    2.7487 C   0  0  0  0  0  0  0  0  0  0  0  0
   15.9197    5.3365    2.8920 C   0  0  0  0  0  0  0  0  0  0  0  0
   15.7407    2.8932    2.3689 C   0  0  0  0  0  0  0  0  0  0  0  0
   14.9805    1.7490    2.1633 C   0  0  0  0  0  0  0  0  0  0  0  0
   13.5768    1.7659    2.2768 C   0  0  0  0  0  0  0  0  0  0  0  0
   12.8914    0.4586    1.9604 C   0  0  0  0  0  0  0  0  0  0  0  0
   10.7198    4.2312    2.3789 C   0  0  0  0  0  0  0  0  0  0  0  0
    9.3257    4.3303    2.4807 C   0  0  0  0  0  0  0  0  0  0  0  0
   11.3080    5.3165    1.7772 O   0  0  0  0  0  0  0  0  0  0  0  0
    6.4987    0.2896   -5.0414 H   0  0  0  0  0  0  0  0  0  0  0  0
    7.9526    1.0467   -4.3706 H   0  0  0  0  0  0  0  0  0  0  0  0
    6.4851    2.0102   -4.6272 H   0  0  0  0  0  0  0  0  0  0  0  0
    6.7480   -0.3214   -2.6530 H   0  0  0  0  0  0  0  0  0  0  0  0
    5.2860    0.6369   -2.9108 H   0  0  0  0  0  0  0  0  0  0  0  0
    6.5136    2.6989   -2.1920 H   0  0  0  0  0  0  0  0  0  0  0  0
    7.9709    1.7415   -1.9297 H   0  0  0  0  0  0  0  0  0  0  0  0
    6.7866    0.4027   -0.1754 H   0  0  0  0  0  0  0  0  0  0  0  0
    5.3148    1.3438   -0.4459 H   0  0  0  0  0  0  0  0  0  0  0  0
    6.5572    3.4344    0.1297 H   0  0  0  0  0  0  0  0  0  0  0  0
    8.0151    2.4864    0.4201 H   0  0  0  0  0  0  0  0  0  0  0  0
    6.7951    1.2240    2.2373 H   0  0  0  0  0  0  0  0  0  0  0  0
    5.3795    2.2229    1.9666 H   0  0  0  0  0  0  0  0  0  0  0  0
    5.3276    4.6629    2.6449 H   0  0  0  0  0  0  0  0  0  0  0  0
    6.6960    5.0178    1.5960 H   0  0  0  0  0  0  0  0  0  0  0  0
    6.7669    5.4466    3.3052 H   0  0  0  0  0  0  0  0  0  0  0  0
    5.4008    3.0514    4.4161 H   0  0  0  0  0  0  0  0  0  0  0  0
    6.9299    3.6046    5.1171 H   0  0  0  0  0  0  0  0  0  0  0  0
    6.7215    1.9125    4.6488 H   0  0  0  0  0  0  0  0  0  0  0  0
    8.7141    1.2736    3.8003 H   0  0  0  0  0  0  0  0  0  0  0  0
   11.1255    1.1937    3.8097 H   0  0  0  0  0  0  0  0  0  0  0  0
   13.2749    4.9936    3.3372 H   0  0  0  0  0  0  0  0  0  0  0  0
   15.2739    6.2084    3.0580 H   0  0  0  0  0  0  0  0  0  0  0  0
   16.4860    5.5276    1.9714 H   0  0  0  0  0  0  0  0  0  0  0  0
   16.6144    5.2565    3.7354 H   0  0  0  0  0  0  0  0  0  0  0  0
   16.8207    2.8580    2.2210 H   0  0  0  0  0  0  0  0  0  0  0  0
   15.4933    0.8294    1.8770 H   0  0  0  0  0  0  0  0  0  0  0  0
   11.8454    0.5745    1.6752 H   0  0  0  0  0  0  0  0  0  0  0  0
   12.9633   -0.2125    2.8248 H   0  0  0  0  0  0  0  0  0  0  0  0
   13.3775   -0.0269    1.1074 H   0  0  0  0  0  0  0  0  0  0  0  0
    8.8678    5.2477    2.1235 H   0  0  0  0  0  0  0  0  0  0  0  0
   12.1502    5.0212    1.3889 H   0  0  0  0  0  0  0  0  0  0  0  0
  1  2  1  0  0  0  0
  1 25  1  0  0  0  0
  1 26  1  0  0  0  0
  1 27  1  0  0  0  0
  2  3  1  0  0  0  0
  2 28  1  0  0  0  0
  2 29  1  0  0  0  0
  3  4  1  0  0  0  0
  3 30  1  0  0  0  0
  3 31  1  0  0  0  0
  4  5  1  0  0  0  0
  4 32  1  0  0  0  0
  4 33  1  0  0  0  0
  5  6  1  0  0  0  0
  5 34  1  0  0  0  0
  5 35  1  0  0  0  0
  6  7  1  0  0  0  0
  6 36  1  0  0  0  0
  6 37  1  0  0  0  0
  7  8  1  0  0  0  0
  7  9  1  0  0  0  0
  7 10  1  0  0  0  0
  8 38  1  0  0  0  0
  8 39  1  0  0  0  0
  8 40  1  0  0  0  0
  9 41  1  0  0  0  0
  9 42  1  0  0  0  0
  9 43  1  0  0  0  0
 10 23  2  0  0  0  0
 10 11  1  0  0  0  0
 11 12  2  0  0  0  0
 11 44  1  0  0  0  0
 12 13  1  0  0  0  0
 12 45  1  0  0  0  0
 13 14  1  0  0  0  0
 13 22  2  0  0  0  0
 14 20  2  0  0  0  0
 14 15  1  0  0  0  0
 15 16  2  0  0  0  0
 15 46  1  0  0  0  0
 16 17  1  0  0  0  0
 16 18  1  0  0  0  0
 17 47  1  0  0  0  0
 17 48  1  0  0  0  0
 17 49  1  0  0  0  0
 18 19  2  0  0  0  0
 18 50  1  0  0  0  0
 19 20  1  0  0  0  0
 19 51  1  0  0  0  0
 20 21  1  0  0  0  0
 21 52  1  0  0  0  0
 21 53  1  0  0  0  0
 21 54  1  0  0  0  0
 22 23  1  0  0  0  0
 22 24  1  0  0  0  0
 23 55  1  0  0  0  0
 24 56  1  0  0  0  0
M  END
$$$$
CHEMBL5183968
 OpenBabel12022417463D

 62 64  0  0  0  0  0  0  0  0999 V2000
    1.1010    0.1494    0.1341 C   0  0  0  0  0  0  0  0  0  0  0  0
    2.6289    0.0026    0.0105 C   0  0  0  0  0  0  0  0  0  0  0  0
    3.2724    0.1444    1.4017 C   0  0  0  0  0  0  0  0  0  0  0  0
    2.9990   -1.3495   -0.5928 C   0  0  0  0  0  0  0  0  0  0  0  0
    3.8760   -1.4189   -1.6934 C   0  0  0  0  0  0  0  0  0  0  0  0
    4.3447   -0.1533   -2.3111 C   0  0  0  0  0  0  0  0  0  0  0  0
    3.9019    1.0604   -1.7617 C   0  0  0  0  0  0  0  0  0  0  0  0
    4.2898    2.3103   -2.2803 C   0  0  0  0  0  0  0  0  0  0  0  0
    5.1516    2.4077   -3.3742 C   0  0  0  0  0  0  0  0  0  0  0  0
    5.6051    1.2157   -3.9406 C   0  0  0  0  0  0  0  0  0  0  0  0
    5.1903   -0.0255   -3.4316 C   0  0  0  0  0  0  0  0  0  0  0  0
    5.6425   -1.0846   -4.1708 O   0  0  0  0  0  0  0  0  0  0  0  0
    5.6529    4.0848   -4.1132 Si  0  0  0  0  0  0  0  0  0  0  0  0
    5.0426    4.1479   -5.9348 C   0  0  0  0  0  0  0  0  0  0  0  0
    3.5273    4.0039   -6.0972 C   0  0  0  0  0  0  0  0  0  0  0  0
    3.1075    4.0548   -7.5670 C   0  0  0  0  0  0  0  0  0  0  0  0
    1.5908    3.9077   -7.6970 C   0  0  0  0  0  0  0  0  0  0  0  0
    1.1397    3.9551   -9.1550 C   0  0  0  0  0  0  0  0  0  0  0  0
   -0.3699    3.8092   -9.2674 C   0  0  0  0  0  0  0  0  0  0  0  0
    4.8804    5.5013   -3.1567 C   0  0  0  0  0  0  0  0  0  0  0  0
    7.5213    4.2446   -4.0980 C   0  0  0  0  0  0  0  0  0  0  0  0
    3.0315    1.1714   -0.7186 O   0  0  0  0  0  0  0  0  0  0  0  0
    4.2573   -2.7079   -2.1206 C   0  0  0  0  0  0  0  0  0  0  0  0
    3.7414   -3.8884   -1.5540 C   0  0  0  0  0  0  0  0  0  0  0  0
    2.8571   -3.7904   -0.4893 C   0  0  0  0  0  0  0  0  0  0  0  0
    2.5054   -2.5360   -0.0010 C   0  0  0  0  0  0  0  0  0  0  0  0
    4.1603   -5.2293   -2.0936 C   0  0  0  0  0  0  0  0  0  0  0  0
    3.7508   -5.3570   -3.4495 O   0  0  0  0  0  0  0  0  0  0  0  0
    0.8341    1.1431    0.5138 H   0  0  0  0  0  0  0  0  0  0  0  0
    0.6502   -0.5923    0.8003 H   0  0  0  0  0  0  0  0  0  0  0  0
    0.6252    0.0568   -0.8500 H   0  0  0  0  0  0  0  0  0  0  0  0
    3.0357    1.1190    1.8451 H   0  0  0  0  0  0  0  0  0  0  0  0
    4.3660    0.0952    1.3306 H   0  0  0  0  0  0  0  0  0  0  0  0
    2.9443   -0.6341    2.0984 H   0  0  0  0  0  0  0  0  0  0  0  0
    3.8888    3.2034   -1.8031 H   0  0  0  0  0  0  0  0  0  0  0  0
    6.2645    1.2238   -4.8071 H   0  0  0  0  0  0  0  0  0  0  0  0
    4.8438   -1.5559   -4.4657 H   0  0  0  0  0  0  0  0  0  0  0  0
    5.5543    3.3496   -6.4850 H   0  0  0  0  0  0  0  0  0  0  0  0
    5.3748    5.1016   -6.3613 H   0  0  0  0  0  0  0  0  0  0  0  0
    3.0154    4.8040   -5.5481 H   0  0  0  0  0  0  0  0  0  0  0  0
    3.1919    3.0550   -5.6601 H   0  0  0  0  0  0  0  0  0  0  0  0
    3.6066    3.2520   -8.1230 H   0  0  0  0  0  0  0  0  0  0  0  0
    3.4270    5.0055   -8.0108 H   0  0  0  0  0  0  0  0  0  0  0  0
    1.0963    4.7094   -7.1347 H   0  0  0  0  0  0  0  0  0  0  0  0
    1.2758    2.9580   -7.2472 H   0  0  0  0  0  0  0  0  0  0  0  0
    1.6232    3.1513   -9.7221 H   0  0  0  0  0  0  0  0  0  0  0  0
    1.4453    4.9044   -9.6099 H   0  0  0  0  0  0  0  0  0  0  0  0
   -0.7037    2.8552   -8.8464 H   0  0  0  0  0  0  0  0  0  0  0  0
   -0.6783    3.8447  -10.3165 H   0  0  0  0  0  0  0  0  0  0  0  0
   -0.8821    4.6168   -8.7343 H   0  0  0  0  0  0  0  0  0  0  0  0
    3.7880    5.4432   -3.1842 H   0  0  0  0  0  0  0  0  0  0  0  0
    5.1792    6.4632   -3.5835 H   0  0  0  0  0  0  0  0  0  0  0  0
    5.1968    5.4806   -2.1096 H   0  0  0  0  0  0  0  0  0  0  0  0
    7.9848    3.4409   -4.6778 H   0  0  0  0  0  0  0  0  0  0  0  0
    7.9060    4.1965   -3.0752 H   0  0  0  0  0  0  0  0  0  0  0  0
    7.8282    5.1996   -4.5349 H   0  0  0  0  0  0  0  0  0  0  0  0
    4.9966   -2.8480   -2.9023 H   0  0  0  0  0  0  0  0  0  0  0  0
    2.4525   -4.6806   -0.0122 H   0  0  0  0  0  0  0  0  0  0  0  0
    1.8459   -2.4907    0.8628 H   0  0  0  0  0  0  0  0  0  0  0  0
    3.7069   -6.0497   -1.5275 H   0  0  0  0  0  0  0  0  0  0  0  0
    5.2477   -5.3413   -2.0374 H   0  0  0  0  0  0  0  0  0  0  0  0
    2.8158   -5.0917   -3.4860 H   0  0  0  0  0  0  0  0  0  0  0  0
  1  2  1  0  0  0  0
  1 29  1  0  0  0  0
  1 30  1  0  0  0  0
  1 31  1  0  0  0  0
  2 22  1  0  0  0  0
  2  3  1  0  0  0  0
  2  4  1  0  0  0  0
  3 32  1  0  0  0  0
  3 33  1  0  0  0  0
  3 34  1  0  0  0  0
  4 26  2  0  0  0  0
  4  5  1  0  0  0  0
  5  6  1  0  0  0  0
  5 23  2  0  0  0  0
  6 11  2  0  0  0  0
  6  7  1  0  0  0  0
  7  8  2  0  0  0  0
  7 22  1  0  0  0  0
  8  9  1  0  0  0  0
  8 35  1  0  0  0  0
  9 10  2  0  0  0  0
  9 13  1  0  0  0  0
 10 11  1  0  0  0  0
 10 36  1  0  0  0  0
 11 12  1  0  0  0  0
 12 37  1  0  0  0  0
 13 14  1  0  0  0  0
 13 20  1  0  0  0  0
 13 21  1  0  0  0  0
 14 15  1  0  0  0  0
 14 38  1  0  0  0  0
 14 39  1  0  0  0  0
 15 16  1  0  0  0  0
 15 40  1  0  0  0  0
 15 41  1  0  0  0  0
 16 17  1  0  0  0  0
 16 42  1  0  0  0  0
 16 43  1  0  0  0  0
 17 18  1  0  0  0  0
 17 44  1  0  0  0  0
 17 45  1  0  0  0  0
 18 19  1  0  0  0  0
 18 46  1  0  0  0  0
 18 47  1  0  0  0  0
 19 48  1  0  0  0  0
 19 49  1  0  0  0  0
 19 50  1  0  0  0  0
 20 51  1  0  0  0  0
 20 52  1  0  0  0  0
 20 53  1  0  0  0  0
 21 54  1  0  0  0  0
 21 55  1  0  0  0  0
 21 56  1  0  0  0  0
 23 24  1  0  0  0  0
 23 57  1  0  0  0  0
 24 25  2  0  0  0  0
 24 27  1  0  0  0  0
 25 26  1  0  0  0  0
 25 58  1  0  0  0  0
 26 59  1  0  0  0  0
 27 28  1  0  0  0  0
 27 60  1  0  0  0  0
 27 61  1  0  0  0  0
 28 62  1  0  0  0  0
M  END
$$$$
CHEMBL5186021
 OpenBabel12022417463D

 57 58  0  0  0  0  0  0  0  0999 V2000
    7.2394   -2.8149   11.3542 C   0  0  0  0  0  0  0  0  0  0  0  0
    6.7038   -2.1393   10.1018 C   0  0  0  0  0  0  0  0  0  0  0  0
    7.1826   -2.8617    8.8454 C   0  0  0  0  0  0  0  0  0  0  0  0
    6.6538   -2.2018    7.5715 C   0  0  0  0  0  0  0  0  0  0  0  0
    7.1549   -2.9546    6.3392 C   0  0  0  0  0  0  0  0  0  0  0  0
    6.6485   -2.3271    5.0381 C   0  0  0  0  0  0  0  0  0  0  0  0
    7.2394   -3.2339    3.4549 Si  0  0  0  0  0  0  0  0  0  0  0  0
    6.6075   -5.0090    3.5118 C   0  0  0  0  0  0  0  0  0  0  0  0
    6.5594   -2.3661    1.9426 C   0  0  0  0  0  0  0  0  0  0  0  0
    9.1437   -3.2177    3.3917 C   0  0  0  0  0  0  0  0  0  0  0  0
    9.8704   -4.4040    3.4052 C   0  0  0  0  0  0  0  0  0  0  0  0
   11.2722   -4.3776    3.3812 C   0  0  0  0  0  0  0  0  0  0  0  0
   12.0119   -3.1709    3.3966 C   0  0  0  0  0  0  0  0  0  0  0  0
   11.2691   -1.9641    3.4204 C   0  0  0  0  0  0  0  0  0  0  0  0
    9.8561   -2.0034    3.4042 C   0  0  0  0  0  0  0  0  0  0  0  0
   11.7538   -0.7165    3.6852 O   0  0  0  0  0  0  0  0  0  0  0  0
   12.6739   -0.1292    2.7774 C   0  0  0  0  0  0  0  0  0  0  0  0
   13.5269   -3.3016    3.4642 C   0  0  0  0  0  0  0  0  0  0  0  0
   14.2554   -2.8976    2.1856 C   0  0  0  0  0  0  0  0  0  0  0  0
   15.6119   -2.3674    2.6276 C   0  0  0  0  0  0  0  0  0  0  0  0
   15.5490   -2.1138    4.1300 C   0  0  0  0  0  0  0  0  0  0  0  0
   14.1992   -2.5948    4.6386 C   0  0  0  0  0  0  0  0  0  0  0  0
   11.9306   -5.5781    3.4082 O   0  0  0  0  0  0  0  0  0  0  0  0
    6.8973   -2.2859   12.2490 H   0  0  0  0  0  0  0  0  0  0  0  0
    8.3344   -2.8192   11.3587 H   0  0  0  0  0  0  0  0  0  0  0  0
    6.8931   -3.8515   11.4177 H   0  0  0  0  0  0  0  0  0  0  0  0
    7.0373   -1.0953   10.0826 H   0  0  0  0  0  0  0  0  0  0  0  0
    5.6083   -2.1316   10.1349 H   0  0  0  0  0  0  0  0  0  0  0  0
    6.8543   -3.9082    8.8782 H   0  0  0  0  0  0  0  0  0  0  0  0
    8.2793   -2.8701    8.8242 H   0  0  0  0  0  0  0  0  0  0  0  0
    6.9848   -1.1571    7.5290 H   0  0  0  0  0  0  0  0  0  0  0  0
    5.5572   -2.1966    7.5836 H   0  0  0  0  0  0  0  0  0  0  0  0
    6.8273   -4.0002    6.4015 H   0  0  0  0  0  0  0  0  0  0  0  0
    8.2522   -2.9664    6.3461 H   0  0  0  0  0  0  0  0  0  0  0  0
    6.9773   -1.2842    4.9713 H   0  0  0  0  0  0  0  0  0  0  0  0
    5.5525   -2.3247    5.0286 H   0  0  0  0  0  0  0  0  0  0  0  0
    5.5142   -5.0296    3.5358 H   0  0  0  0  0  0  0  0  0  0  0  0
    6.9763   -5.5246    4.4038 H   0  0  0  0  0  0  0  0  0  0  0  0
    6.9412   -5.5677    2.6321 H   0  0  0  0  0  0  0  0  0  0  0  0
    5.4654   -2.3610    1.9592 H   0  0  0  0  0  0  0  0  0  0  0  0
    6.8845   -2.8712    1.0281 H   0  0  0  0  0  0  0  0  0  0  0  0
    6.9045   -1.3289    1.9027 H   0  0  0  0  0  0  0  0  0  0  0  0
    9.3610   -5.3582    3.4175 H   0  0  0  0  0  0  0  0  0  0  0  0
    9.3262   -1.0568    3.4493 H   0  0  0  0  0  0  0  0  0  0  0  0
   12.6596    0.9554    2.9388 H   0  0  0  0  0  0  0  0  0  0  0  0
   12.4292   -0.3155    1.7282 H   0  0  0  0  0  0  0  0  0  0  0  0
   13.6915   -0.4363    3.0136 H   0  0  0  0  0  0  0  0  0  0  0  0
   13.7928   -4.3588    3.6048 H   0  0  0  0  0  0  0  0  0  0  0  0
   13.7178   -2.1582    1.5887 H   0  0  0  0  0  0  0  0  0  0  0  0
   14.3796   -3.7615    1.5195 H   0  0  0  0  0  0  0  0  0  0  0  0
   15.8633   -1.4490    2.0866 H   0  0  0  0  0  0  0  0  0  0  0  0
   16.3975   -3.0960    2.4011 H   0  0  0  0  0  0  0  0  0  0  0  0
   15.6742   -1.0478    4.3508 H   0  0  0  0  0  0  0  0  0  0  0  0
   16.3650   -2.6386    4.6400 H   0  0  0  0  0  0  0  0  0  0  0  0
   14.3332   -3.3009    5.4678 H   0  0  0  0  0  0  0  0  0  0  0  0
   13.6173   -1.7665    5.0462 H   0  0  0  0  0  0  0  0  0  0  0  0
   11.2826   -6.2980    3.4684 H   0  0  0  0  0  0  0  0  0  0  0  0
  1  2  1  0  0  0  0
  1 24  1  0  0  0  0
  1 25  1  0  0  0  0
  1 26  1  0  0  0  0
  2  3  1  0  0  0  0
  2 27  1  0  0  0  0
  2 28  1  0  0  0  0
  3  4  1  0  0  0  0
  3 29  1  0  0  0  0
  3 30  1  0  0  0  0
  4  5  1  0  0  0  0
  4 31  1  0  0  0  0
  4 32  1  0  0  0  0
  5  6  1  0  0  0  0
  5 33  1  0  0  0  0
  5 34  1  0  0  0  0
  6  7  1  0  0  0  0
  6 35  1  0  0  0  0
  6 36  1  0  0  0  0
  7  8  1  0  0  0  0
  7  9  1  0  0  0  0
  7 10  1  0  0  0  0
  8 37  1  0  0  0  0
  8 38  1  0  0  0  0
  8 39  1  0  0  0  0
  9 40  1  0  0  0  0
  9 41  1  0  0  0  0
  9 42  1  0  0  0  0
 10 15  2  0  0  0  0
 10 11  1  0  0  0  0
 11 12  2  0  0  0  0
 11 43  1  0  0  0  0
 12 13  1  0  0  0  0
 12 23  1  0  0  0  0
 13 14  2  0  0  0  0
 13 18  1  0  0  0  0
 14 15  1  0  0  0  0
 14 16  1  0  0  0  0
 15 44  1  0  0  0  0
 16 17  1  0  0  0  0
 17 45  1  0  0  0  0
 17 46  1  0  0  0  0
 17 47  1  0  0  0  0
 18 22  1  0  0  0  0
 18 19  1  0  0  0  0
 18 48  1  0  0  0  0
 19 20  1  0  0  0  0
 19 49  1  0  0  0  0
 19 50  1  0  0  0  0
 20 21  1  0  0  0  0
 20 51  1  0  0  0  0
 20 52  1  0  0  0  0
 21 22  1  0  0  0  0
 21 53  1  0  0  0  0
 21 54  1  0  0  0  0
 22 55  1  0  0  0  0
 22 56  1  0  0  0  0
 23 57  1  0  0  0  0
M  END
$$$$
CHEMBL234678
 OpenBabel12022417463D

 54 55  0  0  0  0  0  0  0  0999 V2000
    7.1240    2.1916   -3.8205 C   0  0  0  0  0  0  0  0  0  0  0  0
    6.5843    1.4295   -2.6177 C   0  0  0  0  0  0  0  0  0  0  0  0
    7.0293    2.0885   -1.3158 C   0  0  0  0  0  0  0  0  0  0  0  0
    6.5097    1.3556   -0.0766 C   0  0  0  0  0  0  0  0  0  0  0  0
    6.9870    2.0850    1.1814 C   0  0  0  0  0  0  0  0  0  0  0  0
    6.5054    1.4240    2.4807 C   0  0  0  0  0  0  0  0  0  0  0  0
    6.9967    2.1411    3.7830 C   0  0  0  0  0  0  0  0  0  0  0  0
    6.3590    3.5520    3.8512 C   0  0  0  0  0  0  0  0  0  0  0  0
    6.4506    1.3654    5.0062 C   0  0  0  0  0  0  0  0  0  0  0  0
    8.5337    2.1642    3.8325 C   0  0  0  0  0  0  0  0  0  0  0  0
    9.2721    3.3549    3.7984 C   0  0  0  0  0  0  0  0  0  0  0  0
   10.6740    3.3558    3.7317 C   0  0  0  0  0  0  0  0  0  0  0  0
   11.4321    2.1723    3.7308 C   0  0  0  0  0  0  0  0  0  0  0  0
   12.9171    2.2135    3.5269 C   0  0  0  0  0  0  0  0  0  0  0  0
   13.5218    1.2239    2.7163 C   0  0  0  0  0  0  0  0  0  0  0  0
   14.9010    1.1627    2.5030 C   0  0  0  0  0  0  0  0  0  0  0  0
   15.7274    2.1231    3.0611 C   0  0  0  0  0  0  0  0  0  0  0  0
   15.1702    3.1510    3.8177 C   0  0  0  0  0  0  0  0  0  0  0  0
   13.7818    3.2187    4.0407 C   0  0  0  0  0  0  0  0  0  0  0  0
   13.2444    4.2374    4.7968 O   0  0  0  0  0  0  0  0  0  0  0  0
   13.9186    5.4930    4.7072 C   0  0  0  0  0  0  0  0  0  0  0  0
   10.6792    0.9831    3.8404 C   0  0  0  0  0  0  0  0  0  0  0  0
    9.2773    0.9758    3.8650 C   0  0  0  0  0  0  0  0  0  0  0  0
   11.2491   -0.2630    3.9357 O   0  0  0  0  0  0  0  0  0  0  0  0
    6.7976    1.7171   -4.7502 H   0  0  0  0  0  0  0  0  0  0  0  0
    8.2189    2.2086   -3.8115 H   0  0  0  0  0  0  0  0  0  0  0  0
    6.7661    3.2265   -3.8209 H   0  0  0  0  0  0  0  0  0  0  0  0
    6.9375    0.3942   -2.6549 H   0  0  0  0  0  0  0  0  0  0  0  0
    5.4877    1.4037   -2.6672 H   0  0  0  0  0  0  0  0  0  0  0  0
    6.6778    3.1279   -1.2969 H   0  0  0  0  0  0  0  0  0  0  0  0
    8.1256    2.1224   -1.2833 H   0  0  0  0  0  0  0  0  0  0  0  0
    6.8734    0.3218   -0.0717 H   0  0  0  0  0  0  0  0  0  0  0  0
    5.4134    1.3191   -0.0942 H   0  0  0  0  0  0  0  0  0  0  0  0
    6.6312    3.1198    1.1356 H   0  0  0  0  0  0  0  0  0  0  0  0
    8.0821    2.1199    1.1661 H   0  0  0  0  0  0  0  0  0  0  0  0
    6.8298    0.3766    2.4839 H   0  0  0  0  0  0  0  0  0  0  0  0
    5.4059    1.3964    2.4773 H   0  0  0  0  0  0  0  0  0  0  0  0
    5.2650    3.4937    3.8291 H   0  0  0  0  0  0  0  0  0  0  0  0
    6.6634    4.1910    3.0155 H   0  0  0  0  0  0  0  0  0  0  0  0
    6.6402    4.0706    4.7756 H   0  0  0  0  0  0  0  0  0  0  0  0
    5.3555    1.4098    5.0438 H   0  0  0  0  0  0  0  0  0  0  0  0
    6.8316    1.7872    5.9437 H   0  0  0  0  0  0  0  0  0  0  0  0
    6.7265    0.3059    4.9842 H   0  0  0  0  0  0  0  0  0  0  0  0
    8.7809    4.3255    3.7945 H   0  0  0  0  0  0  0  0  0  0  0  0
   11.1619    4.3236    3.6538 H   0  0  0  0  0  0  0  0  0  0  0  0
   12.9066    0.4751    2.2174 H   0  0  0  0  0  0  0  0  0  0  0  0
   15.3213    0.3648    1.8961 H   0  0  0  0  0  0  0  0  0  0  0  0
   16.8011    2.0836    2.9018 H   0  0  0  0  0  0  0  0  0  0  0  0
   15.8467    3.8892    4.2355 H   0  0  0  0  0  0  0  0  0  0  0  0
   13.2395    6.2738    5.0636 H   0  0  0  0  0  0  0  0  0  0  0  0
   14.1911    5.7423    3.6731 H   0  0  0  0  0  0  0  0  0  0  0  0
   14.8022    5.5047    5.3541 H   0  0  0  0  0  0  0  0  0  0  0  0
    8.7708    0.0132    3.8926 H   0  0  0  0  0  0  0  0  0  0  0  0
   12.1535   -0.1465    4.2730 H   0  0  0  0  0  0  0  0  0  0  0  0
  1  2  1  0  0  0  0
  1 25  1  0  0  0  0
  1 26  1  0  0  0  0
  1 27  1  0  0  0  0
  2  3  1  0  0  0  0
  2 28  1  0  0  0  0
  2 29  1  0  0  0  0
  3  4  1  0  0  0  0
  3 30  1  0  0  0  0
  3 31  1  0  0  0  0
  4  5  1  0  0  0  0
  4 32  1  0  0  0  0
  4 33  1  0  0  0  0
  5  6  1  0  0  0  0
  5 34  1  0  0  0  0
  5 35  1  0  0  0  0
  6  7  1  0  0  0  0
  6 36  1  0  0  0  0
  6 37  1  0  0  0  0
  7  8  1  0  0  0  0
  7  9  1  0  0  0  0
  7 10  1  0  0  0  0
  8 38  1  0  0  0  0
  8 39  1  0  0  0  0
  8 40  1  0  0  0  0
  9 41  1  0  0  0  0
  9 42  1  0  0  0  0
  9 43  1  0  0  0  0
 10 23  2  0  0  0  0
 10 11  1  0  0  0  0
 11 12  2  0  0  0  0
 11 44  1  0  0  0  0
 12 13  1  0  0  0  0
 12 45  1  0  0  0  0
 13 14  1  0  0  0  0
 13 22  2  0  0  0  0
 14 19  2  0  0  0  0
 14 15  1  0  0  0  0
 15 16  2  0  0  0  0
 15 46  1  0  0  0  0
 16 17  1  0  0  0  0
 16 47  1  0  0  0  0
 17 18  2  0  0  0  0
 17 48  1  0  0  0  0
 18 19  1  0  0  0  0
 18 49  1  0  0  0  0
 19 20  1  0  0  0  0
 20 21  1  0  0  0  0
 21 50  1  0  0  0  0
 21 51  1  0  0  0  0
 21 52  1  0  0  0  0
 22 23  1  0  0  0  0
 22 24  1  0  0  0  0
 23 53  1  0  0  0  0
 24 54  1  0  0  0  0
M  END
$$$$
CHEMBL4463214
 OpenBabel12022417463D

 61 63  0  0  0  0  0  0  0  0999 V2000
    7.3211  -11.5110   -3.5383 C   0  0  0  0  0  0  0  0  0  0  0  0
    6.8113  -10.5246   -2.4987 C   0  0  0  0  0  0  0  0  0  0  0  0
    7.2167   -9.0993   -2.8560 C   0  0  0  0  0  0  0  0  0  0  0  0
    6.7152   -8.0829   -1.8271 C   0  0  0  0  0  0  0  0  0  0  0  0
    7.1463   -6.6795   -2.2495 C   0  0  0  0  0  0  0  0  0  0  0  0
    6.6736   -5.5879   -1.2796 C   0  0  0  0  0  0  0  0  0  0  0  0
    7.1307   -4.1462   -1.6841 C   0  0  0  0  0  0  0  0  0  0  0  0
    6.4917   -3.7665   -3.0432 C   0  0  0  0  0  0  0  0  0  0  0  0
    6.5653   -3.1417   -0.6505 C   0  0  0  0  0  0  0  0  0  0  0  0
    8.6712   -4.0633   -1.6908 C   0  0  0  0  0  0  0  0  0  0  0  0
    9.4044   -4.3526   -0.5238 C   0  0  0  0  0  0  0  0  0  0  0  0
   10.8056   -4.3592   -0.5184 C   0  0  0  0  0  0  0  0  0  0  0  0
   11.5142   -4.0614   -1.6909 C   0  0  0  0  0  0  0  0  0  0  0  0
   12.9561   -4.0980   -1.6126 C   0  0  0  0  0  0  0  0  0  0  0  0
   13.5888   -4.4039   -0.4008 C   0  0  0  0  0  0  0  0  0  0  0  0
   14.9359   -4.3543   -0.6706 C   0  0  0  0  0  0  0  0  0  0  0  0
   15.0347   -4.0162   -1.9877 N   0  0  0  0  0  0  0  0  0  0  0  0
   16.2818   -3.8347   -2.7168 C   0  0  0  0  0  0  0  0  0  0  0  0
   16.7827   -2.4044   -2.6474 C   0  0  0  0  0  0  0  0  0  0  0  0
   13.8349   -3.8599   -2.6007 N   0  0  0  0  0  0  0  0  0  0  0  0
   12.8238   -4.6723    0.8486 C   0  0  0  0  0  0  0  0  0  0  0  0
   13.1071   -3.5693    1.8759 C   0  0  0  0  0  0  0  0  0  0  0  0
   13.1985   -6.0477    1.4165 C   0  0  0  0  0  0  0  0  0  0  0  0
   11.3763   -4.6978    0.6851 O   0  0  0  0  0  0  0  0  0  0  0  0
   10.8022   -3.7575   -2.8490 C   0  0  0  0  0  0  0  0  0  0  0  0
    9.4063   -3.7583   -2.8513 C   0  0  0  0  0  0  0  0  0  0  0  0
   11.4239   -3.4598   -4.0345 O   0  0  0  0  0  0  0  0  0  0  0  0
    7.0254  -12.5296   -3.2727 H   0  0  0  0  0  0  0  0  0  0  0  0
    8.4137  -11.4789   -3.6047 H   0  0  0  0  0  0  0  0  0  0  0  0
    6.9121  -11.2829   -4.5276 H   0  0  0  0  0  0  0  0  0  0  0  0
    7.2155  -10.7918   -1.5156 H   0  0  0  0  0  0  0  0  0  0  0  0
    5.7195  -10.5971   -2.4352 H   0  0  0  0  0  0  0  0  0  0  0  0
    6.8170   -8.8436   -3.8457 H   0  0  0  0  0  0  0  0  0  0  0  0
    8.3099   -9.0364   -2.9283 H   0  0  0  0  0  0  0  0  0  0  0  0
    7.1214   -8.3201   -0.8368 H   0  0  0  0  0  0  0  0  0  0  0  0
    5.6223   -8.1320   -1.7561 H   0  0  0  0  0  0  0  0  0  0  0  0
    6.7434   -6.4901   -3.2488 H   0  0  0  0  0  0  0  0  0  0  0  0
    8.2388   -6.6606   -2.3314 H   0  0  0  0  0  0  0  0  0  0  0  0
    7.0365   -5.8331   -0.2724 H   0  0  0  0  0  0  0  0  0  0  0  0
    5.5777   -5.6184   -1.2152 H   0  0  0  0  0  0  0  0  0  0  0  0
    5.3977   -3.7552   -2.9790 H   0  0  0  0  0  0  0  0  0  0  0  0
    6.7618   -4.4633   -3.8427 H   0  0  0  0  0  0  0  0  0  0  0  0
    6.8064   -2.7681   -3.3683 H   0  0  0  0  0  0  0  0  0  0  0  0
    5.4700   -3.1020   -0.6984 H   0  0  0  0  0  0  0  0  0  0  0  0
    6.9406   -2.1286   -0.8379 H   0  0  0  0  0  0  0  0  0  0  0  0
    6.8290   -3.4086    0.3786 H   0  0  0  0  0  0  0  0  0  0  0  0
    8.8890   -4.5994    0.4034 H   0  0  0  0  0  0  0  0  0  0  0  0
   15.8066   -4.5151   -0.0475 H   0  0  0  0  0  0  0  0  0  0  0  0
   16.1171   -4.1528   -3.7473 H   0  0  0  0  0  0  0  0  0  0  0  0
   17.0165   -4.5114   -2.2652 H   0  0  0  0  0  0  0  0  0  0  0  0
   16.0661   -1.7126   -3.1016 H   0  0  0  0  0  0  0  0  0  0  0  0
   17.7340   -2.3136   -3.1802 H   0  0  0  0  0  0  0  0  0  0  0  0
   16.9435   -2.0858   -1.6113 H   0  0  0  0  0  0  0  0  0  0  0  0
   14.1781   -3.4620    2.0782 H   0  0  0  0  0  0  0  0  0  0  0  0
   12.5902   -3.7659    2.8210 H   0  0  0  0  0  0  0  0  0  0  0  0
   12.7346   -2.6033    1.5119 H   0  0  0  0  0  0  0  0  0  0  0  0
   14.2780   -6.1518    1.5721 H   0  0  0  0  0  0  0  0  0  0  0  0
   12.8775   -6.8469    0.7360 H   0  0  0  0  0  0  0  0  0  0  0  0
   12.6930   -6.2328    2.3707 H   0  0  0  0  0  0  0  0  0  0  0  0
    8.9134   -3.5295   -3.7918 H   0  0  0  0  0  0  0  0  0  0  0  0
   12.3878   -3.5158   -3.8634 H   0  0  0  0  0  0  0  0  0  0  0  0
  1  2  1  0  0  0  0
  1 28  1  0  0  0  0
  1 29  1  0  0  0  0
  1 30  1  0  0  0  0
  2  3  1  0  0  0  0
  2 31  1  0  0  0  0
  2 32  1  0  0  0  0
  3  4  1  0  0  0  0
  3 33  1  0  0  0  0
  3 34  1  0  0  0  0
  4  5  1  0  0  0  0
  4 35  1  0  0  0  0
  4 36  1  0  0  0  0
  5  6  1  0  0  0  0
  5 37  1  0  0  0  0
  5 38  1  0  0  0  0
  6  7  1  0  0  0  0
  6 39  1  0  0  0  0
  6 40  1  0  0  0  0
  7  8  1  0  0  0  0
  7  9  1  0  0  0  0
  7 10  1  0  0  0  0
  8 41  1  0  0  0  0
  8 42  1  0  0  0  0
  8 43  1  0  0  0  0
  9 44  1  0  0  0  0
  9 45  1  0  0  0  0
  9 46  1  0  0  0  0
 10 26  2  0  0  0  0
 10 11  1  0  0  0  0
 11 12  2  0  0  0  0
 11 47  1  0  0  0  0
 12 24  1  0  0  0  0
 12 13  1  0  0  0  0
 13 14  1  0  0  0  0
 13 25  2  0  0  0  0
 14 20  2  0  0  0  0
 14 15  1  0  0  0  0
 15 16  2  0  0  0  0
 15 21  1  0  0  0  0
 16 17  1  0  0  0  0
 16 48  1  0  0  0  0
 17 18  1  0  0  0  0
 17 20  1  0  0  0  0
 18 19  1  0  0  0  0
 18 49  1  0  0  0  0
 18 50  1  0  0  0  0
 19 51  1  0  0  0  0
 19 52  1  0  0  0  0
 19 53  1  0  0  0  0
 21 22  1  0  0  0  0
 21 23  1  0  0  0  0
 21 24  1  0  0  0  0
 22 54  1  0  0  0  0
 22 55  1  0  0  0  0
 22 56  1  0  0  0  0
 23 57  1  0  0  0  0
 23 58  1  0  0  0  0
 23 59  1  0  0  0  0
 25 26  1  0  0  0  0
 25 27  1  0  0  0  0
 26 60  1  0  0  0  0
 27 61  1  0  0  0  0
M  END
$$$$
CHEMBL559612	7FEE	best_smi
 OpenBabel12022417463D

 67 68  0  0  1  0  0  0  0  0999 V2000
    7.5261   -2.9585  -11.6394 C   0  0  0  0  0  0  0  0  0  0  0  0
    6.9781   -3.4541  -10.3098 C   0  0  0  0  0  0  0  0  0  0  0  0
    7.3302   -2.4879   -9.1847 C   0  0  0  0  0  0  0  0  0  0  0  0
    6.7852   -2.9528   -7.8328 C   0  0  0  0  0  0  0  0  0  0  0  0
    7.1562   -1.9311   -6.7600 C   0  0  0  0  0  0  0  0  0  0  0  0
    6.6345   -2.3101   -5.3663 C   0  0  0  0  0  0  0  0  0  0  0  0
    7.0618   -1.3097   -4.2452 C   0  0  0  0  0  0  0  0  0  0  0  0
    6.3931    0.0643   -4.4962 C   0  0  0  0  0  0  0  0  0  0  0  0
    6.5096   -1.8082   -2.8873 C   0  0  0  0  0  0  0  0  0  0  0  0
    8.5997   -1.2426   -4.1956 C   0  0  0  0  0  0  0  0  0  0  0  0
    9.3471   -2.3745   -3.8510 C   0  0  0  0  0  0  0  0  0  0  0  0
   10.7453   -2.3504   -3.8661 C   0  0  0  0  0  0  0  0  0  0  0  0
   11.4595   -1.1960   -4.2394 C   0  0  0  0  0  0  0  0  0  0  0  0
   12.9817   -1.1992   -4.1334 C   0  0  2  0  0  0  0  0  0  0  0  0
   13.5271   -2.2315   -5.1441 C   0  0  0  0  0  0  0  0  0  0  0  0
   15.0388   -2.3779   -5.0647 C   0  0  2  0  0  0  0  0  0  0  0  0
   15.4726   -3.3780   -5.9790 O   0  0  0  0  0  0  0  0  0  0  0  0
   15.4578   -2.7535   -3.6514 C   0  0  0  0  0  0  0  0  0  0  0  0
   15.0221   -1.6845   -2.6581 C   0  0  0  0  0  0  0  0  0  0  0  0
   13.4962   -1.4242   -2.6689 C   0  0  1  0  0  0  0  0  0  0  0  0
   13.2132   -0.2311   -1.6991 C   0  0  0  0  0  0  0  0  0  0  0  0
   11.7385    0.0239   -1.3882 C   0  0  0  0  0  0  0  0  0  0  0  0
   11.4711    1.2035   -0.4664 C   0  0  0  0  0  0  0  0  0  0  0  0
   10.0610    1.4109   -0.3755 O   0  0  0  0  0  0  0  0  0  0  0  0
   10.7093   -0.0770   -4.6171 C   0  0  0  0  0  0  0  0  0  0  0  0
   11.2402    1.1378   -4.9507 O   0  0  0  0  0  0  0  0  0  0  0  0
    9.3086   -0.0961   -4.5765 C   0  0  0  0  0  0  0  0  0  0  0  0
    7.2652   -3.6544  -12.4419 H   0  0  0  0  0  0  0  0  0  0  0  0
    8.6163   -2.8696  -11.6048 H   0  0  0  0  0  0  0  0  0  0  0  0
    7.1112   -1.9768  -11.8914 H   0  0  0  0  0  0  0  0  0  0  0  0
    7.3909   -4.4460  -10.0940 H   0  0  0  0  0  0  0  0  0  0  0  0
    5.8898   -3.5605  -10.3829 H   0  0  0  0  0  0  0  0  0  0  0  0
    6.9279   -1.4940   -9.4175 H   0  0  0  0  0  0  0  0  0  0  0  0
    8.4214   -2.3827   -9.1221 H   0  0  0  0  0  0  0  0  0  0  0  0
    7.2048   -3.9329   -7.5770 H   0  0  0  0  0  0  0  0  0  0  0  0
    5.6959   -3.0610   -7.8829 H   0  0  0  0  0  0  0  0  0  0  0  0
    6.7563   -0.9552   -7.0541 H   0  0  0  0  0  0  0  0  0  0  0  0
    8.2479   -1.8395   -6.7437 H   0  0  0  0  0  0  0  0  0  0  0  0
    6.9874   -3.3216   -5.1214 H   0  0  0  0  0  0  0  0  0  0  0  0
    5.5392   -2.3747   -5.3997 H   0  0  0  0  0  0  0  0  0  0  0  0
    5.3009   -0.0251   -4.5085 H   0  0  0  0  0  0  0  0  0  0  0  0
    6.6869    0.5086   -5.4522 H   0  0  0  0  0  0  0  0  0  0  0  0
    6.6557    0.7821   -3.7097 H   0  0  0  0  0  0  0  0  0  0  0  0
    5.4132   -1.7814   -2.8750 H   0  0  0  0  0  0  0  0  0  0  0  0
    6.8661   -1.1797   -2.0618 H   0  0  0  0  0  0  0  0  0  0  0  0
    6.8041   -2.8399   -2.6678 H   0  0  0  0  0  0  0  0  0  0  0  0
    8.8564   -3.3051   -3.5670 H   0  0  0  0  0  0  0  0  0  0  0  0
   11.2717   -3.2540   -3.5640 H   0  0  0  0  0  0  0  0  0  0  0  0
   13.3870   -0.2351   -4.4503 H   0  0  0  0  0  0  0  0  0  0  0  0
   13.2442   -1.9407   -6.1655 H   0  0  0  0  0  0  0  0  0  0  0  0
   13.0717   -3.2191   -4.9965 H   0  0  0  0  0  0  0  0  0  0  0  0
   15.5196   -1.4390   -5.3621 H   0  0  0  0  0  0  0  0  0  0  0  0
   15.0485   -4.2192   -5.7373 H   0  0  0  0  0  0  0  0  0  0  0  0
   16.5450   -2.8874   -3.6112 H   0  0  0  0  0  0  0  0  0  0  0  0
   15.0273   -3.7250   -3.3756 H   0  0  0  0  0  0  0  0  0  0  0  0
   15.5563   -0.7525   -2.8846 H   0  0  0  0  0  0  0  0  0  0  0  0
   15.3350   -1.9888   -1.6520 H   0  0  0  0  0  0  0  0  0  0  0  0
   13.0171   -2.3186   -2.2486 H   0  0  0  0  0  0  0  0  0  0  0  0
   13.7269   -0.4231   -0.7479 H   0  0  0  0  0  0  0  0  0  0  0  0
   13.6605    0.6816   -2.1139 H   0  0  0  0  0  0  0  0  0  0  0  0
   11.2647   -0.8802   -0.9907 H   0  0  0  0  0  0  0  0  0  0  0  0
   11.2093    0.2719   -2.2970 H   0  0  0  0  0  0  0  0  0  0  0  0
   11.9218    2.1235   -0.8591 H   0  0  0  0  0  0  0  0  0  0  0  0
   11.8597    1.0219    0.5399 H   0  0  0  0  0  0  0  0  0  0  0  0
    9.7119    1.4682   -1.2804 H   0  0  0  0  0  0  0  0  0  0  0  0
   12.2045    1.1136   -4.9025 H   0  0  0  0  0  0  0  0  0  0  0  0
    8.7954    0.8211   -4.8476 H   0  0  0  0  0  0  0  0  0  0  0  0
  1  2  1  0  0  0  0
  1 28  1  0  0  0  0
  1 29  1  0  0  0  0
  1 30  1  0  0  0  0
  2  3  1  0  0  0  0
  2 31  1  0  0  0  0
  2 32  1  0  0  0  0
  3  4  1  0  0  0  0
  3 33  1  0  0  0  0
  3 34  1  0  0  0  0
  4  5  1  0  0  0  0
  4 35  1  0  0  0  0
  4 36  1  0  0  0  0
  5  6  1  0  0  0  0
  5 37  1  0  0  0  0
  5 38  1  0  0  0  0
  6  7  1  0  0  0  0
  6 39  1  0  0  0  0
  6 40  1  0  0  0  0
  7  8  1  0  0  0  0
  7  9  1  0  0  0  0
  7 10  1  0  0  0  0
  8 41  1  0  0  0  0
  8 42  1  0  0  0  0
  8 43  1  0  0  0  0
  9 44  1  0  0  0  0
  9 45  1  0  0  0  0
  9 46  1  0  0  0  0
 10 27  2  0  0  0  0
 10 11  1  0  0  0  0
 11 12  2  0  0  0  0
 11 47  1  0  0  0  0
 12 13  1  0  0  0  0
 12 48  1  0  0  0  0
 13 25  2  0  0  0  0
 14 13  1  0  0  0  0
 14 15  1  0  0  0  0
 14 20  1  0  0  0  0
 14 49  1  6  0  0  0
 15 16  1  0  0  0  0
 15 50  1  0  0  0  0
 15 51  1  0  0  0  0
 16 17  1  0  0  0  0
 16 18  1  0  0  0  0
 16 52  1  6  0  0  0
 17 53  1  0  0  0  0
 18 19  1  0  0  0  0
 18 54  1  0  0  0  0
 18 55  1  0  0  0  0
 19 20  1  0  0  0  0
 19 56  1  0  0  0  0
 19 57  1  0  0  0  0
 20 21  1  0  0  0  0
 20 58  1  1  0  0  0
 21 22  1  0  0  0  0
 21 59  1  0  0  0  0
 21 60  1  0  0  0  0
 22 23  1  0  0  0  0
 22 61  1  0  0  0  0
 22 62  1  0  0  0  0
 23 24  1  0  0  0  0
 23 63  1  0  0  0  0
 23 64  1  0  0  0  0
 24 65  1  0  0  0  0
 25 26  1  0  0  0  0
 25 27  1  0  0  0  0
 26 66  1  0  0  0  0
 27 67  1  0  0  0  0
M  END
$$$$
CHEMBL77520	7FEE	best_smi
 OpenBabel12022417463D

 67 68  0  0  1  0  0  0  0  0999 V2000
    7.0979   -4.2160   -0.2734 C   0  0  0  0  0  0  0  0  0  0  0  0
    6.5797   -2.7990   -0.0758 C   0  0  0  0  0  0  0  0  0  0  0  0
    6.9995   -1.9013   -1.2342 C   0  0  0  0  0  0  0  0  0  0  0  0
    6.5031   -0.4598   -1.0752 C   0  0  0  0  0  0  0  0  0  0  0  0
    6.9586    0.3647   -2.2814 C   0  0  0  0  0  0  0  0  0  0  0  0
    6.5007    1.8313   -2.2380 C   0  0  0  0  0  0  0  0  0  0  0  0
    6.9533    2.6715   -3.4808 C   0  0  0  0  0  0  0  0  0  0  0  0
    6.2998    2.0802   -4.7555 C   0  0  0  0  0  0  0  0  0  0  0  0
    6.4093    4.1128   -3.3469 C   0  0  0  0  0  0  0  0  0  0  0  0
    8.4876    2.7432   -3.5636 C   0  0  0  0  0  0  0  0  0  0  0  0
    9.2427    3.3102   -2.5280 C   0  0  0  0  0  0  0  0  0  0  0  0
   10.6470    3.3273   -2.5789 C   0  0  0  0  0  0  0  0  0  0  0  0
   11.3562    2.7561   -3.6534 C   0  0  0  0  0  0  0  0  0  0  0  0
   12.8799    2.6428   -3.5934 C   0  0  3  0  0  0  0  0  0  0  0  0
   13.3603    2.1506   -2.2114 C   0  0  0  0  0  0  0  0  0  0  0  0
   14.8663    1.9194   -2.1710 C   0  0  3  0  0  0  0  0  0  0  0  0
   15.2588    1.5716   -0.8485 O   0  0  0  0  0  0  0  0  0  0  0  0
   15.6218    3.1611   -2.6271 C   0  0  0  0  0  0  0  0  0  0  0  0
   15.1985    3.5552   -4.0396 C   0  0  0  0  0  0  0  0  0  0  0  0
   13.6852    3.8613   -4.1452 C   0  0  3  0  0  0  0  0  0  0  0  0
   13.3356    5.2323   -3.5176 C   0  0  0  0  0  0  0  0  0  0  0  0
   14.1043    6.4329   -4.1036 C   0  0  0  0  0  0  0  0  0  0  0  0
   13.9153    6.6263   -5.6076 C   0  0  0  0  0  0  0  0  0  0  0  0
   14.7368    7.6904   -6.0761 O   0  0  0  0  0  0  0  0  0  0  0  0
   10.5966    2.2524   -4.7045 C   0  0  0  0  0  0  0  0  0  0  0  0
   11.1190    1.7085   -5.8454 O   0  0  0  0  0  0  0  0  0  0  0  0
    9.1970    2.2404   -4.6603 C   0  0  0  0  0  0  0  0  0  0  0  0
    6.7952   -4.8528    0.5634 H   0  0  0  0  0  0  0  0  0  0  0  0
    8.1909   -4.2296   -0.3332 H   0  0  0  0  0  0  0  0  0  0  0  0
    6.7003   -4.6539   -1.1949 H   0  0  0  0  0  0  0  0  0  0  0  0
    6.9679   -2.3991    0.8679 H   0  0  0  0  0  0  0  0  0  0  0  0
    5.4868   -2.8214    0.0036 H   0  0  0  0  0  0  0  0  0  0  0  0
    6.6113   -2.3178   -2.1727 H   0  0  0  0  0  0  0  0  0  0  0  0
    8.0941   -1.9010   -1.3162 H   0  0  0  0  0  0  0  0  0  0  0  0
    6.8984   -0.0263   -0.1494 H   0  0  0  0  0  0  0  0  0  0  0  0
    5.4081   -0.4470   -1.0059 H   0  0  0  0  0  0  0  0  0  0  0  0
    6.5654   -0.1210   -3.1800 H   0  0  0  0  0  0  0  0  0  0  0  0
    8.0515    0.3203   -2.3428 H   0  0  0  0  0  0  0  0  0  0  0  0
    6.8719    2.2895   -1.3120 H   0  0  0  0  0  0  0  0  0  0  0  0
    5.4048    1.8566   -2.1674 H   0  0  0  0  0  0  0  0  0  0  0  0
    5.2067    2.0982   -4.6842 H   0  0  0  0  0  0  0  0  0  0  0  0
    6.5956    1.0415   -4.9366 H   0  0  0  0  0  0  0  0  0  0  0  0
    6.5768    2.6516   -5.6491 H   0  0  0  0  0  0  0  0  0  0  0  0
    5.3159    4.1317   -3.4141 H   0  0  0  0  0  0  0  0  0  0  0  0
    6.8019    4.7538   -4.1464 H   0  0  0  0  0  0  0  0  0  0  0  0
    6.6831    4.5730   -2.3918 H   0  0  0  0  0  0  0  0  0  0  0  0
    8.7517    3.7349   -1.6563 H   0  0  0  0  0  0  0  0  0  0  0  0
   11.1690    3.7811   -1.7389 H   0  0  0  0  0  0  0  0  0  0  0  0
   13.1527    1.8108   -4.2545 H   0  0  0  0  0  0  0  0  0  0  0  0
   12.8544    1.2078   -1.9586 H   0  0  0  0  0  0  0  0  0  0  0  0
   13.0874    2.8500   -1.4138 H   0  0  0  0  0  0  0  0  0  0  0  0
   15.1288    1.0736   -2.8172 H   0  0  0  0  0  0  0  0  0  0  0  0
   14.9540    2.2713   -0.2461 H   0  0  0  0  0  0  0  0  0  0  0  0
   16.7002    2.9682   -2.5949 H   0  0  0  0  0  0  0  0  0  0  0  0
   15.4502    3.9855   -1.9234 H   0  0  0  0  0  0  0  0  0  0  0  0
   15.4373    2.7282   -4.7226 H   0  0  0  0  0  0  0  0  0  0  0  0
   15.8065    4.3968   -4.3819 H   0  0  0  0  0  0  0  0  0  0  0  0
   13.4385    3.9295   -5.2128 H   0  0  0  0  0  0  0  0  0  0  0  0
   13.5151    5.2076   -2.4363 H   0  0  0  0  0  0  0  0  0  0  0  0
   12.2667    5.4346   -3.6492 H   0  0  0  0  0  0  0  0  0  0  0  0
   15.1734    6.3663   -3.8725 H   0  0  0  0  0  0  0  0  0  0  0  0
   13.7722    7.3461   -3.5920 H   0  0  0  0  0  0  0  0  0  0  0  0
   12.8729    6.8585   -5.8433 H   0  0  0  0  0  0  0  0  0  0  0  0
   14.2066    5.7376   -6.1721 H   0  0  0  0  0  0  0  0  0  0  0  0
   14.7446    8.3930   -5.4057 H   0  0  0  0  0  0  0  0  0  0  0  0
   11.9952    1.3421   -5.6623 H   0  0  0  0  0  0  0  0  0  0  0  0
    8.6853    1.7931   -5.5079 H   0  0  0  0  0  0  0  0  0  0  0  0
  1  2  1  0  0  0  0
  1 28  1  0  0  0  0
  1 29  1  0  0  0  0
  1 30  1  0  0  0  0
  2  3  1  0  0  0  0
  2 31  1  0  0  0  0
  2 32  1  0  0  0  0
  3  4  1  0  0  0  0
  3 33  1  0  0  0  0
  3 34  1  0  0  0  0
  4  5  1  0  0  0  0
  4 35  1  0  0  0  0
  4 36  1  0  0  0  0
  5  6  1  0  0  0  0
  5 37  1  0  0  0  0
  5 38  1  0  0  0  0
  6  7  1  0  0  0  0
  6 39  1  0  0  0  0
  6 40  1  0  0  0  0
  7  8  1  0  0  0  0
  7  9  1  0  0  0  0
  7 10  1  0  0  0  0
  8 41  1  0  0  0  0
  8 42  1  0  0  0  0
  8 43  1  0  0  0  0
  9 44  1  0  0  0  0
  9 45  1  0  0  0  0
  9 46  1  0  0  0  0
 10 27  2  0  0  0  0
 10 11  1  0  0  0  0
 11 12  2  0  0  0  0
 11 47  1  0  0  0  0
 12 13  1  0  0  0  0
 12 48  1  0  0  0  0
 13 14  1  0  0  0  0
 13 25  2  0  0  0  0
 14 20  1  0  0  0  0
 14 15  1  0  0  0  0
 14 49  1  0  0  0  0
 15 16  1  0  0  0  0
 15 50  1  0  0  0  0
 15 51  1  0  0  0  0
 16 17  1  0  0  0  0
 16 18  1  0  0  0  0
 16 52  1  0  0  0  0
 17 53  1  0  0  0  0
 18 19  1  0  0  0  0
 18 54  1  0  0  0  0
 18 55  1  0  0  0  0
 19 20  1  0  0  0  0
 19 56  1  0  0  0  0
 19 57  1  0  0  0  0
 20 21  1  0  0  0  0
 20 58  1  0  0  0  0
 21 22  1  0  0  0  0
 21 59  1  0  0  0  0
 21 60  1  0  0  0  0
 22 23  1  0  0  0  0
 22 61  1  0  0  0  0
 22 62  1  0  0  0  0
 23 24  1  0  0  0  0
 23 63  1  0  0  0  0
 23 64  1  0  0  0  0
 24 65  1  0  0  0  0
 25 26  1  0  0  0  0
 25 27  1  0  0  0  0
 26 66  1  0  0  0  0
 27 67  1  0  0  0  0
M  END
$$$$
CHEMBL4102975	7FEE	best_smi
 OpenBabel12022417463D

 61 62  0  0  1  0  0  0  0  0999 V2000
    5.2386   -3.3683    7.2345 C   0  0  0  0  0  0  0  0  0  0  0  0
    4.6913   -2.1991    6.4281 C   0  0  0  0  0  0  0  0  0  0  0  0
    5.0445   -2.3587    4.9515 C   0  0  0  0  0  0  0  0  0  0  0  0
    4.5045   -1.2038    4.0920 C   0  0  0  0  0  0  0  0  0  0  0  0
    4.9057   -1.2910    2.5846 C   0  0  0  0  0  0  0  0  0  0  0  0
    4.2356   -2.5301    1.9427 C   0  0  0  0  0  0  0  0  0  0  0  0
    4.3290   -0.0619    1.8390 C   0  0  0  0  0  0  0  0  0  0  0  0
    6.4398   -1.2970    2.4727 C   0  0  0  0  0  0  0  0  0  0  0  0
    7.1876   -0.1842    2.8855 C   0  0  0  0  0  0  0  0  0  0  0  0
    8.5839   -0.2004    2.8549 C   0  0  0  0  0  0  0  0  0  0  0  0
    9.3022   -1.3297    2.4209 C   0  0  0  0  0  0  0  0  0  0  0  0
   10.8222   -1.2635    2.3543 C   0  0  2  0  0  0  0  0  0  0  0  0
   11.3547   -1.0773    3.7923 C   0  0  0  0  0  0  0  0  0  0  0  0
   12.8702   -0.9566    3.8379 C   0  0  2  0  0  0  0  0  0  0  0  0
   13.2938   -0.7325    5.1777 O   0  0  0  0  0  0  0  0  0  0  0  0
   13.3368    0.1887    2.9517 C   0  0  0  0  0  0  0  0  0  0  0  0
   12.8948   -0.0255    1.5096 C   0  0  0  0  0  0  0  0  0  0  0  0
   11.3623   -0.1843    1.3550 C   0  0  1  0  0  0  0  0  0  0  0  0
   11.0727   -0.4988   -0.1467 C   0  0  0  0  0  0  0  0  0  0  0  0
    9.6040   -0.4297   -0.5651 C   0  0  0  0  0  0  0  0  0  0  0  0
    9.3560   -0.7763   -2.0249 C   0  0  0  0  0  0  0  0  0  0  0  0
    7.9525   -0.8128   -2.2663 O   0  0  0  0  0  0  0  0  0  0  0  0
    8.5530   -2.4445    2.0224 C   0  0  0  0  0  0  0  0  0  0  0  0
    9.0885   -3.5983    1.5234 O   0  0  0  0  0  0  0  0  0  0  0  0
    7.1547   -2.4197    2.0356 C   0  0  0  0  0  0  0  0  0  0  0  0
    4.9789   -3.2602    8.2912 H   0  0  0  0  0  0  0  0  0  0  0  0
    6.3295   -3.4218    7.1550 H   0  0  0  0  0  0  0  0  0  0  0  0
    4.8252   -4.3171    6.8764 H   0  0  0  0  0  0  0  0  0  0  0  0
    5.1110   -1.2640    6.8161 H   0  0  0  0  0  0  0  0  0  0  0  0
    3.6039   -2.1488    6.5504 H   0  0  0  0  0  0  0  0  0  0  0  0
    4.6395   -3.3111    4.5945 H   0  0  0  0  0  0  0  0  0  0  0  0
    6.1351   -2.4182    4.8656 H   0  0  0  0  0  0  0  0  0  0  0  0
    4.8590   -0.2555    4.5183 H   0  0  0  0  0  0  0  0  0  0  0  0
    3.4101   -1.1792    4.1756 H   0  0  0  0  0  0  0  0  0  0  0  0
    3.1436   -2.4762    2.0273 H   0  0  0  0  0  0  0  0  0  0  0  0
    4.5455   -3.4684    2.4133 H   0  0  0  0  0  0  0  0  0  0  0  0
    4.4787   -2.6042    0.8756 H   0  0  0  0  0  0  0  0  0  0  0  0
    3.2326   -0.0839    1.8316 H   0  0  0  0  0  0  0  0  0  0  0  0
    4.6670   -0.0387    0.7957 H   0  0  0  0  0  0  0  0  0  0  0  0
    4.6236    0.8860    2.3018 H   0  0  0  0  0  0  0  0  0  0  0  0
    6.6937    0.7150    3.2489 H   0  0  0  0  0  0  0  0  0  0  0  0
    9.1080    0.7030    3.1680 H   0  0  0  0  0  0  0  0  0  0  0  0
   11.2295   -2.2203    2.0135 H   0  0  0  0  0  0  0  0  0  0  0  0
   11.0397   -1.9205    4.4226 H   0  0  0  0  0  0  0  0  0  0  0  0
   10.9183   -0.1899    4.2692 H   0  0  0  0  0  0  0  0  0  0  0  0
   13.3278   -1.8962    3.5080 H   0  0  0  0  0  0  0  0  0  0  0  0
   12.8582    0.0728    5.5062 H   0  0  0  0  0  0  0  0  0  0  0  0
   14.4288    0.2739    3.0038 H   0  0  0  0  0  0  0  0  0  0  0  0
   12.9451    1.1420    3.3295 H   0  0  0  0  0  0  0  0  0  0  0  0
   13.3984   -0.9177    1.1148 H   0  0  0  0  0  0  0  0  0  0  0  0
   13.2400    0.8225    0.9056 H   0  0  0  0  0  0  0  0  0  0  0  0
   10.9111    0.7887    1.5905 H   0  0  0  0  0  0  0  0  0  0  0  0
   11.6265    0.2189   -0.7667 H   0  0  0  0  0  0  0  0  0  0  0  0
   11.4744   -1.4912   -0.3893 H   0  0  0  0  0  0  0  0  0  0  0  0
    9.1842    0.5571   -0.3378 H   0  0  0  0  0  0  0  0  0  0  0  0
    9.0149   -1.1440   -0.0058 H   0  0  0  0  0  0  0  0  0  0  0  0
    9.7667   -1.7599   -2.2749 H   0  0  0  0  0  0  0  0  0  0  0  0
    9.7990   -0.0307   -2.6907 H   0  0  0  0  0  0  0  0  0  0  0  0
    7.5533   -1.4152   -1.6071 H   0  0  0  0  0  0  0  0  0  0  0  0
   10.0520   -3.5412    1.4837 H   0  0  0  0  0  0  0  0  0  0  0  0
    6.6432   -3.3141    1.6916 H   0  0  0  0  0  0  0  0  0  0  0  0
  1  2  1  0  0  0  0
  1 26  1  0  0  0  0
  1 27  1  0  0  0  0
  1 28  1  0  0  0  0
  2  3  1  0  0  0  0
  2 29  1  0  0  0  0
  2 30  1  0  0  0  0
  3  4  1  0  0  0  0
  3 31  1  0  0  0  0
  3 32  1  0  0  0  0
  4  5  1  0  0  0  0
  4 33  1  0  0  0  0
  4 34  1  0  0  0  0
  5  6  1  0  0  0  0
  5  7  1  0  0  0  0
  5  8  1  0  0  0  0
  6 35  1  0  0  0  0
  6 36  1  0  0  0  0
  6 37  1  0  0  0  0
  7 38  1  0  0  0  0
  7 39  1  0  0  0  0
  7 40  1  0  0  0  0
  8 25  2  0  0  0  0
  8  9  1  0  0  0  0
  9 10  2  0  0  0  0
  9 41  1  0  0  0  0
 10 11  1  0  0  0  0
 10 42  1  0  0  0  0
 11 23  2  0  0  0  0
 12 11  1  0  0  0  0
 12 13  1  0  0  0  0
 12 18  1  0  0  0  0
 12 43  1  6  0  0  0
 13 14  1  0  0  0  0
 13 44  1  0  0  0  0
 13 45  1  0  0  0  0
 14 15  1  0  0  0  0
 14 16  1  0  0  0  0
 14 46  1  6  0  0  0
 15 47  1  0  0  0  0
 16 17  1  0  0  0  0
 16 48  1  0  0  0  0
 16 49  1  0  0  0  0
 17 18  1  0  0  0  0
 17 50  1  0  0  0  0
 17 51  1  0  0  0  0
 18 19  1  0  0  0  0
 18 52  1  1  0  0  0
 19 20  1  0  0  0  0
 19 53  1  0  0  0  0
 19 54  1  0  0  0  0
 20 21  1  0  0  0  0
 20 55  1  0  0  0  0
 20 56  1  0  0  0  0
 21 22  1  0  0  0  0
 21 57  1  0  0  0  0
 21 58  1  0  0  0  0
 22 59  1  0  0  0  0
 23 24  1  0  0  0  0
 23 25  1  0  0  0  0
 24 60  1  0  0  0  0
 25 61  1  0  0  0  0
M  END
$$$$
CHEMBL2062131	7FEE	best_smi
 OpenBabel12022417463D

 67 68  0  0  1  0  0  0  0  0999 V2000
   21.2517   -0.2926    8.0838 C   0  0  0  0  0  0  0  0  0  0  0  0
   20.0317   -0.9516    8.7076 C   0  0  0  0  0  0  0  0  0  0  0  0
   18.9986   -1.2788    7.6411 C   0  0  0  0  0  0  0  0  0  0  0  0
   17.7571   -1.9490    8.2303 C   0  0  0  0  0  0  0  0  0  0  0  0
   16.7823   -2.2416    7.0980 C   0  0  0  0  0  0  0  0  0  0  0  0
   15.4976   -2.9416    7.5622 C   0  0  0  0  0  0  0  0  0  0  0  0
   14.5090   -3.2237    6.3897 C   0  0  0  0  0  0  0  0  0  0  0  0
   15.1541   -4.2107    5.3791 C   0  0  0  0  0  0  0  0  0  0  0  0
   13.2380   -3.9218    6.9202 C   0  0  0  0  0  0  0  0  0  0  0  0
   14.1089   -1.8990    5.7407 C   0  0  0  0  0  0  0  0  0  0  0  0
   13.4826   -0.8800    6.4511 C   0  0  0  0  0  0  0  0  0  0  0  0
   13.1631    0.3332    5.8323 C   0  0  0  0  0  0  0  0  0  0  0  0
   13.3999    0.5842    4.4607 C   0  0  0  0  0  0  0  0  0  0  0  0
   13.0077    1.9576    3.8628 C   0  0  1  0  0  0  0  0  0  0  0  0
   12.6237    1.9578    2.3624 C   0  0  0  0  0  0  0  0  0  0  0  0
   11.2651    1.3311    2.0670 C   0  0  1  0  0  0  0  0  0  0  0  0
   11.2672   -0.0950    2.2204 O   0  0  0  0  0  0  0  0  0  0  0  0
   10.1507    1.9204    2.9165 C   0  0  0  0  0  0  0  0  0  0  0  0
   10.5219    1.9840    4.3988 C   0  0  0  0  0  0  0  0  0  0  0  0
   11.8604    2.7065    4.6448 C   0  0  2  0  0  0  0  0  0  0  0  0
   11.7882    4.2212    4.3255 C   0  0  0  0  0  0  0  0  0  0  0  0
   10.6965    4.9396    5.1299 C   0  0  0  0  0  0  0  0  0  0  0  0
   10.6407    6.4257    4.8121 C   0  0  0  0  0  0  0  0  0  0  0  0
    9.5882    7.0329    5.5458 O   0  0  0  0  0  0  0  0  0  0  0  0
   14.0187   -0.4616    3.7663 C   0  0  0  0  0  0  0  0  0  0  0  0
   14.2567   -0.5216    2.4260 O   0  0  0  0  0  0  0  0  0  0  0  0
   14.3760   -1.6451    4.3899 C   0  0  0  0  0  0  0  0  0  0  0  0
   21.9932   -0.0608    8.8511 H   0  0  0  0  0  0  0  0  0  0  0  0
   20.9755    0.6390    7.5788 H   0  0  0  0  0  0  0  0  0  0  0  0
   21.7165   -0.9547    7.3450 H   0  0  0  0  0  0  0  0  0  0  0  0
   19.5957   -0.2796    9.4555 H   0  0  0  0  0  0  0  0  0  0  0  0
   20.3365   -1.8680    9.2255 H   0  0  0  0  0  0  0  0  0  0  0  0
   19.4470   -1.9396    6.8873 H   0  0  0  0  0  0  0  0  0  0  0  0
   18.7046   -0.3586    7.1192 H   0  0  0  0  0  0  0  0  0  0  0  0
   17.2888   -1.2939    8.9736 H   0  0  0  0  0  0  0  0  0  0  0  0
   18.0353   -2.8820    8.7345 H   0  0  0  0  0  0  0  0  0  0  0  0
   17.3045   -2.8618    6.3634 H   0  0  0  0  0  0  0  0  0  0  0  0
   16.5393   -1.2952    6.6017 H   0  0  0  0  0  0  0  0  0  0  0  0
   15.0170   -2.3180    8.3264 H   0  0  0  0  0  0  0  0  0  0  0  0
   15.7560   -3.8853    8.0600 H   0  0  0  0  0  0  0  0  0  0  0  0
   15.3027   -5.2017    5.8192 H   0  0  0  0  0  0  0  0  0  0  0  0
   16.1264   -3.8642    5.0170 H   0  0  0  0  0  0  0  0  0  0  0  0
   14.5202   -4.3481    4.4945 H   0  0  0  0  0  0  0  0  0  0  0  0
   13.4592   -4.9411    7.2546 H   0  0  0  0  0  0  0  0  0  0  0  0
   12.4743   -3.9904    6.1349 H   0  0  0  0  0  0  0  0  0  0  0  0
   12.7928   -3.3893    7.7672 H   0  0  0  0  0  0  0  0  0  0  0  0
   13.2427   -0.9977    7.5082 H   0  0  0  0  0  0  0  0  0  0  0  0
   12.6927    1.0628    6.4820 H   0  0  0  0  0  0  0  0  0  0  0  0
   13.9236    2.5614    3.9650 H   0  0  0  0  0  0  0  0  0  0  0  0
   13.3879    1.5102    1.7310 H   0  0  0  0  0  0  0  0  0  0  0  0
   12.6028    2.9966    2.0161 H   0  0  0  0  0  0  0  0  0  0  0  0
   11.0259    1.5032    1.0036 H   0  0  0  0  0  0  0  0  0  0  0  0
   11.5660   -0.3275    3.1070 H   0  0  0  0  0  0  0  0  0  0  0  0
    9.2410    1.3205    2.8122 H   0  0  0  0  0  0  0  0  0  0  0  0
    9.9198    2.9281    2.5545 H   0  0  0  0  0  0  0  0  0  0  0  0
   10.5710    0.9654    4.8011 H   0  0  0  0  0  0  0  0  0  0  0  0
    9.7084    2.4599    4.9537 H   0  0  0  0  0  0  0  0  0  0  0  0
   12.0670    2.6922    5.7187 H   0  0  0  0  0  0  0  0  0  0  0  0
   11.6061    4.3957    3.2613 H   0  0  0  0  0  0  0  0  0  0  0  0
   12.7574    4.6803    4.5582 H   0  0  0  0  0  0  0  0  0  0  0  0
   10.8487    4.7965    6.2055 H   0  0  0  0  0  0  0  0  0  0  0  0
    9.7089    4.5226    4.9074 H   0  0  0  0  0  0  0  0  0  0  0  0
   10.4605    6.5926    3.7433 H   0  0  0  0  0  0  0  0  0  0  0  0
   11.5808    6.9207    5.0857 H   0  0  0  0  0  0  0  0  0  0  0  0
    8.7626    6.5806    5.3085 H   0  0  0  0  0  0  0  0  0  0  0  0
   14.6575    0.2936    2.1186 H   0  0  0  0  0  0  0  0  0  0  0  0
   14.8931   -2.3786    3.7754 H   0  0  0  0  0  0  0  0  0  0  0  0
  1  2  1  0  0  0  0
  1 28  1  0  0  0  0
  1 29  1  0  0  0  0
  1 30  1  0  0  0  0
  2  3  1  0  0  0  0
  2 31  1  0  0  0  0
  2 32  1  0  0  0  0
  3  4  1  0  0  0  0
  3 33  1  0  0  0  0
  3 34  1  0  0  0  0
  4  5  1  0  0  0  0
  4 35  1  0  0  0  0
  4 36  1  0  0  0  0
  5  6  1  0  0  0  0
  5 37  1  0  0  0  0
  5 38  1  0  0  0  0
  6  7  1  0  0  0  0
  6 39  1  0  0  0  0
  6 40  1  0  0  0  0
  7  8  1  0  0  0  0
  7  9  1  0  0  0  0
  7 10  1  0  0  0  0
  8 41  1  0  0  0  0
  8 42  1  0  0  0  0
  8 43  1  0  0  0  0
  9 44  1  0  0  0  0
  9 45  1  0  0  0  0
  9 46  1  0  0  0  0
 10 27  2  0  0  0  0
 10 11  1  0  0  0  0
 11 12  2  0  0  0  0
 11 47  1  0  0  0  0
 12 13  1  0  0  0  0
 12 48  1  0  0  0  0
 13 25  2  0  0  0  0
 14 15  1  0  0  0  0
 14 20  1  0  0  0  0
 14 13  1  0  0  0  0
 14 49  1  1  0  0  0
 15 16  1  0  0  0  0
 15 50  1  0  0  0  0
 15 51  1  0  0  0  0
 16 18  1  0  0  0  0
 16 17  1  0  0  0  0
 16 52  1  6  0  0  0
 17 53  1  0  0  0  0
 18 19  1  0  0  0  0
 18 54  1  0  0  0  0
 18 55  1  0  0  0  0
 19 20  1  0  0  0  0
 19 56  1  0  0  0  0
 19 57  1  0  0  0  0
 20 21  1  0  0  0  0
 20 58  1  1  0  0  0
 21 22  1  0  0  0  0
 21 59  1  0  0  0  0
 21 60  1  0  0  0  0
 22 23  1  0  0  0  0
 22 61  1  0  0  0  0
 22 62  1  0  0  0  0
 23 24  1  0  0  0  0
 23 63  1  0  0  0  0
 23 64  1  0  0  0  0
 24 65  1  0  0  0  0
 25 26  1  0  0  0  0
 25 27  1  0  0  0  0
 26 66  1  0  0  0  0
 27 67  1  0  0  0  0
M  END
$$$$
