CHEMBL55802	8GHV	best_smi
 OpenBabel12022417463D

 65 64  0  0  1  0  0  0  0  0999 V2000
    4.6064   -1.1789   -2.1917 C   0  0  0  0  0  0  0  0  0  0  0  0
    5.7166   -1.1168   -1.1588 C   0  0  0  0  0  0  0  0  0  0  0  0
    5.4039   -0.0827   -0.0876 C   0  0  0  0  0  0  0  0  0  0  0  0
    6.5196   -0.0201    0.9516 C   0  0  0  0  0  0  0  0  0  0  0  0
    6.1664    1.0177    2.0024 C   0  0  0  0  0  0  0  0  0  0  0  0
    7.2048    1.1444    3.0735 C   0  0  0  0  0  0  0  0  0  0  0  0
    7.0834    2.0255    4.0778 C   0  0  0  0  0  0  0  0  0  0  0  0
    5.9210    2.9575    4.2417 C   0  0  0  0  0  0  0  0  0  0  0  0
    5.2753    2.7588    5.5763 C   0  0  0  0  0  0  0  0  0  0  0  0
    5.2179    3.7012    6.5284 C   0  0  0  0  0  0  0  0  0  0  0  0
    5.7446    5.0986    6.3406 C   0  0  0  0  0  0  0  0  0  0  0  0
    5.3355    6.0366    7.4353 C   0  0  0  0  0  0  0  0  0  0  0  0
    4.0647    6.3586    7.7292 C   0  0  0  0  0  0  0  0  0  0  0  0
    2.8861    5.7886    6.9975 C   0  0  0  0  0  0  0  0  0  0  0  0
    1.6716    6.6548    7.1034 C   0  0  0  0  0  0  0  0  0  0  0  0
    0.5231    6.2589    7.6735 C   0  0  0  0  0  0  0  0  0  0  0  0
    0.3398    4.9029    8.2985 C   0  0  0  0  0  0  0  0  0  0  0  0
   -1.0583    4.7331    8.8544 C   0  0  0  0  0  0  0  0  0  0  0  0
   -1.2457    3.3607    9.5014 C   0  0  0  0  0  0  0  0  0  0  0  0
   -2.6688    3.2548   10.0050 C   0  0  0  0  0  0  0  0  0  0  0  0
   -3.4992    4.1459    9.8395 O   0  0  0  0  0  0  0  0  0  0  0  0
   -2.9550    2.0743   10.6491 N   0  0  0  0  0  0  0  0  0  0  0  0
   -4.2710    1.8327   11.2458 C   0  0  3  0  0  0  0  0  0  0  0  0
   -4.5589    2.8154   12.3801 C   0  0  0  0  0  0  0  0  0  0  0  0
   -5.3976    1.8386   10.1943 C   0  0  0  0  0  0  0  0  0  0  0  0
   -5.1523    0.8250    9.2173 O   0  0  0  0  0  0  0  0  0  0  0  0
    4.8432   -1.9256   -2.9546 H   0  0  0  0  0  0  0  0  0  0  0  0
    4.4790   -0.2106   -2.6864 H   0  0  0  0  0  0  0  0  0  0  0  0
    3.6547   -1.4536   -1.7257 H   0  0  0  0  0  0  0  0  0  0  0  0
    6.6619   -0.8642   -1.6524 H   0  0  0  0  0  0  0  0  0  0  0  0
    5.8413   -2.1024   -0.6963 H   0  0  0  0  0  0  0  0  0  0  0  0
    4.4551   -0.3319    0.4047 H   0  0  0  0  0  0  0  0  0  0  0  0
    5.2738    0.9047   -0.5490 H   0  0  0  0  0  0  0  0  0  0  0  0
    7.4691    0.2425    0.4698 H   0  0  0  0  0  0  0  0  0  0  0  0
    6.6502   -1.0014    1.4236 H   0  0  0  0  0  0  0  0  0  0  0  0
    5.2087    0.7435    2.4632 H   0  0  0  0  0  0  0  0  0  0  0  0
    6.0402    1.9902    1.5086 H   0  0  0  0  0  0  0  0  0  0  0  0
    8.0853    0.5077    3.0318 H   0  0  0  0  0  0  0  0  0  0  0  0
    7.8710    2.0870    4.8264 H   0  0  0  0  0  0  0  0  0  0  0  0
    5.1491    2.8225    3.4772 H   0  0  0  0  0  0  0  0  0  0  0  0
    6.2986    3.9739    4.1003 H   0  0  0  0  0  0  0  0  0  0  0  0
    4.8376    1.7798    5.7658 H   0  0  0  0  0  0  0  0  0  0  0  0
    4.7402    3.4465    7.4717 H   0  0  0  0  0  0  0  0  0  0  0  0
    5.3886    5.5154    5.3889 H   0  0  0  0  0  0  0  0  0  0  0  0
    6.8380    5.0646    6.2918 H   0  0  0  0  0  0  0  0  0  0  0  0
    6.1426    6.4780    8.0141 H   0  0  0  0  0  0  0  0  0  0  0  0
    3.8734    7.0221    8.5694 H   0  0  0  0  0  0  0  0  0  0  0  0
    2.6970    4.7928    7.4112 H   0  0  0  0  0  0  0  0  0  0  0  0
    3.0983    5.6535    5.9314 H   0  0  0  0  0  0  0  0  0  0  0  0
    1.7330    7.6452    6.6579 H   0  0  0  0  0  0  0  0  0  0  0  0
   -0.3182    6.9492    7.6814 H   0  0  0  0  0  0  0  0  0  0  0  0
    1.0685    4.7734    9.1089 H   0  0  0  0  0  0  0  0  0  0  0  0
    0.5201    4.1251    7.5453 H   0  0  0  0  0  0  0  0  0  0  0  0
   -1.7894    4.8607    8.0459 H   0  0  0  0  0  0  0  0  0  0  0  0
   -1.2596    5.5158    9.5950 H   0  0  0  0  0  0  0  0  0  0  0  0
   -0.5504    3.2303   10.3402 H   0  0  0  0  0  0  0  0  0  0  0  0
   -1.0671    2.5619    8.7712 H   0  0  0  0  0  0  0  0  0  0  0  0
   -2.2229    1.3856   10.7927 H   0  0  0  0  0  0  0  0  0  0  0  0
   -4.2032    0.8231   11.6659 H   0  0  0  0  0  0  0  0  0  0  0  0
   -4.6077    3.8512   12.0291 H   0  0  0  0  0  0  0  0  0  0  0  0
   -3.7721    2.7669   13.1406 H   0  0  0  0  0  0  0  0  0  0  0  0
   -5.5145    2.5860   12.8603 H   0  0  0  0  0  0  0  0  0  0  0  0
   -5.4935    2.7955    9.6730 H   0  0  0  0  0  0  0  0  0  0  0  0
   -6.3614    1.6223   10.6644 H   0  0  0  0  0  0  0  0  0  0  0  0
   -4.3239    1.0849    8.7763 H   0  0  0  0  0  0  0  0  0  0  0  0
  1  2  1  0  0  0  0
  1 27  1  0  0  0  0
  1 28  1  0  0  0  0
  1 29  1  0  0  0  0
  2  3  1  0  0  0  0
  2 30  1  0  0  0  0
  2 31  1  0  0  0  0
  3  4  1  0  0  0  0
  3 32  1  0  0  0  0
  3 33  1  0  0  0  0
  4  5  1  0  0  0  0
  4 34  1  0  0  0  0
  4 35  1  0  0  0  0
  5  6  1  0  0  0  0
  5 36  1  0  0  0  0
  5 37  1  0  0  0  0
  6  7  2  0  0  0  0
  6 38  1  0  0  0  0
  7  8  1  0  0  0  0
  7 39  1  0  0  0  0
  8  9  1  0  0  0  0
  8 40  1  0  0  0  0
  8 41  1  0  0  0  0
  9 10  2  0  0  0  0
  9 42  1  0  0  0  0
 10 11  1  0  0  0  0
 10 43  1  0  0  0  0
 11 12  1  0  0  0  0
 11 44  1  0  0  0  0
 11 45  1  0  0  0  0
 12 13  2  0  0  0  0
 12 46  1  0  0  0  0
 13 14  1  0  0  0  0
 13 47  1  0  0  0  0
 14 15  1  0  0  0  0
 14 48  1  0  0  0  0
 14 49  1  0  0  0  0
 15 16  2  0  0  0  0
 15 50  1  0  0  0  0
 16 17  1  0  0  0  0
 16 51  1  0  0  0  0
 17 18  1  0  0  0  0
 17 52  1  0  0  0  0
 17 53  1  0  0  0  0
 18 19  1  0  0  0  0
 18 54  1  0  0  0  0
 18 55  1  0  0  0  0
 19 20  1  0  0  0  0
 19 56  1  0  0  0  0
 19 57  1  0  0  0  0
 20 21  2  0  0  0  0
 20 22  1  0  0  0  0
 22 23  1  0  0  0  0
 22 58  1  0  0  0  0
 23 24  1  0  0  0  0
 23 25  1  0  0  0  0
 23 59  1  0  0  0  0
 24 60  1  0  0  0  0
 24 61  1  0  0  0  0
 24 62  1  0  0  0  0
 25 26  1  0  0  0  0
 25 63  1  0  0  0  0
 25 64  1  0  0  0  0
 26 65  1  0  0  0  0
M  END
$$$$
