CHEMBL384897_6PT0
 OpenBabel12022418113D

 56 59  0  0  0  0  0  0  0  0999 V2000
    1.0505   -1.2141   -0.8761 C   0  0  0  0  0  0  0  0  0  0  0  0
    2.2551   -0.5900   -0.5744 C   0  0  0  0  0  0  0  0  0  0  0  0
    2.2731    0.7707   -0.2744 C   0  0  0  0  0  0  0  0  0  0  0  0
    1.0949    1.5439   -0.3134 C   0  0  0  0  0  0  0  0  0  0  0  0
   -0.1508    0.9072   -0.6296 C   0  0  0  0  0  0  0  0  0  0  0  0
   -0.1501   -0.4919   -0.8905 C   0  0  0  0  0  0  0  0  0  0  0  0
   -1.3535   -1.1732   -1.1480 C   0  0  0  0  0  0  0  0  0  0  0  0
   -2.5729   -0.5020   -1.1630 C   0  0  0  0  0  0  0  0  0  0  0  0
   -2.6006    0.8655   -0.9445 C   0  0  0  0  0  0  0  0  0  0  0  0
   -1.4112    1.5564   -0.6954 C   0  0  0  0  0  0  0  0  0  0  0  0
    1.1511    2.9934    0.1186 C   0  0  0  0  0  0  0  0  0  0  0  0
    0.1776    3.4963    0.6700 O   0  0  0  0  0  0  0  0  0  0  0  0
    2.3853    3.7783    0.0087 C   0  0  0  0  0  0  0  0  0  0  0  0
    3.4218    3.6708   -0.8879 C   0  0  0  0  0  0  0  0  0  0  0  0
    4.4462    4.5097   -0.4844 N   0  0  0  0  0  0  0  0  0  0  0  0
    4.0977    5.1463    0.7090 C   0  0  0  0  0  0  0  0  0  0  0  0
    2.7394    4.8771    0.8471 C   0  0  0  0  0  0  0  0  0  0  0  0
    4.9891    5.8877    1.6469 C   0  0  0  0  0  0  0  0  0  0  0  0
    6.0126    6.7076    1.1280 C   0  0  0  0  0  0  0  0  0  0  0  0
    6.9763    7.3271    1.9320 C   0  0  0  0  0  0  0  0  0  0  0  0
    6.8978    7.2222    3.3060 C   0  0  0  0  0  0  0  0  0  0  0  0
    5.8510    6.5007    3.8612 C   0  0  0  0  0  0  0  0  0  0  0  0
    4.8983    5.8066    3.0622 C   0  0  0  0  0  0  0  0  0  0  0  0
    3.8592    5.0721    3.8898 C   0  0  0  0  0  0  0  0  0  0  0  0
    3.0935    4.1399    3.2750 F   0  0  0  0  0  0  0  0  0  0  0  0
    4.4391    4.3934    4.9298 F   0  0  0  0  0  0  0  0  0  0  0  0
    2.9908    5.9432    4.4860 F   0  0  0  0  0  0  0  0  0  0  0  0
    5.6763    4.5895   -1.2601 C   0  0  0  0  0  0  0  0  0  0  0  0
    6.8144    3.7261   -0.7228 C   0  0  0  0  0  0  0  0  0  0  0  0
    6.5274    2.2397   -0.9382 C   0  0  0  0  0  0  0  0  0  0  0  0
    7.6909    1.3596   -0.4993 C   0  0  0  0  0  0  0  0  0  0  0  0
    7.3619   -0.1059   -0.7335 C   0  0  0  0  0  0  0  0  0  0  0  0
    1.0526   -2.2840   -1.0808 H   0  0  0  0  0  0  0  0  0  0  0  0
    3.1729   -1.1712   -0.5444 H   0  0  0  0  0  0  0  0  0  0  0  0
    3.2227    1.2034    0.0281 H   0  0  0  0  0  0  0  0  0  0  0  0
   -1.3538   -2.2474   -1.3244 H   0  0  0  0  0  0  0  0  0  0  0  0
   -3.4962   -1.0451   -1.3444 H   0  0  0  0  0  0  0  0  0  0  0  0
   -3.5443    1.4049   -0.9542 H   0  0  0  0  0  0  0  0  0  0  0  0
   -1.4969    2.6286   -0.5348 H   0  0  0  0  0  0  0  0  0  0  0  0
    3.5450    3.0350   -1.7573 H   0  0  0  0  0  0  0  0  0  0  0  0
    2.0907    5.2762    1.6185 H   0  0  0  0  0  0  0  0  0  0  0  0
    6.0844    6.9106    0.0678 H   0  0  0  0  0  0  0  0  0  0  0  0
    7.7781    7.9011    1.4748 H   0  0  0  0  0  0  0  0  0  0  0  0
    7.6285    7.7116    3.9438 H   0  0  0  0  0  0  0  0  0  0  0  0
    5.7706    6.4620    4.9494 H   0  0  0  0  0  0  0  0  0  0  0  0
    5.9663    5.6341   -1.3555 H   0  0  0  0  0  0  0  0  0  0  0  0
    5.4355    4.2873   -2.2882 H   0  0  0  0  0  0  0  0  0  0  0  0
    6.9889    3.9233    0.3407 H   0  0  0  0  0  0  0  0  0  0  0  0
    7.7346    3.9948   -1.2560 H   0  0  0  0  0  0  0  0  0  0  0  0
    6.3144    2.0599   -1.9995 H   0  0  0  0  0  0  0  0  0  0  0  0
    5.6336    1.9498   -0.3753 H   0  0  0  0  0  0  0  0  0  0  0  0
    7.9014    1.5215    0.5639 H   0  0  0  0  0  0  0  0  0  0  0  0
    8.5953    1.6249   -1.0582 H   0  0  0  0  0  0  0  0  0  0  0  0
    6.4716   -0.4023   -0.1693 H   0  0  0  0  0  0  0  0  0  0  0  0
    8.1942   -0.7377   -0.4137 H   0  0  0  0  0  0  0  0  0  0  0  0
    7.1739   -0.3000   -1.7946 H   0  0  0  0  0  0  0  0  0  0  0  0
  1  6  2  0  0  0  0
  1  2  1  0  0  0  0
  1 33  1  0  0  0  0
  2  3  2  0  0  0  0
  2 34  1  0  0  0  0
  3  4  1  0  0  0  0
  3 35  1  0  0  0  0
  4  5  2  0  0  0  0
  4 11  1  0  0  0  0
  5 10  1  0  0  0  0
  5  6  1  0  0  0  0
  6  7  1  0  0  0  0
  7  8  2  0  0  0  0
  7 36  1  0  0  0  0
  8  9  1  0  0  0  0
  8 37  1  0  0  0  0
  9 10  2  0  0  0  0
  9 38  1  0  0  0  0
 10 39  1  0  0  0  0
 11 12  2  0  0  0  0
 11 13  1  0  0  0  0
 13 17  1  0  0  0  0
 13 14  2  0  0  0  0
 14 15  1  0  0  0  0
 14 40  1  0  0  0  0
 15 16  1  0  0  0  0
 15 28  1  0  0  0  0
 16 17  2  0  0  0  0
 16 18  1  0  0  0  0
 17 41  1  0  0  0  0
 18 23  2  0  0  0  0
 18 19  1  0  0  0  0
 19 20  2  0  0  0  0
 19 42  1  0  0  0  0
 20 21  1  0  0  0  0
 20 43  1  0  0  0  0
 21 22  2  0  0  0  0
 21 44  1  0  0  0  0
 22 23  1  0  0  0  0
 22 45  1  0  0  0  0
 23 24  1  0  0  0  0
 24 25  1  0  0  0  0
 24 26  1  0  0  0  0
 24 27  1  0  0  0  0
 28 29  1  0  0  0  0
 28 46  1  0  0  0  0
 28 47  1  0  0  0  0
 29 30  1  0  0  0  0
 29 48  1  0  0  0  0
 29 49  1  0  0  0  0
 30 31  1  0  0  0  0
 30 50  1  0  0  0  0
 30 51  1  0  0  0  0
 31 32  1  0  0  0  0
 31 52  1  0  0  0  0
 31 53  1  0  0  0  0
 32 54  1  0  0  0  0
 32 55  1  0  0  0  0
 32 56  1  0  0  0  0
M  END
$$$$
CHEMBL604120_5ZTY
 OpenBabel12022418113D

 53 57  0  0  1  0  0  0  0  0999 V2000
    2.6780   -5.5398   -1.7392 C   0  0  0  0  0  0  0  0  0  0  0  0
    2.7073   -4.0200   -1.7670 C   0  0  0  0  0  0  0  0  0  0  0  0
    3.4602   -3.4129   -0.6214 C   0  0  0  0  0  0  0  0  0  0  0  0
    4.0352   -4.1202    0.3434 N   0  0  0  0  0  0  0  0  0  0  0  0
    4.5490   -3.2117    1.2404 C   0  0  0  0  0  0  0  0  0  0  0  0
    5.3056   -3.5594    2.4505 C   0  0  0  0  0  0  0  0  0  0  0  0
    5.8280   -2.6926    3.1452 O   0  0  0  0  0  0  0  0  0  0  0  0
    5.3516   -4.9136    2.7431 N   0  0  0  0  0  0  0  0  0  0  0  0
    5.9663   -5.4742    3.9579 C   0  0  1  0  0  0  0  0  0  0  0  0
    7.4860   -5.1648    4.0204 C   0  0  0  0  0  0  0  0  0  0  0  0
    8.1116   -5.7250    5.3102 C   0  0  2  0  0  0  0  0  0  0  0  0
    7.9447   -7.2520    5.3334 C   0  0  0  0  0  0  0  0  0  0  0  0
    6.4520   -7.6130    5.2753 C   0  0  1  0  0  0  0  0  0  0  0  0
    5.7600   -7.0196    6.5129 C   0  0  0  0  0  0  0  0  0  0  0  0
    5.9037   -5.4913    6.5053 C   0  0  1  0  0  0  0  0  0  0  0  0
    7.3952   -5.1133    6.5256 C   0  0  0  0  0  0  0  0  0  0  0  0
    5.2621   -4.9278    5.2282 C   0  0  0  0  0  0  0  0  0  0  0  0
    5.8219   -7.0241    3.9905 C   0  0  0  0  0  0  0  0  0  0  0  0
    4.2448   -1.9320    0.8209 C   0  0  0  0  0  0  0  0  0  0  0  0
    3.5556   -2.0378   -0.3701 N   0  0  0  0  0  0  0  0  0  0  0  0
    3.0672   -0.9223   -1.1277 C   0  0  0  0  0  0  0  0  0  0  0  0
    2.9226   -0.9792   -2.5191 C   0  0  0  0  0  0  0  0  0  0  0  0
    2.4483    0.1237   -3.2388 C   0  0  0  0  0  0  0  0  0  0  0  0
    2.1195    1.3037   -2.5808 C   0  0  0  0  0  0  0  0  0  0  0  0
    2.2707    1.3815   -1.1976 C   0  0  0  0  0  0  0  0  0  0  0  0
    2.7458    0.2795   -0.4746 C   0  0  0  0  0  0  0  0  0  0  0  0
    2.1038   -5.9165   -2.5896 H   0  0  0  0  0  0  0  0  0  0  0  0
    2.2229   -5.9205   -0.8188 H   0  0  0  0  0  0  0  0  0  0  0  0
    3.6934   -5.9469   -1.8133 H   0  0  0  0  0  0  0  0  0  0  0  0
    1.6787   -3.6410   -1.7738 H   0  0  0  0  0  0  0  0  0  0  0  0
    3.1875   -3.7515   -2.7098 H   0  0  0  0  0  0  0  0  0  0  0  0
    4.8264   -5.5093    2.1093 H   0  0  0  0  0  0  0  0  0  0  0  0
    7.6749   -4.0871    3.9778 H   0  0  0  0  0  0  0  0  0  0  0  0
    7.9908   -5.5981    3.1466 H   0  0  0  0  0  0  0  0  0  0  0  0
    9.1772   -5.4709    5.3430 H   0  0  0  0  0  0  0  0  0  0  0  0
    8.3978   -7.6651    6.2444 H   0  0  0  0  0  0  0  0  0  0  0  0
    8.4737   -7.7010    4.4843 H   0  0  0  0  0  0  0  0  0  0  0  0
    6.3394   -8.7030    5.2792 H   0  0  0  0  0  0  0  0  0  0  0  0
    6.2059   -7.4316    7.4284 H   0  0  0  0  0  0  0  0  0  0  0  0
    4.6994   -7.3004    6.5228 H   0  0  0  0  0  0  0  0  0  0  0  0
    5.4054   -5.0687    7.3847 H   0  0  0  0  0  0  0  0  0  0  0  0
    7.5059   -4.0214    6.5139 H   0  0  0  0  0  0  0  0  0  0  0  0
    7.8594   -5.4701    7.4532 H   0  0  0  0  0  0  0  0  0  0  0  0
    4.1953   -5.1894    5.2028 H   0  0  0  0  0  0  0  0  0  0  0  0
    5.3063   -3.8345    5.2652 H   0  0  0  0  0  0  0  0  0  0  0  0
    6.3018   -7.4699    3.1093 H   0  0  0  0  0  0  0  0  0  0  0  0
    4.7626   -7.3085    3.9407 H   0  0  0  0  0  0  0  0  0  0  0  0
    4.5165   -0.9798    1.2537 H   0  0  0  0  0  0  0  0  0  0  0  0
    3.2293   -1.8353   -3.1030 H   0  0  0  0  0  0  0  0  0  0  0  0
    2.3541    0.0630   -4.3208 H   0  0  0  0  0  0  0  0  0  0  0  0
    1.7577    2.1591   -3.1426 H   0  0  0  0  0  0  0  0  0  0  0  0
    2.0089    2.3021   -0.6802 H   0  0  0  0  0  0  0  0  0  0  0  0
    2.8167    0.3804    0.6062 H   0  0  0  0  0  0  0  0  0  0  0  0
  1  2  1  0  0  0  0
  1 27  1  0  0  0  0
  1 28  1  0  0  0  0
  1 29  1  0  0  0  0
  2  3  1  0  0  0  0
  2 30  1  0  0  0  0
  2 31  1  0  0  0  0
  3 20  1  0  0  0  0
  3  4  2  0  0  0  0
  4  5  1  0  0  0  0
  5  6  1  0  0  0  0
  5 19  2  0  0  0  0
  6  7  2  0  0  0  0
  6  8  1  0  0  0  0
  8 32  1  0  0  0  0
  9  8  1  6  0  0  0
  9 17  1  0  0  0  0
  9 18  1  0  0  0  0
  9 10  1  0  0  0  0
 10 33  1  0  0  0  0
 10 34  1  0  0  0  0
 11 10  1  0  0  0  0
 11 12  1  0  0  0  0
 11 16  1  0  0  0  0
 11 35  1  1  0  0  0
 12 36  1  0  0  0  0
 12 37  1  0  0  0  0
 13 12  1  0  0  0  0
 13 14  1  0  0  0  0
 13 18  1  0  0  0  0
 13 38  1  1  0  0  0
 14 39  1  0  0  0  0
 14 40  1  0  0  0  0
 15 14  1  0  0  0  0
 15 16  1  0  0  0  0
 15 17  1  0  0  0  0
 15 41  1  1  0  0  0
 16 42  1  0  0  0  0
 16 43  1  0  0  0  0
 17 44  1  0  0  0  0
 17 45  1  0  0  0  0
 18 46  1  0  0  0  0
 18 47  1  0  0  0  0
 19 20  1  0  0  0  0
 19 48  1  0  0  0  0
 20 21  1  0  0  0  0
 21 26  2  0  0  0  0
 21 22  1  0  0  0  0
 22 23  2  0  0  0  0
 22 49  1  0  0  0  0
 23 24  1  0  0  0  0
 23 50  1  0  0  0  0
 24 25  2  0  0  0  0
 24 51  1  0  0  0  0
 25 26  1  0  0  0  0
 25 52  1  0  0  0  0
 26 53  1  0  0  0  0
M  END
$$$$
CHEMBL220352_6PT0
 OpenBabel12022418113D

 59 62  0  0  0  0  0  0  0  0999 V2000
    1.2118   -1.2971    0.1347 C   0  0  0  0  0  0  0  0  0  0  0  0
    2.3898   -0.5780    0.2884 C   0  0  0  0  0  0  0  0  0  0  0  0
    2.3581    0.8145    0.2508 C   0  0  0  0  0  0  0  0  0  0  0  0
    1.1561    1.5085    0.0225 C   0  0  0  0  0  0  0  0  0  0  0  0
   -0.0637    0.7733   -0.1498 C   0  0  0  0  0  0  0  0  0  0  0  0
   -0.0102   -0.6453   -0.0703 C   0  0  0  0  0  0  0  0  0  0  0  0
   -1.1838   -1.4112   -0.1706 C   0  0  0  0  0  0  0  0  0  0  0  0
   -2.4248   -0.8105   -0.3623 C   0  0  0  0  0  0  0  0  0  0  0  0
   -2.5032    0.5663   -0.4818 C   0  0  0  0  0  0  0  0  0  0  0  0
   -1.3431    1.3395   -0.3897 C   0  0  0  0  0  0  0  0  0  0  0  0
    1.1610    3.0169    0.1229 C   0  0  0  0  0  0  0  0  0  0  0  0
    0.1354    3.6176    0.4246 O   0  0  0  0  0  0  0  0  0  0  0  0
    2.4109    3.7711    0.0299 C   0  0  0  0  0  0  0  0  0  0  0  0
    3.4763    3.6372   -0.8414 C   0  0  0  0  0  0  0  0  0  0  0  0
    4.4557    4.5397   -0.4738 N   0  0  0  0  0  0  0  0  0  0  0  0
    4.0806    5.1812    0.7033 C   0  0  0  0  0  0  0  0  0  0  0  0
    2.7535    4.8394    0.9027 C   0  0  0  0  0  0  0  0  0  0  0  0
    4.9746    5.9248    1.6199 C   0  0  0  0  0  0  0  0  0  0  0  0
    6.2437    5.3562    1.8672 C   0  0  0  0  0  0  0  0  0  0  0  0
    7.1555    5.9319    2.7447 C   0  0  0  0  0  0  0  0  0  0  0  0
    6.7960    7.0677    3.4463 C   0  0  0  0  0  0  0  0  0  0  0  0
    5.5303    7.6268    3.2626 C   0  0  0  0  0  0  0  0  0  0  0  0
    4.6015    7.0871    2.3426 C   0  0  0  0  0  0  0  0  0  0  0  0
    3.2183    7.7115    2.2443 C   0  0  0  0  0  0  0  0  0  0  0  0
    3.1074    9.1995    2.5795 C   0  0  0  0  0  0  0  0  0  0  0  0
    5.7179    4.6908   -1.1869 C   0  0  0  0  0  0  0  0  0  0  0  0
    5.6000    5.0775   -2.6593 C   0  0  0  0  0  0  0  0  0  0  0  0
    4.9278    6.4379   -2.8492 C   0  0  0  0  0  0  0  0  0  0  0  0
    4.8929    6.8272   -4.3247 C   0  0  0  0  0  0  0  0  0  0  0  0
    4.1867    8.1569   -4.5262 C   0  0  0  0  0  0  0  0  0  0  0  0
    1.2520   -2.3834    0.1963 H   0  0  0  0  0  0  0  0  0  0  0  0
    3.3259   -1.1012    0.4685 H   0  0  0  0  0  0  0  0  0  0  0  0
    3.2927    1.3346    0.4473 H   0  0  0  0  0  0  0  0  0  0  0  0
   -1.1431   -2.4954   -0.0827 H   0  0  0  0  0  0  0  0  0  0  0  0
   -3.3245   -1.4165   -0.4189 H   0  0  0  0  0  0  0  0  0  0  0  0
   -3.4633    1.0517   -0.6367 H   0  0  0  0  0  0  0  0  0  0  0  0
   -1.4706    2.4144   -0.5004 H   0  0  0  0  0  0  0  0  0  0  0  0
    3.6305    2.9654   -1.6755 H   0  0  0  0  0  0  0  0  0  0  0  0
    2.1226    5.1886    1.7095 H   0  0  0  0  0  0  0  0  0  0  0  0
    6.5311    4.4261    1.3839 H   0  0  0  0  0  0  0  0  0  0  0  0
    8.1296    5.4746    2.8927 H   0  0  0  0  0  0  0  0  0  0  0  0
    7.4882    7.5082    4.1587 H   0  0  0  0  0  0  0  0  0  0  0  0
    5.2778    8.4890    3.8748 H   0  0  0  0  0  0  0  0  0  0  0  0
    2.5546    7.1630    2.9243 H   0  0  0  0  0  0  0  0  0  0  0  0
    2.8328    7.5950    1.2264 H   0  0  0  0  0  0  0  0  0  0  0  0
    3.3444    9.4047    3.6285 H   0  0  0  0  0  0  0  0  0  0  0  0
    2.0813    9.5455    2.4150 H   0  0  0  0  0  0  0  0  0  0  0  0
    3.7743    9.7976    1.9504 H   0  0  0  0  0  0  0  0  0  0  0  0
    6.2458    3.7345   -1.0888 H   0  0  0  0  0  0  0  0  0  0  0  0
    6.3195    5.4579   -0.6942 H   0  0  0  0  0  0  0  0  0  0  0  0
    5.0553    4.3075   -3.2181 H   0  0  0  0  0  0  0  0  0  0  0  0
    6.6127    5.1160   -3.0824 H   0  0  0  0  0  0  0  0  0  0  0  0
    5.4742    7.2015   -2.2797 H   0  0  0  0  0  0  0  0  0  0  0  0
    3.9075    6.4087   -2.4540 H   0  0  0  0  0  0  0  0  0  0  0  0
    4.3741    6.0518   -4.9000 H   0  0  0  0  0  0  0  0  0  0  0  0
    5.9141    6.8955   -4.7172 H   0  0  0  0  0  0  0  0  0  0  0  0
    3.1554    8.1103   -4.1620 H   0  0  0  0  0  0  0  0  0  0  0  0
    4.1617    8.4138   -5.5892 H   0  0  0  0  0  0  0  0  0  0  0  0
    4.7041    8.9601   -3.9920 H   0  0  0  0  0  0  0  0  0  0  0  0
  1  6  2  0  0  0  0
  1  2  1  0  0  0  0
  1 31  1  0  0  0  0
  2  3  2  0  0  0  0
  2 32  1  0  0  0  0
  3  4  1  0  0  0  0
  3 33  1  0  0  0  0
  4  5  2  0  0  0  0
  4 11  1  0  0  0  0
  5 10  1  0  0  0  0
  5  6  1  0  0  0  0
  6  7  1  0  0  0  0
  7  8  2  0  0  0  0
  7 34  1  0  0  0  0
  8  9  1  0  0  0  0
  8 35  1  0  0  0  0
  9 10  2  0  0  0  0
  9 36  1  0  0  0  0
 10 37  1  0  0  0  0
 11 12  2  0  0  0  0
 11 13  1  0  0  0  0
 13 17  1  0  0  0  0
 13 14  2  0  0  0  0
 14 15  1  0  0  0  0
 14 38  1  0  0  0  0
 15 16  1  0  0  0  0
 15 26  1  0  0  0  0
 16 17  2  0  0  0  0
 16 18  1  0  0  0  0
 17 39  1  0  0  0  0
 18 23  2  0  0  0  0
 18 19  1  0  0  0  0
 19 20  2  0  0  0  0
 19 40  1  0  0  0  0
 20 21  1  0  0  0  0
 20 41  1  0  0  0  0
 21 22  2  0  0  0  0
 21 42  1  0  0  0  0
 22 23  1  0  0  0  0
 22 43  1  0  0  0  0
 23 24  1  0  0  0  0
 24 25  1  0  0  0  0
 24 44  1  0  0  0  0
 24 45  1  0  0  0  0
 25 46  1  0  0  0  0
 25 47  1  0  0  0  0
 25 48  1  0  0  0  0
 26 27  1  0  0  0  0
 26 49  1  0  0  0  0
 26 50  1  0  0  0  0
 27 28  1  0  0  0  0
 27 51  1  0  0  0  0
 27 52  1  0  0  0  0
 28 29  1  0  0  0  0
 28 53  1  0  0  0  0
 28 54  1  0  0  0  0
 29 30  1  0  0  0  0
 29 55  1  0  0  0  0
 29 56  1  0  0  0  0
 30 57  1  0  0  0  0
 30 58  1  0  0  0  0
 30 59  1  0  0  0  0
M  END
$$$$
CHEMBL385994_6PT0
 OpenBabel12022418113D

 57 60  0  0  0  0  0  0  0  0999 V2000
    0.9247   -1.0710   -1.4172 C   0  0  0  0  0  0  0  0  0  0  0  0
    2.1565   -0.5426   -1.0489 C   0  0  0  0  0  0  0  0  0  0  0  0
    2.2297    0.7546   -0.5518 C   0  0  0  0  0  0  0  0  0  0  0  0
    1.0779    1.5596   -0.4555 C   0  0  0  0  0  0  0  0  0  0  0  0
   -0.1895    1.0306   -0.8472 C   0  0  0  0  0  0  0  0  0  0  0  0
   -0.2486   -0.3110   -1.3114 C   0  0  0  0  0  0  0  0  0  0  0  0
   -1.4804   -0.8951   -1.6540 C   0  0  0  0  0  0  0  0  0  0  0  0
   -2.6695   -0.1773   -1.5647 C   0  0  0  0  0  0  0  0  0  0  0  0
   -2.6390    1.1432   -1.1469 C   0  0  0  0  0  0  0  0  0  0  0  0
   -1.4223    1.7380   -0.8042 C   0  0  0  0  0  0  0  0  0  0  0  0
    1.1970    2.9091    0.2013 C   0  0  0  0  0  0  0  0  0  0  0  0
    0.2716    3.3270    0.8939 O   0  0  0  0  0  0  0  0  0  0  0  0
    2.4403    3.6762    0.1258 C   0  0  0  0  0  0  0  0  0  0  0  0
    3.4054    3.6907   -0.8582 C   0  0  0  0  0  0  0  0  0  0  0  0
    4.4503    4.4961   -0.4576 N   0  0  0  0  0  0  0  0  0  0  0  0
    4.1595    5.0638    0.7798 C   0  0  0  0  0  0  0  0  0  0  0  0
    2.8888    4.6018    1.1054 C   0  0  0  0  0  0  0  0  0  0  0  0
    5.0540    5.8851    1.6295 C   0  0  0  0  0  0  0  0  0  0  0  0
    6.0417    6.7408    1.1283 C   0  0  0  0  0  0  0  0  0  0  0  0
    6.9197    7.4136    1.9823 C   0  0  0  0  0  0  0  0  0  0  0  0
    6.7848    7.2854    3.3604 C   0  0  0  0  0  0  0  0  0  0  0  0
    5.7699    6.4953    3.8930 C   0  0  0  0  0  0  0  0  0  0  0  0
    4.9210    5.7978    3.0286 C   0  0  0  0  0  0  0  0  0  0  0  0
    5.7142    6.4705    5.2598 O   0  0  0  0  0  0  0  0  0  0  0  0
    4.6469    5.7276    5.8382 C   0  0  0  0  0  0  0  0  0  0  0  0
    5.6883    4.6804   -1.2023 C   0  0  0  0  0  0  0  0  0  0  0  0
    5.8559    3.8641   -2.4803 C   0  0  0  0  0  0  0  0  0  0  0  0
    7.1945    4.1729   -3.1496 C   0  0  0  0  0  0  0  0  0  0  0  0
    7.3246    3.3898   -4.4537 C   0  0  0  0  0  0  0  0  0  0  0  0
    8.6455    3.6662   -5.1448 C   0  0  0  0  0  0  0  0  0  0  0  0
    0.8847   -2.0979   -1.7762 H   0  0  0  0  0  0  0  0  0  0  0  0
    3.0540   -1.1519   -1.1215 H   0  0  0  0  0  0  0  0  0  0  0  0
    3.1979    1.1103   -0.2090 H   0  0  0  0  0  0  0  0  0  0  0  0
   -1.5249   -1.9319   -1.9843 H   0  0  0  0  0  0  0  0  0  0  0  0
   -3.6157   -0.6502   -1.8199 H   0  0  0  0  0  0  0  0  0  0  0  0
   -3.5592    1.7183   -1.0782 H   0  0  0  0  0  0  0  0  0  0  0  0
   -1.4559    2.7799   -0.4876 H   0  0  0  0  0  0  0  0  0  0  0  0
    3.4367    3.1615   -1.8011 H   0  0  0  0  0  0  0  0  0  0  0  0
    2.3426    4.8443    2.0097 H   0  0  0  0  0  0  0  0  0  0  0  0
    6.1582    6.9226    0.0687 H   0  0  0  0  0  0  0  0  0  0  0  0
    7.7053    8.0404    1.5685 H   0  0  0  0  0  0  0  0  0  0  0  0
    7.4660    7.8125    4.0228 H   0  0  0  0  0  0  0  0  0  0  0  0
    4.1448    5.1583    3.4346 H   0  0  0  0  0  0  0  0  0  0  0  0
    4.7398    5.8056    6.9267 H   0  0  0  0  0  0  0  0  0  0  0  0
    4.7142    4.6674    5.5726 H   0  0  0  0  0  0  0  0  0  0  0  0
    3.6755    6.1465    5.5550 H   0  0  0  0  0  0  0  0  0  0  0  0
    6.5107    4.4567   -0.5137 H   0  0  0  0  0  0  0  0  0  0  0  0
    5.7139    5.7357   -1.4872 H   0  0  0  0  0  0  0  0  0  0  0  0
    5.0449    4.1064   -3.1777 H   0  0  0  0  0  0  0  0  0  0  0  0
    5.7916    2.7927   -2.2572 H   0  0  0  0  0  0  0  0  0  0  0  0
    8.0171    3.9139   -2.4720 H   0  0  0  0  0  0  0  0  0  0  0  0
    7.2704    5.2483   -3.3534 H   0  0  0  0  0  0  0  0  0  0  0  0
    6.5003    3.6578   -5.1257 H   0  0  0  0  0  0  0  0  0  0  0  0
    7.2383    2.3163   -4.2470 H   0  0  0  0  0  0  0  0  0  0  0  0
    8.7423    4.7272   -5.3946 H   0  0  0  0  0  0  0  0  0  0  0  0
    8.7107    3.0897   -6.0726 H   0  0  0  0  0  0  0  0  0  0  0  0
    9.4881    3.3830   -4.5066 H   0  0  0  0  0  0  0  0  0  0  0  0
  1  6  2  0  0  0  0
  1  2  1  0  0  0  0
  1 31  1  0  0  0  0
  2  3  2  0  0  0  0
  2 32  1  0  0  0  0
  3  4  1  0  0  0  0
  3 33  1  0  0  0  0
  4  5  2  0  0  0  0
  4 11  1  0  0  0  0
  5 10  1  0  0  0  0
  5  6  1  0  0  0  0
  6  7  1  0  0  0  0
  7  8  2  0  0  0  0
  7 34  1  0  0  0  0
  8  9  1  0  0  0  0
  8 35  1  0  0  0  0
  9 10  2  0  0  0  0
  9 36  1  0  0  0  0
 10 37  1  0  0  0  0
 11 12  2  0  0  0  0
 11 13  1  0  0  0  0
 13 17  1  0  0  0  0
 13 14  2  0  0  0  0
 14 15  1  0  0  0  0
 14 38  1  0  0  0  0
 15 16  1  0  0  0  0
 15 26  1  0  0  0  0
 16 17  2  0  0  0  0
 16 18  1  0  0  0  0
 17 39  1  0  0  0  0
 18 23  2  0  0  0  0
 18 19  1  0  0  0  0
 19 20  2  0  0  0  0
 19 40  1  0  0  0  0
 20 21  1  0  0  0  0
 20 41  1  0  0  0  0
 21 22  2  0  0  0  0
 21 42  1  0  0  0  0
 22 23  1  0  0  0  0
 22 24  1  0  0  0  0
 23 43  1  0  0  0  0
 24 25  1  0  0  0  0
 25 44  1  0  0  0  0
 25 45  1  0  0  0  0
 25 46  1  0  0  0  0
 26 27  1  0  0  0  0
 26 47  1  0  0  0  0
 26 48  1  0  0  0  0
 27 28  1  0  0  0  0
 27 49  1  0  0  0  0
 27 50  1  0  0  0  0
 28 29  1  0  0  0  0
 28 51  1  0  0  0  0
 28 52  1  0  0  0  0
 29 30  1  0  0  0  0
 29 53  1  0  0  0  0
 29 54  1  0  0  0  0
 30 55  1  0  0  0  0
 30 56  1  0  0  0  0
 30 57  1  0  0  0  0
M  END
$$$$
CHEMBL2163952_6PT0
 OpenBabel12022418113D

 67 73  0  0  1  0  0  0  0  0999 V2000
    0.7799   -0.1246   -0.3323 C   0  0  0  0  0  0  0  0  0  0  0  0
    2.3044   -0.0391   -0.2167 C   0  0  2  0  0  0  0  0  0  0  0  0
    2.7072    0.8550    0.9767 C   0  0  0  0  0  0  0  0  0  0  0  0
    4.2376    0.9435    1.0959 C   0  0  2  0  0  0  0  0  0  0  0  0
    4.8244    1.5102   -0.2024 C   0  0  0  0  0  0  0  0  0  0  0  0
    4.4591    0.6021   -1.3980 C   0  0  2  0  0  0  0  0  0  0  0  0
    5.0420    1.1843   -2.6894 C   0  0  0  0  0  0  0  0  0  0  0  0
    2.9179    0.5339   -1.5092 C   0  0  0  0  0  0  0  0  0  0  0  0
    5.0102   -0.8265   -1.1306 C   0  0  0  0  0  0  0  0  0  0  0  0
    4.4141   -1.4083    0.1825 C   0  0  1  0  0  0  0  0  0  0  0  0
    4.8053   -0.4567    1.3352 C   0  0  0  0  0  0  0  0  0  0  0  0
    2.8763   -1.4484    0.0099 C   0  0  0  0  0  0  0  0  0  0  0  0
    4.9282   -2.7492    0.4478 N   0  0  0  0  0  0  0  0  0  0  0  0
    4.5329   -3.4953    1.5374 C   0  0  0  0  0  0  0  0  0  0  0  0
    3.7597   -3.0967    2.4013 O   0  0  0  0  0  0  0  0  0  0  0  0
    5.1167   -4.8505    1.6331 C   0  0  0  0  0  0  0  0  0  0  0  0
    4.7376   -5.6187    2.6643 C   0  0  0  0  0  0  0  0  0  0  0  0
    5.1934   -6.8974    2.9441 N   0  0  0  0  0  0  0  0  0  0  0  0
    6.1654   -7.4678    2.1105 C   0  0  0  0  0  0  0  0  0  0  0  0
    6.7044   -8.7287    2.3499 C   0  0  0  0  0  0  0  0  0  0  0  0
    7.6830   -9.2638    1.5017 C   0  0  0  0  0  0  0  0  0  0  0  0
    8.1453   -8.5458    0.4029 C   0  0  0  0  0  0  0  0  0  0  0  0
    7.6279   -7.2837    0.1439 C   0  0  0  0  0  0  0  0  0  0  0  0
    6.6409   -6.7586    0.9865 C   0  0  0  0  0  0  0  0  0  0  0  0
    6.0831   -5.4199    0.6696 C   0  0  0  0  0  0  0  0  0  0  0  0
    6.4155   -4.8185   -0.3394 O   0  0  0  0  0  0  0  0  0  0  0  0
    6.3742   -9.5227    3.4032 O   0  0  0  0  0  0  0  0  0  0  0  0
    5.2833   -9.1115    4.2191 C   0  0  0  0  0  0  0  0  0  0  0  0
    4.7544   -7.6715    4.1217 C   0  0  1  0  0  0  0  0  0  0  0  0
    5.0684   -6.9122    5.4050 C   0  0  0  0  0  0  0  0  0  0  0  0
    6.3810   -6.5046    5.6858 C   0  0  0  0  0  0  0  0  0  0  0  0
    6.6350   -5.6580    6.7605 C   0  0  0  0  0  0  0  0  0  0  0  0
    5.6012   -5.2951    7.6221 C   0  0  0  0  0  0  0  0  0  0  0  0
    4.3098   -5.7720    7.4070 C   0  0  0  0  0  0  0  0  0  0  0  0
    4.0378   -6.5654    6.2936 C   0  0  0  0  0  0  0  0  0  0  0  0
    0.4844   -0.7666   -1.1688 H   0  0  0  0  0  0  0  0  0  0  0  0
    0.3376    0.8641   -0.4919 H   0  0  0  0  0  0  0  0  0  0  0  0
    0.3406   -0.5459    0.5792 H   0  0  0  0  0  0  0  0  0  0  0  0
    2.2907    0.4524    1.9094 H   0  0  0  0  0  0  0  0  0  0  0  0
    2.2909    1.8620    0.8537 H   0  0  0  0  0  0  0  0  0  0  0  0
    4.5060    1.5927    1.9368 H   0  0  0  0  0  0  0  0  0  0  0  0
    5.9147    1.5960   -0.1095 H   0  0  0  0  0  0  0  0  0  0  0  0
    4.4415    2.5262   -0.3630 H   0  0  0  0  0  0  0  0  0  0  0  0
    4.6509    2.1916   -2.8759 H   0  0  0  0  0  0  0  0  0  0  0  0
    4.7854    0.5642   -3.5549 H   0  0  0  0  0  0  0  0  0  0  0  0
    6.1334    1.2565   -2.6367 H   0  0  0  0  0  0  0  0  0  0  0  0
    2.5090    1.5349   -1.7018 H   0  0  0  0  0  0  0  0  0  0  0  0
    2.6337   -0.0894   -2.3678 H   0  0  0  0  0  0  0  0  0  0  0  0
    6.1068   -0.7991   -1.0663 H   0  0  0  0  0  0  0  0  0  0  0  0
    4.7729   -1.4847   -1.9780 H   0  0  0  0  0  0  0  0  0  0  0  0
    4.4389   -0.8252    2.2993 H   0  0  0  0  0  0  0  0  0  0  0  0
    5.8995   -0.4130    1.4278 H   0  0  0  0  0  0  0  0  0  0  0  0
    2.6161   -2.1072   -0.8315 H   0  0  0  0  0  0  0  0  0  0  0  0
    2.3873   -1.8833    0.8876 H   0  0  0  0  0  0  0  0  0  0  0  0
    5.6856   -3.1140   -0.1290 H   0  0  0  0  0  0  0  0  0  0  0  0
    4.0224   -5.2378    3.3963 H   0  0  0  0  0  0  0  0  0  0  0  0
    8.0866  -10.2525    1.7080 H   0  0  0  0  0  0  0  0  0  0  0  0
    8.9066   -8.9689   -0.2476 H   0  0  0  0  0  0  0  0  0  0  0  0
    7.9893   -6.7109   -0.7071 H   0  0  0  0  0  0  0  0  0  0  0  0
    5.5951   -9.3271    5.2481 H   0  0  0  0  0  0  0  0  0  0  0  0
    4.4562   -9.8056    4.0300 H   0  0  0  0  0  0  0  0  0  0  0  0
    3.6585   -7.7434    4.0479 H   0  0  0  0  0  0  0  0  0  0  0  0
    7.2004   -6.8066    5.0383 H   0  0  0  0  0  0  0  0  0  0  0  0
    7.6376   -5.2702    6.9143 H   0  0  0  0  0  0  0  0  0  0  0  0
    5.8056   -4.6369    8.4617 H   0  0  0  0  0  0  0  0  0  0  0  0
    3.5090   -5.5007    8.0910 H   0  0  0  0  0  0  0  0  0  0  0  0
    3.0118   -6.8779    6.1061 H   0  0  0  0  0  0  0  0  0  0  0  0
  1 36  1  0  0  0  0
  1 37  1  0  0  0  0
  1 38  1  0  0  0  0
  2  1  1  6  0  0  0
  2  8  1  0  0  0  0
  2 12  1  0  0  0  0
  2  3  1  0  0  0  0
  3 39  1  0  0  0  0
  3 40  1  0  0  0  0
  4  3  1  0  0  0  0
  4  5  1  0  0  0  0
  4 11  1  0  0  0  0
  4 41  1  1  0  0  0
  5  6  1  0  0  0  0
  5 42  1  0  0  0  0
  5 43  1  0  0  0  0
  6  7  1  6  0  0  0
  6  8  1  0  0  0  0
  6  9  1  0  0  0  0
  7 44  1  0  0  0  0
  7 45  1  0  0  0  0
  7 46  1  0  0  0  0
  8 47  1  0  0  0  0
  8 48  1  0  0  0  0
  9 10  1  0  0  0  0
  9 49  1  0  0  0  0
  9 50  1  0  0  0  0
 10 11  1  0  0  0  0
 10 12  1  0  0  0  0
 10 13  1  1  0  0  0
 11 51  1  0  0  0  0
 11 52  1  0  0  0  0
 12 53  1  0  0  0  0
 12 54  1  0  0  0  0
 13 14  1  0  0  0  0
 13 55  1  0  0  0  0
 14 15  2  0  0  0  0
 14 16  1  0  0  0  0
 16 25  1  0  0  0  0
 16 17  2  0  0  0  0
 17 18  1  0  0  0  0
 17 56  1  0  0  0  0
 18 29  1  0  0  0  0
 18 19  1  0  0  0  0
 19 24  2  0  0  0  0
 19 20  1  0  0  0  0
 20 21  2  0  0  0  0
 20 27  1  0  0  0  0
 21 22  1  0  0  0  0
 21 57  1  0  0  0  0
 22 23  2  0  0  0  0
 22 58  1  0  0  0  0
 23 24  1  0  0  0  0
 23 59  1  0  0  0  0
 24 25  1  0  0  0  0
 25 26  2  0  0  0  0
 27 28  1  0  0  0  0
 28 29  1  0  0  0  0
 28 60  1  0  0  0  0
 28 61  1  0  0  0  0
 29 30  1  0  0  0  0
 29 62  1  6  0  0  0
 30 35  2  0  0  0  0
 30 31  1  0  0  0  0
 31 32  2  0  0  0  0
 31 63  1  0  0  0  0
 32 33  1  0  0  0  0
 32 64  1  0  0  0  0
 33 34  2  0  0  0  0
 33 65  1  0  0  0  0
 34 35  1  0  0  0  0
 34 66  1  0  0  0  0
 35 67  1  0  0  0  0
M  END
$$$$
CHEMBL2163931_6PT0
 OpenBabel12022418113D

 54 56  0  0  1  0  0  0  0  0999 V2000
    2.2964    0.2431   -1.6341 C   0  0  0  0  0  0  0  0  0  0  0  0
    2.3773    0.0346   -0.1251 C   0  0  0  0  0  0  0  0  0  0  0  0
    3.0805    1.1749    0.6573 C   0  0  2  0  0  0  0  0  0  0  0  0
    2.2609    2.4817    0.5613 C   0  0  0  0  0  0  0  0  0  0  0  0
    2.8944    3.7028    0.2081 O   0  0  0  0  0  0  0  0  0  0  0  0
    4.1371    3.6158   -0.3384 C   0  0  0  0  0  0  0  0  0  0  0  0
    4.6005    4.7977   -0.9329 C   0  0  0  0  0  0  0  0  0  0  0  0
    5.8878    4.8734   -1.4584 C   0  0  0  0  0  0  0  0  0  0  0  0
    6.7233    3.7689   -1.3692 C   0  0  0  0  0  0  0  0  0  0  0  0
    6.2515    2.5875   -0.7804 C   0  0  0  0  0  0  0  0  0  0  0  0
    7.1651    1.4273   -0.6894 C   0  0  0  0  0  0  0  0  0  0  0  0
    8.3167    1.5100   -1.1194 O   0  0  0  0  0  0  0  0  0  0  0  0
    6.6599    0.1812   -0.0698 C   0  0  0  0  0  0  0  0  0  0  0  0
    7.4551   -1.0776    0.0438 C   0  0  0  0  0  0  0  0  0  0  0  0
    6.9745   -2.0992    0.5312 O   0  0  0  0  0  0  0  0  0  0  0  0
    8.7363   -1.0120   -0.4454 N   0  0  0  0  0  0  0  0  0  0  0  0
    9.6524   -2.1436   -0.4562 C   0  0  1  0  0  0  0  0  0  0  0  0
    9.5044   -2.9318   -1.7584 C   0  0  0  0  0  0  0  0  0  0  0  0
   11.1075   -1.6720   -0.2778 C   0  0  0  0  0  0  0  0  0  0  0  0
   11.3150   -0.9294    1.0494 C   0  0  0  0  0  0  0  0  0  0  0  0
   12.7638   -0.4674    1.2907 C   0  0  0  0  0  0  0  0  0  0  0  0
   13.2613    0.4940    0.2094 C   0  0  0  0  0  0  0  0  0  0  0  0
   12.8608    0.2091    2.6614 C   0  0  0  0  0  0  0  0  0  0  0  0
    5.3952    0.2077    0.3845 C   0  0  0  0  0  0  0  0  0  0  0  0
    4.5045    1.2715    0.2881 N   0  0  0  0  0  0  0  0  0  0  0  0
    4.9413    2.4803   -0.2744 C   0  0  0  0  0  0  0  0  0  0  0  0
    1.7070   -0.5625   -2.0846 H   0  0  0  0  0  0  0  0  0  0  0  0
    3.2888    0.2273   -2.0937 H   0  0  0  0  0  0  0  0  0  0  0  0
    1.8126    1.1872   -1.8978 H   0  0  0  0  0  0  0  0  0  0  0  0
    2.8853   -0.9193    0.0581 H   0  0  0  0  0  0  0  0  0  0  0  0
    1.3609   -0.0891    0.2685 H   0  0  0  0  0  0  0  0  0  0  0  0
    3.0499    0.8751    1.7149 H   0  0  0  0  0  0  0  0  0  0  0  0
    1.7954    2.6588    1.5397 H   0  0  0  0  0  0  0  0  0  0  0  0
    1.4079    2.3703   -0.1176 H   0  0  0  0  0  0  0  0  0  0  0  0
    3.9489    5.6669   -0.9815 H   0  0  0  0  0  0  0  0  0  0  0  0
    6.2407    5.7911   -1.9212 H   0  0  0  0  0  0  0  0  0  0  0  0
    7.7394    3.8259   -1.7540 H   0  0  0  0  0  0  0  0  0  0  0  0
    9.0336   -0.1392   -0.8852 H   0  0  0  0  0  0  0  0  0  0  0  0
    9.3874   -2.8069    0.3753 H   0  0  0  0  0  0  0  0  0  0  0  0
    9.8100   -2.3343   -2.6253 H   0  0  0  0  0  0  0  0  0  0  0  0
    8.4656   -3.2373   -1.9189 H   0  0  0  0  0  0  0  0  0  0  0  0
   10.1227   -3.8361   -1.7365 H   0  0  0  0  0  0  0  0  0  0  0  0
   11.3784   -1.0218   -1.1175 H   0  0  0  0  0  0  0  0  0  0  0  0
   11.7781   -2.5397   -0.3113 H   0  0  0  0  0  0  0  0  0  0  0  0
   11.0142   -1.5938    1.8702 H   0  0  0  0  0  0  0  0  0  0  0  0
   10.6517   -0.0572    1.0935 H   0  0  0  0  0  0  0  0  0  0  0  0
   13.4193   -1.3469    1.2982 H   0  0  0  0  0  0  0  0  0  0  0  0
   12.6028    1.3644    0.1176 H   0  0  0  0  0  0  0  0  0  0  0  0
   13.3175    0.0033   -0.7668 H   0  0  0  0  0  0  0  0  0  0  0  0
   14.2685    0.8547    0.4445 H   0  0  0  0  0  0  0  0  0  0  0  0
   12.2225    1.0983    2.7105 H   0  0  0  0  0  0  0  0  0  0  0  0
   13.8893    0.5194    2.8732 H   0  0  0  0  0  0  0  0  0  0  0  0
   12.5478   -0.4755    3.4569 H   0  0  0  0  0  0  0  0  0  0  0  0
    4.9709   -0.6739    0.8624 H   0  0  0  0  0  0  0  0  0  0  0  0
  1  2  1  0  0  0  0
  1 27  1  0  0  0  0
  1 28  1  0  0  0  0
  1 29  1  0  0  0  0
  2 30  1  0  0  0  0
  2 31  1  0  0  0  0
  3  2  1  0  0  0  0
  3  4  1  0  0  0  0
  3 25  1  0  0  0  0
  3 32  1  1  0  0  0
  4  5  1  0  0  0  0
  4 33  1  0  0  0  0
  4 34  1  0  0  0  0
  5  6  1  0  0  0  0
  6 26  2  0  0  0  0
  6  7  1  0  0  0  0
  7  8  2  0  0  0  0
  7 35  1  0  0  0  0
  8  9  1  0  0  0  0
  8 36  1  0  0  0  0
  9 10  2  0  0  0  0
  9 37  1  0  0  0  0
 10 26  1  0  0  0  0
 10 11  1  0  0  0  0
 11 12  2  0  0  0  0
 11 13  1  0  0  0  0
 13 14  1  0  0  0  0
 13 24  2  0  0  0  0
 14 15  2  0  0  0  0
 14 16  1  0  0  0  0
 16 17  1  0  0  0  0
 16 38  1  0  0  0  0
 17 18  1  0  0  0  0
 17 19  1  0  0  0  0
 17 39  1  1  0  0  0
 18 40  1  0  0  0  0
 18 41  1  0  0  0  0
 18 42  1  0  0  0  0
 19 20  1  0  0  0  0
 19 43  1  0  0  0  0
 19 44  1  0  0  0  0
 20 21  1  0  0  0  0
 20 45  1  0  0  0  0
 20 46  1  0  0  0  0
 21 22  1  0  0  0  0
 21 23  1  0  0  0  0
 21 47  1  0  0  0  0
 22 48  1  0  0  0  0
 22 49  1  0  0  0  0
 22 50  1  0  0  0  0
 23 51  1  0  0  0  0
 23 52  1  0  0  0  0
 23 53  1  0  0  0  0
 24 25  1  0  0  0  0
 24 54  1  0  0  0  0
 25 26  1  0  0  0  0
M  END
$$$$
CHEMBL1223588_5ZTY
 OpenBabel12022418113D

 66 69  0  0  1  0  0  0  0  0999 V2000
    4.9233   -4.3589    6.5698 C   0  0  0  0  0  0  0  0  0  0  0  0
    4.4983   -4.2325    5.1156 C   0  0  0  0  0  0  0  0  0  0  0  0
    5.0962   -2.9855    4.4624 C   0  0  0  0  0  0  0  0  0  0  0  0
    4.6753   -2.8729    2.9937 C   0  0  0  0  0  0  0  0  0  0  0  0
    5.2391   -1.6292    2.3073 C   0  0  0  0  0  0  0  0  0  0  0  0
    6.7428   -1.6475    2.2471 C   0  0  0  0  0  0  0  0  0  0  0  0
    7.4058   -2.5905    1.6445 N   0  0  0  0  0  0  0  0  0  0  0  0
    8.7361   -2.3065    1.8487 N   0  0  0  0  0  0  0  0  0  0  0  0
    9.7639   -3.1064    1.3723 C   0  0  0  0  0  0  0  0  0  0  0  0
   10.9497   -2.8713    1.5792 O   0  0  0  0  0  0  0  0  0  0  0  0
    9.3097   -4.1938    0.6659 N   0  0  0  0  0  0  0  0  0  0  0  0
   10.1830   -5.1576    0.0331 C   0  0  1  0  0  0  0  0  0  0  0  0
    9.5797   -6.5796   -0.0133 C   0  0  0  0  0  0  0  0  0  0  0  0
    9.7145   -6.9712   -1.5060 C   0  0  1  0  0  0  0  0  0  0  0  0
    8.6205   -6.1885   -2.2611 C   0  0  0  0  0  0  0  0  0  0  0  0
    9.1623   -4.7488   -2.2483 C   0  0  0  0  0  0  0  0  0  0  0  0
   10.5063   -4.8842   -1.4744 C   0  0  1  0  0  0  0  0  0  0  0  0
   11.4405   -3.7094   -1.6978 C   0  0  0  0  0  0  0  0  0  0  0  0
   11.0265   -6.2788   -1.9576 C   0  0  0  0  0  0  0  0  0  0  0  0
   12.2900   -6.8112   -1.2507 C   0  0  0  0  0  0  0  0  0  0  0  0
   11.3139   -6.3903   -3.4704 C   0  0  0  0  0  0  0  0  0  0  0  0
    8.9566   -1.1621    2.7173 C   0  0  0  0  0  0  0  0  0  0  0  0
    7.5671   -0.5596    2.8981 C   0  0  1  0  0  0  0  0  0  0  0  0
    7.3912    0.7915    2.2362 C   0  0  0  0  0  0  0  0  0  0  0  0
    7.7419    0.9950    0.8934 C   0  0  0  0  0  0  0  0  0  0  0  0
    7.6164    2.2541    0.3032 C   0  0  0  0  0  0  0  0  0  0  0  0
    7.1239    3.3248    1.0450 C   0  0  0  0  0  0  0  0  0  0  0  0
    6.7508    3.1349    2.3739 C   0  0  0  0  0  0  0  0  0  0  0  0
    6.8820    1.8770    2.9666 C   0  0  0  0  0  0  0  0  0  0  0  0
    4.4901   -5.2604    7.0143 H   0  0  0  0  0  0  0  0  0  0  0  0
    4.5862   -3.4964    7.1532 H   0  0  0  0  0  0  0  0  0  0  0  0
    6.0124   -4.4281    6.6558 H   0  0  0  0  0  0  0  0  0  0  0  0
    3.4041   -4.1940    5.0617 H   0  0  0  0  0  0  0  0  0  0  0  0
    4.8190   -5.1276    4.5698 H   0  0  0  0  0  0  0  0  0  0  0  0
    6.1889   -3.0321    4.5372 H   0  0  0  0  0  0  0  0  0  0  0  0
    4.7724   -2.0910    5.0079 H   0  0  0  0  0  0  0  0  0  0  0  0
    3.5805   -2.8355    2.9350 H   0  0  0  0  0  0  0  0  0  0  0  0
    4.9917   -3.7731    2.4530 H   0  0  0  0  0  0  0  0  0  0  0  0
    4.8996   -0.7257    2.8243 H   0  0  0  0  0  0  0  0  0  0  0  0
    4.8675   -1.5801    1.2774 H   0  0  0  0  0  0  0  0  0  0  0  0
    8.3095   -4.1746    0.4984 H   0  0  0  0  0  0  0  0  0  0  0  0
   11.1099   -5.1770    0.6176 H   0  0  0  0  0  0  0  0  0  0  0  0
    8.5409   -6.6209    0.3324 H   0  0  0  0  0  0  0  0  0  0  0  0
   10.1597   -7.2602    0.6200 H   0  0  0  0  0  0  0  0  0  0  0  0
    9.6672   -8.0500   -1.6743 H   0  0  0  0  0  0  0  0  0  0  0  0
    7.6412   -6.2613   -1.7769 H   0  0  0  0  0  0  0  0  0  0  0  0
    8.5039   -6.5532   -3.2874 H   0  0  0  0  0  0  0  0  0  0  0  0
    8.4576   -4.0582   -1.7759 H   0  0  0  0  0  0  0  0  0  0  0  0
    9.3144   -4.3873   -3.2715 H   0  0  0  0  0  0  0  0  0  0  0  0
   10.9830   -2.7731   -1.3627 H   0  0  0  0  0  0  0  0  0  0  0  0
   11.6863   -3.5918   -2.7580 H   0  0  0  0  0  0  0  0  0  0  0  0
   12.3793   -3.8390   -1.1499 H   0  0  0  0  0  0  0  0  0  0  0  0
   12.2355   -6.8207   -0.1606 H   0  0  0  0  0  0  0  0  0  0  0  0
   13.1657   -6.2099   -1.5205 H   0  0  0  0  0  0  0  0  0  0  0  0
   12.4902   -7.8443   -1.5586 H   0  0  0  0  0  0  0  0  0  0  0  0
   10.5117   -6.0285   -4.1165 H   0  0  0  0  0  0  0  0  0  0  0  0
   11.4934   -7.4357   -3.7477 H   0  0  0  0  0  0  0  0  0  0  0  0
   12.2109   -5.8192   -3.7359 H   0  0  0  0  0  0  0  0  0  0  0  0
    9.7015   -0.4920    2.2757 H   0  0  0  0  0  0  0  0  0  0  0  0
    9.3578   -1.5338    3.6671 H   0  0  0  0  0  0  0  0  0  0  0  0
    7.3128   -0.5044    3.9633 H   0  0  0  0  0  0  0  0  0  0  0  0
    8.1327    0.1763    0.2894 H   0  0  0  0  0  0  0  0  0  0  0  0
    7.9099    2.3986   -0.7335 H   0  0  0  0  0  0  0  0  0  0  0  0
    7.0341    4.3063    0.5874 H   0  0  0  0  0  0  0  0  0  0  0  0
    6.3637    3.9716    2.9507 H   0  0  0  0  0  0  0  0  0  0  0  0
    6.5899    1.7580    4.0088 H   0  0  0  0  0  0  0  0  0  0  0  0
  1  2  1  0  0  0  0
  1 30  1  0  0  0  0
  1 31  1  0  0  0  0
  1 32  1  0  0  0  0
  2  3  1  0  0  0  0
  2 33  1  0  0  0  0
  2 34  1  0  0  0  0
  3  4  1  0  0  0  0
  3 35  1  0  0  0  0
  3 36  1  0  0  0  0
  4  5  1  0  0  0  0
  4 37  1  0  0  0  0
  4 38  1  0  0  0  0
  5  6  1  0  0  0  0
  5 39  1  0  0  0  0
  5 40  1  0  0  0  0
  6 23  1  0  0  0  0
  6  7  2  0  0  0  0
  7  8  1  0  0  0  0
  8  9  1  0  0  0  0
  8 22  1  0  0  0  0
  9 10  2  0  0  0  0
  9 11  1  0  0  0  0
 11 41  1  0  0  0  0
 12 11  1  0  0  0  0
 12 13  1  0  0  0  0
 12 17  1  0  0  0  0
 12 42  1  1  0  0  0
 13 43  1  0  0  0  0
 13 44  1  0  0  0  0
 14 13  1  0  0  0  0
 14 15  1  0  0  0  0
 14 19  1  0  0  0  0
 14 45  1  6  0  0  0
 15 16  1  0  0  0  0
 15 46  1  0  0  0  0
 15 47  1  0  0  0  0
 16 17  1  0  0  0  0
 16 48  1  0  0  0  0
 16 49  1  0  0  0  0
 17 18  1  6  0  0  0
 17 19  1  0  0  0  0
 18 50  1  0  0  0  0
 18 51  1  0  0  0  0
 18 52  1  0  0  0  0
 19 20  1  0  0  0  0
 19 21  1  0  0  0  0
 20 53  1  0  0  0  0
 20 54  1  0  0  0  0
 20 55  1  0  0  0  0
 21 56  1  0  0  0  0
 21 57  1  0  0  0  0
 21 58  1  0  0  0  0
 22 23  1  0  0  0  0
 22 59  1  0  0  0  0
 22 60  1  0  0  0  0
 23 24  1  0  0  0  0
 23 61  1  1  0  0  0
 24 29  2  0  0  0  0
 24 25  1  0  0  0  0
 25 26  2  0  0  0  0
 25 62  1  0  0  0  0
 26 27  1  0  0  0  0
 26 63  1  0  0  0  0
 27 28  2  0  0  0  0
 27 64  1  0  0  0  0
 28 29  1  0  0  0  0
 28 65  1  0  0  0  0
 29 66  1  0  0  0  0
M  END
$$$$
CHEMBL2179763_5ZTY
 OpenBabel12022418113D

 58 60  0  0  0  0  0  0  0  0999 V2000
    3.1548   -1.6083    0.5796 C   0  0  0  0  0  0  0  0  0  0  0  0
    2.8947   -0.1211    0.3114 C   0  0  0  0  0  0  0  0  0  0  0  0
    3.6010    0.7411    1.3603 C   0  0  0  0  0  0  0  0  0  0  0  0
    3.2828    0.2558   -1.1084 C   0  0  0  0  0  0  0  0  0  0  0  0
    4.5922    0.1000   -1.5771 C   0  0  0  0  0  0  0  0  0  0  0  0
    4.9141    0.3726   -2.9101 C   0  0  0  0  0  0  0  0  0  0  0  0
    3.9366    0.7954   -3.8234 C   0  0  0  0  0  0  0  0  0  0  0  0
    4.3103    0.9782   -5.2859 C   0  0  0  0  0  0  0  0  0  0  0  0
    3.5125    0.1112   -6.1211 N   0  0  0  0  0  0  0  0  0  0  0  0
    4.0202   -0.4891   -7.2526 C   0  0  0  0  0  0  0  0  0  0  0  0
    5.1591   -0.3115   -7.6679 O   0  0  0  0  0  0  0  0  0  0  0  0
    3.0446   -1.4292   -7.9444 C   0  0  0  0  0  0  0  0  0  0  0  0
    2.1248   -0.7382   -8.9200 C   0  0  0  0  0  0  0  0  0  0  0  0
    0.7347   -0.7803   -8.7396 C   0  0  0  0  0  0  0  0  0  0  0  0
   -0.1187   -0.1605   -9.6549 C   0  0  0  0  0  0  0  0  0  0  0  0
    0.4066    0.5021  -10.7622 C   0  0  0  0  0  0  0  0  0  0  0  0
    1.7855    0.5416  -10.9581 C   0  0  0  0  0  0  0  0  0  0  0  0
    2.6410   -0.0778  -10.0446 C   0  0  0  0  0  0  0  0  0  0  0  0
    4.1231    2.3339   -5.7154 N   0  0  0  0  0  0  0  0  0  0  0  0
    5.1473    3.2466   -5.6437 C   0  0  0  0  0  0  0  0  0  0  0  0
    6.2480    3.0004   -5.1560 O   0  0  0  0  0  0  0  0  0  0  0  0
    4.8206    4.5920   -6.2636 C   0  0  0  0  0  0  0  0  0  0  0  0
    4.2277    5.5923   -5.3031 C   0  0  0  0  0  0  0  0  0  0  0  0
    2.9988    6.2082   -5.5811 C   0  0  0  0  0  0  0  0  0  0  0  0
    2.5014    7.2082   -4.7421 C   0  0  0  0  0  0  0  0  0  0  0  0
    3.2216    7.5970   -3.6144 C   0  0  0  0  0  0  0  0  0  0  0  0
    4.4346    6.9792   -3.3185 C   0  0  0  0  0  0  0  0  0  0  0  0
    4.9369    5.9848   -4.1593 C   0  0  0  0  0  0  0  0  0  0  0  0
    2.6341    1.0096   -3.3377 C   0  0  0  0  0  0  0  0  0  0  0  0
    2.3144    0.7419   -1.9997 C   0  0  0  0  0  0  0  0  0  0  0  0
    2.8381   -1.8830    1.5916 H   0  0  0  0  0  0  0  0  0  0  0  0
    4.2167   -1.8625    0.4863 H   0  0  0  0  0  0  0  0  0  0  0  0
    2.6007   -2.2349   -0.1281 H   0  0  0  0  0  0  0  0  0  0  0  0
    1.8158    0.0436    0.4338 H   0  0  0  0  0  0  0  0  0  0  0  0
    4.6796    0.5497    1.3878 H   0  0  0  0  0  0  0  0  0  0  0  0
    3.2023    0.5296    2.3586 H   0  0  0  0  0  0  0  0  0  0  0  0
    3.4532    1.8082    1.1606 H   0  0  0  0  0  0  0  0  0  0  0  0
    5.3792   -0.2547   -0.9135 H   0  0  0  0  0  0  0  0  0  0  0  0
    5.9458    0.2415   -3.2385 H   0  0  0  0  0  0  0  0  0  0  0  0
    5.3650    0.7090   -5.4247 H   0  0  0  0  0  0  0  0  0  0  0  0
    2.5221    0.0580   -5.9465 H   0  0  0  0  0  0  0  0  0  0  0  0
    2.4667   -1.9540   -7.1742 H   0  0  0  0  0  0  0  0  0  0  0  0
    3.6166   -2.2059   -8.4671 H   0  0  0  0  0  0  0  0  0  0  0  0
    0.3017   -1.3071   -7.8923 H   0  0  0  0  0  0  0  0  0  0  0  0
   -1.1952   -0.2015   -9.5091 H   0  0  0  0  0  0  0  0  0  0  0  0
   -0.2582    0.9810  -11.4766 H   0  0  0  0  0  0  0  0  0  0  0  0
    2.1965    1.0506  -11.8264 H   0  0  0  0  0  0  0  0  0  0  0  0
    3.7158   -0.0471  -10.2196 H   0  0  0  0  0  0  0  0  0  0  0  0
    3.1863    2.6541   -5.8947 H   0  0  0  0  0  0  0  0  0  0  0  0
    4.1525    4.4321   -7.1198 H   0  0  0  0  0  0  0  0  0  0  0  0
    5.7459    5.0059   -6.6833 H   0  0  0  0  0  0  0  0  0  0  0  0
    2.4283    5.9339   -6.4655 H   0  0  0  0  0  0  0  0  0  0  0  0
    1.5589    7.6963   -4.9763 H   0  0  0  0  0  0  0  0  0  0  0  0
    2.8428    8.3862   -2.9703 H   0  0  0  0  0  0  0  0  0  0  0  0
    4.9992    7.2802   -2.4398 H   0  0  0  0  0  0  0  0  0  0  0  0
    5.8982    5.5289   -3.9249 H   0  0  0  0  0  0  0  0  0  0  0  0
    1.8504    1.3724   -3.9975 H   0  0  0  0  0  0  0  0  0  0  0  0
    1.2929    0.9035   -1.6601 H   0  0  0  0  0  0  0  0  0  0  0  0
  1  2  1  0  0  0  0
  1 31  1  0  0  0  0
  1 32  1  0  0  0  0
  1 33  1  0  0  0  0
  2  3  1  0  0  0  0
  2  4  1  0  0  0  0
  2 34  1  0  0  0  0
  3 35  1  0  0  0  0
  3 36  1  0  0  0  0
  3 37  1  0  0  0  0
  4 30  2  0  0  0  0
  4  5  1  0  0  0  0
  5  6  2  0  0  0  0
  5 38  1  0  0  0  0
  6  7  1  0  0  0  0
  6 39  1  0  0  0  0
  7  8  1  0  0  0  0
  7 29  2  0  0  0  0
  8  9  1  0  0  0  0
  8 19  1  0  0  0  0
  8 40  1  0  0  0  0
  9 10  1  0  0  0  0
  9 41  1  0  0  0  0
 10 11  2  0  0  0  0
 10 12  1  0  0  0  0
 12 13  1  0  0  0  0
 12 42  1  0  0  0  0
 12 43  1  0  0  0  0
 13 18  2  0  0  0  0
 13 14  1  0  0  0  0
 14 15  2  0  0  0  0
 14 44  1  0  0  0  0
 15 16  1  0  0  0  0
 15 45  1  0  0  0  0
 16 17  2  0  0  0  0
 16 46  1  0  0  0  0
 17 18  1  0  0  0  0
 17 47  1  0  0  0  0
 18 48  1  0  0  0  0
 19 20  1  0  0  0  0
 19 49  1  0  0  0  0
 20 21  2  0  0  0  0
 20 22  1  0  0  0  0
 22 23  1  0  0  0  0
 22 50  1  0  0  0  0
 22 51  1  0  0  0  0
 23 28  2  0  0  0  0
 23 24  1  0  0  0  0
 24 25  2  0  0  0  0
 24 52  1  0  0  0  0
 25 26  1  0  0  0  0
 25 53  1  0  0  0  0
 26 27  2  0  0  0  0
 26 54  1  0  0  0  0
 27 28  1  0  0  0  0
 27 55  1  0  0  0  0
 28 56  1  0  0  0  0
 29 30  1  0  0  0  0
 29 57  1  0  0  0  0
 30 58  1  0  0  0  0
M  END
$$$$
CHEMBL466047_8GUT
 OpenBabel12022418113D

 53 56  0  0  1  0  0  0  0  0999 V2000
   -2.7944   -3.0334    1.8526 C   0  0  0  0  0  0  0  0  0  0  0  0
   -2.8446   -2.8579    0.3321 C   0  0  2  0  0  0  0  0  0  0  0  0
   -1.4737   -2.4513   -0.2219 C   0  0  0  0  0  0  0  0  0  0  0  0
   -1.0979   -1.0199    0.1685 C   0  0  0  0  0  0  0  0  0  0  0  0
   -2.1579   -0.0060   -0.2849 C   0  0  2  0  0  0  0  0  0  0  0  0
   -3.5453   -0.3940    0.2390 C   0  0  0  0  0  0  0  0  0  0  0  0
   -3.9188   -1.8439   -0.0904 C   0  0  0  0  0  0  0  0  0  0  0  0
   -2.1679    0.1138   -1.7331 N   0  0  0  0  0  0  0  0  0  0  0  0
   -2.4989    1.2576   -2.4044 C   0  0  0  0  0  0  0  0  0  0  0  0
   -2.8217    2.3097   -1.8410 O   0  0  0  0  0  0  0  0  0  0  0  0
   -2.4283    1.1553   -3.8869 C   0  0  0  0  0  0  0  0  0  0  0  0
   -2.3162    2.2954   -4.5793 C   0  0  0  0  0  0  0  0  0  0  0  0
   -2.2125    2.2376   -6.0328 C   0  0  0  0  0  0  0  0  0  0  0  0
   -1.7976    3.3488   -6.7660 C   0  0  0  0  0  0  0  0  0  0  0  0
   -1.6842    3.2430   -8.1426 C   0  0  0  0  0  0  0  0  0  0  0  0
   -2.0356    2.0454   -8.7401 C   0  0  0  0  0  0  0  0  0  0  0  0
   -2.4733    0.9664   -8.0603 N   0  0  0  0  0  0  0  0  0  0  0  0
   -2.5317    1.0605   -6.7113 C   0  0  0  0  0  0  0  0  0  0  0  0
   -2.8021   -0.1034   -5.9573 N   0  0  0  0  0  0  0  0  0  0  0  0
   -3.1553   -1.3236   -6.6724 C   0  0  0  0  0  0  0  0  0  0  0  0
   -4.6460   -1.5198   -6.9221 C   0  0  0  0  0  0  0  0  0  0  0  0
   -5.5297   -1.7872   -5.8666 C   0  0  0  0  0  0  0  0  0  0  0  0
   -6.8285   -2.2422   -6.1284 C   0  0  0  0  0  0  0  0  0  0  0  0
   -7.2582   -2.3804   -7.4446 C   0  0  0  0  0  0  0  0  0  0  0  0
   -6.4325   -2.0355   -8.5033 C   0  0  0  0  0  0  0  0  0  0  0  0
   -5.1272   -1.6049   -8.2454 C   0  0  0  0  0  0  0  0  0  0  0  0
   -8.4720   -2.8928   -7.6925 F   0  0  0  0  0  0  0  0  0  0  0  0
   -2.4421   -0.1551   -4.6158 C   0  0  0  0  0  0  0  0  0  0  0  0
   -2.1771   -1.1901   -4.0150 O   0  0  0  0  0  0  0  0  0  0  0  0
   -2.0315   -3.7696    2.1282 H   0  0  0  0  0  0  0  0  0  0  0  0
   -3.7571   -3.3884    2.2332 H   0  0  0  0  0  0  0  0  0  0  0  0
   -2.5574   -2.1014    2.3739 H   0  0  0  0  0  0  0  0  0  0  0  0
   -3.1095   -3.8331   -0.0973 H   0  0  0  0  0  0  0  0  0  0  0  0
   -1.4896   -2.5403   -1.3144 H   0  0  0  0  0  0  0  0  0  0  0  0
   -0.7008   -3.1458    0.1262 H   0  0  0  0  0  0  0  0  0  0  0  0
   -0.1141   -0.7792   -0.2529 H   0  0  0  0  0  0  0  0  0  0  0  0
   -0.9854   -0.9540    1.2584 H   0  0  0  0  0  0  0  0  0  0  0  0
   -1.8912    0.9816    0.1122 H   0  0  0  0  0  0  0  0  0  0  0  0
   -4.3110    0.2759   -0.1709 H   0  0  0  0  0  0  0  0  0  0  0  0
   -3.5631   -0.2582    1.3269 H   0  0  0  0  0  0  0  0  0  0  0  0
   -4.8763   -2.0913    0.3835 H   0  0  0  0  0  0  0  0  0  0  0  0
   -4.0809   -1.9320   -1.1729 H   0  0  0  0  0  0  0  0  0  0  0  0
   -2.0667   -0.7359   -2.2899 H   0  0  0  0  0  0  0  0  0  0  0  0
   -2.2791    3.2647   -4.0923 H   0  0  0  0  0  0  0  0  0  0  0  0
   -1.5354    4.2772   -6.2695 H   0  0  0  0  0  0  0  0  0  0  0  0
   -1.3240    4.0741   -8.7388 H   0  0  0  0  0  0  0  0  0  0  0  0
   -1.9609    1.9128   -9.8158 H   0  0  0  0  0  0  0  0  0  0  0  0
   -2.7984   -2.2019   -6.1176 H   0  0  0  0  0  0  0  0  0  0  0  0
   -2.6273   -1.3599   -7.6305 H   0  0  0  0  0  0  0  0  0  0  0  0
   -5.1944   -1.7159   -4.8342 H   0  0  0  0  0  0  0  0  0  0  0  0
   -7.4873   -2.5372   -5.3185 H   0  0  0  0  0  0  0  0  0  0  0  0
   -6.7887   -2.1496   -9.5227 H   0  0  0  0  0  0  0  0  0  0  0  0
   -4.4696   -1.3910   -9.0849 H   0  0  0  0  0  0  0  0  0  0  0  0
  1 30  1  0  0  0  0
  1 31  1  0  0  0  0
  1 32  1  0  0  0  0
  2  3  1  0  0  0  0
  2  7  1  0  0  0  0
  2  1  1  0  0  0  0
  2 33  1  6  0  0  0
  3  4  1  0  0  0  0
  3 34  1  0  0  0  0
  3 35  1  0  0  0  0
  4  5  1  0  0  0  0
  4 36  1  0  0  0  0
  4 37  1  0  0  0  0
  5  6  1  0  0  0  0
  5  8  1  0  0  0  0
  5 38  1  1  0  0  0
  6  7  1  0  0  0  0
  6 39  1  0  0  0  0
  6 40  1  0  0  0  0
  7 41  1  0  0  0  0
  7 42  1  0  0  0  0
  8  9  1  0  0  0  0
  8 43  1  0  0  0  0
  9 10  2  0  0  0  0
  9 11  1  0  0  0  0
 11 28  1  0  0  0  0
 11 12  2  0  0  0  0
 12 13  1  0  0  0  0
 12 44  1  0  0  0  0
 13 18  2  0  0  0  0
 13 14  1  0  0  0  0
 14 15  2  0  0  0  0
 14 45  1  0  0  0  0
 15 16  1  0  0  0  0
 15 46  1  0  0  0  0
 16 17  2  0  0  0  0
 16 47  1  0  0  0  0
 17 18  1  0  0  0  0
 18 19  1  0  0  0  0
 19 20  1  0  0  0  0
 19 28  1  0  0  0  0
 20 21  1  0  0  0  0
 20 48  1  0  0  0  0
 20 49  1  0  0  0  0
 21 26  2  0  0  0  0
 21 22  1  0  0  0  0
 22 23  2  0  0  0  0
 22 50  1  0  0  0  0
 23 24  1  0  0  0  0
 23 51  1  0  0  0  0
 24 25  2  0  0  0  0
 24 27  1  0  0  0  0
 25 26  1  0  0  0  0
 25 52  1  0  0  0  0
 26 53  1  0  0  0  0
 28 29  2  0  0  0  0
M  END
$$$$
CHEMBL512063_8GUT
 OpenBabel12022418113D

 53 56  0  0  1  0  0  0  0  0999 V2000
   -2.7944   -3.0334    1.8526 C   0  0  0  0  0  0  0  0  0  0  0  0
   -2.8446   -2.8579    0.3321 C   0  0  2  0  0  0  0  0  0  0  0  0
   -1.4737   -2.4513   -0.2219 C   0  0  0  0  0  0  0  0  0  0  0  0
   -1.0979   -1.0199    0.1685 C   0  0  0  0  0  0  0  0  0  0  0  0
   -2.1579   -0.0060   -0.2849 C   0  0  2  0  0  0  0  0  0  0  0  0
   -3.5453   -0.3940    0.2390 C   0  0  0  0  0  0  0  0  0  0  0  0
   -3.9188   -1.8439   -0.0904 C   0  0  0  0  0  0  0  0  0  0  0  0
   -2.1679    0.1138   -1.7331 N   0  0  0  0  0  0  0  0  0  0  0  0
   -2.4989    1.2576   -2.4044 C   0  0  0  0  0  0  0  0  0  0  0  0
   -2.8217    2.3097   -1.8410 O   0  0  0  0  0  0  0  0  0  0  0  0
   -2.4283    1.1553   -3.8869 C   0  0  0  0  0  0  0  0  0  0  0  0
   -2.3162    2.2954   -4.5793 C   0  0  0  0  0  0  0  0  0  0  0  0
   -2.2125    2.2376   -6.0328 C   0  0  0  0  0  0  0  0  0  0  0  0
   -1.7976    3.3488   -6.7660 C   0  0  0  0  0  0  0  0  0  0  0  0
   -1.6842    3.2430   -8.1426 C   0  0  0  0  0  0  0  0  0  0  0  0
   -2.0356    2.0454   -8.7401 C   0  0  0  0  0  0  0  0  0  0  0  0
   -2.4733    0.9664   -8.0603 N   0  0  0  0  0  0  0  0  0  0  0  0
   -2.5317    1.0605   -6.7113 C   0  0  0  0  0  0  0  0  0  0  0  0
   -2.8021   -0.1034   -5.9573 N   0  0  0  0  0  0  0  0  0  0  0  0
   -3.1553   -1.3236   -6.6724 C   0  0  0  0  0  0  0  0  0  0  0  0
   -4.6460   -1.5198   -6.9221 C   0  0  0  0  0  0  0  0  0  0  0  0
   -5.5297   -1.7872   -5.8666 C   0  0  0  0  0  0  0  0  0  0  0  0
   -6.8285   -2.2422   -6.1284 C   0  0  0  0  0  0  0  0  0  0  0  0
   -7.2582   -2.3804   -7.4446 C   0  0  0  0  0  0  0  0  0  0  0  0
   -6.4325   -2.0355   -8.5033 C   0  0  0  0  0  0  0  0  0  0  0  0
   -5.1272   -1.6049   -8.2454 C   0  0  0  0  0  0  0  0  0  0  0  0
   -8.4720   -2.8928   -7.6925 F   0  0  0  0  0  0  0  0  0  0  0  0
   -2.4421   -0.1551   -4.6158 C   0  0  0  0  0  0  0  0  0  0  0  0
   -2.1771   -1.1901   -4.0150 O   0  0  0  0  0  0  0  0  0  0  0  0
   -2.0315   -3.7696    2.1282 H   0  0  0  0  0  0  0  0  0  0  0  0
   -3.7571   -3.3884    2.2332 H   0  0  0  0  0  0  0  0  0  0  0  0
   -2.5574   -2.1014    2.3739 H   0  0  0  0  0  0  0  0  0  0  0  0
   -3.1095   -3.8331   -0.0973 H   0  0  0  0  0  0  0  0  0  0  0  0
   -1.4896   -2.5403   -1.3144 H   0  0  0  0  0  0  0  0  0  0  0  0
   -0.7008   -3.1458    0.1262 H   0  0  0  0  0  0  0  0  0  0  0  0
   -0.1141   -0.7792   -0.2529 H   0  0  0  0  0  0  0  0  0  0  0  0
   -0.9854   -0.9540    1.2584 H   0  0  0  0  0  0  0  0  0  0  0  0
   -1.8912    0.9816    0.1122 H   0  0  0  0  0  0  0  0  0  0  0  0
   -4.3110    0.2759   -0.1709 H   0  0  0  0  0  0  0  0  0  0  0  0
   -3.5631   -0.2582    1.3269 H   0  0  0  0  0  0  0  0  0  0  0  0
   -4.8763   -2.0913    0.3835 H   0  0  0  0  0  0  0  0  0  0  0  0
   -4.0809   -1.9320   -1.1729 H   0  0  0  0  0  0  0  0  0  0  0  0
   -2.0667   -0.7359   -2.2899 H   0  0  0  0  0  0  0  0  0  0  0  0
   -2.2791    3.2647   -4.0923 H   0  0  0  0  0  0  0  0  0  0  0  0
   -1.5354    4.2772   -6.2695 H   0  0  0  0  0  0  0  0  0  0  0  0
   -1.3240    4.0741   -8.7388 H   0  0  0  0  0  0  0  0  0  0  0  0
   -1.9609    1.9128   -9.8158 H   0  0  0  0  0  0  0  0  0  0  0  0
   -2.7984   -2.2019   -6.1176 H   0  0  0  0  0  0  0  0  0  0  0  0
   -2.6273   -1.3599   -7.6305 H   0  0  0  0  0  0  0  0  0  0  0  0
   -5.1944   -1.7159   -4.8342 H   0  0  0  0  0  0  0  0  0  0  0  0
   -7.4873   -2.5372   -5.3185 H   0  0  0  0  0  0  0  0  0  0  0  0
   -6.7887   -2.1496   -9.5227 H   0  0  0  0  0  0  0  0  0  0  0  0
   -4.4696   -1.3910   -9.0849 H   0  0  0  0  0  0  0  0  0  0  0  0
  1 30  1  0  0  0  0
  1 31  1  0  0  0  0
  1 32  1  0  0  0  0
  2  3  1  0  0  0  0
  2  7  1  0  0  0  0
  2  1  1  0  0  0  0
  2 33  1  6  0  0  0
  3  4  1  0  0  0  0
  3 34  1  0  0  0  0
  3 35  1  0  0  0  0
  4  5  1  0  0  0  0
  4 36  1  0  0  0  0
  4 37  1  0  0  0  0
  5  6  1  0  0  0  0
  5  8  1  0  0  0  0
  5 38  1  1  0  0  0
  6  7  1  0  0  0  0
  6 39  1  0  0  0  0
  6 40  1  0  0  0  0
  7 41  1  0  0  0  0
  7 42  1  0  0  0  0
  8  9  1  0  0  0  0
  8 43  1  0  0  0  0
  9 10  2  0  0  0  0
  9 11  1  0  0  0  0
 11 28  1  0  0  0  0
 11 12  2  0  0  0  0
 12 13  1  0  0  0  0
 12 44  1  0  0  0  0
 13 18  2  0  0  0  0
 13 14  1  0  0  0  0
 14 15  2  0  0  0  0
 14 45  1  0  0  0  0
 15 16  1  0  0  0  0
 15 46  1  0  0  0  0
 16 17  2  0  0  0  0
 16 47  1  0  0  0  0
 17 18  1  0  0  0  0
 18 19  1  0  0  0  0
 19 20  1  0  0  0  0
 19 28  1  0  0  0  0
 20 21  1  0  0  0  0
 20 48  1  0  0  0  0
 20 49  1  0  0  0  0
 21 26  2  0  0  0  0
 21 22  1  0  0  0  0
 22 23  2  0  0  0  0
 22 50  1  0  0  0  0
 23 24  1  0  0  0  0
 23 51  1  0  0  0  0
 24 25  2  0  0  0  0
 24 27  1  0  0  0  0
 25 26  1  0  0  0  0
 25 52  1  0  0  0  0
 26 53  1  0  0  0  0
 28 29  2  0  0  0  0
M  END
$$$$
CHEMBL466651_8GUT
 OpenBabel12022418113D

 53 56  0  0  1  0  0  0  0  0999 V2000
    0.1389   -2.8328   -0.6560 C   0  0  0  0  0  0  0  0  0  0  0  0
    0.6373   -1.3843   -0.6708 C   0  0  2  0  0  0  0  0  0  0  0  0
    0.5707   -0.7469    0.7222 C   0  0  0  0  0  0  0  0  0  0  0  0
   -0.8616   -0.4995    1.1859 C   0  0  0  0  0  0  0  0  0  0  0  0
   -1.6764    0.3084    0.1690 C   0  0  1  0  0  0  0  0  0  0  0  0
   -1.5816   -0.2653   -1.2505 C   0  0  0  0  0  0  0  0  0  0  0  0
   -0.1374   -0.5245   -1.6778 C   0  0  0  0  0  0  0  0  0  0  0  0
   -3.0648    0.3684    0.6013 N   0  0  0  0  0  0  0  0  0  0  0  0
   -3.9079    1.4005    0.2849 C   0  0  0  0  0  0  0  0  0  0  0  0
   -3.5475    2.3790   -0.3652 O   0  0  0  0  0  0  0  0  0  0  0  0
   -5.3103    1.2696    0.7959 C   0  0  0  0  0  0  0  0  0  0  0  0
   -6.1591    2.2594    0.4795 C   0  0  0  0  0  0  0  0  0  0  0  0
   -7.5405    2.2074    0.9271 C   0  0  0  0  0  0  0  0  0  0  0  0
   -7.9472    1.2530    1.8605 C   0  0  0  0  0  0  0  0  0  0  0  0
   -9.2269    1.1817    2.3044 N   0  0  0  0  0  0  0  0  0  0  0  0
  -10.1199    2.0481    1.7870 C   0  0  0  0  0  0  0  0  0  0  0  0
   -9.8051    3.0114    0.8556 C   0  0  0  0  0  0  0  0  0  0  0  0
   -8.4851    3.1088    0.4285 C   0  0  0  0  0  0  0  0  0  0  0  0
   -7.0115    0.2638    2.2785 N   0  0  0  0  0  0  0  0  0  0  0  0
   -5.7895    0.1276    1.6377 C   0  0  0  0  0  0  0  0  0  0  0  0
   -5.0898   -0.8826    1.7468 O   0  0  0  0  0  0  0  0  0  0  0  0
   -7.4397   -0.7301    3.2493 C   0  0  0  0  0  0  0  0  0  0  0  0
   -7.2147   -0.3527    4.7063 C   0  0  0  0  0  0  0  0  0  0  0  0
   -6.0939   -0.8311    5.4073 C   0  0  0  0  0  0  0  0  0  0  0  0
   -5.9927   -0.6519    6.7931 C   0  0  0  0  0  0  0  0  0  0  0  0
   -6.9931    0.0277    7.4738 C   0  0  0  0  0  0  0  0  0  0  0  0
   -8.0762    0.5686    6.7922 C   0  0  0  0  0  0  0  0  0  0  0  0
   -8.1827    0.3844    5.4097 C   0  0  0  0  0  0  0  0  0  0  0  0
   -6.9283    0.1455    8.8065 F   0  0  0  0  0  0  0  0  0  0  0  0
    0.6969   -3.4257    0.0763 H   0  0  0  0  0  0  0  0  0  0  0  0
    0.2789   -3.2967   -1.6380 H   0  0  0  0  0  0  0  0  0  0  0  0
   -0.9227   -2.9092   -0.4027 H   0  0  0  0  0  0  0  0  0  0  0  0
    1.6897   -1.4082   -0.9817 H   0  0  0  0  0  0  0  0  0  0  0  0
    1.1076    0.2104    0.7020 H   0  0  0  0  0  0  0  0  0  0  0  0
    1.0898   -1.3785    1.4529 H   0  0  0  0  0  0  0  0  0  0  0  0
   -0.8434    0.0332    2.1454 H   0  0  0  0  0  0  0  0  0  0  0  0
   -1.3532   -1.4595    1.3873 H   0  0  0  0  0  0  0  0  0  0  0  0
   -1.2848    1.3339    0.1490 H   0  0  0  0  0  0  0  0  0  0  0  0
   -2.0465    0.4288   -1.9621 H   0  0  0  0  0  0  0  0  0  0  0  0
   -2.1604   -1.1946   -1.3195 H   0  0  0  0  0  0  0  0  0  0  0  0
   -0.1253   -0.9967   -2.6673 H   0  0  0  0  0  0  0  0  0  0  0  0
    0.3755    0.4401   -1.7875 H   0  0  0  0  0  0  0  0  0  0  0  0
   -3.4756   -0.4666    1.0213 H   0  0  0  0  0  0  0  0  0  0  0  0
   -5.8425    3.1161   -0.1095 H   0  0  0  0  0  0  0  0  0  0  0  0
  -11.1444    1.9324    2.1473 H   0  0  0  0  0  0  0  0  0  0  0  0
  -10.5676    3.6800    0.4591 H   0  0  0  0  0  0  0  0  0  0  0  0
   -8.2100    3.8630   -0.3053 H   0  0  0  0  0  0  0  0  0  0  0  0
   -6.9054   -1.6688    3.0592 H   0  0  0  0  0  0  0  0  0  0  0  0
   -8.4955   -0.9871    3.1001 H   0  0  0  0  0  0  0  0  0  0  0  0
   -5.3144   -1.3861    4.8891 H   0  0  0  0  0  0  0  0  0  0  0  0
   -5.1554   -1.0632    7.3475 H   0  0  0  0  0  0  0  0  0  0  0  0
   -8.8455    1.1024    7.3412 H   0  0  0  0  0  0  0  0  0  0  0  0
   -9.0521    0.7840    4.8926 H   0  0  0  0  0  0  0  0  0  0  0  0
  1 30  1  0  0  0  0
  1 31  1  0  0  0  0
  1 32  1  0  0  0  0
  2  3  1  0  0  0  0
  2  7  1  0  0  0  0
  2  1  1  0  0  0  0
  2 33  1  6  0  0  0
  3  4  1  0  0  0  0
  3 34  1  0  0  0  0
  3 35  1  0  0  0  0
  4  5  1  0  0  0  0
  4 36  1  0  0  0  0
  4 37  1  0  0  0  0
  5  6  1  0  0  0  0
  5  8  1  0  0  0  0
  5 38  1  6  0  0  0
  6  7  1  0  0  0  0
  6 39  1  0  0  0  0
  6 40  1  0  0  0  0
  7 41  1  0  0  0  0
  7 42  1  0  0  0  0
  8  9  1  0  0  0  0
  8 43  1  0  0  0  0
  9 10  2  0  0  0  0
  9 11  1  0  0  0  0
 11 20  1  0  0  0  0
 11 12  2  0  0  0  0
 12 13  1  0  0  0  0
 12 44  1  0  0  0  0
 13 18  2  0  0  0  0
 13 14  1  0  0  0  0
 14 15  2  0  0  0  0
 14 19  1  0  0  0  0
 15 16  1  0  0  0  0
 16 17  2  0  0  0  0
 16 45  1  0  0  0  0
 17 18  1  0  0  0  0
 17 46  1  0  0  0  0
 18 47  1  0  0  0  0
 19 20  1  0  0  0  0
 19 22  1  0  0  0  0
 20 21  2  0  0  0  0
 22 23  1  0  0  0  0
 22 48  1  0  0  0  0
 22 49  1  0  0  0  0
 23 28  2  0  0  0  0
 23 24  1  0  0  0  0
 24 25  2  0  0  0  0
 24 50  1  0  0  0  0
 25 26  1  0  0  0  0
 25 51  1  0  0  0  0
 26 27  2  0  0  0  0
 26 29  1  0  0  0  0
 27 28  1  0  0  0  0
 27 52  1  0  0  0  0
 28 53  1  0  0  0  0
M  END
$$$$
CHEMBL2381799_8GUT
 OpenBabel12022418113D

 63 66  0  0  0  0  0  0  0  0999 V2000
    1.0718    0.0698   -0.0931 C   0  0  0  0  0  0  0  0  0  0  0  0
    0.5230    0.0113    1.3373 C   0  0  0  0  0  0  0  0  0  0  0  0
   -1.0104   -0.0216    1.3627 C   0  0  0  0  0  0  0  0  0  0  0  0
   -1.5388   -0.0407    2.7995 C   0  0  0  0  0  0  0  0  0  0  0  0
   -3.0591   -0.0614    2.8517 C   0  0  0  0  0  0  0  0  0  0  0  0
    2.5483    0.0142   -0.1034 N   0  0  0  0  0  0  0  0  0  0  0  0
    3.3465    1.1549   -0.0766 C   0  0  0  0  0  0  0  0  0  0  0  0
    4.6980    1.1690   -0.0789 C   0  0  0  0  0  0  0  0  0  0  0  0
    5.4035   -0.1422   -0.1040 C   0  0  0  0  0  0  0  0  0  0  0  0
    6.6236   -0.2670   -0.1325 O   0  0  0  0  0  0  0  0  0  0  0  0
    4.5443   -1.2626   -0.0925 N   0  0  0  0  0  0  0  0  0  0  0  0
    3.1640   -1.2034   -0.1052 C   0  0  0  0  0  0  0  0  0  0  0  0
    2.7197   -2.4992   -0.1286 C   0  0  0  0  0  0  0  0  0  0  0  0
    3.8811   -3.3132   -0.0681 C   0  0  0  0  0  0  0  0  0  0  0  0
    3.9433   -4.7850   -0.0599 C   0  0  0  0  0  0  0  0  0  0  0  0
    5.0133   -5.4115   -0.7289 C   0  0  0  0  0  0  0  0  0  0  0  0
    5.1000   -6.8057   -0.8163 C   0  0  0  0  0  0  0  0  0  0  0  0
    4.1148   -7.5966   -0.2361 C   0  0  0  0  0  0  0  0  0  0  0  0
    3.0581   -7.0083    0.4490 C   0  0  0  0  0  0  0  0  0  0  0  0
    2.9768   -5.6119    0.5511 C   0  0  0  0  0  0  0  0  0  0  0  0
    1.6615   -5.0131    1.5083 Cl  0  0  0  0  0  0  0  0  0  0  0  0
    4.2048   -9.3099   -0.3562 Cl  0  0  0  0  0  0  0  0  0  0  0  0
    4.9938   -2.5531   -0.0819 N   0  0  0  0  0  0  0  0  0  0  0  0
    5.3794    2.4983   -0.0485 C   0  0  0  0  0  0  0  0  0  0  0  0
    4.7151    3.5360   -0.0368 O   0  0  0  0  0  0  0  0  0  0  0  0
    6.7585    2.5128   -0.0306 N   0  0  0  0  0  0  0  0  0  0  0  0
    7.5195    3.7740    0.0165 C   0  0  0  0  0  0  0  0  0  0  0  0
    8.7660    3.6547    0.9157 C   0  0  0  0  0  0  0  0  0  0  0  0
   10.1418    3.7714    0.2519 C   0  0  0  0  0  0  0  0  0  0  0  0
   10.5377    5.2025   -0.1167 C   0  0  0  0  0  0  0  0  0  0  0  0
    9.8868    5.7557   -1.3789 C   0  0  0  0  0  0  0  0  0  0  0  0
    8.3630    5.7265   -1.3923 C   0  0  0  0  0  0  0  0  0  0  0  0
    7.7728    4.3143   -1.3970 C   0  0  0  0  0  0  0  0  0  0  0  0
    0.7306    0.9889   -0.5853 H   0  0  0  0  0  0  0  0  0  0  0  0
    0.6538   -0.7528   -0.6877 H   0  0  0  0  0  0  0  0  0  0  0  0
    0.8815    0.8816    1.9000 H   0  0  0  0  0  0  0  0  0  0  0  0
    0.9080   -0.8773    1.8527 H   0  0  0  0  0  0  0  0  0  0  0  0
   -1.3697   -0.9105    0.8293 H   0  0  0  0  0  0  0  0  0  0  0  0
   -1.4086    0.8540    0.8360 H   0  0  0  0  0  0  0  0  0  0  0  0
   -1.1769    0.8427    3.3381 H   0  0  0  0  0  0  0  0  0  0  0  0
   -1.1523   -0.9215    3.3254 H   0  0  0  0  0  0  0  0  0  0  0  0
   -3.4827    0.8218    2.3632 H   0  0  0  0  0  0  0  0  0  0  0  0
   -3.4005   -0.0678    3.8922 H   0  0  0  0  0  0  0  0  0  0  0  0
   -3.4592   -0.9535    2.3596 H   0  0  0  0  0  0  0  0  0  0  0  0
    2.7730    2.0803   -0.0485 H   0  0  0  0  0  0  0  0  0  0  0  0
    1.6905   -2.8194   -0.1721 H   0  0  0  0  0  0  0  0  0  0  0  0
    5.7913   -4.8092   -1.1981 H   0  0  0  0  0  0  0  0  0  0  0  0
    5.9354   -7.2625   -1.3412 H   0  0  0  0  0  0  0  0  0  0  0  0
    2.2993   -7.6351    0.9122 H   0  0  0  0  0  0  0  0  0  0  0  0
    7.2634    1.6313   -0.1256 H   0  0  0  0  0  0  0  0  0  0  0  0
    6.8583    4.4944    0.5165 H   0  0  0  0  0  0  0  0  0  0  0  0
    8.7318    2.7065    1.4670 H   0  0  0  0  0  0  0  0  0  0  0  0
    8.7010    4.4349    1.6871 H   0  0  0  0  0  0  0  0  0  0  0  0
   10.2277    3.1027   -0.6112 H   0  0  0  0  0  0  0  0  0  0  0  0
   10.8818    3.4189    0.9830 H   0  0  0  0  0  0  0  0  0  0  0  0
   11.6248    5.2275   -0.2722 H   0  0  0  0  0  0  0  0  0  0  0  0
   10.3402    5.8760    0.7263 H   0  0  0  0  0  0  0  0  0  0  0  0
   10.2709    5.2174   -2.2539 H   0  0  0  0  0  0  0  0  0  0  0  0
   10.2116    6.7980   -1.4986 H   0  0  0  0  0  0  0  0  0  0  0  0
    8.0343    6.2369   -2.3065 H   0  0  0  0  0  0  0  0  0  0  0  0
    7.9662    6.3128   -0.5547 H   0  0  0  0  0  0  0  0  0  0  0  0
    6.8138    4.3539   -1.9298 H   0  0  0  0  0  0  0  0  0  0  0  0
    8.4004    3.6268   -1.9775 H   0  0  0  0  0  0  0  0  0  0  0  0
  1  2  1  0  0  0  0
  1  6  1  0  0  0  0
  1 34  1  0  0  0  0
  1 35  1  0  0  0  0
  2  3  1  0  0  0  0
  2 36  1  0  0  0  0
  2 37  1  0  0  0  0
  3  4  1  0  0  0  0
  3 38  1  0  0  0  0
  3 39  1  0  0  0  0
  4  5  1  0  0  0  0
  4 40  1  0  0  0  0
  4 41  1  0  0  0  0
  5 42  1  0  0  0  0
  5 43  1  0  0  0  0
  5 44  1  0  0  0  0
  6 12  1  0  0  0  0
  6  7  1  0  0  0  0
  7  8  2  0  0  0  0
  7 45  1  0  0  0  0
  8  9  1  0  0  0  0
  8 24  1  0  0  0  0
  9 10  2  0  0  0  0
  9 11  1  0  0  0  0
 11 23  1  0  0  0  0
 11 12  1  0  0  0  0
 12 13  2  0  0  0  0
 13 14  1  0  0  0  0
 13 46  1  0  0  0  0
 14 15  1  0  0  0  0
 14 23  2  0  0  0  0
 15 20  2  0  0  0  0
 15 16  1  0  0  0  0
 16 17  2  0  0  0  0
 16 47  1  0  0  0  0
 17 18  1  0  0  0  0
 17 48  1  0  0  0  0
 18 19  2  0  0  0  0
 18 22  1  0  0  0  0
 19 20  1  0  0  0  0
 19 49  1  0  0  0  0
 20 21  1  0  0  0  0
 24 25  2  0  0  0  0
 24 26  1  0  0  0  0
 26 27  1  0  0  0  0
 26 50  1  0  0  0  0
 27 33  1  0  0  0  0
 27 28  1  0  0  0  0
 27 51  1  0  0  0  0
 28 29  1  0  0  0  0
 28 52  1  0  0  0  0
 28 53  1  0  0  0  0
 29 30  1  0  0  0  0
 29 54  1  0  0  0  0
 29 55  1  0  0  0  0
 30 31  1  0  0  0  0
 30 56  1  0  0  0  0
 30 57  1  0  0  0  0
 31 32  1  0  0  0  0
 31 58  1  0  0  0  0
 31 59  1  0  0  0  0
 32 33  1  0  0  0  0
 32 60  1  0  0  0  0
 32 61  1  0  0  0  0
 33 62  1  0  0  0  0
 33 63  1  0  0  0  0
M  END
$$$$
CHEMBL2381785_5ZTY
 OpenBabel12022418113D

 63 66  0  0  0  0  0  0  0  0999 V2000
    1.0493   -0.0148   -0.0006 C   0  0  0  0  0  0  0  0  0  0  0  0
    0.4765   -0.0305    1.4218 C   0  0  0  0  0  0  0  0  0  0  0  0
   -1.0574   -0.0563    1.4322 C   0  0  0  0  0  0  0  0  0  0  0  0
   -1.5866   -0.0480    2.8682 C   0  0  0  0  0  0  0  0  0  0  0  0
   -3.1054   -0.0602    2.9192 C   0  0  0  0  0  0  0  0  0  0  0  0
    2.5242   -0.0530    0.0185 N   0  0  0  0  0  0  0  0  0  0  0  0
    3.3263    1.0932    0.0317 C   0  0  0  0  0  0  0  0  0  0  0  0
    4.6786    1.1121    0.0430 C   0  0  0  0  0  0  0  0  0  0  0  0
    5.3803   -0.1983    0.0518 C   0  0  0  0  0  0  0  0  0  0  0  0
    6.6038   -0.3238    0.0536 O   0  0  0  0  0  0  0  0  0  0  0  0
    4.5235   -1.3223    0.0581 N   0  0  0  0  0  0  0  0  0  0  0  0
    3.1435   -1.2717    0.0357 C   0  0  0  0  0  0  0  0  0  0  0  0
    2.7077   -2.5736    0.0216 C   0  0  0  0  0  0  0  0  0  0  0  0
    3.8777   -3.3690    0.0346 C   0  0  0  0  0  0  0  0  0  0  0  0
    3.9410   -4.8342   -0.0009 C   0  0  0  0  0  0  0  0  0  0  0  0
    5.0100   -5.5173    0.5919 C   0  0  0  0  0  0  0  0  0  0  0  0
    5.0745   -6.9124    0.5511 C   0  0  0  0  0  0  0  0  0  0  0  0
    4.0800   -7.6408   -0.0974 C   0  0  0  0  0  0  0  0  0  0  0  0
    3.0081   -6.9756   -0.6902 C   0  0  0  0  0  0  0  0  0  0  0  0
    2.9330   -5.5818   -0.6348 C   0  0  0  0  0  0  0  0  0  0  0  0
    4.9855   -2.6043    0.0824 N   0  0  0  0  0  0  0  0  0  0  0  0
    5.3810    2.4403    0.0510 C   0  0  0  0  0  0  0  0  0  0  0  0
    4.7298    3.4842    0.0733 O   0  0  0  0  0  0  0  0  0  0  0  0
    6.7653    2.4443    0.0219 N   0  0  0  0  0  0  0  0  0  0  0  0
    7.5418    3.7015    0.0198 C   0  0  0  0  0  0  0  0  0  0  0  0
    7.6338    4.3374    1.4258 C   0  0  0  0  0  0  0  0  0  0  0  0
    9.0141    4.4110    2.0936 C   0  0  0  0  0  0  0  0  0  0  0  0
    9.9108    5.5309    1.5596 C   0  0  0  0  0  0  0  0  0  0  0  0
   10.5571    5.2650    0.2032 C   0  0  0  0  0  0  0  0  0  0  0  0
    9.5951    4.8851   -0.9152 C   0  0  0  0  0  0  0  0  0  0  0  0
    8.8900    3.5398   -0.6967 C   0  0  0  0  0  0  0  0  0  0  0  0
    0.7000    0.8767   -0.5369 H   0  0  0  0  0  0  0  0  0  0  0  0
    0.6473   -0.8687   -0.5641 H   0  0  0  0  0  0  0  0  0  0  0  0
    0.8316    0.8499    1.9663 H   0  0  0  0  0  0  0  0  0  0  0  0
    0.8487   -0.9096    1.9651 H   0  0  0  0  0  0  0  0  0  0  0  0
   -1.4203   -0.9510    0.9122 H   0  0  0  0  0  0  0  0  0  0  0  0
   -1.4473    0.8133    0.8895 H   0  0  0  0  0  0  0  0  0  0  0  0
   -1.2193    0.8430    3.3914 H   0  0  0  0  0  0  0  0  0  0  0  0
   -1.2037   -0.9213    3.4093 H   0  0  0  0  0  0  0  0  0  0  0  0
   -3.5228    0.8179    2.4168 H   0  0  0  0  0  0  0  0  0  0  0  0
   -3.4475   -0.0501    3.9591 H   0  0  0  0  0  0  0  0  0  0  0  0
   -3.5082   -0.9576    2.4388 H   0  0  0  0  0  0  0  0  0  0  0  0
    2.7480    2.0173    0.0243 H   0  0  0  0  0  0  0  0  0  0  0  0
    1.6836   -2.9143    0.0045 H   0  0  0  0  0  0  0  0  0  0  0  0
    5.8007   -4.9615    1.0940 H   0  0  0  0  0  0  0  0  0  0  0  0
    5.9089   -7.4290    1.0194 H   0  0  0  0  0  0  0  0  0  0  0  0
    4.1411   -8.7253   -0.1455 H   0  0  0  0  0  0  0  0  0  0  0  0
    2.2342   -7.5428   -1.2041 H   0  0  0  0  0  0  0  0  0  0  0  0
    2.0894   -5.0904   -1.1113 H   0  0  0  0  0  0  0  0  0  0  0  0
    7.2619    1.5532    0.0186 H   0  0  0  0  0  0  0  0  0  0  0  0
    6.9459    4.3931   -0.5917 H   0  0  0  0  0  0  0  0  0  0  0  0
    6.9560    3.8144    2.1111 H   0  0  0  0  0  0  0  0  0  0  0  0
    7.2431    5.3622    1.3580 H   0  0  0  0  0  0  0  0  0  0  0  0
    9.5292    3.4447    2.0626 H   0  0  0  0  0  0  0  0  0  0  0  0
    8.8457    4.6277    3.1572 H   0  0  0  0  0  0  0  0  0  0  0  0
   10.7211    5.6969    2.2817 H   0  0  0  0  0  0  0  0  0  0  0  0
    9.3482    6.4717    1.5211 H   0  0  0  0  0  0  0  0  0  0  0  0
   11.3225    4.4884    0.3098 H   0  0  0  0  0  0  0  0  0  0  0  0
   11.0932    6.1775   -0.0973 H   0  0  0  0  0  0  0  0  0  0  0  0
   10.1797    4.8209   -1.8420 H   0  0  0  0  0  0  0  0  0  0  0  0
    8.8643    5.6881   -1.0706 H   0  0  0  0  0  0  0  0  0  0  0  0
    8.7056    3.0904   -1.6809 H   0  0  0  0  0  0  0  0  0  0  0  0
    9.5441    2.8339   -0.1700 H   0  0  0  0  0  0  0  0  0  0  0  0
  1  2  1  0  0  0  0
  1  6  1  0  0  0  0
  1 32  1  0  0  0  0
  1 33  1  0  0  0  0
  2  3  1  0  0  0  0
  2 34  1  0  0  0  0
  2 35  1  0  0  0  0
  3  4  1  0  0  0  0
  3 36  1  0  0  0  0
  3 37  1  0  0  0  0
  4  5  1  0  0  0  0
  4 38  1  0  0  0  0
  4 39  1  0  0  0  0
  5 40  1  0  0  0  0
  5 41  1  0  0  0  0
  5 42  1  0  0  0  0
  6 12  1  0  0  0  0
  6  7  1  0  0  0  0
  7  8  2  0  0  0  0
  7 43  1  0  0  0  0
  8  9  1  0  0  0  0
  8 22  1  0  0  0  0
  9 10  2  0  0  0  0
  9 11  1  0  0  0  0
 11 21  1  0  0  0  0
 11 12  1  0  0  0  0
 12 13  2  0  0  0  0
 13 14  1  0  0  0  0
 13 44  1  0  0  0  0
 14 15  1  0  0  0  0
 14 21  2  0  0  0  0
 15 20  2  0  0  0  0
 15 16  1  0  0  0  0
 16 17  2  0  0  0  0
 16 45  1  0  0  0  0
 17 18  1  0  0  0  0
 17 46  1  0  0  0  0
 18 19  2  0  0  0  0
 18 47  1  0  0  0  0
 19 20  1  0  0  0  0
 19 48  1  0  0  0  0
 20 49  1  0  0  0  0
 22 23  2  0  0  0  0
 22 24  1  0  0  0  0
 24 25  1  0  0  0  0
 24 50  1  0  0  0  0
 25 31  1  0  0  0  0
 25 26  1  0  0  0  0
 25 51  1  0  0  0  0
 26 27  1  0  0  0  0
 26 52  1  0  0  0  0
 26 53  1  0  0  0  0
 27 28  1  0  0  0  0
 27 54  1  0  0  0  0
 27 55  1  0  0  0  0
 28 29  1  0  0  0  0
 28 56  1  0  0  0  0
 28 57  1  0  0  0  0
 29 30  1  0  0  0  0
 29 58  1  0  0  0  0
 29 59  1  0  0  0  0
 30 31  1  0  0  0  0
 30 60  1  0  0  0  0
 30 61  1  0  0  0  0
 31 62  1  0  0  0  0
 31 63  1  0  0  0  0
M  END
$$$$
CHEMBL2381673_5ZTY
 OpenBabel12022418113D

 60 63  0  0  0  0  0  0  0  0999 V2000
    1.0956    0.1427   -0.0896 C   0  0  0  0  0  0  0  0  0  0  0  0
    0.5371    0.1408    1.3397 C   0  0  0  0  0  0  0  0  0  0  0  0
   -0.9966    0.1121    1.3734 C   0  0  0  0  0  0  0  0  0  0  0  0
   -1.5009    0.1281    2.8191 C   0  0  0  0  0  0  0  0  0  0  0  0
   -3.0185    0.1089    2.8991 C   0  0  0  0  0  0  0  0  0  0  0  0
    2.5733    0.1180   -0.0860 N   0  0  0  0  0  0  0  0  0  0  0  0
    3.3649    1.2702   -0.0510 C   0  0  0  0  0  0  0  0  0  0  0  0
    4.7208    1.3053   -0.0064 C   0  0  0  0  0  0  0  0  0  0  0  0
    5.4348    0.0011    0.0560 C   0  0  0  0  0  0  0  0  0  0  0  0
    6.6574   -0.1128    0.0963 O   0  0  0  0  0  0  0  0  0  0  0  0
    4.5897   -1.1289    0.0372 N   0  0  0  0  0  0  0  0  0  0  0  0
    3.2053   -1.0943   -0.0629 C   0  0  0  0  0  0  0  0  0  0  0  0
    2.7869   -2.3976   -0.1425 C   0  0  0  0  0  0  0  0  0  0  0  0
    3.9643   -3.1670   -0.0030 C   0  0  0  0  0  0  0  0  0  0  0  0
    3.9813   -4.6578    0.0013 C   0  0  0  0  0  0  0  0  0  0  0  0
    5.0783   -5.4652    0.2290 C   0  0  0  0  0  0  0  0  0  0  0  0
    4.6234   -6.8050    0.1516 C   0  0  0  0  0  0  0  0  0  0  0  0
    3.2831   -6.7360   -0.1415 C   0  0  0  0  0  0  0  0  0  0  0  0
    2.8800   -5.4422   -0.2206 O   0  0  0  0  0  0  0  0  0  0  0  0
    5.0589   -2.4061    0.1288 N   0  0  0  0  0  0  0  0  0  0  0  0
    5.4083    2.6366   -0.0011 C   0  0  0  0  0  0  0  0  0  0  0  0
    4.7457    3.6709   -0.0400 O   0  0  0  0  0  0  0  0  0  0  0  0
    6.7937    2.6604    0.0470 N   0  0  0  0  0  0  0  0  0  0  0  0
    7.5459    3.9330    0.0678 C   0  0  0  0  0  0  0  0  0  0  0  0
    8.7495    3.8995    1.0344 C   0  0  0  0  0  0  0  0  0  0  0  0
   10.1575    4.0091    0.4341 C   0  0  0  0  0  0  0  0  0  0  0  0
   10.5507    5.4272    0.0102 C   0  0  0  0  0  0  0  0  0  0  0  0
    9.9361    5.9214   -1.2947 C   0  0  0  0  0  0  0  0  0  0  0  0
    8.4158    5.8443   -1.3727 C   0  0  0  0  0  0  0  0  0  0  0  0
    7.8684    4.4134   -1.3534 C   0  0  0  0  0  0  0  0  0  0  0  0
    0.7334    1.0211   -0.6344 H   0  0  0  0  0  0  0  0  0  0  0  0
    0.6957   -0.7247   -0.6328 H   0  0  0  0  0  0  0  0  0  0  0  0
    0.8938    1.0311    1.8709 H   0  0  0  0  0  0  0  0  0  0  0  0
    0.9186   -0.7290    1.8892 H   0  0  0  0  0  0  0  0  0  0  0  0
   -1.3671   -0.7872    0.8652 H   0  0  0  0  0  0  0  0  0  0  0  0
   -1.3988    0.9772    0.8324 H   0  0  0  0  0  0  0  0  0  0  0  0
   -1.1284    1.0241    3.3293 H   0  0  0  0  0  0  0  0  0  0  0  0
   -1.1042   -0.7396    3.3593 H   0  0  0  0  0  0  0  0  0  0  0  0
   -3.4495    0.9818    2.3991 H   0  0  0  0  0  0  0  0  0  0  0  0
   -3.3405    0.1247    3.9456 H   0  0  0  0  0  0  0  0  0  0  0  0
   -3.4259   -0.7937    2.4331 H   0  0  0  0  0  0  0  0  0  0  0  0
    2.7796    2.1926   -0.0780 H   0  0  0  0  0  0  0  0  0  0  0  0
    1.7829   -2.7692   -0.2652 H   0  0  0  0  0  0  0  0  0  0  0  0
    6.0809   -5.1180    0.4379 H   0  0  0  0  0  0  0  0  0  0  0  0
    5.2030   -7.7071    0.2870 H   0  0  0  0  0  0  0  0  0  0  0  0
    2.5142   -7.4773   -0.3130 H   0  0  0  0  0  0  0  0  0  0  0  0
    7.3103    1.7796   -0.0091 H   0  0  0  0  0  0  0  0  0  0  0  0
    6.8512    4.6680    0.4953 H   0  0  0  0  0  0  0  0  0  0  0  0
    8.7048    2.9927    1.6490 H   0  0  0  0  0  0  0  0  0  0  0  0
    8.6324    4.7319    1.7439 H   0  0  0  0  0  0  0  0  0  0  0  0
   10.2998    3.2980   -0.3863 H   0  0  0  0  0  0  0  0  0  0  0  0
   10.8662    3.7109    1.2188 H   0  0  0  0  0  0  0  0  0  0  0  0
   11.6421    5.4590   -0.1109 H   0  0  0  0  0  0  0  0  0  0  0  0
   10.3200    6.1351    0.8160 H   0  0  0  0  0  0  0  0  0  0  0  0
   10.3735    5.3703   -2.1360 H   0  0  0  0  0  0  0  0  0  0  0  0
   10.2342    6.9696   -1.4332 H   0  0  0  0  0  0  0  0  0  0  0  0
    8.1109    6.3152   -2.3157 H   0  0  0  0  0  0  0  0  0  0  0  0
    7.9673    6.4449   -0.5722 H   0  0  0  0  0  0  0  0  0  0  0  0
    6.9444    4.3977   -1.9439 H   0  0  0  0  0  0  0  0  0  0  0  0
    8.5529    3.7227   -1.8622 H   0  0  0  0  0  0  0  0  0  0  0  0
  1  2  1  0  0  0  0
  1  6  1  0  0  0  0
  1 31  1  0  0  0  0
  1 32  1  0  0  0  0
  2  3  1  0  0  0  0
  2 33  1  0  0  0  0
  2 34  1  0  0  0  0
  3  4  1  0  0  0  0
  3 35  1  0  0  0  0
  3 36  1  0  0  0  0
  4  5  1  0  0  0  0
  4 37  1  0  0  0  0
  4 38  1  0  0  0  0
  5 39  1  0  0  0  0
  5 40  1  0  0  0  0
  5 41  1  0  0  0  0
  6 12  1  0  0  0  0
  6  7  1  0  0  0  0
  7  8  2  0  0  0  0
  7 42  1  0  0  0  0
  8  9  1  0  0  0  0
  8 21  1  0  0  0  0
  9 10  2  0  0  0  0
  9 11  1  0  0  0  0
 11 20  1  0  0  0  0
 11 12  1  0  0  0  0
 12 13  2  0  0  0  0
 13 14  1  0  0  0  0
 13 43  1  0  0  0  0
 14 15  1  0  0  0  0
 14 20  2  0  0  0  0
 15 19  1  0  0  0  0
 15 16  2  0  0  0  0
 16 17  1  0  0  0  0
 16 44  1  0  0  0  0
 17 18  2  0  0  0  0
 17 45  1  0  0  0  0
 18 19  1  0  0  0  0
 18 46  1  0  0  0  0
 21 22  2  0  0  0  0
 21 23  1  0  0  0  0
 23 24  1  0  0  0  0
 23 47  1  0  0  0  0
 24 30  1  0  0  0  0
 24 25  1  0  0  0  0
 24 48  1  0  0  0  0
 25 26  1  0  0  0  0
 25 49  1  0  0  0  0
 25 50  1  0  0  0  0
 26 27  1  0  0  0  0
 26 51  1  0  0  0  0
 26 52  1  0  0  0  0
 27 28  1  0  0  0  0
 27 53  1  0  0  0  0
 27 54  1  0  0  0  0
 28 29  1  0  0  0  0
 28 55  1  0  0  0  0
 28 56  1  0  0  0  0
 29 30  1  0  0  0  0
 29 57  1  0  0  0  0
 29 58  1  0  0  0  0
 30 59  1  0  0  0  0
 30 60  1  0  0  0  0
M  END
$$$$
CHEMBL2170528_5ZTY
 OpenBabel12022418113D

 74 78  0  0  1  0  0  0  0  0999 V2000
    4.5025    3.2227    2.1250 C   0  0  0  0  0  0  0  0  0  0  0  0
    4.2134    1.8991    2.8139 C   0  0  0  0  0  0  0  0  0  0  0  0
    4.8958    0.7181    2.1159 C   0  0  0  0  0  0  0  0  0  0  0  0
    4.6128   -0.5840    2.8719 C   0  0  0  0  0  0  0  0  0  0  0  0
    5.2165   -1.8340    2.2206 C   0  0  0  0  0  0  0  0  0  0  0  0
    6.7023   -1.8172    2.1473 N   0  0  0  0  0  0  0  0  0  0  0  0
    7.4427   -1.8419    3.3335 C   0  0  0  0  0  0  0  0  0  0  0  0
    8.7808   -1.8035    3.4483 C   0  0  0  0  0  0  0  0  0  0  0  0
    9.3931   -1.8779    4.8043 C   0  0  0  0  0  0  0  0  0  0  0  0
    8.6431   -1.9576    5.7794 O   0  0  0  0  0  0  0  0  0  0  0  0
   10.7754   -1.8944    4.9138 N   0  0  0  0  0  0  0  0  0  0  0  0
   11.4310   -1.9854    6.2394 C   0  0  1  0  0  0  0  0  0  0  0  0
   11.0410   -0.7378    7.0752 C   0  0  0  0  0  0  0  0  0  0  0  0
   11.5217   -0.8677    8.5198 C   0  0  2  0  0  0  0  0  0  0  0  0
   13.0547   -0.9002    8.5245 C   0  0  0  0  0  0  0  0  0  0  0  0
   13.5502   -2.0906    7.6838 C   0  0  1  0  0  0  0  0  0  0  0  0
   13.0426   -3.3738    8.3662 C   0  0  0  0  0  0  0  0  0  0  0  0
   11.5097   -3.3892    8.3582 C   0  0  1  0  0  0  0  0  0  0  0  0
   10.9561   -2.1689    9.1120 C   0  0  0  0  0  0  0  0  0  0  0  0
   11.0310   -3.3256    6.9080 C   0  0  0  0  0  0  0  0  0  0  0  0
   12.9968   -1.9931    6.2232 C   0  0  0  0  0  0  0  0  0  0  0  0
    9.5438   -1.6968    2.1922 C   0  0  0  0  0  0  0  0  0  0  0  0
   10.7679   -1.5730    2.2148 O   0  0  0  0  0  0  0  0  0  0  0  0
    8.7749   -1.7819    0.9056 C   0  0  0  0  0  0  0  0  0  0  0  0
    9.5527   -1.7490   -0.3379 C   0  0  0  0  0  0  0  0  0  0  0  0
   10.1131   -2.9225   -0.8426 C   0  0  0  0  0  0  0  0  0  0  0  0
   10.9445   -2.8721   -1.9603 C   0  0  0  0  0  0  0  0  0  0  0  0
   11.2300   -1.6435   -2.5724 C   0  0  0  0  0  0  0  0  0  0  0  0
   12.2261   -1.5798   -3.6977 C   0  0  0  0  0  0  0  0  0  0  0  0
   11.5942   -1.7983   -5.0608 C   0  0  0  0  0  0  0  0  0  0  0  0
   10.6134   -0.4785   -2.1013 C   0  0  0  0  0  0  0  0  0  0  0  0
    9.7796   -0.5273   -0.9857 C   0  0  0  0  0  0  0  0  0  0  0  0
    7.4229   -1.8791    0.9267 C   0  0  0  0  0  0  0  0  0  0  0  0
    6.6666   -2.1021   -0.3730 C   0  0  0  0  0  0  0  0  0  0  0  0
    4.0043    4.0401    2.6571 H   0  0  0  0  0  0  0  0  0  0  0  0
    4.1378    3.2189    1.0932 H   0  0  0  0  0  0  0  0  0  0  0  0
    5.5764    3.4331    2.1127 H   0  0  0  0  0  0  0  0  0  0  0  0
    3.1286    1.7396    2.8384 H   0  0  0  0  0  0  0  0  0  0  0  0
    4.5531    1.9593    3.8545 H   0  0  0  0  0  0  0  0  0  0  0  0
    5.9757    0.8972    2.0659 H   0  0  0  0  0  0  0  0  0  0  0  0
    4.5295    0.6385    1.0847 H   0  0  0  0  0  0  0  0  0  0  0  0
    3.5250   -0.7270    2.9188 H   0  0  0  0  0  0  0  0  0  0  0  0
    4.9557   -0.4899    3.9085 H   0  0  0  0  0  0  0  0  0  0  0  0
    4.7447   -1.9396    1.2417 H   0  0  0  0  0  0  0  0  0  0  0  0
    4.9079   -2.7176    2.7946 H   0  0  0  0  0  0  0  0  0  0  0  0
    6.8203   -1.9189    4.2255 H   0  0  0  0  0  0  0  0  0  0  0  0
   11.3349   -1.7761    4.0704 H   0  0  0  0  0  0  0  0  0  0  0  0
    9.9642   -0.5592    7.0824 H   0  0  0  0  0  0  0  0  0  0  0  0
   11.4807    0.1608    6.6156 H   0  0  0  0  0  0  0  0  0  0  0  0
   11.1661   -0.0091    9.1005 H   0  0  0  0  0  0  0  0  0  0  0  0
   13.4164   -0.9829    9.5579 H   0  0  0  0  0  0  0  0  0  0  0  0
   13.4572    0.0371    8.1230 H   0  0  0  0  0  0  0  0  0  0  0  0
   14.6463   -2.0957    7.6726 H   0  0  0  0  0  0  0  0  0  0  0  0
   13.4052   -3.4281    9.4011 H   0  0  0  0  0  0  0  0  0  0  0  0
   13.4353   -4.2564    7.8476 H   0  0  0  0  0  0  0  0  0  0  0  0
   11.1448   -4.3112    8.8248 H   0  0  0  0  0  0  0  0  0  0  0  0
    9.8595   -2.1594    9.0440 H   0  0  0  0  0  0  0  0  0  0  0  0
   11.2098   -2.2379   10.1746 H   0  0  0  0  0  0  0  0  0  0  0  0
   11.4664   -4.1630    6.3373 H   0  0  0  0  0  0  0  0  0  0  0  0
    9.9538   -3.5021    6.8917 H   0  0  0  0  0  0  0  0  0  0  0  0
   13.3879   -1.0842    5.7479 H   0  0  0  0  0  0  0  0  0  0  0  0
   13.3776   -2.8378    5.6347 H   0  0  0  0  0  0  0  0  0  0  0  0
    9.9319   -3.8759   -0.3508 H   0  0  0  0  0  0  0  0  0  0  0  0
   11.3987   -3.7890   -2.3224 H   0  0  0  0  0  0  0  0  0  0  0  0
   13.0068   -2.3317   -3.5282 H   0  0  0  0  0  0  0  0  0  0  0  0
   12.7371   -0.6093   -3.6761 H   0  0  0  0  0  0  0  0  0  0  0  0
   11.1041   -2.7753   -5.1214 H   0  0  0  0  0  0  0  0  0  0  0  0
   12.3646   -1.7562   -5.8373 H   0  0  0  0  0  0  0  0  0  0  0  0
   10.8467   -1.0293   -5.2806 H   0  0  0  0  0  0  0  0  0  0  0  0
   10.8118    0.4813   -2.5723 H   0  0  0  0  0  0  0  0  0  0  0  0
    9.3445    0.3892   -0.6002 H   0  0  0  0  0  0  0  0  0  0  0  0
    5.7740   -2.7144   -0.2435 H   0  0  0  0  0  0  0  0  0  0  0  0
    7.2613   -2.6764   -1.0981 H   0  0  0  0  0  0  0  0  0  0  0  0
    6.3908   -1.1499   -0.8283 H   0  0  0  0  0  0  0  0  0  0  0  0
  1  2  1  0  0  0  0
  1 35  1  0  0  0  0
  1 36  1  0  0  0  0
  1 37  1  0  0  0  0
  2  3  1  0  0  0  0
  2 38  1  0  0  0  0
  2 39  1  0  0  0  0
  3  4  1  0  0  0  0
  3 40  1  0  0  0  0
  3 41  1  0  0  0  0
  4  5  1  0  0  0  0
  4 42  1  0  0  0  0
  4 43  1  0  0  0  0
  5  6  1  0  0  0  0
  5 44  1  0  0  0  0
  5 45  1  0  0  0  0
  6 33  1  0  0  0  0
  6  7  1  0  0  0  0
  7  8  2  0  0  0  0
  7 46  1  0  0  0  0
  8  9  1  0  0  0  0
  8 22  1  0  0  0  0
  9 10  2  0  0  0  0
  9 11  1  0  0  0  0
 11 47  1  0  0  0  0
 12 11  1  6  0  0  0
 12 20  1  0  0  0  0
 12 21  1  0  0  0  0
 12 13  1  0  0  0  0
 13 48  1  0  0  0  0
 13 49  1  0  0  0  0
 14 13  1  0  0  0  0
 14 15  1  0  0  0  0
 14 19  1  0  0  0  0
 14 50  1  1  0  0  0
 15 51  1  0  0  0  0
 15 52  1  0  0  0  0
 16 15  1  0  0  0  0
 16 17  1  0  0  0  0
 16 21  1  0  0  0  0
 16 53  1  6  0  0  0
 17 54  1  0  0  0  0
 17 55  1  0  0  0  0
 18 17  1  0  0  0  0
 18 19  1  0  0  0  0
 18 20  1  0  0  0  0
 18 56  1  1  0  0  0
 19 57  1  0  0  0  0
 19 58  1  0  0  0  0
 20 59  1  0  0  0  0
 20 60  1  0  0  0  0
 21 61  1  0  0  0  0
 21 62  1  0  0  0  0
 22 23  2  0  0  0  0
 22 24  1  0  0  0  0
 24 25  1  0  0  0  0
 24 33  2  0  0  0  0
 25 32  2  0  0  0  0
 25 26  1  0  0  0  0
 26 27  2  0  0  0  0
 26 63  1  0  0  0  0
 27 28  1  0  0  0  0
 27 64  1  0  0  0  0
 28 29  1  0  0  0  0
 28 31  2  0  0  0  0
 29 30  1  0  0  0  0
 29 65  1  0  0  0  0
 29 66  1  0  0  0  0
 30 67  1  0  0  0  0
 30 68  1  0  0  0  0
 30 69  1  0  0  0  0
 31 32  1  0  0  0  0
 31 70  1  0  0  0  0
 32 71  1  0  0  0  0
 33 34  1  0  0  0  0
 34 72  1  0  0  0  0
 34 73  1  0  0  0  0
 34 74  1  0  0  0  0
M  END
$$$$
CHEMBL381689_5ZTY
 OpenBabel12022418113D

 68 72  0  0  1  0  0  0  0  0999 V2000
   -0.7484   -1.0984    3.3481 N   0  0  0  0  0  0  0  0  0  0  0  0
   -1.0467   -2.3728    3.7007 N   0  0  0  0  0  0  0  0  0  0  0  0
   -1.3555   -2.9852    2.5391 C   0  0  0  0  0  0  0  0  0  0  0  0
   -1.2291   -2.0669    1.4577 C   0  0  0  0  0  0  0  0  0  0  0  0
   -1.0120   -0.8252    2.0310 C   0  0  0  0  0  0  0  0  0  0  0  0
   -0.9830    0.4710    1.3785 C   0  0  0  0  0  0  0  0  0  0  0  0
   -0.5920    0.5588    0.0368 C   0  0  0  0  0  0  0  0  0  0  0  0
   -0.5049    1.7937   -0.6094 C   0  0  0  0  0  0  0  0  0  0  0  0
   -0.8829    2.9409    0.1042 C   0  0  0  0  0  0  0  0  0  0  0  0
   -1.3074    2.8560    1.4295 C   0  0  0  0  0  0  0  0  0  0  0  0
   -1.3605    1.6218    2.0529 C   0  0  0  0  0  0  0  0  0  0  0  0
   -0.8436    4.5003   -0.6252 Cl  0  0  0  0  0  0  0  0  0  0  0  0
   -0.0116    1.8423   -2.0256 C   0  0  0  0  0  0  0  0  0  0  0  0
   -1.7957   -4.4056    2.4450 C   0  0  0  0  0  0  0  0  0  0  0  0
   -2.0382   -4.9385    1.4004 O   0  0  0  0  0  0  0  0  0  0  0  0
   -1.8537   -5.0941    3.6500 N   0  0  0  0  0  0  0  0  0  0  0  0
   -2.2087   -6.4986    3.8394 C   0  0  2  0  0  0  0  0  0  0  0  0
   -3.6237   -7.1088    3.4346 C   0  0  1  0  0  0  0  0  0  0  0  0
   -3.4205   -8.6593    3.3363 C   0  0  0  0  0  0  0  0  0  0  0  0
   -3.2859   -9.0955    4.8023 C   0  0  0  0  0  0  0  0  0  0  0  0
   -3.3990   -7.7683    5.5683 C   0  0  2  0  0  0  0  0  0  0  0  0
   -4.4483   -7.0391    4.7258 C   0  0  0  0  0  0  0  0  0  0  0  0
   -2.1334   -6.8783    5.3714 C   0  0  0  0  0  0  0  0  0  0  0  0
   -0.7982   -7.5878    5.6388 C   0  0  0  0  0  0  0  0  0  0  0  0
   -2.2254   -5.6728    6.3387 C   0  0  0  0  0  0  0  0  0  0  0  0
   -4.4064   -6.5803    2.2458 C   0  0  0  0  0  0  0  0  0  0  0  0
   -0.0885   -0.2286    4.3212 C   0  0  0  0  0  0  0  0  0  0  0  0
   -1.0291    0.6709    5.0861 C   0  0  0  0  0  0  0  0  0  0  0  0
   -0.5507    1.9260    5.4991 C   0  0  0  0  0  0  0  0  0  0  0  0
   -1.3875    2.8242    6.1568 C   0  0  0  0  0  0  0  0  0  0  0  0
   -2.7194    2.4898    6.4197 C   0  0  0  0  0  0  0  0  0  0  0  0
   -3.2018    1.2433    6.0166 C   0  0  0  0  0  0  0  0  0  0  0  0
   -2.3652    0.3403    5.3629 C   0  0  0  0  0  0  0  0  0  0  0  0
   -3.6416    3.4422    7.1168 C   0  0  0  0  0  0  0  0  0  0  0  0
   -1.3789   -2.2222    0.4008 H   0  0  0  0  0  0  0  0  0  0  0  0
   -0.3161   -0.3446   -0.5004 H   0  0  0  0  0  0  0  0  0  0  0  0
   -1.5956    3.7424    1.9844 H   0  0  0  0  0  0  0  0  0  0  0  0
   -1.6926    1.5822    3.0758 H   0  0  0  0  0  0  0  0  0  0  0  0
    0.2790    0.8481   -2.3865 H   0  0  0  0  0  0  0  0  0  0  0  0
    0.8739    2.4813   -2.1005 H   0  0  0  0  0  0  0  0  0  0  0  0
   -0.7964    2.2159   -2.6884 H   0  0  0  0  0  0  0  0  0  0  0  0
   -1.0279   -4.7912    4.1754 H   0  0  0  0  0  0  0  0  0  0  0  0
   -1.4336   -7.0717    3.3085 H   0  0  0  0  0  0  0  0  0  0  0  0
   -2.5328   -8.9311    2.7554 H   0  0  0  0  0  0  0  0  0  0  0  0
   -4.2781   -9.1666    2.8767 H   0  0  0  0  0  0  0  0  0  0  0  0
   -2.3602   -9.6413    4.9961 H   0  0  0  0  0  0  0  0  0  0  0  0
   -4.1103   -9.7666    5.0716 H   0  0  0  0  0  0  0  0  0  0  0  0
   -3.6880   -7.9054    6.6134 H   0  0  0  0  0  0  0  0  0  0  0  0
   -5.3936   -7.5962    4.6579 H   0  0  0  0  0  0  0  0  0  0  0  0
   -4.6758   -6.0159    5.0341 H   0  0  0  0  0  0  0  0  0  0  0  0
   -0.6383   -8.4416    4.9728 H   0  0  0  0  0  0  0  0  0  0  0  0
   -0.7316   -7.9417    6.6708 H   0  0  0  0  0  0  0  0  0  0  0  0
    0.0363   -6.9019    5.4504 H   0  0  0  0  0  0  0  0  0  0  0  0
   -3.0725   -5.0173    6.1120 H   0  0  0  0  0  0  0  0  0  0  0  0
   -1.3183   -5.0595    6.3083 H   0  0  0  0  0  0  0  0  0  0  0  0
   -2.3386   -6.0137    7.3740 H   0  0  0  0  0  0  0  0  0  0  0  0
   -4.5813   -5.5010    2.3110 H   0  0  0  0  0  0  0  0  0  0  0  0
   -5.3959   -7.0611    2.1897 H   0  0  0  0  0  0  0  0  0  0  0  0
   -3.9119   -6.8092    1.2999 H   0  0  0  0  0  0  0  0  0  0  0  0
    0.6569    0.3534    3.7578 H   0  0  0  0  0  0  0  0  0  0  0  0
    0.4513   -0.8701    5.0216 H   0  0  0  0  0  0  0  0  0  0  0  0
    0.4776    2.2157    5.2853 H   0  0  0  0  0  0  0  0  0  0  0  0
   -0.9912    3.7900    6.4613 H   0  0  0  0  0  0  0  0  0  0  0  0
   -4.2387    0.9684    6.2035 H   0  0  0  0  0  0  0  0  0  0  0  0
   -2.7962   -0.6121    5.0503 H   0  0  0  0  0  0  0  0  0  0  0  0
   -3.1321    4.3728    7.3822 H   0  0  0  0  0  0  0  0  0  0  0  0
   -4.0201    2.9853    8.0365 H   0  0  0  0  0  0  0  0  0  0  0  0
   -4.4846    3.6889    6.4633 H   0  0  0  0  0  0  0  0  0  0  0  0
  1  5  1  0  0  0  0
  1  2  1  0  0  0  0
  1 27  1  0  0  0  0
  2  3  2  0  0  0  0
  3  4  1  0  0  0  0
  3 14  1  0  0  0  0
  4  5  2  0  0  0  0
  4 35  1  0  0  0  0
  5  6  1  0  0  0  0
  6 11  2  0  0  0  0
  6  7  1  0  0  0  0
  7  8  2  0  0  0  0
  7 36  1  0  0  0  0
  8  9  1  0  0  0  0
  8 13  1  0  0  0  0
  9 10  2  0  0  0  0
  9 12  1  0  0  0  0
 10 11  1  0  0  0  0
 10 37  1  0  0  0  0
 11 38  1  0  0  0  0
 13 39  1  0  0  0  0
 13 40  1  0  0  0  0
 13 41  1  0  0  0  0
 14 15  2  0  0  0  0
 14 16  1  0  0  0  0
 16 42  1  0  0  0  0
 17 18  1  0  0  0  0
 17 23  1  0  0  0  0
 17 16  1  0  0  0  0
 17 43  1  6  0  0  0
 18 22  1  0  0  0  0
 18 19  1  0  0  0  0
 18 26  1  6  0  0  0
 19 20  1  0  0  0  0
 19 44  1  0  0  0  0
 19 45  1  0  0  0  0
 20 46  1  0  0  0  0
 20 47  1  0  0  0  0
 21 20  1  0  0  0  0
 21 22  1  0  0  0  0
 21 23  1  0  0  0  0
 21 48  1  1  0  0  0
 22 49  1  0  0  0  0
 22 50  1  0  0  0  0
 23 24  1  0  0  0  0
 23 25  1  0  0  0  0
 24 51  1  0  0  0  0
 24 52  1  0  0  0  0
 24 53  1  0  0  0  0
 25 54  1  0  0  0  0
 25 55  1  0  0  0  0
 25 56  1  0  0  0  0
 26 57  1  0  0  0  0
 26 58  1  0  0  0  0
 26 59  1  0  0  0  0
 27 28  1  0  0  0  0
 27 60  1  0  0  0  0
 27 61  1  0  0  0  0
 28 33  2  0  0  0  0
 28 29  1  0  0  0  0
 29 30  2  0  0  0  0
 29 62  1  0  0  0  0
 30 31  1  0  0  0  0
 30 63  1  0  0  0  0
 31 32  2  0  0  0  0
 31 34  1  0  0  0  0
 32 33  1  0  0  0  0
 32 64  1  0  0  0  0
 33 65  1  0  0  0  0
 34 66  1  0  0  0  0
 34 67  1  0  0  0  0
 34 68  1  0  0  0  0
M  END
$$$$
CHEMBL1223591_8GUR
 OpenBabel12022418113D

 56 58  0  0  1  0  0  0  0  0999 V2000
    6.8021    1.6784    0.8181 C   0  0  0  0  0  0  0  0  0  0  0  0
    5.5672    0.8907    0.4013 C   0  0  0  0  0  0  0  0  0  0  0  0
    5.8597    0.0666   -0.8494 C   0  0  0  0  0  0  0  0  0  0  0  0
    4.6667   -0.7717   -1.3086 C   0  0  0  0  0  0  0  0  0  0  0  0
    5.0393   -1.5317   -2.5531 C   0  0  0  0  0  0  0  0  0  0  0  0
    5.4903   -0.9235   -3.6098 N   0  0  0  0  0  0  0  0  0  0  0  0
    5.7831   -1.8955   -4.5257 N   0  0  0  0  0  0  0  0  0  0  0  0
    6.2732   -1.6169   -5.7947 C   0  0  0  0  0  0  0  0  0  0  0  0
    6.4228   -2.4866   -6.6472 O   0  0  0  0  0  0  0  0  0  0  0  0
    6.5609   -0.2832   -5.9766 N   0  0  0  0  0  0  0  0  0  0  0  0
    7.1158    0.3158   -7.2021 C   0  0  0  0  0  0  0  0  0  0  0  0
    8.4991   -0.3139   -7.4804 C   0  0  0  0  0  0  0  0  0  0  0  0
    6.1718    0.0528   -8.3942 C   0  0  0  0  0  0  0  0  0  0  0  0
    7.2304    1.8593   -7.0565 C   0  0  0  0  0  0  0  0  0  0  0  0
    6.3294    2.5884   -6.2517 C   0  0  0  0  0  0  0  0  0  0  0  0
    6.4120    3.9831   -6.1497 C   0  0  0  0  0  0  0  0  0  0  0  0
    7.3824    4.6724   -6.8666 C   0  0  0  0  0  0  0  0  0  0  0  0
    8.2679    3.9939   -7.6842 C   0  0  0  0  0  0  0  0  0  0  0  0
    8.1893    2.6003   -7.7827 C   0  0  0  0  0  0  0  0  0  0  0  0
    7.4518    6.0062   -6.7746 F   0  0  0  0  0  0  0  0  0  0  0  0
    5.4319   -3.2328   -4.0799 C   0  0  0  0  0  0  0  0  0  0  0  0
    5.0027   -3.0411   -2.6255 C   0  0  2  0  0  0  0  0  0  0  0  0
    3.6771   -3.6809   -2.2867 C   0  0  0  0  0  0  0  0  0  0  0  0
    2.5225   -3.4537   -3.0511 C   0  0  0  0  0  0  0  0  0  0  0  0
    1.3358   -4.1404   -2.7720 C   0  0  0  0  0  0  0  0  0  0  0  0
    1.2778   -5.0478   -1.7148 C   0  0  0  0  0  0  0  0  0  0  0  0
    2.4030   -5.2529   -0.9207 C   0  0  0  0  0  0  0  0  0  0  0  0
    3.5849   -4.5729   -1.2113 C   0  0  0  0  0  0  0  0  0  0  0  0
    4.6569   -4.7986   -0.4367 F   0  0  0  0  0  0  0  0  0  0  0  0
    6.5932    2.2846    1.7043 H   0  0  0  0  0  0  0  0  0  0  0  0
    7.1275    2.3493    0.0157 H   0  0  0  0  0  0  0  0  0  0  0  0
    7.6323    1.0043    1.0542 H   0  0  0  0  0  0  0  0  0  0  0  0
    4.7428    1.5871    0.2081 H   0  0  0  0  0  0  0  0  0  0  0  0
    5.2582    0.2366    1.2242 H   0  0  0  0  0  0  0  0  0  0  0  0
    6.7158   -0.5949   -0.6637 H   0  0  0  0  0  0  0  0  0  0  0  0
    6.1639    0.7471   -1.6553 H   0  0  0  0  0  0  0  0  0  0  0  0
    3.8125   -0.1295   -1.5468 H   0  0  0  0  0  0  0  0  0  0  0  0
    4.3614   -1.4686   -0.5220 H   0  0  0  0  0  0  0  0  0  0  0  0
    6.6544    0.2018   -5.0922 H   0  0  0  0  0  0  0  0  0  0  0  0
    8.4609   -1.4065   -7.5122 H   0  0  0  0  0  0  0  0  0  0  0  0
    9.2171   -0.0381   -6.6985 H   0  0  0  0  0  0  0  0  0  0  0  0
    8.9117   -0.0013   -8.4455 H   0  0  0  0  0  0  0  0  0  0  0  0
    6.0536   -1.0156   -8.5999 H   0  0  0  0  0  0  0  0  0  0  0  0
    6.5433    0.5182   -9.3145 H   0  0  0  0  0  0  0  0  0  0  0  0
    5.1695    0.4561   -8.2021 H   0  0  0  0  0  0  0  0  0  0  0  0
    5.5403    2.0791   -5.7018 H   0  0  0  0  0  0  0  0  0  0  0  0
    5.7182    4.5341   -5.5229 H   0  0  0  0  0  0  0  0  0  0  0  0
    9.0115    4.5497   -8.2483 H   0  0  0  0  0  0  0  0  0  0  0  0
    8.8902    2.1134   -8.4560 H   0  0  0  0  0  0  0  0  0  0  0  0
    6.3040   -3.8892   -4.1704 H   0  0  0  0  0  0  0  0  0  0  0  0
    4.6528   -3.6241   -4.7423 H   0  0  0  0  0  0  0  0  0  0  0  0
    5.7940   -3.4130   -1.9629 H   0  0  0  0  0  0  0  0  0  0  0  0
    2.5381   -2.7585   -3.8893 H   0  0  0  0  0  0  0  0  0  0  0  0
    0.4579   -3.9773   -3.3940 H   0  0  0  0  0  0  0  0  0  0  0  0
    0.3594   -5.5939   -1.5138 H   0  0  0  0  0  0  0  0  0  0  0  0
    2.3738   -5.9518   -0.0901 H   0  0  0  0  0  0  0  0  0  0  0  0
  1  2  1  0  0  0  0
  1 30  1  0  0  0  0
  1 31  1  0  0  0  0
  1 32  1  0  0  0  0
  2  3  1  0  0  0  0
  2 33  1  0  0  0  0
  2 34  1  0  0  0  0
  3  4  1  0  0  0  0
  3 35  1  0  0  0  0
  3 36  1  0  0  0  0
  4  5  1  0  0  0  0
  4 37  1  0  0  0  0
  4 38  1  0  0  0  0
  5 22  1  0  0  0  0
  5  6  2  0  0  0  0
  6  7  1  0  0  0  0
  7  8  1  0  0  0  0
  7 21  1  0  0  0  0
  8  9  2  0  0  0  0
  8 10  1  0  0  0  0
 10 11  1  0  0  0  0
 10 39  1  0  0  0  0
 11 12  1  0  0  0  0
 11 13  1  0  0  0  0
 11 14  1  0  0  0  0
 12 40  1  0  0  0  0
 12 41  1  0  0  0  0
 12 42  1  0  0  0  0
 13 43  1  0  0  0  0
 13 44  1  0  0  0  0
 13 45  1  0  0  0  0
 14 19  2  0  0  0  0
 14 15  1  0  0  0  0
 15 16  2  0  0  0  0
 15 46  1  0  0  0  0
 16 17  1  0  0  0  0
 16 47  1  0  0  0  0
 17 18  2  0  0  0  0
 17 20  1  0  0  0  0
 18 19  1  0  0  0  0
 18 48  1  0  0  0  0
 19 49  1  0  0  0  0
 21 22  1  0  0  0  0
 21 50  1  0  0  0  0
 21 51  1  0  0  0  0
 22 23  1  0  0  0  0
 22 52  1  1  0  0  0
 23 28  2  0  0  0  0
 23 24  1  0  0  0  0
 24 25  2  0  0  0  0
 24 53  1  0  0  0  0
 25 26  1  0  0  0  0
 25 54  1  0  0  0  0
 26 27  2  0  0  0  0
 26 55  1  0  0  0  0
 27 28  1  0  0  0  0
 27 56  1  0  0  0  0
 28 29  1  0  0  0  0
M  END
$$$$
CHEMBL261381_5ZTY
 OpenBabel12022418113D

 49 52  0  0  0  0  0  0  0  0999 V2000
    1.1936    0.4909   -0.0727 C   0  0  0  0  0  0  0  0  0  0  0  0
    2.6575    0.2180   -0.0606 C   0  0  0  0  0  0  0  0  0  0  0  0
    3.6778    1.2257    0.0175 C   0  0  0  0  0  0  0  0  0  0  0  0
    3.5129    2.7076   -0.0361 C   0  0  0  0  0  0  0  0  0  0  0  0
    2.4162    3.2388   -0.1878 O   0  0  0  0  0  0  0  0  0  0  0  0
    4.7215    3.3937    0.0853 N   0  0  0  0  0  0  0  0  0  0  0  0
    4.8803    4.8078    0.1054 N   0  0  0  0  0  0  0  0  0  0  0  0
    4.6646    5.4402   -1.2030 C   0  0  0  0  0  0  0  0  0  0  0  0
    5.0718    6.9192   -1.1653 C   0  0  0  0  0  0  0  0  0  0  0  0
    4.3500    7.6739   -0.0542 C   0  0  0  0  0  0  0  0  0  0  0  0
    4.5114    6.9521    1.2778 C   0  0  0  0  0  0  0  0  0  0  0  0
    4.1175    5.4746    1.1693 C   0  0  0  0  0  0  0  0  0  0  0  0
    4.8920    0.6658    0.1970 N   0  0  0  0  0  0  0  0  0  0  0  0
    4.6930   -0.6724    0.0464 N   0  0  0  0  0  0  0  0  0  0  0  0
    5.8354   -1.4969   -0.1817 C   0  0  0  0  0  0  0  0  0  0  0  0
    5.7790   -2.5822   -1.0660 C   0  0  0  0  0  0  0  0  0  0  0  0
    6.9121   -3.3738   -1.2765 C   0  0  0  0  0  0  0  0  0  0  0  0
    8.1069   -3.0840   -0.6131 C   0  0  0  0  0  0  0  0  0  0  0  0
    8.1703   -1.9926    0.2616 C   0  0  0  0  0  0  0  0  0  0  0  0
    7.0410   -1.1898    0.4652 C   0  0  0  0  0  0  0  0  0  0  0  0
    9.6068   -1.5930    1.1342 Cl  0  0  0  0  0  0  0  0  0  0  0  0
    9.4657   -4.1021   -0.9294 Cl  0  0  0  0  0  0  0  0  0  0  0  0
    3.3474   -0.9886   -0.0014 C   0  0  0  0  0  0  0  0  0  0  0  0
    2.8364   -2.2890    0.0668 N   0  0  0  0  0  0  0  0  0  0  0  0
    3.3809   -3.3622    0.7584 C   0  0  0  0  0  0  0  0  0  0  0  0
    2.6067   -4.4853    0.5631 C   0  0  0  0  0  0  0  0  0  0  0  0
    1.5243   -4.1015   -0.2506 C   0  0  0  0  0  0  0  0  0  0  0  0
    1.6821   -2.7622   -0.5334 C   0  0  0  0  0  0  0  0  0  0  0  0
    0.5890   -0.4113    0.0596 H   0  0  0  0  0  0  0  0  0  0  0  0
    0.8950    0.9646   -1.0110 H   0  0  0  0  0  0  0  0  0  0  0  0
    0.9251    1.1525    0.7581 H   0  0  0  0  0  0  0  0  0  0  0  0
    5.5511    2.8142    0.2082 H   0  0  0  0  0  0  0  0  0  0  0  0
    3.6161    5.3559   -1.5169 H   0  0  0  0  0  0  0  0  0  0  0  0
    5.2750    4.9400   -1.9642 H   0  0  0  0  0  0  0  0  0  0  0  0
    4.8570    7.3914   -2.1308 H   0  0  0  0  0  0  0  0  0  0  0  0
    6.1555    6.9987   -1.0086 H   0  0  0  0  0  0  0  0  0  0  0  0
    3.2840    7.7610   -0.3013 H   0  0  0  0  0  0  0  0  0  0  0  0
    4.7418    8.6969    0.0222 H   0  0  0  0  0  0  0  0  0  0  0  0
    3.8971    7.4451    2.0401 H   0  0  0  0  0  0  0  0  0  0  0  0
    5.5546    7.0324    1.6095 H   0  0  0  0  0  0  0  0  0  0  0  0
    4.3248    4.9932    2.1325 H   0  0  0  0  0  0  0  0  0  0  0  0
    3.0381    5.4051    0.9921 H   0  0  0  0  0  0  0  0  0  0  0  0
    4.8784   -2.8187   -1.6301 H   0  0  0  0  0  0  0  0  0  0  0  0
    6.8553   -4.2140   -1.9659 H   0  0  0  0  0  0  0  0  0  0  0  0
    7.0970   -0.3502    1.1555 H   0  0  0  0  0  0  0  0  0  0  0  0
    4.2721   -3.2412    1.3571 H   0  0  0  0  0  0  0  0  0  0  0  0
    2.8007   -5.4675    0.9772 H   0  0  0  0  0  0  0  0  0  0  0  0
    0.7184   -4.7330   -0.6025 H   0  0  0  0  0  0  0  0  0  0  0  0
    1.0849   -2.1228   -1.1675 H   0  0  0  0  0  0  0  0  0  0  0  0
  1  2  1  0  0  0  0
  1 29  1  0  0  0  0
  1 30  1  0  0  0  0
  1 31  1  0  0  0  0
  2 23  2  0  0  0  0
  2  3  1  0  0  0  0
  3  4  1  0  0  0  0
  3 13  2  0  0  0  0
  4  5  2  0  0  0  0
  4  6  1  0  0  0  0
  6  7  1  0  0  0  0
  6 32  1  0  0  0  0
  7 12  1  0  0  0  0
  7  8  1  0  0  0  0
  8  9  1  0  0  0  0
  8 33  1  0  0  0  0
  8 34  1  0  0  0  0
  9 10  1  0  0  0  0
  9 35  1  0  0  0  0
  9 36  1  0  0  0  0
 10 11  1  0  0  0  0
 10 37  1  0  0  0  0
 10 38  1  0  0  0  0
 11 12  1  0  0  0  0
 11 39  1  0  0  0  0
 11 40  1  0  0  0  0
 12 41  1  0  0  0  0
 12 42  1  0  0  0  0
 13 14  1  0  0  0  0
 14 15  1  0  0  0  0
 14 23  1  0  0  0  0
 15 20  2  0  0  0  0
 15 16  1  0  0  0  0
 16 17  2  0  0  0  0
 16 43  1  0  0  0  0
 17 18  1  0  0  0  0
 17 44  1  0  0  0  0
 18 19  2  0  0  0  0
 18 22  1  0  0  0  0
 19 20  1  0  0  0  0
 19 21  1  0  0  0  0
 20 45  1  0  0  0  0
 23 24  1  0  0  0  0
 24 28  1  0  0  0  0
 24 25  1  0  0  0  0
 25 26  2  0  0  0  0
 25 46  1  0  0  0  0
 26 27  1  0  0  0  0
 26 47  1  0  0  0  0
 27 28  2  0  0  0  0
 27 48  1  0  0  0  0
 28 49  1  0  0  0  0
M  END
$$$$
CHEMBL1215991_5ZTY
 OpenBabel12022418113D

 63 66  0  0  1  0  0  0  0  0999 V2000
    4.6449   -2.2838    3.2080 C   0  0  0  0  0  0  0  0  0  0  0  0
    4.2091   -2.9496    1.9142 C   0  0  0  0  0  0  0  0  0  0  0  0
    4.7675   -2.2223    0.6905 C   0  0  0  0  0  0  0  0  0  0  0  0
    4.3260   -2.9172   -0.5966 C   0  0  0  0  0  0  0  0  0  0  0  0
    4.9157   -2.3147   -1.8793 C   0  0  0  0  0  0  0  0  0  0  0  0
    6.3909   -2.2518   -1.8821 N   0  0  0  0  0  0  0  0  0  0  0  0
    7.0434   -1.0403   -1.6983 C   0  0  0  0  0  0  0  0  0  0  0  0
    8.3641   -0.8281   -1.5606 C   0  0  0  0  0  0  0  0  0  0  0  0
    8.7763    0.5759   -1.2666 C   0  0  0  0  0  0  0  0  0  0  0  0
    7.9174    1.3934   -0.9325 O   0  0  0  0  0  0  0  0  0  0  0  0
   10.1238    0.8931   -1.3049 N   0  0  0  0  0  0  0  0  0  0  0  0
   10.5693    2.0838   -0.5957 C   0  0  1  0  0  0  0  0  0  0  0  0
   12.0228    2.0981   -0.0130 C   0  0  0  0  0  0  0  0  0  0  0  0
   12.0194    1.6062    1.4457 C   0  0  0  0  0  0  0  0  0  0  0  0
   13.0372    1.2350   -0.7858 C   0  0  0  0  0  0  0  0  0  0  0  0
   12.3545    3.6400   -0.0701 C   0  0  1  0  0  0  0  0  0  0  0  0
   12.8329    4.0447   -1.4689 C   0  0  0  0  0  0  0  0  0  0  0  0
   11.5863    3.7737   -2.3238 C   0  0  0  0  0  0  0  0  0  0  0  0
   10.4683    3.4925   -1.2807 C   0  0  1  0  0  0  0  0  0  0  0  0
    9.1091    3.9097   -1.8067 C   0  0  0  0  0  0  0  0  0  0  0  0
   10.9752    4.3266   -0.0867 C   0  0  0  0  0  0  0  0  0  0  0  0
    9.2322   -2.0211   -1.5952 C   0  0  0  0  0  0  0  0  0  0  0  0
   10.4510   -1.9221   -1.4760 O   0  0  0  0  0  0  0  0  0  0  0  0
    8.5684   -3.3556   -1.7588 C   0  0  0  0  0  0  0  0  0  0  0  0
    9.3607   -4.5138   -1.7243 C   0  0  0  0  0  0  0  0  0  0  0  0
    8.7597   -5.7629   -1.8535 C   0  0  0  0  0  0  0  0  0  0  0  0
    7.3874   -5.8674   -2.0447 C   0  0  0  0  0  0  0  0  0  0  0  0
    6.6049   -4.7114   -2.1019 C   0  0  0  0  0  0  0  0  0  0  0  0
    7.1621   -3.4352   -1.9244 C   0  0  0  0  0  0  0  0  0  0  0  0
    9.8066   -7.3345   -1.7719 Br  0  0  0  0  0  0  0  0  0  0  0  0
    4.2288   -2.8201    4.0665 H   0  0  0  0  0  0  0  0  0  0  0  0
    4.2969   -1.2472    3.2510 H   0  0  0  0  0  0  0  0  0  0  0  0
    5.7356   -2.2866    3.3018 H   0  0  0  0  0  0  0  0  0  0  0  0
    3.1150   -2.9728    1.8669 H   0  0  0  0  0  0  0  0  0  0  0  0
    4.5562   -3.9903    1.9167 H   0  0  0  0  0  0  0  0  0  0  0  0
    5.8592   -2.2152    0.7648 H   0  0  0  0  0  0  0  0  0  0  0  0
    4.4312   -1.1793    0.6834 H   0  0  0  0  0  0  0  0  0  0  0  0
    3.2335   -2.8657   -0.6701 H   0  0  0  0  0  0  0  0  0  0  0  0
    4.5685   -3.9822   -0.5203 H   0  0  0  0  0  0  0  0  0  0  0  0
    4.5007   -1.3048   -2.0016 H   0  0  0  0  0  0  0  0  0  0  0  0
    4.5625   -2.8696   -2.7570 H   0  0  0  0  0  0  0  0  0  0  0  0
    6.3513   -0.2002   -1.6448 H   0  0  0  0  0  0  0  0  0  0  0  0
   10.7579    0.1000   -1.3923 H   0  0  0  0  0  0  0  0  0  0  0  0
    9.8876    2.1302    0.2679 H   0  0  0  0  0  0  0  0  0  0  0  0
   11.8724    0.5209    1.4913 H   0  0  0  0  0  0  0  0  0  0  0  0
   11.2247    2.0716    2.0373 H   0  0  0  0  0  0  0  0  0  0  0  0
   12.9721    1.8348    1.9363 H   0  0  0  0  0  0  0  0  0  0  0  0
   12.8452    0.1662   -0.6453 H   0  0  0  0  0  0  0  0  0  0  0  0
   14.0571    1.4316   -0.4351 H   0  0  0  0  0  0  0  0  0  0  0  0
   13.0134    1.4123   -1.8647 H   0  0  0  0  0  0  0  0  0  0  0  0
   13.0157    3.9883    0.7275 H   0  0  0  0  0  0  0  0  0  0  0  0
   13.7245    3.5193   -1.8175 H   0  0  0  0  0  0  0  0  0  0  0  0
   13.0751    5.1163   -1.4849 H   0  0  0  0  0  0  0  0  0  0  0  0
   11.7267    2.9396   -3.0166 H   0  0  0  0  0  0  0  0  0  0  0  0
   11.3684    4.6684   -2.9210 H   0  0  0  0  0  0  0  0  0  0  0  0
    8.8508    3.3410   -2.7069 H   0  0  0  0  0  0  0  0  0  0  0  0
    9.1028    4.9711   -2.0778 H   0  0  0  0  0  0  0  0  0  0  0  0
    8.3229    3.7701   -1.0611 H   0  0  0  0  0  0  0  0  0  0  0  0
   11.0228    5.4016   -0.2977 H   0  0  0  0  0  0  0  0  0  0  0  0
   10.4011    4.1802    0.8349 H   0  0  0  0  0  0  0  0  0  0  0  0
   10.4356   -4.4358   -1.5835 H   0  0  0  0  0  0  0  0  0  0  0  0
    6.9076   -6.8386   -2.1444 H   0  0  0  0  0  0  0  0  0  0  0  0
    5.5427   -4.8448   -2.2779 H   0  0  0  0  0  0  0  0  0  0  0  0
  1  2  1  0  0  0  0
  1 31  1  0  0  0  0
  1 32  1  0  0  0  0
  1 33  1  0  0  0  0
  2  3  1  0  0  0  0
  2 34  1  0  0  0  0
  2 35  1  0  0  0  0
  3  4  1  0  0  0  0
  3 36  1  0  0  0  0
  3 37  1  0  0  0  0
  4  5  1  0  0  0  0
  4 38  1  0  0  0  0
  4 39  1  0  0  0  0
  5  6  1  0  0  0  0
  5 40  1  0  0  0  0
  5 41  1  0  0  0  0
  6 29  1  0  0  0  0
  6  7  1  0  0  0  0
  7  8  2  0  0  0  0
  7 42  1  0  0  0  0
  8  9  1  0  0  0  0
  8 22  1  0  0  0  0
  9 10  2  0  0  0  0
  9 11  1  0  0  0  0
 11 43  1  0  0  0  0
 12 11  1  0  0  0  0
 12 13  1  0  0  0  0
 12 19  1  0  0  0  0
 12 44  1  1  0  0  0
 13 14  1  0  0  0  0
 13 15  1  0  0  0  0
 13 16  1  0  0  0  0
 14 45  1  0  0  0  0
 14 46  1  0  0  0  0
 14 47  1  0  0  0  0
 15 48  1  0  0  0  0
 15 49  1  0  0  0  0
 15 50  1  0  0  0  0
 16 17  1  0  0  0  0
 16 21  1  0  0  0  0
 16 51  1  1  0  0  0
 17 18  1  0  0  0  0
 17 52  1  0  0  0  0
 17 53  1  0  0  0  0
 18 19  1  0  0  0  0
 18 54  1  0  0  0  0
 18 55  1  0  0  0  0
 19 20  1  6  0  0  0
 19 21  1  0  0  0  0
 20 56  1  0  0  0  0
 20 57  1  0  0  0  0
 20 58  1  0  0  0  0
 21 59  1  0  0  0  0
 21 60  1  0  0  0  0
 22 23  2  0  0  0  0
 22 24  1  0  0  0  0
 24 29  2  0  0  0  0
 24 25  1  0  0  0  0
 25 26  2  0  0  0  0
 25 61  1  0  0  0  0
 26 27  1  0  0  0  0
 26 30  1  0  0  0  0
 27 28  2  0  0  0  0
 27 62  1  0  0  0  0
 28 29  1  0  0  0  0
 28 63  1  0  0  0  0
M  END
$$$$
CHEMBL261382_5ZTY
 OpenBabel12022418113D

 56 59  0  0  0  0  0  0  0  0999 V2000
   -0.1227   -0.9747    0.0222 N   0  0  0  0  0  0  0  0  0  0  0  0
   -0.9807    0.0867   -0.0745 N   0  0  0  0  0  0  0  0  0  0  0  0
   -0.2068    1.1875   -0.1385 C   0  0  0  0  0  0  0  0  0  0  0  0
    1.1745    0.8314   -0.1762 C   0  0  0  0  0  0  0  0  0  0  0  0
    1.2020   -0.5513   -0.0074 C   0  0  0  0  0  0  0  0  0  0  0  0
    2.3533   -1.3655    0.0091 N   0  0  0  0  0  0  0  0  0  0  0  0
    2.5754   -2.5604   -0.6927 C   0  0  0  0  0  0  0  0  0  0  0  0
    3.8758   -2.9717   -0.4692 C   0  0  0  0  0  0  0  0  0  0  0  0
    4.4880   -2.0407    0.3734 C   0  0  0  0  0  0  0  0  0  0  0  0
    3.5415   -1.0935    0.7042 C   0  0  0  0  0  0  0  0  0  0  0  0
    3.7490    0.0081    1.6931 C   0  0  0  0  0  0  0  0  0  0  0  0
    1.6250   -3.2451   -1.6164 C   0  0  0  0  0  0  0  0  0  0  0  0
    2.3126    1.7626   -0.4320 C   0  0  0  0  0  0  0  0  0  0  0  0
   -0.7835    2.5664   -0.1770 C   0  0  0  0  0  0  0  0  0  0  0  0
   -0.0823    3.5670   -0.1212 O   0  0  0  0  0  0  0  0  0  0  0  0
   -2.1647    2.6287   -0.2575 N   0  0  0  0  0  0  0  0  0  0  0  0
   -2.8908    3.9006   -0.3291 C   0  0  0  0  0  0  0  0  0  0  0  0
   -3.0317    4.3816   -1.7805 C   0  0  0  0  0  0  0  0  0  0  0  0
   -3.7841    5.7152   -1.8610 C   0  0  0  0  0  0  0  0  0  0  0  0
   -5.1463    5.6486   -1.1771 C   0  0  0  0  0  0  0  0  0  0  0  0
   -5.0387    5.1247    0.2529 C   0  0  0  0  0  0  0  0  0  0  0  0
   -4.2736    3.8002    0.3281 C   0  0  0  0  0  0  0  0  0  0  0  0
   -0.6706   -2.2708    0.2930 C   0  0  0  0  0  0  0  0  0  0  0  0
   -0.0241   -3.1320    1.1998 C   0  0  0  0  0  0  0  0  0  0  0  0
   -0.5338   -4.4129    1.4544 C   0  0  0  0  0  0  0  0  0  0  0  0
   -1.7024   -4.8331    0.8290 C   0  0  0  0  0  0  0  0  0  0  0  0
   -2.3460   -4.0038   -0.0839 C   0  0  0  0  0  0  0  0  0  0  0  0
   -1.8335   -2.7273   -0.3616 C   0  0  0  0  0  0  0  0  0  0  0  0
   -2.5981   -1.8867   -1.6705 Cl  0  0  0  0  0  0  0  0  0  0  0  0
   -2.3433   -6.3938    1.1672 Cl  0  0  0  0  0  0  0  0  0  0  0  0
    4.3378   -3.8506   -0.9025 H   0  0  0  0  0  0  0  0  0  0  0  0
    5.5078   -2.0635    0.7360 H   0  0  0  0  0  0  0  0  0  0  0  0
    2.8205    0.4740    2.0289 H   0  0  0  0  0  0  0  0  0  0  0  0
    4.4095    0.7700    1.2658 H   0  0  0  0  0  0  0  0  0  0  0  0
    4.2442   -0.3796    2.5900 H   0  0  0  0  0  0  0  0  0  0  0  0
    0.7477   -2.6532   -1.8715 H   0  0  0  0  0  0  0  0  0  0  0  0
    1.3055   -4.1978   -1.1786 H   0  0  0  0  0  0  0  0  0  0  0  0
    2.1244   -3.4761   -2.5626 H   0  0  0  0  0  0  0  0  0  0  0  0
    2.0126    2.6206   -1.0386 H   0  0  0  0  0  0  0  0  0  0  0  0
    3.1121    1.2596   -0.9871 H   0  0  0  0  0  0  0  0  0  0  0  0
    2.7179    2.1537    0.5042 H   0  0  0  0  0  0  0  0  0  0  0  0
   -2.6411    1.7450   -0.4180 H   0  0  0  0  0  0  0  0  0  0  0  0
   -2.3020    4.6454    0.2245 H   0  0  0  0  0  0  0  0  0  0  0  0
   -3.5698    3.6308   -2.3666 H   0  0  0  0  0  0  0  0  0  0  0  0
   -2.0459    4.4958   -2.2415 H   0  0  0  0  0  0  0  0  0  0  0  0
   -3.9160    5.9997   -2.9102 H   0  0  0  0  0  0  0  0  0  0  0  0
   -3.1817    6.5038   -1.3918 H   0  0  0  0  0  0  0  0  0  0  0  0
   -5.8137    4.9976   -1.7545 H   0  0  0  0  0  0  0  0  0  0  0  0
   -5.6048    6.6441   -1.1716 H   0  0  0  0  0  0  0  0  0  0  0  0
   -6.0448    4.9960    0.6691 H   0  0  0  0  0  0  0  0  0  0  0  0
   -4.5341    5.8752    0.8745 H   0  0  0  0  0  0  0  0  0  0  0  0
   -4.1716    3.5021    1.3778 H   0  0  0  0  0  0  0  0  0  0  0  0
   -4.8636    3.0160   -0.1642 H   0  0  0  0  0  0  0  0  0  0  0  0
    0.8824   -2.8368    1.7237 H   0  0  0  0  0  0  0  0  0  0  0  0
   -0.0113   -5.0762    2.1406 H   0  0  0  0  0  0  0  0  0  0  0  0
   -3.2312   -4.3628   -0.6046 H   0  0  0  0  0  0  0  0  0  0  0  0
  1  5  1  0  0  0  0
  1  2  1  0  0  0  0
  1 23  1  0  0  0  0
  2  3  2  0  0  0  0
  3  4  1  0  0  0  0
  3 14  1  0  0  0  0
  4  5  2  0  0  0  0
  4 13  1  0  0  0  0
  5  6  1  0  0  0  0
  6 10  1  0  0  0  0
  6  7  1  0  0  0  0
  7  8  2  0  0  0  0
  7 12  1  0  0  0  0
  8  9  1  0  0  0  0
  8 31  1  0  0  0  0
  9 10  2  0  0  0  0
  9 32  1  0  0  0  0
 10 11  1  0  0  0  0
 11 33  1  0  0  0  0
 11 34  1  0  0  0  0
 11 35  1  0  0  0  0
 12 36  1  0  0  0  0
 12 37  1  0  0  0  0
 12 38  1  0  0  0  0
 13 39  1  0  0  0  0
 13 40  1  0  0  0  0
 13 41  1  0  0  0  0
 14 15  2  0  0  0  0
 14 16  1  0  0  0  0
 16 17  1  0  0  0  0
 16 42  1  0  0  0  0
 17 22  1  0  0  0  0
 17 18  1  0  0  0  0
 17 43  1  0  0  0  0
 18 19  1  0  0  0  0
 18 44  1  0  0  0  0
 18 45  1  0  0  0  0
 19 20  1  0  0  0  0
 19 46  1  0  0  0  0
 19 47  1  0  0  0  0
 20 21  1  0  0  0  0
 20 48  1  0  0  0  0
 20 49  1  0  0  0  0
 21 22  1  0  0  0  0
 21 50  1  0  0  0  0
 21 51  1  0  0  0  0
 22 52  1  0  0  0  0
 22 53  1  0  0  0  0
 23 28  2  0  0  0  0
 23 24  1  0  0  0  0
 24 25  2  0  0  0  0
 24 54  1  0  0  0  0
 25 26  1  0  0  0  0
 25 55  1  0  0  0  0
 26 27  2  0  0  0  0
 26 30  1  0  0  0  0
 27 28  1  0  0  0  0
 27 56  1  0  0  0  0
 28 29  1  0  0  0  0
M  END
$$$$
CHEMBL467029_8GUQ
 OpenBabel12022418113D

 50 51  0  0  0  0  0  0  0  0999 V2000
   -2.1163    0.3349    0.0851 C   0  0  0  0  0  0  0  0  0  0  0  0
   -0.7079    0.0388    0.0719 N   0  0  0  0  0  0  0  0  0  0  0  0
   -0.0284   -1.1654    0.0564 C   0  0  0  0  0  0  0  0  0  0  0  0
    1.3081   -0.8046   -0.0190 C   0  0  0  0  0  0  0  0  0  0  0  0
    1.3497    0.6104   -0.0174 C   0  0  0  0  0  0  0  0  0  0  0  0
    2.5234    1.5659   -0.0873 C   0  0  0  0  0  0  0  0  0  0  0  0
    3.8611    0.8081   -0.1746 C   0  0  0  0  0  0  0  0  0  0  0  0
    2.3971    2.4736   -1.3326 C   0  0  0  0  0  0  0  0  0  0  0  0
    2.5616    2.4673    1.1655 C   0  0  0  0  0  0  0  0  0  0  0  0
    0.1075    1.1060    0.0455 N   0  0  0  0  0  0  0  0  0  0  0  0
   -0.4924   -2.4761    0.0861 N   0  0  0  0  0  0  0  0  0  0  0  0
   -1.8148   -2.8926    0.0938 C   0  0  0  0  0  0  0  0  0  0  0  0
   -2.7888   -2.1419    0.1443 O   0  0  0  0  0  0  0  0  0  0  0  0
   -2.0580   -4.3989    0.0792 C   0  0  0  0  0  0  0  0  0  0  0  0
   -1.3997   -5.0137    1.3301 C   0  0  0  0  0  0  0  0  0  0  0  0
   -3.5788   -4.6630    0.0873 C   0  0  0  0  0  0  0  0  0  0  0  0
   -1.3216   -5.0715   -1.4169 S   0  0  0  0  0  0  0  0  0  0  0  0
    0.1111   -4.8434   -1.3260 O   0  0  0  0  0  0  0  0  0  0  0  0
   -1.8159   -6.4219   -1.6207 O   0  0  0  0  0  0  0  0  0  0  0  0
   -1.9022   -4.0937   -2.7996 C   0  0  0  0  0  0  0  0  0  0  0  0
   -1.1420   -2.9884   -3.1967 C   0  0  0  0  0  0  0  0  0  0  0  0
   -1.5173   -2.2393   -4.3115 C   0  0  0  0  0  0  0  0  0  0  0  0
   -2.6367   -2.6139   -5.0497 C   0  0  0  0  0  0  0  0  0  0  0  0
   -3.3805   -3.7380   -4.6827 C   0  0  0  0  0  0  0  0  0  0  0  0
   -3.0137   -4.4889   -3.5569 C   0  0  0  0  0  0  0  0  0  0  0  0
   -3.0938   -1.6880   -6.4254 Cl  0  0  0  0  0  0  0  0  0  0  0  0
   -2.2618    1.4206    0.0526 H   0  0  0  0  0  0  0  0  0  0  0  0
   -2.5456   -0.0336    1.0172 H   0  0  0  0  0  0  0  0  0  0  0  0
   -2.5732   -0.0862   -0.8135 H   0  0  0  0  0  0  0  0  0  0  0  0
    2.1509   -1.4822   -0.0719 H   0  0  0  0  0  0  0  0  0  0  0  0
    3.9086    0.1897   -1.0783 H   0  0  0  0  0  0  0  0  0  0  0  0
    3.9991    0.1458    0.6887 H   0  0  0  0  0  0  0  0  0  0  0  0
    4.7091    1.5000   -0.1998 H   0  0  0  0  0  0  0  0  0  0  0  0
    2.4041    1.8833   -2.2546 H   0  0  0  0  0  0  0  0  0  0  0  0
    3.2196    3.1931   -1.3826 H   0  0  0  0  0  0  0  0  0  0  0  0
    1.4604    3.0471   -1.3187 H   0  0  0  0  0  0  0  0  0  0  0  0
    2.6664    1.8751    2.0815 H   0  0  0  0  0  0  0  0  0  0  0  0
    1.6470    3.0648    1.2635 H   0  0  0  0  0  0  0  0  0  0  0  0
    3.4034    3.1685    1.1212 H   0  0  0  0  0  0  0  0  0  0  0  0
    0.2343   -3.1882    0.0068 H   0  0  0  0  0  0  0  0  0  0  0  0
   -1.8828   -4.6575    2.2489 H   0  0  0  0  0  0  0  0  0  0  0  0
   -0.3422   -4.7360    1.4165 H   0  0  0  0  0  0  0  0  0  0  0  0
   -1.4365   -6.1078    1.3267 H   0  0  0  0  0  0  0  0  0  0  0  0
   -4.0404   -4.3164    1.0211 H   0  0  0  0  0  0  0  0  0  0  0  0
   -3.8280   -5.7211   -0.0362 H   0  0  0  0  0  0  0  0  0  0  0  0
   -4.0777   -4.1178   -0.7243 H   0  0  0  0  0  0  0  0  0  0  0  0
   -0.2423   -2.7030   -2.6574 H   0  0  0  0  0  0  0  0  0  0  0  0
   -0.9245   -1.3745   -4.5998 H   0  0  0  0  0  0  0  0  0  0  0  0
   -4.2411   -4.0347   -5.2793 H   0  0  0  0  0  0  0  0  0  0  0  0
   -3.5900   -5.3765   -3.3028 H   0  0  0  0  0  0  0  0  0  0  0  0
  1  2  1  0  0  0  0
  1 27  1  0  0  0  0
  1 28  1  0  0  0  0
  1 29  1  0  0  0  0
  2 10  1  0  0  0  0
  2  3  1  0  0  0  0
  3  4  2  0  0  0  0
  3 11  1  0  0  0  0
  4  5  1  0  0  0  0
  4 30  1  0  0  0  0
  5  6  1  0  0  0  0
  5 10  2  0  0  0  0
  6  7  1  0  0  0  0
  6  8  1  0  0  0  0
  6  9  1  0  0  0  0
  7 31  1  0  0  0  0
  7 32  1  0  0  0  0
  7 33  1  0  0  0  0
  8 34  1  0  0  0  0
  8 35  1  0  0  0  0
  8 36  1  0  0  0  0
  9 37  1  0  0  0  0
  9 38  1  0  0  0  0
  9 39  1  0  0  0  0
 11 12  1  0  0  0  0
 11 40  1  0  0  0  0
 12 13  2  0  0  0  0
 12 14  1  0  0  0  0
 14 15  1  0  0  0  0
 14 16  1  0  0  0  0
 14 17  1  0  0  0  0
 15 41  1  0  0  0  0
 15 42  1  0  0  0  0
 15 43  1  0  0  0  0
 16 44  1  0  0  0  0
 16 45  1  0  0  0  0
 16 46  1  0  0  0  0
 17 18  2  0  0  0  0
 17 19  2  0  0  0  0
 17 20  1  0  0  0  0
 20 25  2  0  0  0  0
 20 21  1  0  0  0  0
 21 22  2  0  0  0  0
 21 47  1  0  0  0  0
 22 23  1  0  0  0  0
 22 48  1  0  0  0  0
 23 24  2  0  0  0  0
 23 26  1  0  0  0  0
 24 25  1  0  0  0  0
 24 49  1  0  0  0  0
 25 50  1  0  0  0  0
M  END
$$$$
CHEMBL4458732_5ZTY
 OpenBabel12022418113D

 61 67  0  0  1  0  0  0  0  0999 V2000
    2.5331    0.2052   -0.1646 C   0  0  0  0  0  0  0  0  0  0  0  0
    1.0379    0.1091   -0.1055 C   0  0  0  0  0  0  0  0  0  0  0  0
    0.3031    1.0965    0.5621 C   0  0  0  0  0  0  0  0  0  0  0  0
   -1.0884    1.0143    0.6346 C   0  0  0  0  0  0  0  0  0  0  0  0
   -1.7621   -0.0622    0.0461 C   0  0  0  0  0  0  0  0  0  0  0  0
   -1.0318   -1.0419   -0.6349 C   0  0  0  0  0  0  0  0  0  0  0  0
    0.3605   -0.9583   -0.7062 C   0  0  0  0  0  0  0  0  0  0  0  0
   -3.2274   -0.1208    0.0810 C   0  0  0  0  0  0  0  0  0  0  0  0
   -3.8888    0.5092   -0.9180 C   0  0  0  0  0  0  0  0  0  0  0  0
   -5.3575    0.5136   -0.9599 C   0  0  0  0  0  0  0  0  0  0  0  0
   -6.0746   -0.1274    0.0604 C   0  0  0  0  0  0  0  0  0  0  0  0
   -7.4665   -0.0917   -0.0034 C   0  0  0  0  0  0  0  0  0  0  0  0
   -8.0848    0.5607   -1.0690 C   0  0  0  0  0  0  0  0  0  0  0  0
   -7.2849    1.1575   -2.0349 C   0  0  0  0  0  0  0  0  0  0  0  0
   -5.9347    1.1521   -2.0034 N   0  0  0  0  0  0  0  0  0  0  0  0
   -5.3278   -0.8043    1.1232 C   0  0  0  0  0  0  0  0  0  0  0  0
   -5.7109   -1.5268    2.2182 C   0  0  0  0  0  0  0  0  0  0  0  0
   -4.5152   -1.9677    2.8434 C   0  0  0  0  0  0  0  0  0  0  0  0
   -4.5329   -2.8255    4.0476 C   0  0  0  0  0  0  0  0  0  0  0  0
   -5.6225   -3.1814    4.5054 O   0  0  0  0  0  0  0  0  0  0  0  0
   -3.3306   -3.2061    4.6346 N   0  0  0  0  0  0  0  0  0  0  0  0
   -3.2857   -4.0435    5.8583 C   0  0  1  0  0  0  0  0  0  0  0  0
   -3.9855   -3.3191    7.0434 C   0  0  0  0  0  0  0  0  0  0  0  0
   -4.0020   -4.1948    8.3058 C   0  0  1  0  0  0  0  0  0  0  0  0
   -4.7211   -5.5176    7.9951 C   0  0  0  0  0  0  0  0  0  0  0  0
   -3.9710   -6.2800    6.8903 C   0  0  1  0  0  0  0  0  0  0  0  0
   -3.9554   -5.4277    5.6111 C   0  0  0  0  0  0  0  0  0  0  0  0
   -2.5258   -6.5449    7.3328 C   0  0  0  0  0  0  0  0  0  0  0  0
   -1.8134   -5.2091    7.6025 C   0  0  2  0  0  0  0  0  0  0  0  0
   -2.5589   -4.4867    8.7374 C   0  0  0  0  0  0  0  0  0  0  0  0
   -1.8267   -4.3351    6.3197 C   0  0  0  0  0  0  0  0  0  0  0  0
   -3.4293   -1.5108    2.1906 N   0  0  0  0  0  0  0  0  0  0  0  0
   -3.9284   -0.7983    1.1141 N   0  0  0  0  0  0  0  0  0  0  0  0
    2.9669   -0.6260   -0.7299 H   0  0  0  0  0  0  0  0  0  0  0  0
    2.9504    0.1785    0.8471 H   0  0  0  0  0  0  0  0  0  0  0  0
    2.8324    1.1374   -0.6542 H   0  0  0  0  0  0  0  0  0  0  0  0
    0.8112    1.9372    1.0291 H   0  0  0  0  0  0  0  0  0  0  0  0
   -1.6423    1.7970    1.1479 H   0  0  0  0  0  0  0  0  0  0  0  0
   -1.5416   -1.8724   -1.1177 H   0  0  0  0  0  0  0  0  0  0  0  0
    0.9100   -1.7330   -1.2358 H   0  0  0  0  0  0  0  0  0  0  0  0
   -3.3842    1.0359   -1.7229 H   0  0  0  0  0  0  0  0  0  0  0  0
   -8.0782   -0.5643    0.7596 H   0  0  0  0  0  0  0  0  0  0  0  0
   -9.1650    0.6007   -1.1475 H   0  0  0  0  0  0  0  0  0  0  0  0
   -7.7285    1.6700   -2.8849 H   0  0  0  0  0  0  0  0  0  0  0  0
   -6.7185   -1.7479    2.5425 H   0  0  0  0  0  0  0  0  0  0  0  0
   -2.4828   -2.8301    4.2184 H   0  0  0  0  0  0  0  0  0  0  0  0
   -5.0173   -3.0507    6.7977 H   0  0  0  0  0  0  0  0  0  0  0  0
   -3.4691   -2.3728    7.2542 H   0  0  0  0  0  0  0  0  0  0  0  0
   -4.5292   -3.6692    9.1101 H   0  0  0  0  0  0  0  0  0  0  0  0
   -5.7529   -5.3181    7.6790 H   0  0  0  0  0  0  0  0  0  0  0  0
   -4.7808   -6.1327    8.9013 H   0  0  0  0  0  0  0  0  0  0  0  0
   -4.4767   -7.2323    6.6934 H   0  0  0  0  0  0  0  0  0  0  0  0
   -3.4187   -5.9628    4.8158 H   0  0  0  0  0  0  0  0  0  0  0  0
   -4.9859   -5.3222    5.2601 H   0  0  0  0  0  0  0  0  0  0  0  0
   -1.9907   -7.1090    6.5599 H   0  0  0  0  0  0  0  0  0  0  0  0
   -2.5222   -7.1668    8.2377 H   0  0  0  0  0  0  0  0  0  0  0  0
   -0.7802   -5.4039    7.9120 H   0  0  0  0  0  0  0  0  0  0  0  0
   -2.5622   -5.1073    9.6433 H   0  0  0  0  0  0  0  0  0  0  0  0
   -2.0438   -3.5540    8.9951 H   0  0  0  0  0  0  0  0  0  0  0  0
   -1.2946   -3.3953    6.5155 H   0  0  0  0  0  0  0  0  0  0  0  0
   -1.2699   -4.8473    5.5245 H   0  0  0  0  0  0  0  0  0  0  0  0
  1  2  1  0  0  0  0
  1 34  1  0  0  0  0
  1 35  1  0  0  0  0
  1 36  1  0  0  0  0
  2  7  2  0  0  0  0
  2  3  1  0  0  0  0
  3  4  2  0  0  0  0
  3 37  1  0  0  0  0
  4  5  1  0  0  0  0
  4 38  1  0  0  0  0
  5  6  2  0  0  0  0
  5  8  1  0  0  0  0
  6  7  1  0  0  0  0
  6 39  1  0  0  0  0
  7 40  1  0  0  0  0
  8 33  1  0  0  0  0
  8  9  2  0  0  0  0
  9 10  1  0  0  0  0
  9 41  1  0  0  0  0
 10 15  2  0  0  0  0
 10 11  1  0  0  0  0
 11 12  2  0  0  0  0
 11 16  1  0  0  0  0
 12 13  1  0  0  0  0
 12 42  1  0  0  0  0
 13 14  2  0  0  0  0
 13 43  1  0  0  0  0
 14 15  1  0  0  0  0
 14 44  1  0  0  0  0
 16 33  1  0  0  0  0
 16 17  2  0  0  0  0
 17 18  1  0  0  0  0
 17 45  1  0  0  0  0
 18 19  1  0  0  0  0
 18 32  2  0  0  0  0
 19 20  2  0  0  0  0
 19 21  1  0  0  0  0
 21 46  1  0  0  0  0
 22 21  1  6  0  0  0
 22 27  1  0  0  0  0
 22 31  1  0  0  0  0
 22 23  1  0  0  0  0
 23 47  1  0  0  0  0
 23 48  1  0  0  0  0
 24 23  1  0  0  0  0
 24 25  1  0  0  0  0
 24 30  1  0  0  0  0
 24 49  1  1  0  0  0
 25 50  1  0  0  0  0
 25 51  1  0  0  0  0
 26 25  1  0  0  0  0
 26 27  1  0  0  0  0
 26 28  1  0  0  0  0
 26 52  1  6  0  0  0
 27 53  1  0  0  0  0
 27 54  1  0  0  0  0
 28 55  1  0  0  0  0
 28 56  1  0  0  0  0
 29 28  1  0  0  0  0
 29 30  1  0  0  0  0
 29 31  1  0  0  0  0
 29 57  1  1  0  0  0
 30 58  1  0  0  0  0
 30 59  1  0  0  0  0
 31 60  1  0  0  0  0
 31 61  1  0  0  0  0
 32 33  1  0  0  0  0
M  END
$$$$
CHEMBL3975486_6KPF
 OpenBabel12022418113D

 56 59  0  0  1  0  0  0  0  0999 V2000
   -1.4432   -1.0208   -1.4766 C   0  0  0  0  0  0  0  0  0  0  0  0
   -0.3838   -0.2887   -0.7565 C   0  0  0  0  0  0  0  0  0  0  0  0
    0.6075    0.4258   -1.2321 N   0  0  0  0  0  0  0  0  0  0  0  0
    1.2795    0.8109   -0.0907 C   0  0  0  0  0  0  0  0  0  0  0  0
    2.5710    1.6307   -0.1368 C   0  0  2  0  0  0  0  0  0  0  0  0
    3.2693    1.3813   -1.4944 C   0  0  0  0  0  0  0  0  0  0  0  0
    3.5279    1.2587    1.0389 C   0  0  0  0  0  0  0  0  0  0  0  0
    3.9816   -0.1843    1.0846 C   0  0  0  0  0  0  0  0  0  0  0  0
    5.3680   -0.5908    0.6493 C   0  0  0  0  0  0  0  0  0  0  0  0
    5.0185   -0.5714    2.1096 C   0  0  0  0  0  0  0  0  0  0  0  0
    2.1769    3.0591   -0.0383 N   0  0  0  0  0  0  0  0  0  0  0  0
    3.0511    4.1271   -0.1223 C   0  0  0  0  0  0  0  0  0  0  0  0
    4.2660    4.0138   -0.2471 O   0  0  0  0  0  0  0  0  0  0  0  0
    2.4193    5.4829   -0.0883 C   0  0  0  0  0  0  0  0  0  0  0  0
    3.1914    6.6037   -0.3764 C   0  0  0  0  0  0  0  0  0  0  0  0
    2.5617    7.8478   -0.4565 C   0  0  0  0  0  0  0  0  0  0  0  0
    1.1954    7.9643   -0.1375 C   0  0  0  0  0  0  0  0  0  0  0  0
    0.5340    6.7615    0.1493 C   0  0  0  0  0  0  0  0  0  0  0  0
    1.0902    5.5274    0.1634 N   0  0  0  0  0  0  0  0  0  0  0  0
    0.4025    9.2564   -0.1562 C   0  0  0  0  0  0  0  0  0  0  0  0
   -0.1415    9.7709    1.1634 C   0  0  0  0  0  0  0  0  0  0  0  0
    0.9000   10.5551    0.4287 C   0  0  0  0  0  0  0  0  0  0  0  0
    3.1897    9.0032   -0.8544 O   0  0  0  0  0  0  0  0  0  0  0  0
    4.3855    8.9208   -1.6596 C   0  0  1  0  0  0  0  0  0  0  0  0
    4.0712    8.3229   -3.0347 C   0  0  0  0  0  0  0  0  0  0  0  0
    5.0167   10.3199   -1.8334 C   0  0  0  0  0  0  0  0  0  0  0  0
    4.4540   11.2508   -1.0307 F   0  0  0  0  0  0  0  0  0  0  0  0
    6.3380   10.2818   -1.5268 F   0  0  0  0  0  0  0  0  0  0  0  0
    4.9233   10.7790   -3.1037 F   0  0  0  0  0  0  0  0  0  0  0  0
    0.6970    0.3973    1.0467 N   0  0  0  0  0  0  0  0  0  0  0  0
   -0.3908   -0.3590    0.6055 O   0  0  0  0  0  0  0  0  0  0  0  0
   -2.0208   -1.6590   -0.7994 H   0  0  0  0  0  0  0  0  0  0  0  0
   -1.0025   -1.6583   -2.2498 H   0  0  0  0  0  0  0  0  0  0  0  0
   -2.1237   -0.3170   -1.9601 H   0  0  0  0  0  0  0  0  0  0  0  0
    4.2211    1.9142   -1.5733 H   0  0  0  0  0  0  0  0  0  0  0  0
    2.6421    1.7224   -2.3283 H   0  0  0  0  0  0  0  0  0  0  0  0
    3.4722    0.3163   -1.6553 H   0  0  0  0  0  0  0  0  0  0  0  0
    3.0339    1.4854    1.9933 H   0  0  0  0  0  0  0  0  0  0  0  0
    4.4164    1.9012    1.0123 H   0  0  0  0  0  0  0  0  0  0  0  0
    3.1739   -0.8932    0.9404 H   0  0  0  0  0  0  0  0  0  0  0  0
    6.0501    0.1688    0.2842 H   0  0  0  0  0  0  0  0  0  0  0  0
    5.4941   -1.5599    0.1786 H   0  0  0  0  0  0  0  0  0  0  0  0
    4.8924   -1.5187    2.6215 H   0  0  0  0  0  0  0  0  0  0  0  0
    5.4579    0.2061    2.7252 H   0  0  0  0  0  0  0  0  0  0  0  0
    1.1920    3.2929    0.0667 H   0  0  0  0  0  0  0  0  0  0  0  0
    4.2504    6.4709   -0.5611 H   0  0  0  0  0  0  0  0  0  0  0  0
   -0.5325    6.7736    0.3682 H   0  0  0  0  0  0  0  0  0  0  0  0
   -0.2544    9.3659   -1.0186 H   0  0  0  0  0  0  0  0  0  0  0  0
    0.1680    9.2991    2.0906 H   0  0  0  0  0  0  0  0  0  0  0  0
   -1.1558   10.1521    1.1812 H   0  0  0  0  0  0  0  0  0  0  0  0
    0.5882   11.4772   -0.0521 H   0  0  0  0  0  0  0  0  0  0  0  0
    1.8935   10.6069    0.8581 H   0  0  0  0  0  0  0  0  0  0  0  0
    5.1318    8.3082   -1.1412 H   0  0  0  0  0  0  0  0  0  0  0  0
    3.2942    8.9106   -3.5374 H   0  0  0  0  0  0  0  0  0  0  0  0
    3.6833    7.3033   -2.9603 H   0  0  0  0  0  0  0  0  0  0  0  0
    4.9615    8.2955   -3.6701 H   0  0  0  0  0  0  0  0  0  0  0  0
  1  2  1  0  0  0  0
  1 32  1  0  0  0  0
  1 33  1  0  0  0  0
  1 34  1  0  0  0  0
  2 31  1  0  0  0  0
  2  3  2  0  0  0  0
  3  4  1  0  0  0  0
  4 30  2  0  0  0  0
  5  7  1  1  0  0  0
  5 11  1  0  0  0  0
  5  6  1  0  0  0  0
  5  4  1  0  0  0  0
  6 35  1  0  0  0  0
  6 36  1  0  0  0  0
  6 37  1  0  0  0  0
  7  8  1  0  0  0  0
  7 38  1  0  0  0  0
  7 39  1  0  0  0  0
  8 10  1  0  0  0  0
  8  9  1  0  0  0  0
  8 40  1  0  0  0  0
  9 10  1  0  0  0  0
  9 41  1  0  0  0  0
  9 42  1  0  0  0  0
 10 43  1  0  0  0  0
 10 44  1  0  0  0  0
 11 12  1  0  0  0  0
 11 45  1  0  0  0  0
 12 13  2  0  0  0  0
 12 14  1  0  0  0  0
 14 19  2  0  0  0  0
 14 15  1  0  0  0  0
 15 16  2  0  0  0  0
 15 46  1  0  0  0  0
 16 17  1  0  0  0  0
 16 23  1  0  0  0  0
 17 18  2  0  0  0  0
 17 20  1  0  0  0  0
 18 19  1  0  0  0  0
 18 47  1  0  0  0  0
 20 22  1  0  0  0  0
 20 21  1  0  0  0  0
 20 48  1  0  0  0  0
 21 22  1  0  0  0  0
 21 49  1  0  0  0  0
 21 50  1  0  0  0  0
 22 51  1  0  0  0  0
 22 52  1  0  0  0  0
 23 24  1  0  0  0  0
 24 25  1  0  0  0  0
 24 26  1  0  0  0  0
 24 53  1  1  0  0  0
 25 54  1  0  0  0  0
 25 55  1  0  0  0  0
 25 56  1  0  0  0  0
 26 27  1  0  0  0  0
 26 28  1  0  0  0  0
 26 29  1  0  0  0  0
 30 31  1  0  0  0  0
M  END
$$$$
CHEMBL3966497_5ZTY
 OpenBabel12022418113D

 52 54  0  0  1  0  0  0  0  0999 V2000
    5.4834    0.3063   -4.9150 C   0  0  0  0  0  0  0  0  0  0  0  0
    4.2056    0.9156   -5.3233 C   0  0  0  0  0  0  0  0  0  0  0  0
    3.8325    2.1743   -5.2998 N   0  0  0  0  0  0  0  0  0  0  0  0
    2.5546    2.1062   -5.8208 C   0  0  0  0  0  0  0  0  0  0  0  0
    1.7171    3.3212   -6.0961 C   0  0  2  0  0  0  0  0  0  0  0  0
    1.3028    3.4803   -7.5776 C   0  0  0  0  0  0  0  0  0  0  0  0
    2.4215    3.7488   -8.6168 C   0  0  0  0  0  0  0  0  0  0  0  0
    3.4513    2.6256   -8.7408 C   0  0  0  0  0  0  0  0  0  0  0  0
    1.7886    3.9714   -9.9969 C   0  0  0  0  0  0  0  0  0  0  0  0
    2.3911    4.5085   -5.6083 N   0  0  0  0  0  0  0  0  0  0  0  0
    1.7297    5.6161   -5.1371 C   0  0  0  0  0  0  0  0  0  0  0  0
    0.5144    5.7136   -5.0475 O   0  0  0  0  0  0  0  0  0  0  0  0
    2.6397    6.7294   -4.6907 C   0  0  0  0  0  0  0  0  0  0  0  0
    2.1282    7.8644   -4.0889 C   0  0  0  0  0  0  0  0  0  0  0  0
    3.0236    8.8580   -3.7015 C   0  0  0  0  0  0  0  0  0  0  0  0
    4.3888    8.6819   -3.9444 C   0  0  0  0  0  0  0  0  0  0  0  0
    4.8302    7.5075   -4.5585 C   0  0  0  0  0  0  0  0  0  0  0  0
    6.3339    7.2638   -4.7434 C   0  0  2  0  0  0  0  0  0  0  0  0
    6.6906    5.9943   -5.5216 C   0  0  0  0  0  0  0  0  0  0  0  0
    6.2483    5.8389   -6.8511 C   0  0  0  0  0  0  0  0  0  0  0  0
    6.4854    4.6540   -7.5498 C   0  0  0  0  0  0  0  0  0  0  0  0
    7.1772    3.6202   -6.9346 C   0  0  0  0  0  0  0  0  0  0  0  0
    7.6647    3.7613   -5.6433 C   0  0  0  0  0  0  0  0  0  0  0  0
    7.4348    4.9468   -4.9420 C   0  0  0  0  0  0  0  0  0  0  0  0
    7.3773    2.4705   -7.5922 F   0  0  0  0  0  0  0  0  0  0  0  0
    6.9247    7.2271   -3.4399 O   0  0  0  0  0  0  0  0  0  0  0  0
    3.9634    6.5298   -4.9210 N   0  0  0  0  0  0  0  0  0  0  0  0
    2.1443    0.8660   -6.1238 N   0  0  0  0  0  0  0  0  0  0  0  0
    3.2481    0.0741   -5.8064 O   0  0  0  0  0  0  0  0  0  0  0  0
    5.4951   -0.7705   -5.1149 H   0  0  0  0  0  0  0  0  0  0  0  0
    5.6458    0.4561   -3.8434 H   0  0  0  0  0  0  0  0  0  0  0  0
    6.3164    0.7603   -5.4577 H   0  0  0  0  0  0  0  0  0  0  0  0
    0.7931    3.2132   -5.5103 H   0  0  0  0  0  0  0  0  0  0  0  0
    0.7345    2.5927   -7.8866 H   0  0  0  0  0  0  0  0  0  0  0  0
    0.5966    4.3211   -7.6342 H   0  0  0  0  0  0  0  0  0  0  0  0
    2.9512    4.6693   -8.3416 H   0  0  0  0  0  0  0  0  0  0  0  0
    2.9682    1.6513   -8.8687 H   0  0  0  0  0  0  0  0  0  0  0  0
    4.1040    2.5862   -7.8684 H   0  0  0  0  0  0  0  0  0  0  0  0
    4.1099    2.7874   -9.6010 H   0  0  0  0  0  0  0  0  0  0  0  0
    1.1913    3.1045  -10.3018 H   0  0  0  0  0  0  0  0  0  0  0  0
    2.5591    4.1311  -10.7591 H   0  0  0  0  0  0  0  0  0  0  0  0
    1.1382    4.8509   -9.9929 H   0  0  0  0  0  0  0  0  0  0  0  0
    3.4124    4.5247   -5.5952 H   0  0  0  0  0  0  0  0  0  0  0  0
    1.0613    7.9653   -3.9001 H   0  0  0  0  0  0  0  0  0  0  0  0
    2.6644    9.7551   -3.2064 H   0  0  0  0  0  0  0  0  0  0  0  0
    5.0987    9.4408   -3.6298 H   0  0  0  0  0  0  0  0  0  0  0  0
    6.7704    8.1186   -5.2733 H   0  0  0  0  0  0  0  0  0  0  0  0
    5.6783    6.6295   -7.3356 H   0  0  0  0  0  0  0  0  0  0  0  0
    6.1171    4.5243   -8.5632 H   0  0  0  0  0  0  0  0  0  0  0  0
    8.2155    2.9470   -5.1833 H   0  0  0  0  0  0  0  0  0  0  0  0
    7.8380    5.0319   -3.9384 H   0  0  0  0  0  0  0  0  0  0  0  0
    6.4954    6.4796   -2.9853 H   0  0  0  0  0  0  0  0  0  0  0  0
  1  2  1  0  0  0  0
  1 30  1  0  0  0  0
  1 31  1  0  0  0  0
  1 32  1  0  0  0  0
  2 29  1  0  0  0  0
  2  3  2  0  0  0  0
  3  4  1  0  0  0  0
  4 28  2  0  0  0  0
  5 10  1  0  0  0  0
  5  6  1  0  0  0  0
  5  4  1  0  0  0  0
  5 33  1  1  0  0  0
  6  7  1  0  0  0  0
  6 34  1  0  0  0  0
  6 35  1  0  0  0  0
  7  8  1  0  0  0  0
  7  9  1  0  0  0  0
  7 36  1  0  0  0  0
  8 37  1  0  0  0  0
  8 38  1  0  0  0  0
  8 39  1  0  0  0  0
  9 40  1  0  0  0  0
  9 41  1  0  0  0  0
  9 42  1  0  0  0  0
 10 11  1  0  0  0  0
 10 43  1  0  0  0  0
 11 12  2  0  0  0  0
 11 13  1  0  0  0  0
 13 27  2  0  0  0  0
 13 14  1  0  0  0  0
 14 15  2  0  0  0  0
 14 44  1  0  0  0  0
 15 16  1  0  0  0  0
 15 45  1  0  0  0  0
 16 17  2  0  0  0  0
 16 46  1  0  0  0  0
 17 27  1  0  0  0  0
 18 26  1  0  0  0  0
 18 19  1  0  0  0  0
 18 17  1  0  0  0  0
 18 47  1  6  0  0  0
 19 24  2  0  0  0  0
 19 20  1  0  0  0  0
 20 21  2  0  0  0  0
 20 48  1  0  0  0  0
 21 22  1  0  0  0  0
 21 49  1  0  0  0  0
 22 23  2  0  0  0  0
 22 25  1  0  0  0  0
 23 24  1  0  0  0  0
 23 50  1  0  0  0  0
 24 51  1  0  0  0  0
 26 52  1  0  0  0  0
 28 29  1  0  0  0  0
M  END
$$$$
CHEMBL2152807_5ZTY
 OpenBabel12022418113D

 52 55  0  0  1  0  0  0  0  0999 V2000
    4.7761   -4.4407    2.3879 C   0  0  0  0  0  0  0  0  0  0  0  0
    4.7628   -3.1823    1.9261 C   0  0  0  0  0  0  0  0  0  0  0  0
    4.1126   -2.6133    0.8259 N   0  0  0  0  0  0  0  0  0  0  0  0
    3.3714   -3.4032   -0.0599 C   0  0  0  0  0  0  0  0  0  0  0  0
    2.7217   -3.0214   -1.1659 C   0  0  0  0  0  0  0  0  0  0  0  0
    2.0976   -4.0747   -2.0231 C   0  0  0  0  0  0  0  0  0  0  0  0
    1.8187   -5.1862   -1.5872 O   0  0  0  0  0  0  0  0  0  0  0  0
    1.9368   -3.6974   -3.3305 N   0  0  0  0  0  0  0  0  0  0  0  0
    1.4018   -4.5245   -4.3980 C   0  0  2  0  0  0  0  0  0  0  0  0
    2.2189   -5.8125   -4.7996 C   0  0  0  0  0  0  0  0  0  0  0  0
    3.4793   -6.1610   -3.9923 C   0  0  0  0  0  0  0  0  0  0  0  0
    1.2891   -7.0481   -4.7094 C   0  0  0  0  0  0  0  0  0  0  0  0
    2.5792   -5.5006   -6.2892 C   0  0  2  0  0  0  0  0  0  0  0  0
    3.5870   -4.3329   -6.3900 C   0  0  0  0  0  0  0  0  0  0  0  0
    2.7351   -3.1008   -6.0549 C   0  0  0  0  0  0  0  0  0  0  0  0
    1.3511   -3.7219   -5.7493 C   0  0  2  0  0  0  0  0  0  0  0  0
    0.2012   -2.7387   -5.8521 C   0  0  0  0  0  0  0  0  0  0  0  0
    1.3099   -4.8265   -6.8097 C   0  0  0  0  0  0  0  0  0  0  0  0
    2.7551   -1.5876   -1.5051 C   0  0  0  0  0  0  0  0  0  0  0  0
    2.1725   -1.1490   -2.4943 O   0  0  0  0  0  0  0  0  0  0  0  0
    3.5347   -0.6869   -0.6261 C   0  0  0  0  0  0  0  0  0  0  0  0
    3.5951    0.6765   -0.9715 C   0  0  0  0  0  0  0  0  0  0  0  0
    4.3354    1.5600   -0.1980 C   0  0  0  0  0  0  0  0  0  0  0  0
    5.0092    1.0708    0.9108 C   0  0  0  0  0  0  0  0  0  0  0  0
    4.9526   -0.2796    1.2655 C   0  0  0  0  0  0  0  0  0  0  0  0
    4.2100   -1.2028    0.5087 C   0  0  0  0  0  0  0  0  0  0  0  0
    5.7342    1.9117    1.6596 F   0  0  0  0  0  0  0  0  0  0  0  0
    5.3593   -4.6918    3.2681 H   0  0  0  0  0  0  0  0  0  0  0  0
    4.2321   -5.2562    1.9270 H   0  0  0  0  0  0  0  0  0  0  0  0
    5.3564   -2.4842    2.5051 H   0  0  0  0  0  0  0  0  0  0  0  0
    3.3697   -4.4597    0.1888 H   0  0  0  0  0  0  0  0  0  0  0  0
    1.9440   -2.6897   -3.4919 H   0  0  0  0  0  0  0  0  0  0  0  0
    0.3841   -4.8039   -4.0943 H   0  0  0  0  0  0  0  0  0  0  0  0
    3.2344   -6.6428   -3.0402 H   0  0  0  0  0  0  0  0  0  0  0  0
    4.1028   -5.2913   -3.7722 H   0  0  0  0  0  0  0  0  0  0  0  0
    4.0969   -6.8789   -4.5485 H   0  0  0  0  0  0  0  0  0  0  0  0
    0.9855   -7.2257   -3.6709 H   0  0  0  0  0  0  0  0  0  0  0  0
    1.7956   -7.9498   -5.0707 H   0  0  0  0  0  0  0  0  0  0  0  0
    0.3686   -6.9357   -5.2893 H   0  0  0  0  0  0  0  0  0  0  0  0
    2.8946   -6.3807   -6.8556 H   0  0  0  0  0  0  0  0  0  0  0  0
    3.9753   -4.2443   -7.4104 H   0  0  0  0  0  0  0  0  0  0  0  0
    4.4495   -4.4262   -5.7252 H   0  0  0  0  0  0  0  0  0  0  0  0
    2.6876   -2.4339   -6.9245 H   0  0  0  0  0  0  0  0  0  0  0  0
    3.1590   -2.5196   -5.2312 H   0  0  0  0  0  0  0  0  0  0  0  0
    0.2653   -1.9643   -5.0825 H   0  0  0  0  0  0  0  0  0  0  0  0
   -0.7619   -3.2500   -5.7414 H   0  0  0  0  0  0  0  0  0  0  0  0
    0.1959   -2.2413   -6.8287 H   0  0  0  0  0  0  0  0  0  0  0  0
    0.4097   -5.4431   -6.7672 H   0  0  0  0  0  0  0  0  0  0  0  0
    1.4209   -4.4483   -7.8332 H   0  0  0  0  0  0  0  0  0  0  0  0
    3.0669    1.0487   -1.8474 H   0  0  0  0  0  0  0  0  0  0  0  0
    4.3972    2.6128   -0.4491 H   0  0  0  0  0  0  0  0  0  0  0  0
    5.5199   -0.5560    2.1454 H   0  0  0  0  0  0  0  0  0  0  0  0
  1  2  2  0  0  0  0
  1 28  1  0  0  0  0
  1 29  1  0  0  0  0
  2  3  1  0  0  0  0
  2 30  1  0  0  0  0
  3 26  1  0  0  0  0
  3  4  1  0  0  0  0
  4  5  2  0  0  0  0
  4 31  1  0  0  0  0
  5  6  1  0  0  0  0
  5 19  1  0  0  0  0
  6  7  2  0  0  0  0
  6  8  1  0  0  0  0
  8 32  1  0  0  0  0
  9  8  1  0  0  0  0
  9 10  1  0  0  0  0
  9 16  1  0  0  0  0
  9 33  1  1  0  0  0
 10 11  1  0  0  0  0
 10 12  1  0  0  0  0
 10 13  1  0  0  0  0
 11 34  1  0  0  0  0
 11 35  1  0  0  0  0
 11 36  1  0  0  0  0
 12 37  1  0  0  0  0
 12 38  1  0  0  0  0
 12 39  1  0  0  0  0
 13 14  1  0  0  0  0
 13 18  1  0  0  0  0
 13 40  1  6  0  0  0
 14 15  1  0  0  0  0
 14 41  1  0  0  0  0
 14 42  1  0  0  0  0
 15 16  1  0  0  0  0
 15 43  1  0  0  0  0
 15 44  1  0  0  0  0
 16 17  1  6  0  0  0
 16 18  1  0  0  0  0
 17 45  1  0  0  0  0
 17 46  1  0  0  0  0
 17 47  1  0  0  0  0
 18 48  1  0  0  0  0
 18 49  1  0  0  0  0
 19 20  2  0  0  0  0
 19 21  1  0  0  0  0
 21 26  2  0  0  0  0
 21 22  1  0  0  0  0
 22 23  2  0  0  0  0
 22 50  1  0  0  0  0
 23 24  1  0  0  0  0
 23 51  1  0  0  0  0
 24 25  2  0  0  0  0
 24 27  1  0  0  0  0
 25 26  1  0  0  0  0
 25 52  1  0  0  0  0
M  END
$$$$
CHEMBL410912_5ZTY
 OpenBabel12022418113D

 50 53  0  0  0  0  0  0  0  0999 V2000
    1.0783    0.3753   -0.1158 C   0  0  0  0  0  0  0  0  0  0  0  0
    2.5477    0.1286   -0.1158 C   0  0  0  0  0  0  0  0  0  0  0  0
    3.5523    1.1514   -0.0169 C   0  0  0  0  0  0  0  0  0  0  0  0
    3.3594    2.6337    0.0041 C   0  0  0  0  0  0  0  0  0  0  0  0
    2.2554    3.1591   -0.1042 O   0  0  0  0  0  0  0  0  0  0  0  0
    4.5333    3.3479    0.1454 N   0  0  0  0  0  0  0  0  0  0  0  0
    4.6901    4.8036    0.1780 C   0  0  0  0  0  0  0  0  0  0  0  0
    4.3610    5.4841   -1.1597 C   0  0  0  0  0  0  0  0  0  0  0  0
    4.6413    6.9905   -1.1093 C   0  0  0  0  0  0  0  0  0  0  0  0
    3.9167    7.6706    0.0490 C   0  0  0  0  0  0  0  0  0  0  0  0
    4.2210    6.9887    1.3800 C   0  0  0  0  0  0  0  0  0  0  0  0
    3.9366    5.4834    1.3321 C   0  0  0  0  0  0  0  0  0  0  0  0
    4.7815    0.6074    0.0964 N   0  0  0  0  0  0  0  0  0  0  0  0
    4.6022   -0.7352   -0.0307 N   0  0  0  0  0  0  0  0  0  0  0  0
    5.7444   -1.5527   -0.2637 C   0  0  0  0  0  0  0  0  0  0  0  0
    5.7036   -2.6114   -1.1882 C   0  0  0  0  0  0  0  0  0  0  0  0
    6.8366   -3.4051   -1.3912 C   0  0  0  0  0  0  0  0  0  0  0  0
    8.0015   -3.1363   -0.6811 C   0  0  0  0  0  0  0  0  0  0  0  0
    8.0610   -2.0870    0.2249 C   0  0  0  0  0  0  0  0  0  0  0  0
    6.9339   -1.2927    0.4251 C   0  0  0  0  0  0  0  0  0  0  0  0
    7.0046   -0.3359    1.3611 F   0  0  0  0  0  0  0  0  0  0  0  0
    9.0823   -3.9032   -0.8753 F   0  0  0  0  0  0  0  0  0  0  0  0
    3.2562   -1.0675   -0.0838 C   0  0  0  0  0  0  0  0  0  0  0  0
    2.7566   -2.3779   -0.0252 N   0  0  0  0  0  0  0  0  0  0  0  0
    3.3211   -3.4538    0.6431 C   0  0  0  0  0  0  0  0  0  0  0  0
    2.5449   -4.5773    0.4612 C   0  0  0  0  0  0  0  0  0  0  0  0
    1.4456   -4.1934   -0.3287 C   0  0  0  0  0  0  0  0  0  0  0  0
    1.5975   -2.8538   -0.6118 C   0  0  0  0  0  0  0  0  0  0  0  0
    0.4923   -0.5334    0.0297 H   0  0  0  0  0  0  0  0  0  0  0  0
    0.7666    0.8353   -1.0582 H   0  0  0  0  0  0  0  0  0  0  0  0
    0.8052    1.0420    0.7086 H   0  0  0  0  0  0  0  0  0  0  0  0
    5.3656    2.7649    0.1956 H   0  0  0  0  0  0  0  0  0  0  0  0
    5.7633    4.9506    0.3613 H   0  0  0  0  0  0  0  0  0  0  0  0
    3.3077    5.3247   -1.4200 H   0  0  0  0  0  0  0  0  0  0  0  0
    4.9559    5.0368   -1.9647 H   0  0  0  0  0  0  0  0  0  0  0  0
    4.3395    7.4574   -2.0542 H   0  0  0  0  0  0  0  0  0  0  0  0
    5.7209    7.1586   -1.0058 H   0  0  0  0  0  0  0  0  0  0  0  0
    2.8355    7.6528   -0.1339 H   0  0  0  0  0  0  0  0  0  0  0  0
    4.2110    8.7262    0.0994 H   0  0  0  0  0  0  0  0  0  0  0  0
    3.6255    7.4549    2.1737 H   0  0  0  0  0  0  0  0  0  0  0  0
    5.2748    7.1546    1.6371 H   0  0  0  0  0  0  0  0  0  0  0  0
    4.2269    5.0319    2.2877 H   0  0  0  0  0  0  0  0  0  0  0  0
    2.8560    5.3318    1.2268 H   0  0  0  0  0  0  0  0  0  0  0  0
    4.8136   -2.8265   -1.7756 H   0  0  0  0  0  0  0  0  0  0  0  0
    6.8170   -4.2303   -2.0977 H   0  0  0  0  0  0  0  0  0  0  0  0
    8.9693   -1.8986    0.7849 H   0  0  0  0  0  0  0  0  0  0  0  0
    4.2235   -3.3365    1.2272 H   0  0  0  0  0  0  0  0  0  0  0  0
    2.7480   -5.5604    0.8675 H   0  0  0  0  0  0  0  0  0  0  0  0
    0.6325   -4.8252   -0.6652 H   0  0  0  0  0  0  0  0  0  0  0  0
    0.9868   -2.2128   -1.2315 H   0  0  0  0  0  0  0  0  0  0  0  0
  1  2  1  0  0  0  0
  1 29  1  0  0  0  0
  1 30  1  0  0  0  0
  1 31  1  0  0  0  0
  2 23  2  0  0  0  0
  2  3  1  0  0  0  0
  3  4  1  0  0  0  0
  3 13  2  0  0  0  0
  4  5  2  0  0  0  0
  4  6  1  0  0  0  0
  6  7  1  0  0  0  0
  6 32  1  0  0  0  0
  7 12  1  0  0  0  0
  7  8  1  0  0  0  0
  7 33  1  0  0  0  0
  8  9  1  0  0  0  0
  8 34  1  0  0  0  0
  8 35  1  0  0  0  0
  9 10  1  0  0  0  0
  9 36  1  0  0  0  0
  9 37  1  0  0  0  0
 10 11  1  0  0  0  0
 10 38  1  0  0  0  0
 10 39  1  0  0  0  0
 11 12  1  0  0  0  0
 11 40  1  0  0  0  0
 11 41  1  0  0  0  0
 12 42  1  0  0  0  0
 12 43  1  0  0  0  0
 13 14  1  0  0  0  0
 14 15  1  0  0  0  0
 14 23  1  0  0  0  0
 15 20  2  0  0  0  0
 15 16  1  0  0  0  0
 16 17  2  0  0  0  0
 16 44  1  0  0  0  0
 17 18  1  0  0  0  0
 17 45  1  0  0  0  0
 18 19  2  0  0  0  0
 18 22  1  0  0  0  0
 19 20  1  0  0  0  0
 19 46  1  0  0  0  0
 20 21  1  0  0  0  0
 23 24  1  0  0  0  0
 24 28  1  0  0  0  0
 24 25  1  0  0  0  0
 25 26  2  0  0  0  0
 25 47  1  0  0  0  0
 26 27  1  0  0  0  0
 26 48  1  0  0  0  0
 27 28  2  0  0  0  0
 27 49  1  0  0  0  0
 28 50  1  0  0  0  0
M  END
$$$$
CHEMBL2316282_5ZTY
 OpenBabel12022418113D

 53 55  0  0  0  0  0  0  0  0999 V2000
    0.9262    1.7092    0.8187 C   0  0  0  0  0  0  0  0  0  0  0  0
    2.4480    1.7400    0.8234 C   0  0  0  0  0  0  0  0  0  0  0  0
    3.0205    1.9096   -0.5860 C   0  0  0  0  0  0  0  0  0  0  0  0
    4.5542    1.9393   -0.5746 C   0  0  0  0  0  0  0  0  0  0  0  0
    5.1242    2.1237   -1.9878 C   0  0  0  0  0  0  0  0  0  0  0  0
    6.6029    2.1378   -1.9806 N   0  0  0  0  0  0  0  0  0  0  0  0
    7.3170    3.3377   -1.9970 C   0  0  0  0  0  0  0  0  0  0  0  0
    8.6604    3.4509   -1.9941 C   0  0  0  0  0  0  0  0  0  0  0  0
    9.2538    4.8206   -2.0829 C   0  0  0  0  0  0  0  0  0  0  0  0
    8.5407    5.8183   -2.1725 O   0  0  0  0  0  0  0  0  0  0  0  0
   10.6263    4.8909   -2.0751 N   0  0  0  0  0  0  0  0  0  0  0  0
   11.3449    6.1443   -2.2570 C   0  0  0  0  0  0  0  0  0  0  0  0
   12.6742    6.1392   -1.4941 C   0  0  0  0  0  0  0  0  0  0  0  0
   13.4076    7.4697   -1.6640 C   0  0  0  0  0  0  0  0  0  0  0  0
   13.6134    7.8246   -3.1351 C   0  0  0  0  0  0  0  0  0  0  0  0
   12.3068    7.7721   -3.9238 C   0  0  0  0  0  0  0  0  0  0  0  0
   11.5899    6.4347   -3.7435 C   0  0  0  0  0  0  0  0  0  0  0  0
    9.4711    2.2023   -1.9261 C   0  0  0  0  0  0  0  0  0  0  0  0
   10.6971    2.2517   -1.8554 O   0  0  0  0  0  0  0  0  0  0  0  0
    8.7151    0.9432   -1.9735 C   0  0  0  0  0  0  0  0  0  0  0  0
    9.2460   -0.4053   -1.9862 C   0  0  0  0  0  0  0  0  0  0  0  0
   10.6844   -0.8103   -1.9140 C   0  0  0  0  0  0  0  0  0  0  0  0
    8.2242   -1.3304   -2.0802 C   0  0  0  0  0  0  0  0  0  0  0  0
    6.6820   -0.6181   -2.1163 S   0  0  0  0  0  0  0  0  0  0  0  0
    7.3233    0.9646   -2.0092 C   0  0  0  0  0  0  0  0  0  0  0  0
    0.5464    1.5990    1.8398 H   0  0  0  0  0  0  0  0  0  0  0  0
    0.5505    0.8686    0.2265 H   0  0  0  0  0  0  0  0  0  0  0  0
    0.5139    2.6343    0.4034 H   0  0  0  0  0  0  0  0  0  0  0  0
    2.8216    0.8102    1.2679 H   0  0  0  0  0  0  0  0  0  0  0  0
    2.7855    2.5639    1.4627 H   0  0  0  0  0  0  0  0  0  0  0  0
    2.6380    2.8386   -1.0259 H   0  0  0  0  0  0  0  0  0  0  0  0
    2.6742    1.0852   -1.2215 H   0  0  0  0  0  0  0  0  0  0  0  0
    4.9287    1.0093   -0.1315 H   0  0  0  0  0  0  0  0  0  0  0  0
    4.9022    2.7552    0.0707 H   0  0  0  0  0  0  0  0  0  0  0  0
    4.7504    3.0713   -2.3988 H   0  0  0  0  0  0  0  0  0  0  0  0
    4.7396    1.3514   -2.6646 H   0  0  0  0  0  0  0  0  0  0  0  0
    6.6812    4.2182   -2.0352 H   0  0  0  0  0  0  0  0  0  0  0  0
   11.1599    4.0197   -2.0616 H   0  0  0  0  0  0  0  0  0  0  0  0
   10.7158    6.9447   -1.8484 H   0  0  0  0  0  0  0  0  0  0  0  0
   13.3128    5.3204   -1.8512 H   0  0  0  0  0  0  0  0  0  0  0  0
   12.4958    5.9530   -0.4283 H   0  0  0  0  0  0  0  0  0  0  0  0
   14.3777    7.4264   -1.1564 H   0  0  0  0  0  0  0  0  0  0  0  0
   12.8295    8.2653   -1.1776 H   0  0  0  0  0  0  0  0  0  0  0  0
   14.3342    7.1277   -3.5797 H   0  0  0  0  0  0  0  0  0  0  0  0
   14.0500    8.8269   -3.2137 H   0  0  0  0  0  0  0  0  0  0  0  0
   12.5102    7.9453   -4.9864 H   0  0  0  0  0  0  0  0  0  0  0  0
   11.6481    8.5832   -3.5891 H   0  0  0  0  0  0  0  0  0  0  0  0
   10.6413    6.4509   -4.2927 H   0  0  0  0  0  0  0  0  0  0  0  0
   12.1937    5.6324   -4.1886 H   0  0  0  0  0  0  0  0  0  0  0  0
   11.3764    0.0313   -1.9291 H   0  0  0  0  0  0  0  0  0  0  0  0
   10.9379   -1.4562   -2.7613 H   0  0  0  0  0  0  0  0  0  0  0  0
   10.8655   -1.3706   -0.9903 H   0  0  0  0  0  0  0  0  0  0  0  0
    8.3167   -2.4077   -2.1255 H   0  0  0  0  0  0  0  0  0  0  0  0
  1  2  1  0  0  0  0
  1 26  1  0  0  0  0
  1 27  1  0  0  0  0
  1 28  1  0  0  0  0
  2  3  1  0  0  0  0
  2 29  1  0  0  0  0
  2 30  1  0  0  0  0
  3  4  1  0  0  0  0
  3 31  1  0  0  0  0
  3 32  1  0  0  0  0
  4  5  1  0  0  0  0
  4 33  1  0  0  0  0
  4 34  1  0  0  0  0
  5  6  1  0  0  0  0
  5 35  1  0  0  0  0
  5 36  1  0  0  0  0
  6 25  1  0  0  0  0
  6  7  1  0  0  0  0
  7  8  2  0  0  0  0
  7 37  1  0  0  0  0
  8  9  1  0  0  0  0
  8 18  1  0  0  0  0
  9 10  2  0  0  0  0
  9 11  1  0  0  0  0
 11 12  1  0  0  0  0
 11 38  1  0  0  0  0
 12 17  1  0  0  0  0
 12 13  1  0  0  0  0
 12 39  1  0  0  0  0
 13 14  1  0  0  0  0
 13 40  1  0  0  0  0
 13 41  1  0  0  0  0
 14 15  1  0  0  0  0
 14 42  1  0  0  0  0
 14 43  1  0  0  0  0
 15 16  1  0  0  0  0
 15 44  1  0  0  0  0
 15 45  1  0  0  0  0
 16 17  1  0  0  0  0
 16 46  1  0  0  0  0
 16 47  1  0  0  0  0
 17 48  1  0  0  0  0
 17 49  1  0  0  0  0
 18 19  2  0  0  0  0
 18 20  1  0  0  0  0
 20 25  2  0  0  0  0
 20 21  1  0  0  0  0
 21 22  1  0  0  0  0
 21 23  2  0  0  0  0
 22 50  1  0  0  0  0
 22 51  1  0  0  0  0
 22 52  1  0  0  0  0
 23 24  1  0  0  0  0
 23 53  1  0  0  0  0
 24 25  1  0  0  0  0
M  END
$$$$
CHEMBL220180_6PT0
 OpenBabel12022418113D

 56 59  0  0  0  0  0  0  0  0999 V2000
    5.0946    2.7734    7.1304 C   0  0  0  0  0  0  0  0  0  0  0  0
    4.6404    2.2730    5.7715 C   0  0  0  0  0  0  0  0  0  0  0  0
    5.0156    0.8069    5.5646 C   0  0  0  0  0  0  0  0  0  0  0  0
    4.5143    0.2497    4.2316 C   0  0  0  0  0  0  0  0  0  0  0  0
    5.0997    0.9364    2.9952 C   0  0  0  0  0  0  0  0  0  0  0  0
    6.5417    0.8042    2.8271 N   0  0  0  0  0  0  0  0  0  0  0  0
    7.3636    1.9174    2.8023 C   0  0  0  0  0  0  0  0  0  0  0  0
    8.6788    1.5060    2.7616 C   0  0  0  0  0  0  0  0  0  0  0  0
    9.9118    2.2947    2.8659 C   0  0  0  0  0  0  0  0  0  0  0  0
   10.9896    1.8009    2.5376 O   0  0  0  0  0  0  0  0  0  0  0  0
    9.8869    3.6676    3.4713 C   0  0  0  0  0  0  0  0  0  0  0  0
    9.0446    3.8874    4.5760 C   0  0  0  0  0  0  0  0  0  0  0  0
    9.0024    5.1267    5.2048 C   0  0  0  0  0  0  0  0  0  0  0  0
    9.8292    6.1538    4.7550 C   0  0  0  0  0  0  0  0  0  0  0  0
   10.7199    5.9502    3.6922 C   0  0  0  0  0  0  0  0  0  0  0  0
   11.5753    6.9949    3.3022 C   0  0  0  0  0  0  0  0  0  0  0  0
   12.4910    6.8297    2.2656 C   0  0  0  0  0  0  0  0  0  0  0  0
   12.5505    5.6220    1.5887 C   0  0  0  0  0  0  0  0  0  0  0  0
   11.6939    4.5796    1.9533 C   0  0  0  0  0  0  0  0  0  0  0  0
   10.7631    4.7003    3.0194 C   0  0  0  0  0  0  0  0  0  0  0  0
    8.6151    0.1003    2.5629 C   0  0  0  0  0  0  0  0  0  0  0  0
    7.3050   -0.3492    2.6800 C   0  0  0  0  0  0  0  0  0  0  0  0
    6.8232   -1.7547    2.6542 C   0  0  0  0  0  0  0  0  0  0  0  0
    5.6159   -2.0635    1.9972 C   0  0  0  0  0  0  0  0  0  0  0  0
    5.0910   -3.3573    1.9610 C   0  0  0  0  0  0  0  0  0  0  0  0
    5.8138   -4.4070    2.4990 C   0  0  0  0  0  0  0  0  0  0  0  0
    7.0347   -4.1485    3.1116 C   0  0  0  0  0  0  0  0  0  0  0  0
    7.5343   -2.8323    3.2407 C   0  0  0  0  0  0  0  0  0  0  0  0
    8.8138   -2.7177    4.0301 C   0  0  0  0  0  0  0  0  0  0  0  0
    4.8383    3.8313    7.2448 H   0  0  0  0  0  0  0  0  0  0  0  0
    6.1787    2.6719    7.2402 H   0  0  0  0  0  0  0  0  0  0  0  0
    4.6101    2.2147    7.9364 H   0  0  0  0  0  0  0  0  0  0  0  0
    5.1035    2.9003    5.0037 H   0  0  0  0  0  0  0  0  0  0  0  0
    3.5544    2.3945    5.6816 H   0  0  0  0  0  0  0  0  0  0  0  0
    4.5774    0.2059    6.3714 H   0  0  0  0  0  0  0  0  0  0  0  0
    6.1022    0.6820    5.6384 H   0  0  0  0  0  0  0  0  0  0  0  0
    3.4217    0.3395    4.1932 H   0  0  0  0  0  0  0  0  0  0  0  0
    4.7264   -0.8228    4.2197 H   0  0  0  0  0  0  0  0  0  0  0  0
    4.8619    2.0067    3.0212 H   0  0  0  0  0  0  0  0  0  0  0  0
    4.6269    0.5810    2.0767 H   0  0  0  0  0  0  0  0  0  0  0  0
    6.9366    2.9109    2.8626 H   0  0  0  0  0  0  0  0  0  0  0  0
    8.4285    3.0869    4.9799 H   0  0  0  0  0  0  0  0  0  0  0  0
    8.3348    5.2930    6.0440 H   0  0  0  0  0  0  0  0  0  0  0  0
    9.7884    7.1139    5.2668 H   0  0  0  0  0  0  0  0  0  0  0  0
   11.5467    7.9527    3.8192 H   0  0  0  0  0  0  0  0  0  0  0  0
   13.1590    7.6422    1.9918 H   0  0  0  0  0  0  0  0  0  0  0  0
   13.2654    5.4785    0.7830 H   0  0  0  0  0  0  0  0  0  0  0  0
   11.7815    3.6501    1.3913 H   0  0  0  0  0  0  0  0  0  0  0  0
    9.4845   -0.5324    2.4193 H   0  0  0  0  0  0  0  0  0  0  0  0
    5.0456   -1.2958    1.4896 H   0  0  0  0  0  0  0  0  0  0  0  0
    4.1265   -3.5384    1.4950 H   0  0  0  0  0  0  0  0  0  0  0  0
    5.4342   -5.4227    2.4407 H   0  0  0  0  0  0  0  0  0  0  0  0
    7.6055   -4.9848    3.5124 H   0  0  0  0  0  0  0  0  0  0  0  0
    9.1059   -1.6975    4.2739 H   0  0  0  0  0  0  0  0  0  0  0  0
    9.6344   -3.1979    3.4853 H   0  0  0  0  0  0  0  0  0  0  0  0
    8.6923   -3.2254    4.9942 H   0  0  0  0  0  0  0  0  0  0  0  0
  1  2  1  0  0  0  0
  1 30  1  0  0  0  0
  1 31  1  0  0  0  0
  1 32  1  0  0  0  0
  2  3  1  0  0  0  0
  2 33  1  0  0  0  0
  2 34  1  0  0  0  0
  3  4  1  0  0  0  0
  3 35  1  0  0  0  0
  3 36  1  0  0  0  0
  4  5  1  0  0  0  0
  4 37  1  0  0  0  0
  4 38  1  0  0  0  0
  5  6  1  0  0  0  0
  5 39  1  0  0  0  0
  5 40  1  0  0  0  0
  6 22  1  0  0  0  0
  6  7  1  0  0  0  0
  7  8  2  0  0  0  0
  7 41  1  0  0  0  0
  8  9  1  0  0  0  0
  8 21  1  0  0  0  0
  9 10  2  0  0  0  0
  9 11  1  0  0  0  0
 11 20  2  0  0  0  0
 11 12  1  0  0  0  0
 12 13  2  0  0  0  0
 12 42  1  0  0  0  0
 13 14  1  0  0  0  0
 13 43  1  0  0  0  0
 14 15  2  0  0  0  0
 14 44  1  0  0  0  0
 15 20  1  0  0  0  0
 15 16  1  0  0  0  0
 16 17  2  0  0  0  0
 16 45  1  0  0  0  0
 17 18  1  0  0  0  0
 17 46  1  0  0  0  0
 18 19  2  0  0  0  0
 18 47  1  0  0  0  0
 19 20  1  0  0  0  0
 19 48  1  0  0  0  0
 21 22  2  0  0  0  0
 21 49  1  0  0  0  0
 22 23  1  0  0  0  0
 23 28  2  0  0  0  0
 23 24  1  0  0  0  0
 24 25  2  0  0  0  0
 24 50  1  0  0  0  0
 25 26  1  0  0  0  0
 25 51  1  0  0  0  0
 26 27  2  0  0  0  0
 26 52  1  0  0  0  0
 27 28  1  0  0  0  0
 27 53  1  0  0  0  0
 28 29  1  0  0  0  0
 29 54  1  0  0  0  0
 29 55  1  0  0  0  0
 29 56  1  0  0  0  0
M  END
$$$$
CHEMBL118028_6KPF
 OpenBabel12022418113D

 57 61  0  0  1  0  0  0  0  0999 V2000
    4.4206   -0.0383   -2.2003 C   0  0  0  0  0  0  0  0  0  0  0  0
    4.4417    1.2620   -1.4600 C   0  0  0  0  0  0  0  0  0  0  0  0
    5.0156    1.3041   -0.2437 C   0  0  0  0  0  0  0  0  0  0  0  0
    4.3478    2.1042    0.8428 C   0  0  0  0  0  0  0  0  0  0  0  0
    2.8323    2.0660    0.5466 C   0  0  2  0  0  0  0  0  0  0  0  0
    2.5526    2.8514   -0.7654 C   0  0  1  0  0  0  0  0  0  0  0  0
    3.4821    2.3479   -1.8989 C   0  0  0  0  0  0  0  0  0  0  0  0
    1.0543    2.8704   -0.9589 C   0  0  0  0  0  0  0  0  0  0  0  0
    0.3361    3.3073    0.1691 C   0  0  0  0  0  0  0  0  0  0  0  0
   -1.0526    3.3721    0.2046 C   0  0  0  0  0  0  0  0  0  0  0  0
   -1.8137    2.8926   -0.8693 C   0  0  0  0  0  0  0  0  0  0  0  0
   -1.1022    2.5344   -2.0321 C   0  0  0  0  0  0  0  0  0  0  0  0
    0.2953    2.4784   -2.0473 C   0  0  0  0  0  0  0  0  0  0  0  0
    0.8553    1.9257   -3.1569 O   0  0  0  0  0  0  0  0  0  0  0  0
   -3.3528    2.7413   -0.7524 C   0  0  0  0  0  0  0  0  0  0  0  0
   -4.0491    4.1154   -0.8960 C   0  0  0  0  0  0  0  0  0  0  0  0
   -4.1090    5.0115    0.1920 C   0  0  0  0  0  0  0  0  0  0  0  0
   -4.6222    6.3065    0.0518 C   0  0  0  0  0  0  0  0  0  0  0  0
   -5.0851    6.7373   -1.1858 C   0  0  0  0  0  0  0  0  0  0  0  0
   -5.0487    5.8753   -2.2723 C   0  0  0  0  0  0  0  0  0  0  0  0
   -4.5300    4.5810   -2.1332 C   0  0  0  0  0  0  0  0  0  0  0  0
   -3.7729    1.9573    0.9479 S   0  0  0  0  0  0  0  0  0  0  0  0
   -4.6406    0.4776    0.3955 C   0  0  0  0  0  0  0  0  0  0  0  0
   -5.2632    0.7355   -0.9517 C   0  0  0  0  0  0  0  0  0  0  0  0
   -3.9986    1.4645   -1.9927 S   0  0  0  0  0  0  0  0  0  0  0  0
    1.0091    3.5421    1.3468 O   0  0  0  0  0  0  0  0  0  0  0  0
    1.8588    2.4331    1.7015 C   0  0  0  0  0  0  0  0  0  0  0  0
    0.9726    1.1929    2.0207 C   0  0  0  0  0  0  0  0  0  0  0  0
    2.5483    2.8328    3.0070 C   0  0  0  0  0  0  0  0  0  0  0  0
    3.9266    0.0435   -3.1753 H   0  0  0  0  0  0  0  0  0  0  0  0
    5.4263   -0.4498   -2.3429 H   0  0  0  0  0  0  0  0  0  0  0  0
    3.8313   -0.7556   -1.6116 H   0  0  0  0  0  0  0  0  0  0  0  0
    5.6931    0.5177    0.0796 H   0  0  0  0  0  0  0  0  0  0  0  0
    4.5550    1.5934    1.7894 H   0  0  0  0  0  0  0  0  0  0  0  0
    4.7496    3.1211    0.9035 H   0  0  0  0  0  0  0  0  0  0  0  0
    2.6021    1.0123    0.3191 H   0  0  0  0  0  0  0  0  0  0  0  0
    2.8368    3.9021   -0.6003 H   0  0  0  0  0  0  0  0  0  0  0  0
    2.9652    2.0327   -2.7979 H   0  0  0  0  0  0  0  0  0  0  0  0
    4.0924    3.1988   -2.2397 H   0  0  0  0  0  0  0  0  0  0  0  0
   -1.5193    3.7090    1.1281 H   0  0  0  0  0  0  0  0  0  0  0  0
   -1.6265    2.2482   -2.9403 H   0  0  0  0  0  0  0  0  0  0  0  0
    0.4964    1.0203   -3.2088 H   0  0  0  0  0  0  0  0  0  0  0  0
   -3.7323    4.7343    1.1736 H   0  0  0  0  0  0  0  0  0  0  0  0
   -4.6387    6.9757    0.9053 H   0  0  0  0  0  0  0  0  0  0  0  0
   -5.4557    7.7525   -1.3023 H   0  0  0  0  0  0  0  0  0  0  0  0
   -5.4012    6.2137   -3.2446 H   0  0  0  0  0  0  0  0  0  0  0  0
   -4.4925    3.9615   -3.0261 H   0  0  0  0  0  0  0  0  0  0  0  0
   -5.4130    0.2242    1.1283 H   0  0  0  0  0  0  0  0  0  0  0  0
   -3.9357   -0.3615    0.3638 H   0  0  0  0  0  0  0  0  0  0  0  0
   -5.6035   -0.2019   -1.4006 H   0  0  0  0  0  0  0  0  0  0  0  0
   -6.1209    1.4106   -0.8882 H   0  0  0  0  0  0  0  0  0  0  0  0
    0.2114    1.4314    2.7699 H   0  0  0  0  0  0  0  0  0  0  0  0
    1.5814    0.3578    2.3846 H   0  0  0  0  0  0  0  0  0  0  0  0
    0.4358    0.8333    1.1352 H   0  0  0  0  0  0  0  0  0  0  0  0
    3.0190    1.9749    3.4970 H   0  0  0  0  0  0  0  0  0  0  0  0
    1.8249    3.2663    3.7093 H   0  0  0  0  0  0  0  0  0  0  0  0
    3.3094    3.6033    2.8402 H   0  0  0  0  0  0  0  0  0  0  0  0
  1  2  1  0  0  0  0
  1 30  1  0  0  0  0
  1 31  1  0  0  0  0
  1 32  1  0  0  0  0
  2  7  1  0  0  0  0
  2  3  2  0  0  0  0
  3  4  1  0  0  0  0
  3 33  1  0  0  0  0
  4 34  1  0  0  0  0
  4 35  1  0  0  0  0
  5  4  1  0  0  0  0
  5  6  1  0  0  0  0
  5 27  1  0  0  0  0
  5 36  1  6  0  0  0
  6  7  1  0  0  0  0
  6  8  1  0  0  0  0
  6 37  1  1  0  0  0
  7 38  1  0  0  0  0
  7 39  1  0  0  0  0
  8 13  2  0  0  0  0
  8  9  1  0  0  0  0
  9 10  2  0  0  0  0
  9 26  1  0  0  0  0
 10 11  1  0  0  0  0
 10 40  1  0  0  0  0
 11 12  2  0  0  0  0
 11 15  1  0  0  0  0
 12 13  1  0  0  0  0
 12 41  1  0  0  0  0
 13 14  1  0  0  0  0
 14 42  1  0  0  0  0
 15 25  1  0  0  0  0
 15 16  1  0  0  0  0
 15 22  1  0  0  0  0
 16 21  2  0  0  0  0
 16 17  1  0  0  0  0
 17 18  2  0  0  0  0
 17 43  1  0  0  0  0
 18 19  1  0  0  0  0
 18 44  1  0  0  0  0
 19 20  2  0  0  0  0
 19 45  1  0  0  0  0
 20 21  1  0  0  0  0
 20 46  1  0  0  0  0
 21 47  1  0  0  0  0
 22 23  1  0  0  0  0
 23 24  1  0  0  0  0
 23 48  1  0  0  0  0
 23 49  1  0  0  0  0
 24 25  1  0  0  0  0
 24 50  1  0  0  0  0
 24 51  1  0  0  0  0
 26 27  1  0  0  0  0
 27 28  1  0  0  0  0
 27 29  1  0  0  0  0
 28 52  1  0  0  0  0
 28 53  1  0  0  0  0
 28 54  1  0  0  0  0
 29 55  1  0  0  0  0
 29 56  1  0  0  0  0
 29 57  1  0  0  0  0
M  END
$$$$
CHEMBL220304_6PT0
 OpenBabel12022418113D

 53 56  0  0  0  0  0  0  0  0999 V2000
    0.8495   -3.5243    2.0867 C   0  0  0  0  0  0  0  0  0  0  0  0
    2.3668   -3.5170    2.1511 C   0  0  0  0  0  0  0  0  0  0  0  0
    2.9107   -2.1186    2.4437 C   0  0  0  0  0  0  0  0  0  0  0  0
    4.4374   -2.1387    2.4977 C   0  0  0  0  0  0  0  0  0  0  0  0
    5.0149   -0.7649    2.8597 C   0  0  0  0  0  0  0  0  0  0  0  0
    6.4695   -0.6900    2.9756 N   0  0  0  0  0  0  0  0  0  0  0  0
    7.3159   -1.7563    2.7649 C   0  0  0  0  0  0  0  0  0  0  0  0
    8.6225   -1.3167    2.7666 C   0  0  0  0  0  0  0  0  0  0  0  0
    8.5548    0.0536    3.1264 C   0  0  0  0  0  0  0  0  0  0  0  0
    7.2247    0.4499    3.2385 C   0  0  0  0  0  0  0  0  0  0  0  0
    6.7350    1.8128    3.5336 C   0  0  0  0  0  0  0  0  0  0  0  0
    5.5923    2.0625    4.2987 C   0  0  0  0  0  0  0  0  0  0  0  0
    5.1930    3.3692    4.5739 C   0  0  0  0  0  0  0  0  0  0  0  0
    5.9332    4.4581    4.1382 C   0  0  0  0  0  0  0  0  0  0  0  0
    7.0911    4.2358    3.4026 C   0  0  0  0  0  0  0  0  0  0  0  0
    7.4797    2.9258    3.0955 C   0  0  0  0  0  0  0  0  0  0  0  0
    4.0787    3.5743    5.2891 F   0  0  0  0  0  0  0  0  0  0  0  0
    9.8353   -2.0855    2.4747 C   0  0  0  0  0  0  0  0  0  0  0  0
   10.9309   -1.7026    2.8747 O   0  0  0  0  0  0  0  0  0  0  0  0
    9.7422   -3.2995    1.5974 C   0  0  0  0  0  0  0  0  0  0  0  0
   10.5627   -4.4467    1.8055 C   0  0  0  0  0  0  0  0  0  0  0  0
   11.4887   -4.6076    2.8683 C   0  0  0  0  0  0  0  0  0  0  0  0
   12.2868   -5.7494    2.9877 C   0  0  0  0  0  0  0  0  0  0  0  0
   12.1780   -6.7733    2.0588 C   0  0  0  0  0  0  0  0  0  0  0  0
   11.2602   -6.6621    1.0180 C   0  0  0  0  0  0  0  0  0  0  0  0
   10.4537   -5.5203    0.8803 C   0  0  0  0  0  0  0  0  0  0  0  0
    9.5409   -5.4498   -0.1840 C   0  0  0  0  0  0  0  0  0  0  0  0
    8.7523   -4.3236   -0.3761 C   0  0  0  0  0  0  0  0  0  0  0  0
    8.8696   -3.2464    0.4924 C   0  0  0  0  0  0  0  0  0  0  0  0
    0.4856   -4.5347    1.8759 H   0  0  0  0  0  0  0  0  0  0  0  0
    0.4887   -2.8598    1.2955 H   0  0  0  0  0  0  0  0  0  0  0  0
    0.4157   -3.1974    3.0369 H   0  0  0  0  0  0  0  0  0  0  0  0
    2.7709   -3.8821    1.1997 H   0  0  0  0  0  0  0  0  0  0  0  0
    2.6963   -4.2145    2.9306 H   0  0  0  0  0  0  0  0  0  0  0  0
    2.5107   -1.7617    3.4006 H   0  0  0  0  0  0  0  0  0  0  0  0
    2.5771   -1.4177    1.6694 H   0  0  0  0  0  0  0  0  0  0  0  0
    4.8315   -2.4718    1.5299 H   0  0  0  0  0  0  0  0  0  0  0  0
    4.7511   -2.8738    3.2499 H   0  0  0  0  0  0  0  0  0  0  0  0
    4.6068   -0.4878    3.8322 H   0  0  0  0  0  0  0  0  0  0  0  0
    4.7193   -0.0219    2.1098 H   0  0  0  0  0  0  0  0  0  0  0  0
    6.9302   -2.7502    2.5831 H   0  0  0  0  0  0  0  0  0  0  0  0
    9.4153    0.6993    3.2589 H   0  0  0  0  0  0  0  0  0  0  0  0
    5.0040    1.2679    4.7353 H   0  0  0  0  0  0  0  0  0  0  0  0
    5.6120    5.4640    4.3868 H   0  0  0  0  0  0  0  0  0  0  0  0
    7.6985    5.0747    3.0725 H   0  0  0  0  0  0  0  0  0  0  0  0
    8.3897    2.7846    2.5146 H   0  0  0  0  0  0  0  0  0  0  0  0
   11.6116   -3.8318    3.6215 H   0  0  0  0  0  0  0  0  0  0  0  0
   12.9978   -5.8293    3.8059 H   0  0  0  0  0  0  0  0  0  0  0  0
   12.8032   -7.6585    2.1427 H   0  0  0  0  0  0  0  0  0  0  0  0
   11.1872   -7.4777    0.3000 H   0  0  0  0  0  0  0  0  0  0  0  0
    9.4499   -6.2772   -0.8835 H   0  0  0  0  0  0  0  0  0  0  0  0
    8.0598   -4.2783   -1.2128 H   0  0  0  0  0  0  0  0  0  0  0  0
    8.2778   -2.3568    0.2887 H   0  0  0  0  0  0  0  0  0  0  0  0
  1  2  1  0  0  0  0
  1 30  1  0  0  0  0
  1 31  1  0  0  0  0
  1 32  1  0  0  0  0
  2  3  1  0  0  0  0
  2 33  1  0  0  0  0
  2 34  1  0  0  0  0
  3  4  1  0  0  0  0
  3 35  1  0  0  0  0
  3 36  1  0  0  0  0
  4  5  1  0  0  0  0
  4 37  1  0  0  0  0
  4 38  1  0  0  0  0
  5  6  1  0  0  0  0
  5 39  1  0  0  0  0
  5 40  1  0  0  0  0
  6 10  1  0  0  0  0
  6  7  1  0  0  0  0
  7  8  2  0  0  0  0
  7 41  1  0  0  0  0
  8  9  1  0  0  0  0
  8 18  1  0  0  0  0
  9 10  2  0  0  0  0
  9 42  1  0  0  0  0
 10 11  1  0  0  0  0
 11 16  2  0  0  0  0
 11 12  1  0  0  0  0
 12 13  2  0  0  0  0
 12 43  1  0  0  0  0
 13 14  1  0  0  0  0
 13 17  1  0  0  0  0
 14 15  2  0  0  0  0
 14 44  1  0  0  0  0
 15 16  1  0  0  0  0
 15 45  1  0  0  0  0
 16 46  1  0  0  0  0
 18 19  2  0  0  0  0
 18 20  1  0  0  0  0
 20 29  2  0  0  0  0
 20 21  1  0  0  0  0
 21 26  2  0  0  0  0
 21 22  1  0  0  0  0
 22 23  2  0  0  0  0
 22 47  1  0  0  0  0
 23 24  1  0  0  0  0
 23 48  1  0  0  0  0
 24 25  2  0  0  0  0
 24 49  1  0  0  0  0
 25 26  1  0  0  0  0
 25 50  1  0  0  0  0
 26 27  1  0  0  0  0
 27 28  2  0  0  0  0
 27 51  1  0  0  0  0
 28 29  1  0  0  0  0
 28 52  1  0  0  0  0
 29 53  1  0  0  0  0
M  END
$$$$
CHEMBL3639461_8GUR
 OpenBabel12022418113D

 56 58  0  0  0  0  0  0  0  0999 V2000
    8.7925   -8.7330   -0.2304 C   0  0  0  0  0  0  0  0  0  0  0  0
    8.3997   -7.9685   -1.4824 C   0  0  0  0  0  0  0  0  0  0  0  0
    8.2278   -6.4727   -1.1969 C   0  0  0  0  0  0  0  0  0  0  0  0
    7.7443   -5.6808   -2.4208 C   0  0  0  0  0  0  0  0  0  0  0  0
    6.4997   -6.2325   -2.9331 N   0  0  0  0  0  0  0  0  0  0  0  0
    5.3382   -6.3534   -2.1687 C   0  0  0  0  0  0  0  0  0  0  0  0
    5.0475   -5.6192   -1.1358 N   0  0  0  0  0  0  0  0  0  0  0  0
    3.8161   -5.6777   -0.5032 C   0  0  0  0  0  0  0  0  0  0  0  0
    3.7081   -5.7605    0.7125 O   0  0  0  0  0  0  0  0  0  0  0  0
    2.5890   -5.5079   -1.3601 C   0  0  0  0  0  0  0  0  0  0  0  0
    2.7410   -4.7351   -2.5351 C   0  0  0  0  0  0  0  0  0  0  0  0
    1.8861   -4.9246   -3.6271 C   0  0  0  0  0  0  0  0  0  0  0  0
    0.7893   -5.7665   -3.4751 C   0  0  0  0  0  0  0  0  0  0  0  0
    0.5595   -6.4279   -2.2615 C   0  0  0  0  0  0  0  0  0  0  0  0
    1.4551   -6.3237   -1.1855 C   0  0  0  0  0  0  0  0  0  0  0  0
    1.3034   -7.0426   -0.0169 O   0  0  0  0  0  0  0  0  0  0  0  0
    0.1210   -7.8595    0.0475 C   0  0  0  0  0  0  0  0  0  0  0  0
   -0.0724   -8.5646    1.4072 C   0  0  0  0  0  0  0  0  0  0  0  0
   -0.1919   -7.5711    2.5620 C   0  0  0  0  0  0  0  0  0  0  0  0
   -1.3310   -9.4346    1.3276 C   0  0  0  0  0  0  0  0  0  0  0  0
    1.0262   -9.4276    1.6627 O   0  0  0  0  0  0  0  0  0  0  0  0
    2.2051   -4.3459   -4.9862 C   0  0  0  0  0  0  0  0  0  0  0  0
    3.4077   -3.7097   -5.0340 F   0  0  0  0  0  0  0  0  0  0  0  0
    2.2595   -5.3070   -5.9532 F   0  0  0  0  0  0  0  0  0  0  0  0
    1.2788   -3.4478   -5.4036 F   0  0  0  0  0  0  0  0  0  0  0  0
    4.2823   -7.5977   -2.9101 S   0  0  0  0  0  0  0  0  0  0  0  0
    5.1590   -7.4181   -4.4445 C   0  0  0  0  0  0  0  0  0  0  0  0
    6.3639   -6.7405   -4.2283 C   0  0  0  0  0  0  0  0  0  0  0  0
    7.2119   -6.6344   -5.3174 C   0  0  0  0  0  0  0  0  0  0  0  0
    6.7867   -7.1369   -6.5545 C   0  0  0  0  0  0  0  0  0  0  0  0
    5.5258   -7.7201   -6.6581 C   0  0  0  0  0  0  0  0  0  0  0  0
    4.6943   -7.8939   -5.6128 N   0  0  0  0  0  0  0  0  0  0  0  0
    8.8867   -9.8000   -0.4553 H   0  0  0  0  0  0  0  0  0  0  0  0
    8.0331   -8.6190    0.5502 H   0  0  0  0  0  0  0  0  0  0  0  0
    9.7499   -8.3784    0.1629 H   0  0  0  0  0  0  0  0  0  0  0  0
    7.4666   -8.4013   -1.8590 H   0  0  0  0  0  0  0  0  0  0  0  0
    9.1584   -8.1140   -2.2593 H   0  0  0  0  0  0  0  0  0  0  0  0
    9.1838   -6.0530   -0.8608 H   0  0  0  0  0  0  0  0  0  0  0  0
    7.5239   -6.3393   -0.3672 H   0  0  0  0  0  0  0  0  0  0  0  0
    8.5437   -5.6897   -3.1694 H   0  0  0  0  0  0  0  0  0  0  0  0
    7.5974   -4.6298   -2.1447 H   0  0  0  0  0  0  0  0  0  0  0  0
    3.6218   -4.1022   -2.6534 H   0  0  0  0  0  0  0  0  0  0  0  0
    0.1234   -5.9672   -4.3150 H   0  0  0  0  0  0  0  0  0  0  0  0
   -0.3014   -7.0892   -2.2370 H   0  0  0  0  0  0  0  0  0  0  0  0
    0.2098   -8.6373   -0.7216 H   0  0  0  0  0  0  0  0  0  0  0  0
   -0.7631   -7.2357   -0.1309 H   0  0  0  0  0  0  0  0  0  0  0  0
   -1.0393   -6.8912    2.4183 H   0  0  0  0  0  0  0  0  0  0  0  0
    0.7188   -6.9777    2.6747 H   0  0  0  0  0  0  0  0  0  0  0  0
   -0.3389   -8.1012    3.5116 H   0  0  0  0  0  0  0  0  0  0  0  0
   -2.2269   -8.8319    1.1331 H   0  0  0  0  0  0  0  0  0  0  0  0
   -1.4876   -9.9981    2.2532 H   0  0  0  0  0  0  0  0  0  0  0  0
   -1.2417  -10.1767    0.5247 H   0  0  0  0  0  0  0  0  0  0  0  0
    1.8339   -8.8740    1.6028 H   0  0  0  0  0  0  0  0  0  0  0  0
    8.1844   -6.1606   -5.2521 H   0  0  0  0  0  0  0  0  0  0  0  0
    7.4237   -7.0674   -7.4309 H   0  0  0  0  0  0  0  0  0  0  0  0
    5.1504   -8.0792   -7.6131 H   0  0  0  0  0  0  0  0  0  0  0  0
  1  2  1  0  0  0  0
  1 33  1  0  0  0  0
  1 34  1  0  0  0  0
  1 35  1  0  0  0  0
  2  3  1  0  0  0  0
  2 36  1  0  0  0  0
  2 37  1  0  0  0  0
  3  4  1  0  0  0  0
  3 38  1  0  0  0  0
  3 39  1  0  0  0  0
  4  5  1  0  0  0  0
  4 40  1  0  0  0  0
  4 41  1  0  0  0  0
  5 28  1  0  0  0  0
  5  6  1  0  0  0  0
  6  7  2  0  0  0  0
  6 26  1  0  0  0  0
  7  8  1  0  0  0  0
  8  9  2  0  0  0  0
  8 10  1  0  0  0  0
 10 15  2  0  0  0  0
 10 11  1  0  0  0  0
 11 12  2  0  0  0  0
 11 42  1  0  0  0  0
 12 13  1  0  0  0  0
 12 22  1  0  0  0  0
 13 14  2  0  0  0  0
 13 43  1  0  0  0  0
 14 15  1  0  0  0  0
 14 44  1  0  0  0  0
 15 16  1  0  0  0  0
 16 17  1  0  0  0  0
 17 18  1  0  0  0  0
 17 45  1  0  0  0  0
 17 46  1  0  0  0  0
 18 19  1  0  0  0  0
 18 20  1  0  0  0  0
 18 21  1  0  0  0  0
 19 47  1  0  0  0  0
 19 48  1  0  0  0  0
 19 49  1  0  0  0  0
 20 50  1  0  0  0  0
 20 51  1  0  0  0  0
 20 52  1  0  0  0  0
 21 53  1  0  0  0  0
 22 23  1  0  0  0  0
 22 24  1  0  0  0  0
 22 25  1  0  0  0  0
 26 27  1  0  0  0  0
 27 32  2  0  0  0  0
 27 28  1  0  0  0  0
 28 29  2  0  0  0  0
 29 30  1  0  0  0  0
 29 54  1  0  0  0  0
 30 31  2  0  0  0  0
 30 55  1  0  0  0  0
 31 32  1  0  0  0  0
 31 56  1  0  0  0  0
M  END
$$$$
CHEMBL1223647_5ZTY
 OpenBabel12022418113D

 59 61  0  0  1  0  0  0  0  0999 V2000
    0.9830    1.9273   -1.0189 C   0  0  0  0  0  0  0  0  0  0  0  0
    2.5019    1.8945   -1.0194 C   0  0  0  0  0  0  0  0  0  0  0  0
    3.0337    0.7992   -1.9407 C   0  0  0  0  0  0  0  0  0  0  0  0
    4.5607    0.7743   -1.9394 C   0  0  0  0  0  0  0  0  0  0  0  0
    5.0896   -0.3131   -2.8669 C   0  0  0  0  0  0  0  0  0  0  0  0
    6.5922   -0.3057   -2.8942 C   0  0  0  0  0  0  0  0  0  0  0  0
    7.2639    0.7437   -3.2629 N   0  0  0  0  0  0  0  0  0  0  0  0
    8.5903    0.4033   -3.1724 N   0  0  0  0  0  0  0  0  0  0  0  0
    9.6071    1.3324   -3.3987 C   0  0  0  0  0  0  0  0  0  0  0  0
   10.7992    1.0729   -3.3101 O   0  0  0  0  0  0  0  0  0  0  0  0
    9.1032    2.5774   -3.6995 N   0  0  0  0  0  0  0  0  0  0  0  0
    9.8959    3.7837   -3.9115 C   0  0  0  0  0  0  0  0  0  0  0  0
   10.4575    3.8584   -5.3410 C   0  0  0  0  0  0  0  0  0  0  0  0
    9.5669    4.5664   -6.3658 C   0  0  0  0  0  0  0  0  0  0  0  0
    9.7906    6.0799   -6.4101 C   0  0  0  0  0  0  0  0  0  0  0  0
    9.2642    6.8638   -5.2117 C   0  0  0  0  0  0  0  0  0  0  0  0
    9.7058    6.3529   -3.8413 C   0  0  0  0  0  0  0  0  0  0  0  0
    9.0778    5.0085   -3.4762 C   0  0  0  0  0  0  0  0  0  0  0  0
    8.8088   -0.9800   -2.7732 C   0  0  0  0  0  0  0  0  0  0  0  0
    7.4041   -1.5119   -2.4812 C   0  0  2  0  0  0  0  0  0  0  0  0
    6.9791   -2.7665   -3.2121 C   0  0  0  0  0  0  0  0  0  0  0  0
    6.3856   -3.8235   -2.5023 C   0  0  0  0  0  0  0  0  0  0  0  0
    5.8767   -4.9391   -3.1727 C   0  0  0  0  0  0  0  0  0  0  0  0
    5.9585   -5.0162   -4.5602 C   0  0  0  0  0  0  0  0  0  0  0  0
    6.5567   -3.9820   -5.2775 C   0  0  0  0  0  0  0  0  0  0  0  0
    7.0635   -2.8650   -4.6095 C   0  0  0  0  0  0  0  0  0  0  0  0
    0.6220    2.7178   -0.3540 H   0  0  0  0  0  0  0  0  0  0  0  0
    0.5710    0.9746   -0.6712 H   0  0  0  0  0  0  0  0  0  0  0  0
    0.5952    2.1236   -2.0236 H   0  0  0  0  0  0  0  0  0  0  0  0
    2.8606    1.7274    0.0028 H   0  0  0  0  0  0  0  0  0  0  0  0
    2.8838    2.8700   -1.3423 H   0  0  0  0  0  0  0  0  0  0  0  0
    2.6706    0.9682   -2.9619 H   0  0  0  0  0  0  0  0  0  0  0  0
    2.6487   -0.1758   -1.6181 H   0  0  0  0  0  0  0  0  0  0  0  0
    4.9330    0.6018   -0.9218 H   0  0  0  0  0  0  0  0  0  0  0  0
    4.9435    1.7537   -2.2519 H   0  0  0  0  0  0  0  0  0  0  0  0
    4.7364   -0.1515   -3.8921 H   0  0  0  0  0  0  0  0  0  0  0  0
    4.7249   -1.2910   -2.5385 H   0  0  0  0  0  0  0  0  0  0  0  0
    8.0912    2.5829   -3.7774 H   0  0  0  0  0  0  0  0  0  0  0  0
   10.7596    3.6964   -3.2392 H   0  0  0  0  0  0  0  0  0  0  0  0
   10.6733    2.8455   -5.7027 H   0  0  0  0  0  0  0  0  0  0  0  0
   11.4280    4.3716   -5.3079 H   0  0  0  0  0  0  0  0  0  0  0  0
    8.5087    4.3294   -6.2107 H   0  0  0  0  0  0  0  0  0  0  0  0
    9.8283    4.1766   -7.3581 H   0  0  0  0  0  0  0  0  0  0  0  0
    9.3010    6.4758   -7.3097 H   0  0  0  0  0  0  0  0  0  0  0  0
   10.8604    6.2892   -6.5362 H   0  0  0  0  0  0  0  0  0  0  0  0
    8.1682    6.8947   -5.2539 H   0  0  0  0  0  0  0  0  0  0  0  0
    9.5980    7.9046   -5.3161 H   0  0  0  0  0  0  0  0  0  0  0  0
    9.3758    7.0909   -3.0991 H   0  0  0  0  0  0  0  0  0  0  0  0
   10.7988    6.3129   -3.7728 H   0  0  0  0  0  0  0  0  0  0  0  0
    8.9618    4.9620   -2.3852 H   0  0  0  0  0  0  0  0  0  0  0  0
    8.0564    4.9537   -3.8762 H   0  0  0  0  0  0  0  0  0  0  0  0
    9.4452   -0.9988   -1.8816 H   0  0  0  0  0  0  0  0  0  0  0  0
    9.3370   -1.5031   -3.5769 H   0  0  0  0  0  0  0  0  0  0  0  0
    7.2784   -1.6400   -1.3979 H   0  0  0  0  0  0  0  0  0  0  0  0
    6.2869   -3.7800   -1.4191 H   0  0  0  0  0  0  0  0  0  0  0  0
    5.4020   -5.7420   -2.6135 H   0  0  0  0  0  0  0  0  0  0  0  0
    5.5499   -5.8765   -5.0843 H   0  0  0  0  0  0  0  0  0  0  0  0
    6.6147   -4.0380   -6.3621 H   0  0  0  0  0  0  0  0  0  0  0  0
    7.4984   -2.0586   -5.1986 H   0  0  0  0  0  0  0  0  0  0  0  0
  1  2  1  0  0  0  0
  1 27  1  0  0  0  0
  1 28  1  0  0  0  0
  1 29  1  0  0  0  0
  2  3  1  0  0  0  0
  2 30  1  0  0  0  0
  2 31  1  0  0  0  0
  3  4  1  0  0  0  0
  3 32  1  0  0  0  0
  3 33  1  0  0  0  0
  4  5  1  0  0  0  0
  4 34  1  0  0  0  0
  4 35  1  0  0  0  0
  5  6  1  0  0  0  0
  5 36  1  0  0  0  0
  5 37  1  0  0  0  0
  6 20  1  0  0  0  0
  6  7  2  0  0  0  0
  7  8  1  0  0  0  0
  8  9  1  0  0  0  0
  8 19  1  0  0  0  0
  9 10  2  0  0  0  0
  9 11  1  0  0  0  0
 11 12  1  0  0  0  0
 11 38  1  0  0  0  0
 12 18  1  0  0  0  0
 12 13  1  0  0  0  0
 12 39  1  0  0  0  0
 13 14  1  0  0  0  0
 13 40  1  0  0  0  0
 13 41  1  0  0  0  0
 14 15  1  0  0  0  0
 14 42  1  0  0  0  0
 14 43  1  0  0  0  0
 15 16  1  0  0  0  0
 15 44  1  0  0  0  0
 15 45  1  0  0  0  0
 16 17  1  0  0  0  0
 16 46  1  0  0  0  0
 16 47  1  0  0  0  0
 17 18  1  0  0  0  0
 17 48  1  0  0  0  0
 17 49  1  0  0  0  0
 18 50  1  0  0  0  0
 18 51  1  0  0  0  0
 19 20  1  0  0  0  0
 19 52  1  0  0  0  0
 19 53  1  0  0  0  0
 20 21  1  0  0  0  0
 20 54  1  1  0  0  0
 21 26  2  0  0  0  0
 21 22  1  0  0  0  0
 22 23  2  0  0  0  0
 22 55  1  0  0  0  0
 23 24  1  0  0  0  0
 23 56  1  0  0  0  0
 24 25  2  0  0  0  0
 24 57  1  0  0  0  0
 25 26  1  0  0  0  0
 25 58  1  0  0  0  0
 26 59  1  0  0  0  0
M  END
$$$$
CHEMBL467896_8GUT
 OpenBabel12022418113D

 53 56  0  0  0  0  0  0  0  0999 V2000
    1.6217   -0.3211    2.6365 F   0  0  0  0  0  0  0  0  0  0  0  0
    0.4271   -0.2262    2.0367 C   0  0  0  0  0  0  0  0  0  0  0  0
   -0.7303   -0.3071    2.8010 C   0  0  0  0  0  0  0  0  0  0  0  0
   -1.9754   -0.2356    2.1746 C   0  0  0  0  0  0  0  0  0  0  0  0
   -2.0692   -0.0904    0.7814 C   0  0  0  0  0  0  0  0  0  0  0  0
   -3.4287   -0.0664    0.1040 C   0  0  0  0  0  0  0  0  0  0  0  0
   -3.9900    1.2758    0.0105 N   0  0  0  0  0  0  0  0  0  0  0  0
   -3.6973    2.0504   -1.1054 C   0  0  0  0  0  0  0  0  0  0  0  0
   -3.1048    1.6051   -2.0910 O   0  0  0  0  0  0  0  0  0  0  0  0
   -4.1095    3.4868   -1.0815 C   0  0  0  0  0  0  0  0  0  0  0  0
   -4.8510    3.9478   -0.0611 C   0  0  0  0  0  0  0  0  0  0  0  0
   -5.2873    3.0603    1.0035 C   0  0  0  0  0  0  0  0  0  0  0  0
   -6.1612    3.5144    1.9956 C   0  0  0  0  0  0  0  0  0  0  0  0
   -6.5757    2.6415    2.9921 C   0  0  0  0  0  0  0  0  0  0  0  0
   -6.0815    1.3506    2.9688 C   0  0  0  0  0  0  0  0  0  0  0  0
   -5.2174    0.8866    2.0318 N   0  0  0  0  0  0  0  0  0  0  0  0
   -4.8352    1.7397    1.0521 C   0  0  0  0  0  0  0  0  0  0  0  0
   -3.7182    4.4898   -2.1226 C   0  0  0  0  0  0  0  0  0  0  0  0
   -4.0402    5.6745   -2.0171 O   0  0  0  0  0  0  0  0  0  0  0  0
   -2.9788    4.0224   -3.1777 N   0  0  0  0  0  0  0  0  0  0  0  0
   -2.4935    4.8985   -4.2422 C   0  0  0  0  0  0  0  0  0  0  0  0
   -1.0855    4.4733   -4.6785 C   0  0  0  0  0  0  0  0  0  0  0  0
   -1.0301    3.4641   -5.8236 C   0  0  0  0  0  0  0  0  0  0  0  0
   -1.0478    4.1364   -7.1964 C   0  0  0  0  0  0  0  0  0  0  0  0
   -2.3940    4.7157   -7.6183 C   0  0  0  0  0  0  0  0  0  0  0  0
   -3.0318    5.6895   -6.6283 C   0  0  0  0  0  0  0  0  0  0  0  0
   -3.5390    5.0052   -5.3594 C   0  0  0  0  0  0  0  0  0  0  0  0
   -0.8846    0.0222    0.0311 C   0  0  0  0  0  0  0  0  0  0  0  0
    0.3610   -0.0539    0.6590 C   0  0  0  0  0  0  0  0  0  0  0  0
   -0.6565   -0.4354    3.8759 H   0  0  0  0  0  0  0  0  0  0  0  0
   -2.8784   -0.3073    2.7788 H   0  0  0  0  0  0  0  0  0  0  0  0
   -4.1182   -0.7494    0.6150 H   0  0  0  0  0  0  0  0  0  0  0  0
   -3.3206   -0.4853   -0.9051 H   0  0  0  0  0  0  0  0  0  0  0  0
   -5.1435    4.9929    0.0010 H   0  0  0  0  0  0  0  0  0  0  0  0
   -6.5301    4.5373    1.9894 H   0  0  0  0  0  0  0  0  0  0  0  0
   -7.2684    2.9601    3.7631 H   0  0  0  0  0  0  0  0  0  0  0  0
   -6.3806    0.6272    3.7224 H   0  0  0  0  0  0  0  0  0  0  0  0
   -2.8186    3.0170   -3.2496 H   0  0  0  0  0  0  0  0  0  0  0  0
   -2.3867    5.8977   -3.7996 H   0  0  0  0  0  0  0  0  0  0  0  0
   -0.5528    4.0561   -3.8142 H   0  0  0  0  0  0  0  0  0  0  0  0
   -0.5208    5.3703   -4.9647 H   0  0  0  0  0  0  0  0  0  0  0  0
   -1.8270    2.7167   -5.7405 H   0  0  0  0  0  0  0  0  0  0  0  0
   -0.0821    2.9178   -5.7409 H   0  0  0  0  0  0  0  0  0  0  0  0
   -0.7488    3.3953   -7.9485 H   0  0  0  0  0  0  0  0  0  0  0  0
   -0.2854    4.9250   -7.2316 H   0  0  0  0  0  0  0  0  0  0  0  0
   -3.0919    3.8942   -7.8235 H   0  0  0  0  0  0  0  0  0  0  0  0
   -2.2519    5.2380   -8.5729 H   0  0  0  0  0  0  0  0  0  0  0  0
   -3.8929    6.1471   -7.1313 H   0  0  0  0  0  0  0  0  0  0  0  0
   -2.3434    6.5082   -6.3879 H   0  0  0  0  0  0  0  0  0  0  0  0
   -4.3887    5.5831   -4.9710 H   0  0  0  0  0  0  0  0  0  0  0  0
   -3.9500    4.0163   -5.6022 H   0  0  0  0  0  0  0  0  0  0  0  0
   -0.9277    0.1563   -1.0481 H   0  0  0  0  0  0  0  0  0  0  0  0
    1.2799    0.0109    0.0847 H   0  0  0  0  0  0  0  0  0  0  0  0
  1  2  1  0  0  0  0
  2 29  2  0  0  0  0
  2  3  1  0  0  0  0
  3  4  2  0  0  0  0
  3 30  1  0  0  0  0
  4  5  1  0  0  0  0
  4 31  1  0  0  0  0
  5  6  1  0  0  0  0
  5 28  2  0  0  0  0
  6  7  1  0  0  0  0
  6 32  1  0  0  0  0
  6 33  1  0  0  0  0
  7 17  1  0  0  0  0
  7  8  1  0  0  0  0
  8  9  2  0  0  0  0
  8 10  1  0  0  0  0
 10 11  2  0  0  0  0
 10 18  1  0  0  0  0
 11 12  1  0  0  0  0
 11 34  1  0  0  0  0
 12 17  2  0  0  0  0
 12 13  1  0  0  0  0
 13 14  2  0  0  0  0
 13 35  1  0  0  0  0
 14 15  1  0  0  0  0
 14 36  1  0  0  0  0
 15 16  2  0  0  0  0
 15 37  1  0  0  0  0
 16 17  1  0  0  0  0
 18 19  2  0  0  0  0
 18 20  1  0  0  0  0
 20 21  1  0  0  0  0
 20 38  1  0  0  0  0
 21 27  1  0  0  0  0
 21 22  1  0  0  0  0
 21 39  1  0  0  0  0
 22 23  1  0  0  0  0
 22 40  1  0  0  0  0
 22 41  1  0  0  0  0
 23 24  1  0  0  0  0
 23 42  1  0  0  0  0
 23 43  1  0  0  0  0
 24 25  1  0  0  0  0
 24 44  1  0  0  0  0
 24 45  1  0  0  0  0
 25 26  1  0  0  0  0
 25 46  1  0  0  0  0
 25 47  1  0  0  0  0
 26 27  1  0  0  0  0
 26 48  1  0  0  0  0
 26 49  1  0  0  0  0
 27 50  1  0  0  0  0
 27 51  1  0  0  0  0
 28 29  1  0  0  0  0
 28 52  1  0  0  0  0
 29 53  1  0  0  0  0
M  END
$$$$
CHEMBL1223592_5ZTY
 OpenBabel12022418113D

 53 55  0  0  1  0  0  0  0  0999 V2000
    7.3707    1.7650   -1.3956 C   0  0  0  0  0  0  0  0  0  0  0  0
    6.7369    1.2916   -0.0979 C   0  0  0  0  0  0  0  0  0  0  0  0
    5.2087    1.3622   -0.1666 C   0  0  0  0  0  0  0  0  0  0  0  0
    4.5387    0.8827    1.1195 C   0  0  0  0  0  0  0  0  0  0  0  0
    4.8669    1.7825    2.2775 C   0  0  0  0  0  0  0  0  0  0  0  0
    4.5455    3.0425    2.2874 N   0  0  0  0  0  0  0  0  0  0  0  0
    5.0645    3.5522    3.4491 N   0  0  0  0  0  0  0  0  0  0  0  0
    4.9661    4.8873    3.7988 C   0  0  0  0  0  0  0  0  0  0  0  0
    5.4847    5.3319    4.8188 O   0  0  0  0  0  0  0  0  0  0  0  0
    4.2392    5.6333    2.8980 N   0  0  0  0  0  0  0  0  0  0  0  0
    3.8828    7.0493    3.0778 C   0  0  0  0  0  0  0  0  0  0  0  0
    3.0440    7.1801    4.3713 C   0  0  0  0  0  0  0  0  0  0  0  0
    5.1632    7.9038    3.1953 C   0  0  0  0  0  0  0  0  0  0  0  0
    3.1114    7.6048    1.8506 C   0  0  0  0  0  0  0  0  0  0  0  0
    3.4098    7.1829    0.5410 C   0  0  0  0  0  0  0  0  0  0  0  0
    2.7867    7.7663   -0.5708 C   0  0  0  0  0  0  0  0  0  0  0  0
    1.8588    8.7923   -0.4014 C   0  0  0  0  0  0  0  0  0  0  0  0
    1.5511    9.2321    0.8769 C   0  0  0  0  0  0  0  0  0  0  0  0
    2.1695    8.6473    1.9860 C   0  0  0  0  0  0  0  0  0  0  0  0
    5.8222    2.5827    4.2250 C   0  0  0  0  0  0  0  0  0  0  0  0
    5.6117    1.2686    3.4882 C   0  0  1  0  0  0  0  0  0  0  0  0
    4.8013    0.2505    4.2453 C   0  0  0  0  0  0  0  0  0  0  0  0
    3.5200    0.4908    4.8465 C   0  0  0  0  0  0  0  0  0  0  0  0
    3.0071   -0.6198    5.4804 C   0  0  0  0  0  0  0  0  0  0  0  0
    4.0491   -1.9645    5.3508 S   0  0  0  0  0  0  0  0  0  0  0  0
    5.1935   -1.0617    4.4564 C   0  0  0  0  0  0  0  0  0  0  0  0
    8.4616    1.7098   -1.3263 H   0  0  0  0  0  0  0  0  0  0  0  0
    7.0966    2.8035   -1.6084 H   0  0  0  0  0  0  0  0  0  0  0  0
    7.0507    1.1447   -2.2385 H   0  0  0  0  0  0  0  0  0  0  0  0
    7.1120    1.9150    0.7219 H   0  0  0  0  0  0  0  0  0  0  0  0
    7.0527    0.2621    0.1060 H   0  0  0  0  0  0  0  0  0  0  0  0
    4.8546    0.7399   -0.9972 H   0  0  0  0  0  0  0  0  0  0  0  0
    4.9011    2.3918   -0.3869 H   0  0  0  0  0  0  0  0  0  0  0  0
    4.8395   -0.1451    1.3465 H   0  0  0  0  0  0  0  0  0  0  0  0
    3.4503    0.8910    0.9934 H   0  0  0  0  0  0  0  0  0  0  0  0
    3.7493    5.0588    2.2208 H   0  0  0  0  0  0  0  0  0  0  0  0
    3.5441    6.7432    5.2407 H   0  0  0  0  0  0  0  0  0  0  0  0
    2.0806    6.6674    4.2646 H   0  0  0  0  0  0  0  0  0  0  0  0
    2.8491    8.2238    4.6374 H   0  0  0  0  0  0  0  0  0  0  0  0
    5.7679    7.6314    4.0646 H   0  0  0  0  0  0  0  0  0  0  0  0
    4.9281    8.9711    3.2883 H   0  0  0  0  0  0  0  0  0  0  0  0
    5.8002    7.7824    2.3099 H   0  0  0  0  0  0  0  0  0  0  0  0
    4.1572    6.4124    0.3651 H   0  0  0  0  0  0  0  0  0  0  0  0
    3.0401    7.4328   -1.5739 H   0  0  0  0  0  0  0  0  0  0  0  0
    1.3916    9.2593   -1.2657 H   0  0  0  0  0  0  0  0  0  0  0  0
    0.8426   10.0452    1.0199 H   0  0  0  0  0  0  0  0  0  0  0  0
    1.9136    9.0556    2.9596 H   0  0  0  0  0  0  0  0  0  0  0  0
    5.4756    2.5913    5.2636 H   0  0  0  0  0  0  0  0  0  0  0  0
    6.8761    2.8859    4.2203 H   0  0  0  0  0  0  0  0  0  0  0  0
    6.5720    0.8445    3.1719 H   0  0  0  0  0  0  0  0  0  0  0  0
    2.9980    1.4428    4.8196 H   0  0  0  0  0  0  0  0  0  0  0  0
    2.0689   -0.7023    6.0113 H   0  0  0  0  0  0  0  0  0  0  0  0
    6.1030   -1.5477    4.1258 H   0  0  0  0  0  0  0  0  0  0  0  0
  1  2  1  0  0  0  0
  1 27  1  0  0  0  0
  1 28  1  0  0  0  0
  1 29  1  0  0  0  0
  2  3  1  0  0  0  0
  2 30  1  0  0  0  0
  2 31  1  0  0  0  0
  3  4  1  0  0  0  0
  3 32  1  0  0  0  0
  3 33  1  0  0  0  0
  4  5  1  0  0  0  0
  4 34  1  0  0  0  0
  4 35  1  0  0  0  0
  5 21  1  0  0  0  0
  5  6  2  0  0  0  0
  6  7  1  0  0  0  0
  7  8  1  0  0  0  0
  7 20  1  0  0  0  0
  8  9  2  0  0  0  0
  8 10  1  0  0  0  0
 10 11  1  0  0  0  0
 10 36  1  0  0  0  0
 11 12  1  0  0  0  0
 11 13  1  0  0  0  0
 11 14  1  0  0  0  0
 12 37  1  0  0  0  0
 12 38  1  0  0  0  0
 12 39  1  0  0  0  0
 13 40  1  0  0  0  0
 13 41  1  0  0  0  0
 13 42  1  0  0  0  0
 14 19  2  0  0  0  0
 14 15  1  0  0  0  0
 15 16  2  0  0  0  0
 15 43  1  0  0  0  0
 16 17  1  0  0  0  0
 16 44  1  0  0  0  0
 17 18  2  0  0  0  0
 17 45  1  0  0  0  0
 18 19  1  0  0  0  0
 18 46  1  0  0  0  0
 19 47  1  0  0  0  0
 20 21  1  0  0  0  0
 20 48  1  0  0  0  0
 20 49  1  0  0  0  0
 21 22  1  0  0  0  0
 21 50  1  6  0  0  0
 22 26  2  0  0  0  0
 22 23  1  0  0  0  0
 23 24  2  0  0  0  0
 23 51  1  0  0  0  0
 24 25  1  0  0  0  0
 24 52  1  0  0  0  0
 25 26  1  0  0  0  0
 26 53  1  0  0  0  0
M  END
$$$$
CHEMBL218202_6PT0
 OpenBabel12022418113D

 57 60  0  0  0  0  0  0  0  0999 V2000
    1.1563   -1.2988   -0.1604 C   0  0  0  0  0  0  0  0  0  0  0  0
    2.3447   -0.6098    0.0394 C   0  0  0  0  0  0  0  0  0  0  0  0
    2.3303    0.7787    0.1100 C   0  0  0  0  0  0  0  0  0  0  0  0
    1.1345    1.5102   -0.0560 C   0  0  0  0  0  0  0  0  0  0  0  0
   -0.0951    0.8025   -0.2862 C   0  0  0  0  0  0  0  0  0  0  0  0
   -0.0587   -0.6200   -0.3168 C   0  0  0  0  0  0  0  0  0  0  0  0
   -1.2412   -1.3662   -0.4752 C   0  0  0  0  0  0  0  0  0  0  0  0
   -2.4745   -0.7413   -0.6202 C   0  0  0  0  0  0  0  0  0  0  0  0
   -2.5386    0.6414   -0.6300 C   0  0  0  0  0  0  0  0  0  0  0  0
   -1.3709    1.3963   -0.4779 C   0  0  0  0  0  0  0  0  0  0  0  0
    1.1586    3.0037    0.1657 C   0  0  0  0  0  0  0  0  0  0  0  0
    0.1426    3.5737    0.5512 O   0  0  0  0  0  0  0  0  0  0  0  0
    2.4065    3.7673    0.0776 C   0  0  0  0  0  0  0  0  0  0  0  0
    3.4626    3.6409   -0.8042 C   0  0  0  0  0  0  0  0  0  0  0  0
    4.4467    4.5373   -0.4364 N   0  0  0  0  0  0  0  0  0  0  0  0
    4.0912    5.1598    0.7555 C   0  0  0  0  0  0  0  0  0  0  0  0
    2.7579    4.8389    0.9530 C   0  0  0  0  0  0  0  0  0  0  0  0
    5.0098    5.8693    1.6766 C   0  0  0  0  0  0  0  0  0  0  0  0
    6.2797    5.2923    1.8883 C   0  0  0  0  0  0  0  0  0  0  0  0
    7.2144    5.8524    2.7532 C   0  0  0  0  0  0  0  0  0  0  0  0
    6.8729    6.9759    3.4847 C   0  0  0  0  0  0  0  0  0  0  0  0
    5.6051    7.5423    3.3394 C   0  0  0  0  0  0  0  0  0  0  0  0
    4.6670    7.0158    2.4327 C   0  0  0  0  0  0  0  0  0  0  0  0
    3.4042    7.5391    2.2909 O   0  0  0  0  0  0  0  0  0  0  0  0
    3.2103    8.8869    2.7144 C   0  0  0  0  0  0  0  0  0  0  0  0
    5.7000    4.6963   -1.1633 C   0  0  0  0  0  0  0  0  0  0  0  0
    5.5651    5.1250   -2.6224 C   0  0  0  0  0  0  0  0  0  0  0  0
    4.8967    6.4925   -2.7620 C   0  0  0  0  0  0  0  0  0  0  0  0
    4.8418    6.9243   -4.2250 C   0  0  0  0  0  0  0  0  0  0  0  0
    4.1349    8.2592   -4.3768 C   0  0  0  0  0  0  0  0  0  0  0  0
    1.1825   -2.3895   -0.1867 H   0  0  0  0  0  0  0  0  0  0  0  0
    3.2737   -1.1575    0.1757 H   0  0  0  0  0  0  0  0  0  0  0  0
    3.2694    1.2747    0.3429 H   0  0  0  0  0  0  0  0  0  0  0  0
   -1.2095   -2.4541   -0.4743 H   0  0  0  0  0  0  0  0  0  0  0  0
   -3.3800   -1.3328   -0.7246 H   0  0  0  0  0  0  0  0  0  0  0  0
   -3.4949    1.1457   -0.7441 H   0  0  0  0  0  0  0  0  0  0  0  0
   -1.4865    2.4770   -0.5020 H   0  0  0  0  0  0  0  0  0  0  0  0
    3.6001    2.9935   -1.6620 H   0  0  0  0  0  0  0  0  0  0  0  0
    2.1388    5.2033    1.7638 H   0  0  0  0  0  0  0  0  0  0  0  0
    6.5515    4.3695    1.3819 H   0  0  0  0  0  0  0  0  0  0  0  0
    8.1913    5.3923    2.8671 H   0  0  0  0  0  0  0  0  0  0  0  0
    7.5809    7.4009    4.1912 H   0  0  0  0  0  0  0  0  0  0  0  0
    5.3735    8.3854    3.9804 H   0  0  0  0  0  0  0  0  0  0  0  0
    2.1541    9.1389    2.5795 H   0  0  0  0  0  0  0  0  0  0  0  0
    3.8046    9.5700    2.0984 H   0  0  0  0  0  0  0  0  0  0  0  0
    3.4270    9.0309    3.7781 H   0  0  0  0  0  0  0  0  0  0  0  0
    6.2197    3.7331   -1.0980 H   0  0  0  0  0  0  0  0  0  0  0  0
    6.3154    5.4448   -0.6592 H   0  0  0  0  0  0  0  0  0  0  0  0
    5.0113    4.3733   -3.1955 H   0  0  0  0  0  0  0  0  0  0  0  0
    6.5730    5.1736   -3.0551 H   0  0  0  0  0  0  0  0  0  0  0  0
    5.4502    7.2382   -2.1774 H   0  0  0  0  0  0  0  0  0  0  0  0
    3.8794    6.4533   -2.3558 H   0  0  0  0  0  0  0  0  0  0  0  0
    4.3140    6.1664   -4.8155 H   0  0  0  0  0  0  0  0  0  0  0  0
    5.8579    7.0020   -4.6285 H   0  0  0  0  0  0  0  0  0  0  0  0
    3.1084    8.2027   -4.0011 H   0  0  0  0  0  0  0  0  0  0  0  0
    4.0967    8.5487   -5.4313 H   0  0  0  0  0  0  0  0  0  0  0  0
    4.6602    9.0455   -3.8249 H   0  0  0  0  0  0  0  0  0  0  0  0
  1  6  2  0  0  0  0
  1  2  1  0  0  0  0
  1 31  1  0  0  0  0
  2  3  2  0  0  0  0
  2 32  1  0  0  0  0
  3  4  1  0  0  0  0
  3 33  1  0  0  0  0
  4  5  2  0  0  0  0
  4 11  1  0  0  0  0
  5 10  1  0  0  0  0
  5  6  1  0  0  0  0
  6  7  1  0  0  0  0
  7  8  2  0  0  0  0
  7 34  1  0  0  0  0
  8  9  1  0  0  0  0
  8 35  1  0  0  0  0
  9 10  2  0  0  0  0
  9 36  1  0  0  0  0
 10 37  1  0  0  0  0
 11 12  2  0  0  0  0
 11 13  1  0  0  0  0
 13 17  1  0  0  0  0
 13 14  2  0  0  0  0
 14 15  1  0  0  0  0
 14 38  1  0  0  0  0
 15 16  1  0  0  0  0
 15 26  1  0  0  0  0
 16 17  2  0  0  0  0
 16 18  1  0  0  0  0
 17 39  1  0  0  0  0
 18 23  2  0  0  0  0
 18 19  1  0  0  0  0
 19 20  2  0  0  0  0
 19 40  1  0  0  0  0
 20 21  1  0  0  0  0
 20 41  1  0  0  0  0
 21 22  2  0  0  0  0
 21 42  1  0  0  0  0
 22 23  1  0  0  0  0
 22 43  1  0  0  0  0
 23 24  1  0  0  0  0
 24 25  1  0  0  0  0
 25 44  1  0  0  0  0
 25 45  1  0  0  0  0
 25 46  1  0  0  0  0
 26 27  1  0  0  0  0
 26 47  1  0  0  0  0
 26 48  1  0  0  0  0
 27 28  1  0  0  0  0
 27 49  1  0  0  0  0
 27 50  1  0  0  0  0
 28 29  1  0  0  0  0
 28 51  1  0  0  0  0
 28 52  1  0  0  0  0
 29 30  1  0  0  0  0
 29 53  1  0  0  0  0
 29 54  1  0  0  0  0
 30 55  1  0  0  0  0
 30 56  1  0  0  0  0
 30 57  1  0  0  0  0
M  END
$$$$
CHEMBL3422784_8GUT
 OpenBabel12022418113D

 54 57  0  0  1  0  0  0  0  0999 V2000
    8.8811   -5.7844   -4.4537 C   0  0  0  0  0  0  0  0  0  0  0  0
    8.9763   -7.1790   -4.3717 C   0  0  0  0  0  0  0  0  0  0  0  0
    8.7511   -7.8096   -3.1560 C   0  0  0  0  0  0  0  0  0  0  0  0
    8.4736   -7.0465   -2.0152 C   0  0  0  0  0  0  0  0  0  0  0  0
    8.4362   -5.6359   -2.0642 C   0  0  0  0  0  0  0  0  0  0  0  0
    8.5987   -5.0163   -3.3103 C   0  0  0  0  0  0  0  0  0  0  0  0
    8.3738   -3.5740   -3.4406 C   0  0  0  0  0  0  0  0  0  0  0  0
    8.1682   -2.7694   -2.3820 C   0  0  0  0  0  0  0  0  0  0  0  0
    8.2150   -3.3933   -1.0073 C   0  0  0  0  0  0  0  0  0  0  0  0
    8.1558   -2.6547   -0.0211 O   0  0  0  0  0  0  0  0  0  0  0  0
    8.2559   -4.8102   -0.9021 N   0  0  0  0  0  0  0  0  0  0  0  0
    7.8222   -5.4304    0.3665 C   0  0  0  0  0  0  0  0  0  0  0  0
    8.8104   -6.0937    1.3282 C   0  0  0  0  0  0  0  0  0  0  0  0
   10.0133   -6.7215    0.9657 C   0  0  0  0  0  0  0  0  0  0  0  0
   10.7430   -7.4734    1.9076 C   0  0  0  0  0  0  0  0  0  0  0  0
   10.2962   -7.5858    3.2199 C   0  0  0  0  0  0  0  0  0  0  0  0
    9.1229   -6.9719    3.6168 C   0  0  0  0  0  0  0  0  0  0  0  0
    8.3880   -6.2403    2.6753 C   0  0  0  0  0  0  0  0  0  0  0  0
   10.9908   -8.3339    4.0946 F   0  0  0  0  0  0  0  0  0  0  0  0
    7.7746   -1.3100   -2.7031 C   0  0  0  0  0  0  0  0  0  0  0  0
    7.4109   -1.0024   -3.8385 O   0  0  0  0  0  0  0  0  0  0  0  0
    7.8120   -0.3650   -1.6937 N   0  0  0  0  0  0  0  0  0  0  0  0
    7.2239    1.0157   -1.7606 C   0  0  1  0  0  0  0  0  0  0  0  0
    6.5161    1.2946   -0.4179 C   0  0  0  0  0  0  0  0  0  0  0  0
    6.1245    2.7498   -0.1502 C   0  0  0  0  0  0  0  0  0  0  0  0
    7.3294    3.6764   -0.3149 C   0  0  1  0  0  0  0  0  0  0  0  0
    7.7937    3.5740   -1.7721 C   0  0  0  0  0  0  0  0  0  0  0  0
    8.2516    2.1281   -2.1055 C   0  0  0  0  0  0  0  0  0  0  0  0
    7.0116    5.1021    0.1524 C   0  0  0  0  0  0  0  0  0  0  0  0
    9.0196   -5.3117   -5.4227 H   0  0  0  0  0  0  0  0  0  0  0  0
    9.2066   -7.7655   -5.2573 H   0  0  0  0  0  0  0  0  0  0  0  0
    8.7986   -8.8994   -3.0857 H   0  0  0  0  0  0  0  0  0  0  0  0
    8.3074   -7.5934   -1.0939 H   0  0  0  0  0  0  0  0  0  0  0  0
    8.3037   -3.1842   -4.4536 H   0  0  0  0  0  0  0  0  0  0  0  0
    7.0540   -6.1796    0.1252 H   0  0  0  0  0  0  0  0  0  0  0  0
    7.2883   -4.6605    0.9358 H   0  0  0  0  0  0  0  0  0  0  0  0
   10.3902   -6.6689   -0.0519 H   0  0  0  0  0  0  0  0  0  0  0  0
   11.6559   -7.9891    1.6121 H   0  0  0  0  0  0  0  0  0  0  0  0
    8.7807   -7.0793    4.6395 H   0  0  0  0  0  0  0  0  0  0  0  0
    7.4474   -5.7962    3.0008 H   0  0  0  0  0  0  0  0  0  0  0  0
    8.1379   -0.6938   -0.7895 H   0  0  0  0  0  0  0  0  0  0  0  0
    6.4678    1.0172   -2.5572 H   0  0  0  0  0  0  0  0  0  0  0  0
    7.1821    0.9819    0.4000 H   0  0  0  0  0  0  0  0  0  0  0  0
    5.6233    0.6655   -0.3468 H   0  0  0  0  0  0  0  0  0  0  0  0
    5.7282    2.8308    0.8693 H   0  0  0  0  0  0  0  0  0  0  0  0
    5.3149    3.0559   -0.8267 H   0  0  0  0  0  0  0  0  0  0  0  0
    8.1460    3.3209    0.3262 H   0  0  0  0  0  0  0  0  0  0  0  0
    8.6230    4.2714   -1.9484 H   0  0  0  0  0  0  0  0  0  0  0  0
    6.9839    3.8823   -2.4481 H   0  0  0  0  0  0  0  0  0  0  0  0
    8.5005    2.0839   -3.1739 H   0  0  0  0  0  0  0  0  0  0  0  0
    9.1860    1.9407   -1.5643 H   0  0  0  0  0  0  0  0  0  0  0  0
    6.0977    5.5032   -0.2967 H   0  0  0  0  0  0  0  0  0  0  0  0
    7.8352    5.7908   -0.0667 H   0  0  0  0  0  0  0  0  0  0  0  0
    6.8718    5.1128    1.2422 H   0  0  0  0  0  0  0  0  0  0  0  0
  1  6  2  0  0  0  0
  1  2  1  0  0  0  0
  1 30  1  0  0  0  0
  2  3  2  0  0  0  0
  2 31  1  0  0  0  0
  3  4  1  0  0  0  0
  3 32  1  0  0  0  0
  4  5  2  0  0  0  0
  4 33  1  0  0  0  0
  5 11  1  0  0  0  0
  5  6  1  0  0  0  0
  6  7  1  0  0  0  0
  7  8  2  0  0  0  0
  7 34  1  0  0  0  0
  8  9  1  0  0  0  0
  8 20  1  0  0  0  0
  9 10  2  0  0  0  0
  9 11  1  0  0  0  0
 11 12  1  0  0  0  0
 12 13  1  0  0  0  0
 12 35  1  0  0  0  0
 12 36  1  0  0  0  0
 13 18  2  0  0  0  0
 13 14  1  0  0  0  0
 14 15  2  0  0  0  0
 14 37  1  0  0  0  0
 15 16  1  0  0  0  0
 15 38  1  0  0  0  0
 16 17  2  0  0  0  0
 16 19  1  0  0  0  0
 17 18  1  0  0  0  0
 17 39  1  0  0  0  0
 18 40  1  0  0  0  0
 20 21  2  0  0  0  0
 20 22  1  0  0  0  0
 22 41  1  0  0  0  0
 23 24  1  0  0  0  0
 23 28  1  0  0  0  0
 23 22  1  0  0  0  0
 23 42  1  6  0  0  0
 24 25  1  0  0  0  0
 24 43  1  0  0  0  0
 24 44  1  0  0  0  0
 25 26  1  0  0  0  0
 25 45  1  0  0  0  0
 25 46  1  0  0  0  0
 26 27  1  0  0  0  0
 26 29  1  0  0  0  0
 26 47  1  1  0  0  0
 27 28  1  0  0  0  0
 27 48  1  0  0  0  0
 27 49  1  0  0  0  0
 28 50  1  0  0  0  0
 28 51  1  0  0  0  0
 29 52  1  0  0  0  0
 29 53  1  0  0  0  0
 29 54  1  0  0  0  0
M  END
$$$$
CHEMBL4782654_5ZTY
 OpenBabel12022418113D

 61 64  0  0  0  0  0  0  0  0999 V2000
   -0.6911    1.1725   -0.0247 C   0  0  0  0  0  0  0  0  0  0  0  0
    0.6654    1.1859    0.0038 C   0  0  0  0  0  0  0  0  0  0  0  0
    1.4741    2.4687   -0.0039 C   0  0  0  0  0  0  0  0  0  0  0  0
    1.3707   -0.0309    0.1105 N   0  0  0  0  0  0  0  0  0  0  0  0
    2.8378   -0.0892    0.0703 C   0  0  0  0  0  0  0  0  0  0  0  0
    3.4470   -0.2543   -1.3154 C   0  0  0  0  0  0  0  0  0  0  0  0
    2.8826   -1.0917   -2.2944 C   0  0  0  0  0  0  0  0  0  0  0  0
    3.5723   -1.3717   -3.4788 C   0  0  0  0  0  0  0  0  0  0  0  0
    4.8271   -0.8186   -3.6919 C   0  0  0  0  0  0  0  0  0  0  0  0
    5.3947    0.0368   -2.7576 C   0  0  0  0  0  0  0  0  0  0  0  0
    4.7059    0.3193   -1.5741 C   0  0  0  0  0  0  0  0  0  0  0  0
    5.5098   -1.1303   -4.8015 F   0  0  0  0  0  0  0  0  0  0  0  0
    0.7181   -1.2502    0.3418 C   0  0  0  0  0  0  0  0  0  0  0  0
    1.3036   -2.2807    0.6803 O   0  0  0  0  0  0  0  0  0  0  0  0
   -0.7470   -1.2856    0.1022 C   0  0  0  0  0  0  0  0  0  0  0  0
   -1.3827   -0.1117   -0.0754 C   0  0  0  0  0  0  0  0  0  0  0  0
   -1.5363   -2.5550    0.0083 C   0  0  0  0  0  0  0  0  0  0  0  0
   -2.6490   -2.5753   -0.5122 O   0  0  0  0  0  0  0  0  0  0  0  0
   -0.9385   -3.6753    0.5426 N   0  0  0  0  0  0  0  0  0  0  0  0
   -1.5603   -5.0020    0.5253 C   0  0  0  0  0  0  0  0  0  0  0  0
   -1.2615   -5.7471   -0.7900 C   0  0  0  0  0  0  0  0  0  0  0  0
   -0.2456   -6.8916   -0.7294 C   0  0  0  0  0  0  0  0  0  0  0  0
   -0.8285   -8.1995   -0.1882 C   0  0  0  0  0  0  0  0  0  0  0  0
   -1.0177   -8.2547    1.3240 C   0  0  0  0  0  0  0  0  0  0  0  0
   -1.8588   -7.1294    1.9165 C   0  0  0  0  0  0  0  0  0  0  0  0
   -1.1957   -5.7567    1.8098 C   0  0  0  0  0  0  0  0  0  0  0  0
   -1.4757    2.4286   -0.0229 C   0  0  0  0  0  0  0  0  0  0  0  0
   -1.8681    3.0105    1.1923 C   0  0  0  0  0  0  0  0  0  0  0  0
   -2.6030    4.1961    1.2073 C   0  0  0  0  0  0  0  0  0  0  0  0
   -2.9575    4.8145    0.0079 C   0  0  0  0  0  0  0  0  0  0  0  0
   -2.5768    4.2411   -1.2051 C   0  0  0  0  0  0  0  0  0  0  0  0
   -1.8420    3.0514   -1.2250 C   0  0  0  0  0  0  0  0  0  0  0  0
    0.8687    3.3785    0.0077 H   0  0  0  0  0  0  0  0  0  0  0  0
    2.1045    2.5202   -0.8972 H   0  0  0  0  0  0  0  0  0  0  0  0
    2.1074    2.5295    0.8879 H   0  0  0  0  0  0  0  0  0  0  0  0
    3.1897   -0.9419    0.6636 H   0  0  0  0  0  0  0  0  0  0  0  0
    3.2583    0.7888    0.5680 H   0  0  0  0  0  0  0  0  0  0  0  0
    1.9186   -1.5681   -2.1358 H   0  0  0  0  0  0  0  0  0  0  0  0
    3.1500   -2.0427   -4.2211 H   0  0  0  0  0  0  0  0  0  0  0  0
    6.3788    0.4545   -2.9409 H   0  0  0  0  0  0  0  0  0  0  0  0
    5.1793    0.9641   -0.8364 H   0  0  0  0  0  0  0  0  0  0  0  0
   -2.4505   -0.0875   -0.2783 H   0  0  0  0  0  0  0  0  0  0  0  0
    0.0277   -3.5935    0.8606 H   0  0  0  0  0  0  0  0  0  0  0  0
   -2.6431   -4.8243    0.5469 H   0  0  0  0  0  0  0  0  0  0  0  0
   -0.9221   -5.0299   -1.5492 H   0  0  0  0  0  0  0  0  0  0  0  0
   -2.2067   -6.1511   -1.1768 H   0  0  0  0  0  0  0  0  0  0  0  0
    0.6556   -6.6013   -0.1784 H   0  0  0  0  0  0  0  0  0  0  0  0
    0.0793   -7.0928   -1.7590 H   0  0  0  0  0  0  0  0  0  0  0  0
   -0.1515   -9.0177   -0.4649 H   0  0  0  0  0  0  0  0  0  0  0  0
   -1.7814   -8.4166   -0.6860 H   0  0  0  0  0  0  0  0  0  0  0  0
   -0.0376   -8.2746    1.8130 H   0  0  0  0  0  0  0  0  0  0  0  0
   -1.4996   -9.2106    1.5708 H   0  0  0  0  0  0  0  0  0  0  0  0
   -2.0041   -7.3538    2.9793 H   0  0  0  0  0  0  0  0  0  0  0  0
   -2.8592   -7.1167    1.4639 H   0  0  0  0  0  0  0  0  0  0  0  0
   -1.5277   -5.1497    2.6626 H   0  0  0  0  0  0  0  0  0  0  0  0
   -0.1071   -5.8418    1.9224 H   0  0  0  0  0  0  0  0  0  0  0  0
   -1.5992    2.5405    2.1368 H   0  0  0  0  0  0  0  0  0  0  0  0
   -2.9061    4.6378    2.1558 H   0  0  0  0  0  0  0  0  0  0  0  0
   -3.5340    5.7341    0.0174 H   0  0  0  0  0  0  0  0  0  0  0  0
   -2.8574    4.7204   -2.1413 H   0  0  0  0  0  0  0  0  0  0  0  0
   -1.5546    2.6173   -2.1777 H   0  0  0  0  0  0  0  0  0  0  0  0
  1 16  1  0  0  0  0
  1  2  2  0  0  0  0
  1 27  1  0  0  0  0
  2  3  1  0  0  0  0
  2  4  1  0  0  0  0
  3 33  1  0  0  0  0
  3 34  1  0  0  0  0
  3 35  1  0  0  0  0
  4  5  1  0  0  0  0
  4 13  1  0  0  0  0
  5  6  1  0  0  0  0
  5 36  1  0  0  0  0
  5 37  1  0  0  0  0
  6 11  2  0  0  0  0
  6  7  1  0  0  0  0
  7  8  2  0  0  0  0
  7 38  1  0  0  0  0
  8  9  1  0  0  0  0
  8 39  1  0  0  0  0
  9 10  2  0  0  0  0
  9 12  1  0  0  0  0
 10 11  1  0  0  0  0
 10 40  1  0  0  0  0
 11 41  1  0  0  0  0
 13 14  2  0  0  0  0
 13 15  1  0  0  0  0
 15 16  2  0  0  0  0
 15 17  1  0  0  0  0
 16 42  1  0  0  0  0
 17 18  2  0  0  0  0
 17 19  1  0  0  0  0
 19 20  1  0  0  0  0
 19 43  1  0  0  0  0
 20 26  1  0  0  0  0
 20 21  1  0  0  0  0
 20 44  1  0  0  0  0
 21 22  1  0  0  0  0
 21 45  1  0  0  0  0
 21 46  1  0  0  0  0
 22 23  1  0  0  0  0
 22 47  1  0  0  0  0
 22 48  1  0  0  0  0
 23 24  1  0  0  0  0
 23 49  1  0  0  0  0
 23 50  1  0  0  0  0
 24 25  1  0  0  0  0
 24 51  1  0  0  0  0
 24 52  1  0  0  0  0
 25 26  1  0  0  0  0
 25 53  1  0  0  0  0
 25 54  1  0  0  0  0
 26 55  1  0  0  0  0
 26 56  1  0  0  0  0
 27 32  2  0  0  0  0
 27 28  1  0  0  0  0
 28 29  2  0  0  0  0
 28 57  1  0  0  0  0
 29 30  1  0  0  0  0
 29 58  1  0  0  0  0
 30 31  2  0  0  0  0
 30 59  1  0  0  0  0
 31 32  1  0  0  0  0
 31 60  1  0  0  0  0
 32 61  1  0  0  0  0
M  END
$$$$
CHEMBL598463_5ZTY
 OpenBabel12022418113D

 45 47  0  0  0  0  0  0  0  0999 V2000
    1.4412    0.3290    0.1984 C   0  0  0  0  0  0  0  0  0  0  0  0
    2.8933    0.0099    0.0881 C   0  0  0  0  0  0  0  0  0  0  0  0
    3.8155    0.9580    0.0682 N   0  0  0  0  0  0  0  0  0  0  0  0
    5.0329    0.3208    0.0712 C   0  0  0  0  0  0  0  0  0  0  0  0
    6.3148    1.0390    0.0550 C   0  0  0  0  0  0  0  0  0  0  0  0
    7.3990    0.4809    0.1866 O   0  0  0  0  0  0  0  0  0  0  0  0
    6.1915    2.4004   -0.1173 N   0  0  0  0  0  0  0  0  0  0  0  0
    7.3387    3.2818   -0.2056 C   0  0  0  0  0  0  0  0  0  0  0  0
    7.4270    4.3307    0.8917 C   0  0  0  0  0  0  0  0  0  0  0  0
    6.4602    4.3826    1.9157 C   0  0  0  0  0  0  0  0  0  0  0  0
    6.5035    5.3585    2.9127 C   0  0  0  0  0  0  0  0  0  0  0  0
    7.5153    6.3083    2.9151 C   0  0  0  0  0  0  0  0  0  0  0  0
    8.4962    6.2670    1.9295 C   0  0  0  0  0  0  0  0  0  0  0  0
    8.4794    5.2839    0.9143 C   0  0  0  0  0  0  0  0  0  0  0  0
    9.6238    5.3268   -0.0779 C   0  0  0  0  0  0  0  0  0  0  0  0
    9.6036    4.3607   -1.0338 F   0  0  0  0  0  0  0  0  0  0  0  0
    9.6666    6.5094   -0.7564 F   0  0  0  0  0  0  0  0  0  0  0  0
   10.8376    5.2138    0.5339 F   0  0  0  0  0  0  0  0  0  0  0  0
    4.8488   -1.0550    0.0434 C   0  0  0  0  0  0  0  0  0  0  0  0
    5.8782   -2.1215   -0.1260 C   0  0  0  0  0  0  0  0  0  0  0  0
    3.4667   -1.2653    0.0916 N   0  0  0  0  0  0  0  0  0  0  0  0
    2.8149   -2.5435    0.0746 C   0  0  0  0  0  0  0  0  0  0  0  0
    3.4146   -3.6489    0.7003 C   0  0  0  0  0  0  0  0  0  0  0  0
    2.8971   -4.9361    0.5388 C   0  0  0  0  0  0  0  0  0  0  0  0
    1.7347   -5.1277   -0.1979 C   0  0  0  0  0  0  0  0  0  0  0  0
    1.0834   -4.0299   -0.7569 C   0  0  0  0  0  0  0  0  0  0  0  0
    1.6243   -2.7431   -0.6341 C   0  0  0  0  0  0  0  0  0  0  0  0
    0.8175   -0.5122    0.5018 H   0  0  0  0  0  0  0  0  0  0  0  0
    1.0745    0.7204   -0.7565 H   0  0  0  0  0  0  0  0  0  0  0  0
    1.2953    1.1095    0.9535 H   0  0  0  0  0  0  0  0  0  0  0  0
    5.2517    2.7576   -0.2464 H   0  0  0  0  0  0  0  0  0  0  0  0
    7.2468    3.7897   -1.1720 H   0  0  0  0  0  0  0  0  0  0  0  0
    8.2550    2.6836   -0.2003 H   0  0  0  0  0  0  0  0  0  0  0  0
    5.6545    3.6514    1.9591 H   0  0  0  0  0  0  0  0  0  0  0  0
    5.7422    5.3727    3.6887 H   0  0  0  0  0  0  0  0  0  0  0  0
    7.5465    7.0730    3.6869 H   0  0  0  0  0  0  0  0  0  0  0  0
    9.2946    7.0095    1.9488 H   0  0  0  0  0  0  0  0  0  0  0  0
    6.7920   -1.7352   -0.5831 H   0  0  0  0  0  0  0  0  0  0  0  0
    5.5291   -2.9147   -0.7938 H   0  0  0  0  0  0  0  0  0  0  0  0
    6.1545   -2.5495    0.8421 H   0  0  0  0  0  0  0  0  0  0  0  0
    4.2917   -3.5393    1.3309 H   0  0  0  0  0  0  0  0  0  0  0  0
    3.4104   -5.7866    0.9818 H   0  0  0  0  0  0  0  0  0  0  0  0
    1.3393   -6.1307   -0.3381 H   0  0  0  0  0  0  0  0  0  0  0  0
    0.1664   -4.1817   -1.3215 H   0  0  0  0  0  0  0  0  0  0  0  0
    1.1244   -1.9377   -1.1628 H   0  0  0  0  0  0  0  0  0  0  0  0
  1  2  1  0  0  0  0
  1 28  1  0  0  0  0
  1 29  1  0  0  0  0
  1 30  1  0  0  0  0
  2 21  1  0  0  0  0
  2  3  2  0  0  0  0
  3  4  1  0  0  0  0
  4  5  1  0  0  0  0
  4 19  2  0  0  0  0
  5  6  2  0  0  0  0
  5  7  1  0  0  0  0
  7  8  1  0  0  0  0
  7 31  1  0  0  0  0
  8  9  1  0  0  0  0
  8 32  1  0  0  0  0
  8 33  1  0  0  0  0
  9 14  2  0  0  0  0
  9 10  1  0  0  0  0
 10 11  2  0  0  0  0
 10 34  1  0  0  0  0
 11 12  1  0  0  0  0
 11 35  1  0  0  0  0
 12 13  2  0  0  0  0
 12 36  1  0  0  0  0
 13 14  1  0  0  0  0
 13 37  1  0  0  0  0
 14 15  1  0  0  0  0
 15 16  1  0  0  0  0
 15 17  1  0  0  0  0
 15 18  1  0  0  0  0
 19 20  1  0  0  0  0
 19 21  1  0  0  0  0
 20 38  1  0  0  0  0
 20 39  1  0  0  0  0
 20 40  1  0  0  0  0
 21 22  1  0  0  0  0
 22 27  2  0  0  0  0
 22 23  1  0  0  0  0
 23 24  2  0  0  0  0
 23 41  1  0  0  0  0
 24 25  1  0  0  0  0
 24 42  1  0  0  0  0
 25 26  2  0  0  0  0
 25 43  1  0  0  0  0
 26 27  1  0  0  0  0
 26 44  1  0  0  0  0
 27 45  1  0  0  0  0
M  END
$$$$
CHEMBL1223778_5ZTY
 OpenBabel12022418113D

 66 69  0  0  1  0  0  0  0  0999 V2000
    1.3878    3.7734   -1.9525 C   0  0  0  0  0  0  0  0  0  0  0  0
    2.8895    3.6283   -1.7829 C   0  0  0  0  0  0  0  0  0  0  0  0
    3.2578    3.1472   -0.3787 C   0  0  0  0  0  0  0  0  0  0  0  0
    4.7760    3.0174   -0.2470 C   0  0  0  0  0  0  0  0  0  0  0  0
    5.1976    2.5326    1.1383 C   0  0  0  0  0  0  0  0  0  0  0  0
    6.6420    2.3919    1.2406 N   0  0  0  0  0  0  0  0  0  0  0  0
    7.4121    3.4558    1.8971 C   0  0  2  0  0  0  0  0  0  0  0  0
    8.8500    2.9669    1.6440 C   0  0  0  0  0  0  0  0  0  0  0  0
    8.5924    1.8388    0.6857 C   0  0  0  0  0  0  0  0  0  0  0  0
    7.3419    1.5613    0.4381 N   0  0  0  0  0  0  0  0  0  0  0  0
    9.7399    1.0370    0.0983 C   0  0  0  0  0  0  0  0  0  0  0  0
   10.8744    1.2978    0.4539 O   0  0  0  0  0  0  0  0  0  0  0  0
    9.3957    0.0239   -0.7792 N   0  0  0  0  0  0  0  0  0  0  0  0
   10.4081   -0.8260   -1.3971 C   0  0  1  0  0  0  0  0  0  0  0  0
    9.8984   -2.2511   -1.7136 C   0  0  0  0  0  0  0  0  0  0  0  0
   10.2464   -2.4247   -3.2132 C   0  0  1  0  0  0  0  0  0  0  0  0
    9.2222   -1.5767   -3.9966 C   0  0  0  0  0  0  0  0  0  0  0  0
    9.6855   -0.1357   -3.7158 C   0  0  0  0  0  0  0  0  0  0  0  0
   10.9224   -0.3389   -2.7945 C   0  0  1  0  0  0  0  0  0  0  0  0
   11.8325    0.8741   -2.7295 C   0  0  0  0  0  0  0  0  0  0  0  0
   11.5682   -1.6347   -3.3888 C   0  0  0  0  0  0  0  0  0  0  0  0
   12.7602   -2.2163   -2.6027 C   0  0  0  0  0  0  0  0  0  0  0  0
   12.0453   -1.5226   -4.8540 C   0  0  0  0  0  0  0  0  0  0  0  0
    7.0962    3.5932    3.3767 C   0  0  0  0  0  0  0  0  0  0  0  0
    6.5879    4.7929    3.9045 C   0  0  0  0  0  0  0  0  0  0  0  0
    6.3458    4.9168    5.2770 C   0  0  0  0  0  0  0  0  0  0  0  0
    6.5934    3.8443    6.1330 C   0  0  0  0  0  0  0  0  0  0  0  0
    7.0565    2.6379    5.6182 C   0  0  0  0  0  0  0  0  0  0  0  0
    7.2947    2.5126    4.2508 C   0  0  0  0  0  0  0  0  0  0  0  0
    1.1538    4.1201   -2.9636 H   0  0  0  0  0  0  0  0  0  0  0  0
    0.9824    4.4991   -1.2407 H   0  0  0  0  0  0  0  0  0  0  0  0
    0.8826    2.8153   -1.7953 H   0  0  0  0  0  0  0  0  0  0  0  0
    3.3696    4.5939   -1.9813 H   0  0  0  0  0  0  0  0  0  0  0  0
    3.2692    2.9202   -2.5291 H   0  0  0  0  0  0  0  0  0  0  0  0
    2.7802    2.1787   -0.1824 H   0  0  0  0  0  0  0  0  0  0  0  0
    2.8761    3.8538    0.3688 H   0  0  0  0  0  0  0  0  0  0  0  0
    5.2421    3.9877   -0.4547 H   0  0  0  0  0  0  0  0  0  0  0  0
    5.1346    2.3117   -1.0052 H   0  0  0  0  0  0  0  0  0  0  0  0
    4.7435    1.5542    1.3363 H   0  0  0  0  0  0  0  0  0  0  0  0
    4.7994    3.2064    1.9078 H   0  0  0  0  0  0  0  0  0  0  0  0
    7.2664    4.4138    1.3815 H   0  0  0  0  0  0  0  0  0  0  0  0
    9.3628    2.5849    2.5321 H   0  0  0  0  0  0  0  0  0  0  0  0
    9.4674    3.7394    1.1746 H   0  0  0  0  0  0  0  0  0  0  0  0
    8.4238   -0.0462   -1.0543 H   0  0  0  0  0  0  0  0  0  0  0  0
   11.2425   -0.8951   -0.6912 H   0  0  0  0  0  0  0  0  0  0  0  0
    8.8281   -2.3813   -1.5212 H   0  0  0  0  0  0  0  0  0  0  0  0
   10.4302   -2.9909   -1.1042 H   0  0  0  0  0  0  0  0  0  0  0  0
   10.2764   -3.4700   -3.5303 H   0  0  0  0  0  0  0  0  0  0  0  0
    8.1935   -1.7488   -3.6641 H   0  0  0  0  0  0  0  0  0  0  0  0
    9.2588   -1.7964   -5.0689 H   0  0  0  0  0  0  0  0  0  0  0  0
    8.8909    0.4566   -3.2512 H   0  0  0  0  0  0  0  0  0  0  0  0
    9.9481    0.3752   -4.6485 H   0  0  0  0  0  0  0  0  0  0  0  0
   11.3098    1.7426   -2.3178 H   0  0  0  0  0  0  0  0  0  0  0  0
   12.1947    1.1523   -3.7246 H   0  0  0  0  0  0  0  0  0  0  0  0
   12.7078    0.6801   -2.1007 H   0  0  0  0  0  0  0  0  0  0  0  0
   12.5764   -2.3645   -1.5372 H   0  0  0  0  0  0  0  0  0  0  0  0
   13.6353   -1.5612   -2.6868 H   0  0  0  0  0  0  0  0  0  0  0  0
   13.0428   -3.1946   -3.0096 H   0  0  0  0  0  0  0  0  0  0  0  0
   11.3085   -1.1063   -5.5440 H   0  0  0  0  0  0  0  0  0  0  0  0
   12.3155   -2.5110   -5.2439 H   0  0  0  0  0  0  0  0  0  0  0  0
   12.9335   -0.8842   -4.9250 H   0  0  0  0  0  0  0  0  0  0  0  0
    6.3736    5.6404    3.2571 H   0  0  0  0  0  0  0  0  0  0  0  0
    5.9660    5.8517    5.6828 H   0  0  0  0  0  0  0  0  0  0  0  0
    6.4181    3.9442    7.2009 H   0  0  0  0  0  0  0  0  0  0  0  0
    7.2363    1.7919    6.2752 H   0  0  0  0  0  0  0  0  0  0  0  0
    7.6424    1.5571    3.8622 H   0  0  0  0  0  0  0  0  0  0  0  0
  1  2  1  0  0  0  0
  1 30  1  0  0  0  0
  1 31  1  0  0  0  0
  1 32  1  0  0  0  0
  2  3  1  0  0  0  0
  2 33  1  0  0  0  0
  2 34  1  0  0  0  0
  3  4  1  0  0  0  0
  3 35  1  0  0  0  0
  3 36  1  0  0  0  0
  4  5  1  0  0  0  0
  4 37  1  0  0  0  0
  4 38  1  0  0  0  0
  5  6  1  0  0  0  0
  5 39  1  0  0  0  0
  5 40  1  0  0  0  0
  6 10  1  0  0  0  0
  6  7  1  0  0  0  0
  7  8  1  0  0  0  0
  7 24  1  0  0  0  0
  7 41  1  6  0  0  0
  8  9  1  0  0  0  0
  8 42  1  0  0  0  0
  8 43  1  0  0  0  0
  9 10  2  0  0  0  0
  9 11  1  0  0  0  0
 11 12  2  0  0  0  0
 11 13  1  0  0  0  0
 13 44  1  0  0  0  0
 14 13  1  0  0  0  0
 14 15  1  0  0  0  0
 14 19  1  0  0  0  0
 14 45  1  1  0  0  0
 15 46  1  0  0  0  0
 15 47  1  0  0  0  0
 16 15  1  0  0  0  0
 16 17  1  0  0  0  0
 16 21  1  0  0  0  0
 16 48  1  6  0  0  0
 17 18  1  0  0  0  0
 17 49  1  0  0  0  0
 17 50  1  0  0  0  0
 18 19  1  0  0  0  0
 18 51  1  0  0  0  0
 18 52  1  0  0  0  0
 19 20  1  1  0  0  0
 19 21  1  0  0  0  0
 20 53  1  0  0  0  0
 20 54  1  0  0  0  0
 20 55  1  0  0  0  0
 21 22  1  0  0  0  0
 21 23  1  0  0  0  0
 22 56  1  0  0  0  0
 22 57  1  0  0  0  0
 22 58  1  0  0  0  0
 23 59  1  0  0  0  0
 23 60  1  0  0  0  0
 23 61  1  0  0  0  0
 24 29  2  0  0  0  0
 24 25  1  0  0  0  0
 25 26  2  0  0  0  0
 25 62  1  0  0  0  0
 26 27  1  0  0  0  0
 26 63  1  0  0  0  0
 27 28  2  0  0  0  0
 27 64  1  0  0  0  0
 28 29  1  0  0  0  0
 28 65  1  0  0  0  0
 29 66  1  0  0  0  0
M  END
$$$$
CHEMBL219243_6PT0
 OpenBabel12022418113D

 56 59  0  0  0  0  0  0  0  0999 V2000
    0.9211   -0.9908   -1.6117 C   0  0  0  0  0  0  0  0  0  0  0  0
    2.1477   -0.4996   -1.1823 C   0  0  0  0  0  0  0  0  0  0  0  0
    2.2226    0.7674   -0.6131 C   0  0  0  0  0  0  0  0  0  0  0  0
    1.0794    1.5818   -0.5045 C   0  0  0  0  0  0  0  0  0  0  0  0
   -0.1868    1.0925   -0.9565 C   0  0  0  0  0  0  0  0  0  0  0  0
   -0.2449   -0.2224   -1.4943 C   0  0  0  0  0  0  0  0  0  0  0  0
   -1.4725   -0.7732   -1.9016 C   0  0  0  0  0  0  0  0  0  0  0  0
   -2.6557   -0.0480   -1.8013 C   0  0  0  0  0  0  0  0  0  0  0  0
   -2.6237    1.2484   -1.3127 C   0  0  0  0  0  0  0  0  0  0  0  0
   -1.4099    1.8106   -0.9048 C   0  0  0  0  0  0  0  0  0  0  0  0
    1.2047    2.8957    0.2188 C   0  0  0  0  0  0  0  0  0  0  0  0
    0.2832    3.2825    0.9314 O   0  0  0  0  0  0  0  0  0  0  0  0
    2.4550    3.6586    0.1665 C   0  0  0  0  0  0  0  0  0  0  0  0
    3.4101    3.6990   -0.8269 C   0  0  0  0  0  0  0  0  0  0  0  0
    4.4625    4.4917   -0.4187 N   0  0  0  0  0  0  0  0  0  0  0  0
    4.1778    5.0367    0.8325 C   0  0  0  0  0  0  0  0  0  0  0  0
    2.9184    4.5521    1.1689 C   0  0  0  0  0  0  0  0  0  0  0  0
    5.0505    5.8961    1.6669 C   0  0  0  0  0  0  0  0  0  0  0  0
    4.9681    5.8162    3.0672 C   0  0  0  0  0  0  0  0  0  0  0  0
    5.7760    6.6069    3.8916 C   0  0  0  0  0  0  0  0  0  0  0  0
    6.7069    7.4784    3.3320 C   0  0  0  0  0  0  0  0  0  0  0  0
    6.8080    7.5867    1.9459 C   0  0  0  0  0  0  0  0  0  0  0  0
    5.9562    6.8223    1.1332 C   0  0  0  0  0  0  0  0  0  0  0  0
    7.8190    8.4887    1.3008 C   0  0  0  0  0  0  0  0  0  0  0  0
    5.6928    4.6872   -1.1791 C   0  0  0  0  0  0  0  0  0  0  0  0
    5.8379    3.9028   -2.4835 C   0  0  0  0  0  0  0  0  0  0  0  0
    7.1585    4.2358   -3.1808 C   0  0  0  0  0  0  0  0  0  0  0  0
    7.2550    3.5090   -4.5195 C   0  0  0  0  0  0  0  0  0  0  0  0
    8.5625    3.8135   -5.2317 C   0  0  0  0  0  0  0  0  0  0  0  0
    0.8802   -1.9961   -2.0291 H   0  0  0  0  0  0  0  0  0  0  0  0
    3.0407   -1.1142   -1.2651 H   0  0  0  0  0  0  0  0  0  0  0  0
    3.1853    1.0940   -0.2265 H   0  0  0  0  0  0  0  0  0  0  0  0
   -1.5176   -1.7874   -2.2929 H   0  0  0  0  0  0  0  0  0  0  0  0
   -3.5996   -0.4962   -2.1039 H   0  0  0  0  0  0  0  0  0  0  0  0
   -3.5402    1.8268   -1.2343 H   0  0  0  0  0  0  0  0  0  0  0  0
   -1.4418    2.8312   -0.5290 H   0  0  0  0  0  0  0  0  0  0  0  0
    3.4278    3.1989   -1.7857 H   0  0  0  0  0  0  0  0  0  0  0  0
    2.3838    4.7795    2.0840 H   0  0  0  0  0  0  0  0  0  0  0  0
    4.2678    5.1323    3.5415 H   0  0  0  0  0  0  0  0  0  0  0  0
    5.6791    6.5358    4.9721 H   0  0  0  0  0  0  0  0  0  0  0  0
    7.3413    8.0739    3.9838 H   0  0  0  0  0  0  0  0  0  0  0  0
    6.0122    6.9923    0.0664 H   0  0  0  0  0  0  0  0  0  0  0  0
    8.4106    9.0290    2.0448 H   0  0  0  0  0  0  0  0  0  0  0  0
    7.3185    9.2233    0.6626 H   0  0  0  0  0  0  0  0  0  0  0  0
    8.5079    7.8949    0.6899 H   0  0  0  0  0  0  0  0  0  0  0  0
    6.5239    4.4488   -0.5056 H   0  0  0  0  0  0  0  0  0  0  0  0
    5.7188    5.7472   -1.4433 H   0  0  0  0  0  0  0  0  0  0  0  0
    5.0100    4.1581   -3.1563 H   0  0  0  0  0  0  0  0  0  0  0  0
    5.7842    2.8261   -2.2872 H   0  0  0  0  0  0  0  0  0  0  0  0
    7.9994    3.9522   -2.5365 H   0  0  0  0  0  0  0  0  0  0  0  0
    7.2294    5.3187   -3.3455 H   0  0  0  0  0  0  0  0  0  0  0  0
    6.4192    3.8030   -5.1628 H   0  0  0  0  0  0  0  0  0  0  0  0
    7.1765    2.4264   -4.3592 H   0  0  0  0  0  0  0  0  0  0  0  0
    8.6540    4.8841   -5.4410 H   0  0  0  0  0  0  0  0  0  0  0  0
    8.6061    3.2758   -6.1838 H   0  0  0  0  0  0  0  0  0  0  0  0
    9.4205    3.5055   -4.6264 H   0  0  0  0  0  0  0  0  0  0  0  0
  1  6  2  0  0  0  0
  1  2  1  0  0  0  0
  1 30  1  0  0  0  0
  2  3  2  0  0  0  0
  2 31  1  0  0  0  0
  3  4  1  0  0  0  0
  3 32  1  0  0  0  0
  4  5  2  0  0  0  0
  4 11  1  0  0  0  0
  5 10  1  0  0  0  0
  5  6  1  0  0  0  0
  6  7  1  0  0  0  0
  7  8  2  0  0  0  0
  7 33  1  0  0  0  0
  8  9  1  0  0  0  0
  8 34  1  0  0  0  0
  9 10  2  0  0  0  0
  9 35  1  0  0  0  0
 10 36  1  0  0  0  0
 11 12  2  0  0  0  0
 11 13  1  0  0  0  0
 13 17  1  0  0  0  0
 13 14  2  0  0  0  0
 14 15  1  0  0  0  0
 14 37  1  0  0  0  0
 15 16  1  0  0  0  0
 15 25  1  0  0  0  0
 16 17  2  0  0  0  0
 16 18  1  0  0  0  0
 17 38  1  0  0  0  0
 18 23  2  0  0  0  0
 18 19  1  0  0  0  0
 19 20  2  0  0  0  0
 19 39  1  0  0  0  0
 20 21  1  0  0  0  0
 20 40  1  0  0  0  0
 21 22  2  0  0  0  0
 21 41  1  0  0  0  0
 22 23  1  0  0  0  0
 22 24  1  0  0  0  0
 23 42  1  0  0  0  0
 24 43  1  0  0  0  0
 24 44  1  0  0  0  0
 24 45  1  0  0  0  0
 25 26  1  0  0  0  0
 25 46  1  0  0  0  0
 25 47  1  0  0  0  0
 26 27  1  0  0  0  0
 26 48  1  0  0  0  0
 26 49  1  0  0  0  0
 27 28  1  0  0  0  0
 27 50  1  0  0  0  0
 27 51  1  0  0  0  0
 28 29  1  0  0  0  0
 28 52  1  0  0  0  0
 28 53  1  0  0  0  0
 29 54  1  0  0  0  0
 29 55  1  0  0  0  0
 29 56  1  0  0  0  0
M  END
$$$$
CHEMBL513298_5ZTY
 OpenBabel12022418113D

 49 51  0  0  0  0  0  0  0  0999 V2000
   -2.4437    0.5821   -0.0421 C   0  0  0  0  0  0  0  0  0  0  0  0
   -2.3303   -0.7956   -0.0327 C   0  0  0  0  0  0  0  0  0  0  0  0
   -1.1496   -1.4513    0.0156 N   0  0  0  0  0  0  0  0  0  0  0  0
   -0.0117   -0.7171    0.0303 C   0  0  0  0  0  0  0  0  0  0  0  0
   -0.0383    0.6799    0.0135 C   0  0  0  0  0  0  0  0  0  0  0  0
   -1.2752    1.3315   -0.0113 C   0  0  0  0  0  0  0  0  0  0  0  0
    1.2014    1.4433   -0.0060 C   0  0  0  0  0  0  0  0  0  0  0  0
    2.3871    0.8183   -0.0519 C   0  0  0  0  0  0  0  0  0  0  0  0
    2.4424   -0.6767   -0.0659 C   0  0  0  0  0  0  0  0  0  0  0  0
    3.5402   -1.2348   -0.1606 O   0  0  0  0  0  0  0  0  0  0  0  0
    1.2456   -1.3796    0.0354 N   0  0  0  0  0  0  0  0  0  0  0  0
    1.2642   -2.8425   -0.0390 C   0  0  0  0  0  0  0  0  0  0  0  0
    2.0235   -3.5473    1.0946 C   0  0  0  0  0  0  0  0  0  0  0  0
    1.4666   -3.2689    2.4900 C   0  0  0  0  0  0  0  0  0  0  0  0
    2.2656   -4.0265    3.5434 C   0  0  0  0  0  0  0  0  0  0  0  0
    3.6051    1.6933   -0.1040 C   0  0  0  0  0  0  0  0  0  0  0  0
    3.5273    2.8889   -0.3721 O   0  0  0  0  0  0  0  0  0  0  0  0
    4.7877    1.0670    0.1898 N   0  0  0  0  0  0  0  0  0  0  0  0
    6.0899    1.7131    0.0956 C   0  0  0  0  0  0  0  0  0  0  0  0
    7.0005    1.1743    1.2062 C   0  0  0  0  0  0  0  0  0  0  0  0
    8.4396    1.6613    1.0731 C   0  0  0  0  0  0  0  0  0  0  0  0
    9.0026    1.3543   -0.3092 C   0  0  0  0  0  0  0  0  0  0  0  0
    8.1325    1.9681   -1.4005 C   0  0  0  0  0  0  0  0  0  0  0  0
    6.6855    1.4874   -1.2989 C   0  0  0  0  0  0  0  0  0  0  0  0
   -3.4155    1.0586   -0.0823 H   0  0  0  0  0  0  0  0  0  0  0  0
   -3.2114   -1.4312   -0.0677 H   0  0  0  0  0  0  0  0  0  0  0  0
   -1.3347    2.4167   -0.0234 H   0  0  0  0  0  0  0  0  0  0  0  0
    1.1338    2.5302    0.0018 H   0  0  0  0  0  0  0  0  0  0  0  0
    1.7510   -3.1043   -0.9879 H   0  0  0  0  0  0  0  0  0  0  0  0
    0.2555   -3.2635   -0.0887 H   0  0  0  0  0  0  0  0  0  0  0  0
    3.0854   -3.2792    1.0708 H   0  0  0  0  0  0  0  0  0  0  0  0
    1.9815   -4.6282    0.9051 H   0  0  0  0  0  0  0  0  0  0  0  0
    0.4157   -3.5737    2.5439 H   0  0  0  0  0  0  0  0  0  0  0  0
    1.5114   -2.1978    2.7124 H   0  0  0  0  0  0  0  0  0  0  0  0
    2.2131   -5.1071    3.3738 H   0  0  0  0  0  0  0  0  0  0  0  0
    1.8754   -3.8202    4.5446 H   0  0  0  0  0  0  0  0  0  0  0  0
    3.3199   -3.7302    3.5225 H   0  0  0  0  0  0  0  0  0  0  0  0
    4.7738    0.0478    0.2430 H   0  0  0  0  0  0  0  0  0  0  0  0
    5.9561    2.7924    0.2449 H   0  0  0  0  0  0  0  0  0  0  0  0
    6.9926    0.0763    1.1928 H   0  0  0  0  0  0  0  0  0  0  0  0
    6.6029    1.4718    2.1840 H   0  0  0  0  0  0  0  0  0  0  0  0
    9.0601    1.1830    1.8393 H   0  0  0  0  0  0  0  0  0  0  0  0
    8.4809    2.7417    1.2560 H   0  0  0  0  0  0  0  0  0  0  0  0
    9.0583    0.2683   -0.4511 H   0  0  0  0  0  0  0  0  0  0  0  0
   10.0249    1.7409   -0.3870 H   0  0  0  0  0  0  0  0  0  0  0  0
    8.5394    1.7082   -2.3849 H   0  0  0  0  0  0  0  0  0  0  0  0
    8.1634    3.0626   -1.3208 H   0  0  0  0  0  0  0  0  0  0  0  0
    6.0788    2.0010   -2.0541 H   0  0  0  0  0  0  0  0  0  0  0  0
    6.6490    0.4194   -1.5498 H   0  0  0  0  0  0  0  0  0  0  0  0
  1  6  2  0  0  0  0
  1  2  1  0  0  0  0
  1 25  1  0  0  0  0
  2  3  2  0  0  0  0
  2 26  1  0  0  0  0
  3  4  1  0  0  0  0
  4 11  1  0  0  0  0
  4  5  2  0  0  0  0
  5  6  1  0  0  0  0
  5  7  1  0  0  0  0
  6 27  1  0  0  0  0
  7  8  2  0  0  0  0
  7 28  1  0  0  0  0
  8  9  1  0  0  0  0
  8 16  1  0  0  0  0
  9 10  2  0  0  0  0
  9 11  1  0  0  0  0
 11 12  1  0  0  0  0
 12 13  1  0  0  0  0
 12 29  1  0  0  0  0
 12 30  1  0  0  0  0
 13 14  1  0  0  0  0
 13 31  1  0  0  0  0
 13 32  1  0  0  0  0
 14 15  1  0  0  0  0
 14 33  1  0  0  0  0
 14 34  1  0  0  0  0
 15 35  1  0  0  0  0
 15 36  1  0  0  0  0
 15 37  1  0  0  0  0
 16 17  2  0  0  0  0
 16 18  1  0  0  0  0
 18 19  1  0  0  0  0
 18 38  1  0  0  0  0
 19 24  1  0  0  0  0
 19 20  1  0  0  0  0
 19 39  1  0  0  0  0
 20 21  1  0  0  0  0
 20 40  1  0  0  0  0
 20 41  1  0  0  0  0
 21 22  1  0  0  0  0
 21 42  1  0  0  0  0
 21 43  1  0  0  0  0
 22 23  1  0  0  0  0
 22 44  1  0  0  0  0
 22 45  1  0  0  0  0
 23 24  1  0  0  0  0
 23 46  1  0  0  0  0
 23 47  1  0  0  0  0
 24 48  1  0  0  0  0
 24 49  1  0  0  0  0
M  END
$$$$
CHEMBL3780550_5ZTY
 OpenBabel12022418113D

 70 74  0  0  1  0  0  0  0  0999 V2000
   -2.3548   -0.7510    0.0246 C   0  0  0  0  0  0  0  0  0  0  0  0
   -2.3333    0.6450   -0.0085 C   0  0  0  0  0  0  0  0  0  0  0  0
   -1.1244    1.3439   -0.0066 C   0  0  0  0  0  0  0  0  0  0  0  0
    0.1042    0.6718   -0.0321 C   0  0  0  0  0  0  0  0  0  0  0  0
    0.0995   -0.7309   -0.0465 C   0  0  0  0  0  0  0  0  0  0  0  0
   -1.1241   -1.4321    0.0086 C   0  0  0  0  0  0  0  0  0  0  0  0
    1.3646   -1.4512   -0.1914 C   0  0  0  0  0  0  0  0  0  0  0  0
    2.5434   -0.7998   -0.2766 C   0  0  0  0  0  0  0  0  0  0  0  0
    2.5709    0.6841   -0.1074 C   0  0  0  0  0  0  0  0  0  0  0  0
    3.6620    1.2653   -0.0402 O   0  0  0  0  0  0  0  0  0  0  0  0
    1.3545    1.3675   -0.0597 N   0  0  0  0  0  0  0  0  0  0  0  0
    1.3947    2.8334    0.0133 C   0  0  0  0  0  0  0  0  0  0  0  0
    1.4117    3.3442    1.4561 C   0  0  0  0  0  0  0  0  0  0  0  0
    1.3712    4.8741    1.5449 C   0  0  0  0  0  0  0  0  0  0  0  0
    1.4159    5.3026    3.0145 C   0  0  0  0  0  0  0  0  0  0  0  0
    1.3857    6.8098    3.1917 C   0  0  0  0  0  0  0  0  0  0  0  0
    3.7689   -1.6222   -0.5873 C   0  0  0  0  0  0  0  0  0  0  0  0
    3.6756   -2.8351   -0.7721 O   0  0  0  0  0  0  0  0  0  0  0  0
    4.9686   -0.9385   -0.6688 N   0  0  0  0  0  0  0  0  0  0  0  0
    6.2781   -1.5509   -0.9557 C   0  0  1  0  0  0  0  0  0  0  0  0
    6.6336   -2.5808    0.1404 C   0  0  0  0  0  0  0  0  0  0  0  0
    7.9894   -3.2445   -0.1389 C   0  0  1  0  0  0  0  0  0  0  0  0
    7.9455   -3.9302   -1.5138 C   0  0  0  0  0  0  0  0  0  0  0  0
    7.6670   -2.8937   -2.6159 C   0  0  1  0  0  0  0  0  0  0  0  0
    6.3002   -2.2322   -2.3529 C   0  0  0  0  0  0  0  0  0  0  0  0
    8.7623   -1.8163   -2.5998 C   0  0  0  0  0  0  0  0  0  0  0  0
    8.7881   -1.1228   -1.2277 C   0  0  2  0  0  0  0  0  0  0  0  0
    9.0871   -2.1716   -0.1434 C   0  0  0  0  0  0  0  0  0  0  0  0
    7.4104   -0.4752   -0.9541 C   0  0  0  0  0  0  0  0  0  0  0  0
   -3.6719   -1.5079    0.1025 C   0  0  0  0  0  0  0  0  0  0  0  0
   -4.4662   -1.1009    1.3497 C   0  0  0  0  0  0  0  0  0  0  0  0
   -4.5364   -1.3205   -1.1496 C   0  0  0  0  0  0  0  0  0  0  0  0
   -3.2601    1.2146   -0.0221 H   0  0  0  0  0  0  0  0  0  0  0  0
   -1.1932    2.4249    0.0085 H   0  0  0  0  0  0  0  0  0  0  0  0
   -1.1186   -2.5205    0.0272 H   0  0  0  0  0  0  0  0  0  0  0  0
    1.3138   -2.5344   -0.2899 H   0  0  0  0  0  0  0  0  0  0  0  0
    0.5632    3.2635   -0.5533 H   0  0  0  0  0  0  0  0  0  0  0  0
    2.2945    3.1868   -0.5014 H   0  0  0  0  0  0  0  0  0  0  0  0
    2.3138    2.9773    1.9591 H   0  0  0  0  0  0  0  0  0  0  0  0
    0.5575    2.9337    2.0109 H   0  0  0  0  0  0  0  0  0  0  0  0
    0.4568    5.2557    1.0733 H   0  0  0  0  0  0  0  0  0  0  0  0
    2.2210    5.3067    1.0031 H   0  0  0  0  0  0  0  0  0  0  0  0
    2.3257    4.9095    3.4815 H   0  0  0  0  0  0  0  0  0  0  0  0
    0.5651    4.8657    3.5490 H   0  0  0  0  0  0  0  0  0  0  0  0
    2.2445    7.2826    2.7056 H   0  0  0  0  0  0  0  0  0  0  0  0
    1.4212    7.0589    4.2577 H   0  0  0  0  0  0  0  0  0  0  0  0
    0.4689    7.2390    2.7751 H   0  0  0  0  0  0  0  0  0  0  0  0
    4.9508    0.0463   -0.4023 H   0  0  0  0  0  0  0  0  0  0  0  0
    5.8659   -3.3600    0.2091 H   0  0  0  0  0  0  0  0  0  0  0  0
    6.6542   -2.0838    1.1193 H   0  0  0  0  0  0  0  0  0  0  0  0
    8.1971   -3.9854    0.6398 H   0  0  0  0  0  0  0  0  0  0  0  0
    7.1665   -4.7025   -1.5223 H   0  0  0  0  0  0  0  0  0  0  0  0
    8.8988   -4.4368   -1.7069 H   0  0  0  0  0  0  0  0  0  0  0  0
    7.6551   -3.3898   -3.5931 H   0  0  0  0  0  0  0  0  0  0  0  0
    6.0916   -1.4940   -3.1365 H   0  0  0  0  0  0  0  0  0  0  0  0
    5.5203   -2.9949   -2.4313 H   0  0  0  0  0  0  0  0  0  0  0  0
    8.5755   -1.0778   -3.3891 H   0  0  0  0  0  0  0  0  0  0  0  0
    9.7379   -2.2693   -2.8151 H   0  0  0  0  0  0  0  0  0  0  0  0
    9.5732   -0.3572   -1.2203 H   0  0  0  0  0  0  0  0  0  0  0  0
   10.0621   -2.6406   -0.3274 H   0  0  0  0  0  0  0  0  0  0  0  0
    9.1476   -1.6894    0.8396 H   0  0  0  0  0  0  0  0  0  0  0  0
    7.4396    0.0442    0.0128 H   0  0  0  0  0  0  0  0  0  0  0  0
    7.2117    0.2960   -1.7102 H   0  0  0  0  0  0  0  0  0  0  0  0
   -3.4551   -2.5800    0.1893 H   0  0  0  0  0  0  0  0  0  0  0  0
   -4.7138   -0.0329    1.3505 H   0  0  0  0  0  0  0  0  0  0  0  0
   -3.8950   -1.3095    2.2598 H   0  0  0  0  0  0  0  0  0  0  0  0
   -5.4100   -1.6538    1.4073 H   0  0  0  0  0  0  0  0  0  0  0  0
   -4.8434   -0.2778   -1.2868 H   0  0  0  0  0  0  0  0  0  0  0  0
   -5.4490   -1.9234   -1.0744 H   0  0  0  0  0  0  0  0  0  0  0  0
   -4.0028   -1.6360   -2.0523 H   0  0  0  0  0  0  0  0  0  0  0  0
  1  6  2  0  0  0  0
  1  2  1  0  0  0  0
  1 30  1  0  0  0  0
  2  3  2  0  0  0  0
  2 33  1  0  0  0  0
  3  4  1  0  0  0  0
  3 34  1  0  0  0  0
  4 11  1  0  0  0  0
  4  5  2  0  0  0  0
  5  6  1  0  0  0  0
  5  7  1  0  0  0  0
  6 35  1  0  0  0  0
  7  8  2  0  0  0  0
  7 36  1  0  0  0  0
  8  9  1  0  0  0  0
  8 17  1  0  0  0  0
  9 10  2  0  0  0  0
  9 11  1  0  0  0  0
 11 12  1  0  0  0  0
 12 13  1  0  0  0  0
 12 37  1  0  0  0  0
 12 38  1  0  0  0  0
 13 14  1  0  0  0  0
 13 39  1  0  0  0  0
 13 40  1  0  0  0  0
 14 15  1  0  0  0  0
 14 41  1  0  0  0  0
 14 42  1  0  0  0  0
 15 16  1  0  0  0  0
 15 43  1  0  0  0  0
 15 44  1  0  0  0  0
 16 45  1  0  0  0  0
 16 46  1  0  0  0  0
 16 47  1  0  0  0  0
 17 18  2  0  0  0  0
 17 19  1  0  0  0  0
 19 48  1  0  0  0  0
 20 19  1  1  0  0  0
 20 25  1  0  0  0  0
 20 29  1  0  0  0  0
 20 21  1  0  0  0  0
 21 49  1  0  0  0  0
 21 50  1  0  0  0  0
 22 21  1  0  0  0  0
 22 23  1  0  0  0  0
 22 28  1  0  0  0  0
 22 51  1  1  0  0  0
 23 52  1  0  0  0  0
 23 53  1  0  0  0  0
 24 23  1  0  0  0  0
 24 25  1  0  0  0  0
 24 26  1  0  0  0  0
 24 54  1  6  0  0  0
 25 55  1  0  0  0  0
 25 56  1  0  0  0  0
 26 57  1  0  0  0  0
 26 58  1  0  0  0  0
 27 26  1  0  0  0  0
 27 28  1  0  0  0  0
 27 29  1  0  0  0  0
 27 59  1  1  0  0  0
 28 60  1  0  0  0  0
 28 61  1  0  0  0  0
 29 62  1  0  0  0  0
 29 63  1  0  0  0  0
 30 31  1  0  0  0  0
 30 32  1  0  0  0  0
 30 64  1  0  0  0  0
 31 65  1  0  0  0  0
 31 66  1  0  0  0  0
 31 67  1  0  0  0  0
 32 68  1  0  0  0  0
 32 69  1  0  0  0  0
 32 70  1  0  0  0  0
M  END
$$$$
CHEMBL220413_6PT0
 OpenBabel12022418113D

 57 60  0  0  0  0  0  0  0  0999 V2000
    0.9245   -1.0169   -1.5645 C   0  0  0  0  0  0  0  0  0  0  0  0
    2.1512   -0.5177   -1.1460 C   0  0  0  0  0  0  0  0  0  0  0  0
    2.2233    0.7564   -0.5947 C   0  0  0  0  0  0  0  0  0  0  0  0
    1.0775    1.5698   -0.4932 C   0  0  0  0  0  0  0  0  0  0  0  0
   -0.1888    1.0715   -0.9332 C   0  0  0  0  0  0  0  0  0  0  0  0
   -0.2431   -0.2499   -1.4554 C   0  0  0  0  0  0  0  0  0  0  0  0
   -1.4686   -0.8089   -1.8544 C   0  0  0  0  0  0  0  0  0  0  0  0
   -2.6543   -0.0855   -1.7623 C   0  0  0  0  0  0  0  0  0  0  0  0
   -2.6255    1.2164   -1.2875 C   0  0  0  0  0  0  0  0  0  0  0  0
   -1.4137    1.7869   -0.8882 C   0  0  0  0  0  0  0  0  0  0  0  0
    1.2071    2.8957    0.2058 C   0  0  0  0  0  0  0  0  0  0  0  0
    0.2809    3.3148    0.8949 O   0  0  0  0  0  0  0  0  0  0  0  0
    2.4715    3.6350    0.1628 C   0  0  0  0  0  0  0  0  0  0  0  0
    3.4214    3.6764   -0.8332 C   0  0  0  0  0  0  0  0  0  0  0  0
    4.4873    4.4467   -0.4186 N   0  0  0  0  0  0  0  0  0  0  0  0
    4.2202    4.9620    0.8466 C   0  0  0  0  0  0  0  0  0  0  0  0
    2.9525    4.5025    1.1790 C   0  0  0  0  0  0  0  0  0  0  0  0
    5.0875    5.8312    1.6657 C   0  0  0  0  0  0  0  0  0  0  0  0
    6.4689    5.6392    1.7655 C   0  0  0  0  0  0  0  0  0  0  0  0
    7.2581    6.4566    2.5795 C   0  0  0  0  0  0  0  0  0  0  0  0
    6.6800    7.4599    3.3496 C   0  0  0  0  0  0  0  0  0  0  0  0
    5.3004    7.6393    3.3041 C   0  0  0  0  0  0  0  0  0  0  0  0
    4.5158    6.8388    2.4603 C   0  0  0  0  0  0  0  0  0  0  0  0
    7.5535    8.1489    4.1421 O   0  0  0  0  0  0  0  0  0  0  0  0
    7.1460    9.4577    4.5177 C   0  0  0  0  0  0  0  0  0  0  0  0
    5.6902    4.6959   -1.2019 C   0  0  0  0  0  0  0  0  0  0  0  0
    5.8077    3.9625   -2.5374 C   0  0  0  0  0  0  0  0  0  0  0  0
    7.1584    4.2417   -3.1966 C   0  0  0  0  0  0  0  0  0  0  0  0
    7.2857    3.4631   -4.5028 C   0  0  0  0  0  0  0  0  0  0  0  0
    8.6097    3.7409   -5.1916 C   0  0  0  0  0  0  0  0  0  0  0  0
    0.8842   -2.0272   -1.9681 H   0  0  0  0  0  0  0  0  0  0  0  0
    3.0453   -1.1309   -1.2234 H   0  0  0  0  0  0  0  0  0  0  0  0
    3.1871    1.0898   -0.2180 H   0  0  0  0  0  0  0  0  0  0  0  0
   -1.5116   -1.8286   -2.2326 H   0  0  0  0  0  0  0  0  0  0  0  0
   -3.5956   -0.5388   -2.0602 H   0  0  0  0  0  0  0  0  0  0  0  0
   -3.5440    1.7932   -1.2142 H   0  0  0  0  0  0  0  0  0  0  0  0
   -1.4482    2.8122   -0.5258 H   0  0  0  0  0  0  0  0  0  0  0  0
    3.4245    3.1957   -1.8067 H   0  0  0  0  0  0  0  0  0  0  0  0
    2.4282    4.7230    2.1016 H   0  0  0  0  0  0  0  0  0  0  0  0
    6.9697    4.8267    1.2563 H   0  0  0  0  0  0  0  0  0  0  0  0
    8.3321    6.2934    2.6237 H   0  0  0  0  0  0  0  0  0  0  0  0
    4.7994    8.3680    3.9320 H   0  0  0  0  0  0  0  0  0  0  0  0
    3.4389    6.9977    2.4519 H   0  0  0  0  0  0  0  0  0  0  0  0
    7.9877    9.9284    5.0365 H   0  0  0  0  0  0  0  0  0  0  0  0
    6.3030    9.4301    5.2132 H   0  0  0  0  0  0  0  0  0  0  0  0
    6.9139   10.0629    3.6356 H   0  0  0  0  0  0  0  0  0  0  0  0
    6.5323    4.3583   -0.5977 H   0  0  0  0  0  0  0  0  0  0  0  0
    5.7584    5.7797   -1.3480 H   0  0  0  0  0  0  0  0  0  0  0  0
    4.9979    4.2681   -3.2104 H   0  0  0  0  0  0  0  0  0  0  0  0
    5.7099    2.8818   -2.3725 H   0  0  0  0  0  0  0  0  0  0  0  0
    7.9713    3.9552   -2.5170 H   0  0  0  0  0  0  0  0  0  0  0  0
    7.2613    5.3168   -3.3870 H   0  0  0  0  0  0  0  0  0  0  0  0
    6.4633    3.7320   -5.1760 H   0  0  0  0  0  0  0  0  0  0  0  0
    7.2027    2.3887   -4.3021 H   0  0  0  0  0  0  0  0  0  0  0  0
    8.7123    4.8048   -5.4272 H   0  0  0  0  0  0  0  0  0  0  0  0
    8.6721    3.1764   -6.1269 H   0  0  0  0  0  0  0  0  0  0  0  0
    9.4516    3.4450   -4.5576 H   0  0  0  0  0  0  0  0  0  0  0  0
  1  6  2  0  0  0  0
  1  2  1  0  0  0  0
  1 31  1  0  0  0  0
  2  3  2  0  0  0  0
  2 32  1  0  0  0  0
  3  4  1  0  0  0  0
  3 33  1  0  0  0  0
  4  5  2  0  0  0  0
  4 11  1  0  0  0  0
  5 10  1  0  0  0  0
  5  6  1  0  0  0  0
  6  7  1  0  0  0  0
  7  8  2  0  0  0  0
  7 34  1  0  0  0  0
  8  9  1  0  0  0  0
  8 35  1  0  0  0  0
  9 10  2  0  0  0  0
  9 36  1  0  0  0  0
 10 37  1  0  0  0  0
 11 12  2  0  0  0  0
 11 13  1  0  0  0  0
 13 17  1  0  0  0  0
 13 14  2  0  0  0  0
 14 15  1  0  0  0  0
 14 38  1  0  0  0  0
 15 16  1  0  0  0  0
 15 26  1  0  0  0  0
 16 17  2  0  0  0  0
 16 18  1  0  0  0  0
 17 39  1  0  0  0  0
 18 23  2  0  0  0  0
 18 19  1  0  0  0  0
 19 20  2  0  0  0  0
 19 40  1  0  0  0  0
 20 21  1  0  0  0  0
 20 41  1  0  0  0  0
 21 22  2  0  0  0  0
 21 24  1  0  0  0  0
 22 23  1  0  0  0  0
 22 42  1  0  0  0  0
 23 43  1  0  0  0  0
 24 25  1  0  0  0  0
 25 44  1  0  0  0  0
 25 45  1  0  0  0  0
 25 46  1  0  0  0  0
 26 27  1  0  0  0  0
 26 47  1  0  0  0  0
 26 48  1  0  0  0  0
 27 28  1  0  0  0  0
 27 49  1  0  0  0  0
 27 50  1  0  0  0  0
 28 29  1  0  0  0  0
 28 51  1  0  0  0  0
 28 52  1  0  0  0  0
 29 30  1  0  0  0  0
 29 53  1  0  0  0  0
 29 54  1  0  0  0  0
 30 55  1  0  0  0  0
 30 56  1  0  0  0  0
 30 57  1  0  0  0  0
M  END
$$$$
CHEMBL216857_6PT0
 OpenBabel12022418113D

 53 56  0  0  0  0  0  0  0  0999 V2000
    4.8309    3.5485    7.0576 C   0  0  0  0  0  0  0  0  0  0  0  0
    4.3576    2.4069    6.1740 C   0  0  0  0  0  0  0  0  0  0  0  0
    4.9769    2.4975    4.7808 C   0  0  0  0  0  0  0  0  0  0  0  0
    4.4897    1.3529    3.8921 C   0  0  0  0  0  0  0  0  0  0  0  0
    5.1152    1.3855    2.4949 C   0  0  0  0  0  0  0  0  0  0  0  0
    6.5610    1.2194    2.4607 N   0  0  0  0  0  0  0  0  0  0  0  0
    7.3936    2.2101    1.9640 C   0  0  0  0  0  0  0  0  0  0  0  0
    8.7037    1.8692    2.2264 C   0  0  0  0  0  0  0  0  0  0  0  0
    9.9311    2.6325    1.9745 C   0  0  0  0  0  0  0  0  0  0  0  0
   11.0137    2.0591    1.9298 O   0  0  0  0  0  0  0  0  0  0  0  0
    9.8861    4.1265    1.8591 C   0  0  0  0  0  0  0  0  0  0  0  0
    9.0075    4.8326    2.7022 C   0  0  0  0  0  0  0  0  0  0  0  0
    8.9592    6.2215    2.6808 C   0  0  0  0  0  0  0  0  0  0  0  0
    9.8151    6.9278    1.8430 C   0  0  0  0  0  0  0  0  0  0  0  0
   10.7303    6.2614    1.0154 C   0  0  0  0  0  0  0  0  0  0  0  0
   11.6074    7.0137    0.2155 C   0  0  0  0  0  0  0  0  0  0  0  0
   12.5427    6.3934   -0.6088 C   0  0  0  0  0  0  0  0  0  0  0  0
   12.6022    5.0091   -0.6544 C   0  0  0  0  0  0  0  0  0  0  0  0
   11.7300    4.2466    0.1289 C   0  0  0  0  0  0  0  0  0  0  0  0
   10.7812    4.8414    1.0009 C   0  0  0  0  0  0  0  0  0  0  0  0
    8.6456    0.5678    2.7981 C   0  0  0  0  0  0  0  0  0  0  0  0
    7.3236    0.1588    2.9310 C   0  0  0  0  0  0  0  0  0  0  0  0
    6.8400   -1.1105    3.5164 C   0  0  0  0  0  0  0  0  0  0  0  0
    5.6912   -1.7589    3.0432 C   0  0  0  0  0  0  0  0  0  0  0  0
    5.2222   -2.9376    3.6359 C   0  0  0  0  0  0  0  0  0  0  0  0
    5.9300   -3.5294    4.6767 C   0  0  0  0  0  0  0  0  0  0  0  0
    7.1024   -2.9349    5.1313 C   0  0  0  0  0  0  0  0  0  0  0  0
    7.5399   -1.7363    4.5650 C   0  0  0  0  0  0  0  0  0  0  0  0
    8.6607   -1.1937    5.0677 F   0  0  0  0  0  0  0  0  0  0  0  0
    4.3714    3.4773    8.0483 H   0  0  0  0  0  0  0  0  0  0  0  0
    4.5601    4.5159    6.6233 H   0  0  0  0  0  0  0  0  0  0  0  0
    5.9180    3.5197    7.1824 H   0  0  0  0  0  0  0  0  0  0  0  0
    3.2640    2.4333    6.0998 H   0  0  0  0  0  0  0  0  0  0  0  0
    4.6281    1.4534    6.6413 H   0  0  0  0  0  0  0  0  0  0  0  0
    6.0697    2.4649    4.8738 H   0  0  0  0  0  0  0  0  0  0  0  0
    4.7180    3.4567    4.3178 H   0  0  0  0  0  0  0  0  0  0  0  0
    3.4004    1.4191    3.7842 H   0  0  0  0  0  0  0  0  0  0  0  0
    4.6890    0.4020    4.3928 H   0  0  0  0  0  0  0  0  0  0  0  0
    4.8773    2.3485    2.0251 H   0  0  0  0  0  0  0  0  0  0  0  0
    4.6791    0.6248    1.8424 H   0  0  0  0  0  0  0  0  0  0  0  0
    6.9705    3.0928    1.5019 H   0  0  0  0  0  0  0  0  0  0  0  0
    8.3670    4.3078    3.4075 H   0  0  0  0  0  0  0  0  0  0  0  0
    8.2711    6.7554    3.3317 H   0  0  0  0  0  0  0  0  0  0  0  0
    9.7741    8.0156    1.8535 H   0  0  0  0  0  0  0  0  0  0  0  0
   11.5765    8.1016    0.2365 H   0  0  0  0  0  0  0  0  0  0  0  0
   13.2228    6.9904   -1.2100 H   0  0  0  0  0  0  0  0  0  0  0  0
   13.3307    4.5130   -1.2907 H   0  0  0  0  0  0  0  0  0  0  0  0
   11.8198    3.1646    0.0567 H   0  0  0  0  0  0  0  0  0  0  0  0
    9.5121   -0.0047    3.1089 H   0  0  0  0  0  0  0  0  0  0  0  0
    5.1366   -1.3674    2.1985 H   0  0  0  0  0  0  0  0  0  0  0  0
    4.3052   -3.3962    3.2723 H   0  0  0  0  0  0  0  0  0  0  0  0
    5.5766   -4.4548    5.1245 H   0  0  0  0  0  0  0  0  0  0  0  0
    7.6834   -3.3916    5.9270 H   0  0  0  0  0  0  0  0  0  0  0  0
  1  2  1  0  0  0  0
  1 30  1  0  0  0  0
  1 31  1  0  0  0  0
  1 32  1  0  0  0  0
  2  3  1  0  0  0  0
  2 33  1  0  0  0  0
  2 34  1  0  0  0  0
  3  4  1  0  0  0  0
  3 35  1  0  0  0  0
  3 36  1  0  0  0  0
  4  5  1  0  0  0  0
  4 37  1  0  0  0  0
  4 38  1  0  0  0  0
  5  6  1  0  0  0  0
  5 39  1  0  0  0  0
  5 40  1  0  0  0  0
  6 22  1  0  0  0  0
  6  7  1  0  0  0  0
  7  8  2  0  0  0  0
  7 41  1  0  0  0  0
  8  9  1  0  0  0  0
  8 21  1  0  0  0  0
  9 10  2  0  0  0  0
  9 11  1  0  0  0  0
 11 20  2  0  0  0  0
 11 12  1  0  0  0  0
 12 13  2  0  0  0  0
 12 42  1  0  0  0  0
 13 14  1  0  0  0  0
 13 43  1  0  0  0  0
 14 15  2  0  0  0  0
 14 44  1  0  0  0  0
 15 20  1  0  0  0  0
 15 16  1  0  0  0  0
 16 17  2  0  0  0  0
 16 45  1  0  0  0  0
 17 18  1  0  0  0  0
 17 46  1  0  0  0  0
 18 19  2  0  0  0  0
 18 47  1  0  0  0  0
 19 20  1  0  0  0  0
 19 48  1  0  0  0  0
 21 22  2  0  0  0  0
 21 49  1  0  0  0  0
 22 23  1  0  0  0  0
 23 28  2  0  0  0  0
 23 24  1  0  0  0  0
 24 25  2  0  0  0  0
 24 50  1  0  0  0  0
 25 26  1  0  0  0  0
 25 51  1  0  0  0  0
 26 27  2  0  0  0  0
 26 52  1  0  0  0  0
 27 28  1  0  0  0  0
 27 53  1  0  0  0  0
 28 29  1  0  0  0  0
M  END
$$$$
CHEMBL1223716_5ZTY
 OpenBabel12022418113D

 62 64  0  0  1  0  0  0  0  0999 V2000
    7.6187    1.0651   -1.7458 C   0  0  0  0  0  0  0  0  0  0  0  0
    7.0007    1.1843   -0.3607 C   0  0  0  0  0  0  0  0  0  0  0  0
    5.4742    1.2578   -0.4414 C   0  0  0  0  0  0  0  0  0  0  0  0
    4.7971    1.2946    0.9266 C   0  0  0  0  0  0  0  0  0  0  0  0
    5.1214    2.5444    1.6972 C   0  0  0  0  0  0  0  0  0  0  0  0
    6.0655    2.5834    2.5928 N   0  0  0  0  0  0  0  0  0  0  0  0
    6.1100    3.8930    3.0444 N   0  0  0  0  0  0  0  0  0  0  0  0
    6.9629    4.2652    4.0805 C   0  0  0  0  0  0  0  0  0  0  0  0
    7.0705    5.4160    4.4867 O   0  0  0  0  0  0  0  0  0  0  0  0
    7.6557    3.1931    4.6038 N   0  0  0  0  0  0  0  0  0  0  0  0
    8.6502    3.2485    5.6895 C   0  0  0  0  0  0  0  0  0  0  0  0
    9.7638    4.2483    5.2983 C   0  0  0  0  0  0  0  0  0  0  0  0
    7.9788    3.7155    6.9977 C   0  0  0  0  0  0  0  0  0  0  0  0
    9.2357    1.8398    5.9882 C   0  0  0  0  0  0  0  0  0  0  0  0
    8.4344    0.6847    5.9208 C   0  0  0  0  0  0  0  0  0  0  0  0
    8.9383   -0.5739    6.2769 C   0  0  0  0  0  0  0  0  0  0  0  0
   10.2514   -0.7060    6.7232 C   0  0  0  0  0  0  0  0  0  0  0  0
   11.0603    0.4191    6.8128 C   0  0  0  0  0  0  0  0  0  0  0  0
   10.5598    1.6720    6.4488 C   0  0  0  0  0  0  0  0  0  0  0  0
    5.3402    4.8077    2.1668 C   0  0  0  0  0  0  0  0  0  0  0  0
    4.6711    5.9925    2.8816 C   0  0  0  0  0  0  0  0  0  0  0  0
    6.2866    5.3842    1.0884 C   0  0  0  0  0  0  0  0  0  0  0  0
    4.3321    3.8237    1.5102 C   0  0  2  0  0  0  0  0  0  0  0  0
    2.9660    3.7462    2.1832 C   0  0  0  0  0  0  0  0  0  0  0  0
    1.8857    4.4704    1.6544 C   0  0  0  0  0  0  0  0  0  0  0  0
    0.6503    4.4856    2.3086 C   0  0  0  0  0  0  0  0  0  0  0  0
    0.4724    3.7686    3.4896 C   0  0  0  0  0  0  0  0  0  0  0  0
    1.5290    3.0370    4.0214 C   0  0  0  0  0  0  0  0  0  0  0  0
    2.7675    3.0321    3.3784 C   0  0  0  0  0  0  0  0  0  0  0  0
    8.7106    1.0411   -1.6747 H   0  0  0  0  0  0  0  0  0  0  0  0
    7.3376    1.9162   -2.3743 H   0  0  0  0  0  0  0  0  0  0  0  0
    7.2902    0.1472   -2.2436 H   0  0  0  0  0  0  0  0  0  0  0  0
    7.3994    2.0814    0.1248 H   0  0  0  0  0  0  0  0  0  0  0  0
    7.3043    0.3230    0.2455 H   0  0  0  0  0  0  0  0  0  0  0  0
    5.1048    0.3766   -0.9809 H   0  0  0  0  0  0  0  0  0  0  0  0
    5.1819    2.1368   -1.0281 H   0  0  0  0  0  0  0  0  0  0  0  0
    5.0886    0.4231    1.5224 H   0  0  0  0  0  0  0  0  0  0  0  0
    3.7110    1.2474    0.7897 H   0  0  0  0  0  0  0  0  0  0  0  0
    7.5342    2.3535    4.0505 H   0  0  0  0  0  0  0  0  0  0  0  0
    9.3703    5.2351    5.0396 H   0  0  0  0  0  0  0  0  0  0  0  0
   10.3254    3.8881    4.4282 H   0  0  0  0  0  0  0  0  0  0  0  0
   10.4703    4.4234    6.1160 H   0  0  0  0  0  0  0  0  0  0  0  0
    7.5724    4.7281    6.9125 H   0  0  0  0  0  0  0  0  0  0  0  0
    8.6891    3.7166    7.8336 H   0  0  0  0  0  0  0  0  0  0  0  0
    7.1478    3.0552    7.2759 H   0  0  0  0  0  0  0  0  0  0  0  0
    7.3928    0.7510    5.6169 H   0  0  0  0  0  0  0  0  0  0  0  0
    8.3003   -1.4515    6.2203 H   0  0  0  0  0  0  0  0  0  0  0  0
   10.6344   -1.6789    7.0189 H   0  0  0  0  0  0  0  0  0  0  0  0
   12.0808    0.3272    7.1798 H   0  0  0  0  0  0  0  0  0  0  0  0
   11.2310    2.5166    6.5669 H   0  0  0  0  0  0  0  0  0  0  0  0
    5.3999    6.7612    3.1628 H   0  0  0  0  0  0  0  0  0  0  0  0
    4.1586    5.6852    3.7991 H   0  0  0  0  0  0  0  0  0  0  0  0
    3.9484    6.4898    2.2268 H   0  0  0  0  0  0  0  0  0  0  0  0
    7.0412    6.0402    1.5380 H   0  0  0  0  0  0  0  0  0  0  0  0
    5.7293    5.9699    0.3479 H   0  0  0  0  0  0  0  0  0  0  0  0
    6.8251    4.5936    0.5554 H   0  0  0  0  0  0  0  0  0  0  0  0
    4.2046    4.0117    0.4373 H   0  0  0  0  0  0  0  0  0  0  0  0
    2.0033    5.0577    0.7466 H   0  0  0  0  0  0  0  0  0  0  0  0
   -0.1720    5.0714    1.9051 H   0  0  0  0  0  0  0  0  0  0  0  0
   -0.4849    3.7894    4.0036 H   0  0  0  0  0  0  0  0  0  0  0  0
    1.3999    2.4844    4.9485 H   0  0  0  0  0  0  0  0  0  0  0  0
    3.5813    2.4793    3.8451 H   0  0  0  0  0  0  0  0  0  0  0  0
  1  2  1  0  0  0  0
  1 30  1  0  0  0  0
  1 31  1  0  0  0  0
  1 32  1  0  0  0  0
  2  3  1  0  0  0  0
  2 33  1  0  0  0  0
  2 34  1  0  0  0  0
  3  4  1  0  0  0  0
  3 35  1  0  0  0  0
  3 36  1  0  0  0  0
  4  5  1  0  0  0  0
  4 37  1  0  0  0  0
  4 38  1  0  0  0  0
  5 23  1  0  0  0  0
  5  6  2  0  0  0  0
  6  7  1  0  0  0  0
  7  8  1  0  0  0  0
  7 20  1  0  0  0  0
  8  9  2  0  0  0  0
  8 10  1  0  0  0  0
 10 11  1  0  0  0  0
 10 39  1  0  0  0  0
 11 12  1  0  0  0  0
 11 13  1  0  0  0  0
 11 14  1  0  0  0  0
 12 40  1  0  0  0  0
 12 41  1  0  0  0  0
 12 42  1  0  0  0  0
 13 43  1  0  0  0  0
 13 44  1  0  0  0  0
 13 45  1  0  0  0  0
 14 19  2  0  0  0  0
 14 15  1  0  0  0  0
 15 16  2  0  0  0  0
 15 46  1  0  0  0  0
 16 17  1  0  0  0  0
 16 47  1  0  0  0  0
 17 18  2  0  0  0  0
 17 48  1  0  0  0  0
 18 19  1  0  0  0  0
 18 49  1  0  0  0  0
 19 50  1  0  0  0  0
 20 21  1  0  0  0  0
 20 22  1  0  0  0  0
 20 23  1  0  0  0  0
 21 51  1  0  0  0  0
 21 52  1  0  0  0  0
 21 53  1  0  0  0  0
 22 54  1  0  0  0  0
 22 55  1  0  0  0  0
 22 56  1  0  0  0  0
 23 24  1  0  0  0  0
 23 57  1  6  0  0  0
 24 29  2  0  0  0  0
 24 25  1  0  0  0  0
 25 26  2  0  0  0  0
 25 58  1  0  0  0  0
 26 27  1  0  0  0  0
 26 59  1  0  0  0  0
 27 28  2  0  0  0  0
 27 60  1  0  0  0  0
 28 29  1  0  0  0  0
 28 61  1  0  0  0  0
 29 62  1  0  0  0  0
M  END
$$$$
CHEMBL385653_6PT0
 OpenBabel12022418113D

 56 59  0  0  0  0  0  0  0  0999 V2000
    0.9214   -0.9881   -1.6162 C   0  0  0  0  0  0  0  0  0  0  0  0
    2.1495   -0.4947   -1.1931 C   0  0  0  0  0  0  0  0  0  0  0  0
    2.2238    0.7717   -0.6248 C   0  0  0  0  0  0  0  0  0  0  0  0
    1.0786    1.5837   -0.5123 C   0  0  0  0  0  0  0  0  0  0  0  0
   -0.1892    1.0923   -0.9565 C   0  0  0  0  0  0  0  0  0  0  0  0
   -0.2461   -0.2218   -1.4939 C   0  0  0  0  0  0  0  0  0  0  0  0
   -1.4737   -0.7756   -1.8953 C   0  0  0  0  0  0  0  0  0  0  0  0
   -2.6586   -0.0520   -1.7915 C   0  0  0  0  0  0  0  0  0  0  0  0
   -2.6269    1.2448   -1.3034 C   0  0  0  0  0  0  0  0  0  0  0  0
   -1.4129    1.8092   -0.9011 C   0  0  0  0  0  0  0  0  0  0  0  0
    1.2073    2.8990    0.2065 C   0  0  0  0  0  0  0  0  0  0  0  0
    0.2848    3.2923    0.9164 O   0  0  0  0  0  0  0  0  0  0  0  0
    2.4570    3.6598    0.1527 C   0  0  0  0  0  0  0  0  0  0  0  0
    3.4147    3.7008   -0.8389 C   0  0  0  0  0  0  0  0  0  0  0  0
    4.4671    4.4954   -0.4310 N   0  0  0  0  0  0  0  0  0  0  0  0
    4.1795    5.0366    0.8194 C   0  0  0  0  0  0  0  0  0  0  0  0
    2.9188    4.5555    1.1553 C   0  0  0  0  0  0  0  0  0  0  0  0
    5.0459    5.9026    1.6556 C   0  0  0  0  0  0  0  0  0  0  0  0
    4.9458    5.8308    3.0560 C   0  0  0  0  0  0  0  0  0  0  0  0
    5.7251    6.6426    3.8912 C   0  0  0  0  0  0  0  0  0  0  0  0
    6.6430    7.5394    3.3451 C   0  0  0  0  0  0  0  0  0  0  0  0
    6.7534    7.6238    1.9581 C   0  0  0  0  0  0  0  0  0  0  0  0
    5.9460    6.8351    1.1296 C   0  0  0  0  0  0  0  0  0  0  0  0
    7.4942    8.4166    4.2148 C   0  0  0  0  0  0  0  0  0  0  0  0
    5.6972    4.6895   -1.1864 C   0  0  0  0  0  0  0  0  0  0  0  0
    5.8434    3.9047   -2.4908 C   0  0  0  0  0  0  0  0  0  0  0  0
    7.1666    4.2332   -3.1843 C   0  0  0  0  0  0  0  0  0  0  0  0
    7.2662    3.5035   -4.5220 C   0  0  0  0  0  0  0  0  0  0  0  0
    8.5757    3.8048   -5.2296 C   0  0  0  0  0  0  0  0  0  0  0  0
    0.8795   -1.9928   -2.0332 H   0  0  0  0  0  0  0  0  0  0  0  0
    3.0426   -1.1083   -1.2803 H   0  0  0  0  0  0  0  0  0  0  0  0
    3.1871    1.0994   -0.2418 H   0  0  0  0  0  0  0  0  0  0  0  0
   -1.5193   -1.7910   -2.2846 H   0  0  0  0  0  0  0  0  0  0  0  0
   -3.6014   -0.5008   -2.0920 H   0  0  0  0  0  0  0  0  0  0  0  0
   -3.5443    1.8224   -1.2224 H   0  0  0  0  0  0  0  0  0  0  0  0
   -1.4448    2.8309   -0.5278 H   0  0  0  0  0  0  0  0  0  0  0  0
    3.4333    3.2003   -1.7973 H   0  0  0  0  0  0  0  0  0  0  0  0
    2.3823    4.7858    2.0673 H   0  0  0  0  0  0  0  0  0  0  0  0
    4.2484    5.1406    3.5251 H   0  0  0  0  0  0  0  0  0  0  0  0
    5.5999    6.5671    4.9687 H   0  0  0  0  0  0  0  0  0  0  0  0
    7.4566    8.3200    1.5058 H   0  0  0  0  0  0  0  0  0  0  0  0
    6.0345    7.0047    0.0656 H   0  0  0  0  0  0  0  0  0  0  0  0
    7.2697    8.2726    5.2762 H   0  0  0  0  0  0  0  0  0  0  0  0
    7.3157    9.4700    3.9732 H   0  0  0  0  0  0  0  0  0  0  0  0
    8.5535    8.1875    4.0578 H   0  0  0  0  0  0  0  0  0  0  0  0
    6.5266    4.4485   -0.5114 H   0  0  0  0  0  0  0  0  0  0  0  0
    5.7263    5.7494   -1.4487 H   0  0  0  0  0  0  0  0  0  0  0  0
    5.0175    4.1622   -3.1657 H   0  0  0  0  0  0  0  0  0  0  0  0
    5.7852    2.8275   -2.2955 H   0  0  0  0  0  0  0  0  0  0  0  0
    8.0046    3.9472   -2.5373 H   0  0  0  0  0  0  0  0  0  0  0  0
    7.2408    5.3155   -3.3495 H   0  0  0  0  0  0  0  0  0  0  0  0
    6.4322    3.8014   -5.1685 H   0  0  0  0  0  0  0  0  0  0  0  0
    7.1820    2.4226   -4.3618 H   0  0  0  0  0  0  0  0  0  0  0  0
    8.6717    4.8750   -5.4385 H   0  0  0  0  0  0  0  0  0  0  0  0
    8.6211    3.2667   -6.1814 H   0  0  0  0  0  0  0  0  0  0  0  0
    9.4305    3.4938   -4.6209 H   0  0  0  0  0  0  0  0  0  0  0  0
  1  6  2  0  0  0  0
  1  2  1  0  0  0  0
  1 30  1  0  0  0  0
  2  3  2  0  0  0  0
  2 31  1  0  0  0  0
  3  4  1  0  0  0  0
  3 32  1  0  0  0  0
  4  5  2  0  0  0  0
  4 11  1  0  0  0  0
  5 10  1  0  0  0  0
  5  6  1  0  0  0  0
  6  7  1  0  0  0  0
  7  8  2  0  0  0  0
  7 33  1  0  0  0  0
  8  9  1  0  0  0  0
  8 34  1  0  0  0  0
  9 10  2  0  0  0  0
  9 35  1  0  0  0  0
 10 36  1  0  0  0  0
 11 12  2  0  0  0  0
 11 13  1  0  0  0  0
 13 17  1  0  0  0  0
 13 14  2  0  0  0  0
 14 15  1  0  0  0  0
 14 37  1  0  0  0  0
 15 16  1  0  0  0  0
 15 25  1  0  0  0  0
 16 17  2  0  0  0  0
 16 18  1  0  0  0  0
 17 38  1  0  0  0  0
 18 23  2  0  0  0  0
 18 19  1  0  0  0  0
 19 20  2  0  0  0  0
 19 39  1  0  0  0  0
 20 21  1  0  0  0  0
 20 40  1  0  0  0  0
 21 22  2  0  0  0  0
 21 24  1  0  0  0  0
 22 23  1  0  0  0  0
 22 41  1  0  0  0  0
 23 42  1  0  0  0  0
 24 43  1  0  0  0  0
 24 44  1  0  0  0  0
 24 45  1  0  0  0  0
 25 26  1  0  0  0  0
 25 46  1  0  0  0  0
 25 47  1  0  0  0  0
 26 27  1  0  0  0  0
 26 48  1  0  0  0  0
 26 49  1  0  0  0  0
 27 28  1  0  0  0  0
 27 50  1  0  0  0  0
 27 51  1  0  0  0  0
 28 29  1  0  0  0  0
 28 52  1  0  0  0  0
 28 53  1  0  0  0  0
 29 54  1  0  0  0  0
 29 55  1  0  0  0  0
 29 56  1  0  0  0  0
M  END
$$$$
CHEMBL1223648_5ZTY
 OpenBabel12022418113D

 62 64  0  0  1  0  0  0  0  0999 V2000
    4.6394   -6.6906   -4.2939 C   0  0  0  0  0  0  0  0  0  0  0  0
    4.2516   -5.2232   -4.2317 C   0  0  0  0  0  0  0  0  0  0  0  0
    4.8671   -4.5350   -3.0131 C   0  0  0  0  0  0  0  0  0  0  0  0
    4.4704   -3.0596   -2.9628 C   0  0  0  0  0  0  0  0  0  0  0  0
    5.0631   -2.3355   -1.7511 C   0  0  0  0  0  0  0  0  0  0  0  0
    6.5645   -2.3476   -1.7511 C   0  0  0  0  0  0  0  0  0  0  0  0
    7.2403   -1.7913   -2.7049 N   0  0  0  0  0  0  0  0  0  0  0  0
    8.5715   -1.9792   -2.4130 N   0  0  0  0  0  0  0  0  0  0  0  0
    9.5406   -1.3449   -3.2012 C   0  0  0  0  0  0  0  0  0  0  0  0
   10.7319   -1.4713   -2.9800 O   0  0  0  0  0  0  0  0  0  0  0  0
    9.0169   -0.5453   -4.2053 N   0  0  0  0  0  0  0  0  0  0  0  0
    9.8411    0.2511   -5.1281 C   0  0  0  0  0  0  0  0  0  0  0  0
   10.4254   -0.6144   -6.2564 C   0  0  0  0  0  0  0  0  0  0  0  0
   11.3456    0.0636   -7.2730 C   0  0  0  0  0  0  0  0  0  0  0  0
   10.7058    1.0490   -8.2589 C   0  0  0  0  0  0  0  0  0  0  0  0
    9.2778    0.7358   -8.7181 C   0  0  0  0  0  0  0  0  0  0  0  0
    8.1765    1.5365   -8.0165 C   0  0  0  0  0  0  0  0  0  0  0  0
    7.9101    1.2684   -6.5341 C   0  0  0  0  0  0  0  0  0  0  0  0
    9.0830    1.5115   -5.5827 C   0  0  0  0  0  0  0  0  0  0  0  0
    8.7856   -2.8205   -1.2332 C   0  0  0  0  0  0  0  0  0  0  0  0
    7.3750   -2.9634   -0.6334 C   0  0  1  0  0  0  0  0  0  0  0  0
    7.2103   -2.2067    0.6658 C   0  0  0  0  0  0  0  0  0  0  0  0
    7.6808   -0.8866    0.7759 C   0  0  0  0  0  0  0  0  0  0  0  0
    7.6978   -0.2524    2.0151 C   0  0  0  0  0  0  0  0  0  0  0  0
    7.2176   -0.9097    3.1457 C   0  0  0  0  0  0  0  0  0  0  0  0
    6.6940   -2.1959    3.0384 C   0  0  0  0  0  0  0  0  0  0  0  0
    6.6831   -2.8412    1.8014 C   0  0  0  0  0  0  0  0  0  0  0  0
    4.1948   -7.1639   -5.1748 H   0  0  0  0  0  0  0  0  0  0  0  0
    4.2870   -7.2256   -3.4064 H   0  0  0  0  0  0  0  0  0  0  0  0
    5.7260   -6.8051   -4.3571 H   0  0  0  0  0  0  0  0  0  0  0  0
    3.1586   -5.1430   -4.1944 H   0  0  0  0  0  0  0  0  0  0  0  0
    4.5799   -4.7220   -5.1497 H   0  0  0  0  0  0  0  0  0  0  0  0
    5.9585   -4.6278   -3.0449 H   0  0  0  0  0  0  0  0  0  0  0  0
    4.5226   -5.0335   -2.0988 H   0  0  0  0  0  0  0  0  0  0  0  0
    3.3757   -3.0122   -2.9171 H   0  0  0  0  0  0  0  0  0  0  0  0
    4.7699   -2.5561   -3.8905 H   0  0  0  0  0  0  0  0  0  0  0  0
    4.7008   -2.8051   -0.8322 H   0  0  0  0  0  0  0  0  0  0  0  0
    4.7324   -1.2886   -1.7392 H   0  0  0  0  0  0  0  0  0  0  0  0
    8.0321   -0.6709   -4.4034 H   0  0  0  0  0  0  0  0  0  0  0  0
   10.6798    0.6010   -4.5185 H   0  0  0  0  0  0  0  0  0  0  0  0
    9.6382   -1.1165   -6.8225 H   0  0  0  0  0  0  0  0  0  0  0  0
   11.0001   -1.4255   -5.7879 H   0  0  0  0  0  0  0  0  0  0  0  0
   11.7872   -0.7447   -7.8747 H   0  0  0  0  0  0  0  0  0  0  0  0
   12.1911    0.5467   -6.7664 H   0  0  0  0  0  0  0  0  0  0  0  0
   11.3478    1.0529   -9.1510 H   0  0  0  0  0  0  0  0  0  0  0  0
   10.7701    2.0703   -7.8709 H   0  0  0  0  0  0  0  0  0  0  0  0
    9.0593   -0.3368   -8.6975 H   0  0  0  0  0  0  0  0  0  0  0  0
    9.2175    1.0134   -9.7797 H   0  0  0  0  0  0  0  0  0  0  0  0
    7.2367    1.3306   -8.5474 H   0  0  0  0  0  0  0  0  0  0  0  0
    8.3679    2.6074   -8.1581 H   0  0  0  0  0  0  0  0  0  0  0  0
    7.4921    0.2652   -6.4080 H   0  0  0  0  0  0  0  0  0  0  0  0
    7.1058    1.9577   -6.2373 H   0  0  0  0  0  0  0  0  0  0  0  0
    9.7781    2.2432   -6.0056 H   0  0  0  0  0  0  0  0  0  0  0  0
    8.6871    2.0017   -4.6821 H   0  0  0  0  0  0  0  0  0  0  0  0
    9.5248   -2.3709   -0.5548 H   0  0  0  0  0  0  0  0  0  0  0  0
    9.1817   -3.7913   -1.5623 H   0  0  0  0  0  0  0  0  0  0  0  0
    7.1107   -4.0205   -0.5159 H   0  0  0  0  0  0  0  0  0  0  0  0
    8.0926   -0.3723   -0.0887 H   0  0  0  0  0  0  0  0  0  0  0  0
    8.1210    0.7447    2.1015 H   0  0  0  0  0  0  0  0  0  0  0  0
    7.2700   -0.4244    4.1166 H   0  0  0  0  0  0  0  0  0  0  0  0
    6.3386   -2.7156    3.9247 H   0  0  0  0  0  0  0  0  0  0  0  0
    6.3228   -3.8661    1.7540 H   0  0  0  0  0  0  0  0  0  0  0  0
  1  2  1  0  0  0  0
  1 28  1  0  0  0  0
  1 29  1  0  0  0  0
  1 30  1  0  0  0  0
  2  3  1  0  0  0  0
  2 31  1  0  0  0  0
  2 32  1  0  0  0  0
  3  4  1  0  0  0  0
  3 33  1  0  0  0  0
  3 34  1  0  0  0  0
  4  5  1  0  0  0  0
  4 35  1  0  0  0  0
  4 36  1  0  0  0  0
  5  6  1  0  0  0  0
  5 37  1  0  0  0  0
  5 38  1  0  0  0  0
  6 21  1  0  0  0  0
  6  7  2  0  0  0  0
  7  8  1  0  0  0  0
  8  9  1  0  0  0  0
  8 20  1  0  0  0  0
  9 10  2  0  0  0  0
  9 11  1  0  0  0  0
 11 12  1  0  0  0  0
 11 39  1  0  0  0  0
 12 19  1  0  0  0  0
 12 13  1  0  0  0  0
 12 40  1  0  0  0  0
 13 14  1  0  0  0  0
 13 41  1  0  0  0  0
 13 42  1  0  0  0  0
 14 15  1  0  0  0  0
 14 43  1  0  0  0  0
 14 44  1  0  0  0  0
 15 16  1  0  0  0  0
 15 45  1  0  0  0  0
 15 46  1  0  0  0  0
 16 17  1  0  0  0  0
 16 47  1  0  0  0  0
 16 48  1  0  0  0  0
 17 18  1  0  0  0  0
 17 49  1  0  0  0  0
 17 50  1  0  0  0  0
 18 19  1  0  0  0  0
 18 51  1  0  0  0  0
 18 52  1  0  0  0  0
 19 53  1  0  0  0  0
 19 54  1  0  0  0  0
 20 21  1  0  0  0  0
 20 55  1  0  0  0  0
 20 56  1  0  0  0  0
 21 22  1  0  0  0  0
 21 57  1  1  0  0  0
 22 27  2  0  0  0  0
 22 23  1  0  0  0  0
 23 24  2  0  0  0  0
 23 58  1  0  0  0  0
 24 25  1  0  0  0  0
 24 59  1  0  0  0  0
 25 26  2  0  0  0  0
 25 60  1  0  0  0  0
 26 27  1  0  0  0  0
 26 61  1  0  0  0  0
 27 62  1  0  0  0  0
M  END
$$$$
CHEMBL237010_5ZTY
 OpenBabel12022418113D

 67 71  0  0  1  0  0  0  0  0999 V2000
   16.4565   -1.7948   -3.0859 C   0  0  0  0  0  0  0  0  0  0  0  0
   15.1251   -1.2480   -2.5885 C   0  0  0  0  0  0  0  0  0  0  0  0
   14.5471   -2.1078   -1.4636 C   0  0  0  0  0  0  0  0  0  0  0  0
   13.2104   -1.5604   -0.9414 C   0  0  0  0  0  0  0  0  0  0  0  0
   12.6688   -2.4485    0.1858 C   0  0  0  0  0  0  0  0  0  0  0  0
   11.3795   -1.9704    0.7351 N   0  0  0  0  0  0  0  0  0  0  0  0
   11.3285   -1.3168    1.9653 C   0  0  0  0  0  0  0  0  0  0  0  0
   10.2423   -1.1293    2.7422 C   0  0  0  0  0  0  0  0  0  0  0  0
   10.4317   -0.5591    4.1178 C   0  0  0  0  0  0  0  0  0  0  0  0
   11.4001    0.1506    4.3748 O   0  0  0  0  0  0  0  0  0  0  0  0
    9.4958   -0.9409    5.0597 N   0  0  0  0  0  0  0  0  0  0  0  0
    9.4641   -0.4780    6.4687 C   0  0  2  0  0  0  0  0  0  0  0  0
   10.8392   -0.6565    7.1491 C   0  0  0  0  0  0  0  0  0  0  0  0
    8.3117   -1.1507    7.3172 C   0  0  2  0  0  0  0  0  0  0  0  0
    6.9239   -1.0654    6.6118 C   0  0  0  0  0  0  0  0  0  0  0  0
    5.8171   -1.7080    7.4738 C   0  0  1  0  0  0  0  0  0  0  0  0
    6.1659   -3.1841    7.7276 C   0  0  0  0  0  0  0  0  0  0  0  0
    7.5111   -3.2869    8.4587 C   0  0  2  0  0  0  0  0  0  0  0  0
    7.4173   -2.5379    9.8000 C   0  0  0  0  0  0  0  0  0  0  0  0
    7.0574   -1.0645    9.5552 C   0  0  2  0  0  0  0  0  0  0  0  0
    5.7187   -0.9695    8.8149 C   0  0  0  0  0  0  0  0  0  0  0  0
    8.1527   -0.4169    8.6921 C   0  0  0  0  0  0  0  0  0  0  0  0
    8.6105   -2.6505    7.5921 C   0  0  0  0  0  0  0  0  0  0  0  0
    8.9527   -1.5898    2.1705 C   0  0  0  0  0  0  0  0  0  0  0  0
    7.9174   -1.5756    2.8374 O   0  0  0  0  0  0  0  0  0  0  0  0
    8.9420   -2.0809    0.7602 C   0  0  0  0  0  0  0  0  0  0  0  0
    7.7171   -2.2909    0.1053 C   0  0  0  0  0  0  0  0  0  0  0  0
    7.6968   -2.7898   -1.1941 C   0  0  0  0  0  0  0  0  0  0  0  0
    8.8876   -3.1373   -1.8102 C   0  0  0  0  0  0  0  0  0  0  0  0
   10.1114   -2.9416   -1.1668 C   0  0  0  0  0  0  0  0  0  0  0  0
   10.1714   -2.3501    0.1112 C   0  0  0  0  0  0  0  0  0  0  0  0
    8.8730   -3.7920   -3.4075 Cl  0  0  0  0  0  0  0  0  0  0  0  0
   16.8598   -1.1528   -3.8758 H   0  0  0  0  0  0  0  0  0  0  0  0
   16.3404   -2.8030   -3.4967 H   0  0  0  0  0  0  0  0  0  0  0  0
   17.1928   -1.8370   -2.2767 H   0  0  0  0  0  0  0  0  0  0  0  0
   14.4206   -1.2062   -3.4271 H   0  0  0  0  0  0  0  0  0  0  0  0
   15.2714   -0.2214   -2.2339 H   0  0  0  0  0  0  0  0  0  0  0  0
   15.2669   -2.1573   -0.6373 H   0  0  0  0  0  0  0  0  0  0  0  0
   14.4053   -3.1332   -1.8274 H   0  0  0  0  0  0  0  0  0  0  0  0
   12.4973   -1.4997   -1.7691 H   0  0  0  0  0  0  0  0  0  0  0  0
   13.3464   -0.5370   -0.5710 H   0  0  0  0  0  0  0  0  0  0  0  0
   13.4132   -2.4772    0.9921 H   0  0  0  0  0  0  0  0  0  0  0  0
   12.5813   -3.4925   -0.1445 H   0  0  0  0  0  0  0  0  0  0  0  0
   12.3051   -0.9797    2.3110 H   0  0  0  0  0  0  0  0  0  0  0  0
    8.6491   -1.3532    4.6737 H   0  0  0  0  0  0  0  0  0  0  0  0
    9.2563    0.5990    6.4173 H   0  0  0  0  0  0  0  0  0  0  0  0
   11.3517   -1.5578    6.7971 H   0  0  0  0  0  0  0  0  0  0  0  0
   10.7804   -0.7281    8.2383 H   0  0  0  0  0  0  0  0  0  0  0  0
   11.4859    0.2029    6.9466 H   0  0  0  0  0  0  0  0  0  0  0  0
    6.9377   -1.5872    5.6495 H   0  0  0  0  0  0  0  0  0  0  0  0
    6.6708   -0.0183    6.4033 H   0  0  0  0  0  0  0  0  0  0  0  0
    4.8572   -1.6441    6.9493 H   0  0  0  0  0  0  0  0  0  0  0  0
    6.2175   -3.7268    6.7762 H   0  0  0  0  0  0  0  0  0  0  0  0
    5.3791   -3.6612    8.3245 H   0  0  0  0  0  0  0  0  0  0  0  0
    7.7542   -4.3390    8.6440 H   0  0  0  0  0  0  0  0  0  0  0  0
    8.3740   -2.6090   10.3315 H   0  0  0  0  0  0  0  0  0  0  0  0
    6.6638   -3.0082   10.4397 H   0  0  0  0  0  0  0  0  0  0  0  0
    6.9848   -0.5403   10.5151 H   0  0  0  0  0  0  0  0  0  0  0  0
    4.9175   -1.4000    9.4282 H   0  0  0  0  0  0  0  0  0  0  0  0
    5.4587    0.0825    8.6451 H   0  0  0  0  0  0  0  0  0  0  0  0
    7.9111    0.6411    8.5253 H   0  0  0  0  0  0  0  0  0  0  0  0
    9.0794   -0.4324    9.2731 H   0  0  0  0  0  0  0  0  0  0  0  0
    9.5710   -2.7715    8.1062 H   0  0  0  0  0  0  0  0  0  0  0  0
    8.6905   -3.1964    6.6439 H   0  0  0  0  0  0  0  0  0  0  0  0
    6.7804   -2.0461    0.6075 H   0  0  0  0  0  0  0  0  0  0  0  0
    6.7503   -2.9089   -1.7189 H   0  0  0  0  0  0  0  0  0  0  0  0
   11.0118   -3.2334   -1.6944 H   0  0  0  0  0  0  0  0  0  0  0  0
  1  2  1  0  0  0  0
  1 33  1  0  0  0  0
  1 34  1  0  0  0  0
  1 35  1  0  0  0  0
  2  3  1  0  0  0  0
  2 36  1  0  0  0  0
  2 37  1  0  0  0  0
  3  4  1  0  0  0  0
  3 38  1  0  0  0  0
  3 39  1  0  0  0  0
  4  5  1  0  0  0  0
  4 40  1  0  0  0  0
  4 41  1  0  0  0  0
  5  6  1  0  0  0  0
  5 42  1  0  0  0  0
  5 43  1  0  0  0  0
  6 31  1  0  0  0  0
  6  7  1  0  0  0  0
  7  8  2  0  0  0  0
  7 44  1  0  0  0  0
  8  9  1  0  0  0  0
  8 24  1  0  0  0  0
  9 10  2  0  0  0  0
  9 11  1  0  0  0  0
 11 45  1  0  0  0  0
 12 13  1  0  0  0  0
 12 11  1  0  0  0  0
 12 46  1  6  0  0  0
 13 47  1  0  0  0  0
 13 48  1  0  0  0  0
 13 49  1  0  0  0  0
 14 12  1  6  0  0  0
 14 22  1  0  0  0  0
 14 23  1  0  0  0  0
 14 15  1  0  0  0  0
 15 50  1  0  0  0  0
 15 51  1  0  0  0  0
 16 15  1  0  0  0  0
 16 17  1  0  0  0  0
 16 21  1  0  0  0  0
 16 52  1  6  0  0  0
 17 53  1  0  0  0  0
 17 54  1  0  0  0  0
 18 17  1  0  0  0  0
 18 19  1  0  0  0  0
 18 23  1  0  0  0  0
 18 55  1  1  0  0  0
 19 56  1  0  0  0  0
 19 57  1  0  0  0  0
 20 19  1  0  0  0  0
 20 21  1  0  0  0  0
 20 22  1  0  0  0  0
 20 58  1  1  0  0  0
 21 59  1  0  0  0  0
 21 60  1  0  0  0  0
 22 61  1  0  0  0  0
 22 62  1  0  0  0  0
 23 63  1  0  0  0  0
 23 64  1  0  0  0  0
 24 25  2  0  0  0  0
 24 26  1  0  0  0  0
 26 31  2  0  0  0  0
 26 27  1  0  0  0  0
 27 28  2  0  0  0  0
 27 65  1  0  0  0  0
 28 29  1  0  0  0  0
 28 66  1  0  0  0  0
 29 30  2  0  0  0  0
 29 32  1  0  0  0  0
 30 31  1  0  0  0  0
 30 67  1  0  0  0  0
M  END
$$$$
CHEMBL4781952_8GUT
 OpenBabel12022418113D

 51 53  0  0  0  0  0  0  0  0999 V2000
   -0.7058    1.1297   -0.0868 C   0  0  0  0  0  0  0  0  0  0  0  0
    0.6439    1.1705   -0.0513 C   0  0  0  0  0  0  0  0  0  0  0  0
    1.4267    2.4633   -0.1071 C   0  0  0  0  0  0  0  0  0  0  0  0
    1.3591   -0.0365    0.0935 N   0  0  0  0  0  0  0  0  0  0  0  0
    2.8255   -0.0786    0.0718 C   0  0  0  0  0  0  0  0  0  0  0  0
    3.4467   -0.2601   -1.3051 C   0  0  0  0  0  0  0  0  0  0  0  0
    2.8907   -1.1075   -2.2801 C   0  0  0  0  0  0  0  0  0  0  0  0
    3.5822   -1.3869   -3.4630 C   0  0  0  0  0  0  0  0  0  0  0  0
    4.8327   -0.8241   -3.6772 C   0  0  0  0  0  0  0  0  0  0  0  0
    5.3940    0.0363   -2.7439 C   0  0  0  0  0  0  0  0  0  0  0  0
    4.7035    0.3186   -1.5625 C   0  0  0  0  0  0  0  0  0  0  0  0
    5.5157   -1.1309   -4.7879 F   0  0  0  0  0  0  0  0  0  0  0  0
    0.7140   -1.2629    0.3188 C   0  0  0  0  0  0  0  0  0  0  0  0
    1.3043   -2.2954    0.6334 O   0  0  0  0  0  0  0  0  0  0  0  0
   -0.7608   -1.2981    0.1070 C   0  0  0  0  0  0  0  0  0  0  0  0
   -1.4029   -0.1335   -0.0812 C   0  0  0  0  0  0  0  0  0  0  0  0
   -1.5627   -2.5601    0.0478 C   0  0  0  0  0  0  0  0  0  0  0  0
   -2.6909   -2.5681   -0.4358 O   0  0  0  0  0  0  0  0  0  0  0  0
   -0.9682   -3.6803    0.5750 N   0  0  0  0  0  0  0  0  0  0  0  0
   -1.6056   -4.9972    0.5593 C   0  0  0  0  0  0  0  0  0  0  0  0
   -1.3292   -5.7380   -0.7613 C   0  0  0  0  0  0  0  0  0  0  0  0
   -0.3332   -6.8997   -0.7116 C   0  0  0  0  0  0  0  0  0  0  0  0
   -0.9351   -8.1945   -0.1628 C   0  0  0  0  0  0  0  0  0  0  0  0
   -1.1035   -8.2481    1.3514 C   0  0  0  0  0  0  0  0  0  0  0  0
   -1.9189   -7.1116    1.9576 C   0  0  0  0  0  0  0  0  0  0  0  0
   -1.2363   -5.7510    1.8416 C   0  0  0  0  0  0  0  0  0  0  0  0
   -1.7091    2.5373   -0.1728 Cl  0  0  0  0  0  0  0  0  0  0  0  0
    0.8024    3.3585   -0.1697 H   0  0  0  0  0  0  0  0  0  0  0  0
    2.0841    2.4781   -0.9820 H   0  0  0  0  0  0  0  0  0  0  0  0
    2.0314    2.5851    0.7982 H   0  0  0  0  0  0  0  0  0  0  0  0
    3.1784   -0.9153    0.6871 H   0  0  0  0  0  0  0  0  0  0  0  0
    3.2252    0.8168    0.5561 H   0  0  0  0  0  0  0  0  0  0  0  0
    1.9305   -1.5913   -2.1224 H   0  0  0  0  0  0  0  0  0  0  0  0
    3.1644   -2.0619   -4.2038 H   0  0  0  0  0  0  0  0  0  0  0  0
    6.3757    0.4606   -2.9290 H   0  0  0  0  0  0  0  0  0  0  0  0
    5.1711    0.9702   -0.8272 H   0  0  0  0  0  0  0  0  0  0  0  0
   -2.4760   -0.1177   -0.2585 H   0  0  0  0  0  0  0  0  0  0  0  0
    0.0108   -3.6146    0.8536 H   0  0  0  0  0  0  0  0  0  0  0  0
   -2.6863   -4.8082    0.5933 H   0  0  0  0  0  0  0  0  0  0  0  0
   -0.9808   -5.0234   -1.5182 H   0  0  0  0  0  0  0  0  0  0  0  0
   -2.2836   -6.1223   -1.1459 H   0  0  0  0  0  0  0  0  0  0  0  0
    0.5785   -6.6245   -0.1701 H   0  0  0  0  0  0  0  0  0  0  0  0
   -0.0229   -7.1062   -1.7446 H   0  0  0  0  0  0  0  0  0  0  0  0
   -0.2792   -9.0266   -0.4506 H   0  0  0  0  0  0  0  0  0  0  0  0
   -1.9001   -8.3912   -0.6460 H   0  0  0  0  0  0  0  0  0  0  0  0
   -0.1152   -8.2824    1.8262 H   0  0  0  0  0  0  0  0  0  0  0  0
   -1.5948   -9.1964    1.6049 H   0  0  0  0  0  0  0  0  0  0  0  0
   -2.0509   -7.3351    3.0238 H   0  0  0  0  0  0  0  0  0  0  0  0
   -2.9240   -7.0841    1.5204 H   0  0  0  0  0  0  0  0  0  0  0  0
   -1.5521   -5.1365    2.6956 H   0  0  0  0  0  0  0  0  0  0  0  0
   -0.1478   -5.8497    1.9438 H   0  0  0  0  0  0  0  0  0  0  0  0
  1 16  1  0  0  0  0
  1  2  2  0  0  0  0
  1 27  1  0  0  0  0
  2  3  1  0  0  0  0
  2  4  1  0  0  0  0
  3 28  1  0  0  0  0
  3 29  1  0  0  0  0
  3 30  1  0  0  0  0
  4  5  1  0  0  0  0
  4 13  1  0  0  0  0
  5  6  1  0  0  0  0
  5 31  1  0  0  0  0
  5 32  1  0  0  0  0
  6 11  2  0  0  0  0
  6  7  1  0  0  0  0
  7  8  2  0  0  0  0
  7 33  1  0  0  0  0
  8  9  1  0  0  0  0
  8 34  1  0  0  0  0
  9 10  2  0  0  0  0
  9 12  1  0  0  0  0
 10 11  1  0  0  0  0
 10 35  1  0  0  0  0
 11 36  1  0  0  0  0
 13 14  2  0  0  0  0
 13 15  1  0  0  0  0
 15 16  2  0  0  0  0
 15 17  1  0  0  0  0
 16 37  1  0  0  0  0
 17 18  2  0  0  0  0
 17 19  1  0  0  0  0
 19 20  1  0  0  0  0
 19 38  1  0  0  0  0
 20 26  1  0  0  0  0
 20 21  1  0  0  0  0
 20 39  1  0  0  0  0
 21 22  1  0  0  0  0
 21 40  1  0  0  0  0
 21 41  1  0  0  0  0
 22 23  1  0  0  0  0
 22 42  1  0  0  0  0
 22 43  1  0  0  0  0
 23 24  1  0  0  0  0
 23 44  1  0  0  0  0
 23 45  1  0  0  0  0
 24 25  1  0  0  0  0
 24 46  1  0  0  0  0
 24 47  1  0  0  0  0
 25 26  1  0  0  0  0
 25 48  1  0  0  0  0
 25 49  1  0  0  0  0
 26 50  1  0  0  0  0
 26 51  1  0  0  0  0
M  END
$$$$
CHEMBL517388_5ZTY
 OpenBabel12022418113D

 50 53  0  0  0  0  0  0  0  0999 V2000
    1.2858    0.4003    0.1173 C   0  0  0  0  0  0  0  0  0  0  0  0
    2.7741    0.2526    0.0118 C   0  0  0  0  0  0  0  0  0  0  0  0
    3.7259    1.2678   -0.0819 C   0  0  0  0  0  0  0  0  0  0  0  0
    4.9889    0.6086   -0.0580 C   0  0  0  0  0  0  0  0  0  0  0  0
    4.8175   -0.7727   -0.0986 C   0  0  0  0  0  0  0  0  0  0  0  0
    5.8555   -1.8411   -0.1206 C   0  0  0  0  0  0  0  0  0  0  0  0
    5.7098   -3.0198   -0.8644 C   0  0  0  0  0  0  0  0  0  0  0  0
    6.6855   -4.0218   -0.8605 C   0  0  0  0  0  0  0  0  0  0  0  0
    7.8771   -3.8258   -0.1751 C   0  0  0  0  0  0  0  0  0  0  0  0
    8.0749   -2.6453    0.5291 C   0  0  0  0  0  0  0  0  0  0  0  0
    7.0607   -1.6827    0.5842 C   0  0  0  0  0  0  0  0  0  0  0  0
    3.4348   -0.9735   -0.0455 N   0  0  0  0  0  0  0  0  0  0  0  0
    2.7653   -2.2799    0.0285 C   0  0  0  0  0  0  0  0  0  0  0  0
    2.3393   -2.8636   -1.3106 C   0  0  0  0  0  0  0  0  0  0  0  0
    1.8288   -4.1753   -1.3311 C   0  0  0  0  0  0  0  0  0  0  0  0
    1.4210   -4.7725   -2.5287 C   0  0  0  0  0  0  0  0  0  0  0  0
    1.5218   -4.0667   -3.7237 C   0  0  0  0  0  0  0  0  0  0  0  0
    2.0508   -2.7801   -3.7334 C   0  0  0  0  0  0  0  0  0  0  0  0
    2.4542   -2.1812   -2.5347 C   0  0  0  0  0  0  0  0  0  0  0  0
    0.9838   -4.7838   -5.1920 Cl  0  0  0  0  0  0  0  0  0  0  0  0
    6.1939    1.2107   -0.0156 N   0  0  0  0  0  0  0  0  0  0  0  0
    3.4182    2.7089   -0.1517 C   0  0  0  0  0  0  0  0  0  0  0  0
    2.3732    3.1868    0.2925 O   0  0  0  0  0  0  0  0  0  0  0  0
    4.3938    3.6491   -0.7806 C   0  0  0  0  0  0  0  0  0  0  0  0
    4.5765    4.9182   -0.2141 C   0  0  0  0  0  0  0  0  0  0  0  0
    5.5609    5.7766   -0.7139 C   0  0  0  0  0  0  0  0  0  0  0  0
    6.3652    5.3730   -1.7798 C   0  0  0  0  0  0  0  0  0  0  0  0
    6.1575    4.1318   -2.3783 C   0  0  0  0  0  0  0  0  0  0  0  0
    5.1541    3.2850   -1.9016 C   0  0  0  0  0  0  0  0  0  0  0  0
    0.7602   -0.5314    0.3299 H   0  0  0  0  0  0  0  0  0  0  0  0
    0.8785    0.8013   -0.8162 H   0  0  0  0  0  0  0  0  0  0  0  0
    1.0316    1.0884    0.9307 H   0  0  0  0  0  0  0  0  0  0  0  0
    4.8385   -3.1952   -1.4790 H   0  0  0  0  0  0  0  0  0  0  0  0
    6.5109   -4.9453   -1.4060 H   0  0  0  0  0  0  0  0  0  0  0  0
    8.6511   -4.5878   -0.1977 H   0  0  0  0  0  0  0  0  0  0  0  0
    9.0162   -2.4694    1.0429 H   0  0  0  0  0  0  0  0  0  0  0  0
    7.2332   -0.7966    1.1895 H   0  0  0  0  0  0  0  0  0  0  0  0
    1.8930   -2.1800    0.6804 H   0  0  0  0  0  0  0  0  0  0  0  0
    3.4406   -2.9663    0.5494 H   0  0  0  0  0  0  0  0  0  0  0  0
    1.7518   -4.7489   -0.4087 H   0  0  0  0  0  0  0  0  0  0  0  0
    1.0251   -5.7849   -2.5216 H   0  0  0  0  0  0  0  0  0  0  0  0
    2.1529   -2.2346   -4.6682 H   0  0  0  0  0  0  0  0  0  0  0  0
    2.8770   -1.1793   -2.5828 H   0  0  0  0  0  0  0  0  0  0  0  0
    6.3240    2.2133    0.0711 H   0  0  0  0  0  0  0  0  0  0  0  0
    7.0313    0.7345   -0.3333 H   0  0  0  0  0  0  0  0  0  0  0  0
    3.9668    5.2348    0.6305 H   0  0  0  0  0  0  0  0  0  0  0  0
    5.7094    6.7556   -0.2639 H   0  0  0  0  0  0  0  0  0  0  0  0
    7.1508    6.0289   -2.1486 H   0  0  0  0  0  0  0  0  0  0  0  0
    6.7849    3.8149   -3.2080 H   0  0  0  0  0  0  0  0  0  0  0  0
    5.0094    2.3184   -2.3784 H   0  0  0  0  0  0  0  0  0  0  0  0
  1  2  1  0  0  0  0
  1 30  1  0  0  0  0
  1 31  1  0  0  0  0
  1 32  1  0  0  0  0
  2 12  1  0  0  0  0
  2  3  2  0  0  0  0
  3  4  1  0  0  0  0
  3 22  1  0  0  0  0
  4  5  2  0  0  0  0
  4 21  1  0  0  0  0
  5  6  1  0  0  0  0
  5 12  1  0  0  0  0
  6 11  2  0  0  0  0
  6  7  1  0  0  0  0
  7  8  2  0  0  0  0
  7 33  1  0  0  0  0
  8  9  1  0  0  0  0
  8 34  1  0  0  0  0
  9 10  2  0  0  0  0
  9 35  1  0  0  0  0
 10 11  1  0  0  0  0
 10 36  1  0  0  0  0
 11 37  1  0  0  0  0
 12 13  1  0  0  0  0
 13 14  1  0  0  0  0
 13 38  1  0  0  0  0
 13 39  1  0  0  0  0
 14 19  2  0  0  0  0
 14 15  1  0  0  0  0
 15 16  2  0  0  0  0
 15 40  1  0  0  0  0
 16 17  1  0  0  0  0
 16 41  1  0  0  0  0
 17 18  2  0  0  0  0
 17 20  1  0  0  0  0
 18 19  1  0  0  0  0
 18 42  1  0  0  0  0
 19 43  1  0  0  0  0
 21 44  1  0  0  0  0
 21 45  1  0  0  0  0
 22 23  2  0  0  0  0
 22 24  1  0  0  0  0
 24 29  2  0  0  0  0
 24 25  1  0  0  0  0
 25 26  2  0  0  0  0
 25 46  1  0  0  0  0
 26 27  1  0  0  0  0
 26 47  1  0  0  0  0
 27 28  2  0  0  0  0
 27 48  1  0  0  0  0
 28 29  1  0  0  0  0
 28 49  1  0  0  0  0
 29 50  1  0  0  0  0
M  END
$$$$
CHEMBL2381810_8GUR
 OpenBabel12022418113D

 62 64  0  0  0  0  0  0  0  0999 V2000
    1.0033    0.1947   -0.0386 C   0  0  0  0  0  0  0  0  0  0  0  0
    0.4498    0.1507    1.3896 C   0  0  0  0  0  0  0  0  0  0  0  0
   -1.0825    0.1214    1.4042 C   0  0  0  0  0  0  0  0  0  0  0  0
   -1.6218    0.1002    2.8360 C   0  0  0  0  0  0  0  0  0  0  0  0
   -3.1423    0.0816    2.8723 C   0  0  0  0  0  0  0  0  0  0  0  0
    2.4772    0.1388   -0.0394 N   0  0  0  0  0  0  0  0  0  0  0  0
    3.2695    1.2837   -0.0787 C   0  0  0  0  0  0  0  0  0  0  0  0
    4.6187    1.3037   -0.1121 C   0  0  0  0  0  0  0  0  0  0  0  0
    5.3323   -0.0031   -0.0997 C   0  0  0  0  0  0  0  0  0  0  0  0
    6.5544   -0.1174   -0.1313 O   0  0  0  0  0  0  0  0  0  0  0  0
    4.4816   -1.1245   -0.0510 N   0  0  0  0  0  0  0  0  0  0  0  0
    3.0978   -1.0774   -0.0241 C   0  0  0  0  0  0  0  0  0  0  0  0
    2.6661   -2.3798    0.0048 C   0  0  0  0  0  0  0  0  0  0  0  0
    3.8429   -3.1708   -0.0019 C   0  0  0  0  0  0  0  0  0  0  0  0
    3.9391   -4.6917   -0.0157 C   0  0  0  0  0  0  0  0  0  0  0  0
    3.9373   -5.1929   -1.4730 C   0  0  0  0  0  0  0  0  0  0  0  0
    5.2261   -5.1827    0.6790 C   0  0  0  0  0  0  0  0  0  0  0  0
    2.7428   -5.3361    0.7196 C   0  0  0  0  0  0  0  0  0  0  0  0
    4.9454   -2.4053   -0.0456 N   0  0  0  0  0  0  0  0  0  0  0  0
    5.2968    2.6314   -0.1802 C   0  0  0  0  0  0  0  0  0  0  0  0
    4.6382    3.6683   -0.2336 O   0  0  0  0  0  0  0  0  0  0  0  0
    6.6731    2.6311   -0.1847 N   0  0  0  0  0  0  0  0  0  0  0  0
    7.4384    3.8676   -0.3295 C   0  0  0  0  0  0  0  0  0  0  0  0
    8.7895    3.7919    0.3930 C   0  0  0  0  0  0  0  0  0  0  0  0
    9.5653    5.1045    0.2544 C   0  0  0  0  0  0  0  0  0  0  0  0
    9.7382    5.5187   -1.2056 C   0  0  0  0  0  0  0  0  0  0  0  0
    8.4052    5.5479   -1.9490 C   0  0  0  0  0  0  0  0  0  0  0  0
    7.6491    4.2254   -1.8075 C   0  0  0  0  0  0  0  0  0  0  0  0
    0.6635    1.1117   -0.5378 H   0  0  0  0  0  0  0  0  0  0  0  0
    0.5882   -0.6320   -0.6302 H   0  0  0  0  0  0  0  0  0  0  0  0
    0.8079    1.0250    1.9467 H   0  0  0  0  0  0  0  0  0  0  0  0
    0.8311   -0.7341    1.9139 H   0  0  0  0  0  0  0  0  0  0  0  0
   -1.4388   -0.7655    0.8656 H   0  0  0  0  0  0  0  0  0  0  0  0
   -1.4742    0.9991    0.8761 H   0  0  0  0  0  0  0  0  0  0  0  0
   -1.2629    0.9818    3.3798 H   0  0  0  0  0  0  0  0  0  0  0  0
   -1.2413   -0.7827    3.3629 H   0  0  0  0  0  0  0  0  0  0  0  0
   -3.5591    0.9667    2.3814 H   0  0  0  0  0  0  0  0  0  0  0  0
   -3.4954    0.0722    3.9087 H   0  0  0  0  0  0  0  0  0  0  0  0
   -3.5377   -0.8082    2.3725 H   0  0  0  0  0  0  0  0  0  0  0  0
    2.6934    2.2079   -0.0905 H   0  0  0  0  0  0  0  0  0  0  0  0
    1.6423   -2.7239    0.0218 H   0  0  0  0  0  0  0  0  0  0  0  0
    4.7851   -4.7868   -2.0361 H   0  0  0  0  0  0  0  0  0  0  0  0
    3.0220   -4.8909   -1.9963 H   0  0  0  0  0  0  0  0  0  0  0  0
    3.9990   -6.2865   -1.5174 H   0  0  0  0  0  0  0  0  0  0  0  0
    6.1260   -4.8147    0.1730 H   0  0  0  0  0  0  0  0  0  0  0  0
    5.2807   -6.2775    0.6849 H   0  0  0  0  0  0  0  0  0  0  0  0
    5.2676   -4.8407    1.7200 H   0  0  0  0  0  0  0  0  0  0  0  0
    1.7887   -5.0906    0.2389 H   0  0  0  0  0  0  0  0  0  0  0  0
    2.6861   -4.9971    1.7607 H   0  0  0  0  0  0  0  0  0  0  0  0
    2.8246   -6.4294    0.7284 H   0  0  0  0  0  0  0  0  0  0  0  0
    7.1647    1.7384   -0.2247 H   0  0  0  0  0  0  0  0  0  0  0  0
    6.8517    4.6703    0.1360 H   0  0  0  0  0  0  0  0  0  0  0  0
    9.3904    2.9682   -0.0125 H   0  0  0  0  0  0  0  0  0  0  0  0
    8.6352    3.5735    1.4564 H   0  0  0  0  0  0  0  0  0  0  0  0
   10.5497    5.0070    0.7265 H   0  0  0  0  0  0  0  0  0  0  0  0
    9.0336    5.8993    0.7927 H   0  0  0  0  0  0  0  0  0  0  0  0
   10.4183    4.8180   -1.7051 H   0  0  0  0  0  0  0  0  0  0  0  0
   10.2091    6.5074   -1.2552 H   0  0  0  0  0  0  0  0  0  0  0  0
    8.5796    5.7654   -3.0089 H   0  0  0  0  0  0  0  0  0  0  0  0
    7.7873    6.3647   -1.5548 H   0  0  0  0  0  0  0  0  0  0  0  0
    6.6859    4.3019   -2.3243 H   0  0  0  0  0  0  0  0  0  0  0  0
    8.2122    3.4288   -2.3092 H   0  0  0  0  0  0  0  0  0  0  0  0
  1  2  1  0  0  0  0
  1  6  1  0  0  0  0
  1 29  1  0  0  0  0
  1 30  1  0  0  0  0
  2  3  1  0  0  0  0
  2 31  1  0  0  0  0
  2 32  1  0  0  0  0
  3  4  1  0  0  0  0
  3 33  1  0  0  0  0
  3 34  1  0  0  0  0
  4  5  1  0  0  0  0
  4 35  1  0  0  0  0
  4 36  1  0  0  0  0
  5 37  1  0  0  0  0
  5 38  1  0  0  0  0
  5 39  1  0  0  0  0
  6 12  1  0  0  0  0
  6  7  1  0  0  0  0
  7  8  2  0  0  0  0
  7 40  1  0  0  0  0
  8  9  1  0  0  0  0
  8 20  1  0  0  0  0
  9 10  2  0  0  0  0
  9 11  1  0  0  0  0
 11 19  1  0  0  0  0
 11 12  1  0  0  0  0
 12 13  2  0  0  0  0
 13 14  1  0  0  0  0
 13 41  1  0  0  0  0
 14 15  1  0  0  0  0
 14 19  2  0  0  0  0
 15 16  1  0  0  0  0
 15 17  1  0  0  0  0
 15 18  1  0  0  0  0
 16 42  1  0  0  0  0
 16 43  1  0  0  0  0
 16 44  1  0  0  0  0
 17 45  1  0  0  0  0
 17 46  1  0  0  0  0
 17 47  1  0  0  0  0
 18 48  1  0  0  0  0
 18 49  1  0  0  0  0
 18 50  1  0  0  0  0
 20 21  2  0  0  0  0
 20 22  1  0  0  0  0
 22 23  1  0  0  0  0
 22 51  1  0  0  0  0
 23 28  1  0  0  0  0
 23 24  1  0  0  0  0
 23 52  1  0  0  0  0
 24 25  1  0  0  0  0
 24 53  1  0  0  0  0
 24 54  1  0  0  0  0
 25 26  1  0  0  0  0
 25 55  1  0  0  0  0
 25 56  1  0  0  0  0
 26 27  1  0  0  0  0
 26 57  1  0  0  0  0
 26 58  1  0  0  0  0
 27 28  1  0  0  0  0
 27 59  1  0  0  0  0
 27 60  1  0  0  0  0
 28 61  1  0  0  0  0
 28 62  1  0  0  0  0
M  END
$$$$
CHEMBL511253_5ZTY
 OpenBabel12022418113D

 53 56  0  0  0  0  0  0  0  0999 V2000
    2.4819   -1.3146    0.6247 O   0  0  0  0  0  0  0  0  0  0  0  0
    2.0917   -0.3530   -0.0279 C   0  0  0  0  0  0  0  0  0  0  0  0
    2.6030   -0.0810   -1.4273 C   0  0  0  0  0  0  0  0  0  0  0  0
    3.5002   -0.9317   -1.9452 C   0  0  0  0  0  0  0  0  0  0  0  0
    4.2334   -0.5943   -3.1670 C   0  0  0  0  0  0  0  0  0  0  0  0
    5.2884   -1.3887   -3.6213 C   0  0  0  0  0  0  0  0  0  0  0  0
    6.0306   -0.9849   -4.7279 C   0  0  0  0  0  0  0  0  0  0  0  0
    5.6677    0.1885   -5.3652 C   0  0  0  0  0  0  0  0  0  0  0  0
    4.6536    0.9748   -4.9523 N   0  0  0  0  0  0  0  0  0  0  0  0
    3.9675    0.5972   -3.8429 C   0  0  0  0  0  0  0  0  0  0  0  0
    2.9539    1.4463   -3.3463 N   0  0  0  0  0  0  0  0  0  0  0  0
    2.6651    2.6721   -4.0850 C   0  0  0  0  0  0  0  0  0  0  0  0
    3.4330    3.8974   -3.6343 C   0  0  0  0  0  0  0  0  0  0  0  0
    3.1587    4.5144   -2.4084 C   0  0  0  0  0  0  0  0  0  0  0  0
    3.7031    5.7664   -2.0963 C   0  0  0  0  0  0  0  0  0  0  0  0
    4.5476    6.4006   -2.9975 C   0  0  0  0  0  0  0  0  0  0  0  0
    4.8901    5.7704   -4.1912 C   0  0  0  0  0  0  0  0  0  0  0  0
    4.3476    4.5219   -4.5089 C   0  0  0  0  0  0  0  0  0  0  0  0
    2.2118    1.1312   -2.2200 C   0  0  0  0  0  0  0  0  0  0  0  0
    1.2481    1.8098   -1.8413 O   0  0  0  0  0  0  0  0  0  0  0  0
    1.2099    0.5818    0.4749 N   0  0  0  0  0  0  0  0  0  0  0  0
    0.6667    0.6037    1.8375 C   0  0  0  0  0  0  0  0  0  0  0  0
    0.0272    1.9731    2.1337 C   0  0  0  0  0  0  0  0  0  0  0  0
   -1.3261    2.1565    1.4412 C   0  0  0  0  0  0  0  0  0  0  0  0
   -2.4891    1.8144    2.3682 C   0  0  0  0  0  0  0  0  0  0  0  0
   -2.5956    0.3466    2.7860 C   0  0  0  0  0  0  0  0  0  0  0  0
   -1.3061   -0.3675    3.2091 C   0  0  0  0  0  0  0  0  0  0  0  0
   -0.3015   -0.5685    2.0685 C   0  0  0  0  0  0  0  0  0  0  0  0
    3.7670   -1.8565   -1.4362 H   0  0  0  0  0  0  0  0  0  0  0  0
    5.5682   -2.3010   -3.1003 H   0  0  0  0  0  0  0  0  0  0  0  0
    6.8821   -1.5594   -5.0770 H   0  0  0  0  0  0  0  0  0  0  0  0
    6.2083    0.5442   -6.2373 H   0  0  0  0  0  0  0  0  0  0  0  0
    1.5976    2.9086   -3.9818 H   0  0  0  0  0  0  0  0  0  0  0  0
    2.8018    2.5074   -5.1604 H   0  0  0  0  0  0  0  0  0  0  0  0
    2.4780    4.0523   -1.6999 H   0  0  0  0  0  0  0  0  0  0  0  0
    3.4331    6.2567   -1.1638 H   0  0  0  0  0  0  0  0  0  0  0  0
    4.9296    7.3981   -2.7797 H   0  0  0  0  0  0  0  0  0  0  0  0
    5.5606    6.2611   -4.8913 H   0  0  0  0  0  0  0  0  0  0  0  0
    4.6078    4.0552   -5.4528 H   0  0  0  0  0  0  0  0  0  0  0  0
    0.8761    1.2970   -0.1783 H   0  0  0  0  0  0  0  0  0  0  0  0
    1.5247    0.4868    2.5152 H   0  0  0  0  0  0  0  0  0  0  0  0
    0.7074    2.7767    1.8272 H   0  0  0  0  0  0  0  0  0  0  0  0
   -0.0945    2.0960    3.2183 H   0  0  0  0  0  0  0  0  0  0  0  0
   -1.3932    1.5696    0.5177 H   0  0  0  0  0  0  0  0  0  0  0  0
   -1.4267    3.2075    1.1440 H   0  0  0  0  0  0  0  0  0  0  0  0
   -3.4266    2.0958    1.8704 H   0  0  0  0  0  0  0  0  0  0  0  0
   -2.4304    2.4440    3.2651 H   0  0  0  0  0  0  0  0  0  0  0  0
   -3.0586   -0.2187    1.9680 H   0  0  0  0  0  0  0  0  0  0  0  0
   -3.3041    0.2944    3.6234 H   0  0  0  0  0  0  0  0  0  0  0  0
   -1.5987   -1.3639    3.5659 H   0  0  0  0  0  0  0  0  0  0  0  0
   -0.8439    0.1322    4.0672 H   0  0  0  0  0  0  0  0  0  0  0  0
    0.3029   -1.4573    2.2904 H   0  0  0  0  0  0  0  0  0  0  0  0
   -0.8401   -0.8015    1.1422 H   0  0  0  0  0  0  0  0  0  0  0  0
  1  2  2  0  0  0  0
  2  3  1  0  0  0  0
  2 21  1  0  0  0  0
  3 19  1  0  0  0  0
  3  4  2  0  0  0  0
  4  5  1  0  0  0  0
  4 29  1  0  0  0  0
  5 10  2  0  0  0  0
  5  6  1  0  0  0  0
  6  7  2  0  0  0  0
  6 30  1  0  0  0  0
  7  8  1  0  0  0  0
  7 31  1  0  0  0  0
  8  9  2  0  0  0  0
  8 32  1  0  0  0  0
  9 10  1  0  0  0  0
 10 11  1  0  0  0  0
 11 12  1  0  0  0  0
 11 19  1  0  0  0  0
 12 13  1  0  0  0  0
 12 33  1  0  0  0  0
 12 34  1  0  0  0  0
 13 18  2  0  0  0  0
 13 14  1  0  0  0  0
 14 15  2  0  0  0  0
 14 35  1  0  0  0  0
 15 16  1  0  0  0  0
 15 36  1  0  0  0  0
 16 17  2  0  0  0  0
 16 37  1  0  0  0  0
 17 18  1  0  0  0  0
 17 38  1  0  0  0  0
 18 39  1  0  0  0  0
 19 20  2  0  0  0  0
 21 22  1  0  0  0  0
 21 40  1  0  0  0  0
 22 28  1  0  0  0  0
 22 23  1  0  0  0  0
 22 41  1  0  0  0  0
 23 24  1  0  0  0  0
 23 42  1  0  0  0  0
 23 43  1  0  0  0  0
 24 25  1  0  0  0  0
 24 44  1  0  0  0  0
 24 45  1  0  0  0  0
 25 26  1  0  0  0  0
 25 46  1  0  0  0  0
 25 47  1  0  0  0  0
 26 27  1  0  0  0  0
 26 48  1  0  0  0  0
 26 49  1  0  0  0  0
 27 28  1  0  0  0  0
 27 50  1  0  0  0  0
 27 51  1  0  0  0  0
 28 52  1  0  0  0  0
 28 53  1  0  0  0  0
M  END
$$$$
CHEMBL1224688_5ZTY
 OpenBabel12022418113D

 59 61  0  0  1  0  0  0  0  0999 V2000
    4.7852    2.3492    7.6172 C   0  0  0  0  0  0  0  0  0  0  0  0
    4.3622    1.3885    6.5170 C   0  0  0  0  0  0  0  0  0  0  0  0
    4.9729    1.7809    5.1718 C   0  0  0  0  0  0  0  0  0  0  0  0
    4.5658    0.8028    4.0662 C   0  0  0  0  0  0  0  0  0  0  0  0
    5.1391    1.1863    2.7029 C   0  0  0  0  0  0  0  0  0  0  0  0
    6.6432    1.1356    2.6857 C   0  0  0  0  0  0  0  0  0  0  0  0
    7.3080    0.0422    2.9173 N   0  0  0  0  0  0  0  0  0  0  0  0
    8.6380    0.3920    2.8688 N   0  0  0  0  0  0  0  0  0  0  0  0
    9.6635   -0.5215    3.0652 C   0  0  0  0  0  0  0  0  0  0  0  0
   10.8537   -0.2248    3.0396 O   0  0  0  0  0  0  0  0  0  0  0  0
    9.1966   -1.7918    3.2930 N   0  0  0  0  0  0  0  0  0  0  0  0
   10.0694   -2.9328    3.4290 C   0  0  0  0  0  0  0  0  0  0  0  0
    9.3377   -4.2667    3.6557 C   0  0  0  0  0  0  0  0  0  0  0  0
    8.5540   -4.2815    4.9784 C   0  0  0  0  0  0  0  0  0  0  0  0
    7.8004   -5.5958    5.1813 C   0  0  0  0  0  0  0  0  0  0  0  0
    6.8978   -5.9139    3.9942 C   0  0  0  0  0  0  0  0  0  0  0  0
    7.6918   -5.9479    2.6931 C   0  0  0  0  0  0  0  0  0  0  0  0
    8.4400   -4.6368    2.4627 C   0  0  0  0  0  0  0  0  0  0  0  0
    8.8577    1.8156    2.6850 C   0  0  0  0  0  0  0  0  0  0  0  0
    7.4677    2.3668    2.3886 C   0  0  1  0  0  0  0  0  0  0  0  0
    7.2869    2.8528    0.9641 C   0  0  0  0  0  0  0  0  0  0  0  0
    7.6239    2.0419   -0.1292 C   0  0  0  0  0  0  0  0  0  0  0  0
    7.4712    2.5081   -1.4364 C   0  0  0  0  0  0  0  0  0  0  0  0
    6.9694    3.7850   -1.6667 C   0  0  0  0  0  0  0  0  0  0  0  0
    6.6136    4.5970   -0.5908 C   0  0  0  0  0  0  0  0  0  0  0  0
    6.7711    4.1342    0.7184 C   0  0  0  0  0  0  0  0  0  0  0  0
    4.3428    2.0511    8.5727 H   0  0  0  0  0  0  0  0  0  0  0  0
    4.4576    3.3695    7.3938 H   0  0  0  0  0  0  0  0  0  0  0  0
    5.8737    2.3559    7.7343 H   0  0  0  0  0  0  0  0  0  0  0  0
    3.2686    1.3819    6.4437 H   0  0  0  0  0  0  0  0  0  0  0  0
    4.6762    0.3733    6.7868 H   0  0  0  0  0  0  0  0  0  0  0  0
    6.0648    1.8030    5.2682 H   0  0  0  0  0  0  0  0  0  0  0  0
    4.6516    2.7944    4.9026 H   0  0  0  0  0  0  0  0  0  0  0  0
    3.4718    0.7797    3.9892 H   0  0  0  0  0  0  0  0  0  0  0  0
    4.8873   -0.2104    4.3361 H   0  0  0  0  0  0  0  0  0  0  0  0
    4.7998    2.1880    2.4198 H   0  0  0  0  0  0  0  0  0  0  0  0
    4.7748    0.4869    1.9420 H   0  0  0  0  0  0  0  0  0  0  0  0
    8.1993   -1.8783    3.1301 H   0  0  0  0  0  0  0  0  0  0  0  0
   10.7501   -2.7284    4.2644 H   0  0  0  0  0  0  0  0  0  0  0  0
   10.6857   -2.9908    2.5240 H   0  0  0  0  0  0  0  0  0  0  0  0
   10.1140   -5.0416    3.7312 H   0  0  0  0  0  0  0  0  0  0  0  0
    7.8355   -3.4535    5.0058 H   0  0  0  0  0  0  0  0  0  0  0  0
    9.2434   -4.1321    5.8183 H   0  0  0  0  0  0  0  0  0  0  0  0
    7.1999   -5.5389    6.0962 H   0  0  0  0  0  0  0  0  0  0  0  0
    8.5189   -6.4130    5.3221 H   0  0  0  0  0  0  0  0  0  0  0  0
    6.1066   -5.1573    3.9221 H   0  0  0  0  0  0  0  0  0  0  0  0
    6.4040   -6.8794    4.1515 H   0  0  0  0  0  0  0  0  0  0  0  0
    7.0144   -6.1364    1.8526 H   0  0  0  0  0  0  0  0  0  0  0  0
    8.4065   -6.7795    2.7206 H   0  0  0  0  0  0  0  0  0  0  0  0
    9.0494   -4.7249    1.5552 H   0  0  0  0  0  0  0  0  0  0  0  0
    7.7049   -3.8456    2.2755 H   0  0  0  0  0  0  0  0  0  0  0  0
    9.6037    1.9858    1.9016 H   0  0  0  0  0  0  0  0  0  0  0  0
    9.2561    2.2155    3.6244 H   0  0  0  0  0  0  0  0  0  0  0  0
    7.2099    3.1564    3.1045 H   0  0  0  0  0  0  0  0  0  0  0  0
    8.0160    1.0382    0.0216 H   0  0  0  0  0  0  0  0  0  0  0  0
    7.7492    1.8717   -2.2734 H   0  0  0  0  0  0  0  0  0  0  0  0
    6.8556    4.1483   -2.6843 H   0  0  0  0  0  0  0  0  0  0  0  0
    6.2184    5.5919   -0.7729 H   0  0  0  0  0  0  0  0  0  0  0  0
    6.4896    4.7902    1.5410 H   0  0  0  0  0  0  0  0  0  0  0  0
  1  2  1  0  0  0  0
  1 27  1  0  0  0  0
  1 28  1  0  0  0  0
  1 29  1  0  0  0  0
  2  3  1  0  0  0  0
  2 30  1  0  0  0  0
  2 31  1  0  0  0  0
  3  4  1  0  0  0  0
  3 32  1  0  0  0  0
  3 33  1  0  0  0  0
  4  5  1  0  0  0  0
  4 34  1  0  0  0  0
  4 35  1  0  0  0  0
  5  6  1  0  0  0  0
  5 36  1  0  0  0  0
  5 37  1  0  0  0  0
  6 20  1  0  0  0  0
  6  7  2  0  0  0  0
  7  8  1  0  0  0  0
  8  9  1  0  0  0  0
  8 19  1  0  0  0  0
  9 10  2  0  0  0  0
  9 11  1  0  0  0  0
 11 12  1  0  0  0  0
 11 38  1  0  0  0  0
 12 13  1  0  0  0  0
 12 39  1  0  0  0  0
 12 40  1  0  0  0  0
 13 18  1  0  0  0  0
 13 14  1  0  0  0  0
 13 41  1  0  0  0  0
 14 15  1  0  0  0  0
 14 42  1  0  0  0  0
 14 43  1  0  0  0  0
 15 16  1  0  0  0  0
 15 44  1  0  0  0  0
 15 45  1  0  0  0  0
 16 17  1  0  0  0  0
 16 46  1  0  0  0  0
 16 47  1  0  0  0  0
 17 18  1  0  0  0  0
 17 48  1  0  0  0  0
 17 49  1  0  0  0  0
 18 50  1  0  0  0  0
 18 51  1  0  0  0  0
 19 20  1  0  0  0  0
 19 52  1  0  0  0  0
 19 53  1  0  0  0  0
 20 21  1  0  0  0  0
 20 54  1  1  0  0  0
 21 26  2  0  0  0  0
 21 22  1  0  0  0  0
 22 23  2  0  0  0  0
 22 55  1  0  0  0  0
 23 24  1  0  0  0  0
 23 56  1  0  0  0  0
 24 25  2  0  0  0  0
 24 57  1  0  0  0  0
 25 26  1  0  0  0  0
 25 58  1  0  0  0  0
 26 59  1  0  0  0  0
M  END
$$$$
CHEMBL1760938_6PT0
 OpenBabel12022418113D

 47 50  0  0  1  0  0  0  0  0999 V2000
    4.3195   -1.3225    0.9735 O   0  0  0  0  0  0  0  0  0  0  0  0
    5.3896   -1.3996    0.3704 C   0  0  0  0  0  0  0  0  0  0  0  0
    6.3524   -2.4845    0.5671 C   0  0  0  0  0  0  0  0  0  0  0  0
    6.1818   -3.5984    1.3670 C   0  0  0  0  0  0  0  0  0  0  0  0
    5.1582   -4.1055    2.2208 C   0  0  0  0  0  0  0  0  0  0  0  0
    5.3775   -5.2262    2.9341 C   0  0  0  0  0  0  0  0  0  0  0  0
    6.6460   -5.9262    2.8720 C   0  0  0  0  0  0  0  0  0  0  0  0
    7.6071   -5.4513    2.0655 C   0  0  0  0  0  0  0  0  0  0  0  0
    7.3712   -4.3108    1.2850 N   0  0  0  0  0  0  0  0  0  0  0  0
    8.1889   -3.6323    0.3776 C   0  0  0  0  0  0  0  0  0  0  0  0
    7.6105   -2.5157   -0.0249 N   0  0  0  0  0  0  0  0  0  0  0  0
    9.4568   -4.0350    0.0992 N   0  0  0  0  0  0  0  0  0  0  0  0
    9.8208   -5.3997   -0.2902 C   0  0  0  0  0  0  0  0  0  0  0  0
   11.1209   -5.7583    0.4522 C   0  0  0  0  0  0  0  0  0  0  0  0
   12.1730   -4.8295    0.1273 O   0  0  0  0  0  0  0  0  0  0  0  0
   11.7880   -3.4772    0.4554 C   0  0  0  0  0  0  0  0  0  0  0  0
   10.4862   -3.0569   -0.2578 C   0  0  0  0  0  0  0  0  0  0  0  0
    5.7689   -0.4503   -0.5504 N   0  0  0  0  0  0  0  0  0  0  0  0
    4.9763    0.7743   -0.7377 C   0  0  2  0  0  0  0  0  0  0  0  0
    5.1162    1.3186   -2.1479 C   0  0  0  0  0  0  0  0  0  0  0  0
    4.0152    1.9055   -2.7777 C   0  0  0  0  0  0  0  0  0  0  0  0
    4.1738    2.4506   -4.0472 C   0  0  0  0  0  0  0  0  0  0  0  0
    5.4199    2.3996   -4.6586 C   0  0  0  0  0  0  0  0  0  0  0  0
    6.4609    1.7947   -3.9733 C   0  0  0  0  0  0  0  0  0  0  0  0
    6.3392    1.2565   -2.7376 N   0  0  0  0  0  0  0  0  0  0  0  0
    5.2419    1.8913    0.3011 C   0  0  0  0  0  0  0  0  0  0  0  0
    6.1666    1.5319    1.2241 F   0  0  0  0  0  0  0  0  0  0  0  0
    5.6730    3.0526   -0.2485 F   0  0  0  0  0  0  0  0  0  0  0  0
    4.1032    2.1932    0.9782 F   0  0  0  0  0  0  0  0  0  0  0  0
    4.2127   -3.5755    2.2988 H   0  0  0  0  0  0  0  0  0  0  0  0
    4.6139   -5.6193    3.5987 H   0  0  0  0  0  0  0  0  0  0  0  0
    6.7973   -6.8057    3.4876 H   0  0  0  0  0  0  0  0  0  0  0  0
    8.5799   -5.9141    2.0140 H   0  0  0  0  0  0  0  0  0  0  0  0
   10.0025   -5.4269   -1.3721 H   0  0  0  0  0  0  0  0  0  0  0  0
    9.0408   -6.1385   -0.0873 H   0  0  0  0  0  0  0  0  0  0  0  0
   11.4565   -6.7603    0.1689 H   0  0  0  0  0  0  0  0  0  0  0  0
   10.9700   -5.7510    1.5394 H   0  0  0  0  0  0  0  0  0  0  0  0
   12.6100   -2.8189    0.1601 H   0  0  0  0  0  0  0  0  0  0  0  0
   11.6715   -3.4036    1.5441 H   0  0  0  0  0  0  0  0  0  0  0  0
   10.2185   -2.0383    0.0430 H   0  0  0  0  0  0  0  0  0  0  0  0
   10.6381   -3.0676   -1.3443 H   0  0  0  0  0  0  0  0  0  0  0  0
    6.7058   -0.5025   -0.9428 H   0  0  0  0  0  0  0  0  0  0  0  0
    3.9281    0.4686   -0.6172 H   0  0  0  0  0  0  0  0  0  0  0  0
    3.0455    1.9512   -2.2899 H   0  0  0  0  0  0  0  0  0  0  0  0
    3.3337    2.9184   -4.5534 H   0  0  0  0  0  0  0  0  0  0  0  0
    5.5789    2.8226   -5.6432 H   0  0  0  0  0  0  0  0  0  0  0  0
    7.4540    1.7341   -4.4076 H   0  0  0  0  0  0  0  0  0  0  0  0
  1  2  2  0  0  0  0
  2  3  1  0  0  0  0
  2 18  1  0  0  0  0
  3 11  1  0  0  0  0
  3  4  2  0  0  0  0
  4  9  1  0  0  0  0
  4  5  1  0  0  0  0
  5  6  2  0  0  0  0
  5 30  1  0  0  0  0
  6  7  1  0  0  0  0
  6 31  1  0  0  0  0
  7  8  2  0  0  0  0
  7 32  1  0  0  0  0
  8  9  1  0  0  0  0
  8 33  1  0  0  0  0
  9 10  1  0  0  0  0
 10 11  2  0  0  0  0
 10 12  1  0  0  0  0
 12 17  1  0  0  0  0
 12 13  1  0  0  0  0
 13 14  1  0  0  0  0
 13 34  1  0  0  0  0
 13 35  1  0  0  0  0
 14 15  1  0  0  0  0
 14 36  1  0  0  0  0
 14 37  1  0  0  0  0
 15 16  1  0  0  0  0
 16 17  1  0  0  0  0
 16 38  1  0  0  0  0
 16 39  1  0  0  0  0
 17 40  1  0  0  0  0
 17 41  1  0  0  0  0
 18 42  1  0  0  0  0
 19 26  1  0  0  0  0
 19 20  1  0  0  0  0
 19 18  1  0  0  0  0
 19 43  1  1  0  0  0
 20 25  2  0  0  0  0
 20 21  1  0  0  0  0
 21 22  2  0  0  0  0
 21 44  1  0  0  0  0
 22 23  1  0  0  0  0
 22 45  1  0  0  0  0
 23 24  2  0  0  0  0
 23 46  1  0  0  0  0
 24 25  1  0  0  0  0
 24 47  1  0  0  0  0
 26 27  1  0  0  0  0
 26 28  1  0  0  0  0
 26 29  1  0  0  0  0
M  END
$$$$
CHEMBL1224687_5ZTY
 OpenBabel12022418113D

 67 71  0  0  1  0  0  0  0  0999 V2000
    4.8637   -7.7232    1.4880 C   0  0  0  0  0  0  0  0  0  0  0  0
    4.4577   -6.5359    0.6285 C   0  0  0  0  0  0  0  0  0  0  0  0
    5.0982   -5.2334    1.1154 C   0  0  0  0  0  0  0  0  0  0  0  0
    4.6936   -4.0540    0.2246 C   0  0  0  0  0  0  0  0  0  0  0  0
    5.2814   -2.7186    0.6790 C   0  0  0  0  0  0  0  0  0  0  0  0
    6.7904   -2.6714    0.6184 C   0  0  0  0  0  0  0  0  0  0  0  0
    7.4573   -2.8270   -0.4932 N   0  0  0  0  0  0  0  0  0  0  0  0
    8.7965   -2.7654   -0.1508 N   0  0  0  0  0  0  0  0  0  0  0  0
    9.8331   -2.9004   -1.0707 C   0  0  0  0  0  0  0  0  0  0  0  0
   11.0176   -2.9266   -0.7528 O   0  0  0  0  0  0  0  0  0  0  0  0
    9.3874   -3.0073   -2.3690 N   0  0  0  0  0  0  0  0  0  0  0  0
   10.2155   -3.2563   -3.5547 C   0  0  0  0  0  0  0  0  0  0  0  0
    9.9296   -4.6350   -4.2177 C   0  0  1  0  0  0  0  0  0  0  0  0
   10.2984   -5.7664   -3.2254 C   0  0  0  0  0  0  0  0  0  0  0  0
    9.9250   -7.1415   -3.7936 C   0  0  2  0  0  0  0  0  0  0  0  0
   10.7305   -7.3918   -5.0764 C   0  0  0  0  0  0  0  0  0  0  0  0
   10.4192   -6.2959   -6.1086 C   0  0  1  0  0  0  0  0  0  0  0  0
    8.9212   -6.3753   -6.4465 C   0  0  0  0  0  0  0  0  0  0  0  0
    8.0916   -6.1066   -5.1835 C   0  0  1  0  0  0  0  0  0  0  0  0
    8.4206   -7.1551   -4.1086 C   0  0  0  0  0  0  0  0  0  0  0  0
    8.4382   -4.7162   -4.6370 C   0  0  0  0  0  0  0  0  0  0  0  0
   10.7585   -4.8981   -5.5160 C   0  0  0  0  0  0  0  0  0  0  0  0
    9.0007   -2.6849    1.2959 C   0  0  0  0  0  0  0  0  0  0  0  0
    7.6042   -2.4309    1.8673 C   0  0  1  0  0  0  0  0  0  0  0  0
    7.4085   -1.0426    2.4376 C   0  0  0  0  0  0  0  0  0  0  0  0
    7.7728    0.1036    1.7107 C   0  0  0  0  0  0  0  0  0  0  0  0
    7.6465    1.3788    2.2657 C   0  0  0  0  0  0  0  0  0  0  0  0
    7.1375    1.5323    3.5519 C   0  0  0  0  0  0  0  0  0  0  0  0
    6.7325    0.4121    4.2739 C   0  0  0  0  0  0  0  0  0  0  0  0
    6.8608   -0.8661    3.7216 C   0  0  0  0  0  0  0  0  0  0  0  0
    4.4014   -8.6403    1.1094 H   0  0  0  0  0  0  0  0  0  0  0  0
    4.5435   -7.5858    2.5257 H   0  0  0  0  0  0  0  0  0  0  0  0
    5.9494   -7.8626    1.4777 H   0  0  0  0  0  0  0  0  0  0  0  0
    3.3652   -6.4426    0.6400 H   0  0  0  0  0  0  0  0  0  0  0  0
    4.7546   -6.7295   -0.4090 H   0  0  0  0  0  0  0  0  0  0  0  0
    6.1888   -5.3455    1.1144 H   0  0  0  0  0  0  0  0  0  0  0  0
    4.7928   -5.0370    2.1503 H   0  0  0  0  0  0  0  0  0  0  0  0
    3.5997   -3.9654    0.2295 H   0  0  0  0  0  0  0  0  0  0  0  0
    4.9909   -4.2582   -0.8109 H   0  0  0  0  0  0  0  0  0  0  0  0
    4.9469   -2.4932    1.6964 H   0  0  0  0  0  0  0  0  0  0  0  0
    4.9075   -1.9197    0.0295 H   0  0  0  0  0  0  0  0  0  0  0  0
    8.3833   -2.8959   -2.4451 H   0  0  0  0  0  0  0  0  0  0  0  0
   11.2740   -3.1755   -3.2784 H   0  0  0  0  0  0  0  0  0  0  0  0
    9.9932   -2.4459   -4.2588 H   0  0  0  0  0  0  0  0  0  0  0  0
    9.7895   -5.6267   -2.2660 H   0  0  0  0  0  0  0  0  0  0  0  0
   11.3776   -5.7374   -3.0174 H   0  0  0  0  0  0  0  0  0  0  0  0
   10.1565   -7.9171   -3.0554 H   0  0  0  0  0  0  0  0  0  0  0  0
   10.4787   -8.3805   -5.4841 H   0  0  0  0  0  0  0  0  0  0  0  0
   11.8042   -7.4065   -4.8559 H   0  0  0  0  0  0  0  0  0  0  0  0
   11.0062   -6.4730   -7.0173 H   0  0  0  0  0  0  0  0  0  0  0  0
    8.6735   -7.3651   -6.8515 H   0  0  0  0  0  0  0  0  0  0  0  0
    8.6723   -5.6447   -7.2270 H   0  0  0  0  0  0  0  0  0  0  0  0
    7.0239   -6.1493   -5.4282 H   0  0  0  0  0  0  0  0  0  0  0  0
    7.8490   -6.9420   -3.1964 H   0  0  0  0  0  0  0  0  0  0  0  0
    8.1179   -8.1512   -4.4506 H   0  0  0  0  0  0  0  0  0  0  0  0
    8.2277   -3.9580   -5.4036 H   0  0  0  0  0  0  0  0  0  0  0  0
    7.7783   -4.4984   -3.7907 H   0  0  0  0  0  0  0  0  0  0  0  0
   11.8345   -4.8489   -5.3048 H   0  0  0  0  0  0  0  0  0  0  0  0
   10.5504   -4.1285   -6.2708 H   0  0  0  0  0  0  0  0  0  0  0  0
    9.7429   -1.9143    1.5305 H   0  0  0  0  0  0  0  0  0  0  0  0
    9.3957   -3.6501    1.6356 H   0  0  0  0  0  0  0  0  0  0  0  0
    7.3547   -3.1905    2.6163 H   0  0  0  0  0  0  0  0  0  0  0  0
    8.1731    0.0140    0.7024 H   0  0  0  0  0  0  0  0  0  0  0  0
    7.9580    2.2495    1.6939 H   0  0  0  0  0  0  0  0  0  0  0  0
    7.0562    2.5247    3.9877 H   0  0  0  0  0  0  0  0  0  0  0  0
    6.3262    0.5363    5.2753 H   0  0  0  0  0  0  0  0  0  0  0  0
    6.5416   -1.7212    4.3123 H   0  0  0  0  0  0  0  0  0  0  0  0
  1  2  1  0  0  0  0
  1 31  1  0  0  0  0
  1 32  1  0  0  0  0
  1 33  1  0  0  0  0
  2  3  1  0  0  0  0
  2 34  1  0  0  0  0
  2 35  1  0  0  0  0
  3  4  1  0  0  0  0
  3 36  1  0  0  0  0
  3 37  1  0  0  0  0
  4  5  1  0  0  0  0
  4 38  1  0  0  0  0
  4 39  1  0  0  0  0
  5  6  1  0  0  0  0
  5 40  1  0  0  0  0
  5 41  1  0  0  0  0
  6 24  1  0  0  0  0
  6  7  2  0  0  0  0
  7  8  1  0  0  0  0
  8  9  1  0  0  0  0
  8 23  1  0  0  0  0
  9 10  2  0  0  0  0
  9 11  1  0  0  0  0
 11 12  1  0  0  0  0
 11 42  1  0  0  0  0
 12 43  1  0  0  0  0
 12 44  1  0  0  0  0
 13 12  1  1  0  0  0
 13 21  1  0  0  0  0
 13 22  1  0  0  0  0
 13 14  1  0  0  0  0
 14 45  1  0  0  0  0
 14 46  1  0  0  0  0
 15 14  1  0  0  0  0
 15 16  1  0  0  0  0
 15 20  1  0  0  0  0
 15 47  1  1  0  0  0
 16 48  1  0  0  0  0
 16 49  1  0  0  0  0
 17 16  1  0  0  0  0
 17 18  1  0  0  0  0
 17 22  1  0  0  0  0
 17 50  1  6  0  0  0
 18 51  1  0  0  0  0
 18 52  1  0  0  0  0
 19 18  1  0  0  0  0
 19 20  1  0  0  0  0
 19 21  1  0  0  0  0
 19 53  1  6  0  0  0
 20 54  1  0  0  0  0
 20 55  1  0  0  0  0
 21 56  1  0  0  0  0
 21 57  1  0  0  0  0
 22 58  1  0  0  0  0
 22 59  1  0  0  0  0
 23 24  1  0  0  0  0
 23 60  1  0  0  0  0
 23 61  1  0  0  0  0
 24 25  1  0  0  0  0
 24 62  1  1  0  0  0
 25 30  2  0  0  0  0
 25 26  1  0  0  0  0
 26 27  2  0  0  0  0
 26 63  1  0  0  0  0
 27 28  1  0  0  0  0
 27 64  1  0  0  0  0
 28 29  2  0  0  0  0
 28 65  1  0  0  0  0
 29 30  1  0  0  0  0
 29 66  1  0  0  0  0
 30 67  1  0  0  0  0
M  END
$$$$
CHEMBL598252_5ZTY
 OpenBabel12022418113D

 50 54  0  0  1  0  0  0  0  0999 V2000
    0.3001    0.1989   -1.5199 C   0  0  0  0  0  0  0  0  0  0  0  0
    1.4912    0.2387   -0.5160 C   0  0  2  0  0  0  0  0  0  0  0  0
    1.3407   -0.8773    0.5200 C   0  0  0  0  0  0  0  0  0  0  0  0
    0.0199   -0.4678    1.1870 C   0  0  2  0  0  0  0  0  0  0  0  0
   -1.1124   -0.8939    0.2386 C   0  0  0  0  0  0  0  0  0  0  0  0
   -1.0763    0.2492   -0.7880 C   0  0  1  0  0  0  0  0  0  0  0  0
   -1.1602    1.4460    0.1796 C   0  0  1  0  0  0  0  0  0  0  0  0
    0.0210    1.1083    1.1207 C   0  0  2  0  0  0  0  0  0  0  0  0
    1.3431    1.4451    0.4101 C   0  0  0  0  0  0  0  0  0  0  0  0
   -1.1256    2.7676   -0.4284 N   0  0  0  0  0  0  0  0  0  0  0  0
   -1.2392    3.9188    0.3256 C   0  0  0  0  0  0  0  0  0  0  0  0
   -1.3011    3.8848    1.5527 O   0  0  0  0  0  0  0  0  0  0  0  0
   -1.2889    5.1758   -0.4517 C   0  0  0  0  0  0  0  0  0  0  0  0
   -1.4075    6.4758    0.0381 C   0  0  0  0  0  0  0  0  0  0  0  0
   -1.5653    6.9324    1.4488 C   0  0  0  0  0  0  0  0  0  0  0  0
   -1.4898    7.3124   -1.0839 N   0  0  0  0  0  0  0  0  0  0  0  0
   -1.6818    8.7385   -1.0886 C   0  0  0  0  0  0  0  0  0  0  0  0
   -2.4612    9.3570   -2.0787 C   0  0  0  0  0  0  0  0  0  0  0  0
   -2.6526   10.7451   -2.0804 C   0  0  0  0  0  0  0  0  0  0  0  0
   -2.0994   11.5324   -1.0753 C   0  0  0  0  0  0  0  0  0  0  0  0
   -1.3332   10.9343   -0.0812 C   0  0  0  0  0  0  0  0  0  0  0  0
   -1.1110    9.5519   -0.0979 C   0  0  0  0  0  0  0  0  0  0  0  0
   -1.3851    6.4634   -2.1914 C   0  0  0  0  0  0  0  0  0  0  0  0
   -1.3240    6.8894   -3.6199 C   0  0  0  0  0  0  0  0  0  0  0  0
   -1.2683    5.1978   -1.8301 N   0  0  0  0  0  0  0  0  0  0  0  0
    0.3771    1.0390   -2.2184 H   0  0  0  0  0  0  0  0  0  0  0  0
    0.3604   -0.7250   -2.1092 H   0  0  0  0  0  0  0  0  0  0  0  0
    2.4565    0.2120   -1.0281 H   0  0  0  0  0  0  0  0  0  0  0  0
    2.1635   -0.8554    1.2455 H   0  0  0  0  0  0  0  0  0  0  0  0
    1.3155   -1.8760    0.0724 H   0  0  0  0  0  0  0  0  0  0  0  0
   -0.0913   -0.8807    2.1931 H   0  0  0  0  0  0  0  0  0  0  0  0
   -2.0711   -0.9260    0.7695 H   0  0  0  0  0  0  0  0  0  0  0  0
   -0.9492   -1.8789   -0.2131 H   0  0  0  0  0  0  0  0  0  0  0  0
   -1.9110    0.2038   -1.4929 H   0  0  0  0  0  0  0  0  0  0  0  0
   -2.0990    1.3954    0.7490 H   0  0  0  0  0  0  0  0  0  0  0  0
   -0.0615    1.5848    2.1008 H   0  0  0  0  0  0  0  0  0  0  0  0
    1.3355    2.3934   -0.1329 H   0  0  0  0  0  0  0  0  0  0  0  0
    2.1646    1.4882    1.1352 H   0  0  0  0  0  0  0  0  0  0  0  0
   -1.1505    2.8888   -1.4399 H   0  0  0  0  0  0  0  0  0  0  0  0
   -1.6852    6.1055    2.1506 H   0  0  0  0  0  0  0  0  0  0  0  0
   -2.4560    7.5607    1.5558 H   0  0  0  0  0  0  0  0  0  0  0  0
   -0.6846    7.4811    1.7897 H   0  0  0  0  0  0  0  0  0  0  0  0
   -2.9726    8.7842   -2.8464 H   0  0  0  0  0  0  0  0  0  0  0  0
   -3.2492   11.2105   -2.8617 H   0  0  0  0  0  0  0  0  0  0  0  0
   -2.2641   12.6067   -1.0663 H   0  0  0  0  0  0  0  0  0  0  0  0
   -0.8958   11.5444    0.7060 H   0  0  0  0  0  0  0  0  0  0  0  0
   -0.4438    9.1554    0.6582 H   0  0  0  0  0  0  0  0  0  0  0  0
   -1.1420    7.9549   -3.7664 H   0  0  0  0  0  0  0  0  0  0  0  0
   -2.2587    6.6177   -4.1226 H   0  0  0  0  0  0  0  0  0  0  0  0
   -0.5055    6.3702   -4.1291 H   0  0  0  0  0  0  0  0  0  0  0  0
  1  6  1  0  0  0  0
  1 26  1  0  0  0  0
  1 27  1  0  0  0  0
  2  1  1  0  0  0  0
  2  3  1  0  0  0  0
  2  9  1  0  0  0  0
  2 28  1  6  0  0  0
  3 29  1  0  0  0  0
  3 30  1  0  0  0  0
  4  3  1  0  0  0  0
  4  5  1  0  0  0  0
  4  8  1  0  0  0  0
  4 31  1  1  0  0  0
  5 32  1  0  0  0  0
  5 33  1  0  0  0  0
  6  5  1  0  0  0  0
  6  7  1  0  0  0  0
  6 34  1  6  0  0  0
  7  8  1  0  0  0  0
  7 10  1  0  0  0  0
  7 35  1  1  0  0  0
  8  9  1  0  0  0  0
  8 36  1  1  0  0  0
  9 37  1  0  0  0  0
  9 38  1  0  0  0  0
 10 11  1  0  0  0  0
 10 39  1  0  0  0  0
 11 12  2  0  0  0  0
 11 13  1  0  0  0  0
 13 25  1  0  0  0  0
 13 14  2  0  0  0  0
 14 15  1  0  0  0  0
 14 16  1  0  0  0  0
 15 40  1  0  0  0  0
 15 41  1  0  0  0  0
 15 42  1  0  0  0  0
 16 17  1  0  0  0  0
 16 23  1  0  0  0  0
 17 22  2  0  0  0  0
 17 18  1  0  0  0  0
 18 19  2  0  0  0  0
 18 43  1  0  0  0  0
 19 20  1  0  0  0  0
 19 44  1  0  0  0  0
 20 21  2  0  0  0  0
 20 45  1  0  0  0  0
 21 22  1  0  0  0  0
 21 46  1  0  0  0  0
 22 47  1  0  0  0  0
 23 24  1  0  0  0  0
 23 25  2  0  0  0  0
 24 48  1  0  0  0  0
 24 49  1  0  0  0  0
 24 50  1  0  0  0  0
M  END
$$$$
CHEMBL235040_5ZTY
 OpenBabel12022418113D

 66 70  0  0  1  0  0  0  0  0999 V2000
   12.2999    2.3578    5.6264 C   0  0  0  0  0  0  0  0  0  0  0  0
   11.6050    1.7786    4.4042 C   0  0  0  0  0  0  0  0  0  0  0  0
   10.6953    0.6144    4.7915 C   0  0  0  0  0  0  0  0  0  0  0  0
    9.9856    0.0197    3.5736 C   0  0  0  0  0  0  0  0  0  0  0  0
    9.0763   -1.1427    3.9894 C   0  0  0  0  0  0  0  0  0  0  0  0
    8.4021   -1.7383    2.8232 N   0  0  0  0  0  0  0  0  0  0  0  0
    9.0655   -2.4094    1.7988 C   0  0  0  0  0  0  0  0  0  0  0  0
    8.4876   -2.9732    0.7180 C   0  0  0  0  0  0  0  0  0  0  0  0
    9.3147   -3.6562   -0.3252 C   0  0  0  0  0  0  0  0  0  0  0  0
   10.5318   -3.7308   -0.2160 O   0  0  0  0  0  0  0  0  0  0  0  0
    8.6045   -4.1830   -1.3882 N   0  0  0  0  0  0  0  0  0  0  0  0
    9.1819   -4.9026   -2.5270 C   0  0  2  0  0  0  0  0  0  0  0  0
   10.2004   -4.0404   -3.3161 C   0  0  0  0  0  0  0  0  0  0  0  0
   10.7550   -4.8162   -4.5222 C   0  0  1  0  0  0  0  0  0  0  0  0
   11.4552   -6.0856   -4.0132 C   0  0  0  0  0  0  0  0  0  0  0  0
   10.4543   -6.9842   -3.2534 C   0  0  2  0  0  0  0  0  0  0  0  0
   11.1582   -8.2467   -2.7491 C   0  0  0  0  0  0  0  0  0  0  0  0
    9.2981   -7.3517   -4.2113 C   0  0  0  0  0  0  0  0  0  0  0  0
    8.5792   -6.0796   -4.7181 C   0  0  2  0  0  0  0  0  0  0  0  0
    7.4295   -6.4508   -5.6599 C   0  0  0  0  0  0  0  0  0  0  0  0
    9.6005   -5.1923   -5.4597 C   0  0  0  0  0  0  0  0  0  0  0  0
    8.0362   -5.3012   -3.4979 C   0  0  0  0  0  0  0  0  0  0  0  0
    9.8788   -6.1963   -2.0560 C   0  0  0  0  0  0  0  0  0  0  0  0
    7.0193   -2.8678    0.6409 C   0  0  0  0  0  0  0  0  0  0  0  0
    6.3908   -3.3048   -0.3276 O   0  0  0  0  0  0  0  0  0  0  0  0
    6.2907   -2.2622    1.7600 C   0  0  0  0  0  0  0  0  0  0  0  0
    4.8936   -2.2797    1.7496 C   0  0  0  0  0  0  0  0  0  0  0  0
    4.2085   -1.7427    2.8234 C   0  0  0  0  0  0  0  0  0  0  0  0
    4.9507   -1.1935    3.8511 C   0  0  0  0  0  0  0  0  0  0  0  0
    6.3047   -1.1603    3.8738 N   0  0  0  0  0  0  0  0  0  0  0  0
    6.9866   -1.7044    2.8349 C   0  0  0  0  0  0  0  0  0  0  0  0
   12.9519    3.1875    5.3371 H   0  0  0  0  0  0  0  0  0  0  0  0
   12.9134    1.5993    6.1234 H   0  0  0  0  0  0  0  0  0  0  0  0
   11.5691    2.7347    6.3493 H   0  0  0  0  0  0  0  0  0  0  0  0
   12.3603    1.4407    3.6852 H   0  0  0  0  0  0  0  0  0  0  0  0
   11.0185    2.5649    3.9150 H   0  0  0  0  0  0  0  0  0  0  0  0
    9.9495    0.9597    5.5178 H   0  0  0  0  0  0  0  0  0  0  0  0
   11.2894   -0.1647    5.2853 H   0  0  0  0  0  0  0  0  0  0  0  0
   10.7337   -0.3186    2.8474 H   0  0  0  0  0  0  0  0  0  0  0  0
    9.3883    0.7946    3.0773 H   0  0  0  0  0  0  0  0  0  0  0  0
    8.3736   -0.7606    4.7394 H   0  0  0  0  0  0  0  0  0  0  0  0
    9.6601   -1.9153    4.5055 H   0  0  0  0  0  0  0  0  0  0  0  0
   10.1457   -2.4441    1.9395 H   0  0  0  0  0  0  0  0  0  0  0  0
    7.5845   -4.1454   -1.3284 H   0  0  0  0  0  0  0  0  0  0  0  0
   11.0441   -3.7519   -2.6782 H   0  0  0  0  0  0  0  0  0  0  0  0
    9.7333   -3.1081   -3.6572 H   0  0  0  0  0  0  0  0  0  0  0  0
   11.4760   -4.1932   -5.0641 H   0  0  0  0  0  0  0  0  0  0  0  0
   12.2874   -5.8042   -3.3545 H   0  0  0  0  0  0  0  0  0  0  0  0
   11.8948   -6.6328   -4.8570 H   0  0  0  0  0  0  0  0  0  0  0  0
   11.5885   -8.8165   -3.5790 H   0  0  0  0  0  0  0  0  0  0  0  0
   10.4600   -8.9015   -2.2165 H   0  0  0  0  0  0  0  0  0  0  0  0
   11.9714   -7.9952   -2.0586 H   0  0  0  0  0  0  0  0  0  0  0  0
    8.5814   -8.0057   -3.6970 H   0  0  0  0  0  0  0  0  0  0  0  0
    9.6892   -7.9238   -5.0632 H   0  0  0  0  0  0  0  0  0  0  0  0
    7.7969   -6.9914   -6.5391 H   0  0  0  0  0  0  0  0  0  0  0  0
    6.9062   -5.5554   -6.0143 H   0  0  0  0  0  0  0  0  0  0  0  0
    6.6949   -7.0885   -5.1562 H   0  0  0  0  0  0  0  0  0  0  0  0
    9.9917   -5.7150   -6.3424 H   0  0  0  0  0  0  0  0  0  0  0  0
    9.1137   -4.2792   -5.8271 H   0  0  0  0  0  0  0  0  0  0  0  0
    7.5002   -4.4028   -3.8328 H   0  0  0  0  0  0  0  0  0  0  0  0
    7.2945   -5.9147   -2.9679 H   0  0  0  0  0  0  0  0  0  0  0  0
    9.1675   -6.8188   -1.4958 H   0  0  0  0  0  0  0  0  0  0  0  0
   10.6873   -5.9567   -1.3542 H   0  0  0  0  0  0  0  0  0  0  0  0
    4.3561   -2.7211    0.9150 H   0  0  0  0  0  0  0  0  0  0  0  0
    3.1253   -1.7608    2.8579 H   0  0  0  0  0  0  0  0  0  0  0  0
    4.4610   -0.7550    4.7161 H   0  0  0  0  0  0  0  0  0  0  0  0
  1  2  1  0  0  0  0
  1 32  1  0  0  0  0
  1 33  1  0  0  0  0
  1 34  1  0  0  0  0
  2  3  1  0  0  0  0
  2 35  1  0  0  0  0
  2 36  1  0  0  0  0
  3  4  1  0  0  0  0
  3 37  1  0  0  0  0
  3 38  1  0  0  0  0
  4  5  1  0  0  0  0
  4 39  1  0  0  0  0
  4 40  1  0  0  0  0
  5  6  1  0  0  0  0
  5 41  1  0  0  0  0
  5 42  1  0  0  0  0
  6 31  1  0  0  0  0
  6  7  1  0  0  0  0
  7  8  2  0  0  0  0
  7 43  1  0  0  0  0
  8  9  1  0  0  0  0
  8 24  1  0  0  0  0
  9 10  2  0  0  0  0
  9 11  1  0  0  0  0
 11 44  1  0  0  0  0
 12 11  1  1  0  0  0
 12 22  1  0  0  0  0
 12 23  1  0  0  0  0
 12 13  1  0  0  0  0
 13 45  1  0  0  0  0
 13 46  1  0  0  0  0
 14 13  1  0  0  0  0
 14 15  1  0  0  0  0
 14 21  1  0  0  0  0
 14 47  1  6  0  0  0
 15 16  1  0  0  0  0
 15 48  1  0  0  0  0
 15 49  1  0  0  0  0
 16 17  1  1  0  0  0
 16 18  1  0  0  0  0
 16 23  1  0  0  0  0
 17 50  1  0  0  0  0
 17 51  1  0  0  0  0
 17 52  1  0  0  0  0
 18 19  1  0  0  0  0
 18 53  1  0  0  0  0
 18 54  1  0  0  0  0
 19 20  1  6  0  0  0
 19 21  1  0  0  0  0
 19 22  1  0  0  0  0
 20 55  1  0  0  0  0
 20 56  1  0  0  0  0
 20 57  1  0  0  0  0
 21 58  1  0  0  0  0
 21 59  1  0  0  0  0
 22 60  1  0  0  0  0
 22 61  1  0  0  0  0
 23 62  1  0  0  0  0
 23 63  1  0  0  0  0
 24 25  2  0  0  0  0
 24 26  1  0  0  0  0
 26 31  2  0  0  0  0
 26 27  1  0  0  0  0
 27 28  2  0  0  0  0
 27 64  1  0  0  0  0
 28 29  1  0  0  0  0
 28 65  1  0  0  0  0
 29 30  2  0  0  0  0
 29 66  1  0  0  0  0
 30 31  1  0  0  0  0
M  END
$$$$
CHEMBL1223590_8GUR
 OpenBabel12022418113D

 56 58  0  0  1  0  0  0  0  0999 V2000
    1.5110    1.1141   -2.8358 C   0  0  0  0  0  0  0  0  0  0  0  0
    2.9431    1.3356   -2.3777 C   0  0  0  0  0  0  0  0  0  0  0  0
    3.0765    1.1604   -0.8629 C   0  0  0  0  0  0  0  0  0  0  0  0
    4.5061    1.3739   -0.3704 C   0  0  0  0  0  0  0  0  0  0  0  0
    4.9626    2.7840   -0.6146 C   0  0  0  0  0  0  0  0  0  0  0  0
    4.3580    3.8109   -0.0936 N   0  0  0  0  0  0  0  0  0  0  0  0
    4.9998    4.9145   -0.5918 N   0  0  0  0  0  0  0  0  0  0  0  0
    4.6359    6.2115   -0.2753 C   0  0  0  0  0  0  0  0  0  0  0  0
    5.1927    7.1845   -0.7754 O   0  0  0  0  0  0  0  0  0  0  0  0
    3.6149    6.2828    0.6431 N   0  0  0  0  0  0  0  0  0  0  0  0
    3.0774    7.5258    1.2102 C   0  0  0  0  0  0  0  0  0  0  0  0
    4.2187    8.3017    1.9083 C   0  0  0  0  0  0  0  0  0  0  0  0
    2.5050    8.4209    0.0856 C   0  0  0  0  0  0  0  0  0  0  0  0
    1.9177    7.2015    2.1904 C   0  0  0  0  0  0  0  0  0  0  0  0
    0.7647    6.5287    1.7308 C   0  0  0  0  0  0  0  0  0  0  0  0
   -0.3407    6.3284    2.5658 C   0  0  0  0  0  0  0  0  0  0  0  0
   -0.3054    6.7801    3.8775 C   0  0  0  0  0  0  0  0  0  0  0  0
    0.8207    7.4152    4.3739 C   0  0  0  0  0  0  0  0  0  0  0  0
    1.9239    7.6193    3.5386 C   0  0  0  0  0  0  0  0  0  0  0  0
   -1.3728    6.6118    4.6691 F   0  0  0  0  0  0  0  0  0  0  0  0
    6.0325    4.5983   -1.5663 C   0  0  0  0  0  0  0  0  0  0  0  0
    6.1563    3.0814   -1.4942 C   0  0  1  0  0  0  0  0  0  0  0  0
    7.4540    2.5868   -0.8914 C   0  0  0  0  0  0  0  0  0  0  0  0
    7.9147    3.0627    0.3490 C   0  0  0  0  0  0  0  0  0  0  0  0
    9.1151    2.6023    0.8945 C   0  0  0  0  0  0  0  0  0  0  0  0
    9.8664    1.6475    0.2119 C   0  0  0  0  0  0  0  0  0  0  0  0
    9.4133    1.1647   -1.0076 C   0  0  0  0  0  0  0  0  0  0  0  0
    8.2218    1.6230   -1.5653 C   0  0  0  0  0  0  0  0  0  0  0  0
   10.1360    0.2436   -1.6601 F   0  0  0  0  0  0  0  0  0  0  0  0
    1.4345    1.2504   -3.9190 H   0  0  0  0  0  0  0  0  0  0  0  0
    0.8330    1.8271   -2.3556 H   0  0  0  0  0  0  0  0  0  0  0  0
    1.1737    0.1014   -2.5943 H   0  0  0  0  0  0  0  0  0  0  0  0
    3.2511    2.3447   -2.6747 H   0  0  0  0  0  0  0  0  0  0  0  0
    3.6041    0.6301   -2.8943 H   0  0  0  0  0  0  0  0  0  0  0  0
    2.7586    0.1482   -0.5851 H   0  0  0  0  0  0  0  0  0  0  0  0
    2.3994    1.8575   -0.3539 H   0  0  0  0  0  0  0  0  0  0  0  0
    5.1873    0.6711   -0.8612 H   0  0  0  0  0  0  0  0  0  0  0  0
    4.5581    1.1893    0.7084 H   0  0  0  0  0  0  0  0  0  0  0  0
    3.3155    5.3775    0.9878 H   0  0  0  0  0  0  0  0  0  0  0  0
    5.0329    8.5561    1.2237 H   0  0  0  0  0  0  0  0  0  0  0  0
    4.6630    7.7091    2.7175 H   0  0  0  0  0  0  0  0  0  0  0  0
    3.8623    9.2496    2.3284 H   0  0  0  0  0  0  0  0  0  0  0  0
    3.2790    8.7405   -0.6195 H   0  0  0  0  0  0  0  0  0  0  0  0
    2.0441    9.3268    0.4958 H   0  0  0  0  0  0  0  0  0  0  0  0
    1.7438    7.8985   -0.5056 H   0  0  0  0  0  0  0  0  0  0  0  0
    0.7069    6.1776    0.7018 H   0  0  0  0  0  0  0  0  0  0  0  0
   -1.2361    5.8385    2.1953 H   0  0  0  0  0  0  0  0  0  0  0  0
    0.8328    7.7652    5.4016 H   0  0  0  0  0  0  0  0  0  0  0  0
    2.7761    8.1367    3.9711 H   0  0  0  0  0  0  0  0  0  0  0  0
    6.9507    5.1495   -1.3367 H   0  0  0  0  0  0  0  0  0  0  0  0
    5.6788    4.9268   -2.5507 H   0  0  0  0  0  0  0  0  0  0  0  0
    5.9952    2.6405   -2.4840 H   0  0  0  0  0  0  0  0  0  0  0  0
    7.3430    3.8069    0.9049 H   0  0  0  0  0  0  0  0  0  0  0  0
    9.4599    2.9877    1.8502 H   0  0  0  0  0  0  0  0  0  0  0  0
   10.8007    1.2786    0.6256 H   0  0  0  0  0  0  0  0  0  0  0  0
    7.9074    1.2157   -2.5216 H   0  0  0  0  0  0  0  0  0  0  0  0
  1  2  1  0  0  0  0
  1 30  1  0  0  0  0
  1 31  1  0  0  0  0
  1 32  1  0  0  0  0
  2  3  1  0  0  0  0
  2 33  1  0  0  0  0
  2 34  1  0  0  0  0
  3  4  1  0  0  0  0
  3 35  1  0  0  0  0
  3 36  1  0  0  0  0
  4  5  1  0  0  0  0
  4 37  1  0  0  0  0
  4 38  1  0  0  0  0
  5 22  1  0  0  0  0
  5  6  2  0  0  0  0
  6  7  1  0  0  0  0
  7  8  1  0  0  0  0
  7 21  1  0  0  0  0
  8  9  2  0  0  0  0
  8 10  1  0  0  0  0
 10 11  1  0  0  0  0
 10 39  1  0  0  0  0
 11 12  1  0  0  0  0
 11 13  1  0  0  0  0
 11 14  1  0  0  0  0
 12 40  1  0  0  0  0
 12 41  1  0  0  0  0
 12 42  1  0  0  0  0
 13 43  1  0  0  0  0
 13 44  1  0  0  0  0
 13 45  1  0  0  0  0
 14 19  2  0  0  0  0
 14 15  1  0  0  0  0
 15 16  2  0  0  0  0
 15 46  1  0  0  0  0
 16 17  1  0  0  0  0
 16 47  1  0  0  0  0
 17 18  2  0  0  0  0
 17 20  1  0  0  0  0
 18 19  1  0  0  0  0
 18 48  1  0  0  0  0
 19 49  1  0  0  0  0
 21 22  1  0  0  0  0
 21 50  1  0  0  0  0
 21 51  1  0  0  0  0
 22 23  1  0  0  0  0
 22 52  1  6  0  0  0
 23 28  2  0  0  0  0
 23 24  1  0  0  0  0
 24 25  2  0  0  0  0
 24 53  1  0  0  0  0
 25 26  1  0  0  0  0
 25 54  1  0  0  0  0
 26 27  2  0  0  0  0
 26 55  1  0  0  0  0
 27 28  1  0  0  0  0
 27 29  1  0  0  0  0
 28 56  1  0  0  0  0
M  END
$$$$
CHEMBL1224629_5ZTY
 OpenBabel12022418113D

 64 68  0  0  1  0  0  0  0  0999 V2000
    1.3362   -0.3621    5.4401 C   0  0  0  0  0  0  0  0  0  0  0  0
    2.8460   -0.3877    5.2718 C   0  0  0  0  0  0  0  0  0  0  0  0
    3.2585   -0.9129    3.8963 C   0  0  0  0  0  0  0  0  0  0  0  0
    4.7802   -0.9175    3.7559 C   0  0  0  0  0  0  0  0  0  0  0  0
    5.2259   -1.4293    2.3891 C   0  0  0  0  0  0  0  0  0  0  0  0
    6.7244   -1.3647    2.2737 C   0  0  0  0  0  0  0  0  0  0  0  0
    7.3747   -0.2434    2.3907 N   0  0  0  0  0  0  0  0  0  0  0  0
    8.7034   -0.5617    2.2876 N   0  0  0  0  0  0  0  0  0  0  0  0
    9.7237    0.3723    2.4020 C   0  0  0  0  0  0  0  0  0  0  0  0
   10.9085    0.0571    2.3289 O   0  0  0  0  0  0  0  0  0  0  0  0
    9.2702    1.6632    2.5873 N   0  0  0  0  0  0  0  0  0  0  0  0
   10.1264    2.8560    2.6171 C   0  0  2  0  0  0  0  0  0  0  0  0
    9.2857    4.1577    2.7767 C   0  0  0  0  0  0  0  0  0  0  0  0
   10.2014    5.4070    2.7953 C   0  0  1  0  0  0  0  0  0  0  0  0
   11.1933    5.3057    3.9659 C   0  0  0  0  0  0  0  0  0  0  0  0
   12.0357    4.0291    3.8241 C   0  0  2  0  0  0  0  0  0  0  0  0
   12.8156    4.0707    2.4994 C   0  0  0  0  0  0  0  0  0  0  0  0
   11.8443    4.2102    1.3158 C   0  0  2  0  0  0  0  0  0  0  0  0
   11.0042    5.4838    1.4859 C   0  0  0  0  0  0  0  0  0  0  0  0
   10.9122    2.9909    1.2872 C   0  0  0  0  0  0  0  0  0  0  0  0
   11.1047    2.8057    3.8192 C   0  0  0  0  0  0  0  0  0  0  0  0
    8.9469   -1.9808    2.0655 C   0  0  0  0  0  0  0  0  0  0  0  0
    7.5553   -2.6057    2.0438 C   0  0  2  0  0  0  0  0  0  0  0  0
    7.1960   -3.3378    0.7656 C   0  0  0  0  0  0  0  0  0  0  0  0
    6.7210   -4.6601    0.8172 C   0  0  0  0  0  0  0  0  0  0  0  0
    6.3694   -5.3399   -0.3523 C   0  0  0  0  0  0  0  0  0  0  0  0
    6.4910   -4.7114   -1.5852 C   0  0  0  0  0  0  0  0  0  0  0  0
    6.9532   -3.4009   -1.6557 C   0  0  0  0  0  0  0  0  0  0  0  0
    7.3013   -2.7181   -0.4872 C   0  0  0  0  0  0  0  0  0  0  0  0
    1.0749    0.0144    6.4343 H   0  0  0  0  0  0  0  0  0  0  0  0
    0.9117   -1.3654    5.3346 H   0  0  0  0  0  0  0  0  0  0  0  0
    0.8688    0.2910    4.6965 H   0  0  0  0  0  0  0  0  0  0  0  0
    3.2838   -1.0174    6.0551 H   0  0  0  0  0  0  0  0  0  0  0  0
    3.2388    0.6259    5.4147 H   0  0  0  0  0  0  0  0  0  0  0  0
    2.8181   -0.2835    3.1133 H   0  0  0  0  0  0  0  0  0  0  0  0
    2.8694   -1.9282    3.7539 H   0  0  0  0  0  0  0  0  0  0  0  0
    5.2247   -1.5413    4.5418 H   0  0  0  0  0  0  0  0  0  0  0  0
    5.1601    0.0996    3.9143 H   0  0  0  0  0  0  0  0  0  0  0  0
    4.8001   -0.8172    1.5866 H   0  0  0  0  0  0  0  0  0  0  0  0
    4.8870   -2.4603    2.2441 H   0  0  0  0  0  0  0  0  0  0  0  0
    8.2585    1.7358    2.5621 H   0  0  0  0  0  0  0  0  0  0  0  0
    8.6966    4.1218    3.7026 H   0  0  0  0  0  0  0  0  0  0  0  0
    8.5629    4.2477    1.9553 H   0  0  0  0  0  0  0  0  0  0  0  0
    9.5954    6.3136    2.9060 H   0  0  0  0  0  0  0  0  0  0  0  0
   10.6514    5.2988    4.9191 H   0  0  0  0  0  0  0  0  0  0  0  0
   11.8494    6.1856    3.9813 H   0  0  0  0  0  0  0  0  0  0  0  0
   12.7365    3.9556    4.6632 H   0  0  0  0  0  0  0  0  0  0  0  0
   13.4111    3.1556    2.3880 H   0  0  0  0  0  0  0  0  0  0  0  0
   13.5210    4.9106    2.5053 H   0  0  0  0  0  0  0  0  0  0  0  0
   12.4087    4.2623    0.3779 H   0  0  0  0  0  0  0  0  0  0  0  0
   11.6617    6.3628    1.4968 H   0  0  0  0  0  0  0  0  0  0  0  0
   10.3252    5.6070    0.6339 H   0  0  0  0  0  0  0  0  0  0  0  0
   10.2084    3.0797    0.4481 H   0  0  0  0  0  0  0  0  0  0  0  0
   11.5107    2.0958    1.0881 H   0  0  0  0  0  0  0  0  0  0  0  0
   11.7142    1.8958    3.7962 H   0  0  0  0  0  0  0  0  0  0  0  0
   10.5377    2.7689    4.7595 H   0  0  0  0  0  0  0  0  0  0  0  0
    9.5538   -2.3671    2.8924 H   0  0  0  0  0  0  0  0  0  0  0  0
    9.5226   -2.1072    1.1422 H   0  0  0  0  0  0  0  0  0  0  0  0
    7.4311   -3.2676    2.9096 H   0  0  0  0  0  0  0  0  0  0  0  0
    6.6125   -5.1752    1.7695 H   0  0  0  0  0  0  0  0  0  0  0  0
    6.0030   -6.3636   -0.2990 H   0  0  0  0  0  0  0  0  0  0  0  0
    6.2194   -5.2413   -2.4992 H   0  0  0  0  0  0  0  0  0  0  0  0
    7.0446   -2.9057   -2.6204 H   0  0  0  0  0  0  0  0  0  0  0  0
    7.6556   -1.6902   -0.5703 H   0  0  0  0  0  0  0  0  0  0  0  0
  1  2  1  0  0  0  0
  1 30  1  0  0  0  0
  1 31  1  0  0  0  0
  1 32  1  0  0  0  0
  2  3  1  0  0  0  0
  2 33  1  0  0  0  0
  2 34  1  0  0  0  0
  3  4  1  0  0  0  0
  3 35  1  0  0  0  0
  3 36  1  0  0  0  0
  4  5  1  0  0  0  0
  4 37  1  0  0  0  0
  4 38  1  0  0  0  0
  5  6  1  0  0  0  0
  5 39  1  0  0  0  0
  5 40  1  0  0  0  0
  6 23  1  0  0  0  0
  6  7  2  0  0  0  0
  7  8  1  0  0  0  0
  8  9  1  0  0  0  0
  8 22  1  0  0  0  0
  9 10  2  0  0  0  0
  9 11  1  0  0  0  0
 11 41  1  0  0  0  0
 12 11  1  6  0  0  0
 12 20  1  0  0  0  0
 12 21  1  0  0  0  0
 12 13  1  0  0  0  0
 13 42  1  0  0  0  0
 13 43  1  0  0  0  0
 14 13  1  0  0  0  0
 14 15  1  0  0  0  0
 14 19  1  0  0  0  0
 14 44  1  1  0  0  0
 15 45  1  0  0  0  0
 15 46  1  0  0  0  0
 16 15  1  0  0  0  0
 16 17  1  0  0  0  0
 16 21  1  0  0  0  0
 16 47  1  1  0  0  0
 17 48  1  0  0  0  0
 17 49  1  0  0  0  0
 18 17  1  0  0  0  0
 18 19  1  0  0  0  0
 18 20  1  0  0  0  0
 18 50  1  6  0  0  0
 19 51  1  0  0  0  0
 19 52  1  0  0  0  0
 20 53  1  0  0  0  0
 20 54  1  0  0  0  0
 21 55  1  0  0  0  0
 21 56  1  0  0  0  0
 22 23  1  0  0  0  0
 22 57  1  0  0  0  0
 22 58  1  0  0  0  0
 23 24  1  0  0  0  0
 23 59  1  1  0  0  0
 24 29  2  0  0  0  0
 24 25  1  0  0  0  0
 25 26  2  0  0  0  0
 25 60  1  0  0  0  0
 26 27  1  0  0  0  0
 26 61  1  0  0  0  0
 27 28  2  0  0  0  0
 27 62  1  0  0  0  0
 28 29  1  0  0  0  0
 28 63  1  0  0  0  0
 29 64  1  0  0  0  0
M  END
$$$$
CHEMBL3354407_6PT0
 OpenBabel12022418113D

 42 46  0  0  0  0  0  0  0  0999 V2000
    1.3581   -0.4502    0.1796 C   0  0  0  0  0  0  0  0  0  0  0  0
    1.7118   -0.9802   -1.0561 C   0  0  0  0  0  0  0  0  0  0  0  0
    1.2929   -0.3426   -2.2222 C   0  0  0  0  0  0  0  0  0  0  0  0
    0.5230    0.8345   -2.1607 C   0  0  0  0  0  0  0  0  0  0  0  0
    0.1898    1.4038   -0.9126 C   0  0  0  0  0  0  0  0  0  0  0  0
    0.6077    0.7282    0.2521 C   0  0  0  0  0  0  0  0  0  0  0  0
   -0.6329    2.6803   -0.7695 C   0  0  0  0  0  0  0  0  0  0  0  0
   -2.3904    2.2766   -0.5350 S   0  0  0  0  0  0  0  0  0  0  0  0
   -3.1775    3.8727   -0.4261 C   0  0  0  0  0  0  0  0  0  0  0  0
   -4.5193    3.8070   -0.4680 N   0  0  0  0  0  0  0  0  0  0  0  0
   -5.1101    5.0123   -0.3748 C   0  0  0  0  0  0  0  0  0  0  0  0
   -4.4378    6.2157   -0.2924 C   0  0  0  0  0  0  0  0  0  0  0  0
   -5.4050    7.2582   -0.3243 C   0  0  0  0  0  0  0  0  0  0  0  0
   -5.3416    8.6701   -0.2987 C   0  0  0  0  0  0  0  0  0  0  0  0
   -6.5235    9.4231   -0.3703 C   0  0  0  0  0  0  0  0  0  0  0  0
   -7.7571    8.7986   -0.4617 C   0  0  0  0  0  0  0  0  0  0  0  0
   -7.8507    7.4053   -0.4880 C   0  0  0  0  0  0  0  0  0  0  0  0
   -6.6645    6.6447   -0.4282 C   0  0  0  0  0  0  0  0  0  0  0  0
   -6.4703    5.2572   -0.4126 N   0  0  0  0  0  0  0  0  0  0  0  0
   -7.4761    4.2631   -0.4878 C   0  0  0  0  0  0  0  0  0  0  0  0
   -8.5225    4.5825   -1.0479 O   0  0  0  0  0  0  0  0  0  0  0  0
   -7.2925    2.9414    0.0627 C   0  0  0  0  0  0  0  0  0  0  0  0
   -7.8112    1.7158   -0.2884 C   0  0  0  0  0  0  0  0  0  0  0  0
   -7.3114    0.8369    0.6871 C   0  0  0  0  0  0  0  0  0  0  0  0
   -6.5640    1.4682    1.5948 N   0  0  0  0  0  0  0  0  0  0  0  0
   -6.5571    2.7963    1.2033 O   0  0  0  0  0  0  0  0  0  0  0  0
   -3.0782    6.2208   -0.2388 N   0  0  0  0  0  0  0  0  0  0  0  0
   -2.4647    5.0184   -0.3032 N   0  0  0  0  0  0  0  0  0  0  0  0
    0.0865    1.4078   -3.4014 C   0  0  0  0  0  0  0  0  0  0  0  0
   -0.2566    1.8500   -4.4187 N   0  0  0  0  0  0  0  0  0  0  0  0
    1.6625   -0.9577    1.0924 H   0  0  0  0  0  0  0  0  0  0  0  0
    2.3010   -1.8930   -1.1127 H   0  0  0  0  0  0  0  0  0  0  0  0
    1.5641   -0.7755   -3.1850 H   0  0  0  0  0  0  0  0  0  0  0  0
    0.3364    1.1120    1.2342 H   0  0  0  0  0  0  0  0  0  0  0  0
   -0.4976    3.3282   -1.6413 H   0  0  0  0  0  0  0  0  0  0  0  0
   -0.2661    3.2388    0.0995 H   0  0  0  0  0  0  0  0  0  0  0  0
   -4.3827    9.1758   -0.2303 H   0  0  0  0  0  0  0  0  0  0  0  0
   -6.4704   10.5120   -0.3573 H   0  0  0  0  0  0  0  0  0  0  0  0
   -8.6667    9.3965   -0.5156 H   0  0  0  0  0  0  0  0  0  0  0  0
   -8.8283    6.9341   -0.5552 H   0  0  0  0  0  0  0  0  0  0  0  0
   -8.4508    1.4978   -1.1302 H   0  0  0  0  0  0  0  0  0  0  0  0
   -7.4625   -0.2288    0.7857 H   0  0  0  0  0  0  0  0  0  0  0  0
  1  6  2  0  0  0  0
  1  2  1  0  0  0  0
  1 31  1  0  0  0  0
  2  3  2  0  0  0  0
  2 32  1  0  0  0  0
  3  4  1  0  0  0  0
  3 33  1  0  0  0  0
  4  5  2  0  0  0  0
  4 29  1  0  0  0  0
  5  6  1  0  0  0  0
  5  7  1  0  0  0  0
  6 34  1  0  0  0  0
  7  8  1  0  0  0  0
  7 35  1  0  0  0  0
  7 36  1  0  0  0  0
  8  9  1  0  0  0  0
  9 28  2  0  0  0  0
  9 10  1  0  0  0  0
 10 11  2  0  0  0  0
 11 19  1  0  0  0  0
 11 12  1  0  0  0  0
 12 13  1  0  0  0  0
 12 27  2  0  0  0  0
 13 18  2  0  0  0  0
 13 14  1  0  0  0  0
 14 15  2  0  0  0  0
 14 37  1  0  0  0  0
 15 16  1  0  0  0  0
 15 38  1  0  0  0  0
 16 17  2  0  0  0  0
 16 39  1  0  0  0  0
 17 18  1  0  0  0  0
 17 40  1  0  0  0  0
 18 19  1  0  0  0  0
 19 20  1  0  0  0  0
 20 21  2  0  0  0  0
 20 22  1  0  0  0  0
 22 26  1  0  0  0  0
 22 23  2  0  0  0  0
 23 24  1  0  0  0  0
 23 41  1  0  0  0  0
 24 25  2  0  0  0  0
 24 42  1  0  0  0  0
 25 26  1  0  0  0  0
 27 28  1  0  0  0  0
 29 30  3  0  0  0  0
M  END
$$$$
CHEMBL219970_6PT0
 OpenBabel12022418113D

 59 62  0  0  0  0  0  0  0  0999 V2000
    1.0012    1.8870    0.4509 C   0  0  0  0  0  0  0  0  0  0  0  0
    2.5193    1.8971    0.4265 C   0  0  0  0  0  0  0  0  0  0  0  0
    3.0529    1.8608   -1.0046 C   0  0  0  0  0  0  0  0  0  0  0  0
    4.5792    1.8814   -1.0066 C   0  0  0  0  0  0  0  0  0  0  0  0
    5.1383    1.8576   -2.4264 C   0  0  0  0  0  0  0  0  0  0  0  0
    6.6646    1.9104   -2.3918 C   0  0  0  0  0  0  0  0  0  0  0  0
    7.2501    1.8318   -3.8011 C   0  0  0  0  0  0  0  0  0  0  0  0
    8.7039    1.8241   -3.9051 N   0  0  0  0  0  0  0  0  0  0  0  0
    9.5611    1.8778   -2.8283 C   0  0  0  0  0  0  0  0  0  0  0  0
   10.8605    1.7381   -3.2693 C   0  0  0  0  0  0  0  0  0  0  0  0
   12.0866    1.6381   -2.4733 C   0  0  0  0  0  0  0  0  0  0  0  0
   13.1756    1.9096   -2.9709 O   0  0  0  0  0  0  0  0  0  0  0  0
   12.0151    1.1139   -1.0681 C   0  0  0  0  0  0  0  0  0  0  0  0
   11.1138    0.0647   -0.8014 C   0  0  0  0  0  0  0  0  0  0  0  0
   11.0099   -0.4819    0.4717 C   0  0  0  0  0  0  0  0  0  0  0  0
   11.8387   -0.0174    1.4881 C   0  0  0  0  0  0  0  0  0  0  0  0
   12.7788    0.9951    1.2477 C   0  0  0  0  0  0  0  0  0  0  0  0
   13.6269    1.4063    2.2909 C   0  0  0  0  0  0  0  0  0  0  0  0
   14.5835    2.3984    2.0936 C   0  0  0  0  0  0  0  0  0  0  0  0
   14.6931    3.0038    0.8494 C   0  0  0  0  0  0  0  0  0  0  0  0
   13.8499    2.6140   -0.1952 C   0  0  0  0  0  0  0  0  0  0  0  0
   12.8823    1.5889   -0.0393 C   0  0  0  0  0  0  0  0  0  0  0  0
   10.7758    1.7286   -4.6860 C   0  0  0  0  0  0  0  0  0  0  0  0
    9.4423    1.7569   -5.0822 C   0  0  0  0  0  0  0  0  0  0  0  0
    8.9327    1.7410   -6.4703 C   0  0  0  0  0  0  0  0  0  0  0  0
    7.7658    1.0684   -6.8548 C   0  0  0  0  0  0  0  0  0  0  0  0
    7.3302    1.0642   -8.1844 C   0  0  0  0  0  0  0  0  0  0  0  0
    8.0823    1.6971   -9.1671 C   0  0  0  0  0  0  0  0  0  0  0  0
    9.2637    2.3417   -8.8177 C   0  0  0  0  0  0  0  0  0  0  0  0
    9.6778    2.3711   -7.4816 C   0  0  0  0  0  0  0  0  0  0  0  0
    0.6401    1.9154    1.4834 H   0  0  0  0  0  0  0  0  0  0  0  0
    0.6088    0.9823   -0.0238 H   0  0  0  0  0  0  0  0  0  0  0  0
    0.5966    2.7566   -0.0765 H   0  0  0  0  0  0  0  0  0  0  0  0
    2.8965    1.0334    0.9867 H   0  0  0  0  0  0  0  0  0  0  0  0
    2.8831    2.7973    0.9358 H   0  0  0  0  0  0  0  0  0  0  0  0
    2.6709    2.7215   -1.5649 H   0  0  0  0  0  0  0  0  0  0  0  0
    2.6939    0.9568   -1.5113 H   0  0  0  0  0  0  0  0  0  0  0  0
    4.9586    1.0156   -0.4503 H   0  0  0  0  0  0  0  0  0  0  0  0
    4.9351    2.7796   -0.4892 H   0  0  0  0  0  0  0  0  0  0  0  0
    4.7513    2.7092   -2.9973 H   0  0  0  0  0  0  0  0  0  0  0  0
    4.8047    0.9457   -2.9384 H   0  0  0  0  0  0  0  0  0  0  0  0
    7.0329    1.0671   -1.7931 H   0  0  0  0  0  0  0  0  0  0  0  0
    6.9890    2.8324   -1.8958 H   0  0  0  0  0  0  0  0  0  0  0  0
    6.8870    2.6630   -4.4150 H   0  0  0  0  0  0  0  0  0  0  0  0
    6.9102    0.8837   -4.2227 H   0  0  0  0  0  0  0  0  0  0  0  0
    9.1857    1.9777   -1.8187 H   0  0  0  0  0  0  0  0  0  0  0  0
   10.4901   -0.3503   -1.5899 H   0  0  0  0  0  0  0  0  0  0  0  0
   10.2970   -1.2778    0.6672 H   0  0  0  0  0  0  0  0  0  0  0  0
   11.7527   -0.4671    2.4749 H   0  0  0  0  0  0  0  0  0  0  0  0
   13.5558    0.9420    3.2731 H   0  0  0  0  0  0  0  0  0  0  0  0
   15.2432    2.6903    2.9036 H   0  0  0  0  0  0  0  0  0  0  0  0
   15.4398    3.7760    0.6817 H   0  0  0  0  0  0  0  0  0  0  0  0
   13.9764    3.1190   -1.1506 H   0  0  0  0  0  0  0  0  0  0  0  0
   11.6263    1.6643   -5.3546 H   0  0  0  0  0  0  0  0  0  0  0  0
    7.1796    0.4973   -6.1478 H   0  0  0  0  0  0  0  0  0  0  0  0
    6.4117    0.5473   -8.4495 H   0  0  0  0  0  0  0  0  0  0  0  0
    7.7564    1.6739  -10.2031 H   0  0  0  0  0  0  0  0  0  0  0  0
    9.8710    2.8184   -9.5827 H   0  0  0  0  0  0  0  0  0  0  0  0
   10.6042    2.8887   -7.2407 H   0  0  0  0  0  0  0  0  0  0  0  0
  1  2  1  0  0  0  0
  1 31  1  0  0  0  0
  1 32  1  0  0  0  0
  1 33  1  0  0  0  0
  2  3  1  0  0  0  0
  2 34  1  0  0  0  0
  2 35  1  0  0  0  0
  3  4  1  0  0  0  0
  3 36  1  0  0  0  0
  3 37  1  0  0  0  0
  4  5  1  0  0  0  0
  4 38  1  0  0  0  0
  4 39  1  0  0  0  0
  5  6  1  0  0  0  0
  5 40  1  0  0  0  0
  5 41  1  0  0  0  0
  6  7  1  0  0  0  0
  6 42  1  0  0  0  0
  6 43  1  0  0  0  0
  7  8  1  0  0  0  0
  7 44  1  0  0  0  0
  7 45  1  0  0  0  0
  8 24  1  0  0  0  0
  8  9  1  0  0  0  0
  9 10  2  0  0  0  0
  9 46  1  0  0  0  0
 10 11  1  0  0  0  0
 10 23  1  0  0  0  0
 11 12  2  0  0  0  0
 11 13  1  0  0  0  0
 13 22  2  0  0  0  0
 13 14  1  0  0  0  0
 14 15  2  0  0  0  0
 14 47  1  0  0  0  0
 15 16  1  0  0  0  0
 15 48  1  0  0  0  0
 16 17  2  0  0  0  0
 16 49  1  0  0  0  0
 17 22  1  0  0  0  0
 17 18  1  0  0  0  0
 18 19  2  0  0  0  0
 18 50  1  0  0  0  0
 19 20  1  0  0  0  0
 19 51  1  0  0  0  0
 20 21  2  0  0  0  0
 20 52  1  0  0  0  0
 21 22  1  0  0  0  0
 21 53  1  0  0  0  0
 23 24  2  0  0  0  0
 23 54  1  0  0  0  0
 24 25  1  0  0  0  0
 25 30  2  0  0  0  0
 25 26  1  0  0  0  0
 26 27  2  0  0  0  0
 26 55  1  0  0  0  0
 27 28  1  0  0  0  0
 27 56  1  0  0  0  0
 28 29  2  0  0  0  0
 28 57  1  0  0  0  0
 29 30  1  0  0  0  0
 29 58  1  0  0  0  0
 30 59  1  0  0  0  0
M  END
$$$$
CHEMBL2087089_5ZTY
 OpenBabel12022418113D

 61 66  0  0  1  0  0  0  0  0999 V2000
    2.5337    0.6118   -4.1614 C   0  0  0  0  0  0  0  0  0  0  0  0
    2.8519    0.0029   -3.0114 C   0  0  0  0  0  0  0  0  0  0  0  0
    4.0716   -0.8479   -2.8088 C   0  0  0  0  0  0  0  0  0  0  0  0
    4.9063   -0.3207   -1.7350 N   0  0  0  0  0  0  0  0  0  0  0  0
    5.9225    0.5795   -1.9259 C   0  0  0  0  0  0  0  0  0  0  0  0
    6.4922    0.8546   -0.7000 C   0  0  0  0  0  0  0  0  0  0  0  0
    7.6374    1.7633   -0.4468 C   0  0  0  0  0  0  0  0  0  0  0  0
    7.2968    3.2281   -0.2855 C   0  0  0  0  0  0  0  0  0  0  0  0
    8.1513    4.0595   -0.5992 O   0  0  0  0  0  0  0  0  0  0  0  0
    6.0826    3.5756    0.2951 N   0  0  0  0  0  0  0  0  0  0  0  0
    5.7289    4.9855    0.5352 C   0  0  2  0  0  0  0  0  0  0  0  0
    4.3310    5.1653    1.2074 C   0  0  0  0  0  0  0  0  0  0  0  0
    4.0349    6.6752    1.4431 C   0  0  1  0  0  0  0  0  0  0  0  0
    5.1169    7.2915    2.3481 C   0  0  0  0  0  0  0  0  0  0  0  0
    6.4957    7.1096    1.7039 C   0  0  2  0  0  0  0  0  0  0  0  0
    6.5411    7.7887    0.3250 C   0  0  0  0  0  0  0  0  0  0  0  0
    5.4202    7.2467   -0.5768 C   0  0  2  0  0  0  0  0  0  0  0  0
    4.0601    7.4368    0.1052 C   0  0  0  0  0  0  0  0  0  0  0  0
    5.6536    5.7515   -0.8102 C   0  0  0  0  0  0  0  0  0  0  0  0
    6.7533    5.6139    1.5194 C   0  0  0  0  0  0  0  0  0  0  0  0
    5.8139    0.0525    0.2683 C   0  0  0  0  0  0  0  0  0  0  0  0
    5.9711   -0.1353    1.6615 C   0  0  0  0  0  0  0  0  0  0  0  0
    5.1467   -1.0284    2.3591 C   0  0  0  0  0  0  0  0  0  0  0  0
    5.3549   -1.2674    3.7854 C   0  0  0  0  0  0  0  0  0  0  0  0
    6.2622   -0.8193    4.7208 C   0  0  0  0  0  0  0  0  0  0  0  0
    5.9490   -1.4668    5.9448 C   0  0  0  0  0  0  0  0  0  0  0  0
    4.8598   -2.2645    5.6818 C   0  0  0  0  0  0  0  0  0  0  0  0
    4.4929   -2.1488    4.3810 O   0  0  0  0  0  0  0  0  0  0  0  0
    4.1414   -1.7018    1.6518 C   0  0  0  0  0  0  0  0  0  0  0  0
    3.9574   -1.5325    0.2747 C   0  0  0  0  0  0  0  0  0  0  0  0
    4.8174   -0.6595   -0.3999 C   0  0  0  0  0  0  0  0  0  0  0  0
    1.6384    1.2218   -4.2354 H   0  0  0  0  0  0  0  0  0  0  0  0
    3.1556    0.5259   -5.0473 H   0  0  0  0  0  0  0  0  0  0  0  0
    2.1987    0.1277   -2.1498 H   0  0  0  0  0  0  0  0  0  0  0  0
    4.6918   -0.9013   -3.7116 H   0  0  0  0  0  0  0  0  0  0  0  0
    3.7867   -1.8719   -2.5481 H   0  0  0  0  0  0  0  0  0  0  0  0
    6.1656    0.9473   -2.9156 H   0  0  0  0  0  0  0  0  0  0  0  0
    8.3326    1.6886   -1.2951 H   0  0  0  0  0  0  0  0  0  0  0  0
    8.1975    1.4552    0.4438 H   0  0  0  0  0  0  0  0  0  0  0  0
    5.3493    2.8742    0.3189 H   0  0  0  0  0  0  0  0  0  0  0  0
    4.2900    4.6304    2.1650 H   0  0  0  0  0  0  0  0  0  0  0  0
    3.5417    4.7331    0.5786 H   0  0  0  0  0  0  0  0  0  0  0  0
    3.0526    6.7957    1.9143 H   0  0  0  0  0  0  0  0  0  0  0  0
    5.0935    6.8170    3.3360 H   0  0  0  0  0  0  0  0  0  0  0  0
    4.9198    8.3599    2.5044 H   0  0  0  0  0  0  0  0  0  0  0  0
    7.2681    7.5365    2.3531 H   0  0  0  0  0  0  0  0  0  0  0  0
    7.5163    7.6053   -0.1465 H   0  0  0  0  0  0  0  0  0  0  0  0
    6.4408    8.8735    0.4379 H   0  0  0  0  0  0  0  0  0  0  0  0
    5.4303    7.7724   -1.5378 H   0  0  0  0  0  0  0  0  0  0  0  0
    3.8797    8.5068    0.2752 H   0  0  0  0  0  0  0  0  0  0  0  0
    3.2536    7.0800   -0.5460 H   0  0  0  0  0  0  0  0  0  0  0  0
    4.8401    5.3379   -1.4248 H   0  0  0  0  0  0  0  0  0  0  0  0
    6.5628    5.6268   -1.4042 H   0  0  0  0  0  0  0  0  0  0  0  0
    7.7850    5.4822    1.1846 H   0  0  0  0  0  0  0  0  0  0  0  0
    6.6926    5.1005    2.4907 H   0  0  0  0  0  0  0  0  0  0  0  0
    6.7569    0.4090    2.1762 H   0  0  0  0  0  0  0  0  0  0  0  0
    7.0720   -0.1231    4.5515 H   0  0  0  0  0  0  0  0  0  0  0  0
    6.4521   -1.3695    6.8951 H   0  0  0  0  0  0  0  0  0  0  0  0
    4.2643   -2.9426    6.2754 H   0  0  0  0  0  0  0  0  0  0  0  0
    3.4825   -2.3942    2.1728 H   0  0  0  0  0  0  0  0  0  0  0  0
    3.1772   -2.0808   -0.2423 H   0  0  0  0  0  0  0  0  0  0  0  0
  1  2  2  0  0  0  0
  1 32  1  0  0  0  0
  1 33  1  0  0  0  0
  2  3  1  0  0  0  0
  2 34  1  0  0  0  0
  3  4  1  0  0  0  0
  3 35  1  0  0  0  0
  3 36  1  0  0  0  0
  4 31  1  0  0  0  0
  4  5  1  0  0  0  0
  5  6  2  0  0  0  0
  5 37  1  0  0  0  0
  6  7  1  0  0  0  0
  6 21  1  0  0  0  0
  7  8  1  0  0  0  0
  7 38  1  0  0  0  0
  7 39  1  0  0  0  0
  8  9  2  0  0  0  0
  8 10  1  0  0  0  0
 10 40  1  0  0  0  0
 11 10  1  6  0  0  0
 11 19  1  0  0  0  0
 11 20  1  0  0  0  0
 11 12  1  0  0  0  0
 12 41  1  0  0  0  0
 12 42  1  0  0  0  0
 13 12  1  0  0  0  0
 13 14  1  0  0  0  0
 13 18  1  0  0  0  0
 13 43  1  1  0  0  0
 14 44  1  0  0  0  0
 14 45  1  0  0  0  0
 15 14  1  0  0  0  0
 15 16  1  0  0  0  0
 15 20  1  0  0  0  0
 15 46  1  1  0  0  0
 16 47  1  0  0  0  0
 16 48  1  0  0  0  0
 17 16  1  0  0  0  0
 17 18  1  0  0  0  0
 17 19  1  0  0  0  0
 17 49  1  6  0  0  0
 18 50  1  0  0  0  0
 18 51  1  0  0  0  0
 19 52  1  0  0  0  0
 19 53  1  0  0  0  0
 20 54  1  0  0  0  0
 20 55  1  0  0  0  0
 21 31  2  0  0  0  0
 21 22  1  0  0  0  0
 22 23  2  0  0  0  0
 22 56  1  0  0  0  0
 23 24  1  0  0  0  0
 23 29  1  0  0  0  0
 24 28  1  0  0  0  0
 24 25  2  0  0  0  0
 25 26  1  0  0  0  0
 25 57  1  0  0  0  0
 26 27  2  0  0  0  0
 26 58  1  0  0  0  0
 27 28  1  0  0  0  0
 27 59  1  0  0  0  0
 29 30  2  0  0  0  0
 29 60  1  0  0  0  0
 30 31  1  0  0  0  0
 30 61  1  0  0  0  0
M  END
$$$$
CHEMBL3353835_6PT0
 OpenBabel12022418113D

 49 53  0  0  0  0  0  0  0  0999 V2000
    0.8561   -0.3024   -0.9753 C   0  0  0  0  0  0  0  0  0  0  0  0
    0.9392    0.8385   -0.1770 C   0  0  0  0  0  0  0  0  0  0  0  0
    0.0015    1.0410    0.8274 C   0  0  0  0  0  0  0  0  0  0  0  0
   -1.0138    0.0896    1.0154 C   0  0  0  0  0  0  0  0  0  0  0  0
   -1.1183   -1.0877    0.2380 C   0  0  0  0  0  0  0  0  0  0  0  0
   -0.1541   -1.2551   -0.7702 C   0  0  0  0  0  0  0  0  0  0  0  0
   -2.2166   -2.0963    0.5225 C   0  0  0  0  0  0  0  0  0  0  0  0
   -2.3357   -3.2105   -0.4204 N   0  0  0  0  0  0  0  0  0  0  0  0
   -2.1787   -4.5641   -0.1520 C   0  0  0  0  0  0  0  0  0  0  0  0
   -1.6399   -5.2538    0.9481 C   0  0  0  0  0  0  0  0  0  0  0  0
   -1.8072   -6.6462    0.9963 C   0  0  0  0  0  0  0  0  0  0  0  0
   -2.4894   -7.3300   -0.0054 C   0  0  0  0  0  0  0  0  0  0  0  0
   -2.9333   -6.6534   -1.1414 C   0  0  0  0  0  0  0  0  0  0  0  0
   -2.7476   -5.2590   -1.2339 C   0  0  0  0  0  0  0  0  0  0  0  0
   -3.0635   -4.3004   -2.2241 C   0  0  0  0  0  0  0  0  0  0  0  0
   -2.9291   -3.0544   -1.6484 C   0  0  0  0  0  0  0  0  0  0  0  0
   -3.3617   -1.9004   -2.1813 N   0  0  0  0  0  0  0  0  0  0  0  0
   -3.9206   -2.1111   -3.3859 C   0  0  0  0  0  0  0  0  0  0  0  0
   -3.9600   -3.2905   -4.0628 N   0  0  0  0  0  0  0  0  0  0  0  0
   -3.5443   -4.4155   -3.4858 N   0  0  0  0  0  0  0  0  0  0  0  0
   -4.8173   -0.7478   -4.0670 S   0  0  0  0  0  0  0  0  0  0  0  0
   -3.7554   -0.4571   -5.4977 C   0  0  0  0  0  0  0  0  0  0  0  0
   -4.3150    0.6611   -6.3459 C   0  0  0  0  0  0  0  0  0  0  0  0
   -5.2657    0.3457   -7.3342 C   0  0  0  0  0  0  0  0  0  0  0  0
   -5.8313    1.3435   -8.1261 C   0  0  0  0  0  0  0  0  0  0  0  0
   -5.4641    2.6730   -7.9386 C   0  0  0  0  0  0  0  0  0  0  0  0
   -4.5377    3.0067   -6.9509 C   0  0  0  0  0  0  0  0  0  0  0  0
   -3.9638    2.0113   -6.1480 C   0  0  0  0  0  0  0  0  0  0  0  0
   -3.0239    2.4064   -5.1429 C   0  0  0  0  0  0  0  0  0  0  0  0
   -2.2443    2.7287   -4.3369 N   0  0  0  0  0  0  0  0  0  0  0  0
   -1.9835    0.3783    2.0641 N   0  3  0  0  0  0  0  0  0  0  0  0
   -1.5458    0.4500    3.2212 O   0  0  0  0  0  0  0  0  0  0  0  0
   -3.1611    0.5197    1.7264 O   0  5  0  0  0  0  0  0  0  0  0  0
    1.5804   -0.4448   -1.7745 H   0  0  0  0  0  0  0  0  0  0  0  0
    1.7247    1.5716   -0.3499 H   0  0  0  0  0  0  0  0  0  0  0  0
    0.0528    1.9348    1.4455 H   0  0  0  0  0  0  0  0  0  0  0  0
   -0.1637   -2.1239   -1.4273 H   0  0  0  0  0  0  0  0  0  0  0  0
   -3.1905   -1.5964    0.4787 H   0  0  0  0  0  0  0  0  0  0  0  0
   -2.0948   -2.5130    1.5279 H   0  0  0  0  0  0  0  0  0  0  0  0
   -1.1239   -4.7411    1.7536 H   0  0  0  0  0  0  0  0  0  0  0  0
   -1.4161   -7.2054    1.8453 H   0  0  0  0  0  0  0  0  0  0  0  0
   -2.6751   -8.3975    0.0886 H   0  0  0  0  0  0  0  0  0  0  0  0
   -3.4665   -7.1842   -1.9264 H   0  0  0  0  0  0  0  0  0  0  0  0
   -3.6853   -1.3684   -6.1032 H   0  0  0  0  0  0  0  0  0  0  0  0
   -2.7367   -0.2297   -5.1666 H   0  0  0  0  0  0  0  0  0  0  0  0
   -5.5817   -0.6866   -7.4814 H   0  0  0  0  0  0  0  0  0  0  0  0
   -6.5655    1.0825   -8.8845 H   0  0  0  0  0  0  0  0  0  0  0  0
   -5.9068    3.4511   -8.5553 H   0  0  0  0  0  0  0  0  0  0  0  0
   -4.2686    4.0521   -6.8073 H   0  0  0  0  0  0  0  0  0  0  0  0
  1  6  2  0  0  0  0
  1  2  1  0  0  0  0
  1 34  1  0  0  0  0
  2  3  2  0  0  0  0
  2 35  1  0  0  0  0
  3  4  1  0  0  0  0
  3 36  1  0  0  0  0
  4  5  2  0  0  0  0
  4 31  1  0  0  0  0
  5  6  1  0  0  0  0
  5  7  1  0  0  0  0
  6 37  1  0  0  0  0
  7  8  1  0  0  0  0
  7 38  1  0  0  0  0
  7 39  1  0  0  0  0
  8 16  1  0  0  0  0
  8  9  1  0  0  0  0
  9 14  2  0  0  0  0
  9 10  1  0  0  0  0
 10 11  2  0  0  0  0
 10 40  1  0  0  0  0
 11 12  1  0  0  0  0
 11 41  1  0  0  0  0
 12 13  2  0  0  0  0
 12 42  1  0  0  0  0
 13 14  1  0  0  0  0
 13 43  1  0  0  0  0
 14 15  1  0  0  0  0
 15 20  2  0  0  0  0
 15 16  1  0  0  0  0
 16 17  2  0  0  0  0
 17 18  1  0  0  0  0
 18 19  2  0  0  0  0
 18 21  1  0  0  0  0
 19 20  1  0  0  0  0
 21 22  1  0  0  0  0
 22 23  1  0  0  0  0
 22 44  1  0  0  0  0
 22 45  1  0  0  0  0
 23 28  2  0  0  0  0
 23 24  1  0  0  0  0
 24 25  2  0  0  0  0
 24 46  1  0  0  0  0
 25 26  1  0  0  0  0
 25 47  1  0  0  0  0
 26 27  2  0  0  0  0
 26 48  1  0  0  0  0
 27 28  1  0  0  0  0
 27 49  1  0  0  0  0
 28 29  1  0  0  0  0
 29 30  3  0  0  0  0
 31 32  2  0  0  0  0
 31 33  1  0  0  0  0
M  CHG  2  31   1  33  -1
M  END
$$$$
CHEMBL525528_5ZTY
 OpenBabel12022418113D

 61 65  0  0  1  0  0  0  0  0999 V2000
    4.7511   -0.8098    7.3697 C   0  0  0  0  0  0  0  0  0  0  0  0
    4.3218   -0.9827    5.9215 C   0  0  0  0  0  0  0  0  0  0  0  0
    4.8771    0.1497    5.0640 C   0  0  0  0  0  0  0  0  0  0  0  0
    4.4808    0.0035    3.5949 C   0  0  0  0  0  0  0  0  0  0  0  0
    5.0882    1.1252    2.7357 C   0  0  0  0  0  0  0  0  0  0  0  0
    6.5726    1.1438    2.7458 N   0  0  0  0  0  0  0  0  0  0  0  0
    7.3222   -0.0131    2.5312 C   0  0  0  0  0  0  0  0  0  0  0  0
    8.6613   -0.1303    2.4852 C   0  0  0  0  0  0  0  0  0  0  0  0
    9.2297   -1.4646    2.1506 C   0  0  0  0  0  0  0  0  0  0  0  0
    8.4829   -2.3145    1.6542 O   0  0  0  0  0  0  0  0  0  0  0  0
   10.5759   -1.6923    2.3836 N   0  0  0  0  0  0  0  0  0  0  0  0
   11.2359   -2.9595    1.9871 C   0  0  2  0  0  0  0  0  0  0  0  0
   12.7366   -3.0337    2.4137 C   0  0  0  0  0  0  0  0  0  0  0  0
   13.3666   -4.3864    1.9733 C   0  0  1  0  0  0  0  0  0  0  0  0
   12.5994   -5.5528    2.6182 C   0  0  0  0  0  0  0  0  0  0  0  0
   11.1277   -5.4998    2.1921 C   0  0  2  0  0  0  0  0  0  0  0  0
   11.0073   -5.5830    0.6610 C   0  0  0  0  0  0  0  0  0  0  0  0
   11.8075   -4.4481    0.0019 C   0  0  2  0  0  0  0  0  0  0  0  0
   13.2740   -4.5398    0.4448 C   0  0  0  0  0  0  0  0  0  0  0  0
   11.2268   -3.0975    0.4423 C   0  0  0  0  0  0  0  0  0  0  0  0
   10.5296   -4.1705    2.6611 C   0  0  0  0  0  0  0  0  0  0  0  0
    9.4330    1.1083    2.6926 C   0  0  0  0  0  0  0  0  0  0  0  0
   10.6460    1.0832    2.8726 O   0  0  0  0  0  0  0  0  0  0  0  0
    8.6762    2.3869    2.6341 C   0  0  0  0  0  0  0  0  0  0  0  0
    9.4081    3.5779    2.5075 C   0  0  0  0  0  0  0  0  0  0  0  0
    8.7426    4.7946    2.4048 C   0  0  0  0  0  0  0  0  0  0  0  0
    7.3560    4.8097    2.4472 C   0  0  0  0  0  0  0  0  0  0  0  0
    6.6185    3.6331    2.5765 C   0  0  0  0  0  0  0  0  0  0  0  0
    7.2576    2.3827    2.6614 C   0  0  0  0  0  0  0  0  0  0  0  0
    6.7099    5.9790    2.3497 F   0  0  0  0  0  0  0  0  0  0  0  0
    4.3564   -1.6221    7.9857 H   0  0  0  0  0  0  0  0  0  0  0  0
    4.3829    0.1387    7.7741 H   0  0  0  0  0  0  0  0  0  0  0  0
    5.8430   -0.8153    7.4549 H   0  0  0  0  0  0  0  0  0  0  0  0
    3.2277   -1.0003    5.8623 H   0  0  0  0  0  0  0  0  0  0  0  0
    4.6861   -1.9470    5.5483 H   0  0  0  0  0  0  0  0  0  0  0  0
    5.9686    0.1604    5.1593 H   0  0  0  0  0  0  0  0  0  0  0  0
    4.5134    1.1125    5.4436 H   0  0  0  0  0  0  0  0  0  0  0  0
    3.3866    0.0529    3.5110 H   0  0  0  0  0  0  0  0  0  0  0  0
    4.7646   -0.9845    3.2184 H   0  0  0  0  0  0  0  0  0  0  0  0
    4.6620    2.0503    3.1356 H   0  0  0  0  0  0  0  0  0  0  0  0
    4.7366    1.0287    1.7012 H   0  0  0  0  0  0  0  0  0  0  0  0
    6.7089   -0.8971    2.3746 H   0  0  0  0  0  0  0  0  0  0  0  0
   11.1412   -0.9046    2.6899 H   0  0  0  0  0  0  0  0  0  0  0  0
   12.8355   -2.9231    3.5012 H   0  0  0  0  0  0  0  0  0  0  0  0
   13.3060   -2.2085    1.9660 H   0  0  0  0  0  0  0  0  0  0  0  0
   14.4181   -4.4309    2.2795 H   0  0  0  0  0  0  0  0  0  0  0  0
   12.6784   -5.4944    3.7106 H   0  0  0  0  0  0  0  0  0  0  0  0
   13.0386   -6.5133    2.3200 H   0  0  0  0  0  0  0  0  0  0  0  0
   10.5794   -6.3307    2.6502 H   0  0  0  0  0  0  0  0  0  0  0  0
    9.9523   -5.5132    0.3650 H   0  0  0  0  0  0  0  0  0  0  0  0
   11.3731   -6.5538    0.3080 H   0  0  0  0  0  0  0  0  0  0  0  0
   11.7439   -4.5345   -1.0886 H   0  0  0  0  0  0  0  0  0  0  0  0
   13.6919   -5.5070    0.1347 H   0  0  0  0  0  0  0  0  0  0  0  0
   13.8706   -3.7650   -0.0502 H   0  0  0  0  0  0  0  0  0  0  0  0
   11.8106   -2.2791   -0.0041 H   0  0  0  0  0  0  0  0  0  0  0  0
   10.2147   -2.9976    0.0386 H   0  0  0  0  0  0  0  0  0  0  0  0
    9.4599   -4.1959    2.4437 H   0  0  0  0  0  0  0  0  0  0  0  0
   10.6102   -4.0849    3.7534 H   0  0  0  0  0  0  0  0  0  0  0  0
   10.4956    3.5541    2.4694 H   0  0  0  0  0  0  0  0  0  0  0  0
    9.2904    5.7229    2.2818 H   0  0  0  0  0  0  0  0  0  0  0  0
    5.5410    3.7475    2.5862 H   0  0  0  0  0  0  0  0  0  0  0  0
  1  2  1  0  0  0  0
  1 31  1  0  0  0  0
  1 32  1  0  0  0  0
  1 33  1  0  0  0  0
  2  3  1  0  0  0  0
  2 34  1  0  0  0  0
  2 35  1  0  0  0  0
  3  4  1  0  0  0  0
  3 36  1  0  0  0  0
  3 37  1  0  0  0  0
  4  5  1  0  0  0  0
  4 38  1  0  0  0  0
  4 39  1  0  0  0  0
  5  6  1  0  0  0  0
  5 40  1  0  0  0  0
  5 41  1  0  0  0  0
  6 29  1  0  0  0  0
  6  7  1  0  0  0  0
  7  8  2  0  0  0  0
  7 42  1  0  0  0  0
  8  9  1  0  0  0  0
  8 22  1  0  0  0  0
  9 10  2  0  0  0  0
  9 11  1  0  0  0  0
 11 43  1  0  0  0  0
 12 11  1  1  0  0  0
 12 20  1  0  0  0  0
 12 21  1  0  0  0  0
 12 13  1  0  0  0  0
 13 44  1  0  0  0  0
 13 45  1  0  0  0  0
 14 13  1  0  0  0  0
 14 15  1  0  0  0  0
 14 19  1  0  0  0  0
 14 46  1  1  0  0  0
 15 47  1  0  0  0  0
 15 48  1  0  0  0  0
 16 15  1  0  0  0  0
 16 17  1  0  0  0  0
 16 21  1  0  0  0  0
 16 49  1  1  0  0  0
 17 50  1  0  0  0  0
 17 51  1  0  0  0  0
 18 17  1  0  0  0  0
 18 19  1  0  0  0  0
 18 20  1  0  0  0  0
 18 52  1  6  0  0  0
 19 53  1  0  0  0  0
 19 54  1  0  0  0  0
 20 55  1  0  0  0  0
 20 56  1  0  0  0  0
 21 57  1  0  0  0  0
 21 58  1  0  0  0  0
 22 23  2  0  0  0  0
 22 24  1  0  0  0  0
 24 29  2  0  0  0  0
 24 25  1  0  0  0  0
 25 26  2  0  0  0  0
 25 59  1  0  0  0  0
 26 27  1  0  0  0  0
 26 60  1  0  0  0  0
 27 28  2  0  0  0  0
 27 30  1  0  0  0  0
 28 29  1  0  0  0  0
 28 61  1  0  0  0  0
M  END
$$$$
CHEMBL1224630_5ZTY
 OpenBabel12022418113D

 64 68  0  0  1  0  0  0  0  0999 V2000
    4.8675   -6.7710    3.9836 C   0  0  0  0  0  0  0  0  0  0  0  0
    4.4316   -5.8767    2.8336 C   0  0  0  0  0  0  0  0  0  0  0  0
    4.9942   -4.4666    2.9905 C   0  0  0  0  0  0  0  0  0  0  0  0
    4.5705   -3.5553    1.8361 C   0  0  0  0  0  0  0  0  0  0  0  0
    5.1241   -2.1415    1.9981 C   0  0  0  0  0  0  0  0  0  0  0  0
    6.6264   -2.1343    1.9829 C   0  0  0  0  0  0  0  0  0  0  0  0
    7.3017   -2.5359    0.9474 N   0  0  0  0  0  0  0  0  0  0  0  0
    8.6278   -2.4071    1.2770 N   0  0  0  0  0  0  0  0  0  0  0  0
    9.6359   -2.5264    0.3340 C   0  0  0  0  0  0  0  0  0  0  0  0
   10.8293   -2.4013    0.6045 O   0  0  0  0  0  0  0  0  0  0  0  0
    9.1538   -2.7362   -0.9418 N   0  0  0  0  0  0  0  0  0  0  0  0
    9.9732   -2.8473   -2.1501 C   0  0  2  0  0  0  0  0  0  0  0  0
   10.8189   -1.5731   -2.4265 C   0  0  1  0  0  0  0  0  0  0  0  0
   11.7068   -1.7979   -3.6695 C   0  0  0  0  0  0  0  0  0  0  0  0
   10.8374   -2.0700   -4.9054 C   0  0  2  0  0  0  0  0  0  0  0  0
    9.9130   -0.8635   -5.1438 C   0  0  0  0  0  0  0  0  0  0  0  0
    9.0028   -0.6525   -3.9230 C   0  0  2  0  0  0  0  0  0  0  0  0
    9.8813   -0.3773   -2.6905 C   0  0  0  0  0  0  0  0  0  0  0  0
    8.1678   -1.9232   -3.6874 C   0  0  0  0  0  0  0  0  0  0  0  0
    9.0938   -3.1245   -3.4042 C   0  0  1  0  0  0  0  0  0  0  0  0
    9.9940   -3.3292   -4.6431 C   0  0  0  0  0  0  0  0  0  0  0  0
    8.8337   -2.0021    2.6712 C   0  0  0  0  0  0  0  0  0  0  0  0
    7.4319   -1.6225    3.1537 C   0  0  1  0  0  0  0  0  0  0  0  0
    7.2460   -0.1328    3.3557 C   0  0  0  0  0  0  0  0  0  0  0  0
    7.6307    0.7704    2.3530 C   0  0  0  0  0  0  0  0  0  0  0  0
    7.5239    2.1445    2.5500 C   0  0  0  0  0  0  0  0  0  0  0  0
    7.0070    2.6349    3.7464 C   0  0  0  0  0  0  0  0  0  0  0  0
    6.5849    1.7513    4.7373 C   0  0  0  0  0  0  0  0  0  0  0  0
    6.7007    0.3721    4.5460 C   0  0  0  0  0  0  0  0  0  0  0  0
    4.4584   -7.7778    3.8576 H   0  0  0  0  0  0  0  0  0  0  0  0
    4.5142   -6.3768    4.9419 H   0  0  0  0  0  0  0  0  0  0  0  0
    5.9588   -6.8503    4.0274 H   0  0  0  0  0  0  0  0  0  0  0  0
    3.3371   -5.8405    2.7975 H   0  0  0  0  0  0  0  0  0  0  0  0
    4.7757   -6.3123    1.8883 H   0  0  0  0  0  0  0  0  0  0  0  0
    6.0879   -4.5247    3.0381 H   0  0  0  0  0  0  0  0  0  0  0  0
    4.6528   -4.0343    3.9388 H   0  0  0  0  0  0  0  0  0  0  0  0
    3.4761   -3.5024    1.7923 H   0  0  0  0  0  0  0  0  0  0  0  0
    4.9066   -3.9842    0.8839 H   0  0  0  0  0  0  0  0  0  0  0  0
    4.7600   -1.6932    2.9281 H   0  0  0  0  0  0  0  0  0  0  0  0
    4.7833   -1.5114    1.1691 H   0  0  0  0  0  0  0  0  0  0  0  0
    8.1989   -3.0768   -0.9333 H   0  0  0  0  0  0  0  0  0  0  0  0
   10.6457   -3.6967   -1.9821 H   0  0  0  0  0  0  0  0  0  0  0  0
   11.4714   -1.3450   -1.5783 H   0  0  0  0  0  0  0  0  0  0  0  0
   12.3880   -2.6408   -3.5003 H   0  0  0  0  0  0  0  0  0  0  0  0
   12.3338   -0.9147   -3.8451 H   0  0  0  0  0  0  0  0  0  0  0  0
   11.4746   -2.2226   -5.7844 H   0  0  0  0  0  0  0  0  0  0  0  0
    9.3073   -1.0226   -6.0442 H   0  0  0  0  0  0  0  0  0  0  0  0
   10.5127    0.0386   -5.3209 H   0  0  0  0  0  0  0  0  0  0  0  0
    8.3373    0.1993   -4.1010 H   0  0  0  0  0  0  0  0  0  0  0  0
   10.4748    0.5311   -2.8501 H   0  0  0  0  0  0  0  0  0  0  0  0
    9.2476   -0.1871   -1.8164 H   0  0  0  0  0  0  0  0  0  0  0  0
    7.5505   -2.1305   -4.5716 H   0  0  0  0  0  0  0  0  0  0  0  0
    7.4743   -1.7695   -2.8534 H   0  0  0  0  0  0  0  0  0  0  0  0
    8.4864   -4.0236   -3.2464 H   0  0  0  0  0  0  0  0  0  0  0  0
   10.6507   -4.1947   -4.4934 H   0  0  0  0  0  0  0  0  0  0  0  0
    9.3770   -3.5486   -5.5241 H   0  0  0  0  0  0  0  0  0  0  0  0
    9.5724   -1.1944    2.7366 H   0  0  0  0  0  0  0  0  0  0  0  0
    9.2316   -2.8601    3.2247 H   0  0  0  0  0  0  0  0  0  0  0  0
    7.1680   -2.1783    4.0645 H   0  0  0  0  0  0  0  0  0  0  0  0
    8.0372    0.4106    1.4085 H   0  0  0  0  0  0  0  0  0  0  0  0
    7.8566    2.8279    1.7727 H   0  0  0  0  0  0  0  0  0  0  0  0
    6.9396    3.7067    3.9035 H   0  0  0  0  0  0  0  0  0  0  0  0
    6.1763    2.1407    5.6679 H   0  0  0  0  0  0  0  0  0  0  0  0
    6.3716   -0.2956    5.3395 H   0  0  0  0  0  0  0  0  0  0  0  0
  1  2  1  0  0  0  0
  1 30  1  0  0  0  0
  1 31  1  0  0  0  0
  1 32  1  0  0  0  0
  2  3  1  0  0  0  0
  2 33  1  0  0  0  0
  2 34  1  0  0  0  0
  3  4  1  0  0  0  0
  3 35  1  0  0  0  0
  3 36  1  0  0  0  0
  4  5  1  0  0  0  0
  4 37  1  0  0  0  0
  4 38  1  0  0  0  0
  5  6  1  0  0  0  0
  5 39  1  0  0  0  0
  5 40  1  0  0  0  0
  6 23  1  0  0  0  0
  6  7  2  0  0  0  0
  7  8  1  0  0  0  0
  8  9  1  0  0  0  0
  8 22  1  0  0  0  0
  9 10  2  0  0  0  0
  9 11  1  0  0  0  0
 11 41  1  0  0  0  0
 12 11  1  0  0  0  0
 12 13  1  0  0  0  0
 12 20  1  0  0  0  0
 12 42  1  1  0  0  0
 13 14  1  0  0  0  0
 13 18  1  0  0  0  0
 13 43  1  1  0  0  0
 14 44  1  0  0  0  0
 14 45  1  0  0  0  0
 15 14  1  0  0  0  0
 15 16  1  0  0  0  0
 15 21  1  0  0  0  0
 15 46  1  6  0  0  0
 16 47  1  0  0  0  0
 16 48  1  0  0  0  0
 17 16  1  0  0  0  0
 17 18  1  0  0  0  0
 17 19  1  0  0  0  0
 17 49  1  6  0  0  0
 18 50  1  0  0  0  0
 18 51  1  0  0  0  0
 19 52  1  0  0  0  0
 19 53  1  0  0  0  0
 20 19  1  0  0  0  0
 20 21  1  0  0  0  0
 20 54  1  1  0  0  0
 21 55  1  0  0  0  0
 21 56  1  0  0  0  0
 22 23  1  0  0  0  0
 22 57  1  0  0  0  0
 22 58  1  0  0  0  0
 23 24  1  0  0  0  0
 23 59  1  1  0  0  0
 24 29  2  0  0  0  0
 24 25  1  0  0  0  0
 25 26  2  0  0  0  0
 25 60  1  0  0  0  0
 26 27  1  0  0  0  0
 26 61  1  0  0  0  0
 27 28  2  0  0  0  0
 27 62  1  0  0  0  0
 28 29  1  0  0  0  0
 28 63  1  0  0  0  0
 29 64  1  0  0  0  0
M  END
$$$$
CHEMBL1224690_6PT0
 OpenBabel12022418113D

 56 59  0  0  1  0  0  0  0  0999 V2000
    4.2617   -1.7452    0.7546 C   0  0  0  0  0  0  0  0  0  0  0  0
    3.4422   -0.7585    1.3218 C   0  0  0  0  0  0  0  0  0  0  0  0
    3.8343    0.5760    1.3286 C   0  0  0  0  0  0  0  0  0  0  0  0
    5.0476    0.9528    0.7697 C   0  0  0  0  0  0  0  0  0  0  0  0
    5.8986   -0.0034    0.2115 C   0  0  0  0  0  0  0  0  0  0  0  0
    5.5329   -1.3818    0.1966 C   0  0  0  0  0  0  0  0  0  0  0  0
    6.4512   -2.2728   -0.4087 C   0  0  0  0  0  0  0  0  0  0  0  0
    7.6634   -1.8211   -0.9644 C   0  0  0  0  0  0  0  0  0  0  0  0
    7.9934   -0.4747   -0.9279 C   0  0  0  0  0  0  0  0  0  0  0  0
    7.1152    0.4291   -0.3441 C   0  0  0  0  0  0  0  0  0  0  0  0
    3.8173   -3.0955    0.8227 N   0  0  0  0  0  0  0  0  0  0  0  0
    2.6524   -3.5488    0.1966 C   0  0  0  0  0  0  0  0  0  0  0  0
    1.8412   -2.8636   -0.4006 O   0  0  0  0  0  0  0  0  0  0  0  0
    2.5585   -4.9645    0.2380 N   0  0  0  0  0  0  0  0  0  0  0  0
    1.7233   -5.7745   -0.6514 C   0  0  0  0  0  0  0  0  0  0  0  0
    2.1323   -7.2182   -0.3450 C   0  0  1  0  0  0  0  0  0  0  0  0
    3.2236   -6.9644    0.6757 C   0  0  0  0  0  0  0  0  0  0  0  0
    3.4600   -5.7186    0.9623 N   0  0  0  0  0  0  0  0  0  0  0  0
    4.0381   -8.0595    1.3312 C   0  0  0  0  0  0  0  0  0  0  0  0
    4.8605   -8.9345    0.3910 C   0  0  0  0  0  0  0  0  0  0  0  0
    5.8904   -8.1709   -0.4472 C   0  0  0  0  0  0  0  0  0  0  0  0
    6.6606   -9.1483   -1.3405 C   0  0  0  0  0  0  0  0  0  0  0  0
    7.6918   -8.4464   -2.2064 C   0  0  0  0  0  0  0  0  0  0  0  0
    0.9863   -8.0848    0.1270 C   0  0  0  0  0  0  0  0  0  0  0  0
    0.2669   -7.8025    1.2963 C   0  0  0  0  0  0  0  0  0  0  0  0
   -0.7384   -8.6678    1.7392 C   0  0  0  0  0  0  0  0  0  0  0  0
   -1.0699   -9.7962    0.9915 C   0  0  0  0  0  0  0  0  0  0  0  0
   -0.4058  -10.0580   -0.2036 C   0  0  0  0  0  0  0  0  0  0  0  0
    0.6234   -9.2134   -0.6280 C   0  0  0  0  0  0  0  0  0  0  0  0
    2.5083   -1.0349    1.8057 H   0  0  0  0  0  0  0  0  0  0  0  0
    3.1898    1.3279    1.7804 H   0  0  0  0  0  0  0  0  0  0  0  0
    5.3195    2.0047    0.7707 H   0  0  0  0  0  0  0  0  0  0  0  0
    6.2294   -3.3317   -0.4802 H   0  0  0  0  0  0  0  0  0  0  0  0
    8.3460   -2.5276   -1.4309 H   0  0  0  0  0  0  0  0  0  0  0  0
    8.9297   -0.1198   -1.3549 H   0  0  0  0  0  0  0  0  0  0  0  0
    7.3823    1.4850   -0.3310 H   0  0  0  0  0  0  0  0  0  0  0  0
    4.4994   -3.8373    0.8986 H   0  0  0  0  0  0  0  0  0  0  0  0
    1.9823   -5.5004   -1.6793 H   0  0  0  0  0  0  0  0  0  0  0  0
    0.6648   -5.5561   -0.5031 H   0  0  0  0  0  0  0  0  0  0  0  0
    2.6000   -7.6720   -1.2266 H   0  0  0  0  0  0  0  0  0  0  0  0
    3.3543   -8.6929    1.9054 H   0  0  0  0  0  0  0  0  0  0  0  0
    4.7124   -7.5846    2.0569 H   0  0  0  0  0  0  0  0  0  0  0  0
    4.1939   -9.4999   -0.2674 H   0  0  0  0  0  0  0  0  0  0  0  0
    5.4050   -9.6734    0.9956 H   0  0  0  0  0  0  0  0  0  0  0  0
    6.5927   -7.6434    0.2100 H   0  0  0  0  0  0  0  0  0  0  0  0
    5.3909   -7.4161   -1.0649 H   0  0  0  0  0  0  0  0  0  0  0  0
    5.9587   -9.6889   -1.9867 H   0  0  0  0  0  0  0  0  0  0  0  0
    7.1677   -9.8972   -0.7206 H   0  0  0  0  0  0  0  0  0  0  0  0
    7.2207   -7.6966   -2.8483 H   0  0  0  0  0  0  0  0  0  0  0  0
    8.1997   -9.1740   -2.8487 H   0  0  0  0  0  0  0  0  0  0  0  0
    8.4493   -7.9517   -1.5907 H   0  0  0  0  0  0  0  0  0  0  0  0
    0.4831   -6.9112    1.8843 H   0  0  0  0  0  0  0  0  0  0  0  0
   -1.2515   -8.4685    2.6752 H   0  0  0  0  0  0  0  0  0  0  0  0
   -1.8446  -10.4731    1.3423 H   0  0  0  0  0  0  0  0  0  0  0  0
   -0.6734  -10.9301   -0.7963 H   0  0  0  0  0  0  0  0  0  0  0  0
    1.1397   -9.4514   -1.5556 H   0  0  0  0  0  0  0  0  0  0  0  0
  1  6  2  0  0  0  0
  1  2  1  0  0  0  0
  1 11  1  0  0  0  0
  2  3  2  0  0  0  0
  2 30  1  0  0  0  0
  3  4  1  0  0  0  0
  3 31  1  0  0  0  0
  4  5  2  0  0  0  0
  4 32  1  0  0  0  0
  5 10  1  0  0  0  0
  5  6  1  0  0  0  0
  6  7  1  0  0  0  0
  7  8  2  0  0  0  0
  7 33  1  0  0  0  0
  8  9  1  0  0  0  0
  8 34  1  0  0  0  0
  9 10  2  0  0  0  0
  9 35  1  0  0  0  0
 10 36  1  0  0  0  0
 11 12  1  0  0  0  0
 11 37  1  0  0  0  0
 12 13  2  0  0  0  0
 12 14  1  0  0  0  0
 14 18  1  0  0  0  0
 14 15  1  0  0  0  0
 15 16  1  0  0  0  0
 15 38  1  0  0  0  0
 15 39  1  0  0  0  0
 16 17  1  0  0  0  0
 16 24  1  0  0  0  0
 16 40  1  6  0  0  0
 17 18  2  0  0  0  0
 17 19  1  0  0  0  0
 19 20  1  0  0  0  0
 19 41  1  0  0  0  0
 19 42  1  0  0  0  0
 20 21  1  0  0  0  0
 20 43  1  0  0  0  0
 20 44  1  0  0  0  0
 21 22  1  0  0  0  0
 21 45  1  0  0  0  0
 21 46  1  0  0  0  0
 22 23  1  0  0  0  0
 22 47  1  0  0  0  0
 22 48  1  0  0  0  0
 23 49  1  0  0  0  0
 23 50  1  0  0  0  0
 23 51  1  0  0  0  0
 24 29  2  0  0  0  0
 24 25  1  0  0  0  0
 25 26  2  0  0  0  0
 25 52  1  0  0  0  0
 26 27  1  0  0  0  0
 26 53  1  0  0  0  0
 27 28  2  0  0  0  0
 27 54  1  0  0  0  0
 28 29  1  0  0  0  0
 28 55  1  0  0  0  0
 29 56  1  0  0  0  0
M  END
$$$$
CHEMBL502276_5ZTY
 OpenBabel12022418113D

 70 74  0  0  1  0  0  0  0  0999 V2000
    0.9686   -0.0287    0.0129 C   0  0  0  0  0  0  0  0  0  0  0  0
    2.4893   -0.0193   -0.0046 C   0  0  0  0  0  0  0  0  0  0  0  0
    3.0307    0.6868   -1.2479 C   0  0  0  0  0  0  0  0  0  0  0  0
    4.5623    0.6952   -1.2665 C   0  0  0  0  0  0  0  0  0  0  0  0
    5.1006    1.3477   -2.5467 C   0  0  0  0  0  0  0  0  0  0  0  0
    6.5792    1.4213   -2.5323 N   0  0  0  0  0  0  0  0  0  0  0  0
    7.3383    0.2572   -2.6425 C   0  0  0  0  0  0  0  0  0  0  0  0
    8.6772    0.1554   -2.7015 C   0  0  0  0  0  0  0  0  0  0  0  0
    9.2815   -1.2065   -2.8142 C   0  0  0  0  0  0  0  0  0  0  0  0
    8.5593   -2.2023   -2.8272 O   0  0  0  0  0  0  0  0  0  0  0  0
   10.6584   -1.2719   -2.9050 N   0  0  0  0  0  0  0  0  0  0  0  0
   11.4116   -2.5308   -3.0401 C   0  0  1  0  0  0  0  0  0  0  0  0
   11.1731   -3.4488   -1.8119 C   0  0  0  0  0  0  0  0  0  0  0  0
   11.9177   -4.7825   -1.9683 C   0  0  2  0  0  0  0  0  0  0  0  0
   13.4254   -4.5062   -2.0524 C   0  0  0  0  0  0  0  0  0  0  0  0
   13.7228   -3.6026   -3.2605 C   0  0  1  0  0  0  0  0  0  0  0  0
   13.2739   -4.3347   -4.5359 C   0  0  0  0  0  0  0  0  0  0  0  0
   11.7625   -4.5987   -4.4797 C   0  0  1  0  0  0  0  0  0  0  0  0
   11.4396   -5.4733   -3.2568 C   0  0  0  0  0  0  0  0  0  0  0  0
   11.0185   -3.2618   -4.3500 C   0  0  0  0  0  0  0  0  0  0  0  0
   12.9456   -2.2706   -3.1193 C   0  0  0  0  0  0  0  0  0  0  0  0
    9.4341    1.4213   -2.6672 C   0  0  0  0  0  0  0  0  0  0  0  0
   10.6641    1.4255   -2.6932 O   0  0  0  0  0  0  0  0  0  0  0  0
    8.6638    2.6931   -2.6166 C   0  0  0  0  0  0  0  0  0  0  0  0
    9.3831    3.8973   -2.6792 C   0  0  0  0  0  0  0  0  0  0  0  0
    8.7205    5.1267   -2.6734 C   0  0  0  0  0  0  0  0  0  0  0  0
    7.3280    5.1182   -2.5510 C   0  0  0  0  0  0  0  0  0  0  0  0
    6.6117    3.9128   -2.4813 C   0  0  0  0  0  0  0  0  0  0  0  0
    7.2520    2.6645   -2.5371 C   0  0  0  0  0  0  0  0  0  0  0  0
    9.5096    6.4131   -2.8300 C   0  0  0  0  0  0  0  0  0  0  0  0
    9.0772    7.1755   -4.0862 C   0  0  0  0  0  0  0  0  0  0  0  0
    9.4154    7.3047   -1.5908 C   0  0  0  0  0  0  0  0  0  0  0  0
    0.6023   -0.5416    0.9078 H   0  0  0  0  0  0  0  0  0  0  0  0
    0.5691   -0.5489   -0.8636 H   0  0  0  0  0  0  0  0  0  0  0  0
    0.5699    0.9908    0.0187 H   0  0  0  0  0  0  0  0  0  0  0  0
    2.8542   -1.0526    0.0254 H   0  0  0  0  0  0  0  0  0  0  0  0
    2.8568    0.4813    0.8986 H   0  0  0  0  0  0  0  0  0  0  0  0
    2.6576    1.7179   -1.2758 H   0  0  0  0  0  0  0  0  0  0  0  0
    2.6541    0.1830   -2.1467 H   0  0  0  0  0  0  0  0  0  0  0  0
    4.9267   -0.3363   -1.1912 H   0  0  0  0  0  0  0  0  0  0  0  0
    4.9402    1.2308   -0.3873 H   0  0  0  0  0  0  0  0  0  0  0  0
    4.6142    2.3161   -2.6775 H   0  0  0  0  0  0  0  0  0  0  0  0
    4.7860    0.7588   -3.4187 H   0  0  0  0  0  0  0  0  0  0  0  0
    6.7268   -0.6426   -2.6841 H   0  0  0  0  0  0  0  0  0  0  0  0
   11.1713   -0.3889   -2.8831 H   0  0  0  0  0  0  0  0  0  0  0  0
   10.1082   -3.6581   -1.6689 H   0  0  0  0  0  0  0  0  0  0  0  0
   11.5081   -2.9405   -0.8972 H   0  0  0  0  0  0  0  0  0  0  0  0
   11.7084   -5.4248   -1.1055 H   0  0  0  0  0  0  0  0  0  0  0  0
   13.9731   -5.4528   -2.1436 H   0  0  0  0  0  0  0  0  0  0  0  0
   13.7738   -4.0262   -1.1299 H   0  0  0  0  0  0  0  0  0  0  0  0
   14.7994   -3.4038   -3.3126 H   0  0  0  0  0  0  0  0  0  0  0  0
   13.8124   -5.2863   -4.6344 H   0  0  0  0  0  0  0  0  0  0  0  0
   13.5221   -3.7374   -5.4211 H   0  0  0  0  0  0  0  0  0  0  0  0
   11.4422   -5.1088   -5.3951 H   0  0  0  0  0  0  0  0  0  0  0  0
   10.3588   -5.6551   -3.2042 H   0  0  0  0  0  0  0  0  0  0  0  0
   11.9229   -6.4521   -3.3593 H   0  0  0  0  0  0  0  0  0  0  0  0
   11.2475   -2.6229   -5.2141 H   0  0  0  0  0  0  0  0  0  0  0  0
    9.9414   -3.4527   -4.3926 H   0  0  0  0  0  0  0  0  0  0  0  0
   13.2901   -1.7383   -2.2230 H   0  0  0  0  0  0  0  0  0  0  0  0
   13.1786   -1.6196   -3.9722 H   0  0  0  0  0  0  0  0  0  0  0  0
   10.4690    3.8667   -2.7548 H   0  0  0  0  0  0  0  0  0  0  0  0
    6.7735    6.0553   -2.5272 H   0  0  0  0  0  0  0  0  0  0  0  0
    5.5353    4.0093   -2.3969 H   0  0  0  0  0  0  0  0  0  0  0  0
   10.5699    6.1584   -2.9611 H   0  0  0  0  0  0  0  0  0  0  0  0
    8.0250    7.4770   -4.0428 H   0  0  0  0  0  0  0  0  0  0  0  0
    9.2082    6.5554   -4.9803 H   0  0  0  0  0  0  0  0  0  0  0  0
    9.6773    8.0822   -4.2159 H   0  0  0  0  0  0  0  0  0  0  0  0
    8.3910    7.6444   -1.4058 H   0  0  0  0  0  0  0  0  0  0  0  0
   10.0449    8.1938   -1.7109 H   0  0  0  0  0  0  0  0  0  0  0  0
    9.7594    6.7715   -0.6976 H   0  0  0  0  0  0  0  0  0  0  0  0
  1  2  1  0  0  0  0
  1 33  1  0  0  0  0
  1 34  1  0  0  0  0
  1 35  1  0  0  0  0
  2  3  1  0  0  0  0
  2 36  1  0  0  0  0
  2 37  1  0  0  0  0
  3  4  1  0  0  0  0
  3 38  1  0  0  0  0
  3 39  1  0  0  0  0
  4  5  1  0  0  0  0
  4 40  1  0  0  0  0
  4 41  1  0  0  0  0
  5  6  1  0  0  0  0
  5 42  1  0  0  0  0
  5 43  1  0  0  0  0
  6 29  1  0  0  0  0
  6  7  1  0  0  0  0
  7  8  2  0  0  0  0
  7 44  1  0  0  0  0
  8  9  1  0  0  0  0
  8 22  1  0  0  0  0
  9 10  2  0  0  0  0
  9 11  1  0  0  0  0
 11 45  1  0  0  0  0
 12 11  1  1  0  0  0
 12 20  1  0  0  0  0
 12 21  1  0  0  0  0
 12 13  1  0  0  0  0
 13 46  1  0  0  0  0
 13 47  1  0  0  0  0
 14 13  1  0  0  0  0
 14 15  1  0  0  0  0
 14 19  1  0  0  0  0
 14 48  1  1  0  0  0
 15 49  1  0  0  0  0
 15 50  1  0  0  0  0
 16 15  1  0  0  0  0
 16 17  1  0  0  0  0
 16 21  1  0  0  0  0
 16 51  1  6  0  0  0
 17 52  1  0  0  0  0
 17 53  1  0  0  0  0
 18 17  1  0  0  0  0
 18 19  1  0  0  0  0
 18 20  1  0  0  0  0
 18 54  1  6  0  0  0
 19 55  1  0  0  0  0
 19 56  1  0  0  0  0
 20 57  1  0  0  0  0
 20 58  1  0  0  0  0
 21 59  1  0  0  0  0
 21 60  1  0  0  0  0
 22 23  2  0  0  0  0
 22 24  1  0  0  0  0
 24 29  2  0  0  0  0
 24 25  1  0  0  0  0
 25 26  2  0  0  0  0
 25 61  1  0  0  0  0
 26 27  1  0  0  0  0
 26 30  1  0  0  0  0
 27 28  2  0  0  0  0
 27 62  1  0  0  0  0
 28 29  1  0  0  0  0
 28 63  1  0  0  0  0
 30 31  1  0  0  0  0
 30 32  1  0  0  0  0
 30 64  1  0  0  0  0
 31 65  1  0  0  0  0
 31 66  1  0  0  0  0
 31 67  1  0  0  0  0
 32 68  1  0  0  0  0
 32 69  1  0  0  0  0
 32 70  1  0  0  0  0
M  END
$$$$
CHEMBL3353431_5ZTY
 OpenBabel12022418113D

 58 60  0  0  1  0  0  0  0  0999 V2000
   12.9973    3.3412   -3.7626 C   0  0  0  0  0  0  0  0  0  0  0  0
   12.4636    4.5890   -3.5158 C   0  0  0  0  0  0  0  0  0  0  0  0
   11.3315    4.7946   -2.8046 N   0  0  0  0  0  0  0  0  0  0  0  0
   10.6907    3.7100   -2.3131 C   0  0  0  0  0  0  0  0  0  0  0  0
   11.1251    2.4157   -2.5763 C   0  0  0  0  0  0  0  0  0  0  0  0
   12.3043    2.2335   -3.2996 C   0  0  0  0  0  0  0  0  0  0  0  0
   10.3317    1.2793   -2.1522 C   0  0  0  0  0  0  0  0  0  0  0  0
    9.2659    1.4323   -1.3495 C   0  0  0  0  0  0  0  0  0  0  0  0
    8.9168    2.8110   -0.8553 C   0  0  0  0  0  0  0  0  0  0  0  0
    8.0628    2.9458    0.0243 O   0  0  0  0  0  0  0  0  0  0  0  0
    9.5760    3.8989   -1.4571 N   0  0  0  0  0  0  0  0  0  0  0  0
    9.1260    5.2886   -1.2660 C   0  0  0  0  0  0  0  0  0  0  0  0
    9.6533    6.0339   -0.0325 C   0  0  0  0  0  0  0  0  0  0  0  0
   11.1605    6.1128    0.2043 C   0  0  0  0  0  0  0  0  0  0  0  0
   12.0601    6.9272   -0.7222 C   0  0  0  0  0  0  0  0  0  0  0  0
   13.2675    6.7163   -0.7857 O   0  0  0  0  0  0  0  0  0  0  0  0
   11.4386    7.9856   -1.2961 O   0  0  0  0  0  0  0  0  0  0  0  0
   12.3127    8.9552   -1.9080 C   0  0  0  0  0  0  0  0  0  0  0  0
   12.7542    8.5436   -3.3024 C   0  0  0  0  0  0  0  0  0  0  0  0
    8.5058    0.1534   -1.1047 C   0  0  0  0  0  0  0  0  0  0  0  0
    8.6941   -0.8307   -1.8231 O   0  0  0  0  0  0  0  0  0  0  0  0
    7.6108    0.1112   -0.0708 N   0  0  0  0  0  0  0  0  0  0  0  0
    6.8058   -1.0912    0.2314 C   0  0  1  0  0  0  0  0  0  0  0  0
    7.4970   -1.9735    1.2875 C   0  0  0  0  0  0  0  0  0  0  0  0
    6.5875   -3.0249    1.9215 C   0  0  0  0  0  0  0  0  0  0  0  0
    5.2872   -2.4145    2.4476 C   0  0  1  0  0  0  0  0  0  0  0  0
    4.5387   -1.6961    1.3296 C   0  0  0  0  0  0  0  0  0  0  0  0
    5.3866   -0.6524    0.6068 C   0  0  0  0  0  0  0  0  0  0  0  0
    4.3876   -3.4851    3.0784 C   0  0  0  0  0  0  0  0  0  0  0  0
   13.9299    3.2341   -4.3090 H   0  0  0  0  0  0  0  0  0  0  0  0
   12.9488    5.4865   -3.8837 H   0  0  0  0  0  0  0  0  0  0  0  0
   12.6871    1.2364   -3.4988 H   0  0  0  0  0  0  0  0  0  0  0  0
   10.6046    0.3086   -2.5578 H   0  0  0  0  0  0  0  0  0  0  0  0
    8.0313    5.2579   -1.1823 H   0  0  0  0  0  0  0  0  0  0  0  0
    9.3181    5.8811   -2.1693 H   0  0  0  0  0  0  0  0  0  0  0  0
    9.2209    5.5495    0.8522 H   0  0  0  0  0  0  0  0  0  0  0  0
    9.2387    7.0502   -0.0509 H   0  0  0  0  0  0  0  0  0  0  0  0
   11.5760    5.1048    0.2592 H   0  0  0  0  0  0  0  0  0  0  0  0
   11.3016    6.5725    1.1910 H   0  0  0  0  0  0  0  0  0  0  0  0
   13.1850    9.1574   -1.2693 H   0  0  0  0  0  0  0  0  0  0  0  0
   11.7547    9.8966   -1.9737 H   0  0  0  0  0  0  0  0  0  0  0  0
   13.4302    7.6847   -3.2624 H   0  0  0  0  0  0  0  0  0  0  0  0
   13.2878    9.3609   -3.8004 H   0  0  0  0  0  0  0  0  0  0  0  0
   11.8949    8.2567   -3.9152 H   0  0  0  0  0  0  0  0  0  0  0  0
    7.5276    0.9286    0.5291 H   0  0  0  0  0  0  0  0  0  0  0  0
    6.7309   -1.6929   -0.6814 H   0  0  0  0  0  0  0  0  0  0  0  0
    7.9155   -1.3423    2.0810 H   0  0  0  0  0  0  0  0  0  0  0  0
    8.3517   -2.4848    0.8261 H   0  0  0  0  0  0  0  0  0  0  0  0
    7.1260   -3.5097    2.7475 H   0  0  0  0  0  0  0  0  0  0  0  0
    6.3610   -3.8148    1.1945 H   0  0  0  0  0  0  0  0  0  0  0  0
    5.5409   -1.6880    3.2343 H   0  0  0  0  0  0  0  0  0  0  0  0
    3.6546   -1.1949    1.7439 H   0  0  0  0  0  0  0  0  0  0  0  0
    4.1669   -2.4285    0.6021 H   0  0  0  0  0  0  0  0  0  0  0  0
    4.8630   -0.3569   -0.3121 H   0  0  0  0  0  0  0  0  0  0  0  0
    5.4306    0.2468    1.2296 H   0  0  0  0  0  0  0  0  0  0  0  0
    3.9932   -4.1697    2.3199 H   0  0  0  0  0  0  0  0  0  0  0  0
    3.5338   -3.0195    3.5837 H   0  0  0  0  0  0  0  0  0  0  0  0
    4.9312   -4.0791    3.8200 H   0  0  0  0  0  0  0  0  0  0  0  0
  1  6  2  0  0  0  0
  1  2  1  0  0  0  0
  1 30  1  0  0  0  0
  2  3  2  0  0  0  0
  2 31  1  0  0  0  0
  3  4  1  0  0  0  0
  4 11  1  0  0  0  0
  4  5  2  0  0  0  0
  5  6  1  0  0  0  0
  5  7  1  0  0  0  0
  6 32  1  0  0  0  0
  7  8  2  0  0  0  0
  7 33  1  0  0  0  0
  8  9  1  0  0  0  0
  8 20  1  0  0  0  0
  9 10  2  0  0  0  0
  9 11  1  0  0  0  0
 11 12  1  0  0  0  0
 12 13  1  0  0  0  0
 12 34  1  0  0  0  0
 12 35  1  0  0  0  0
 13 14  1  0  0  0  0
 13 36  1  0  0  0  0
 13 37  1  0  0  0  0
 14 15  1  0  0  0  0
 14 38  1  0  0  0  0
 14 39  1  0  0  0  0
 15 16  2  0  0  0  0
 15 17  1  0  0  0  0
 17 18  1  0  0  0  0
 18 19  1  0  0  0  0
 18 40  1  0  0  0  0
 18 41  1  0  0  0  0
 19 42  1  0  0  0  0
 19 43  1  0  0  0  0
 19 44  1  0  0  0  0
 20 21  2  0  0  0  0
 20 22  1  0  0  0  0
 22 45  1  0  0  0  0
 23 24  1  0  0  0  0
 23 28  1  0  0  0  0
 23 22  1  0  0  0  0
 23 46  1  6  0  0  0
 24 25  1  0  0  0  0
 24 47  1  0  0  0  0
 24 48  1  0  0  0  0
 25 26  1  0  0  0  0
 25 49  1  0  0  0  0
 25 50  1  0  0  0  0
 26 27  1  0  0  0  0
 26 29  1  0  0  0  0
 26 51  1  1  0  0  0
 27 28  1  0  0  0  0
 27 52  1  0  0  0  0
 27 53  1  0  0  0  0
 28 54  1  0  0  0  0
 28 55  1  0  0  0  0
 29 56  1  0  0  0  0
 29 57  1  0  0  0  0
 29 58  1  0  0  0  0
M  END
$$$$
CHEMBL3353428_5ZTY
 OpenBabel12022418113D

 56 58  0  0  1  0  0  0  0  0999 V2000
   12.9405    3.2322   -3.8644 C   0  0  0  0  0  0  0  0  0  0  0  0
   12.4544    4.4835   -3.5482 C   0  0  0  0  0  0  0  0  0  0  0  0
   11.3819    4.6891   -2.7541 N   0  0  0  0  0  0  0  0  0  0  0  0
   10.7613    3.6156   -2.2243 C   0  0  0  0  0  0  0  0  0  0  0  0
   11.1363    2.3196   -2.5603 C   0  0  0  0  0  0  0  0  0  0  0  0
   12.2516    2.1295   -3.3791 C   0  0  0  0  0  0  0  0  0  0  0  0
   10.3387    1.1886   -2.1225 C   0  0  0  0  0  0  0  0  0  0  0  0
    9.3194    1.3634   -1.2680 C   0  0  0  0  0  0  0  0  0  0  0  0
    9.0197    2.7389   -0.7158 C   0  0  0  0  0  0  0  0  0  0  0  0
    8.1708    2.8643    0.1688 O   0  0  0  0  0  0  0  0  0  0  0  0
    9.7192    3.8141   -1.2775 N   0  0  0  0  0  0  0  0  0  0  0  0
    9.3188    5.2142   -1.0354 C   0  0  0  0  0  0  0  0  0  0  0  0
    9.9307    5.9597    0.1661 C   0  0  0  0  0  0  0  0  0  0  0  0
   11.4568    6.0890    0.3439 C   0  0  0  0  0  0  0  0  0  0  0  0
   12.1925    7.0187   -0.6339 C   0  0  0  0  0  0  0  0  0  0  0  0
   13.6337    7.3320   -0.2126 C   0  0  0  0  0  0  0  0  0  0  0  0
   14.4441    6.1648   -0.1871 O   0  0  0  0  0  0  0  0  0  0  0  0
    8.5262    0.1013   -1.0232 C   0  0  0  0  0  0  0  0  0  0  0  0
    8.6198   -0.8610   -1.7882 O   0  0  0  0  0  0  0  0  0  0  0  0
    7.7247    0.0611    0.0813 N   0  0  0  0  0  0  0  0  0  0  0  0
    6.9025   -1.1094    0.4405 C   0  0  1  0  0  0  0  0  0  0  0  0
    7.6562   -2.0203    1.4253 C   0  0  0  0  0  0  0  0  0  0  0  0
    6.7685   -2.9857    2.2135 C   0  0  0  0  0  0  0  0  0  0  0  0
    5.5769   -2.2713    2.8526 C   0  0  1  0  0  0  0  0  0  0  0  0
    4.7365   -1.5910    1.7726 C   0  0  0  0  0  0  0  0  0  0  0  0
    5.5420   -0.6070    0.9356 C   0  0  0  0  0  0  0  0  0  0  0  0
    4.7117   -3.2453    3.6538 C   0  0  0  0  0  0  0  0  0  0  0  0
   13.8253    3.1186   -4.4792 H   0  0  0  0  0  0  0  0  0  0  0  0
   12.9355    5.3850   -3.9180 H   0  0  0  0  0  0  0  0  0  0  0  0
   12.5878    1.1290   -3.6380 H   0  0  0  0  0  0  0  0  0  0  0  0
   10.5588    0.2251   -2.5665 H   0  0  0  0  0  0  0  0  0  0  0  0
    8.2325    5.1982   -0.8713 H   0  0  0  0  0  0  0  0  0  0  0  0
    9.4443    5.8089   -1.9475 H   0  0  0  0  0  0  0  0  0  0  0  0
    9.5399    5.4931    1.0786 H   0  0  0  0  0  0  0  0  0  0  0  0
    9.5143    6.9775    0.1539 H   0  0  0  0  0  0  0  0  0  0  0  0
   11.9169    5.0965    0.3554 H   0  0  0  0  0  0  0  0  0  0  0  0
   11.6096    6.5110    1.3478 H   0  0  0  0  0  0  0  0  0  0  0  0
   11.6496    7.9641   -0.7383 H   0  0  0  0  0  0  0  0  0  0  0  0
   12.2312    6.5626   -1.6202 H   0  0  0  0  0  0  0  0  0  0  0  0
   13.6749    7.8125    0.7706 H   0  0  0  0  0  0  0  0  0  0  0  0
   14.0857    8.0213   -0.9342 H   0  0  0  0  0  0  0  0  0  0  0  0
   14.2059    5.6600    0.6086 H   0  0  0  0  0  0  0  0  0  0  0  0
    7.7210    0.8698    0.7015 H   0  0  0  0  0  0  0  0  0  0  0  0
    6.7261   -1.7001   -0.4698 H   0  0  0  0  0  0  0  0  0  0  0  0
    8.2253   -1.4100    2.1368 H   0  0  0  0  0  0  0  0  0  0  0  0
    8.4034   -2.6079    0.8734 H   0  0  0  0  0  0  0  0  0  0  0  0
    7.3737   -3.4642    2.9947 H   0  0  0  0  0  0  0  0  0  0  0  0
    6.4163   -3.7912    1.5566 H   0  0  0  0  0  0  0  0  0  0  0  0
    5.9577   -1.5088    3.5450 H   0  0  0  0  0  0  0  0  0  0  0  0
    3.9058   -1.0483    2.2409 H   0  0  0  0  0  0  0  0  0  0  0  0
    4.2850   -2.3465    1.1175 H   0  0  0  0  0  0  0  0  0  0  0  0
    4.9418   -0.3160    0.0627 H   0  0  0  0  0  0  0  0  0  0  0  0
    5.6777    0.3099    1.5210 H   0  0  0  0  0  0  0  0  0  0  0  0
    4.2058   -3.9627    2.9985 H   0  0  0  0  0  0  0  0  0  0  0  0
    3.9414   -2.7021    4.2125 H   0  0  0  0  0  0  0  0  0  0  0  0
    5.3122   -3.8093    4.3748 H   0  0  0  0  0  0  0  0  0  0  0  0
  1  6  2  0  0  0  0
  1  2  1  0  0  0  0
  1 28  1  0  0  0  0
  2  3  2  0  0  0  0
  2 29  1  0  0  0  0
  3  4  1  0  0  0  0
  4 11  1  0  0  0  0
  4  5  2  0  0  0  0
  5  6  1  0  0  0  0
  5  7  1  0  0  0  0
  6 30  1  0  0  0  0
  7  8  2  0  0  0  0
  7 31  1  0  0  0  0
  8  9  1  0  0  0  0
  8 18  1  0  0  0  0
  9 10  2  0  0  0  0
  9 11  1  0  0  0  0
 11 12  1  0  0  0  0
 12 13  1  0  0  0  0
 12 32  1  0  0  0  0
 12 33  1  0  0  0  0
 13 14  1  0  0  0  0
 13 34  1  0  0  0  0
 13 35  1  0  0  0  0
 14 15  1  0  0  0  0
 14 36  1  0  0  0  0
 14 37  1  0  0  0  0
 15 16  1  0  0  0  0
 15 38  1  0  0  0  0
 15 39  1  0  0  0  0
 16 17  1  0  0  0  0
 16 40  1  0  0  0  0
 16 41  1  0  0  0  0
 17 42  1  0  0  0  0
 18 19  2  0  0  0  0
 18 20  1  0  0  0  0
 20 43  1  0  0  0  0
 21 22  1  0  0  0  0
 21 26  1  0  0  0  0
 21 20  1  0  0  0  0
 21 44  1  6  0  0  0
 22 23  1  0  0  0  0
 22 45  1  0  0  0  0
 22 46  1  0  0  0  0
 23 24  1  0  0  0  0
 23 47  1  0  0  0  0
 23 48  1  0  0  0  0
 24 25  1  0  0  0  0
 24 27  1  0  0  0  0
 24 49  1  1  0  0  0
 25 26  1  0  0  0  0
 25 50  1  0  0  0  0
 25 51  1  0  0  0  0
 26 52  1  0  0  0  0
 26 53  1  0  0  0  0
 27 54  1  0  0  0  0
 27 55  1  0  0  0  0
 27 56  1  0  0  0  0
M  END
$$$$
CHEMBL3353432_5ZTY
 OpenBabel12022418113D

 58 60  0  0  1  0  0  0  0  0999 V2000
   12.9758    3.1259   -3.8166 C   0  0  0  0  0  0  0  0  0  0  0  0
   12.4105    4.3695   -3.6392 C   0  0  0  0  0  0  0  0  0  0  0  0
   11.2258    4.5631   -3.0269 N   0  0  0  0  0  0  0  0  0  0  0  0
   10.5666    3.4888   -2.5355 C   0  0  0  0  0  0  0  0  0  0  0  0
   11.0314    2.1910   -2.7287 C   0  0  0  0  0  0  0  0  0  0  0  0
   12.2580    2.0136   -3.3781 C   0  0  0  0  0  0  0  0  0  0  0  0
   10.2326    1.0594   -2.2758 C   0  0  0  0  0  0  0  0  0  0  0  0
    9.1204    1.2354   -1.5334 C   0  0  0  0  0  0  0  0  0  0  0  0
    8.7066    2.6354   -1.1677 C   0  0  0  0  0  0  0  0  0  0  0  0
    7.7624    2.7991   -0.3929 O   0  0  0  0  0  0  0  0  0  0  0  0
    9.3992    3.6984   -1.7597 N   0  0  0  0  0  0  0  0  0  0  0  0
    8.9062    5.0813   -1.6564 C   0  0  0  0  0  0  0  0  0  0  0  0
    9.2283    5.8486   -0.3656 C   0  0  0  0  0  0  0  0  0  0  0  0
   10.6907    6.0867    0.0497 C   0  0  0  0  0  0  0  0  0  0  0  0
   11.6202    6.9078   -0.8413 C   0  0  0  0  0  0  0  0  0  0  0  0
   11.2474    8.3497   -1.1116 C   0  0  0  0  0  0  0  0  0  0  0  0
   10.2387    8.9171   -0.7277 O   0  0  0  0  0  0  0  0  0  0  0  0
   12.2291    8.9130   -1.8808 O   0  0  0  0  0  0  0  0  0  0  0  0
   11.9923   10.2654   -2.2812 C   0  0  0  0  0  0  0  0  0  0  0  0
    8.3719   -0.0284   -1.1531 C   0  0  0  0  0  0  0  0  0  0  0  0
    8.6955   -1.1115   -1.6329 O   0  0  0  0  0  0  0  0  0  0  0  0
    7.3247    0.0848   -0.2651 N   0  0  0  0  0  0  0  0  0  0  0  0
    6.5091   -1.0433    0.2380 C   0  0  1  0  0  0  0  0  0  0  0  0
    5.6476   -1.6811   -0.8635 C   0  0  0  0  0  0  0  0  0  0  0  0
    4.9432   -2.9696   -0.4310 C   0  0  0  0  0  0  0  0  0  0  0  0
    5.8978   -4.0187    0.1393 C   0  0  2  0  0  0  0  0  0  0  0  0
    6.6879   -3.4219    1.3074 C   0  0  0  0  0  0  0  0  0  0  0  0
    7.3351   -2.0530    1.0613 C   0  0  0  0  0  0  0  0  0  0  0  0
    6.7653   -4.6560   -0.9491 C   0  0  0  0  0  0  0  0  0  0  0  0
   13.9470    3.0236   -4.2875 H   0  0  0  0  0  0  0  0  0  0  0  0
   12.9143    5.2764   -3.9699 H   0  0  0  0  0  0  0  0  0  0  0  0
   12.6715    1.0215   -3.5307 H   0  0  0  0  0  0  0  0  0  0  0  0
   10.5558    0.0703   -2.5886 H   0  0  0  0  0  0  0  0  0  0  0  0
    7.8109    5.0192   -1.7240 H   0  0  0  0  0  0  0  0  0  0  0  0
    9.2029    5.6714   -2.5314 H   0  0  0  0  0  0  0  0  0  0  0  0
    8.7460    5.3175    0.4647 H   0  0  0  0  0  0  0  0  0  0  0  0
    8.7221    6.8198   -0.4268 H   0  0  0  0  0  0  0  0  0  0  0  0
   11.1609    5.1114    0.2190 H   0  0  0  0  0  0  0  0  0  0  0  0
   10.6581    6.5811    1.0309 H   0  0  0  0  0  0  0  0  0  0  0  0
   11.7582    6.4392   -1.8082 H   0  0  0  0  0  0  0  0  0  0  0  0
   12.6019    6.9361   -0.3446 H   0  0  0  0  0  0  0  0  0  0  0  0
   12.8994   10.6392   -2.7666 H   0  0  0  0  0  0  0  0  0  0  0  0
   11.7764   10.9052   -1.4199 H   0  0  0  0  0  0  0  0  0  0  0  0
   11.1755   10.2999   -3.0088 H   0  0  0  0  0  0  0  0  0  0  0  0
    7.1218    1.0192    0.0902 H   0  0  0  0  0  0  0  0  0  0  0  0
    5.8074   -0.5741    0.9416 H   0  0  0  0  0  0  0  0  0  0  0  0
    6.2419   -1.8799   -1.7600 H   0  0  0  0  0  0  0  0  0  0  0  0
    4.8794   -0.9590   -1.1696 H   0  0  0  0  0  0  0  0  0  0  0  0
    4.3939   -3.3904   -1.2819 H   0  0  0  0  0  0  0  0  0  0  0  0
    4.1906   -2.7320    0.3325 H   0  0  0  0  0  0  0  0  0  0  0  0
    5.2900   -4.8380    0.5489 H   0  0  0  0  0  0  0  0  0  0  0  0
    7.4576   -4.1292    1.6428 H   0  0  0  0  0  0  0  0  0  0  0  0
    5.9943   -3.3195    2.1529 H   0  0  0  0  0  0  0  0  0  0  0  0
    7.5331   -1.6014    2.0449 H   0  0  0  0  0  0  0  0  0  0  0  0
    8.3215   -2.2098    0.6166 H   0  0  0  0  0  0  0  0  0  0  0  0
    7.3727   -3.9266   -1.4892 H   0  0  0  0  0  0  0  0  0  0  0  0
    6.1267   -5.1674   -1.6806 H   0  0  0  0  0  0  0  0  0  0  0  0
    7.4348   -5.4145   -0.5269 H   0  0  0  0  0  0  0  0  0  0  0  0
  1  6  2  0  0  0  0
  1  2  1  0  0  0  0
  1 30  1  0  0  0  0
  2  3  2  0  0  0  0
  2 31  1  0  0  0  0
  3  4  1  0  0  0  0
  4 11  1  0  0  0  0
  4  5  2  0  0  0  0
  5  6  1  0  0  0  0
  5  7  1  0  0  0  0
  6 32  1  0  0  0  0
  7  8  2  0  0  0  0
  7 33  1  0  0  0  0
  8  9  1  0  0  0  0
  8 20  1  0  0  0  0
  9 10  2  0  0  0  0
  9 11  1  0  0  0  0
 11 12  1  0  0  0  0
 12 13  1  0  0  0  0
 12 34  1  0  0  0  0
 12 35  1  0  0  0  0
 13 14  1  0  0  0  0
 13 36  1  0  0  0  0
 13 37  1  0  0  0  0
 14 15  1  0  0  0  0
 14 38  1  0  0  0  0
 14 39  1  0  0  0  0
 15 16  1  0  0  0  0
 15 40  1  0  0  0  0
 15 41  1  0  0  0  0
 16 17  2  0  0  0  0
 16 18  1  0  0  0  0
 18 19  1  0  0  0  0
 19 42  1  0  0  0  0
 19 43  1  0  0  0  0
 19 44  1  0  0  0  0
 20 21  2  0  0  0  0
 20 22  1  0  0  0  0
 22 45  1  0  0  0  0
 23 24  1  0  0  0  0
 23 28  1  0  0  0  0
 23 22  1  0  0  0  0
 23 46  1  1  0  0  0
 24 25  1  0  0  0  0
 24 47  1  0  0  0  0
 24 48  1  0  0  0  0
 25 26  1  0  0  0  0
 25 49  1  0  0  0  0
 25 50  1  0  0  0  0
 26 27  1  0  0  0  0
 26 29  1  0  0  0  0
 26 51  1  1  0  0  0
 27 28  1  0  0  0  0
 27 52  1  0  0  0  0
 27 53  1  0  0  0  0
 28 54  1  0  0  0  0
 28 55  1  0  0  0  0
 29 56  1  0  0  0  0
 29 57  1  0  0  0  0
 29 58  1  0  0  0  0
M  END
$$$$
CHEMBL497304_8GUT
 OpenBabel12022418113D

 53 56  0  0  0  0  0  0  0  0999 V2000
    1.0008   -0.1766   -0.0208 C   0  0  0  0  0  0  0  0  0  0  0  0
    2.4958   -0.1095    0.0629 C   0  0  0  0  0  0  0  0  0  0  0  0
    3.1127    1.1367    0.0586 C   0  0  0  0  0  0  0  0  0  0  0  0
    4.4861    1.1927    0.1891 C   0  0  0  0  0  0  0  0  0  0  0  0
    5.1977   -0.0019    0.2779 C   0  0  0  0  0  0  0  0  0  0  0  0
    6.6591    0.0464    0.4163 C   0  0  0  0  0  0  0  0  0  0  0  0
    7.2228    1.0928    0.7452 O   0  0  0  0  0  0  0  0  0  0  0  0
    7.4141   -1.1788    0.0887 C   0  0  0  0  0  0  0  0  0  0  0  0
    8.8917   -1.1846   -0.1593 C   0  0  0  0  0  0  0  0  0  0  0  0
    9.4633   -2.2233   -0.4670 O   0  0  0  0  0  0  0  0  0  0  0  0
    9.5288    0.0253   -0.0443 N   0  0  0  0  0  0  0  0  0  0  0  0
   10.9614    0.1816   -0.2531 C   0  0  0  0  0  0  0  0  0  0  0  0
   11.2725    1.5717   -0.8299 C   0  0  0  0  0  0  0  0  0  0  0  0
   12.7715    1.8271   -0.9579 C   0  0  0  0  0  0  0  0  0  0  0  0
   13.4844    1.6204    0.3712 C   0  0  0  0  0  0  0  0  0  0  0  0
   13.2186    0.2225    0.9194 C   0  0  0  0  0  0  0  0  0  0  0  0
   11.7224   -0.0526    1.0595 C   0  0  0  0  0  0  0  0  0  0  0  0
    6.6970   -2.3067   -0.0124 C   0  0  0  0  0  0  0  0  0  0  0  0
    5.3175   -2.4213    0.1618 N   0  0  0  0  0  0  0  0  0  0  0  0
    4.5676   -3.6954    0.1590 C   0  0  0  0  0  0  0  0  0  0  0  0
    4.5132   -4.2987    1.5552 C   0  0  0  0  0  0  0  0  0  0  0  0
    5.5915   -5.0511    2.0514 C   0  0  0  0  0  0  0  0  0  0  0  0
    5.6442   -5.4037    3.4023 C   0  0  0  0  0  0  0  0  0  0  0  0
    4.6096   -5.0308    4.2511 C   0  0  0  0  0  0  0  0  0  0  0  0
    3.4967   -4.3552    3.7670 C   0  0  0  0  0  0  0  0  0  0  0  0
    3.4412   -4.0001    2.4167 C   0  0  0  0  0  0  0  0  0  0  0  0
    4.7003   -5.3009    5.5605 F   0  0  0  0  0  0  0  0  0  0  0  0
    4.5374   -1.2354    0.2111 C   0  0  0  0  0  0  0  0  0  0  0  0
    3.1858   -1.2788    0.1319 N   0  0  0  0  0  0  0  0  0  0  0  0
    0.6436   -1.2011    0.1201 H   0  0  0  0  0  0  0  0  0  0  0  0
    0.6621    0.1820   -0.9974 H   0  0  0  0  0  0  0  0  0  0  0  0
    0.5577    0.4487    0.7611 H   0  0  0  0  0  0  0  0  0  0  0  0
    2.5339    2.0494   -0.0348 H   0  0  0  0  0  0  0  0  0  0  0  0
    5.0021    2.1484    0.2109 H   0  0  0  0  0  0  0  0  0  0  0  0
    9.0008    0.8203    0.3172 H   0  0  0  0  0  0  0  0  0  0  0  0
   11.2675   -0.5792   -0.9821 H   0  0  0  0  0  0  0  0  0  0  0  0
   10.8284    2.3454   -0.1897 H   0  0  0  0  0  0  0  0  0  0  0  0
   10.8166    1.6888   -1.8199 H   0  0  0  0  0  0  0  0  0  0  0  0
   12.9399    2.8497   -1.3136 H   0  0  0  0  0  0  0  0  0  0  0  0
   13.1951    1.1521   -1.7117 H   0  0  0  0  0  0  0  0  0  0  0  0
   13.1388    2.3716    1.0925 H   0  0  0  0  0  0  0  0  0  0  0  0
   14.5618    1.7726    0.2409 H   0  0  0  0  0  0  0  0  0  0  0  0
   13.7061    0.1138    1.8945 H   0  0  0  0  0  0  0  0  0  0  0  0
   13.6664   -0.5234    0.2514 H   0  0  0  0  0  0  0  0  0  0  0  0
   11.5716   -1.0825    1.4051 H   0  0  0  0  0  0  0  0  0  0  0  0
   11.3120    0.5979    1.8431 H   0  0  0  0  0  0  0  0  0  0  0  0
    7.1807   -3.2470   -0.2897 H   0  0  0  0  0  0  0  0  0  0  0  0
    5.0433   -4.4077   -0.5280 H   0  0  0  0  0  0  0  0  0  0  0  0
    3.5469   -3.5750   -0.2219 H   0  0  0  0  0  0  0  0  0  0  0  0
    6.4249   -5.3138    1.4037 H   0  0  0  0  0  0  0  0  0  0  0  0
    6.5068   -5.9243    3.8057 H   0  0  0  0  0  0  0  0  0  0  0  0
    2.7072   -4.0637    4.4522 H   0  0  0  0  0  0  0  0  0  0  0  0
    2.5874   -3.4307    2.0531 H   0  0  0  0  0  0  0  0  0  0  0  0
  1  2  1  0  0  0  0
  1 30  1  0  0  0  0
  1 31  1  0  0  0  0
  1 32  1  0  0  0  0
  2 29  2  0  0  0  0
  2  3  1  0  0  0  0
  3  4  2  0  0  0  0
  3 33  1  0  0  0  0
  4  5  1  0  0  0  0
  4 34  1  0  0  0  0
  5 28  2  0  0  0  0
  5  6  1  0  0  0  0
  6  7  2  0  0  0  0
  6  8  1  0  0  0  0
  8  9  1  0  0  0  0
  8 18  2  0  0  0  0
  9 10  2  0  0  0  0
  9 11  1  0  0  0  0
 11 12  1  0  0  0  0
 11 35  1  0  0  0  0
 12 17  1  0  0  0  0
 12 13  1  0  0  0  0
 12 36  1  0  0  0  0
 13 14  1  0  0  0  0
 13 37  1  0  0  0  0
 13 38  1  0  0  0  0
 14 15  1  0  0  0  0
 14 39  1  0  0  0  0
 14 40  1  0  0  0  0
 15 16  1  0  0  0  0
 15 41  1  0  0  0  0
 15 42  1  0  0  0  0
 16 17  1  0  0  0  0
 16 43  1  0  0  0  0
 16 44  1  0  0  0  0
 17 45  1  0  0  0  0
 17 46  1  0  0  0  0
 18 19  1  0  0  0  0
 18 47  1  0  0  0  0
 19 20  1  0  0  0  0
 19 28  1  0  0  0  0
 20 21  1  0  0  0  0
 20 48  1  0  0  0  0
 20 49  1  0  0  0  0
 21 26  2  0  0  0  0
 21 22  1  0  0  0  0
 22 23  2  0  0  0  0
 22 50  1  0  0  0  0
 23 24  1  0  0  0  0
 23 51  1  0  0  0  0
 24 25  2  0  0  0  0
 24 27  1  0  0  0  0
 25 26  1  0  0  0  0
 25 52  1  0  0  0  0
 26 53  1  0  0  0  0
 28 29  1  0  0  0  0
M  END
$$$$
CHEMBL3354952_8GUQ
 OpenBabel12022418113D

 44 47  0  0  1  0  0  0  0  0999 V2000
    1.9865    0.4464    2.0439 C   0  0  0  0  0  0  0  0  0  0  0  0
    3.0071    0.2237    0.9110 C   0  0  0  0  0  0  0  0  0  0  0  0
    4.1332   -0.6685    1.4718 C   0  0  0  0  0  0  0  0  0  0  0  0
    2.2880   -0.4942   -0.2698 C   0  0  0  0  0  0  0  0  0  0  0  0
    1.7485   -1.7610    0.1077 O   0  0  0  0  0  0  0  0  0  0  0  0
    3.5483    1.5332    0.4913 N   0  0  0  0  0  0  0  0  0  0  0  0
    4.4927    1.6855   -0.5030 C   0  0  0  0  0  0  0  0  0  0  0  0
    4.9646    0.7354   -1.1227 O   0  0  0  0  0  0  0  0  0  0  0  0
    4.9030    3.0688   -0.7960 C   0  0  0  0  0  0  0  0  0  0  0  0
    5.8761    3.4304   -1.7420 C   0  0  0  0  0  0  0  0  0  0  0  0
    5.9416    4.7904   -1.7087 C   0  0  0  0  0  0  0  0  0  0  0  0
    7.1219    5.3048   -2.4978 C   0  0  1  0  0  0  0  0  0  0  0  0
    7.7975    3.9918   -2.9728 C   0  0  1  0  0  0  0  0  0  0  0  0
    6.9172    2.7891   -2.5804 C   0  0  0  0  0  0  0  0  0  0  0  0
    7.3035    4.9939   -3.9626 C   0  0  0  0  0  0  0  0  0  0  0  0
    5.0531    5.2380   -0.7856 N   0  0  0  0  0  0  0  0  0  0  0  0
    4.7263    6.5814   -0.4988 C   0  0  0  0  0  0  0  0  0  0  0  0
    4.7536    7.5433   -1.5177 C   0  0  0  0  0  0  0  0  0  0  0  0
    4.4127    8.8665   -1.2599 C   0  0  0  0  0  0  0  0  0  0  0  0
    4.0733    9.2326    0.0370 C   0  0  0  0  0  0  0  0  0  0  0  0
    4.0557    8.2965    1.0648 C   0  0  0  0  0  0  0  0  0  0  0  0
    4.3587    6.9574    0.7986 C   0  0  0  0  0  0  0  0  0  0  0  0
    3.7532   10.5084    0.2917 F   0  0  0  0  0  0  0  0  0  0  0  0
    5.0244    7.2110   -2.7876 F   0  0  0  0  0  0  0  0  0  0  0  0
    4.4361    4.1739   -0.1523 N   0  0  0  0  0  0  0  0  0  0  0  0
    1.5808   -0.5026    2.4137 H   0  0  0  0  0  0  0  0  0  0  0  0
    1.1450    1.0592    1.7022 H   0  0  0  0  0  0  0  0  0  0  0  0
    2.4458    0.9633    2.8940 H   0  0  0  0  0  0  0  0  0  0  0  0
    3.7407   -1.6055    1.8825 H   0  0  0  0  0  0  0  0  0  0  0  0
    4.6755   -0.1563    2.2748 H   0  0  0  0  0  0  0  0  0  0  0  0
    4.8653   -0.9366    0.7035 H   0  0  0  0  0  0  0  0  0  0  0  0
    2.9512   -0.6609   -1.1233 H   0  0  0  0  0  0  0  0  0  0  0  0
    1.4561    0.1208   -0.6307 H   0  0  0  0  0  0  0  0  0  0  0  0
    2.4815   -2.4013    0.0783 H   0  0  0  0  0  0  0  0  0  0  0  0
    3.2319    2.3919    0.9340 H   0  0  0  0  0  0  0  0  0  0  0  0
    7.6498    6.1766   -2.1380 H   0  0  0  0  0  0  0  0  0  0  0  0
    8.8547    3.8566   -2.8023 H   0  0  0  0  0  0  0  0  0  0  0  0
    6.4876    2.3144   -3.4677 H   0  0  0  0  0  0  0  0  0  0  0  0
    7.4981    2.0589   -2.0097 H   0  0  0  0  0  0  0  0  0  0  0  0
    8.0448    5.5725   -4.5050 H   0  0  0  0  0  0  0  0  0  0  0  0
    6.4174    4.7774   -4.5488 H   0  0  0  0  0  0  0  0  0  0  0  0
    4.3962    9.5952   -2.0628 H   0  0  0  0  0  0  0  0  0  0  0  0
    3.8045    8.6200    2.0708 H   0  0  0  0  0  0  0  0  0  0  0  0
    4.3505    6.2328    1.6097 H   0  0  0  0  0  0  0  0  0  0  0  0
  1  2  1  0  0  0  0
  1 26  1  0  0  0  0
  1 27  1  0  0  0  0
  1 28  1  0  0  0  0
  2  3  1  0  0  0  0
  2  4  1  0  0  0  0
  2  6  1  0  0  0  0
  3 29  1  0  0  0  0
  3 30  1  0  0  0  0
  3 31  1  0  0  0  0
  4  5  1  0  0  0  0
  4 32  1  0  0  0  0
  4 33  1  0  0  0  0
  5 34  1  0  0  0  0
  6  7  1  0  0  0  0
  6 35  1  0  0  0  0
  7  8  2  0  0  0  0
  7  9  1  0  0  0  0
  9 25  2  0  0  0  0
  9 10  1  0  0  0  0
 10 14  1  0  0  0  0
 10 11  2  0  0  0  0
 11 12  1  0  0  0  0
 11 16  1  0  0  0  0
 12 13  1  0  0  0  0
 12 15  1  0  0  0  0
 12 36  1  1  0  0  0
 13 14  1  0  0  0  0
 13 15  1  0  0  0  0
 13 37  1  1  0  0  0
 14 38  1  0  0  0  0
 14 39  1  0  0  0  0
 15 40  1  0  0  0  0
 15 41  1  0  0  0  0
 16 17  1  0  0  0  0
 16 25  1  0  0  0  0
 17 22  2  0  0  0  0
 17 18  1  0  0  0  0
 18 19  2  0  0  0  0
 18 24  1  0  0  0  0
 19 20  1  0  0  0  0
 19 42  1  0  0  0  0
 20 21  2  0  0  0  0
 20 23  1  0  0  0  0
 21 22  1  0  0  0  0
 21 43  1  0  0  0  0
 22 44  1  0  0  0  0
M  END
$$$$
CHEMBL3354971_8GUQ
 OpenBabel12022418113D

 44 47  0  0  1  0  0  0  0  0999 V2000
    2.1379    1.5720    1.6382 C   0  0  0  0  0  0  0  0  0  0  0  0
    3.0608    0.7497    0.7183 C   0  0  0  0  0  0  0  0  0  0  0  0
    4.2216    0.2177    1.5831 C   0  0  0  0  0  0  0  0  0  0  0  0
    2.2429   -0.4367    0.1265 C   0  0  0  0  0  0  0  0  0  0  0  0
    1.7196   -1.2984    1.1367 O   0  0  0  0  0  0  0  0  0  0  0  0
    3.5720    1.6340   -0.3500 N   0  0  0  0  0  0  0  0  0  0  0  0
    4.4268    1.2182   -1.3490 C   0  0  0  0  0  0  0  0  0  0  0  0
    4.8599    0.0718   -1.4214 O   0  0  0  0  0  0  0  0  0  0  0  0
    4.7796    2.2368   -2.3566 C   0  0  0  0  0  0  0  0  0  0  0  0
    5.6650    2.0237   -3.4256 C   0  0  0  0  0  0  0  0  0  0  0  0
    5.6890    3.1903   -4.1211 C   0  0  0  0  0  0  0  0  0  0  0  0
    6.7698    3.1861   -5.1724 C   0  0  1  0  0  0  0  0  0  0  0  0
    7.4366    1.8074   -4.9609 C   0  0  1  0  0  0  0  0  0  0  0  0
    6.6491    1.0170   -3.8939 C   0  0  0  0  0  0  0  0  0  0  0  0
    6.7961    2.1501   -6.2676 C   0  0  0  0  0  0  0  0  0  0  0  0
    4.8716    4.0826   -3.5049 N   0  0  0  0  0  0  0  0  0  0  0  0
    4.5863    5.3934   -3.9435 C   0  0  0  0  0  0  0  0  0  0  0  0
    4.3381    6.4174   -3.0263 C   0  0  0  0  0  0  0  0  0  0  0  0
    4.1741    7.7193   -3.5025 C   0  0  0  0  0  0  0  0  0  0  0  0
    4.2045    8.0110   -4.8643 C   0  0  0  0  0  0  0  0  0  0  0  0
    4.3994    6.9833   -5.7796 C   0  0  0  0  0  0  0  0  0  0  0  0
    4.5945    5.6850   -5.3181 C   0  0  0  0  0  0  0  0  0  0  0  0
    4.7192    4.7172   -6.2373 F   0  0  0  0  0  0  0  0  0  0  0  0
    4.0112    8.7227   -2.6283 F   0  0  0  0  0  0  0  0  0  0  0  0
    4.3362    3.5277   -2.3554 N   0  0  0  0  0  0  0  0  0  0  0  0
    1.7549    0.9696    2.4704 H   0  0  0  0  0  0  0  0  0  0  0  0
    1.2770    1.9632    1.0846 H   0  0  0  0  0  0  0  0  0  0  0  0
    2.6695    2.4288    2.0670 H   0  0  0  0  0  0  0  0  0  0  0  0
    3.8552   -0.3573    2.4415 H   0  0  0  0  0  0  0  0  0  0  0  0
    4.8307    1.0408    1.9720 H   0  0  0  0  0  0  0  0  0  0  0  0
    4.8864   -0.4418    1.0160 H   0  0  0  0  0  0  0  0  0  0  0  0
    2.8376   -1.0522   -0.5561 H   0  0  0  0  0  0  0  0  0  0  0  0
    1.3931   -0.0549   -0.4502 H   0  0  0  0  0  0  0  0  0  0  0  0
    2.4389   -1.8997    1.3969 H   0  0  0  0  0  0  0  0  0  0  0  0
    3.2742    2.6042   -0.4038 H   0  0  0  0  0  0  0  0  0  0  0  0
    7.2987    4.1044   -5.3889 H   0  0  0  0  0  0  0  0  0  0  0  0
    8.5108    1.7555   -4.8690 H   0  0  0  0  0  0  0  0  0  0  0  0
    6.1611    0.1460   -4.3377 H   0  0  0  0  0  0  0  0  0  0  0  0
    7.3168    0.7044   -3.0859 H   0  0  0  0  0  0  0  0  0  0  0  0
    7.4428    2.3462   -7.1161 H   0  0  0  0  0  0  0  0  0  0  0  0
    5.8556    1.6861   -6.5434 H   0  0  0  0  0  0  0  0  0  0  0  0
    4.3339    6.2366   -1.9560 H   0  0  0  0  0  0  0  0  0  0  0  0
    4.0733    9.0345   -5.2036 H   0  0  0  0  0  0  0  0  0  0  0  0
    4.3962    7.1760   -6.8495 H   0  0  0  0  0  0  0  0  0  0  0  0
  1  2  1  0  0  0  0
  1 26  1  0  0  0  0
  1 27  1  0  0  0  0
  1 28  1  0  0  0  0
  2  3  1  0  0  0  0
  2  4  1  0  0  0  0
  2  6  1  0  0  0  0
  3 29  1  0  0  0  0
  3 30  1  0  0  0  0
  3 31  1  0  0  0  0
  4  5  1  0  0  0  0
  4 32  1  0  0  0  0
  4 33  1  0  0  0  0
  5 34  1  0  0  0  0
  6  7  1  0  0  0  0
  6 35  1  0  0  0  0
  7  8  2  0  0  0  0
  7  9  1  0  0  0  0
  9 25  2  0  0  0  0
  9 10  1  0  0  0  0
 10 14  1  0  0  0  0
 10 11  2  0  0  0  0
 11 12  1  0  0  0  0
 11 16  1  0  0  0  0
 12 13  1  0  0  0  0
 12 15  1  0  0  0  0
 12 36  1  6  0  0  0
 13 14  1  0  0  0  0
 13 15  1  0  0  0  0
 13 37  1  1  0  0  0
 14 38  1  0  0  0  0
 14 39  1  0  0  0  0
 15 40  1  0  0  0  0
 15 41  1  0  0  0  0
 16 17  1  0  0  0  0
 16 25  1  0  0  0  0
 17 22  2  0  0  0  0
 17 18  1  0  0  0  0
 18 19  2  0  0  0  0
 18 42  1  0  0  0  0
 19 20  1  0  0  0  0
 19 24  1  0  0  0  0
 20 21  2  0  0  0  0
 20 43  1  0  0  0  0
 21 22  1  0  0  0  0
 21 44  1  0  0  0  0
 22 23  1  0  0  0  0
M  END
$$$$
CHEMBL3353842_6PT0
 OpenBabel12022418113D

 49 53  0  0  0  0  0  0  0  0999 V2000
    0.6836    0.4906    3.1752 C   0  0  0  0  0  0  0  0  0  0  0  0
    0.8916    1.3283    1.9300 C   0  0  0  0  0  0  0  0  0  0  0  0
    0.0279    0.6469    0.8753 C   0  0  0  0  0  0  0  0  0  0  0  0
   -0.0825   -0.8347    1.2951 C   0  0  0  0  0  0  0  0  0  0  0  0
    0.6795   -0.9265    2.6272 C   0  0  0  0  0  0  0  0  0  0  0  0
   -1.5284   -1.2996    1.4372 C   0  0  0  0  0  0  0  0  0  0  0  0
   -2.4867   -0.5332    1.4568 O   0  0  0  0  0  0  0  0  0  0  0  0
   -1.7676   -2.6978    1.5398 N   0  0  0  0  0  0  0  0  0  0  0  0
   -3.0280   -3.3017    1.7261 C   0  0  0  0  0  0  0  0  0  0  0  0
   -4.3122   -2.7347    1.8764 C   0  0  0  0  0  0  0  0  0  0  0  0
   -5.4131   -3.5766    2.0499 C   0  0  0  0  0  0  0  0  0  0  0  0
   -5.2532   -4.9545    2.0760 C   0  0  0  0  0  0  0  0  0  0  0  0
   -3.9829   -5.5239    1.9255 C   0  0  0  0  0  0  0  0  0  0  0  0
   -2.8505   -4.6952    1.7488 C   0  0  0  0  0  0  0  0  0  0  0  0
   -1.4657   -4.9386    1.5686 C   0  0  0  0  0  0  0  0  0  0  0  0
   -0.8308   -3.7174    1.4602 C   0  0  0  0  0  0  0  0  0  0  0  0
    0.4923   -3.5730    1.2839 N   0  0  0  0  0  0  0  0  0  0  0  0
    1.1598   -4.7304    1.2056 C   0  0  0  0  0  0  0  0  0  0  0  0
    0.5915   -5.9534    1.2966 N   0  0  0  0  0  0  0  0  0  0  0  0
   -0.7363   -6.0863    1.4888 N   0  0  0  0  0  0  0  0  0  0  0  0
    2.8995   -4.4927    0.9281 S   0  0  0  0  0  0  0  0  0  0  0  0
    3.5240   -6.1832    0.7288 C   0  0  0  0  0  0  0  0  0  0  0  0
    5.0153   -6.1501    0.4201 C   0  0  0  0  0  0  0  0  0  0  0  0
    5.4429   -6.1274   -0.9215 C   0  0  0  0  0  0  0  0  0  0  0  0
    6.8026   -6.0824   -1.2443 C   0  0  0  0  0  0  0  0  0  0  0  0
    7.7612   -6.0471   -0.2350 C   0  0  0  0  0  0  0  0  0  0  0  0
    7.3598   -6.0441    1.0998 C   0  0  0  0  0  0  0  0  0  0  0  0
    5.9962   -6.0889    1.4339 C   0  0  0  0  0  0  0  0  0  0  0  0
    5.6382   -6.0635    2.8230 C   0  0  0  0  0  0  0  0  0  0  0  0
    5.3428   -6.0509    3.9481 N   0  0  0  0  0  0  0  0  0  0  0  0
    1.4707    0.6465    3.9185 H   0  0  0  0  0  0  0  0  0  0  0  0
   -0.2820    0.7227    3.6391 H   0  0  0  0  0  0  0  0  0  0  0  0
    1.9452    1.2966    1.6267 H   0  0  0  0  0  0  0  0  0  0  0  0
    0.6143    2.3755    2.0787 H   0  0  0  0  0  0  0  0  0  0  0  0
    0.4957    0.7368   -0.1119 H   0  0  0  0  0  0  0  0  0  0  0  0
   -0.9438    1.1454    0.8093 H   0  0  0  0  0  0  0  0  0  0  0  0
    0.3991   -1.4128    0.5013 H   0  0  0  0  0  0  0  0  0  0  0  0
    0.2465   -1.6262    3.3486 H   0  0  0  0  0  0  0  0  0  0  0  0
    1.7133   -1.2414    2.4348 H   0  0  0  0  0  0  0  0  0  0  0  0
   -4.4691   -1.6585    1.8599 H   0  0  0  0  0  0  0  0  0  0  0  0
   -6.4044   -3.1410    2.1652 H   0  0  0  0  0  0  0  0  0  0  0  0
   -6.1230   -5.5938    2.2145 H   0  0  0  0  0  0  0  0  0  0  0  0
   -3.8735   -6.6055    1.9471 H   0  0  0  0  0  0  0  0  0  0  0  0
    2.9942   -6.6810   -0.0911 H   0  0  0  0  0  0  0  0  0  0  0  0
    3.3346   -6.7701    1.6332 H   0  0  0  0  0  0  0  0  0  0  0  0
    4.7155   -6.1353   -1.7318 H   0  0  0  0  0  0  0  0  0  0  0  0
    7.1154   -6.0674   -2.2865 H   0  0  0  0  0  0  0  0  0  0  0  0
    8.8184   -6.0117   -0.4886 H   0  0  0  0  0  0  0  0  0  0  0  0
    8.1186   -6.0022    1.8814 H   0  0  0  0  0  0  0  0  0  0  0  0
  1  5  1  0  0  0  0
  1  2  1  0  0  0  0
  1 31  1  0  0  0  0
  1 32  1  0  0  0  0
  2  3  1  0  0  0  0
  2 33  1  0  0  0  0
  2 34  1  0  0  0  0
  3  4  1  0  0  0  0
  3 35  1  0  0  0  0
  3 36  1  0  0  0  0
  4  5  1  0  0  0  0
  4  6  1  0  0  0  0
  4 37  1  0  0  0  0
  5 38  1  0  0  0  0
  5 39  1  0  0  0  0
  6  7  2  0  0  0  0
  6  8  1  0  0  0  0
  8 16  1  0  0  0  0
  8  9  1  0  0  0  0
  9 14  2  0  0  0  0
  9 10  1  0  0  0  0
 10 11  2  0  0  0  0
 10 40  1  0  0  0  0
 11 12  1  0  0  0  0
 11 41  1  0  0  0  0
 12 13  2  0  0  0  0
 12 42  1  0  0  0  0
 13 14  1  0  0  0  0
 13 43  1  0  0  0  0
 14 15  1  0  0  0  0
 15 20  2  0  0  0  0
 15 16  1  0  0  0  0
 16 17  2  0  0  0  0
 17 18  1  0  0  0  0
 18 19  2  0  0  0  0
 18 21  1  0  0  0  0
 19 20  1  0  0  0  0
 21 22  1  0  0  0  0
 22 23  1  0  0  0  0
 22 44  1  0  0  0  0
 22 45  1  0  0  0  0
 23 28  2  0  0  0  0
 23 24  1  0  0  0  0
 24 25  2  0  0  0  0
 24 46  1  0  0  0  0
 25 26  1  0  0  0  0
 25 47  1  0  0  0  0
 26 27  2  0  0  0  0
 26 48  1  0  0  0  0
 27 28  1  0  0  0  0
 27 49  1  0  0  0  0
 28 29  1  0  0  0  0
 29 30  3  0  0  0  0
M  END
$$$$
CHEMBL235732_5ZTY
 OpenBabel12022418113D

 67 71  0  0  1  0  0  0  0  0999 V2000
    9.4770   -0.7492    5.6193 C   0  0  0  0  0  0  0  0  0  0  0  0
    9.6470   -0.8497    4.1135 C   0  0  0  0  0  0  0  0  0  0  0  0
   10.4200    0.3378    3.5441 C   0  0  0  0  0  0  0  0  0  0  0  0
   10.5827    0.2754    2.0219 C   0  0  0  0  0  0  0  0  0  0  0  0
    9.2746    0.2872    1.2071 C   0  0  0  0  0  0  0  0  0  0  0  0
    8.4687    1.5139    1.4076 N   0  0  0  0  0  0  0  0  0  0  0  0
    9.0023    2.7593    1.0744 C   0  0  0  0  0  0  0  0  0  0  0  0
    8.4270    3.9603    1.2331 C   0  0  0  0  0  0  0  0  0  0  0  0
    9.1952    5.1865    0.8775 C   0  0  0  0  0  0  0  0  0  0  0  0
   10.3629    5.1097    0.4975 O   0  0  0  0  0  0  0  0  0  0  0  0
    8.5179    6.3720    1.0340 N   0  0  0  0  0  0  0  0  0  0  0  0
    9.0899    7.7063    0.8371 C   0  0  2  0  0  0  0  0  0  0  0  0
    8.0006    8.7773    1.1091 C   0  0  0  0  0  0  0  0  0  0  0  0
    8.5645   10.1947    0.9115 C   0  0  1  0  0  0  0  0  0  0  0  0
    9.7333   10.4176    1.8830 C   0  0  0  0  0  0  0  0  0  0  0  0
   10.8457    9.3777    1.6279 C   0  0  2  0  0  0  0  0  0  0  0  0
   12.0092    9.5956    2.6005 C   0  0  0  0  0  0  0  0  0  0  0  0
   11.3341    9.5160    0.1667 C   0  0  0  0  0  0  0  0  0  0  0  0
   10.1677    9.3063   -0.8277 C   0  0  2  0  0  0  0  0  0  0  0  0
   10.6661    9.4496   -2.2688 C   0  0  0  0  0  0  0  0  0  0  0  0
    9.0690   10.3490   -0.5315 C   0  0  0  0  0  0  0  0  0  0  0  0
    9.5817    7.8934   -0.6165 C   0  0  0  0  0  0  0  0  0  0  0  0
   10.2592    7.9611    1.8181 C   0  0  0  0  0  0  0  0  0  0  0  0
    7.0619    3.9662    1.7935 C   0  0  0  0  0  0  0  0  0  0  0  0
    6.4053    5.0042    1.8772 O   0  0  0  0  0  0  0  0  0  0  0  0
    6.4984    2.6813    2.2593 C   0  0  0  0  0  0  0  0  0  0  0  0
    5.2788    2.7236    2.9526 C   0  0  0  0  0  0  0  0  0  0  0  0
    4.7101    1.5448    3.4031 C   0  0  0  0  0  0  0  0  0  0  0  0
    5.3156    0.3306    3.1084 C   0  0  0  0  0  0  0  0  0  0  0  0
    6.5280    0.2971    2.3991 C   0  0  0  0  0  0  0  0  0  0  0  0
    7.1903    1.4728    2.0073 C   0  0  0  0  0  0  0  0  0  0  0  0
    3.2621    1.5855    4.3276 Cl  0  0  0  0  0  0  0  0  0  0  0  0
    8.8657   -1.5825    5.9814 H   0  0  0  0  0  0  0  0  0  0  0  0
    8.9747    0.1835    5.8967 H   0  0  0  0  0  0  0  0  0  0  0  0
   10.4439   -0.7874    6.1277 H   0  0  0  0  0  0  0  0  0  0  0  0
    8.6543   -0.9072    3.6677 H   0  0  0  0  0  0  0  0  0  0  0  0
   10.1626   -1.7846    3.8638 H   0  0  0  0  0  0  0  0  0  0  0  0
   11.4217    0.3564    3.9945 H   0  0  0  0  0  0  0  0  0  0  0  0
    9.9364    1.2792    3.8296 H   0  0  0  0  0  0  0  0  0  0  0  0
   11.1371   -0.6364    1.7649 H   0  0  0  0  0  0  0  0  0  0  0  0
   11.2247    1.1082    1.7115 H   0  0  0  0  0  0  0  0  0  0  0  0
    8.7299   -0.6388    1.3989 H   0  0  0  0  0  0  0  0  0  0  0  0
    9.5392    0.2313    0.1429 H   0  0  0  0  0  0  0  0  0  0  0  0
   10.0083    2.6971    0.6612 H   0  0  0  0  0  0  0  0  0  0  0  0
    7.5488    6.3130    1.3533 H   0  0  0  0  0  0  0  0  0  0  0  0
    7.6132    8.6735    2.1315 H   0  0  0  0  0  0  0  0  0  0  0  0
    7.1428    8.6243    0.4406 H   0  0  0  0  0  0  0  0  0  0  0  0
    7.7799   10.9348    1.1062 H   0  0  0  0  0  0  0  0  0  0  0  0
    9.3727   10.3441    2.9171 H   0  0  0  0  0  0  0  0  0  0  0  0
   10.1279   11.4341    1.7594 H   0  0  0  0  0  0  0  0  0  0  0  0
   12.4433   10.5944    2.4824 H   0  0  0  0  0  0  0  0  0  0  0  0
   12.8060    8.8627    2.4326 H   0  0  0  0  0  0  0  0  0  0  0  0
   11.6784    9.4952    3.6403 H   0  0  0  0  0  0  0  0  0  0  0  0
   12.1293    8.7848   -0.0314 H   0  0  0  0  0  0  0  0  0  0  0  0
   11.7790   10.5086    0.0151 H   0  0  0  0  0  0  0  0  0  0  0  0
   11.1066   10.4375   -2.4400 H   0  0  0  0  0  0  0  0  0  0  0  0
    9.8467    9.3186   -2.9843 H   0  0  0  0  0  0  0  0  0  0  0  0
   11.4303    8.6982   -2.4976 H   0  0  0  0  0  0  0  0  0  0  0  0
    9.4594   11.3640   -0.6809 H   0  0  0  0  0  0  0  0  0  0  0  0
    8.2309   10.2288   -1.2300 H   0  0  0  0  0  0  0  0  0  0  0  0
    8.7496    7.7204   -1.3133 H   0  0  0  0  0  0  0  0  0  0  0  0
   10.3447    7.1472   -0.8679 H   0  0  0  0  0  0  0  0  0  0  0  0
   11.0539    7.2194    1.6734 H   0  0  0  0  0  0  0  0  0  0  0  0
    9.9104    7.8321    2.8522 H   0  0  0  0  0  0  0  0  0  0  0  0
    4.7914    3.6759    3.1504 H   0  0  0  0  0  0  0  0  0  0  0  0
    4.8594   -0.6008    3.4355 H   0  0  0  0  0  0  0  0  0  0  0  0
    6.9251   -0.6889    2.1865 H   0  0  0  0  0  0  0  0  0  0  0  0
  1  2  1  0  0  0  0
  1 33  1  0  0  0  0
  1 34  1  0  0  0  0
  1 35  1  0  0  0  0
  2  3  1  0  0  0  0
  2 36  1  0  0  0  0
  2 37  1  0  0  0  0
  3  4  1  0  0  0  0
  3 38  1  0  0  0  0
  3 39  1  0  0  0  0
  4  5  1  0  0  0  0
  4 40  1  0  0  0  0
  4 41  1  0  0  0  0
  5  6  1  0  0  0  0
  5 42  1  0  0  0  0
  5 43  1  0  0  0  0
  6 31  1  0  0  0  0
  6  7  1  0  0  0  0
  7  8  2  0  0  0  0
  7 44  1  0  0  0  0
  8  9  1  0  0  0  0
  8 24  1  0  0  0  0
  9 10  2  0  0  0  0
  9 11  1  0  0  0  0
 11 45  1  0  0  0  0
 12 11  1  1  0  0  0
 12 22  1  0  0  0  0
 12 23  1  0  0  0  0
 12 13  1  0  0  0  0
 13 46  1  0  0  0  0
 13 47  1  0  0  0  0
 14 13  1  0  0  0  0
 14 15  1  0  0  0  0
 14 21  1  0  0  0  0
 14 48  1  1  0  0  0
 15 16  1  0  0  0  0
 15 49  1  0  0  0  0
 15 50  1  0  0  0  0
 16 17  1  1  0  0  0
 16 18  1  0  0  0  0
 16 23  1  0  0  0  0
 17 51  1  0  0  0  0
 17 52  1  0  0  0  0
 17 53  1  0  0  0  0
 18 19  1  0  0  0  0
 18 54  1  0  0  0  0
 18 55  1  0  0  0  0
 19 20  1  6  0  0  0
 19 21  1  0  0  0  0
 19 22  1  0  0  0  0
 20 56  1  0  0  0  0
 20 57  1  0  0  0  0
 20 58  1  0  0  0  0
 21 59  1  0  0  0  0
 21 60  1  0  0  0  0
 22 61  1  0  0  0  0
 22 62  1  0  0  0  0
 23 63  1  0  0  0  0
 23 64  1  0  0  0  0
 24 25  2  0  0  0  0
 24 26  1  0  0  0  0
 26 31  2  0  0  0  0
 26 27  1  0  0  0  0
 27 28  2  0  0  0  0
 27 65  1  0  0  0  0
 28 29  1  0  0  0  0
 28 32  1  0  0  0  0
 29 30  2  0  0  0  0
 29 66  1  0  0  0  0
 30 31  1  0  0  0  0
 30 67  1  0  0  0  0
M  END
$$$$
CHEMBL575193_5ZTY
 OpenBabel12022418113D

 47 50  0  0  0  0  0  0  0  0999 V2000
    1.1632    0.4014   -0.0991 C   0  0  0  0  0  0  0  0  0  0  0  0
    2.6304    0.1452   -0.0817 C   0  0  0  0  0  0  0  0  0  0  0  0
    3.6419    1.1547    0.0413 C   0  0  0  0  0  0  0  0  0  0  0  0
    3.4482    2.6263    0.0717 C   0  0  0  0  0  0  0  0  0  0  0  0
    2.3480    3.1542   -0.0612 O   0  0  0  0  0  0  0  0  0  0  0  0
    4.6113    3.3469    0.2468 N   0  0  0  0  0  0  0  0  0  0  0  0
    4.6652    4.7903    0.2077 C   0  0  0  0  0  0  0  0  0  0  0  0
    5.2500    5.3771    1.4724 C   0  0  0  0  0  0  0  0  0  0  0  0
    4.6298    5.1460    2.7116 C   0  0  0  0  0  0  0  0  0  0  0  0
    5.1373    5.7188    3.8811 C   0  0  0  0  0  0  0  0  0  0  0  0
    6.2662    6.5321    3.8212 C   0  0  0  0  0  0  0  0  0  0  0  0
    6.8894    6.7813    2.6003 C   0  0  0  0  0  0  0  0  0  0  0  0
    6.3824    6.2076    1.4293 C   0  0  0  0  0  0  0  0  0  0  0  0
    6.8878    7.2405    5.2605 Cl  0  0  0  0  0  0  0  0  0  0  0  0
    4.8655    0.6056    0.1706 N   0  0  0  0  0  0  0  0  0  0  0  0
    4.6801   -0.7294   -0.0260 N   0  0  0  0  0  0  0  0  0  0  0  0
    5.8256   -1.5424   -0.2975 C   0  0  0  0  0  0  0  0  0  0  0  0
    7.0753   -1.1656    0.2135 C   0  0  0  0  0  0  0  0  0  0  0  0
    8.2002   -1.9650   -0.0204 C   0  0  0  0  0  0  0  0  0  0  0  0
    8.0926   -3.1363   -0.7759 C   0  0  0  0  0  0  0  0  0  0  0  0
    6.8552   -3.5018   -1.3116 C   0  0  0  0  0  0  0  0  0  0  0  0
    5.7322   -2.6958   -1.0910 C   0  0  0  0  0  0  0  0  0  0  0  0
    6.6360   -4.9382   -2.2480 Cl  0  0  0  0  0  0  0  0  0  0  0  0
    9.5211   -4.0748   -1.0219 Cl  0  0  0  0  0  0  0  0  0  0  0  0
    3.3320   -1.0518   -0.0461 C   0  0  0  0  0  0  0  0  0  0  0  0
    2.8219   -2.3540    0.0191 N   0  0  0  0  0  0  0  0  0  0  0  0
    3.3655   -3.4214    0.7157 C   0  0  0  0  0  0  0  0  0  0  0  0
    2.6181   -4.5544    0.4844 C   0  0  0  0  0  0  0  0  0  0  0  0
    1.5406   -4.1758   -0.3388 C   0  0  0  0  0  0  0  0  0  0  0  0
    1.6810   -2.8299   -0.5993 C   0  0  0  0  0  0  0  0  0  0  0  0
    0.5699   -0.5040    0.0352 H   0  0  0  0  0  0  0  0  0  0  0  0
    0.8677    0.8653   -1.0451 H   0  0  0  0  0  0  0  0  0  0  0  0
    0.8824    1.0693    0.7222 H   0  0  0  0  0  0  0  0  0  0  0  0
    5.4660    2.8054    0.3147 H   0  0  0  0  0  0  0  0  0  0  0  0
    3.6712    5.2200    0.0395 H   0  0  0  0  0  0  0  0  0  0  0  0
    5.2835    5.0572   -0.6572 H   0  0  0  0  0  0  0  0  0  0  0  0
    3.7380    4.5266    2.7646 H   0  0  0  0  0  0  0  0  0  0  0  0
    4.6433    5.5278    4.8305 H   0  0  0  0  0  0  0  0  0  0  0  0
    7.7635    7.4265    2.5532 H   0  0  0  0  0  0  0  0  0  0  0  0
    6.8739    6.4269    0.4833 H   0  0  0  0  0  0  0  0  0  0  0  0
    7.1850   -0.2687    0.8216 H   0  0  0  0  0  0  0  0  0  0  0  0
    9.1606   -1.6708    0.3976 H   0  0  0  0  0  0  0  0  0  0  0  0
    4.7986   -2.9822   -1.5688 H   0  0  0  0  0  0  0  0  0  0  0  0
    4.2462   -3.2927    1.3307 H   0  0  0  0  0  0  0  0  0  0  0  0
    2.8255   -5.5417    0.8782 H   0  0  0  0  0  0  0  0  0  0  0  0
    0.7515   -4.8147   -0.7150 H   0  0  0  0  0  0  0  0  0  0  0  0
    1.0846   -2.1896   -1.2331 H   0  0  0  0  0  0  0  0  0  0  0  0
  1  2  1  0  0  0  0
  1 31  1  0  0  0  0
  1 32  1  0  0  0  0
  1 33  1  0  0  0  0
  2 25  2  0  0  0  0
  2  3  1  0  0  0  0
  3  4  1  0  0  0  0
  3 15  2  0  0  0  0
  4  5  2  0  0  0  0
  4  6  1  0  0  0  0
  6  7  1  0  0  0  0
  6 34  1  0  0  0  0
  7  8  1  0  0  0  0
  7 35  1  0  0  0  0
  7 36  1  0  0  0  0
  8 13  2  0  0  0  0
  8  9  1  0  0  0  0
  9 10  2  0  0  0  0
  9 37  1  0  0  0  0
 10 11  1  0  0  0  0
 10 38  1  0  0  0  0
 11 12  2  0  0  0  0
 11 14  1  0  0  0  0
 12 13  1  0  0  0  0
 12 39  1  0  0  0  0
 13 40  1  0  0  0  0
 15 16  1  0  0  0  0
 16 17  1  0  0  0  0
 16 25  1  0  0  0  0
 17 22  2  0  0  0  0
 17 18  1  0  0  0  0
 18 19  2  0  0  0  0
 18 41  1  0  0  0  0
 19 20  1  0  0  0  0
 19 42  1  0  0  0  0
 20 21  2  0  0  0  0
 20 24  1  0  0  0  0
 21 22  1  0  0  0  0
 21 23  1  0  0  0  0
 22 43  1  0  0  0  0
 25 26  1  0  0  0  0
 26 30  1  0  0  0  0
 26 27  1  0  0  0  0
 27 28  2  0  0  0  0
 27 44  1  0  0  0  0
 28 29  1  0  0  0  0
 28 45  1  0  0  0  0
 29 30  2  0  0  0  0
 29 46  1  0  0  0  0
 30 47  1  0  0  0  0
M  END
$$$$
CHEMBL3116288_5ZTY
 OpenBabel12022418113D

 50 53  0  0  0  0  0  0  0  0999 V2000
   -1.0616    0.8696    0.4696 C   0  0  0  0  0  0  0  0  0  0  0  0
    0.0840    1.7547    0.9491 C   0  0  0  0  0  0  0  0  0  0  0  0
    1.4216    1.3406    0.3330 C   0  0  0  0  0  0  0  0  0  0  0  0
    1.7351   -0.1436    0.5739 C   0  0  0  0  0  0  0  0  0  0  0  0
    0.5652   -1.0263    0.0966 C   0  0  0  0  0  0  0  0  0  0  0  0
   -0.7647   -0.6039    0.7209 C   0  0  0  0  0  0  0  0  0  0  0  0
    3.0721   -0.5496   -0.0901 C   0  0  0  0  0  0  0  0  0  0  0  0
    3.2838   -1.9359    0.1662 O   0  0  0  0  0  0  0  0  0  0  0  0
    4.4319   -2.4460   -0.3322 C   0  0  0  0  0  0  0  0  0  0  0  0
    4.5937   -3.7851   -0.7441 C   0  0  0  0  0  0  0  0  0  0  0  0
    5.9776   -3.9291   -0.8913 C   0  0  0  0  0  0  0  0  0  0  0  0
    6.5433   -5.1802   -1.1741 C   0  0  0  0  0  0  0  0  0  0  0  0
    5.6939   -6.2509   -1.4721 C   0  0  0  0  0  0  0  0  0  0  0  0
    4.3119   -6.1058   -1.3711 C   0  0  0  0  0  0  0  0  0  0  0  0
    3.7411   -4.8897   -0.9573 C   0  0  0  0  0  0  0  0  0  0  0  0
    3.4472   -7.2529   -1.6796 N   0  3  0  0  0  0  0  0  0  0  0  0
    4.0095   -8.3127   -2.0317 O   0  0  0  0  0  0  0  0  0  0  0  0
    2.2325   -7.1086   -1.5812 O   0  5  0  0  0  0  0  0  0  0  0  0
    6.5051   -2.6638   -0.6767 N   0  0  0  0  0  0  0  0  0  0  0  0
    7.8780   -2.1996   -0.9021 C   0  0  0  0  0  0  0  0  0  0  0  0
    8.7941   -2.2816    0.3048 C   0  0  0  0  0  0  0  0  0  0  0  0
    8.5941   -1.4495    1.4184 C   0  0  0  0  0  0  0  0  0  0  0  0
    9.6040   -1.2844    2.3738 C   0  0  0  0  0  0  0  0  0  0  0  0
   10.8004   -1.9914    2.2592 C   0  0  0  0  0  0  0  0  0  0  0  0
   10.9666   -2.9060    1.2230 C   0  0  0  0  0  0  0  0  0  0  0  0
    9.9729   -3.0498    0.2486 C   0  0  0  0  0  0  0  0  0  0  0  0
    5.5592   -1.7433   -0.3308 N   0  0  0  0  0  0  0  0  0  0  0  0
   -1.9885    1.1528    0.9819 H   0  0  0  0  0  0  0  0  0  0  0  0
   -1.2281    1.0323   -0.6023 H   0  0  0  0  0  0  0  0  0  0  0  0
    0.1518    1.6996    2.0427 H   0  0  0  0  0  0  0  0  0  0  0  0
   -0.1309    2.7993    0.6964 H   0  0  0  0  0  0  0  0  0  0  0  0
    2.2180    1.9641    0.7562 H   0  0  0  0  0  0  0  0  0  0  0  0
    1.3958    1.5433   -0.7450 H   0  0  0  0  0  0  0  0  0  0  0  0
    1.8402   -0.3058    1.6560 H   0  0  0  0  0  0  0  0  0  0  0  0
    0.7513   -2.0765    0.3490 H   0  0  0  0  0  0  0  0  0  0  0  0
    0.4829   -0.9707   -0.9963 H   0  0  0  0  0  0  0  0  0  0  0  0
   -1.5759   -1.2172    0.3122 H   0  0  0  0  0  0  0  0  0  0  0  0
   -0.7385   -0.7916    1.8017 H   0  0  0  0  0  0  0  0  0  0  0  0
    3.8846    0.0538    0.3329 H   0  0  0  0  0  0  0  0  0  0  0  0
    3.0204   -0.3799   -1.1722 H   0  0  0  0  0  0  0  0  0  0  0  0
    7.6175   -5.3502   -1.1677 H   0  0  0  0  0  0  0  0  0  0  0  0
    6.1415   -7.1966   -1.7791 H   0  0  0  0  0  0  0  0  0  0  0  0
    2.6671   -4.7729   -0.8251 H   0  0  0  0  0  0  0  0  0  0  0  0
    7.8159   -1.1550   -1.2391 H   0  0  0  0  0  0  0  0  0  0  0  0
    8.3017   -2.7714   -1.7391 H   0  0  0  0  0  0  0  0  0  0  0  0
    7.6861   -0.8571    1.5067 H   0  0  0  0  0  0  0  0  0  0  0  0
    9.4816   -0.5540    3.1689 H   0  0  0  0  0  0  0  0  0  0  0  0
   11.6106   -1.8061    2.9598 H   0  0  0  0  0  0  0  0  0  0  0  0
   11.8934   -3.4715    1.1466 H   0  0  0  0  0  0  0  0  0  0  0  0
   10.1581   -3.7250   -0.5828 H   0  0  0  0  0  0  0  0  0  0  0  0
  1  6  1  0  0  0  0
  1  2  1  0  0  0  0
  1 28  1  0  0  0  0
  1 29  1  0  0  0  0
  2  3  1  0  0  0  0
  2 30  1  0  0  0  0
  2 31  1  0  0  0  0
  3  4  1  0  0  0  0
  3 32  1  0  0  0  0
  3 33  1  0  0  0  0
  4  5  1  0  0  0  0
  4  7  1  0  0  0  0
  4 34  1  0  0  0  0
  5  6  1  0  0  0  0
  5 35  1  0  0  0  0
  5 36  1  0  0  0  0
  6 37  1  0  0  0  0
  6 38  1  0  0  0  0
  7  8  1  0  0  0  0
  7 39  1  0  0  0  0
  7 40  1  0  0  0  0
  8  9  1  0  0  0  0
  9 27  2  0  0  0  0
  9 10  1  0  0  0  0
 10 15  2  0  0  0  0
 10 11  1  0  0  0  0
 11 12  2  0  0  0  0
 11 19  1  0  0  0  0
 12 13  1  0  0  0  0
 12 41  1  0  0  0  0
 13 14  2  0  0  0  0
 13 42  1  0  0  0  0
 14 15  1  0  0  0  0
 14 16  1  0  0  0  0
 15 43  1  0  0  0  0
 16 17  2  0  0  0  0
 16 18  1  0  0  0  0
 19 20  1  0  0  0  0
 19 27  1  0  0  0  0
 20 21  1  0  0  0  0
 20 44  1  0  0  0  0
 20 45  1  0  0  0  0
 21 26  2  0  0  0  0
 21 22  1  0  0  0  0
 22 23  2  0  0  0  0
 22 46  1  0  0  0  0
 23 24  1  0  0  0  0
 23 47  1  0  0  0  0
 24 25  2  0  0  0  0
 24 48  1  0  0  0  0
 25 26  1  0  0  0  0
 25 49  1  0  0  0  0
 26 50  1  0  0  0  0
M  CHG  2  16   1  18  -1
M  END
$$$$
CHEMBL3353440_8GUT
 OpenBabel12022418113D

 53 56  0  0  1  0  0  0  0  0999 V2000
    2.4317   -0.8895    0.1161 C   0  0  0  0  0  0  0  0  0  0  0  0
    2.4001    0.4894    0.2315 C   0  0  0  0  0  0  0  0  0  0  0  0
    1.2574    1.2241    0.2217 N   0  0  0  0  0  0  0  0  0  0  0  0
    0.0858    0.5543    0.1087 C   0  0  0  0  0  0  0  0  0  0  0  0
    0.0317   -0.8457    0.0633 C   0  0  0  0  0  0  0  0  0  0  0  0
    1.2265   -1.5728    0.0471 C   0  0  0  0  0  0  0  0  0  0  0  0
   -1.2490   -1.5429    0.0085 C   0  0  0  0  0  0  0  0  0  0  0  0
   -2.3981   -0.8528    0.0019 C   0  0  0  0  0  0  0  0  0  0  0  0
   -2.3580    0.6468    0.0456 C   0  0  0  0  0  0  0  0  0  0  0  0
   -3.4151    1.2810    0.1077 O   0  0  0  0  0  0  0  0  0  0  0  0
   -1.1278    1.2811    0.0265 N   0  0  0  0  0  0  0  0  0  0  0  0
   -1.0982    2.7392    0.0270 C   0  0  0  0  0  0  0  0  0  0  0  0
   -1.1053    3.4243   -1.3337 C   0  0  0  0  0  0  0  0  0  0  0  0
    0.0820    3.9757   -1.8424 C   0  0  0  0  0  0  0  0  0  0  0  0
    0.0461    4.8770   -2.9115 C   0  0  0  0  0  0  0  0  0  0  0  0
   -1.1638    5.1943   -3.5053 C   0  0  0  0  0  0  0  0  0  0  0  0
   -2.3429    4.5792   -3.0914 C   0  0  0  0  0  0  0  0  0  0  0  0
   -2.3121    3.6905   -2.0142 C   0  0  0  0  0  0  0  0  0  0  0  0
   -1.2083    6.1330   -4.4646 F   0  0  0  0  0  0  0  0  0  0  0  0
   -3.6880   -1.6415   -0.0630 C   0  0  0  0  0  0  0  0  0  0  0  0
   -3.7129   -2.8621   -0.0595 O   0  0  0  0  0  0  0  0  0  0  0  0
   -4.8023   -0.8445   -0.1224 N   0  0  0  0  0  0  0  0  0  0  0  0
   -6.1883   -1.2818   -0.0129 C   0  0  2  0  0  0  0  0  0  0  0  0
   -7.1160   -0.2451   -0.6682 C   0  0  0  0  0  0  0  0  0  0  0  0
   -7.0978    1.1094    0.0514 C   0  0  0  0  0  0  0  0  0  0  0  0
   -7.3325    0.9898    1.5649 C   0  0  1  0  0  0  0  0  0  0  0  0
   -6.4854   -0.1171    2.2118 C   0  0  0  0  0  0  0  0  0  0  0  0
   -6.5852   -1.4454    1.4574 C   0  0  0  0  0  0  0  0  0  0  0  0
   -7.0512    2.3310    2.2465 C   0  0  0  0  0  0  0  0  0  0  0  0
    4.0672   -1.8200    0.0119 Br  0  0  0  0  0  0  0  0  0  0  0  0
    3.3158    1.0679    0.3207 H   0  0  0  0  0  0  0  0  0  0  0  0
    1.2141   -2.6562   -0.0388 H   0  0  0  0  0  0  0  0  0  0  0  0
   -1.2421   -2.6293   -0.0237 H   0  0  0  0  0  0  0  0  0  0  0  0
   -0.2597    3.1124    0.6250 H   0  0  0  0  0  0  0  0  0  0  0  0
   -1.9845    3.1113    0.5600 H   0  0  0  0  0  0  0  0  0  0  0  0
    1.0350    3.7608   -1.3596 H   0  0  0  0  0  0  0  0  0  0  0  0
    0.9541    5.3645   -3.2518 H   0  0  0  0  0  0  0  0  0  0  0  0
   -3.2795    4.8365   -3.5798 H   0  0  0  0  0  0  0  0  0  0  0  0
   -3.2500    3.2646   -1.6618 H   0  0  0  0  0  0  0  0  0  0  0  0
   -4.6461    0.1459    0.0280 H   0  0  0  0  0  0  0  0  0  0  0  0
   -6.2808   -2.2426   -0.5285 H   0  0  0  0  0  0  0  0  0  0  0  0
   -8.1428   -0.6301   -0.6648 H   0  0  0  0  0  0  0  0  0  0  0  0
   -6.8349   -0.0952   -1.7177 H   0  0  0  0  0  0  0  0  0  0  0  0
   -7.8650    1.7599   -0.3876 H   0  0  0  0  0  0  0  0  0  0  0  0
   -6.1424    1.6122   -0.1409 H   0  0  0  0  0  0  0  0  0  0  0  0
   -8.3898    0.7407    1.7250 H   0  0  0  0  0  0  0  0  0  0  0  0
   -6.8054   -0.2678    3.2495 H   0  0  0  0  0  0  0  0  0  0  0  0
   -5.4354    0.1977    2.2583 H   0  0  0  0  0  0  0  0  0  0  0  0
   -5.9484   -2.1911    1.9457 H   0  0  0  0  0  0  0  0  0  0  0  0
   -7.6163   -1.8183    1.5155 H   0  0  0  0  0  0  0  0  0  0  0  0
   -6.0260    2.6665    2.0504 H   0  0  0  0  0  0  0  0  0  0  0  0
   -7.1768    2.2554    3.3315 H   0  0  0  0  0  0  0  0  0  0  0  0
   -7.7334    3.1049    1.8798 H   0  0  0  0  0  0  0  0  0  0  0  0
  1  6  2  0  0  0  0
  1  2  1  0  0  0  0
  1 30  1  0  0  0  0
  2  3  2  0  0  0  0
  2 31  1  0  0  0  0
  3  4  1  0  0  0  0
  4 11  1  0  0  0  0
  4  5  2  0  0  0  0
  5  6  1  0  0  0  0
  5  7  1  0  0  0  0
  6 32  1  0  0  0  0
  7  8  2  0  0  0  0
  7 33  1  0  0  0  0
  8  9  1  0  0  0  0
  8 20  1  0  0  0  0
  9 10  2  0  0  0  0
  9 11  1  0  0  0  0
 11 12  1  0  0  0  0
 12 13  1  0  0  0  0
 12 34  1  0  0  0  0
 12 35  1  0  0  0  0
 13 18  2  0  0  0  0
 13 14  1  0  0  0  0
 14 15  2  0  0  0  0
 14 36  1  0  0  0  0
 15 16  1  0  0  0  0
 15 37  1  0  0  0  0
 16 17  2  0  0  0  0
 16 19  1  0  0  0  0
 17 18  1  0  0  0  0
 17 38  1  0  0  0  0
 18 39  1  0  0  0  0
 20 21  2  0  0  0  0
 20 22  1  0  0  0  0
 22 40  1  0  0  0  0
 23 22  1  0  0  0  0
 23 24  1  0  0  0  0
 23 28  1  0  0  0  0
 23 41  1  6  0  0  0
 24 25  1  0  0  0  0
 24 42  1  0  0  0  0
 24 43  1  0  0  0  0
 25 26  1  0  0  0  0
 25 44  1  0  0  0  0
 25 45  1  0  0  0  0
 26 27  1  0  0  0  0
 26 29  1  0  0  0  0
 26 46  1  1  0  0  0
 27 28  1  0  0  0  0
 27 47  1  0  0  0  0
 27 48  1  0  0  0  0
 28 49  1  0  0  0  0
 28 50  1  0  0  0  0
 29 51  1  0  0  0  0
 29 52  1  0  0  0  0
 29 53  1  0  0  0  0
M  END
$$$$
CHEMBL3421694_5ZTY
 OpenBabel12022418113D

 51 53  0  0  0  0  0  0  0  0999 V2000
   -0.4223   -1.9625    0.0657 N   0  0  0  0  0  0  0  0  0  0  0  0
    0.9653   -1.9082   -0.0028 C   0  0  0  0  0  0  0  0  0  0  0  0
    1.6724   -0.7838    0.0110 C   0  0  0  0  0  0  0  0  0  0  0  0
    1.0028    0.5012    0.0404 C   0  0  0  0  0  0  0  0  0  0  0  0
    1.8639    1.4903    0.0458 N   0  0  0  0  0  0  0  0  0  0  0  0
    3.1344    0.8686    0.0379 N   0  0  0  0  0  0  0  0  0  0  0  0
    3.1036   -0.5273    0.0001 C   0  0  0  0  0  0  0  0  0  0  0  0
    3.9974   -1.3479   -0.0316 O   0  0  0  0  0  0  0  0  0  0  0  0
    4.3636    1.6250    0.0248 C   0  0  0  0  0  0  0  0  0  0  0  0
    4.5142    2.5715    1.2101 C   0  0  0  0  0  0  0  0  0  0  0  0
    4.5104    1.8637    2.5699 C   0  0  0  0  0  0  0  0  0  0  0  0
    4.6764    2.8864    3.6956 C   0  0  0  0  0  0  0  0  0  0  0  0
    4.6545    2.2400    5.0700 C   0  0  0  0  0  0  0  0  0  0  0  0
   -0.4651    0.5130    0.0339 C   0  0  0  0  0  0  0  0  0  0  0  0
   -1.1572   -0.7388    0.0382 C   0  0  0  0  0  0  0  0  0  0  0  0
   -2.5583   -0.6667    0.0190 C   0  0  0  0  0  0  0  0  0  0  0  0
   -3.2325    0.5651   -0.0047 C   0  0  0  0  0  0  0  0  0  0  0  0
   -2.5251    1.7643   -0.0093 C   0  0  0  0  0  0  0  0  0  0  0  0
   -1.1352    1.7417    0.0091 C   0  0  0  0  0  0  0  0  0  0  0  0
   -1.0968   -3.2748    0.0138 C   0  0  0  0  0  0  0  0  0  0  0  0
   -0.6003   -4.2422    1.1010 C   0  0  0  0  0  0  0  0  0  0  0  0
   -0.9278   -3.8252    2.5385 C   0  0  0  0  0  0  0  0  0  0  0  0
   -0.3582   -4.8692    3.5061 C   0  0  0  0  0  0  0  0  0  0  0  0
   -0.6612   -4.5634    4.9617 C   0  0  0  0  0  0  0  0  0  0  0  0
    1.4841   -2.8588   -0.0620 H   0  0  0  0  0  0  0  0  0  0  0  0
    4.3870    2.1912   -0.9119 H   0  0  0  0  0  0  0  0  0  0  0  0
    5.2105    0.9267    0.0009 H   0  0  0  0  0  0  0  0  0  0  0  0
    3.7117    3.3176    1.1866 H   0  0  0  0  0  0  0  0  0  0  0  0
    5.4604    3.1147    1.0944 H   0  0  0  0  0  0  0  0  0  0  0  0
    5.3228    1.1280    2.6109 H   0  0  0  0  0  0  0  0  0  0  0  0
    3.5707    1.3166    2.7102 H   0  0  0  0  0  0  0  0  0  0  0  0
    3.8712    3.6283    3.6389 H   0  0  0  0  0  0  0  0  0  0  0  0
    5.6223    3.4255    3.5681 H   0  0  0  0  0  0  0  0  0  0  0  0
    3.7080    1.7191    5.2454 H   0  0  0  0  0  0  0  0  0  0  0  0
    4.7683    3.0052    5.8448 H   0  0  0  0  0  0  0  0  0  0  0  0
    5.4719    1.5208    5.1808 H   0  0  0  0  0  0  0  0  0  0  0  0
   -3.1848   -1.5510    0.0183 H   0  0  0  0  0  0  0  0  0  0  0  0
   -4.3207    0.5815   -0.0194 H   0  0  0  0  0  0  0  0  0  0  0  0
   -3.0581    2.7119   -0.0265 H   0  0  0  0  0  0  0  0  0  0  0  0
   -0.5775    2.6765   -0.0013 H   0  0  0  0  0  0  0  0  0  0  0  0
   -0.8746   -3.7229   -0.9642 H   0  0  0  0  0  0  0  0  0  0  0  0
   -2.1844   -3.2285    0.0780 H   0  0  0  0  0  0  0  0  0  0  0  0
    0.4810   -4.3962    1.0160 H   0  0  0  0  0  0  0  0  0  0  0  0
   -1.0540   -5.2224    0.9088 H   0  0  0  0  0  0  0  0  0  0  0  0
   -2.0139   -3.7463    2.6658 H   0  0  0  0  0  0  0  0  0  0  0  0
   -0.4991   -2.8416    2.7637 H   0  0  0  0  0  0  0  0  0  0  0  0
    0.7293   -4.9309    3.3777 H   0  0  0  0  0  0  0  0  0  0  0  0
   -0.7657   -5.8571    3.2604 H   0  0  0  0  0  0  0  0  0  0  0  0
   -0.2269   -3.6058    5.2640 H   0  0  0  0  0  0  0  0  0  0  0  0
   -0.2344   -5.3445    5.6005 H   0  0  0  0  0  0  0  0  0  0  0  0
   -1.7397   -4.5318    5.1426 H   0  0  0  0  0  0  0  0  0  0  0  0
  1 15  1  0  0  0  0
  1  2  1  0  0  0  0
  1 20  1  0  0  0  0
  2  3  2  0  0  0  0
  2 25  1  0  0  0  0
  3  7  1  0  0  0  0
  3  4  1  0  0  0  0
  4  5  2  0  0  0  0
  4 14  1  0  0  0  0
  5  6  1  0  0  0  0
  6  7  1  0  0  0  0
  6  9  1  0  0  0  0
  7  8  2  0  0  0  0
  9 10  1  0  0  0  0
  9 26  1  0  0  0  0
  9 27  1  0  0  0  0
 10 11  1  0  0  0  0
 10 28  1  0  0  0  0
 10 29  1  0  0  0  0
 11 12  1  0  0  0  0
 11 30  1  0  0  0  0
 11 31  1  0  0  0  0
 12 13  1  0  0  0  0
 12 32  1  0  0  0  0
 12 33  1  0  0  0  0
 13 34  1  0  0  0  0
 13 35  1  0  0  0  0
 13 36  1  0  0  0  0
 14 19  2  0  0  0  0
 14 15  1  0  0  0  0
 15 16  2  0  0  0  0
 16 17  1  0  0  0  0
 16 37  1  0  0  0  0
 17 18  2  0  0  0  0
 17 38  1  0  0  0  0
 18 19  1  0  0  0  0
 18 39  1  0  0  0  0
 19 40  1  0  0  0  0
 20 21  1  0  0  0  0
 20 41  1  0  0  0  0
 20 42  1  0  0  0  0
 21 22  1  0  0  0  0
 21 43  1  0  0  0  0
 21 44  1  0  0  0  0
 22 23  1  0  0  0  0
 22 45  1  0  0  0  0
 22 46  1  0  0  0  0
 23 24  1  0  0  0  0
 23 47  1  0  0  0  0
 23 48  1  0  0  0  0
 24 49  1  0  0  0  0
 24 50  1  0  0  0  0
 24 51  1  0  0  0  0
M  END
$$$$
CHEMBL2336573_5ZTY
 OpenBabel12022418113D

 60 62  0  0  0  0  0  0  0  0999 V2000
    0.6254   -1.8824   -2.6679 C   0  0  0  0  0  0  0  0  0  0  0  0
    2.0494   -1.9835   -3.1938 C   0  0  0  0  0  0  0  0  0  0  0  0
    2.8774   -0.8092   -2.8280 N   0  0  0  0  0  0  0  0  0  0  0  0
    2.8918    0.3140   -3.8039 C   0  0  0  0  0  0  0  0  0  0  0  0
    1.5269    0.9436   -4.0403 C   0  0  0  0  0  0  0  0  0  0  0  0
    4.2299   -1.1329   -2.4917 C   0  0  0  0  0  0  0  0  0  0  0  0
    4.9716   -0.2745   -1.6600 C   0  0  0  0  0  0  0  0  0  0  0  0
    6.3388   -0.4957   -1.3912 C   0  0  0  0  0  0  0  0  0  0  0  0
    7.0018   -1.5943   -1.9463 C   0  0  0  0  0  0  0  0  0  0  0  0
    6.2491   -2.4889   -2.7234 C   0  0  0  0  0  0  0  0  0  0  0  0
    4.8977   -2.2537   -3.0019 C   0  0  0  0  0  0  0  0  0  0  0  0
    8.5124   -1.7442   -1.9179 C   0  0  0  0  0  0  0  0  0  0  0  0
    9.2342   -1.9822   -0.6215 N   0  0  0  0  0  0  0  0  0  0  0  0
    8.6810   -3.1535    0.1305 C   0  0  0  0  0  0  0  0  0  0  0  0
    9.2416   -3.3349    1.5278 C   0  0  0  0  0  0  0  0  0  0  0  0
    9.9307   -4.5130    1.8628 C   0  0  0  0  0  0  0  0  0  0  0  0
   10.5751   -4.6353    3.0953 C   0  0  0  0  0  0  0  0  0  0  0  0
   10.5148   -3.5950    4.0190 C   0  0  0  0  0  0  0  0  0  0  0  0
    9.7941   -2.4398    3.7183 C   0  0  0  0  0  0  0  0  0  0  0  0
    9.1566   -2.3092    2.4804 C   0  0  0  0  0  0  0  0  0  0  0  0
   10.9517   -2.0868   -0.9272 S   0  0  0  0  0  0  0  0  0  0  0  0
   11.6492   -2.7375    0.1604 O   0  0  0  0  0  0  0  0  0  0  0  0
   11.1385   -2.5568   -2.2820 O   0  0  0  0  0  0  0  0  0  0  0  0
   11.4673   -0.3778   -0.8702 C   0  0  0  0  0  0  0  0  0  0  0  0
   11.8546    0.1675    0.3571 C   0  0  0  0  0  0  0  0  0  0  0  0
   12.3977    1.4529    0.4040 C   0  0  0  0  0  0  0  0  0  0  0  0
   12.5560    2.1981   -0.7710 C   0  0  0  0  0  0  0  0  0  0  0  0
   12.1775    1.6321   -1.9973 C   0  0  0  0  0  0  0  0  0  0  0  0
   11.6410    0.3432   -2.0520 C   0  0  0  0  0  0  0  0  0  0  0  0
   13.1552    3.5737   -0.7347 C   0  0  0  0  0  0  0  0  0  0  0  0
    0.1561   -2.8727   -2.6922 H   0  0  0  0  0  0  0  0  0  0  0  0
    0.0046   -1.2233   -3.2786 H   0  0  0  0  0  0  0  0  0  0  0  0
    0.6014   -1.5230   -1.6341 H   0  0  0  0  0  0  0  0  0  0  0  0
    2.0464   -2.1403   -4.2797 H   0  0  0  0  0  0  0  0  0  0  0  0
    2.4458   -2.8958   -2.7328 H   0  0  0  0  0  0  0  0  0  0  0  0
    3.3023   -0.0231   -4.7652 H   0  0  0  0  0  0  0  0  0  0  0  0
    3.5429    1.1207   -3.4426 H   0  0  0  0  0  0  0  0  0  0  0  0
    0.9006    0.3097   -4.6755 H   0  0  0  0  0  0  0  0  0  0  0  0
    1.6431    1.8995   -4.5646 H   0  0  0  0  0  0  0  0  0  0  0  0
    0.9976    1.1361   -3.1019 H   0  0  0  0  0  0  0  0  0  0  0  0
    4.4862    0.5998   -1.2321 H   0  0  0  0  0  0  0  0  0  0  0  0
    6.8849    0.2280   -0.7900 H   0  0  0  0  0  0  0  0  0  0  0  0
    6.7214   -3.3564   -3.1813 H   0  0  0  0  0  0  0  0  0  0  0  0
    4.4000   -2.9464   -3.6737 H   0  0  0  0  0  0  0  0  0  0  0  0
    8.9150   -0.8383   -2.3843 H   0  0  0  0  0  0  0  0  0  0  0  0
    8.7553   -2.5802   -2.5877 H   0  0  0  0  0  0  0  0  0  0  0  0
    8.8257   -4.0626   -0.4671 H   0  0  0  0  0  0  0  0  0  0  0  0
    7.5975   -3.0320    0.2503 H   0  0  0  0  0  0  0  0  0  0  0  0
   10.0311   -5.3174    1.1379 H   0  0  0  0  0  0  0  0  0  0  0  0
   11.1529   -5.5288    3.3178 H   0  0  0  0  0  0  0  0  0  0  0  0
   11.0433   -3.6793    4.9647 H   0  0  0  0  0  0  0  0  0  0  0  0
    9.7511   -1.6282    4.4407 H   0  0  0  0  0  0  0  0  0  0  0  0
    8.6280   -1.3891    2.2468 H   0  0  0  0  0  0  0  0  0  0  0  0
   11.7710   -0.4143    1.2741 H   0  0  0  0  0  0  0  0  0  0  0  0
   12.7168    1.8597    1.3630 H   0  0  0  0  0  0  0  0  0  0  0  0
   12.3230    2.1887   -2.9219 H   0  0  0  0  0  0  0  0  0  0  0  0
   11.3919   -0.0952   -3.0161 H   0  0  0  0  0  0  0  0  0  0  0  0
   13.3305    3.9089    0.2936 H   0  0  0  0  0  0  0  0  0  0  0  0
   12.4781    4.2924   -1.2070 H   0  0  0  0  0  0  0  0  0  0  0  0
   14.1148    3.5824   -1.2611 H   0  0  0  0  0  0  0  0  0  0  0  0
  1  2  1  0  0  0  0
  1 31  1  0  0  0  0
  1 32  1  0  0  0  0
  1 33  1  0  0  0  0
  2  3  1  0  0  0  0
  2 34  1  0  0  0  0
  2 35  1  0  0  0  0
  3  4  1  0  0  0  0
  3  6  1  0  0  0  0
  4  5  1  0  0  0  0
  4 36  1  0  0  0  0
  4 37  1  0  0  0  0
  5 38  1  0  0  0  0
  5 39  1  0  0  0  0
  5 40  1  0  0  0  0
  6 11  2  0  0  0  0
  6  7  1  0  0  0  0
  7  8  2  0  0  0  0
  7 41  1  0  0  0  0
  8  9  1  0  0  0  0
  8 42  1  0  0  0  0
  9 10  2  0  0  0  0
  9 12  1  0  0  0  0
 10 11  1  0  0  0  0
 10 43  1  0  0  0  0
 11 44  1  0  0  0  0
 12 13  1  0  0  0  0
 12 45  1  0  0  0  0
 12 46  1  0  0  0  0
 13 14  1  0  0  0  0
 13 21  1  0  0  0  0
 14 15  1  0  0  0  0
 14 47  1  0  0  0  0
 14 48  1  0  0  0  0
 15 20  2  0  0  0  0
 15 16  1  0  0  0  0
 16 17  2  0  0  0  0
 16 49  1  0  0  0  0
 17 18  1  0  0  0  0
 17 50  1  0  0  0  0
 18 19  2  0  0  0  0
 18 51  1  0  0  0  0
 19 20  1  0  0  0  0
 19 52  1  0  0  0  0
 20 53  1  0  0  0  0
 21 22  2  0  0  0  0
 21 23  2  0  0  0  0
 21 24  1  0  0  0  0
 24 29  2  0  0  0  0
 24 25  1  0  0  0  0
 25 26  2  0  0  0  0
 25 54  1  0  0  0  0
 26 27  1  0  0  0  0
 26 55  1  0  0  0  0
 27 28  2  0  0  0  0
 27 30  1  0  0  0  0
 28 29  1  0  0  0  0
 28 56  1  0  0  0  0
 29 57  1  0  0  0  0
 30 58  1  0  0  0  0
 30 59  1  0  0  0  0
 30 60  1  0  0  0  0
M  END
$$$$
CHEMBL3353427_5ZTY
 OpenBabel12022418113D

 53 55  0  0  1  0  0  0  0  0999 V2000
   12.8876    3.2308   -3.7895 C   0  0  0  0  0  0  0  0  0  0  0  0
   12.2977    4.4680   -3.6105 C   0  0  0  0  0  0  0  0  0  0  0  0
   11.0765    4.6352   -3.0525 N   0  0  0  0  0  0  0  0  0  0  0  0
   10.3901    3.5335   -2.6503 C   0  0  0  0  0  0  0  0  0  0  0  0
   10.9010    2.2470   -2.8222 C   0  0  0  0  0  0  0  0  0  0  0  0
   12.1631    2.1068   -3.4066 C   0  0  0  0  0  0  0  0  0  0  0  0
   10.1323    1.0865   -2.4025 C   0  0  0  0  0  0  0  0  0  0  0  0
    9.0358    1.2319   -1.6406 C   0  0  0  0  0  0  0  0  0  0  0  0
    8.6213    2.6128   -1.2346 C   0  0  0  0  0  0  0  0  0  0  0  0
    7.8355    2.7335   -0.2936 O   0  0  0  0  0  0  0  0  0  0  0  0
    9.1504    3.7008   -1.9348 N   0  0  0  0  0  0  0  0  0  0  0  0
    8.7328    5.0884   -1.6487 C   0  0  0  0  0  0  0  0  0  0  0  0
    7.2551    5.4698   -1.8688 C   0  0  0  0  0  0  0  0  0  0  0  0
    6.1949    5.0206   -0.8580 C   0  0  0  0  0  0  0  0  0  0  0  0
    6.4639    5.3944    0.5950 C   0  0  0  0  0  0  0  0  0  0  0  0
    6.4870    6.8099    0.7349 O   0  0  0  0  0  0  0  0  0  0  0  0
    8.3398   -0.0340   -1.2055 C   0  0  0  0  0  0  0  0  0  0  0  0
    8.6121   -1.1170   -1.7192 O   0  0  0  0  0  0  0  0  0  0  0  0
    7.4100    0.0890   -0.2016 N   0  0  0  0  0  0  0  0  0  0  0  0
    6.6079   -1.0257    0.3403 C   0  0  1  0  0  0  0  0  0  0  0  0
    6.2674   -0.7382    1.8093 C   0  0  0  0  0  0  0  0  0  0  0  0
    5.1392   -1.5877    2.3856 C   0  0  0  0  0  0  0  0  0  0  0  0
    3.8601   -1.5277    1.5532 C   0  0  2  0  0  0  0  0  0  0  0  0
    4.1630   -1.9480    0.1122 C   0  0  0  0  0  0  0  0  0  0  0  0
    5.3885   -1.3118   -0.5543 C   0  0  0  0  0  0  0  0  0  0  0  0
    3.1427   -0.1824    1.6967 C   0  0  0  0  0  0  0  0  0  0  0  0
   13.8841    3.1446   -4.2107 H   0  0  0  0  0  0  0  0  0  0  0  0
   12.8097    5.3797   -3.9120 H   0  0  0  0  0  0  0  0  0  0  0  0
   12.6127    1.1183   -3.5377 H   0  0  0  0  0  0  0  0  0  0  0  0
   10.4849    0.1070   -2.7113 H   0  0  0  0  0  0  0  0  0  0  0  0
    9.2607    5.7592   -2.3374 H   0  0  0  0  0  0  0  0  0  0  0  0
    9.0715    5.3465   -0.6420 H   0  0  0  0  0  0  0  0  0  0  0  0
    6.9414    5.1417   -2.8678 H   0  0  0  0  0  0  0  0  0  0  0  0
    7.2167    6.5685   -1.8929 H   0  0  0  0  0  0  0  0  0  0  0  0
    6.0151    3.9474   -0.9482 H   0  0  0  0  0  0  0  0  0  0  0  0
    5.2522    5.4983   -1.1554 H   0  0  0  0  0  0  0  0  0  0  0  0
    7.3992    4.9763    0.9782 H   0  0  0  0  0  0  0  0  0  0  0  0
    5.6513    5.0156    1.2243 H   0  0  0  0  0  0  0  0  0  0  0  0
    7.3939    7.0666    0.9710 H   0  0  0  0  0  0  0  0  0  0  0  0
    7.1900    1.0333    0.1150 H   0  0  0  0  0  0  0  0  0  0  0  0
    7.2463   -1.9194    0.3190 H   0  0  0  0  0  0  0  0  0  0  0  0
    6.0160    0.3229    1.9357 H   0  0  0  0  0  0  0  0  0  0  0  0
    7.1679   -0.9019    2.4148 H   0  0  0  0  0  0  0  0  0  0  0  0
    4.9290   -1.2636    3.4124 H   0  0  0  0  0  0  0  0  0  0  0  0
    5.4679   -2.6317    2.4512 H   0  0  0  0  0  0  0  0  0  0  0  0
    3.1620   -2.2727    1.9603 H   0  0  0  0  0  0  0  0  0  0  0  0
    3.2824   -1.7877   -0.5227 H   0  0  0  0  0  0  0  0  0  0  0  0
    4.3191   -3.0360    0.1231 H   0  0  0  0  0  0  0  0  0  0  0  0
    5.7141   -1.9962   -1.3528 H   0  0  0  0  0  0  0  0  0  0  0  0
    5.0752   -0.3993   -1.0737 H   0  0  0  0  0  0  0  0  0  0  0  0
    3.7711    0.6695    1.4251 H   0  0  0  0  0  0  0  0  0  0  0  0
    2.8293   -0.0431    2.7401 H   0  0  0  0  0  0  0  0  0  0  0  0
    2.2340   -0.1483    1.0864 H   0  0  0  0  0  0  0  0  0  0  0  0
  1  6  2  0  0  0  0
  1  2  1  0  0  0  0
  1 27  1  0  0  0  0
  2  3  2  0  0  0  0
  2 28  1  0  0  0  0
  3  4  1  0  0  0  0
  4 11  1  0  0  0  0
  4  5  2  0  0  0  0
  5  6  1  0  0  0  0
  5  7  1  0  0  0  0
  6 29  1  0  0  0  0
  7  8  2  0  0  0  0
  7 30  1  0  0  0  0
  8  9  1  0  0  0  0
  8 17  1  0  0  0  0
  9 10  2  0  0  0  0
  9 11  1  0  0  0  0
 11 12  1  0  0  0  0
 12 13  1  0  0  0  0
 12 31  1  0  0  0  0
 12 32  1  0  0  0  0
 13 14  1  0  0  0  0
 13 33  1  0  0  0  0
 13 34  1  0  0  0  0
 14 15  1  0  0  0  0
 14 35  1  0  0  0  0
 14 36  1  0  0  0  0
 15 16  1  0  0  0  0
 15 37  1  0  0  0  0
 15 38  1  0  0  0  0
 16 39  1  0  0  0  0
 17 18  2  0  0  0  0
 17 19  1  0  0  0  0
 19 40  1  0  0  0  0
 20 21  1  0  0  0  0
 20 25  1  0  0  0  0
 20 19  1  0  0  0  0
 20 41  1  6  0  0  0
 21 22  1  0  0  0  0
 21 42  1  0  0  0  0
 21 43  1  0  0  0  0
 22 23  1  0  0  0  0
 22 44  1  0  0  0  0
 22 45  1  0  0  0  0
 23 24  1  0  0  0  0
 23 26  1  0  0  0  0
 23 46  1  1  0  0  0
 24 25  1  0  0  0  0
 24 47  1  0  0  0  0
 24 48  1  0  0  0  0
 25 49  1  0  0  0  0
 25 50  1  0  0  0  0
 26 51  1  0  0  0  0
 26 52  1  0  0  0  0
 26 53  1  0  0  0  0
M  END
$$$$
CHEMBL2019090_8GUT
 OpenBabel12022418113D

 57 59  0  0  0  0  0  0  0  0999 V2000
    3.2419    0.5052   -1.1002 C   0  0  0  0  0  0  0  0  0  0  0  0
    2.2582    0.3492    0.0484 C   0  0  0  0  0  0  0  0  0  0  0  0
    2.9351    0.0696    1.3803 C   0  0  0  0  0  0  0  0  0  0  0  0
    3.3275    1.1055    2.1587 C   0  0  0  0  0  0  0  0  0  0  0  0
    3.2671    2.5764    1.8295 C   0  0  0  0  0  0  0  0  0  0  0  0
    3.8658    0.8541    3.4730 C   0  0  0  0  0  0  0  0  0  0  0  0
    3.9642   -0.3756    3.9898 C   0  0  0  0  0  0  0  0  0  0  0  0
    4.4776   -0.4253    5.3822 C   0  0  0  0  0  0  0  0  0  0  0  0
    5.0226    0.5566    5.8895 O   0  0  0  0  0  0  0  0  0  0  0  0
    4.3555   -1.5859    6.0999 N   0  0  0  0  0  0  0  0  0  0  0  0
    4.7265   -1.7200    7.5386 C   0  0  0  0  0  0  0  0  0  0  0  0
    6.2833   -1.6593    7.6671 C   0  0  0  0  0  0  0  0  0  0  0  0
    6.9784   -2.5660    8.1108 O   0  0  0  0  0  0  0  0  0  0  0  0
    6.8526   -0.5008    7.2590 O   0  0  0  0  0  0  0  0  0  0  0  0
    4.0427   -0.6118    8.3860 C   0  0  0  0  0  0  0  0  0  0  0  0
    4.1428   -0.8114    9.8970 C   0  0  0  0  0  0  0  0  0  0  0  0
    3.6594   -2.1841   10.3355 C   0  0  0  0  0  0  0  0  0  0  0  0
    4.3467   -3.2952    9.5556 C   0  0  0  0  0  0  0  0  0  0  0  0
    4.2246   -3.1006    8.0401 C   0  0  0  0  0  0  0  0  0  0  0  0
    3.5464   -1.5324    3.1636 C   0  0  0  0  0  0  0  0  0  0  0  0
    3.6182   -2.6630    3.6478 O   0  0  0  0  0  0  0  0  0  0  0  0
    3.0924   -1.2551    1.8529 N   0  0  0  0  0  0  0  0  0  0  0  0
    2.7115   -2.4306    1.0518 C   0  0  0  0  0  0  0  0  0  0  0  0
    3.8141   -3.1622    0.2969 C   0  0  0  0  0  0  0  0  0  0  0  0
    3.4297   -4.0990   -0.6867 C   0  0  0  0  0  0  0  0  0  0  0  0
    4.3557   -4.9884   -1.2379 C   0  0  0  0  0  0  0  0  0  0  0  0
    5.6777   -4.9389   -0.8205 C   0  0  0  0  0  0  0  0  0  0  0  0
    6.0975   -3.9846    0.0973 C   0  0  0  0  0  0  0  0  0  0  0  0
    5.1703   -3.0923    0.6496 C   0  0  0  0  0  0  0  0  0  0  0  0
    6.5524   -5.8401   -1.2879 F   0  0  0  0  0  0  0  0  0  0  0  0
    2.7330    0.9485   -1.9638 H   0  0  0  0  0  0  0  0  0  0  0  0
    3.6488   -0.4610   -1.4058 H   0  0  0  0  0  0  0  0  0  0  0  0
    4.0745    1.1645   -0.8342 H   0  0  0  0  0  0  0  0  0  0  0  0
    1.4916   -0.3859   -0.2048 H   0  0  0  0  0  0  0  0  0  0  0  0
    1.6686    1.2717    0.1295 H   0  0  0  0  0  0  0  0  0  0  0  0
    2.9122    2.7964    0.8221 H   0  0  0  0  0  0  0  0  0  0  0  0
    4.2665    3.0211    1.9119 H   0  0  0  0  0  0  0  0  0  0  0  0
    2.6055    3.0943    2.5339 H   0  0  0  0  0  0  0  0  0  0  0  0
    4.1563    1.7269    4.0561 H   0  0  0  0  0  0  0  0  0  0  0  0
    4.0395   -2.4176    5.5924 H   0  0  0  0  0  0  0  0  0  0  0  0
    6.2055    0.1257    6.8528 H   0  0  0  0  0  0  0  0  0  0  0  0
    2.9794   -0.5629    8.1134 H   0  0  0  0  0  0  0  0  0  0  0  0
    4.4545    0.3780    8.1696 H   0  0  0  0  0  0  0  0  0  0  0  0
    3.5445   -0.0420   10.4005 H   0  0  0  0  0  0  0  0  0  0  0  0
    5.1795   -0.6614   10.2203 H   0  0  0  0  0  0  0  0  0  0  0  0
    2.5742   -2.2545   10.1953 H   0  0  0  0  0  0  0  0  0  0  0  0
    3.8489   -2.3119   11.4081 H   0  0  0  0  0  0  0  0  0  0  0  0
    3.9083   -4.2592    9.8372 H   0  0  0  0  0  0  0  0  0  0  0  0
    5.4003   -3.3410    9.8531 H   0  0  0  0  0  0  0  0  0  0  0  0
    4.7629   -3.9112    7.5323 H   0  0  0  0  0  0  0  0  0  0  0  0
    3.1675   -3.2215    7.7655 H   0  0  0  0  0  0  0  0  0  0  0  0
    1.9067   -2.1821    0.3574 H   0  0  0  0  0  0  0  0  0  0  0  0
    2.2715   -3.1702    1.7322 H   0  0  0  0  0  0  0  0  0  0  0  0
    2.3887   -4.1779   -0.9947 H   0  0  0  0  0  0  0  0  0  0  0  0
    4.0485   -5.7403   -1.9579 H   0  0  0  0  0  0  0  0  0  0  0  0
    7.1374   -3.9658    0.4091 H   0  0  0  0  0  0  0  0  0  0  0  0
    5.5212   -2.3825    1.3928 H   0  0  0  0  0  0  0  0  0  0  0  0
  1  2  1  0  0  0  0
  1 31  1  0  0  0  0
  1 32  1  0  0  0  0
  1 33  1  0  0  0  0
  2  3  1  0  0  0  0
  2 34  1  0  0  0  0
  2 35  1  0  0  0  0
  3 22  1  0  0  0  0
  3  4  2  0  0  0  0
  4  5  1  0  0  0  0
  4  6  1  0  0  0  0
  5 36  1  0  0  0  0
  5 37  1  0  0  0  0
  5 38  1  0  0  0  0
  6  7  2  0  0  0  0
  6 39  1  0  0  0  0
  7  8  1  0  0  0  0
  7 20  1  0  0  0  0
  8  9  2  0  0  0  0
  8 10  1  0  0  0  0
 10 11  1  0  0  0  0
 10 40  1  0  0  0  0
 11 19  1  0  0  0  0
 11 12  1  0  0  0  0
 11 15  1  0  0  0  0
 12 13  2  0  0  0  0
 12 14  1  0  0  0  0
 14 41  1  0  0  0  0
 15 16  1  0  0  0  0
 15 42  1  0  0  0  0
 15 43  1  0  0  0  0
 16 17  1  0  0  0  0
 16 44  1  0  0  0  0
 16 45  1  0  0  0  0
 17 18  1  0  0  0  0
 17 46  1  0  0  0  0
 17 47  1  0  0  0  0
 18 19  1  0  0  0  0
 18 48  1  0  0  0  0
 18 49  1  0  0  0  0
 19 50  1  0  0  0  0
 19 51  1  0  0  0  0
 20 21  2  0  0  0  0
 20 22  1  0  0  0  0
 22 23  1  0  0  0  0
 23 24  1  0  0  0  0
 23 52  1  0  0  0  0
 23 53  1  0  0  0  0
 24 29  2  0  0  0  0
 24 25  1  0  0  0  0
 25 26  2  0  0  0  0
 25 54  1  0  0  0  0
 26 27  1  0  0  0  0
 26 55  1  0  0  0  0
 27 28  2  0  0  0  0
 27 30  1  0  0  0  0
 28 29  1  0  0  0  0
 28 56  1  0  0  0  0
 29 57  1  0  0  0  0
M  END
$$$$
CHEMBL3421696_8GUR
 OpenBabel12022418113D

 46 49  0  0  0  0  0  0  0  0999 V2000
    1.1516   -1.1317   -0.4519 C   0  0  0  0  0  0  0  0  0  0  0  0
    0.6130   -0.8827   -1.8508 C   0  0  0  0  0  0  0  0  0  0  0  0
    2.5331   -0.5046   -0.2814 C   0  0  0  0  0  0  0  0  0  0  0  0
    3.0871   -0.7490    1.1199 C   0  0  0  0  0  0  0  0  0  0  0  0
    4.5044   -0.1705    1.2552 C   0  0  0  0  0  0  0  0  0  0  0  0
    5.0671   -0.4758    2.5825 N   0  0  0  0  0  0  0  0  0  0  0  0
    5.2703   -1.8043    2.9350 C   0  0  0  0  0  0  0  0  0  0  0  0
    5.6127   -2.2028    4.1504 C   0  0  0  0  0  0  0  0  0  0  0  0
    5.8247   -1.2381    5.2162 C   0  0  0  0  0  0  0  0  0  0  0  0
    5.7793    0.1923    4.8570 C   0  0  0  0  0  0  0  0  0  0  0  0
    6.1569    1.1627    5.7939 C   0  0  0  0  0  0  0  0  0  0  0  0
    6.1758    2.5078    5.4223 C   0  0  0  0  0  0  0  0  0  0  0  0
    5.7991    2.8777    4.1347 C   0  0  0  0  0  0  0  0  0  0  0  0
    5.4048    1.9099    3.2017 C   0  0  0  0  0  0  0  0  0  0  0  0
    5.3912    0.5421    3.5231 C   0  0  0  0  0  0  0  0  0  0  0  0
    6.0401   -1.8418    6.3634 N   0  0  0  0  0  0  0  0  0  0  0  0
    5.9834   -3.2313    6.0644 N   0  0  0  0  0  0  0  0  0  0  0  0
    6.0346   -4.2669    7.0723 C   0  0  0  0  0  0  0  0  0  0  0  0
    7.4349   -4.7606    7.2784 C   0  0  0  0  0  0  0  0  0  0  0  0
    7.7163   -6.2410    7.4301 C   0  0  0  0  0  0  0  0  0  0  0  0
    8.1793   -5.5151    6.2004 C   0  0  0  0  0  0  0  0  0  0  0  0
    5.7524   -3.5259    4.7211 C   0  0  0  0  0  0  0  0  0  0  0  0
    5.6371   -4.5881    4.1359 O   0  0  0  0  0  0  0  0  0  0  0  0
    1.2053   -2.2117   -0.2731 H   0  0  0  0  0  0  0  0  0  0  0  0
    0.4570   -0.7141    0.2859 H   0  0  0  0  0  0  0  0  0  0  0  0
    1.2709   -1.3247   -2.6059 H   0  0  0  0  0  0  0  0  0  0  0  0
    0.5324    0.1904   -2.0518 H   0  0  0  0  0  0  0  0  0  0  0  0
   -0.3803   -1.3273   -1.9608 H   0  0  0  0  0  0  0  0  0  0  0  0
    2.4772    0.5739   -0.4707 H   0  0  0  0  0  0  0  0  0  0  0  0
    3.2196   -0.9293   -1.0240 H   0  0  0  0  0  0  0  0  0  0  0  0
    3.0883   -1.8279    1.3118 H   0  0  0  0  0  0  0  0  0  0  0  0
    2.4279   -0.2990    1.8724 H   0  0  0  0  0  0  0  0  0  0  0  0
    4.4638    0.8935    1.0194 H   0  0  0  0  0  0  0  0  0  0  0  0
    5.1584   -0.6188    0.4960 H   0  0  0  0  0  0  0  0  0  0  0  0
    5.0823   -2.5360    2.1563 H   0  0  0  0  0  0  0  0  0  0  0  0
    6.4602    0.8752    6.7972 H   0  0  0  0  0  0  0  0  0  0  0  0
    6.4976    3.2687    6.1295 H   0  0  0  0  0  0  0  0  0  0  0  0
    5.8259    3.9258    3.8381 H   0  0  0  0  0  0  0  0  0  0  0  0
    5.1492    2.2746    2.2142 H   0  0  0  0  0  0  0  0  0  0  0  0
    5.3876   -5.0901    6.7423 H   0  0  0  0  0  0  0  0  0  0  0  0
    5.6179   -3.8770    8.0060 H   0  0  0  0  0  0  0  0  0  0  0  0
    8.0063   -4.0740    7.8925 H   0  0  0  0  0  0  0  0  0  0  0  0
    6.9086   -6.9545    7.3052 H   0  0  0  0  0  0  0  0  0  0  0  0
    8.4733   -6.5548    8.1393 H   0  0  0  0  0  0  0  0  0  0  0  0
    9.2393   -5.3171    6.0900 H   0  0  0  0  0  0  0  0  0  0  0  0
    7.6788   -5.7484    5.2674 H   0  0  0  0  0  0  0  0  0  0  0  0
  1  2  1  0  0  0  0
  1  3  1  0  0  0  0
  1 24  1  0  0  0  0
  1 25  1  0  0  0  0
  2 26  1  0  0  0  0
  2 27  1  0  0  0  0
  2 28  1  0  0  0  0
  3  4  1  0  0  0  0
  3 29  1  0  0  0  0
  3 30  1  0  0  0  0
  4  5  1  0  0  0  0
  4 31  1  0  0  0  0
  4 32  1  0  0  0  0
  5  6  1  0  0  0  0
  5 33  1  0  0  0  0
  5 34  1  0  0  0  0
  6 15  1  0  0  0  0
  6  7  1  0  0  0  0
  7  8  2  0  0  0  0
  7 35  1  0  0  0  0
  8 22  1  0  0  0  0
  8  9  1  0  0  0  0
  9 10  1  0  0  0  0
  9 16  2  0  0  0  0
 10 15  2  0  0  0  0
 10 11  1  0  0  0  0
 11 12  2  0  0  0  0
 11 36  1  0  0  0  0
 12 13  1  0  0  0  0
 12 37  1  0  0  0  0
 13 14  2  0  0  0  0
 13 38  1  0  0  0  0
 14 15  1  0  0  0  0
 14 39  1  0  0  0  0
 16 17  1  0  0  0  0
 17 18  1  0  0  0  0
 17 22  1  0  0  0  0
 18 19  1  0  0  0  0
 18 40  1  0  0  0  0
 18 41  1  0  0  0  0
 19 21  1  0  0  0  0
 19 20  1  0  0  0  0
 19 42  1  0  0  0  0
 20 21  1  0  0  0  0
 20 43  1  0  0  0  0
 20 44  1  0  0  0  0
 21 45  1  0  0  0  0
 21 46  1  0  0  0  0
 22 23  2  0  0  0  0
M  END
$$$$
CHEMBL376700_8GUQ
 OpenBabel12022418113D

 55 59  0  0  0  0  0  0  0  0999 V2000
    2.7948   -1.5491   -0.5307 C   0  0  0  0  0  0  0  0  0  0  0  0
    1.4001   -1.5896   -0.4806 C   0  0  0  0  0  0  0  0  0  0  0  0
    0.6512   -0.4751   -0.0536 C   0  0  0  0  0  0  0  0  0  0  0  0
   -0.8166   -0.5668    0.0150 C   0  0  0  0  0  0  0  0  0  0  0  0
   -1.7135    0.3830   -0.4507 C   0  0  0  0  0  0  0  0  0  0  0  0
   -1.2922    1.7020   -0.9928 C   0  0  0  0  0  0  0  0  0  0  0  0
   -0.6349    2.5434    0.0979 C   0  0  0  0  0  0  0  0  0  0  0  0
    0.6357    1.9819    0.7698 C   0  0  0  0  0  0  0  0  0  0  0  0
    1.3244    0.7315    0.2499 C   0  0  0  0  0  0  0  0  0  0  0  0
    2.7357    0.7520    0.1875 C   0  0  0  0  0  0  0  0  0  0  0  0
    3.4579   -0.3786   -0.1920 C   0  0  0  0  0  0  0  0  0  0  0  0
    5.1766   -0.3256   -0.2325 Cl  0  0  0  0  0  0  0  0  0  0  0  0
   -3.0086   -0.1795   -0.2781 C   0  0  0  0  0  0  0  0  0  0  0  0
   -4.3413    0.4001   -0.5855 C   0  0  0  0  0  0  0  0  0  0  0  0
   -4.4835    1.5230   -1.0582 O   0  0  0  0  0  0  0  0  0  0  0  0
   -5.3799   -0.4767   -0.2631 N   0  0  0  0  0  0  0  0  0  0  0  0
   -6.7463   -0.1299   -0.4180 N   0  0  0  0  0  0  0  0  0  0  0  0
   -7.3990   -1.0111   -1.4004 C   0  0  0  0  0  0  0  0  0  0  0  0
   -8.8702   -0.6382   -1.6089 C   0  0  0  0  0  0  0  0  0  0  0  0
   -9.6400   -0.6170   -0.2930 C   0  0  0  0  0  0  0  0  0  0  0  0
   -8.9131    0.2413    0.7360 C   0  0  0  0  0  0  0  0  0  0  0  0
   -7.4461   -0.1758    0.8767 C   0  0  0  0  0  0  0  0  0  0  0  0
   -2.9126   -1.4088    0.2603 N   0  0  0  0  0  0  0  0  0  0  0  0
   -1.5925   -1.6223    0.4856 N   0  0  0  0  0  0  0  0  0  0  0  0
   -1.1945   -2.7578    1.2511 C   0  0  0  0  0  0  0  0  0  0  0  0
   -0.1311   -2.6276    2.1641 C   0  0  0  0  0  0  0  0  0  0  0  0
    0.2662   -3.7100    2.9523 C   0  0  0  0  0  0  0  0  0  0  0  0
   -0.4052   -4.9231    2.8498 C   0  0  0  0  0  0  0  0  0  0  0  0
   -1.4624   -5.0691    1.9561 C   0  0  0  0  0  0  0  0  0  0  0  0
   -1.8604   -3.9936    1.1509 C   0  0  0  0  0  0  0  0  0  0  0  0
   -3.0875   -4.3534   -0.0189 Cl  0  0  0  0  0  0  0  0  0  0  0  0
    0.0761   -6.2509    3.8300 Cl  0  0  0  0  0  0  0  0  0  0  0  0
    3.3519   -2.4326   -0.8321 H   0  0  0  0  0  0  0  0  0  0  0  0
    0.9053   -2.5136   -0.7732 H   0  0  0  0  0  0  0  0  0  0  0  0
   -2.1400    2.2512   -1.4111 H   0  0  0  0  0  0  0  0  0  0  0  0
   -0.5884    1.5573   -1.8230 H   0  0  0  0  0  0  0  0  0  0  0  0
   -1.3709    2.7383    0.8910 H   0  0  0  0  0  0  0  0  0  0  0  0
   -0.3992    3.5292   -0.3230 H   0  0  0  0  0  0  0  0  0  0  0  0
    0.4246    1.8079    1.8335 H   0  0  0  0  0  0  0  0  0  0  0  0
    1.3647    2.8052    0.7651 H   0  0  0  0  0  0  0  0  0  0  0  0
    3.2804    1.6569    0.4523 H   0  0  0  0  0  0  0  0  0  0  0  0
   -5.1049   -1.3769    0.1293 H   0  0  0  0  0  0  0  0  0  0  0  0
   -7.3309   -2.0599   -1.0814 H   0  0  0  0  0  0  0  0  0  0  0  0
   -6.8837   -0.9317   -2.3651 H   0  0  0  0  0  0  0  0  0  0  0  0
   -9.3392   -1.3534   -2.2948 H   0  0  0  0  0  0  0  0  0  0  0  0
   -8.9363    0.3488   -2.0836 H   0  0  0  0  0  0  0  0  0  0  0  0
   -9.7445   -1.6399    0.0893 H   0  0  0  0  0  0  0  0  0  0  0  0
  -10.6534   -0.2321   -0.4560 H   0  0  0  0  0  0  0  0  0  0  0  0
   -9.4181    0.1576    1.7054 H   0  0  0  0  0  0  0  0  0  0  0  0
   -8.9703    1.2956    0.4368 H   0  0  0  0  0  0  0  0  0  0  0  0
   -6.9604    0.5053    1.5853 H   0  0  0  0  0  0  0  0  0  0  0  0
   -7.3944   -1.1847    1.3084 H   0  0  0  0  0  0  0  0  0  0  0  0
    0.3844   -1.6808    2.3111 H   0  0  0  0  0  0  0  0  0  0  0  0
    1.0917   -3.5939    3.6507 H   0  0  0  0  0  0  0  0  0  0  0  0
   -1.9666   -6.0289    1.8718 H   0  0  0  0  0  0  0  0  0  0  0  0
  1 11  2  0  0  0  0
  1  2  1  0  0  0  0
  1 33  1  0  0  0  0
  2  3  2  0  0  0  0
  2 34  1  0  0  0  0
  3  9  1  0  0  0  0
  3  4  1  0  0  0  0
  4 24  1  0  0  0  0
  4  5  2  0  0  0  0
  5  6  1  0  0  0  0
  5 13  1  0  0  0  0
  6  7  1  0  0  0  0
  6 35  1  0  0  0  0
  6 36  1  0  0  0  0
  7  8  1  0  0  0  0
  7 37  1  0  0  0  0
  7 38  1  0  0  0  0
  8  9  1  0  0  0  0
  8 39  1  0  0  0  0
  8 40  1  0  0  0  0
  9 10  2  0  0  0  0
 10 11  1  0  0  0  0
 10 41  1  0  0  0  0
 11 12  1  0  0  0  0
 13 14  1  0  0  0  0
 13 23  2  0  0  0  0
 14 15  2  0  0  0  0
 14 16  1  0  0  0  0
 16 17  1  0  0  0  0
 16 42  1  0  0  0  0
 17 22  1  0  0  0  0
 17 18  1  0  0  0  0
 18 19  1  0  0  0  0
 18 43  1  0  0  0  0
 18 44  1  0  0  0  0
 19 20  1  0  0  0  0
 19 45  1  0  0  0  0
 19 46  1  0  0  0  0
 20 21  1  0  0  0  0
 20 47  1  0  0  0  0
 20 48  1  0  0  0  0
 21 22  1  0  0  0  0
 21 49  1  0  0  0  0
 21 50  1  0  0  0  0
 22 51  1  0  0  0  0
 22 52  1  0  0  0  0
 23 24  1  0  0  0  0
 24 25  1  0  0  0  0
 25 30  2  0  0  0  0
 25 26  1  0  0  0  0
 26 27  2  0  0  0  0
 26 53  1  0  0  0  0
 27 28  1  0  0  0  0
 27 54  1  0  0  0  0
 28 29  2  0  0  0  0
 28 32  1  0  0  0  0
 29 30  1  0  0  0  0
 29 55  1  0  0  0  0
 30 31  1  0  0  0  0
M  END
$$$$
CHEMBL3650107_8GUR
 OpenBabel12022418113D

 65 66  0  0  0  0  0  0  0  0999 V2000
    3.7642    1.8179   -1.5486 C   0  0  0  0  0  0  0  0  0  0  0  0
    3.3624    1.6701   -0.0869 C   0  0  0  0  0  0  0  0  0  0  0  0
    3.6698    0.3104    0.5584 C   0  0  0  0  0  0  0  0  0  0  0  0
    5.1392   -0.0673    0.8095 C   0  0  0  0  0  0  0  0  0  0  0  0
    5.9283    0.9854    1.4568 N   0  0  0  0  0  0  0  0  0  0  0  0
    6.5251    0.9178    2.7139 C   0  0  0  0  0  0  0  0  0  0  0  0
    6.1610    0.2934    3.7924 N   0  0  0  0  0  0  0  0  0  0  0  0
    6.9117    0.4541    4.9566 C   0  0  0  0  0  0  0  0  0  0  0  0
    7.5704   -0.4713    5.4352 O   0  0  0  0  0  0  0  0  0  0  0  0
    6.9222    1.8204    5.6387 C   0  0  0  0  0  0  0  0  0  0  0  0
    5.9126    2.7318    5.2654 C   0  0  0  0  0  0  0  0  0  0  0  0
    5.9637    4.0916    5.6251 C   0  0  0  0  0  0  0  0  0  0  0  0
    4.9699    5.0776    5.0595 C   0  0  0  0  0  0  0  0  0  0  0  0
    4.1114    4.5193    4.1617 F   0  0  0  0  0  0  0  0  0  0  0  0
    4.1968    5.6558    6.0154 F   0  0  0  0  0  0  0  0  0  0  0  0
    5.5823    6.0977    4.3958 F   0  0  0  0  0  0  0  0  0  0  0  0
    6.9926    4.5319    6.4608 C   0  0  0  0  0  0  0  0  0  0  0  0
    7.9591    3.6329    6.9088 C   0  0  0  0  0  0  0  0  0  0  0  0
    7.9466    2.2901    6.4909 C   0  0  0  0  0  0  0  0  0  0  0  0
    8.9524    1.5473    7.0613 O   0  0  0  0  0  0  0  0  0  0  0  0
    9.6871    0.8505    6.0825 N   0  0  0  0  0  0  0  0  0  0  0  0
   11.0561    0.9738    6.2051 C   0  0  0  0  0  0  0  0  0  0  0  0
   11.6174    1.8609    6.8455 O   0  0  0  0  0  0  0  0  0  0  0  0
   11.8309   -0.1141    5.4272 C   0  0  0  0  0  0  0  0  0  0  0  0
   11.5303    0.0258    3.9234 C   0  0  0  0  0  0  0  0  0  0  0  0
   13.3442    0.0354    5.6657 C   0  0  0  0  0  0  0  0  0  0  0  0
   11.4026   -1.4979    5.9549 C   0  0  0  0  0  0  0  0  0  0  0  0
    7.9485    1.9654    2.6540 S   0  0  0  0  0  0  0  0  0  0  0  0
    7.3941    2.5762    1.1172 C   0  0  0  0  0  0  0  0  0  0  0  0
    8.0628    3.7979    0.5099 C   0  0  0  0  0  0  0  0  0  0  0  0
    9.5880    3.7243    0.6937 C   0  0  0  0  0  0  0  0  0  0  0  0
    7.7536    3.8694   -0.9934 C   0  0  0  0  0  0  0  0  0  0  0  0
    7.5097    5.0626    1.1909 C   0  0  0  0  0  0  0  0  0  0  0  0
    6.3851    1.9582    0.5874 N   0  0  0  0  0  0  0  0  0  0  0  0
    3.6436    2.8640   -1.8578 H   0  0  0  0  0  0  0  0  0  0  0  0
    3.1196    1.2150   -2.1973 H   0  0  0  0  0  0  0  0  0  0  0  0
    4.8031    1.5342   -1.7315 H   0  0  0  0  0  0  0  0  0  0  0  0
    2.2780    1.8314   -0.0314 H   0  0  0  0  0  0  0  0  0  0  0  0
    3.8126    2.4765    0.5016 H   0  0  0  0  0  0  0  0  0  0  0  0
    3.2166   -0.4761   -0.0610 H   0  0  0  0  0  0  0  0  0  0  0  0
    3.1469    0.2785    1.5213 H   0  0  0  0  0  0  0  0  0  0  0  0
    5.6049   -0.3149   -0.1539 H   0  0  0  0  0  0  0  0  0  0  0  0
    5.1748   -0.9936    1.3955 H   0  0  0  0  0  0  0  0  0  0  0  0
    5.0942    2.3948    4.6299 H   0  0  0  0  0  0  0  0  0  0  0  0
    7.0575    5.5792    6.7562 H   0  0  0  0  0  0  0  0  0  0  0  0
    8.7595    3.9857    7.5598 H   0  0  0  0  0  0  0  0  0  0  0  0
    9.2826   -0.0640    5.8814 H   0  0  0  0  0  0  0  0  0  0  0  0
   11.2482    1.0529    3.6625 H   0  0  0  0  0  0  0  0  0  0  0  0
   10.7013   -0.6200    3.6135 H   0  0  0  0  0  0  0  0  0  0  0  0
   12.3953   -0.2407    3.3060 H   0  0  0  0  0  0  0  0  0  0  0  0
   13.7138    1.0120    5.3353 H   0  0  0  0  0  0  0  0  0  0  0  0
   13.9059   -0.7342    5.1212 H   0  0  0  0  0  0  0  0  0  0  0  0
   13.5899   -0.0722    6.7286 H   0  0  0  0  0  0  0  0  0  0  0  0
   10.4542   -1.8281    5.5164 H   0  0  0  0  0  0  0  0  0  0  0  0
   11.2594   -1.4732    7.0425 H   0  0  0  0  0  0  0  0  0  0  0  0
   12.1470   -2.2686    5.7329 H   0  0  0  0  0  0  0  0  0  0  0  0
    9.9906    2.8272    0.2088 H   0  0  0  0  0  0  0  0  0  0  0  0
    9.8786    3.6815    1.7494 H   0  0  0  0  0  0  0  0  0  0  0  0
   10.0857    4.6002    0.2686 H   0  0  0  0  0  0  0  0  0  0  0  0
    8.0790    2.9566   -1.5054 H   0  0  0  0  0  0  0  0  0  0  0  0
    8.2615    4.7197   -1.4613 H   0  0  0  0  0  0  0  0  0  0  0  0
    6.6789    3.9828   -1.1794 H   0  0  0  0  0  0  0  0  0  0  0  0
    7.6572    5.0426    2.2765 H   0  0  0  0  0  0  0  0  0  0  0  0
    6.4324    5.1708    1.0152 H   0  0  0  0  0  0  0  0  0  0  0  0
    8.0015    5.9632    0.8060 H   0  0  0  0  0  0  0  0  0  0  0  0
  1  2  1  0  0  0  0
  1 35  1  0  0  0  0
  1 36  1  0  0  0  0
  1 37  1  0  0  0  0
  2  3  1  0  0  0  0
  2 38  1  0  0  0  0
  2 39  1  0  0  0  0
  3  4  1  0  0  0  0
  3 40  1  0  0  0  0
  3 41  1  0  0  0  0
  4  5  1  0  0  0  0
  4 42  1  0  0  0  0
  4 43  1  0  0  0  0
  5 34  1  0  0  0  0
  5  6  1  0  0  0  0
  6  7  2  0  0  0  0
  6 28  1  0  0  0  0
  7  8  1  0  0  0  0
  8  9  2  0  0  0  0
  8 10  1  0  0  0  0
 10 19  2  0  0  0  0
 10 11  1  0  0  0  0
 11 12  2  0  0  0  0
 11 44  1  0  0  0  0
 12 13  1  0  0  0  0
 12 17  1  0  0  0  0
 13 14  1  0  0  0  0
 13 15  1  0  0  0  0
 13 16  1  0  0  0  0
 17 18  2  0  0  0  0
 17 45  1  0  0  0  0
 18 19  1  0  0  0  0
 18 46  1  0  0  0  0
 19 20  1  0  0  0  0
 20 21  1  0  0  0  0
 21 22  1  0  0  0  0
 21 47  1  0  0  0  0
 22 23  2  0  0  0  0
 22 24  1  0  0  0  0
 24 25  1  0  0  0  0
 24 26  1  0  0  0  0
 24 27  1  0  0  0  0
 25 48  1  0  0  0  0
 25 49  1  0  0  0  0
 25 50  1  0  0  0  0
 26 51  1  0  0  0  0
 26 52  1  0  0  0  0
 26 53  1  0  0  0  0
 27 54  1  0  0  0  0
 27 55  1  0  0  0  0
 27 56  1  0  0  0  0
 28 29  1  0  0  0  0
 29 30  1  0  0  0  0
 29 34  2  0  0  0  0
 30 31  1  0  0  0  0
 30 32  1  0  0  0  0
 30 33  1  0  0  0  0
 31 57  1  0  0  0  0
 31 58  1  0  0  0  0
 31 59  1  0  0  0  0
 32 60  1  0  0  0  0
 32 61  1  0  0  0  0
 32 62  1  0  0  0  0
 33 63  1  0  0  0  0
 33 64  1  0  0  0  0
 33 65  1  0  0  0  0
M  END
$$$$
CHEMBL3353437_5ZTY
 OpenBabel12022418113D

 55 57  0  0  1  0  0  0  0  0999 V2000
   12.8781    3.2449   -3.7508 C   0  0  0  0  0  0  0  0  0  0  0  0
   12.2800    4.4741   -3.5655 C   0  0  0  0  0  0  0  0  0  0  0  0
   11.0570    4.6379   -3.0147 N   0  0  0  0  0  0  0  0  0  0  0  0
   10.3730    3.5350   -2.6105 C   0  0  0  0  0  0  0  0  0  0  0  0
   10.8901    2.2538   -2.7987 C   0  0  0  0  0  0  0  0  0  0  0  0
   12.1624    2.1150   -3.3765 C   0  0  0  0  0  0  0  0  0  0  0  0
   10.1218    1.0849   -2.3941 C   0  0  0  0  0  0  0  0  0  0  0  0
    9.0223    1.2195   -1.6380 C   0  0  0  0  0  0  0  0  0  0  0  0
    8.6010    2.5980   -1.2157 C   0  0  0  0  0  0  0  0  0  0  0  0
    7.7990    2.7047   -0.2832 O   0  0  0  0  0  0  0  0  0  0  0  0
    9.1321    3.6934   -1.8983 N   0  0  0  0  0  0  0  0  0  0  0  0
    8.7181    5.0800   -1.5851 C   0  0  0  0  0  0  0  0  0  0  0  0
    7.2477    5.4840   -1.8293 C   0  0  0  0  0  0  0  0  0  0  0  0
    6.1551    5.0753   -0.8342 C   0  0  0  0  0  0  0  0  0  0  0  0
    6.3701    5.3945    0.6500 C   0  0  0  0  0  0  0  0  0  0  0  0
    6.3710    6.8749    0.9951 C   0  0  0  0  0  0  0  0  0  0  0  0
    7.4644    7.4710    0.4563 F   0  0  0  0  0  0  0  0  0  0  0  0
    8.3106   -0.0567   -1.2288 C   0  0  0  0  0  0  0  0  0  0  0  0
    8.5931   -1.1300   -1.7534 O   0  0  0  0  0  0  0  0  0  0  0  0
    7.3990    0.0479   -0.2154 N   0  0  0  0  0  0  0  0  0  0  0  0
    6.5965   -1.0770    0.3217 C   0  0  1  0  0  0  0  0  0  0  0  0
    6.2770   -0.8057    1.7978 C   0  0  0  0  0  0  0  0  0  0  0  0
    5.1581   -1.6622    2.3820 C   0  0  0  0  0  0  0  0  0  0  0  0
    3.8673   -1.6007    1.5684 C   0  0  2  0  0  0  0  0  0  0  0  0
    4.1512   -1.9944    0.1159 C   0  0  0  0  0  0  0  0  0  0  0  0
    5.3613   -1.3316   -0.5557 C   0  0  0  0  0  0  0  0  0  0  0  0
    3.1395   -0.2668    1.7425 C   0  0  0  0  0  0  0  0  0  0  0  0
   13.8752    3.1684   -4.1727 H   0  0  0  0  0  0  0  0  0  0  0  0
   12.7877    5.3927   -3.8496 H   0  0  0  0  0  0  0  0  0  0  0  0
   12.6090    1.1332   -3.5107 H   0  0  0  0  0  0  0  0  0  0  0  0
   10.4769    0.1078   -2.7144 H   0  0  0  0  0  0  0  0  0  0  0  0
    9.2678    5.7627   -2.2465 H   0  0  0  0  0  0  0  0  0  0  0  0
    9.0357    5.3112   -0.5657 H   0  0  0  0  0  0  0  0  0  0  0  0
    6.9453    5.1423   -2.8272 H   0  0  0  0  0  0  0  0  0  0  0  0
    7.2261    6.5827   -1.8786 H   0  0  0  0  0  0  0  0  0  0  0  0
    5.9613    4.0035   -0.9405 H   0  0  0  0  0  0  0  0  0  0  0  0
    5.2207    5.5581   -1.1520 H   0  0  0  0  0  0  0  0  0  0  0  0
    7.3016    4.9437    1.0031 H   0  0  0  0  0  0  0  0  0  0  0  0
    5.5527    4.9236    1.2113 H   0  0  0  0  0  0  0  0  0  0  0  0
    6.4189    7.0113    2.0820 H   0  0  0  0  0  0  0  0  0  0  0  0
    5.4771    7.3868    0.6264 H   0  0  0  0  0  0  0  0  0  0  0  0
    7.1877    0.9877    0.1303 H   0  0  0  0  0  0  0  0  0  0  0  0
    7.2235   -1.9764    0.2731 H   0  0  0  0  0  0  0  0  0  0  0  0
    6.0289    0.2526    1.9411 H   0  0  0  0  0  0  0  0  0  0  0  0
    7.1876   -0.9784    2.3863 H   0  0  0  0  0  0  0  0  0  0  0  0
    4.9632   -1.3462    3.4139 H   0  0  0  0  0  0  0  0  0  0  0  0
    5.4909   -2.7061    2.4352 H   0  0  0  0  0  0  0  0  0  0  0  0
    3.1832   -2.3590    1.9745 H   0  0  0  0  0  0  0  0  0  0  0  0
    3.2585   -1.8331   -0.5022 H   0  0  0  0  0  0  0  0  0  0  0  0
    4.3205   -3.0803    0.1063 H   0  0  0  0  0  0  0  0  0  0  0  0
    5.6666   -1.9858   -1.3883 H   0  0  0  0  0  0  0  0  0  0  0  0
    5.0324   -0.4008   -1.0360 H   0  0  0  0  0  0  0  0  0  0  0  0
    3.7482    0.5961    1.4624 H   0  0  0  0  0  0  0  0  0  0  0  0
    2.8500   -0.1397    2.7964 H   0  0  0  0  0  0  0  0  0  0  0  0
    2.2127   -0.2393    1.1585 H   0  0  0  0  0  0  0  0  0  0  0  0
  1  6  2  0  0  0  0
  1  2  1  0  0  0  0
  1 28  1  0  0  0  0
  2  3  2  0  0  0  0
  2 29  1  0  0  0  0
  3  4  1  0  0  0  0
  4 11  1  0  0  0  0
  4  5  2  0  0  0  0
  5  6  1  0  0  0  0
  5  7  1  0  0  0  0
  6 30  1  0  0  0  0
  7  8  2  0  0  0  0
  7 31  1  0  0  0  0
  8  9  1  0  0  0  0
  8 18  1  0  0  0  0
  9 10  2  0  0  0  0
  9 11  1  0  0  0  0
 11 12  1  0  0  0  0
 12 13  1  0  0  0  0
 12 32  1  0  0  0  0
 12 33  1  0  0  0  0
 13 14  1  0  0  0  0
 13 34  1  0  0  0  0
 13 35  1  0  0  0  0
 14 15  1  0  0  0  0
 14 36  1  0  0  0  0
 14 37  1  0  0  0  0
 15 16  1  0  0  0  0
 15 38  1  0  0  0  0
 15 39  1  0  0  0  0
 16 17  1  0  0  0  0
 16 40  1  0  0  0  0
 16 41  1  0  0  0  0
 18 19  2  0  0  0  0
 18 20  1  0  0  0  0
 20 42  1  0  0  0  0
 21 22  1  0  0  0  0
 21 26  1  0  0  0  0
 21 20  1  0  0  0  0
 21 43  1  6  0  0  0
 22 23  1  0  0  0  0
 22 44  1  0  0  0  0
 22 45  1  0  0  0  0
 23 24  1  0  0  0  0
 23 46  1  0  0  0  0
 23 47  1  0  0  0  0
 24 25  1  0  0  0  0
 24 27  1  0  0  0  0
 24 48  1  1  0  0  0
 25 26  1  0  0  0  0
 25 49  1  0  0  0  0
 25 50  1  0  0  0  0
 26 51  1  0  0  0  0
 26 52  1  0  0  0  0
 27 53  1  0  0  0  0
 27 54  1  0  0  0  0
 27 55  1  0  0  0  0
M  END
$$$$
CHEMBL2316298_5ZTY
 OpenBabel12022418113D

 59 61  0  0  0  0  0  0  0  0999 V2000
    0.8335   -2.2828    4.2814 C   0  0  0  0  0  0  0  0  0  0  0  0
    2.3512   -2.2464    4.3075 C   0  0  0  0  0  0  0  0  0  0  0  0
    2.8960   -1.0285    3.5598 C   0  0  0  0  0  0  0  0  0  0  0  0
    4.4241   -1.0314    3.5770 C   0  0  0  0  0  0  0  0  0  0  0  0
    5.0142    0.1589    2.8033 C   0  0  0  0  0  0  0  0  0  0  0  0
    6.4912    0.1739    2.8039 N   0  0  0  0  0  0  0  0  0  0  0  0
    7.2332   -1.0028    2.6271 C   0  0  0  0  0  0  0  0  0  0  0  0
    8.5775   -1.1238    2.6187 C   0  0  0  0  0  0  0  0  0  0  0  0
    9.1238   -2.4915    2.4262 C   0  0  0  0  0  0  0  0  0  0  0  0
    8.3908   -3.4093    2.0562 O   0  0  0  0  0  0  0  0  0  0  0  0
   10.4686   -2.6800    2.6656 N   0  0  0  0  0  0  0  0  0  0  0  0
   11.0939   -3.9427    2.2754 C   0  0  0  0  0  0  0  0  0  0  0  0
   11.3944   -3.9385    0.7665 C   0  0  0  0  0  0  0  0  0  0  0  0
   12.8609   -3.7650    0.3771 C   0  0  0  0  0  0  0  0  0  0  0  0
   13.6235   -5.0878    0.4030 C   0  0  0  0  0  0  0  0  0  0  0  0
   13.9943   -5.6072    1.7891 C   0  0  0  0  0  0  0  0  0  0  0  0
   12.8636   -5.6807    2.8130 C   0  0  0  0  0  0  0  0  0  0  0  0
   12.2678   -4.3185    3.1851 C   0  0  0  0  0  0  0  0  0  0  0  0
    9.3992    0.1055    2.7657 C   0  0  0  0  0  0  0  0  0  0  0  0
   10.6274    0.0648    2.8236 O   0  0  0  0  0  0  0  0  0  0  0  0
    8.6224    1.3311    2.7918 C   0  0  0  0  0  0  0  0  0  0  0  0
    9.0068    2.6858    2.7869 C   0  0  0  0  0  0  0  0  0  0  0  0
   10.3685    3.2738    2.7535 C   0  0  0  0  0  0  0  0  0  0  0  0
    7.9402    3.4941    2.7968 N   0  0  0  0  0  0  0  0  0  0  0  0
    6.8726    2.6603    2.7992 N   0  0  0  0  0  0  0  0  0  0  0  0
    5.5698    3.2790    2.7564 C   0  0  0  0  0  0  0  0  0  0  0  0
    7.2364    1.3309    2.8066 C   0  0  0  0  0  0  0  0  0  0  0  0
    0.4667   -3.1578    4.8267 H   0  0  0  0  0  0  0  0  0  0  0  0
    0.4622   -2.3422    3.2534 H   0  0  0  0  0  0  0  0  0  0  0  0
    0.4133   -1.3873    4.7494 H   0  0  0  0  0  0  0  0  0  0  0  0
    2.7390   -3.1670    3.8548 H   0  0  0  0  0  0  0  0  0  0  0  0
    2.6962   -2.2291    5.3479 H   0  0  0  0  0  0  0  0  0  0  0  0
    2.5171   -0.1074    4.0166 H   0  0  0  0  0  0  0  0  0  0  0  0
    2.5429   -1.0485    2.5212 H   0  0  0  0  0  0  0  0  0  0  0  0
    4.7487   -1.9835    3.1456 H   0  0  0  0  0  0  0  0  0  0  0  0
    4.7866   -1.0088    4.6123 H   0  0  0  0  0  0  0  0  0  0  0  0
    4.6149    1.0503    3.2869 H   0  0  0  0  0  0  0  0  0  0  0  0
    4.6573    0.1534    1.7665 H   0  0  0  0  0  0  0  0  0  0  0  0
    6.6269   -1.8912    2.4795 H   0  0  0  0  0  0  0  0  0  0  0  0
   11.0519   -1.8590    2.8241 H   0  0  0  0  0  0  0  0  0  0  0  0
   10.3293   -4.7149    2.4378 H   0  0  0  0  0  0  0  0  0  0  0  0
   10.8141   -3.1485    0.2728 H   0  0  0  0  0  0  0  0  0  0  0  0
   11.0216   -4.8782    0.3390 H   0  0  0  0  0  0  0  0  0  0  0  0
   13.3583   -3.0029    0.9872 H   0  0  0  0  0  0  0  0  0  0  0  0
   12.8868   -3.3918   -0.6545 H   0  0  0  0  0  0  0  0  0  0  0  0
   14.5530   -4.9614   -0.1667 H   0  0  0  0  0  0  0  0  0  0  0  0
   13.0478   -5.8538   -0.1318 H   0  0  0  0  0  0  0  0  0  0  0  0
   14.8071   -4.9941    2.1961 H   0  0  0  0  0  0  0  0  0  0  0  0
   14.4086   -6.6168    1.6660 H   0  0  0  0  0  0  0  0  0  0  0  0
   13.2755   -6.1345    3.7231 H   0  0  0  0  0  0  0  0  0  0  0  0
   12.0799   -6.3630    2.4607 H   0  0  0  0  0  0  0  0  0  0  0  0
   11.8936   -4.3776    4.2161 H   0  0  0  0  0  0  0  0  0  0  0  0
   13.0397   -3.5396    3.1996 H   0  0  0  0  0  0  0  0  0  0  0  0
   11.1481    2.5081    2.7396 H   0  0  0  0  0  0  0  0  0  0  0  0
   10.5334    3.9021    3.6339 H   0  0  0  0  0  0  0  0  0  0  0  0
   10.4961    3.8917    1.8584 H   0  0  0  0  0  0  0  0  0  0  0  0
    5.6815    4.3591    2.6275 H   0  0  0  0  0  0  0  0  0  0  0  0
    5.0647    3.0918    3.7066 H   0  0  0  0  0  0  0  0  0  0  0  0
    5.0130    2.8772    1.9085 H   0  0  0  0  0  0  0  0  0  0  0  0
  1  2  1  0  0  0  0
  1 28  1  0  0  0  0
  1 29  1  0  0  0  0
  1 30  1  0  0  0  0
  2  3  1  0  0  0  0
  2 31  1  0  0  0  0
  2 32  1  0  0  0  0
  3  4  1  0  0  0  0
  3 33  1  0  0  0  0
  3 34  1  0  0  0  0
  4  5  1  0  0  0  0
  4 35  1  0  0  0  0
  4 36  1  0  0  0  0
  5  6  1  0  0  0  0
  5 37  1  0  0  0  0
  5 38  1  0  0  0  0
  6 27  1  0  0  0  0
  6  7  1  0  0  0  0
  7  8  2  0  0  0  0
  7 39  1  0  0  0  0
  8  9  1  0  0  0  0
  8 19  1  0  0  0  0
  9 10  2  0  0  0  0
  9 11  1  0  0  0  0
 11 12  1  0  0  0  0
 11 40  1  0  0  0  0
 12 18  1  0  0  0  0
 12 13  1  0  0  0  0
 12 41  1  0  0  0  0
 13 14  1  0  0  0  0
 13 42  1  0  0  0  0
 13 43  1  0  0  0  0
 14 15  1  0  0  0  0
 14 44  1  0  0  0  0
 14 45  1  0  0  0  0
 15 16  1  0  0  0  0
 15 46  1  0  0  0  0
 15 47  1  0  0  0  0
 16 17  1  0  0  0  0
 16 48  1  0  0  0  0
 16 49  1  0  0  0  0
 17 18  1  0  0  0  0
 17 50  1  0  0  0  0
 17 51  1  0  0  0  0
 18 52  1  0  0  0  0
 18 53  1  0  0  0  0
 19 20  2  0  0  0  0
 19 21  1  0  0  0  0
 21 27  2  0  0  0  0
 21 22  1  0  0  0  0
 22 23  1  0  0  0  0
 22 24  2  0  0  0  0
 23 54  1  0  0  0  0
 23 55  1  0  0  0  0
 23 56  1  0  0  0  0
 24 25  1  0  0  0  0
 25 26  1  0  0  0  0
 25 27  1  0  0  0  0
 26 57  1  0  0  0  0
 26 58  1  0  0  0  0
 26 59  1  0  0  0  0
M  END
$$$$
CHEMBL3925284_5ZTY
 OpenBabel12022418113D

 38 39  0  0  0  0  0  0  0  0999 V2000
    5.7700   -1.9468   -1.0322 C   0  0  0  0  0  0  0  0  0  0  0  0
    4.8003   -0.9004   -0.4448 C   0  0  0  0  0  0  0  0  0  0  0  0
    3.3755   -1.3152   -0.8489 C   0  0  0  0  0  0  0  0  0  0  0  0
    4.9563   -0.8873    1.1014 C   0  0  0  0  0  0  0  0  0  0  0  0
    4.6462   -2.1467    1.6950 O   0  0  0  0  0  0  0  0  0  0  0  0
    5.1315    0.4162   -1.0172 N   0  0  0  0  0  0  0  0  0  0  0  0
    4.4525    1.5839   -0.7350 C   0  0  0  0  0  0  0  0  0  0  0  0
    3.4821    1.6590    0.0136 O   0  0  0  0  0  0  0  0  0  0  0  0
    5.0059    2.8139   -1.3909 C   0  0  0  0  0  0  0  0  0  0  0  0
    4.4404    4.0590   -1.1165 C   0  0  0  0  0  0  0  0  0  0  0  0
    5.0124    5.2405   -1.6372 C   0  0  0  0  0  0  0  0  0  0  0  0
    6.1620    5.0617   -2.4364 C   0  0  0  0  0  0  0  0  0  0  0  0
    6.6234    3.7670   -2.6970 C   0  0  0  0  0  0  0  0  0  0  0  0
    6.0833    2.6352   -2.1920 N   0  0  0  0  0  0  0  0  0  0  0  0
    7.1269    6.3492   -3.0702 Cl  0  0  0  0  0  0  0  0  0  0  0  0
    4.3922    6.5591   -1.3009 C   0  0  0  0  0  0  0  0  0  0  0  0
    3.7945    6.7858   -0.0417 C   0  0  0  0  0  0  0  0  0  0  0  0
    3.1887    8.0077    0.2745 C   0  0  0  0  0  0  0  0  0  0  0  0
    3.1881    9.0551   -0.6374 C   0  0  0  0  0  0  0  0  0  0  0  0
    3.7660    8.8642   -1.8864 C   0  0  0  0  0  0  0  0  0  0  0  0
    4.3306    7.6252   -2.2187 C   0  0  0  0  0  0  0  0  0  0  0  0
    2.4255    8.2125    1.8040 Cl  0  0  0  0  0  0  0  0  0  0  0  0
    5.5482   -2.9552   -0.6657 H   0  0  0  0  0  0  0  0  0  0  0  0
    6.8094   -1.7151   -0.7675 H   0  0  0  0  0  0  0  0  0  0  0  0
    5.7111   -1.9698   -2.1264 H   0  0  0  0  0  0  0  0  0  0  0  0
    3.1402   -2.3312   -0.5270 H   0  0  0  0  0  0  0  0  0  0  0  0
    3.2500   -1.2723   -1.9391 H   0  0  0  0  0  0  0  0  0  0  0  0
    2.6171   -0.6524   -0.4109 H   0  0  0  0  0  0  0  0  0  0  0  0
    4.3220   -0.1303    1.5745 H   0  0  0  0  0  0  0  0  0  0  0  0
    5.9908   -0.6447    1.3713 H   0  0  0  0  0  0  0  0  0  0  0  0
    3.6760   -2.2002    1.7504 H   0  0  0  0  0  0  0  0  0  0  0  0
    5.9428    0.5142   -1.6245 H   0  0  0  0  0  0  0  0  0  0  0  0
    3.5571    4.0926   -0.4821 H   0  0  0  0  0  0  0  0  0  0  0  0
    7.4923    3.6053   -3.3324 H   0  0  0  0  0  0  0  0  0  0  0  0
    3.7891    6.0068    0.7176 H   0  0  0  0  0  0  0  0  0  0  0  0
    2.7344   10.0101   -0.3874 H   0  0  0  0  0  0  0  0  0  0  0  0
    3.7715    9.6741   -2.6124 H   0  0  0  0  0  0  0  0  0  0  0  0
    4.7171    7.5173   -3.2295 H   0  0  0  0  0  0  0  0  0  0  0  0
  1  2  1  0  0  0  0
  1 23  1  0  0  0  0
  1 24  1  0  0  0  0
  1 25  1  0  0  0  0
  2  3  1  0  0  0  0
  2  4  1  0  0  0  0
  2  6  1  0  0  0  0
  3 26  1  0  0  0  0
  3 27  1  0  0  0  0
  3 28  1  0  0  0  0
  4  5  1  0  0  0  0
  4 29  1  0  0  0  0
  4 30  1  0  0  0  0
  5 31  1  0  0  0  0
  6  7  1  0  0  0  0
  6 32  1  0  0  0  0
  7  8  2  0  0  0  0
  7  9  1  0  0  0  0
  9 14  2  0  0  0  0
  9 10  1  0  0  0  0
 10 11  2  0  0  0  0
 10 33  1  0  0  0  0
 11 12  1  0  0  0  0
 11 16  1  0  0  0  0
 12 13  2  0  0  0  0
 12 15  1  0  0  0  0
 13 14  1  0  0  0  0
 13 34  1  0  0  0  0
 16 21  2  0  0  0  0
 16 17  1  0  0  0  0
 17 18  2  0  0  0  0
 17 35  1  0  0  0  0
 18 19  1  0  0  0  0
 18 22  1  0  0  0  0
 19 20  2  0  0  0  0
 19 36  1  0  0  0  0
 20 21  1  0  0  0  0
 20 37  1  0  0  0  0
 21 38  1  0  0  0  0
M  END
$$$$
CHEMBL1223776_5ZTY
 OpenBabel12022418113D

 64 68  0  0  1  0  0  0  0  0999 V2000
   20.1373    8.5660    6.6190 C   0  0  0  0  0  0  0  0  0  0  0  0
   19.8435    7.7079    5.3909 C   0  0  0  0  0  0  0  0  0  0  0  0
   18.8704    6.5833    5.7426 C   0  0  0  0  0  0  0  0  0  0  0  0
   18.4778    5.6736    4.5592 C   0  0  0  0  0  0  0  0  0  0  0  0
   17.4521    4.6610    5.0794 C   0  0  0  0  0  0  0  0  0  0  0  0
   17.0053    3.5621    4.1907 N   0  0  0  0  0  0  0  0  0  0  0  0
   16.3688    2.5337    5.0681 C   0  0  1  0  0  0  0  0  0  0  0  0
   15.0713    2.2689    4.3374 C   0  0  0  0  0  0  0  0  0  0  0  0
   15.2260    3.0454    3.0483 C   0  0  0  0  0  0  0  0  0  0  0  0
   16.2474    3.8563    3.0371 N   0  0  0  0  0  0  0  0  0  0  0  0
   14.1014    2.8106    2.0530 C   0  0  0  0  0  0  0  0  0  0  0  0
   13.2256    2.0422    2.4792 O   0  0  0  0  0  0  0  0  0  0  0  0
   13.8222    3.2664    0.7982 N   0  0  0  0  0  0  0  0  0  0  0  0
   14.2163    4.1890   -0.3000 C   0  0  1  0  0  0  0  0  0  0  0  0
   12.8804    4.6316   -1.0239 C   0  0  1  0  0  0  0  0  0  0  0  0
   11.9993    5.3793    0.0033 C   0  0  0  0  0  0  0  0  0  0  0  0
   12.7610    6.6008    0.5506 C   0  0  2  0  0  0  0  0  0  0  0  0
   13.0197    7.5635   -0.6160 C   0  0  0  0  0  0  0  0  0  0  0  0
   13.8504    6.8527   -1.7025 C   0  0  2  0  0  0  0  0  0  0  0  0
   13.1094    5.6059   -2.1978 C   0  0  0  0  0  0  0  0  0  0  0  0
   15.1915    6.3777   -1.1186 C   0  0  0  0  0  0  0  0  0  0  0  0
   14.9728    5.4521    0.1123 C   0  0  1  0  0  0  0  0  0  0  0  0
   14.1269    6.2083    1.1475 C   0  0  0  0  0  0  0  0  0  0  0  0
   17.2112    1.3073    5.4279 C   0  0  0  0  0  0  0  0  0  0  0  0
   16.5939    0.1568    5.9578 C   0  0  0  0  0  0  0  0  0  0  0  0
   17.3434   -0.9388    6.4206 C   0  0  0  0  0  0  0  0  0  0  0  0
   18.7317   -0.8949    6.3857 C   0  0  0  0  0  0  0  0  0  0  0  0
   19.3667    0.2381    5.8822 C   0  0  0  0  0  0  0  0  0  0  0  0
   18.6142    1.3255    5.4102 C   0  0  0  0  0  0  0  0  0  0  0  0
   20.8361    9.3706    6.3706 H   0  0  0  0  0  0  0  0  0  0  0  0
   20.5817    7.9674    7.4216 H   0  0  0  0  0  0  0  0  0  0  0  0
   19.2204    9.0227    7.0073 H   0  0  0  0  0  0  0  0  0  0  0  0
   20.7816    7.2884    5.0117 H   0  0  0  0  0  0  0  0  0  0  0  0
   19.4188    8.3401    4.6040 H   0  0  0  0  0  0  0  0  0  0  0  0
   17.9619    7.0296    6.1725 H   0  0  0  0  0  0  0  0  0  0  0  0
   19.3202    5.9731    6.5369 H   0  0  0  0  0  0  0  0  0  0  0  0
   19.3692    5.1570    4.1782 H   0  0  0  0  0  0  0  0  0  0  0  0
   18.0509    6.2658    3.7462 H   0  0  0  0  0  0  0  0  0  0  0  0
   16.5702    5.2002    5.4480 H   0  0  0  0  0  0  0  0  0  0  0  0
   17.9228    4.2063    5.9647 H   0  0  0  0  0  0  0  0  0  0  0  0
   16.0952    2.9632    6.0442 H   0  0  0  0  0  0  0  0  0  0  0  0
   14.2358    2.7254    4.8892 H   0  0  0  0  0  0  0  0  0  0  0  0
   14.8541    1.2189    4.1434 H   0  0  0  0  0  0  0  0  0  0  0  0
   12.9888    2.7507    0.5403 H   0  0  0  0  0  0  0  0  0  0  0  0
   14.8072    3.5914   -1.0071 H   0  0  0  0  0  0  0  0  0  0  0  0
   12.3402    3.7538   -1.4000 H   0  0  0  0  0  0  0  0  0  0  0  0
   11.6963    4.7104    0.8155 H   0  0  0  0  0  0  0  0  0  0  0  0
   11.0659    5.7059   -0.4800 H   0  0  0  0  0  0  0  0  0  0  0  0
   12.1556    7.0917    1.3193 H   0  0  0  0  0  0  0  0  0  0  0  0
   13.5516    8.4516   -0.2541 H   0  0  0  0  0  0  0  0  0  0  0  0
   12.0652    7.9124   -1.0292 H   0  0  0  0  0  0  0  0  0  0  0  0
   14.0180    7.5460   -2.5356 H   0  0  0  0  0  0  0  0  0  0  0  0
   12.1438    5.9054   -2.6360 H   0  0  0  0  0  0  0  0  0  0  0  0
   13.6725    5.1210   -3.0069 H   0  0  0  0  0  0  0  0  0  0  0  0
   15.7874    7.2515   -0.8244 H   0  0  0  0  0  0  0  0  0  0  0  0
   15.7599    5.8544   -1.8967 H   0  0  0  0  0  0  0  0  0  0  0  0
   15.9461    5.1795    0.5292 H   0  0  0  0  0  0  0  0  0  0  0  0
   13.9820    5.5998    2.0453 H   0  0  0  0  0  0  0  0  0  0  0  0
   14.6694    7.1071    1.4683 H   0  0  0  0  0  0  0  0  0  0  0  0
   15.5095    0.1013    6.0454 H   0  0  0  0  0  0  0  0  0  0  0  0
   16.8350   -1.8037    6.8368 H   0  0  0  0  0  0  0  0  0  0  0  0
   19.3147   -1.7369    6.7591 H   0  0  0  0  0  0  0  0  0  0  0  0
   20.4505    0.2834    5.8664 H   0  0  0  0  0  0  0  0  0  0  0  0
   19.1500    2.1985    5.0460 H   0  0  0  0  0  0  0  0  0  0  0  0
  1  2  1  0  0  0  0
  1 30  1  0  0  0  0
  1 31  1  0  0  0  0
  1 32  1  0  0  0  0
  2  3  1  0  0  0  0
  2 33  1  0  0  0  0
  2 34  1  0  0  0  0
  3  4  1  0  0  0  0
  3 35  1  0  0  0  0
  3 36  1  0  0  0  0
  4  5  1  0  0  0  0
  4 37  1  0  0  0  0
  4 38  1  0  0  0  0
  5  6  1  0  0  0  0
  5 39  1  0  0  0  0
  5 40  1  0  0  0  0
  6 10  1  0  0  0  0
  6  7  1  0  0  0  0
  7  8  1  0  0  0  0
  7 24  1  0  0  0  0
  7 41  1  1  0  0  0
  8  9  1  0  0  0  0
  8 42  1  0  0  0  0
  8 43  1  0  0  0  0
  9 10  2  0  0  0  0
  9 11  1  0  0  0  0
 11 12  2  0  0  0  0
 11 13  1  0  0  0  0
 13 44  1  0  0  0  0
 14 15  1  0  0  0  0
 14 22  1  0  0  0  0
 14 13  1  0  0  0  0
 14 45  1  6  0  0  0
 15 16  1  0  0  0  0
 15 20  1  0  0  0  0
 15 46  1  6  0  0  0
 16 47  1  0  0  0  0
 16 48  1  0  0  0  0
 17 16  1  0  0  0  0
 17 18  1  0  0  0  0
 17 23  1  0  0  0  0
 17 49  1  1  0  0  0
 18 50  1  0  0  0  0
 18 51  1  0  0  0  0
 19 18  1  0  0  0  0
 19 20  1  0  0  0  0
 19 21  1  0  0  0  0
 19 52  1  6  0  0  0
 20 53  1  0  0  0  0
 20 54  1  0  0  0  0
 21 55  1  0  0  0  0
 21 56  1  0  0  0  0
 22 21  1  0  0  0  0
 22 23  1  0  0  0  0
 22 57  1  1  0  0  0
 23 58  1  0  0  0  0
 23 59  1  0  0  0  0
 24 29  2  0  0  0  0
 24 25  1  0  0  0  0
 25 26  2  0  0  0  0
 25 60  1  0  0  0  0
 26 27  1  0  0  0  0
 26 61  1  0  0  0  0
 27 28  2  0  0  0  0
 27 62  1  0  0  0  0
 28 29  1  0  0  0  0
 28 63  1  0  0  0  0
 29 64  1  0  0  0  0
M  END
$$$$
CHEMBL374292_6PT0
 OpenBabel12022418113D

 53 56  0  0  0  0  0  0  0  0999 V2000
    0.8777   -3.4143   -2.1703 C   0  0  0  0  0  0  0  0  0  0  0  0
    2.3929   -3.4665   -2.1372 C   0  0  0  0  0  0  0  0  0  0  0  0
    2.9289   -3.1324   -0.7481 C   0  0  0  0  0  0  0  0  0  0  0  0
    4.4522   -3.2060   -0.7440 C   0  0  0  0  0  0  0  0  0  0  0  0
    5.0191   -2.8358    0.6253 C   0  0  0  0  0  0  0  0  0  0  0  0
    6.4713   -2.8175    0.7411 N   0  0  0  0  0  0  0  0  0  0  0  0
    7.3294   -3.0881   -0.3012 C   0  0  0  0  0  0  0  0  0  0  0  0
    8.6292   -2.8923    0.1147 C   0  0  0  0  0  0  0  0  0  0  0  0
    9.8590   -2.9925   -0.6693 C   0  0  0  0  0  0  0  0  0  0  0  0
   10.9298   -3.2049   -0.1081 O   0  0  0  0  0  0  0  0  0  0  0  0
    9.8209   -2.7478   -2.1500 C   0  0  0  0  0  0  0  0  0  0  0  0
    8.9381   -1.7648   -2.6405 C   0  0  0  0  0  0  0  0  0  0  0  0
    8.8896   -1.4605   -3.9951 C   0  0  0  0  0  0  0  0  0  0  0  0
    9.7535   -2.1034   -4.8732 C   0  0  0  0  0  0  0  0  0  0  0  0
   10.6718   -3.0604   -4.4155 C   0  0  0  0  0  0  0  0  0  0  0  0
   11.5575   -3.6583   -5.3276 C   0  0  0  0  0  0  0  0  0  0  0  0
   12.4926   -4.6029   -4.9109 C   0  0  0  0  0  0  0  0  0  0  0  0
   12.5398   -4.9790   -3.5776 C   0  0  0  0  0  0  0  0  0  0  0  0
   11.6582   -4.4021   -2.6606 C   0  0  0  0  0  0  0  0  0  0  0  0
   10.7158   -3.4125   -3.0402 C   0  0  0  0  0  0  0  0  0  0  0  0
    8.5397   -2.5956    1.4988 C   0  0  0  0  0  0  0  0  0  0  0  0
    7.2075   -2.5351    1.8861 C   0  0  0  0  0  0  0  0  0  0  0  0
    6.6956   -2.2687    3.2491 C   0  0  0  0  0  0  0  0  0  0  0  0
    5.4802   -1.6149    3.5000 C   0  0  0  0  0  0  0  0  0  0  0  0
    5.0223   -1.4108    4.8025 C   0  0  0  0  0  0  0  0  0  0  0  0
    5.8019   -1.8117    5.8754 C   0  0  0  0  0  0  0  0  0  0  0  0
    7.0306   -2.4160    5.6699 C   0  0  0  0  0  0  0  0  0  0  0  0
    7.4699   -2.6505    4.3581 C   0  0  0  0  0  0  0  0  0  0  0  0
    5.3685   -1.6020    7.1247 F   0  0  0  0  0  0  0  0  0  0  0  0
    0.5141   -3.6653   -3.1711 H   0  0  0  0  0  0  0  0  0  0  0  0
    0.5162   -2.4132   -1.9153 H   0  0  0  0  0  0  0  0  0  0  0  0
    0.4480   -4.1278   -1.4602 H   0  0  0  0  0  0  0  0  0  0  0  0
    2.7966   -2.7584   -2.8708 H   0  0  0  0  0  0  0  0  0  0  0  0
    2.7298   -4.4666   -2.4336 H   0  0  0  0  0  0  0  0  0  0  0  0
    2.5216   -3.8316   -0.0081 H   0  0  0  0  0  0  0  0  0  0  0  0
    2.6031   -2.1260   -0.4575 H   0  0  0  0  0  0  0  0  0  0  0  0
    4.8392   -2.5094   -1.4993 H   0  0  0  0  0  0  0  0  0  0  0  0
    4.7752   -4.2139   -1.0275 H   0  0  0  0  0  0  0  0  0  0  0  0
    4.6423   -3.5205    1.3934 H   0  0  0  0  0  0  0  0  0  0  0  0
    4.6857   -1.8166    0.8338 H   0  0  0  0  0  0  0  0  0  0  0  0
    6.9575   -3.3781   -1.2747 H   0  0  0  0  0  0  0  0  0  0  0  0
    8.2883   -1.2077   -1.9692 H   0  0  0  0  0  0  0  0  0  0  0  0
    8.1951   -0.7088   -4.3622 H   0  0  0  0  0  0  0  0  0  0  0  0
    9.7158   -1.8366   -5.9281 H   0  0  0  0  0  0  0  0  0  0  0  0
   11.5351   -3.3803   -6.3795 H   0  0  0  0  0  0  0  0  0  0  0  0
   13.1829   -5.0414   -5.6263 H   0  0  0  0  0  0  0  0  0  0  0  0
   13.2655   -5.7140   -3.2390 H   0  0  0  0  0  0  0  0  0  0  0  0
   11.7349   -4.7347   -1.6274 H   0  0  0  0  0  0  0  0  0  0  0  0
    9.3949   -2.4197    2.1422 H   0  0  0  0  0  0  0  0  0  0  0  0
    4.8649   -1.2219    2.7051 H   0  0  0  0  0  0  0  0  0  0  0  0
    4.0659   -0.9300    4.9819 H   0  0  0  0  0  0  0  0  0  0  0  0
    7.6424   -2.7053    6.5166 H   0  0  0  0  0  0  0  0  0  0  0  0
    8.4344   -3.1357    4.2218 H   0  0  0  0  0  0  0  0  0  0  0  0
  1  2  1  0  0  0  0
  1 30  1  0  0  0  0
  1 31  1  0  0  0  0
  1 32  1  0  0  0  0
  2  3  1  0  0  0  0
  2 33  1  0  0  0  0
  2 34  1  0  0  0  0
  3  4  1  0  0  0  0
  3 35  1  0  0  0  0
  3 36  1  0  0  0  0
  4  5  1  0  0  0  0
  4 37  1  0  0  0  0
  4 38  1  0  0  0  0
  5  6  1  0  0  0  0
  5 39  1  0  0  0  0
  5 40  1  0  0  0  0
  6 22  1  0  0  0  0
  6  7  1  0  0  0  0
  7  8  2  0  0  0  0
  7 41  1  0  0  0  0
  8  9  1  0  0  0  0
  8 21  1  0  0  0  0
  9 10  2  0  0  0  0
  9 11  1  0  0  0  0
 11 20  2  0  0  0  0
 11 12  1  0  0  0  0
 12 13  2  0  0  0  0
 12 42  1  0  0  0  0
 13 14  1  0  0  0  0
 13 43  1  0  0  0  0
 14 15  2  0  0  0  0
 14 44  1  0  0  0  0
 15 20  1  0  0  0  0
 15 16  1  0  0  0  0
 16 17  2  0  0  0  0
 16 45  1  0  0  0  0
 17 18  1  0  0  0  0
 17 46  1  0  0  0  0
 18 19  2  0  0  0  0
 18 47  1  0  0  0  0
 19 20  1  0  0  0  0
 19 48  1  0  0  0  0
 21 22  2  0  0  0  0
 21 49  1  0  0  0  0
 22 23  1  0  0  0  0
 23 28  2  0  0  0  0
 23 24  1  0  0  0  0
 24 25  2  0  0  0  0
 24 50  1  0  0  0  0
 25 26  1  0  0  0  0
 25 51  1  0  0  0  0
 26 27  2  0  0  0  0
 26 29  1  0  0  0  0
 27 28  1  0  0  0  0
 27 52  1  0  0  0  0
 28 53  1  0  0  0  0
M  END
$$$$
CHEMBL216836_6PT0
 OpenBabel12022418113D

 50 53  0  0  0  0  0  0  0  0999 V2000
    0.9220   -1.0371   -1.4836 C   0  0  0  0  0  0  0  0  0  0  0  0
    2.1545   -0.5177   -1.1102 C   0  0  0  0  0  0  0  0  0  0  0  0
    2.2293    0.7682   -0.5866 C   0  0  0  0  0  0  0  0  0  0  0  0
    1.0796    1.5748   -0.4695 C   0  0  0  0  0  0  0  0  0  0  0  0
   -0.1931    1.0562   -0.8694 C   0  0  0  0  0  0  0  0  0  0  0  0
   -0.2492   -0.2777   -1.3594 C   0  0  0  0  0  0  0  0  0  0  0  0
   -1.4793   -0.8582   -1.7125 C   0  0  0  0  0  0  0  0  0  0  0  0
   -2.6696   -0.1440   -1.6077 C   0  0  0  0  0  0  0  0  0  0  0  0
   -2.6410    1.1696   -1.1671 C   0  0  0  0  0  0  0  0  0  0  0  0
   -1.4244    1.7604   -0.8127 C   0  0  0  0  0  0  0  0  0  0  0  0
    1.2110    2.9137    0.2080 C   0  0  0  0  0  0  0  0  0  0  0  0
    0.2834    3.3498    0.8840 O   0  0  0  0  0  0  0  0  0  0  0  0
    2.4782    3.6476    0.1650 C   0  0  0  0  0  0  0  0  0  0  0  0
    3.4314    3.6826   -0.8326 C   0  0  0  0  0  0  0  0  0  0  0  0
    4.4956    4.4506   -0.4218 N   0  0  0  0  0  0  0  0  0  0  0  0
    4.2345    4.9728    0.8432 C   0  0  0  0  0  0  0  0  0  0  0  0
    2.9638    4.5213    1.1753 C   0  0  0  0  0  0  0  0  0  0  0  0
    5.1104    5.8398    1.6613 C   0  0  0  0  0  0  0  0  0  0  0  0
    6.5014    5.6771    1.7188 C   0  0  0  0  0  0  0  0  0  0  0  0
    7.3018    6.4956    2.5248 C   0  0  0  0  0  0  0  0  0  0  0  0
    6.7144    7.4579    3.3374 C   0  0  0  0  0  0  0  0  0  0  0  0
    5.3328    7.6141    3.3280 C   0  0  0  0  0  0  0  0  0  0  0  0
    4.5417    6.8210    2.4898 C   0  0  0  0  0  0  0  0  0  0  0  0
    5.6987    4.6928   -1.2091 C   0  0  0  0  0  0  0  0  0  0  0  0
    5.8060    3.9719   -2.5512 C   0  0  0  0  0  0  0  0  0  0  0  0
    7.1532    4.2573   -3.2126 C   0  0  0  0  0  0  0  0  0  0  0  0
    7.2742    3.4982   -4.5221 C   0  0  0  0  0  0  0  0  0  0  0  0
    0.8802   -2.0570   -1.8630 H   0  0  0  0  0  0  0  0  0  0  0  0
    3.0519   -1.1248   -1.1988 H   0  0  0  0  0  0  0  0  0  0  0  0
    3.2000    1.1140   -0.2406 H   0  0  0  0  0  0  0  0  0  0  0  0
   -1.5226   -1.8873   -2.0644 H   0  0  0  0  0  0  0  0  0  0  0  0
   -3.6139   -0.6129   -1.8704 H   0  0  0  0  0  0  0  0  0  0  0  0
   -3.5624    1.7407   -1.0865 H   0  0  0  0  0  0  0  0  0  0  0  0
   -1.4610    2.7947   -0.4771 H   0  0  0  0  0  0  0  0  0  0  0  0
    3.4297    3.1979   -1.8026 H   0  0  0  0  0  0  0  0  0  0  0  0
    2.4371    4.7490    2.0962 H   0  0  0  0  0  0  0  0  0  0  0  0
    7.0055    4.8910    1.1776 H   0  0  0  0  0  0  0  0  0  0  0  0
    8.3791    6.3553    2.5295 H   0  0  0  0  0  0  0  0  0  0  0  0
    7.3344    8.0698    3.9874 H   0  0  0  0  0  0  0  0  0  0  0  0
    4.8644    8.3468    3.9787 H   0  0  0  0  0  0  0  0  0  0  0  0
    3.4644    6.9689    2.5041 H   0  0  0  0  0  0  0  0  0  0  0  0
    6.5363    4.3326   -0.6121 H   0  0  0  0  0  0  0  0  0  0  0  0
    5.7808    5.7778   -1.3431 H   0  0  0  0  0  0  0  0  0  0  0  0
    4.9921    4.2802   -3.2159 H   0  0  0  0  0  0  0  0  0  0  0  0
    5.7114    2.8900   -2.3914 H   0  0  0  0  0  0  0  0  0  0  0  0
    7.9723    3.9606   -2.5463 H   0  0  0  0  0  0  0  0  0  0  0  0
    7.2599    5.3320   -3.3982 H   0  0  0  0  0  0  0  0  0  0  0  0
    7.2172    2.4179   -4.3520 H   0  0  0  0  0  0  0  0  0  0  0  0
    8.2298    3.7141   -4.9961 H   0  0  0  0  0  0  0  0  0  0  0  0
    6.4717    3.7809   -5.2101 H   0  0  0  0  0  0  0  0  0  0  0  0
  1  6  2  0  0  0  0
  1  2  1  0  0  0  0
  1 28  1  0  0  0  0
  2  3  2  0  0  0  0
  2 29  1  0  0  0  0
  3  4  1  0  0  0  0
  3 30  1  0  0  0  0
  4  5  2  0  0  0  0
  4 11  1  0  0  0  0
  5 10  1  0  0  0  0
  5  6  1  0  0  0  0
  6  7  1  0  0  0  0
  7  8  2  0  0  0  0
  7 31  1  0  0  0  0
  8  9  1  0  0  0  0
  8 32  1  0  0  0  0
  9 10  2  0  0  0  0
  9 33  1  0  0  0  0
 10 34  1  0  0  0  0
 11 12  2  0  0  0  0
 11 13  1  0  0  0  0
 13 17  1  0  0  0  0
 13 14  2  0  0  0  0
 14 15  1  0  0  0  0
 14 35  1  0  0  0  0
 15 16  1  0  0  0  0
 15 24  1  0  0  0  0
 16 17  2  0  0  0  0
 16 18  1  0  0  0  0
 17 36  1  0  0  0  0
 18 23  2  0  0  0  0
 18 19  1  0  0  0  0
 19 20  2  0  0  0  0
 19 37  1  0  0  0  0
 20 21  1  0  0  0  0
 20 38  1  0  0  0  0
 21 22  2  0  0  0  0
 21 39  1  0  0  0  0
 22 23  1  0  0  0  0
 22 40  1  0  0  0  0
 23 41  1  0  0  0  0
 24 25  1  0  0  0  0
 24 42  1  0  0  0  0
 24 43  1  0  0  0  0
 25 26  1  0  0  0  0
 25 44  1  0  0  0  0
 25 45  1  0  0  0  0
 26 27  1  0  0  0  0
 26 46  1  0  0  0  0
 26 47  1  0  0  0  0
 27 48  1  0  0  0  0
 27 49  1  0  0  0  0
 27 50  1  0  0  0  0
M  END
$$$$
CHEMBL2316280_5ZTY
 OpenBabel12022418113D

 55 57  0  0  0  0  0  0  0  0999 V2000
    4.6872   -6.8193    2.2202 C   0  0  0  0  0  0  0  0  0  0  0  0
    4.2540   -5.5149    1.5718 C   0  0  0  0  0  0  0  0  0  0  0  0
    4.8891   -4.3112    2.2663 C   0  0  0  0  0  0  0  0  0  0  0  0
    4.4675   -3.0028    1.5939 C   0  0  0  0  0  0  0  0  0  0  0  0
    5.0920   -1.7649    2.2512 C   0  0  0  0  0  0  0  0  0  0  0  0
    6.5555   -1.7827    2.1836 N   0  0  0  0  0  0  0  0  0  0  0  0
    7.2899   -1.7628    0.9897 C   0  0  0  0  0  0  0  0  0  0  0  0
    8.6422   -1.7680    0.9036 C   0  0  0  0  0  0  0  0  0  0  0  0
    9.2825   -1.7123   -0.4437 C   0  0  0  0  0  0  0  0  0  0  0  0
    8.6080   -1.6931   -1.4683 O   0  0  0  0  0  0  0  0  0  0  0  0
   10.6571   -1.6524   -0.4446 N   0  0  0  0  0  0  0  0  0  0  0  0
   11.4538   -1.5638   -1.6650 C   0  0  0  0  0  0  0  0  0  0  0  0
   12.6291   -0.5930   -1.4679 C   0  0  0  0  0  0  0  0  0  0  0  0
   13.9429   -1.1969   -0.9728 C   0  0  0  0  0  0  0  0  0  0  0  0
   14.7990   -1.7801   -2.0970 C   0  0  0  0  0  0  0  0  0  0  0  0
   14.2802   -3.0730   -2.7156 C   0  0  0  0  0  0  0  0  0  0  0  0
   12.8553   -3.0106   -3.2601 C   0  0  0  0  0  0  0  0  0  0  0  0
   11.8045   -2.9718   -2.1549 C   0  0  0  0  0  0  0  0  0  0  0  0
    9.4425   -1.8020    2.1726 C   0  0  0  0  0  0  0  0  0  0  0  0
   10.6687   -1.8513    2.1769 O   0  0  0  0  0  0  0  0  0  0  0  0
    8.6584   -1.7690    3.3745 C   0  0  0  0  0  0  0  0  0  0  0  0
    8.9663   -1.7403    4.7425 C   0  0  0  0  0  0  0  0  0  0  0  0
   10.3042   -1.7362    5.3804 C   0  0  0  0  0  0  0  0  0  0  0  0
    7.8477   -1.7133    5.4893 N   0  0  0  0  0  0  0  0  0  0  0  0
    6.7858   -1.7304    4.5809 O   0  0  0  0  0  0  0  0  0  0  0  0
    7.2897   -1.7629    3.3264 C   0  0  0  0  0  0  0  0  0  0  0  0
    4.2194   -7.6684    1.7128 H   0  0  0  0  0  0  0  0  0  0  0  0
    4.3954   -6.8485    3.2747 H   0  0  0  0  0  0  0  0  0  0  0  0
    5.7734   -6.9439    2.1605 H   0  0  0  0  0  0  0  0  0  0  0  0
    3.1614   -5.4357    1.6105 H   0  0  0  0  0  0  0  0  0  0  0  0
    4.5416   -5.5278    0.5138 H   0  0  0  0  0  0  0  0  0  0  0  0
    5.9794   -4.4172    2.2344 H   0  0  0  0  0  0  0  0  0  0  0  0
    4.5960   -4.2933    3.3228 H   0  0  0  0  0  0  0  0  0  0  0  0
    3.3754   -2.9086    1.6412 H   0  0  0  0  0  0  0  0  0  0  0  0
    4.7296   -3.0360    0.5302 H   0  0  0  0  0  0  0  0  0  0  0  0
    4.7265   -1.6944    3.2845 H   0  0  0  0  0  0  0  0  0  0  0  0
    4.7232   -0.8673    1.7395 H   0  0  0  0  0  0  0  0  0  0  0  0
    6.6677   -1.7380    0.0968 H   0  0  0  0  0  0  0  0  0  0  0  0
   11.1558   -1.7669    0.4392 H   0  0  0  0  0  0  0  0  0  0  0  0
   10.8052   -1.1049   -2.4242 H   0  0  0  0  0  0  0  0  0  0  0  0
   12.3250    0.1942   -0.7653 H   0  0  0  0  0  0  0  0  0  0  0  0
   12.8187   -0.0780   -2.4187 H   0  0  0  0  0  0  0  0  0  0  0  0
   13.7750   -1.9327   -0.1789 H   0  0  0  0  0  0  0  0  0  0  0  0
   14.5272   -0.3832   -0.5221 H   0  0  0  0  0  0  0  0  0  0  0  0
   15.8025   -1.9783   -1.6985 H   0  0  0  0  0  0  0  0  0  0  0  0
   14.9325   -1.0287   -2.8857 H   0  0  0  0  0  0  0  0  0  0  0  0
   14.3599   -3.8844   -1.9815 H   0  0  0  0  0  0  0  0  0  0  0  0
   14.9513   -3.3435   -3.5407 H   0  0  0  0  0  0  0  0  0  0  0  0
   12.6902   -3.9228   -3.8474 H   0  0  0  0  0  0  0  0  0  0  0  0
   12.7345   -2.1700   -3.9523 H   0  0  0  0  0  0  0  0  0  0  0  0
   10.8823   -3.4305   -2.5376 H   0  0  0  0  0  0  0  0  0  0  0  0
   12.1156   -3.6083   -1.3158 H   0  0  0  0  0  0  0  0  0  0  0  0
   11.1062   -1.7383    4.6352 H   0  0  0  0  0  0  0  0  0  0  0  0
   10.4358   -2.6245    6.0046 H   0  0  0  0  0  0  0  0  0  0  0  0
   10.4370   -0.8445    5.9991 H   0  0  0  0  0  0  0  0  0  0  0  0
  1  2  1  0  0  0  0
  1 27  1  0  0  0  0
  1 28  1  0  0  0  0
  1 29  1  0  0  0  0
  2  3  1  0  0  0  0
  2 30  1  0  0  0  0
  2 31  1  0  0  0  0
  3  4  1  0  0  0  0
  3 32  1  0  0  0  0
  3 33  1  0  0  0  0
  4  5  1  0  0  0  0
  4 34  1  0  0  0  0
  4 35  1  0  0  0  0
  5  6  1  0  0  0  0
  5 36  1  0  0  0  0
  5 37  1  0  0  0  0
  6 26  1  0  0  0  0
  6  7  1  0  0  0  0
  7  8  2  0  0  0  0
  7 38  1  0  0  0  0
  8  9  1  0  0  0  0
  8 19  1  0  0  0  0
  9 10  2  0  0  0  0
  9 11  1  0  0  0  0
 11 12  1  0  0  0  0
 11 39  1  0  0  0  0
 12 18  1  0  0  0  0
 12 13  1  0  0  0  0
 12 40  1  0  0  0  0
 13 14  1  0  0  0  0
 13 41  1  0  0  0  0
 13 42  1  0  0  0  0
 14 15  1  0  0  0  0
 14 43  1  0  0  0  0
 14 44  1  0  0  0  0
 15 16  1  0  0  0  0
 15 45  1  0  0  0  0
 15 46  1  0  0  0  0
 16 17  1  0  0  0  0
 16 47  1  0  0  0  0
 16 48  1  0  0  0  0
 17 18  1  0  0  0  0
 17 49  1  0  0  0  0
 17 50  1  0  0  0  0
 18 51  1  0  0  0  0
 18 52  1  0  0  0  0
 19 20  2  0  0  0  0
 19 21  1  0  0  0  0
 21 26  2  0  0  0  0
 21 22  1  0  0  0  0
 22 23  1  0  0  0  0
 22 24  2  0  0  0  0
 23 53  1  0  0  0  0
 23 54  1  0  0  0  0
 23 55  1  0  0  0  0
 24 25  1  0  0  0  0
 25 26  1  0  0  0  0
M  END
$$$$
CHEMBL426706_6PT0
 OpenBabel12022418113D

 59 62  0  0  0  0  0  0  0  0999 V2000
    0.9279   -1.0090   -1.6183 C   0  0  0  0  0  0  0  0  0  0  0  0
    2.1556   -0.5188   -1.1908 C   0  0  0  0  0  0  0  0  0  0  0  0
    2.2299    0.7482   -0.6244 C   0  0  0  0  0  0  0  0  0  0  0  0
    1.0849    1.5621   -0.5167 C   0  0  0  0  0  0  0  0  0  0  0  0
   -0.1801    1.0763   -0.9689 C   0  0  0  0  0  0  0  0  0  0  0  0
   -0.2383   -0.2377   -1.5054 C   0  0  0  0  0  0  0  0  0  0  0  0
   -1.4663   -0.7843   -1.9145 C   0  0  0  0  0  0  0  0  0  0  0  0
   -2.6478   -0.0531   -1.8189 C   0  0  0  0  0  0  0  0  0  0  0  0
   -2.6133    1.2434   -1.3298 C   0  0  0  0  0  0  0  0  0  0  0  0
   -1.3996    1.8005   -0.9196 C   0  0  0  0  0  0  0  0  0  0  0  0
    1.2086    2.8727    0.2060 C   0  0  0  0  0  0  0  0  0  0  0  0
    0.2885    3.2634    0.9189 O   0  0  0  0  0  0  0  0  0  0  0  0
    2.4604    3.6276    0.1565 C   0  0  0  0  0  0  0  0  0  0  0  0
    3.4107    3.6756   -0.8430 C   0  0  0  0  0  0  0  0  0  0  0  0
    4.4719    4.4510   -0.4244 N   0  0  0  0  0  0  0  0  0  0  0  0
    4.1919    4.9686    0.8381 C   0  0  0  0  0  0  0  0  0  0  0  0
    2.9306    4.5015    1.1699 C   0  0  0  0  0  0  0  0  0  0  0  0
    5.0506    5.8413    1.6583 C   0  0  0  0  0  0  0  0  0  0  0  0
    6.4289    5.6351    1.7796 C   0  0  0  0  0  0  0  0  0  0  0  0
    7.2145    6.4526    2.5935 C   0  0  0  0  0  0  0  0  0  0  0  0
    6.6272    7.4581    3.3631 C   0  0  0  0  0  0  0  0  0  0  0  0
    5.2469    7.6580    3.2762 C   0  0  0  0  0  0  0  0  0  0  0  0
    4.4732    6.8621    2.4239 C   0  0  0  0  0  0  0  0  0  0  0  0
    7.4821    8.3062    4.2648 C   0  0  0  0  0  0  0  0  0  0  0  0
    7.9537    9.5681    3.5610 C   0  0  0  0  0  0  0  0  0  0  0  0
    5.6760    4.7018   -1.2036 C   0  0  0  0  0  0  0  0  0  0  0  0
    5.8091    3.9469   -2.5261 C   0  0  0  0  0  0  0  0  0  0  0  0
    7.1660    4.2116   -3.1756 C   0  0  0  0  0  0  0  0  0  0  0  0
    7.3020    3.4122   -4.4694 C   0  0  0  0  0  0  0  0  0  0  0  0
    8.6323    3.6750   -5.1504 C   0  0  0  0  0  0  0  0  0  0  0  0
    0.8849   -2.0152   -2.0318 H   0  0  0  0  0  0  0  0  0  0  0  0
    3.0482   -1.1340   -1.2724 H   0  0  0  0  0  0  0  0  0  0  0  0
    3.1923    1.0759   -0.2388 H   0  0  0  0  0  0  0  0  0  0  0  0
   -1.5153   -1.7997   -2.3030 H   0  0  0  0  0  0  0  0  0  0  0  0
   -3.5912   -0.4967   -2.1248 H   0  0  0  0  0  0  0  0  0  0  0  0
   -3.5281    1.8254   -1.2524 H   0  0  0  0  0  0  0  0  0  0  0  0
   -1.4280    2.8215   -0.5432 H   0  0  0  0  0  0  0  0  0  0  0  0
    3.4164    3.1969   -1.8124 H   0  0  0  0  0  0  0  0  0  0  0  0
    2.4043    4.7197    2.0924 H   0  0  0  0  0  0  0  0  0  0  0  0
    6.9253    4.8115    1.2845 H   0  0  0  0  0  0  0  0  0  0  0  0
    8.2868    6.2762    2.6420 H   0  0  0  0  0  0  0  0  0  0  0  0
    4.7616    8.4230    3.8763 H   0  0  0  0  0  0  0  0  0  0  0  0
    3.3979    7.0389    2.3842 H   0  0  0  0  0  0  0  0  0  0  0  0
    8.3514    7.7249    4.5995 H   0  0  0  0  0  0  0  0  0  0  0  0
    6.9240    8.5646    5.1725 H   0  0  0  0  0  0  0  0  0  0  0  0
    8.5115    9.3293    2.6493 H   0  0  0  0  0  0  0  0  0  0  0  0
    8.6094   10.1456    4.2197 H   0  0  0  0  0  0  0  0  0  0  0  0
    7.1065   10.2023    3.2801 H   0  0  0  0  0  0  0  0  0  0  0  0
    6.5187    4.3845   -0.5895 H   0  0  0  0  0  0  0  0  0  0  0  0
    5.7333    5.7846   -1.3682 H   0  0  0  0  0  0  0  0  0  0  0  0
    5.0060    4.2392   -3.2121 H   0  0  0  0  0  0  0  0  0  0  0  0
    5.7085    2.8673   -2.3438 H   0  0  0  0  0  0  0  0  0  0  0  0
    7.9711    3.9327   -2.4852 H   0  0  0  0  0  0  0  0  0  0  0  0
    7.2736    5.2833   -3.3816 H   0  0  0  0  0  0  0  0  0  0  0  0
    6.4863    3.6735   -5.1528 H   0  0  0  0  0  0  0  0  0  0  0  0
    7.2135    2.3411   -4.2524 H   0  0  0  0  0  0  0  0  0  0  0  0
    8.7408    4.7347   -5.4018 H   0  0  0  0  0  0  0  0  0  0  0  0
    8.7007    3.0956   -6.0763 H   0  0  0  0  0  0  0  0  0  0  0  0
    9.4676    3.3861   -4.5047 H   0  0  0  0  0  0  0  0  0  0  0  0
  1  6  2  0  0  0  0
  1  2  1  0  0  0  0
  1 31  1  0  0  0  0
  2  3  2  0  0  0  0
  2 32  1  0  0  0  0
  3  4  1  0  0  0  0
  3 33  1  0  0  0  0
  4  5  2  0  0  0  0
  4 11  1  0  0  0  0
  5 10  1  0  0  0  0
  5  6  1  0  0  0  0
  6  7  1  0  0  0  0
  7  8  2  0  0  0  0
  7 34  1  0  0  0  0
  8  9  1  0  0  0  0
  8 35  1  0  0  0  0
  9 10  2  0  0  0  0
  9 36  1  0  0  0  0
 10 37  1  0  0  0  0
 11 12  2  0  0  0  0
 11 13  1  0  0  0  0
 13 17  1  0  0  0  0
 13 14  2  0  0  0  0
 14 15  1  0  0  0  0
 14 38  1  0  0  0  0
 15 16  1  0  0  0  0
 15 26  1  0  0  0  0
 16 17  2  0  0  0  0
 16 18  1  0  0  0  0
 17 39  1  0  0  0  0
 18 23  2  0  0  0  0
 18 19  1  0  0  0  0
 19 20  2  0  0  0  0
 19 40  1  0  0  0  0
 20 21  1  0  0  0  0
 20 41  1  0  0  0  0
 21 22  2  0  0  0  0
 21 24  1  0  0  0  0
 22 23  1  0  0  0  0
 22 42  1  0  0  0  0
 23 43  1  0  0  0  0
 24 25  1  0  0  0  0
 24 44  1  0  0  0  0
 24 45  1  0  0  0  0
 25 46  1  0  0  0  0
 25 47  1  0  0  0  0
 25 48  1  0  0  0  0
 26 27  1  0  0  0  0
 26 49  1  0  0  0  0
 26 50  1  0  0  0  0
 27 28  1  0  0  0  0
 27 51  1  0  0  0  0
 27 52  1  0  0  0  0
 28 29  1  0  0  0  0
 28 53  1  0  0  0  0
 28 54  1  0  0  0  0
 29 30  1  0  0  0  0
 29 55  1  0  0  0  0
 29 56  1  0  0  0  0
 30 57  1  0  0  0  0
 30 58  1  0  0  0  0
 30 59  1  0  0  0  0
M  END
$$$$
CHEMBL3896366_8GUT
 OpenBabel12022418113D

 57 60  0  0  1  0  0  0  0  0999 V2000
   -1.4801   -1.0003   -1.6004 C   0  0  0  0  0  0  0  0  0  0  0  0
   -0.4193   -0.3029   -0.8529 C   0  0  0  0  0  0  0  0  0  0  0  0
    0.5479    0.4586   -1.3026 N   0  0  0  0  0  0  0  0  0  0  0  0
    1.2460    0.7851   -0.1531 C   0  0  0  0  0  0  0  0  0  0  0  0
    2.5417    1.6071   -0.1864 C   0  0  2  0  0  0  0  0  0  0  0  0
    3.2225    1.3929   -1.5580 C   0  0  0  0  0  0  0  0  0  0  0  0
    3.5220    1.2168    0.9673 C   0  0  0  0  0  0  0  0  0  0  0  0
    3.9780   -0.2240    0.9954 C   0  0  0  0  0  0  0  0  0  0  0  0
    5.3628   -0.6606    0.5821 C   0  0  0  0  0  0  0  0  0  0  0  0
    4.9987   -0.6159    2.0370 C   0  0  0  0  0  0  0  0  0  0  0  0
    2.1669    3.0446   -0.0549 N   0  0  0  0  0  0  0  0  0  0  0  0
    3.0666    4.0836   -0.1582 C   0  0  0  0  0  0  0  0  0  0  0  0
    4.2800    3.9357   -0.3144 O   0  0  0  0  0  0  0  0  0  0  0  0
    2.5125    5.4688   -0.0939 C   0  0  0  0  0  0  0  0  0  0  0  0
    3.3557    6.5573   -0.2959 C   0  0  0  0  0  0  0  0  0  0  0  0
    2.8092    7.8409   -0.2647 C   0  0  0  0  0  0  0  0  0  0  0  0
    1.4617    8.0318    0.0932 C   0  0  0  0  0  0  0  0  0  0  0  0
    0.7150    6.8470    0.2278 C   0  0  0  0  0  0  0  0  0  0  0  0
    1.1860    5.5820    0.1374 N   0  0  0  0  0  0  0  0  0  0  0  0
    0.7346    9.4207    0.3486 C   0  0  0  0  0  0  0  0  0  0  0  0
    0.4551    9.7709    1.8385 C   0  0  0  0  0  0  0  0  0  0  0  0
    0.7375   11.1720    1.5881 O   0  0  0  0  0  0  0  0  0  0  0  0
    1.4698   10.7839    0.3894 C   0  0  0  0  0  0  0  0  0  0  0  0
   -0.3800    9.4211   -0.4363 F   0  0  0  0  0  0  0  0  0  0  0  0
    3.5150    8.9752   -0.5615 O   0  0  0  0  0  0  0  0  0  0  0  0
    4.6431    8.9212   -1.4665 C   0  0  1  0  0  0  0  0  0  0  0  0
    4.2271    8.4283   -2.8554 C   0  0  0  0  0  0  0  0  0  0  0  0
    5.2664   10.3339   -1.5995 C   0  0  0  0  0  0  0  0  0  0  0  0
    4.6394   11.2464   -0.8216 F   0  0  0  0  0  0  0  0  0  0  0  0
    6.5688   10.3209   -1.2278 F   0  0  0  0  0  0  0  0  0  0  0  0
    5.2222   10.8043   -2.8684 F   0  0  0  0  0  0  0  0  0  0  0  0
    0.6936    0.2923    0.9686 N   0  0  0  0  0  0  0  0  0  0  0  0
   -0.3959   -0.4499    0.5025 O   0  0  0  0  0  0  0  0  0  0  0  0
   -2.0794   -1.6473   -0.9522 H   0  0  0  0  0  0  0  0  0  0  0  0
   -1.0479   -1.6210   -2.3911 H   0  0  0  0  0  0  0  0  0  0  0  0
   -2.1519   -0.2737   -2.0709 H   0  0  0  0  0  0  0  0  0  0  0  0
    4.1494    1.9631   -1.6566 H   0  0  0  0  0  0  0  0  0  0  0  0
    2.5653    1.7167   -2.3760 H   0  0  0  0  0  0  0  0  0  0  0  0
    3.4667    0.3399   -1.7280 H   0  0  0  0  0  0  0  0  0  0  0  0
    3.0429    1.4325    1.9319 H   0  0  0  0  0  0  0  0  0  0  0  0
    4.4107    1.8585    0.9362 H   0  0  0  0  0  0  0  0  0  0  0  0
    3.1675   -0.9272    0.8355 H   0  0  0  0  0  0  0  0  0  0  0  0
    6.0790    0.0716    0.2264 H   0  0  0  0  0  0  0  0  0  0  0  0
    5.4707   -1.6393    0.1236 H   0  0  0  0  0  0  0  0  0  0  0  0
    4.8381   -1.5486    2.5662 H   0  0  0  0  0  0  0  0  0  0  0  0
    5.4643    0.1561    2.6398 H   0  0  0  0  0  0  0  0  0  0  0  0
    1.1882    3.2926    0.0881 H   0  0  0  0  0  0  0  0  0  0  0  0
    4.4103    6.3815   -0.4804 H   0  0  0  0  0  0  0  0  0  0  0  0
   -0.3561    6.9081    0.4198 H   0  0  0  0  0  0  0  0  0  0  0  0
    1.1513    9.3569    2.5765 H   0  0  0  0  0  0  0  0  0  0  0  0
   -0.5744    9.6105    2.1714 H   0  0  0  0  0  0  0  0  0  0  0  0
    1.2492   11.4472   -0.4514 H   0  0  0  0  0  0  0  0  0  0  0  0
    2.5406   10.7958    0.5996 H   0  0  0  0  0  0  0  0  0  0  0  0
    5.4121    8.2648   -1.0436 H   0  0  0  0  0  0  0  0  0  0  0  0
    3.4598    9.0852   -3.2813 H   0  0  0  0  0  0  0  0  0  0  0  0
    3.7979    7.4241   -2.8292 H   0  0  0  0  0  0  0  0  0  0  0  0
    5.0855    8.4040   -3.5345 H   0  0  0  0  0  0  0  0  0  0  0  0
  1  2  1  0  0  0  0
  1 34  1  0  0  0  0
  1 35  1  0  0  0  0
  1 36  1  0  0  0  0
  2 33  1  0  0  0  0
  2  3  2  0  0  0  0
  3  4  1  0  0  0  0
  4 32  2  0  0  0  0
  5  7  1  1  0  0  0
  5 11  1  0  0  0  0
  5  6  1  0  0  0  0
  5  4  1  0  0  0  0
  6 37  1  0  0  0  0
  6 38  1  0  0  0  0
  6 39  1  0  0  0  0
  7  8  1  0  0  0  0
  7 40  1  0  0  0  0
  7 41  1  0  0  0  0
  8 10  1  0  0  0  0
  8  9  1  0  0  0  0
  8 42  1  0  0  0  0
  9 10  1  0  0  0  0
  9 43  1  0  0  0  0
  9 44  1  0  0  0  0
 10 45  1  0  0  0  0
 10 46  1  0  0  0  0
 11 12  1  0  0  0  0
 11 47  1  0  0  0  0
 12 13  2  0  0  0  0
 12 14  1  0  0  0  0
 14 19  2  0  0  0  0
 14 15  1  0  0  0  0
 15 16  2  0  0  0  0
 15 48  1  0  0  0  0
 16 17  1  0  0  0  0
 16 25  1  0  0  0  0
 17 18  2  0  0  0  0
 17 20  1  0  0  0  0
 18 19  1  0  0  0  0
 18 49  1  0  0  0  0
 20 23  1  0  0  0  0
 20 21  1  0  0  0  0
 20 24  1  0  0  0  0
 21 22  1  0  0  0  0
 21 50  1  0  0  0  0
 21 51  1  0  0  0  0
 22 23  1  0  0  0  0
 23 52  1  0  0  0  0
 23 53  1  0  0  0  0
 25 26  1  0  0  0  0
 26 27  1  0  0  0  0
 26 28  1  0  0  0  0
 26 54  1  1  0  0  0
 27 55  1  0  0  0  0
 27 56  1  0  0  0  0
 27 57  1  0  0  0  0
 28 29  1  0  0  0  0
 28 30  1  0  0  0  0
 28 31  1  0  0  0  0
 32 33  1  0  0  0  0
M  END
$$$$
CHEMBL2420252_5ZTY
 OpenBabel12022418113D

 62 66  0  0  1  0  0  0  0  0999 V2000
    0.6549    2.0767   -0.9758 C   0  0  0  0  0  0  0  0  0  0  0  0
   -0.1335    0.8988   -0.4727 C   0  0  0  0  0  0  0  0  0  0  0  0
   -1.5448    0.9892   -0.4974 C   0  0  0  0  0  0  0  0  0  0  0  0
   -2.3654   -0.0664   -0.0673 C   0  0  0  0  0  0  0  0  0  0  0  0
   -3.8390    0.0599   -0.1057 C   0  0  0  0  0  0  0  0  0  0  0  0
   -4.6268    0.6841   -1.0605 C   0  0  0  0  0  0  0  0  0  0  0  0
   -5.9719    0.3568   -0.7580 C   0  0  0  0  0  0  0  0  0  0  0  0
   -7.1854    0.7830   -1.4940 C   0  0  0  0  0  0  0  0  0  0  0  0
   -7.1322    1.5394   -2.4602 O   0  0  0  0  0  0  0  0  0  0  0  0
   -8.3606    0.2676   -0.9819 N   0  0  0  0  0  0  0  0  0  0  0  0
   -9.6834    0.6569   -1.4489 C   0  0  2  0  0  0  0  0  0  0  0  0
  -10.3325    1.8756   -0.6955 C   0  0  0  0  0  0  0  0  0  0  0  0
   -9.4849    2.5083    0.4170 C   0  0  0  0  0  0  0  0  0  0  0  0
  -10.6561    3.0034   -1.7052 C   0  0  0  0  0  0  0  0  0  0  0  0
  -11.6578    1.2469   -0.1550 C   0  0  2  0  0  0  0  0  0  0  0  0
  -11.3971    0.1910    0.9421 C   0  0  0  0  0  0  0  0  0  0  0  0
  -10.8025   -0.9917    0.1626 C   0  0  0  0  0  0  0  0  0  0  0  0
  -10.7716   -0.4621   -1.2861 C   0  0  2  0  0  0  0  0  0  0  0  0
  -10.7323   -1.5390   -2.3533 C   0  0  0  0  0  0  0  0  0  0  0  0
  -12.0840    0.3379   -1.3084 C   0  0  0  0  0  0  0  0  0  0  0  0
   -6.0320   -0.4483    0.3172 N   0  0  0  0  0  0  0  0  0  0  0  0
   -4.7517   -0.4932    0.7948 N   0  0  0  0  0  0  0  0  0  0  0  0
   -4.5292   -1.0345    2.0943 C   0  0  0  0  0  0  0  0  0  0  0  0
   -5.3690   -2.0548    2.5633 C   0  0  0  0  0  0  0  0  0  0  0  0
   -5.1479   -2.6192    3.8208 C   0  0  0  0  0  0  0  0  0  0  0  0
   -4.1139   -2.1456    4.6289 C   0  0  0  0  0  0  0  0  0  0  0  0
   -3.2980   -1.1086    4.1806 C   0  0  0  0  0  0  0  0  0  0  0  0
   -3.5014   -0.5506    2.9168 C   0  0  0  0  0  0  0  0  0  0  0  0
   -1.7402   -1.2477    0.3584 C   0  0  0  0  0  0  0  0  0  0  0  0
   -0.3460   -1.3428    0.4207 C   0  0  0  0  0  0  0  0  0  0  0  0
    0.4542   -0.2774    0.0096 C   0  0  0  0  0  0  0  0  0  0  0  0
    2.1659   -0.4843    0.1201 Cl  0  0  0  0  0  0  0  0  0  0  0  0
    1.7365    1.9294   -0.9328 H   0  0  0  0  0  0  0  0  0  0  0  0
    0.4215    2.9641   -0.3781 H   0  0  0  0  0  0  0  0  0  0  0  0
    0.3977    2.2733   -2.0222 H   0  0  0  0  0  0  0  0  0  0  0  0
   -1.9996    1.9095   -0.8600 H   0  0  0  0  0  0  0  0  0  0  0  0
   -4.2880    1.2601   -1.9107 H   0  0  0  0  0  0  0  0  0  0  0  0
   -8.2382   -0.2341   -0.1072 H   0  0  0  0  0  0  0  0  0  0  0  0
   -9.5894    0.8994   -2.5160 H   0  0  0  0  0  0  0  0  0  0  0  0
   -8.6189    3.0363    0.0020 H   0  0  0  0  0  0  0  0  0  0  0  0
   -9.1029    1.7764    1.1333 H   0  0  0  0  0  0  0  0  0  0  0  0
  -10.0772    3.2420    0.9765 H   0  0  0  0  0  0  0  0  0  0  0  0
   -9.7372    3.4711   -2.0760 H   0  0  0  0  0  0  0  0  0  0  0  0
  -11.2671    3.7844   -1.2363 H   0  0  0  0  0  0  0  0  0  0  0  0
  -11.2027    2.6475   -2.5828 H   0  0  0  0  0  0  0  0  0  0  0  0
  -12.4063    1.9874    0.1402 H   0  0  0  0  0  0  0  0  0  0  0  0
  -12.3433   -0.1151    1.4041 H   0  0  0  0  0  0  0  0  0  0  0  0
  -10.7434    0.5342    1.7462 H   0  0  0  0  0  0  0  0  0  0  0  0
  -11.4656   -1.8621    0.2533 H   0  0  0  0  0  0  0  0  0  0  0  0
   -9.8284   -1.2967    0.5511 H   0  0  0  0  0  0  0  0  0  0  0  0
   -9.7658   -2.0517   -2.3734 H   0  0  0  0  0  0  0  0  0  0  0  0
  -10.9102   -1.1078   -3.3452 H   0  0  0  0  0  0  0  0  0  0  0  0
  -11.5131   -2.2892   -2.1834 H   0  0  0  0  0  0  0  0  0  0  0  0
  -12.2699    0.8522   -2.2543 H   0  0  0  0  0  0  0  0  0  0  0  0
  -12.9658   -0.2693   -1.0702 H   0  0  0  0  0  0  0  0  0  0  0  0
   -6.1708   -2.4472    1.9409 H   0  0  0  0  0  0  0  0  0  0  0  0
   -5.7836   -3.4288    4.1708 H   0  0  0  0  0  0  0  0  0  0  0  0
   -3.9500   -2.5815    5.6107 H   0  0  0  0  0  0  0  0  0  0  0  0
   -2.5048   -0.7277    4.8207 H   0  0  0  0  0  0  0  0  0  0  0  0
   -2.8684    0.2795    2.6113 H   0  0  0  0  0  0  0  0  0  0  0  0
   -2.3238   -2.1138    0.6628 H   0  0  0  0  0  0  0  0  0  0  0  0
    0.1078   -2.2594    0.7912 H   0  0  0  0  0  0  0  0  0  0  0  0
  1  2  1  0  0  0  0
  1 33  1  0  0  0  0
  1 34  1  0  0  0  0
  1 35  1  0  0  0  0
  2 31  2  0  0  0  0
  2  3  1  0  0  0  0
  3  4  2  0  0  0  0
  3 36  1  0  0  0  0
  4  5  1  0  0  0  0
  4 29  1  0  0  0  0
  5 22  1  0  0  0  0
  5  6  2  0  0  0  0
  6  7  1  0  0  0  0
  6 37  1  0  0  0  0
  7  8  1  0  0  0  0
  7 21  2  0  0  0  0
  8  9  2  0  0  0  0
  8 10  1  0  0  0  0
 10 38  1  0  0  0  0
 11 10  1  0  0  0  0
 11 12  1  0  0  0  0
 11 18  1  0  0  0  0
 11 39  1  6  0  0  0
 12 13  1  0  0  0  0
 12 14  1  0  0  0  0
 12 15  1  0  0  0  0
 13 40  1  0  0  0  0
 13 41  1  0  0  0  0
 13 42  1  0  0  0  0
 14 43  1  0  0  0  0
 14 44  1  0  0  0  0
 14 45  1  0  0  0  0
 15 16  1  0  0  0  0
 15 20  1  0  0  0  0
 15 46  1  1  0  0  0
 16 17  1  0  0  0  0
 16 47  1  0  0  0  0
 16 48  1  0  0  0  0
 17 18  1  0  0  0  0
 17 49  1  0  0  0  0
 17 50  1  0  0  0  0
 18 19  1  6  0  0  0
 18 20  1  0  0  0  0
 19 51  1  0  0  0  0
 19 52  1  0  0  0  0
 19 53  1  0  0  0  0
 20 54  1  0  0  0  0
 20 55  1  0  0  0  0
 21 22  1  0  0  0  0
 22 23  1  0  0  0  0
 23 28  2  0  0  0  0
 23 24  1  0  0  0  0
 24 25  2  0  0  0  0
 24 56  1  0  0  0  0
 25 26  1  0  0  0  0
 25 57  1  0  0  0  0
 26 27  2  0  0  0  0
 26 58  1  0  0  0  0
 27 28  1  0  0  0  0
 27 59  1  0  0  0  0
 28 60  1  0  0  0  0
 29 30  2  0  0  0  0
 29 61  1  0  0  0  0
 30 31  1  0  0  0  0
 30 62  1  0  0  0  0
 31 32  1  0  0  0  0
M  END
$$$$
CHEMBL1216001_5ZTY
 OpenBabel12022418113D

 70 74  0  0  1  0  0  0  0  0999 V2000
    4.9067   -2.3687    0.9435 C   0  0  0  0  0  0  0  0  0  0  0  0
    4.3775   -1.1233    0.2531 C   0  0  0  0  0  0  0  0  0  0  0  0
    4.8566    0.1332    0.9761 C   0  0  0  0  0  0  0  0  0  0  0  0
    4.3322    1.3961    0.2984 C   0  0  0  0  0  0  0  0  0  0  0  0
    4.8810    2.6837    0.9353 C   0  0  0  0  0  0  0  0  0  0  0  0
    6.3579    2.7509    0.9324 N   0  0  0  0  0  0  0  0  0  0  0  0
    7.0921    2.7855    2.1154 C   0  0  0  0  0  0  0  0  0  0  0  0
    8.4321    2.7073    2.2326 C   0  0  0  0  0  0  0  0  0  0  0  0
    9.0722    2.8655    3.5662 C   0  0  0  0  0  0  0  0  0  0  0  0
    8.4035    3.0089    4.5847 O   0  0  0  0  0  0  0  0  0  0  0  0
   10.4538    2.8843    3.5611 N   0  0  0  0  0  0  0  0  0  0  0  0
   11.2229    3.1335    4.7642 C   0  0  1  0  0  0  0  0  0  0  0  0
   11.5653    1.8812    5.6341 C   0  0  0  0  0  0  0  0  0  0  0  0
   10.8485    1.9953    7.0011 C   0  0  0  0  0  0  0  0  0  0  0  0
   11.1592    0.5159    5.0557 C   0  0  0  0  0  0  0  0  0  0  0  0
   13.1078    2.0609    5.8166 C   0  0  1  0  0  0  0  0  0  0  0  0
   13.8773    1.7917    4.5048 C   0  0  0  0  0  0  0  0  0  0  0  0
   13.5612    3.0251    3.6512 C   0  0  0  0  0  0  0  0  0  0  0  0
   12.6016    3.8334    4.5456 C   0  0  1  0  0  0  0  0  0  0  0  0
   12.4845    5.2878    4.1299 C   0  0  0  0  0  0  0  0  0  0  0  0
   13.2575    3.5907    5.9141 C   0  0  0  0  0  0  0  0  0  0  0  0
    9.1903    2.5096    0.9774 C   0  0  0  0  0  0  0  0  0  0  0  0
   10.3961    2.2943    0.9819 O   0  0  0  0  0  0  0  0  0  0  0  0
    8.4513    2.6231   -0.2997 C   0  0  0  0  0  0  0  0  0  0  0  0
    9.1937    2.6093   -1.4858 C   0  0  0  0  0  0  0  0  0  0  0  0
    8.5629    2.7899   -2.7164 C   0  0  0  0  0  0  0  0  0  0  0  0
    9.3533    2.8521   -3.9403 C   0  0  0  0  0  0  0  0  0  0  0  0
   10.7049    2.7940   -4.2112 C   0  0  0  0  0  0  0  0  0  0  0  0
   10.8425    2.9815   -5.6053 C   0  0  0  0  0  0  0  0  0  0  0  0
    9.5701    3.1281   -6.0987 C   0  0  0  0  0  0  0  0  0  0  0  0
    8.6631    3.0472   -5.0992 O   0  0  0  0  0  0  0  0  0  0  0  0
    7.1768    2.9688   -2.7290 C   0  0  0  0  0  0  0  0  0  0  0  0
    6.4400    2.9784   -1.5377 C   0  0  0  0  0  0  0  0  0  0  0  0
    7.0525    2.7827   -0.2918 C   0  0  0  0  0  0  0  0  0  0  0  0
    4.5590   -3.2680    0.4280 H   0  0  0  0  0  0  0  0  0  0  0  0
    4.5628   -2.4115    1.9816 H   0  0  0  0  0  0  0  0  0  0  0  0
    6.0017   -2.3765    0.9449 H   0  0  0  0  0  0  0  0  0  0  0  0
    3.2823   -1.1515    0.2301 H   0  0  0  0  0  0  0  0  0  0  0  0
    4.7248   -1.1124   -0.7872 H   0  0  0  0  0  0  0  0  0  0  0  0
    5.9525    0.1331    0.9814 H   0  0  0  0  0  0  0  0  0  0  0  0
    4.5250    0.1171    2.0204 H   0  0  0  0  0  0  0  0  0  0  0  0
    3.2368    1.4167    0.3549 H   0  0  0  0  0  0  0  0  0  0  0  0
    4.5689    1.3443   -0.7681 H   0  0  0  0  0  0  0  0  0  0  0  0
    4.5060    2.7308    1.9674 H   0  0  0  0  0  0  0  0  0  0  0  0
    4.4629    3.5659    0.4346 H   0  0  0  0  0  0  0  0  0  0  0  0
    6.4759    2.9130    3.0057 H   0  0  0  0  0  0  0  0  0  0  0  0
   10.9376    2.6578    2.6895 H   0  0  0  0  0  0  0  0  0  0  0  0
   10.6104    3.8208    5.3663 H   0  0  0  0  0  0  0  0  0  0  0  0
    9.7626    1.9170    6.8757 H   0  0  0  0  0  0  0  0  0  0  0  0
   11.0438    2.9464    7.5048 H   0  0  0  0  0  0  0  0  0  0  0  0
   11.1680    1.1959    7.6787 H   0  0  0  0  0  0  0  0  0  0  0  0
   10.0753    0.4590    4.9032 H   0  0  0  0  0  0  0  0  0  0  0  0
   11.4238   -0.2890    5.7528 H   0  0  0  0  0  0  0  0  0  0  0  0
   11.6255    0.2876    4.0953 H   0  0  0  0  0  0  0  0  0  0  0  0
   13.5154    1.5077    6.6663 H   0  0  0  0  0  0  0  0  0  0  0  0
   13.6080    0.8636    3.9986 H   0  0  0  0  0  0  0  0  0  0  0  0
   14.9557    1.7426    4.7010 H   0  0  0  0  0  0  0  0  0  0  0  0
   13.1527    2.7745    2.6696 H   0  0  0  0  0  0  0  0  0  0  0  0
   14.4918    3.5867    3.4836 H   0  0  0  0  0  0  0  0  0  0  0  0
   12.0072    5.3745    3.1475 H   0  0  0  0  0  0  0  0  0  0  0  0
   13.4678    5.7661    4.0666 H   0  0  0  0  0  0  0  0  0  0  0  0
   11.8847    5.8579    4.8469 H   0  0  0  0  0  0  0  0  0  0  0  0
   14.3033    3.9164    5.9631 H   0  0  0  0  0  0  0  0  0  0  0  0
   12.7147    4.0488    6.7450 H   0  0  0  0  0  0  0  0  0  0  0  0
   10.2719    2.4790   -1.4336 H   0  0  0  0  0  0  0  0  0  0  0  0
   11.5003    2.6566   -3.4918 H   0  0  0  0  0  0  0  0  0  0  0  0
   11.7584    3.0153   -6.1807 H   0  0  0  0  0  0  0  0  0  0  0  0
    9.1608    3.2960   -7.0893 H   0  0  0  0  0  0  0  0  0  0  0  0
    6.6492    3.1157   -3.6688 H   0  0  0  0  0  0  0  0  0  0  0  0
    5.3747    3.1642   -1.6244 H   0  0  0  0  0  0  0  0  0  0  0  0
  1  2  1  0  0  0  0
  1 35  1  0  0  0  0
  1 36  1  0  0  0  0
  1 37  1  0  0  0  0
  2  3  1  0  0  0  0
  2 38  1  0  0  0  0
  2 39  1  0  0  0  0
  3  4  1  0  0  0  0
  3 40  1  0  0  0  0
  3 41  1  0  0  0  0
  4  5  1  0  0  0  0
  4 42  1  0  0  0  0
  4 43  1  0  0  0  0
  5  6  1  0  0  0  0
  5 44  1  0  0  0  0
  5 45  1  0  0  0  0
  6 34  1  0  0  0  0
  6  7  1  0  0  0  0
  7  8  2  0  0  0  0
  7 46  1  0  0  0  0
  8  9  1  0  0  0  0
  8 22  1  0  0  0  0
  9 10  2  0  0  0  0
  9 11  1  0  0  0  0
 11 47  1  0  0  0  0
 12 11  1  0  0  0  0
 12 13  1  0  0  0  0
 12 19  1  0  0  0  0
 12 48  1  1  0  0  0
 13 14  1  0  0  0  0
 13 15  1  0  0  0  0
 13 16  1  0  0  0  0
 14 49  1  0  0  0  0
 14 50  1  0  0  0  0
 14 51  1  0  0  0  0
 15 52  1  0  0  0  0
 15 53  1  0  0  0  0
 15 54  1  0  0  0  0
 16 17  1  0  0  0  0
 16 21  1  0  0  0  0
 16 55  1  1  0  0  0
 17 18  1  0  0  0  0
 17 56  1  0  0  0  0
 17 57  1  0  0  0  0
 18 19  1  0  0  0  0
 18 58  1  0  0  0  0
 18 59  1  0  0  0  0
 19 20  1  6  0  0  0
 19 21  1  0  0  0  0
 20 60  1  0  0  0  0
 20 61  1  0  0  0  0
 20 62  1  0  0  0  0
 21 63  1  0  0  0  0
 21 64  1  0  0  0  0
 22 23  2  0  0  0  0
 22 24  1  0  0  0  0
 24 34  2  0  0  0  0
 24 25  1  0  0  0  0
 25 26  2  0  0  0  0
 25 65  1  0  0  0  0
 26 27  1  0  0  0  0
 26 32  1  0  0  0  0
 27 31  1  0  0  0  0
 27 28  2  0  0  0  0
 28 29  1  0  0  0  0
 28 66  1  0  0  0  0
 29 30  2  0  0  0  0
 29 67  1  0  0  0  0
 30 31  1  0  0  0  0
 30 68  1  0  0  0  0
 32 33  2  0  0  0  0
 32 69  1  0  0  0  0
 33 34  1  0  0  0  0
 33 70  1  0  0  0  0
M  END
$$$$
CHEMBL2152806_5ZTY
 OpenBabel12022418113D

 58 61  0  0  1  0  0  0  0  0999 V2000
    4.1941    7.4637    3.7411 C   0  0  0  0  0  0  0  0  0  0  0  0
    3.8824    7.3656    2.3514 O   0  0  0  0  0  0  0  0  0  0  0  0
    4.4927    6.1988    1.7809 C   0  0  0  0  0  0  0  0  0  0  0  0
    4.1456    6.0805    0.2781 C   0  0  0  0  0  0  0  0  0  0  0  0
    4.7460    4.8937   -0.3993 N   0  0  0  0  0  0  0  0  0  0  0  0
    5.7432    5.0193   -1.3828 C   0  0  0  0  0  0  0  0  0  0  0  0
    6.4340    4.0184   -1.9654 C   0  0  0  0  0  0  0  0  0  0  0  0
    7.4810    4.2344   -3.0238 C   0  0  0  0  0  0  0  0  0  0  0  0
    7.7847    5.3557   -3.4243 O   0  0  0  0  0  0  0  0  0  0  0  0
    8.0664    3.0926   -3.5163 N   0  0  0  0  0  0  0  0  0  0  0  0
    9.0768    3.1073   -4.5412 C   0  0  2  0  0  0  0  0  0  0  0  0
    8.5289    3.0346   -6.0055 C   0  0  0  0  0  0  0  0  0  0  0  0
    6.9991    2.9238   -6.1257 C   0  0  0  0  0  0  0  0  0  0  0  0
    8.9396    4.2987   -6.7942 C   0  0  0  0  0  0  0  0  0  0  0  0
    9.2890    1.7815   -6.5467 C   0  0  2  0  0  0  0  0  0  0  0  0
    8.7584    0.4795   -5.9114 C   0  0  0  0  0  0  0  0  0  0  0  0
    9.2772    0.5532   -4.4694 C   0  0  0  0  0  0  0  0  0  0  0  0
   10.0486    1.8935   -4.4493 C   0  0  2  0  0  0  0  0  0  0  0  0
   11.0504    2.0080   -3.3154 C   0  0  0  0  0  0  0  0  0  0  0  0
   10.6575    1.8886   -5.8547 C   0  0  0  0  0  0  0  0  0  0  0  0
    6.1221    2.6410   -1.4717 C   0  0  0  0  0  0  0  0  0  0  0  0
    6.6386    1.6526   -1.9686 O   0  0  0  0  0  0  0  0  0  0  0  0
    5.1690    2.4942   -0.3657 C   0  0  0  0  0  0  0  0  0  0  0  0
    5.0798    1.2338    0.2351 C   0  0  0  0  0  0  0  0  0  0  0  0
    4.2480    1.0759    1.3355 C   0  0  0  0  0  0  0  0  0  0  0  0
    3.4126    2.1162    1.6893 C   0  0  0  0  0  0  0  0  0  0  0  0
    3.4283    3.3344    1.0171 C   0  0  0  0  0  0  0  0  0  0  0  0
    4.4247    3.5968    0.0686 C   0  0  0  0  0  0  0  0  0  0  0  0
    2.5934    1.9748    2.7444 F   0  0  0  0  0  0  0  0  0  0  0  0
    3.7362    8.3701    4.1454 H   0  0  0  0  0  0  0  0  0  0  0  0
    5.2777    7.5242    3.8784 H   0  0  0  0  0  0  0  0  0  0  0  0
    3.7976    6.6006    4.2864 H   0  0  0  0  0  0  0  0  0  0  0  0
    4.1338    5.3396    2.3513 H   0  0  0  0  0  0  0  0  0  0  0  0
    5.5779    6.2569    1.9163 H   0  0  0  0  0  0  0  0  0  0  0  0
    4.4912    7.0046   -0.2053 H   0  0  0  0  0  0  0  0  0  0  0  0
    3.0572    6.0865    0.1301 H   0  0  0  0  0  0  0  0  0  0  0  0
    5.9144    6.0605   -1.6596 H   0  0  0  0  0  0  0  0  0  0  0  0
    7.6296    2.1892   -3.2782 H   0  0  0  0  0  0  0  0  0  0  0  0
    9.6618    4.0345   -4.4116 H   0  0  0  0  0  0  0  0  0  0  0  0
    6.5089    3.8492   -5.8015 H   0  0  0  0  0  0  0  0  0  0  0  0
    6.5771    2.1171   -5.5207 H   0  0  0  0  0  0  0  0  0  0  0  0
    6.7071    2.7478   -7.1673 H   0  0  0  0  0  0  0  0  0  0  0  0
    8.4229    5.1856   -6.4087 H   0  0  0  0  0  0  0  0  0  0  0  0
    8.6796    4.1960   -7.8535 H   0  0  0  0  0  0  0  0  0  0  0  0
   10.0128    4.5045   -6.7385 H   0  0  0  0  0  0  0  0  0  0  0  0
    9.3339    1.7342   -7.6373 H   0  0  0  0  0  0  0  0  0  0  0  0
    9.1910   -0.3942   -6.4115 H   0  0  0  0  0  0  0  0  0  0  0  0
    7.6730    0.3676   -5.9593 H   0  0  0  0  0  0  0  0  0  0  0  0
    9.9475   -0.2926   -4.2727 H   0  0  0  0  0  0  0  0  0  0  0  0
    8.4696    0.4831   -3.7388 H   0  0  0  0  0  0  0  0  0  0  0  0
   10.5456    2.0307   -2.3432 H   0  0  0  0  0  0  0  0  0  0  0  0
   11.6430    2.9254   -3.4054 H   0  0  0  0  0  0  0  0  0  0  0  0
   11.7474    1.1637   -3.3131 H   0  0  0  0  0  0  0  0  0  0  0  0
   11.2149    2.7992   -6.0927 H   0  0  0  0  0  0  0  0  0  0  0  0
   11.3027    1.0232   -6.0428 H   0  0  0  0  0  0  0  0  0  0  0  0
    5.6805    0.4051   -0.1177 H   0  0  0  0  0  0  0  0  0  0  0  0
    4.2471    0.1495    1.8998 H   0  0  0  0  0  0  0  0  0  0  0  0
    2.6892    4.0738    1.2944 H   0  0  0  0  0  0  0  0  0  0  0  0
  1  2  1  0  0  0  0
  1 30  1  0  0  0  0
  1 31  1  0  0  0  0
  1 32  1  0  0  0  0
  2  3  1  0  0  0  0
  3  4  1  0  0  0  0
  3 33  1  0  0  0  0
  3 34  1  0  0  0  0
  4  5  1  0  0  0  0
  4 35  1  0  0  0  0
  4 36  1  0  0  0  0
  5 28  1  0  0  0  0
  5  6  1  0  0  0  0
  6  7  2  0  0  0  0
  6 37  1  0  0  0  0
  7  8  1  0  0  0  0
  7 21  1  0  0  0  0
  8  9  2  0  0  0  0
  8 10  1  0  0  0  0
 10 38  1  0  0  0  0
 11 10  1  0  0  0  0
 11 12  1  0  0  0  0
 11 18  1  0  0  0  0
 11 39  1  1  0  0  0
 12 13  1  0  0  0  0
 12 14  1  0  0  0  0
 12 15  1  0  0  0  0
 13 40  1  0  0  0  0
 13 41  1  0  0  0  0
 13 42  1  0  0  0  0
 14 43  1  0  0  0  0
 14 44  1  0  0  0  0
 14 45  1  0  0  0  0
 15 16  1  0  0  0  0
 15 20  1  0  0  0  0
 15 46  1  6  0  0  0
 16 17  1  0  0  0  0
 16 47  1  0  0  0  0
 16 48  1  0  0  0  0
 17 18  1  0  0  0  0
 17 49  1  0  0  0  0
 17 50  1  0  0  0  0
 18 19  1  1  0  0  0
 18 20  1  0  0  0  0
 19 51  1  0  0  0  0
 19 52  1  0  0  0  0
 19 53  1  0  0  0  0
 20 54  1  0  0  0  0
 20 55  1  0  0  0  0
 21 22  2  0  0  0  0
 21 23  1  0  0  0  0
 23 28  2  0  0  0  0
 23 24  1  0  0  0  0
 24 25  2  0  0  0  0
 24 56  1  0  0  0  0
 25 26  1  0  0  0  0
 25 57  1  0  0  0  0
 26 27  2  0  0  0  0
 26 29  1  0  0  0  0
 27 28  1  0  0  0  0
 27 58  1  0  0  0  0
M  END
$$$$
CHEMBL4756103_8GUT
 OpenBabel12022418113D

 51 53  0  0  0  0  0  0  0  0999 V2000
    0.1758   -1.2850   -0.0838 C   0  0  0  0  0  0  0  0  0  0  0  0
    0.8837   -0.0999   -0.0131 C   0  0  0  0  0  0  0  0  0  0  0  0
    2.3811   -0.0896    0.0131 C   0  0  0  0  0  0  0  0  0  0  0  0
    0.2662    1.0994    0.0427 N   0  0  0  0  0  0  0  0  0  0  0  0
   -1.0976    1.1508    0.0396 C   0  0  0  0  0  0  0  0  0  0  0  0
   -1.8875    0.0192   -0.1241 C   0  0  0  0  0  0  0  0  0  0  0  0
   -1.2130   -1.2151   -0.1556 C   0  0  0  0  0  0  0  0  0  0  0  0
   -3.3664   -0.0509   -0.2691 C   0  0  0  0  0  0  0  0  0  0  0  0
   -3.8994   -1.1606   -0.3016 O   0  0  0  0  0  0  0  0  0  0  0  0
   -4.1108    1.1034   -0.4077 N   0  0  0  0  0  0  0  0  0  0  0  0
   -5.5675    1.0155   -0.5849 C   0  0  0  0  0  0  0  0  0  0  0  0
   -6.2725    0.7234    0.7503 C   0  0  0  0  0  0  0  0  0  0  0  0
   -6.6915    1.9588    1.5429 C   0  0  0  0  0  0  0  0  0  0  0  0
   -8.0817    2.4603    1.1537 C   0  0  0  0  0  0  0  0  0  0  0  0
   -8.1816    3.1335   -0.2118 C   0  0  0  0  0  0  0  0  0  0  0  0
   -7.6253    2.3329   -1.3884 C   0  0  0  0  0  0  0  0  0  0  0  0
   -6.0993    2.2237   -1.3636 C   0  0  0  0  0  0  0  0  0  0  0  0
   -1.6652    2.3925    0.2859 O   0  0  0  0  0  0  0  0  0  0  0  0
   -0.6899    3.2601    0.9010 C   0  0  0  0  0  0  0  0  0  0  0  0
   -1.2803    4.4624    1.6078 C   0  0  0  0  0  0  0  0  0  0  0  0
   -0.4247    5.5367    1.9293 C   0  0  0  0  0  0  0  0  0  0  0  0
   -0.8793    6.5997    2.7103 C   0  0  0  0  0  0  0  0  0  0  0  0
   -2.1868    6.5901    3.1733 C   0  0  0  0  0  0  0  0  0  0  0  0
   -3.0469    5.5438    2.8629 C   0  0  0  0  0  0  0  0  0  0  0  0
   -2.5957    4.4764    2.0849 C   0  0  0  0  0  0  0  0  0  0  0  0
   -2.6189    7.5921    3.9519 F   0  0  0  0  0  0  0  0  0  0  0  0
    0.6738   -2.2455   -0.0881 H   0  0  0  0  0  0  0  0  0  0  0  0
    2.7948   -1.1028    0.0263 H   0  0  0  0  0  0  0  0  0  0  0  0
    2.7349    0.4347    0.9063 H   0  0  0  0  0  0  0  0  0  0  0  0
    2.7617    0.4257   -0.8743 H   0  0  0  0  0  0  0  0  0  0  0  0
   -1.7765   -2.1448   -0.2297 H   0  0  0  0  0  0  0  0  0  0  0  0
   -3.6605    2.0056   -0.2936 H   0  0  0  0  0  0  0  0  0  0  0  0
   -5.7434    0.1347   -1.2193 H   0  0  0  0  0  0  0  0  0  0  0  0
   -5.6226    0.1077    1.3842 H   0  0  0  0  0  0  0  0  0  0  0  0
   -7.1577    0.1024    0.5560 H   0  0  0  0  0  0  0  0  0  0  0  0
   -5.9453    2.7569    1.4643 H   0  0  0  0  0  0  0  0  0  0  0  0
   -6.7335    1.6761    2.6024 H   0  0  0  0  0  0  0  0  0  0  0  0
   -8.4114    3.1834    1.9102 H   0  0  0  0  0  0  0  0  0  0  0  0
   -8.7973    1.6294    1.2000 H   0  0  0  0  0  0  0  0  0  0  0  0
   -7.6830    4.1097   -0.1697 H   0  0  0  0  0  0  0  0  0  0  0  0
   -9.2413    3.3434   -0.4061 H   0  0  0  0  0  0  0  0  0  0  0  0
   -7.9120    2.8632   -2.3061 H   0  0  0  0  0  0  0  0  0  0  0  0
   -8.0972    1.3445   -1.4465 H   0  0  0  0  0  0  0  0  0  0  0  0
   -5.7437    2.1345   -2.3996 H   0  0  0  0  0  0  0  0  0  0  0  0
   -5.6612    3.1552   -0.9846 H   0  0  0  0  0  0  0  0  0  0  0  0
    0.0100    3.6120    0.1315 H   0  0  0  0  0  0  0  0  0  0  0  0
   -0.1446    2.7226    1.6913 H   0  0  0  0  0  0  0  0  0  0  0  0
    0.6118    5.5334    1.5942 H   0  0  0  0  0  0  0  0  0  0  0  0
   -0.2180    7.4174    2.9789 H   0  0  0  0  0  0  0  0  0  0  0  0
   -4.0622    5.5524    3.2522 H   0  0  0  0  0  0  0  0  0  0  0  0
   -3.2664    3.6443    1.8848 H   0  0  0  0  0  0  0  0  0  0  0  0
  1  7  2  0  0  0  0
  1  2  1  0  0  0  0
  1 27  1  0  0  0  0
  2  3  1  0  0  0  0
  2  4  2  0  0  0  0
  3 28  1  0  0  0  0
  3 29  1  0  0  0  0
  3 30  1  0  0  0  0
  4  5  1  0  0  0  0
  5  6  2  0  0  0  0
  5 18  1  0  0  0  0
  6  7  1  0  0  0  0
  6  8  1  0  0  0  0
  7 31  1  0  0  0  0
  8  9  2  0  0  0  0
  8 10  1  0  0  0  0
 10 11  1  0  0  0  0
 10 32  1  0  0  0  0
 11 17  1  0  0  0  0
 11 12  1  0  0  0  0
 11 33  1  0  0  0  0
 12 13  1  0  0  0  0
 12 34  1  0  0  0  0
 12 35  1  0  0  0  0
 13 14  1  0  0  0  0
 13 36  1  0  0  0  0
 13 37  1  0  0  0  0
 14 15  1  0  0  0  0
 14 38  1  0  0  0  0
 14 39  1  0  0  0  0
 15 16  1  0  0  0  0
 15 40  1  0  0  0  0
 15 41  1  0  0  0  0
 16 17  1  0  0  0  0
 16 42  1  0  0  0  0
 16 43  1  0  0  0  0
 17 44  1  0  0  0  0
 17 45  1  0  0  0  0
 18 19  1  0  0  0  0
 19 20  1  0  0  0  0
 19 46  1  0  0  0  0
 19 47  1  0  0  0  0
 20 25  2  0  0  0  0
 20 21  1  0  0  0  0
 21 22  2  0  0  0  0
 21 48  1  0  0  0  0
 22 23  1  0  0  0  0
 22 49  1  0  0  0  0
 23 24  2  0  0  0  0
 23 26  1  0  0  0  0
 24 25  1  0  0  0  0
 24 50  1  0  0  0  0
 25 51  1  0  0  0  0
M  END
$$$$
CHEMBL2022360_5ZTY
 OpenBabel12022418113D

 51 54  0  0  0  0  0  0  0  0999 V2000
   -2.4561   -0.7275   -0.0462 C   0  0  0  0  0  0  0  0  0  0  0  0
   -2.4663    0.6707   -0.1017 C   0  0  0  0  0  0  0  0  0  0  0  0
   -1.2770    1.3895   -0.0670 C   0  0  0  0  0  0  0  0  0  0  0  0
   -0.0392    0.7269    0.0054 C   0  0  0  0  0  0  0  0  0  0  0  0
   -0.0401   -0.6772    0.0471 C   0  0  0  0  0  0  0  0  0  0  0  0
   -1.2392   -1.3938    0.0358 C   0  0  0  0  0  0  0  0  0  0  0  0
    1.2237   -1.4010   -0.0118 C   0  0  0  0  0  0  0  0  0  0  0  0
    2.3894   -0.7478    0.0751 C   0  0  0  0  0  0  0  0  0  0  0  0
    2.3867    0.7181    0.3742 C   0  0  0  0  0  0  0  0  0  0  0  0
    3.4115    1.2420    0.8225 O   0  0  0  0  0  0  0  0  0  0  0  0
    1.2047    1.4189    0.0958 N   0  0  0  0  0  0  0  0  0  0  0  0
    1.2404    2.8820    0.0416 C   0  0  0  0  0  0  0  0  0  0  0  0
    1.3829    3.4889   -1.3474 C   0  0  0  0  0  0  0  0  0  0  0  0
    2.2342    2.9281   -2.3063 C   0  0  0  0  0  0  0  0  0  0  0  0
    2.5885    3.6436   -3.4515 C   0  0  0  0  0  0  0  0  0  0  0  0
    2.0610    4.9159   -3.6730 C   0  0  0  0  0  0  0  0  0  0  0  0
    1.1432    5.4520   -2.7762 C   0  0  0  0  0  0  0  0  0  0  0  0
    0.8035    4.7461   -1.6192 C   0  0  0  0  0  0  0  0  0  0  0  0
    3.6379   -1.5457   -0.1801 C   0  0  0  0  0  0  0  0  0  0  0  0
    3.6068   -2.6018   -0.7949 O   0  0  0  0  0  0  0  0  0  0  0  0
    4.8030   -0.9909    0.3034 N   0  0  0  0  0  0  0  0  0  0  0  0
    6.1384   -1.5488    0.0891 C   0  0  0  0  0  0  0  0  0  0  0  0
    6.7093   -1.0808   -1.2580 C   0  0  0  0  0  0  0  0  0  0  0  0
    8.1812   -1.4499   -1.4547 C   0  0  0  0  0  0  0  0  0  0  0  0
    9.0426   -0.9743   -0.2896 C   0  0  0  0  0  0  0  0  0  0  0  0
    8.5261   -1.5436    1.0239 C   0  0  0  0  0  0  0  0  0  0  0  0
    7.0661   -1.1618    1.2582 C   0  0  0  0  0  0  0  0  0  0  0  0
   -3.3822   -1.2783   -0.0839 H   0  0  0  0  0  0  0  0  0  0  0  0
   -3.4177    1.1983   -0.1726 H   0  0  0  0  0  0  0  0  0  0  0  0
   -1.3567    2.4712   -0.0902 H   0  0  0  0  0  0  0  0  0  0  0  0
   -1.2365   -2.4829    0.0676 H   0  0  0  0  0  0  0  0  0  0  0  0
    1.1861   -2.4714   -0.2063 H   0  0  0  0  0  0  0  0  0  0  0  0
    2.0781    3.2531    0.6443 H   0  0  0  0  0  0  0  0  0  0  0  0
    0.3475    3.2901    0.5140 H   0  0  0  0  0  0  0  0  0  0  0  0
    2.6876    1.9539   -2.1406 H   0  0  0  0  0  0  0  0  0  0  0  0
    3.3208    3.2302   -4.1407 H   0  0  0  0  0  0  0  0  0  0  0  0
    2.3921    5.4972   -4.5312 H   0  0  0  0  0  0  0  0  0  0  0  0
    0.7331    6.4456   -2.9506 H   0  0  0  0  0  0  0  0  0  0  0  0
    0.1323    5.2138   -0.9035 H   0  0  0  0  0  0  0  0  0  0  0  0
    4.7320   -0.0671    0.7261 H   0  0  0  0  0  0  0  0  0  0  0  0
    6.0383   -2.6410    0.0698 H   0  0  0  0  0  0  0  0  0  0  0  0
    6.6078    0.0096   -1.3414 H   0  0  0  0  0  0  0  0  0  0  0  0
    6.1207   -1.5069   -2.0797 H   0  0  0  0  0  0  0  0  0  0  0  0
    8.5507   -1.0042   -2.3844 H   0  0  0  0  0  0  0  0  0  0  0  0
    8.2772   -2.5368   -1.5585 H   0  0  0  0  0  0  0  0  0  0  0  0
    9.0347    0.1221   -0.2447 H   0  0  0  0  0  0  0  0  0  0  0  0
   10.0835   -1.2807   -0.4433 H   0  0  0  0  0  0  0  0  0  0  0  0
    9.1399   -1.1739    1.8530 H   0  0  0  0  0  0  0  0  0  0  0  0
    8.6246   -2.6359    1.0156 H   0  0  0  0  0  0  0  0  0  0  0  0
    6.7293   -1.6483    2.1797 H   0  0  0  0  0  0  0  0  0  0  0  0
    7.0092   -0.0805    1.4359 H   0  0  0  0  0  0  0  0  0  0  0  0
  1  6  2  0  0  0  0
  1  2  1  0  0  0  0
  1 28  1  0  0  0  0
  2  3  2  0  0  0  0
  2 29  1  0  0  0  0
  3  4  1  0  0  0  0
  3 30  1  0  0  0  0
  4 11  1  0  0  0  0
  4  5  2  0  0  0  0
  5  6  1  0  0  0  0
  5  7  1  0  0  0  0
  6 31  1  0  0  0  0
  7  8  2  0  0  0  0
  7 32  1  0  0  0  0
  8  9  1  0  0  0  0
  8 19  1  0  0  0  0
  9 10  2  0  0  0  0
  9 11  1  0  0  0  0
 11 12  1  0  0  0  0
 12 13  1  0  0  0  0
 12 33  1  0  0  0  0
 12 34  1  0  0  0  0
 13 18  2  0  0  0  0
 13 14  1  0  0  0  0
 14 15  2  0  0  0  0
 14 35  1  0  0  0  0
 15 16  1  0  0  0  0
 15 36  1  0  0  0  0
 16 17  2  0  0  0  0
 16 37  1  0  0  0  0
 17 18  1  0  0  0  0
 17 38  1  0  0  0  0
 18 39  1  0  0  0  0
 19 20  2  0  0  0  0
 19 21  1  0  0  0  0
 21 22  1  0  0  0  0
 21 40  1  0  0  0  0
 22 27  1  0  0  0  0
 22 23  1  0  0  0  0
 22 41  1  0  0  0  0
 23 24  1  0  0  0  0
 23 42  1  0  0  0  0
 23 43  1  0  0  0  0
 24 25  1  0  0  0  0
 24 44  1  0  0  0  0
 24 45  1  0  0  0  0
 25 26  1  0  0  0  0
 25 46  1  0  0  0  0
 25 47  1  0  0  0  0
 26 27  1  0  0  0  0
 26 48  1  0  0  0  0
 26 49  1  0  0  0  0
 27 50  1  0  0  0  0
 27 51  1  0  0  0  0
M  END
$$$$
CHEMBL3235056_8GUQ
 OpenBabel12022418113D

 48 50  0  0  1  0  0  0  0  0999 V2000
    1.2565    2.4283    0.8198 C   0  0  0  0  0  0  0  0  0  0  0  0
    0.8068    1.4830   -0.3093 C   0  0  0  0  0  0  0  0  0  0  0  0
    0.6468    0.0605    0.2625 C   0  0  0  0  0  0  0  0  0  0  0  0
   -0.5565    1.9453   -0.8486 C   0  0  0  0  0  0  0  0  0  0  0  0
    1.8442    1.5329   -1.3955 C   0  0  0  0  0  0  0  0  0  0  0  0
    2.0961    2.3800   -2.4530 C   0  0  0  0  0  0  0  0  0  0  0  0
    3.3625    1.9807   -2.9404 C   0  0  0  0  0  0  0  0  0  0  0  0
    4.0651    2.6384   -3.9325 N   0  0  0  0  0  0  0  0  0  0  0  0
    5.3610    2.3126   -4.2984 C   0  0  0  0  0  0  0  0  0  0  0  0
    6.0199    1.4017   -3.7905 O   0  0  0  0  0  0  0  0  0  0  0  0
    5.8964    3.1170   -5.4770 C   0  0  2  0  0  0  0  0  0  0  0  0
    7.2884    2.5892   -5.8662 C   0  0  0  0  0  0  0  0  0  0  0  0
    7.8642    3.6986   -6.7336 C   0  0  0  0  0  0  0  0  0  0  0  0
    7.1656    4.9734   -6.2493 C   0  0  0  0  0  0  0  0  0  0  0  0
    6.2476    4.5116   -5.2030 N   0  0  0  0  0  0  0  0  0  0  0  0
    5.4442    5.4423   -4.5960 C   0  0  0  0  0  0  0  0  0  0  0  0
    6.0572    6.4579   -3.8593 C   0  0  0  0  0  0  0  0  0  0  0  0
    5.2926    7.3634   -3.1316 C   0  0  0  0  0  0  0  0  0  0  0  0
    3.9068    7.2722   -3.1788 C   0  0  0  0  0  0  0  0  0  0  0  0
    3.0209    8.2012   -2.4100 C   0  0  0  0  0  0  0  0  0  0  0  0
    3.7054    9.1084   -1.6592 F   0  0  0  0  0  0  0  0  0  0  0  0
    2.2004    8.9273   -3.2167 F   0  0  0  0  0  0  0  0  0  0  0  0
    2.2046    7.5409   -1.5433 F   0  0  0  0  0  0  0  0  0  0  0  0
    3.3672    6.2588   -3.9594 C   0  0  0  0  0  0  0  0  0  0  0  0
    4.0973    5.3264   -4.6348 N   0  0  0  0  0  0  0  0  0  0  0  0
    3.7813    0.8907   -2.2950 N   0  0  0  0  0  0  0  0  0  0  0  0
    2.8546    0.6280   -1.3189 O   0  0  0  0  0  0  0  0  0  0  0  0
    0.5071    2.4871    1.6162 H   0  0  0  0  0  0  0  0  0  0  0  0
    1.4270    3.4444    0.4434 H   0  0  0  0  0  0  0  0  0  0  0  0
    2.1979    2.0887    1.2695 H   0  0  0  0  0  0  0  0  0  0  0  0
   -0.1222    0.0332    1.0435 H   0  0  0  0  0  0  0  0  0  0  0  0
    1.5777   -0.3050    0.7128 H   0  0  0  0  0  0  0  0  0  0  0  0
    0.3573   -0.6540   -0.5169 H   0  0  0  0  0  0  0  0  0  0  0  0
   -1.3117    1.9588   -0.0546 H   0  0  0  0  0  0  0  0  0  0  0  0
   -0.9161    1.2783   -1.6413 H   0  0  0  0  0  0  0  0  0  0  0  0
   -0.5042    2.9569   -1.2674 H   0  0  0  0  0  0  0  0  0  0  0  0
    1.4916    3.2138   -2.7710 H   0  0  0  0  0  0  0  0  0  0  0  0
    3.6941    3.5126   -4.2949 H   0  0  0  0  0  0  0  0  0  0  0  0
    5.2014    3.0355   -6.3228 H   0  0  0  0  0  0  0  0  0  0  0  0
    7.2623    1.6164   -6.3640 H   0  0  0  0  0  0  0  0  0  0  0  0
    7.9221    2.4864   -4.9733 H   0  0  0  0  0  0  0  0  0  0  0  0
    7.6466    3.5135   -7.7908 H   0  0  0  0  0  0  0  0  0  0  0  0
    8.9517    3.7675   -6.6233 H   0  0  0  0  0  0  0  0  0  0  0  0
    6.6097    5.4241   -7.0827 H   0  0  0  0  0  0  0  0  0  0  0  0
    7.8955    5.7016   -5.8830 H   0  0  0  0  0  0  0  0  0  0  0  0
    7.1406    6.5039   -3.7952 H   0  0  0  0  0  0  0  0  0  0  0  0
    5.7887    8.1150   -2.5214 H   0  0  0  0  0  0  0  0  0  0  0  0
    2.2885    6.1493   -4.0599 H   0  0  0  0  0  0  0  0  0  0  0  0
  1  2  1  0  0  0  0
  1 28  1  0  0  0  0
  1 29  1  0  0  0  0
  1 30  1  0  0  0  0
  2  3  1  0  0  0  0
  2  4  1  0  0  0  0
  2  5  1  0  0  0  0
  3 31  1  0  0  0  0
  3 32  1  0  0  0  0
  3 33  1  0  0  0  0
  4 34  1  0  0  0  0
  4 35  1  0  0  0  0
  4 36  1  0  0  0  0
  5 27  1  0  0  0  0
  5  6  2  0  0  0  0
  6  7  1  0  0  0  0
  6 37  1  0  0  0  0
  7  8  1  0  0  0  0
  7 26  2  0  0  0  0
  8  9  1  0  0  0  0
  8 38  1  0  0  0  0
  9 10  2  0  0  0  0
 11  9  1  0  0  0  0
 11 12  1  0  0  0  0
 11 15  1  0  0  0  0
 11 39  1  6  0  0  0
 12 13  1  0  0  0  0
 12 40  1  0  0  0  0
 12 41  1  0  0  0  0
 13 14  1  0  0  0  0
 13 42  1  0  0  0  0
 13 43  1  0  0  0  0
 14 15  1  0  0  0  0
 14 44  1  0  0  0  0
 14 45  1  0  0  0  0
 15 16  1  0  0  0  0
 16 25  2  0  0  0  0
 16 17  1  0  0  0  0
 17 18  2  0  0  0  0
 17 46  1  0  0  0  0
 18 19  1  0  0  0  0
 18 47  1  0  0  0  0
 19 20  1  0  0  0  0
 19 24  2  0  0  0  0
 20 21  1  0  0  0  0
 20 22  1  0  0  0  0
 20 23  1  0  0  0  0
 24 25  1  0  0  0  0
 24 48  1  0  0  0  0
 26 27  1  0  0  0  0
M  END
$$$$
CHEMBL3909299_6KPF
 OpenBabel12022418113D

 59 62  0  0  1  0  0  0  0  0999 V2000
    9.4705    3.1211   -2.5586 C   0  0  0  0  0  0  0  0  0  0  0  0
    8.0098    2.9472   -2.4826 C   0  0  0  0  0  0  0  0  0  0  0  0
    7.2300    2.9093   -1.4282 N   0  0  0  0  0  0  0  0  0  0  0  0
    5.9868    2.6788   -1.9842 C   0  0  0  0  0  0  0  0  0  0  0  0
    4.7370    2.4784   -1.1243 C   0  0  2  0  0  0  0  0  0  0  0  0
    5.1650    1.9296    0.2569 C   0  0  0  0  0  0  0  0  0  0  0  0
    3.7244    1.5018   -1.8032 C   0  0  0  0  0  0  0  0  0  0  0  0
    4.2361    0.1034   -2.0688 C   0  0  0  0  0  0  0  0  0  0  0  0
    3.8255   -1.0650   -1.2074 C   0  0  0  0  0  0  0  0  0  0  0  0
    3.2611   -0.9229   -2.5918 C   0  0  0  0  0  0  0  0  0  0  0  0
    4.1147    3.8117   -0.9541 N   0  0  0  0  0  0  0  0  0  0  0  0
    3.0165    4.0594   -0.1570 C   0  0  0  0  0  0  0  0  0  0  0  0
    2.4086    3.2039    0.4756 O   0  0  0  0  0  0  0  0  0  0  0  0
    2.5617    5.4849   -0.0957 C   0  0  0  0  0  0  0  0  0  0  0  0
    1.5460    5.8453    0.7838 C   0  0  0  0  0  0  0  0  0  0  0  0
    1.1733    7.1888    0.8550 C   0  0  0  0  0  0  0  0  0  0  0  0
    1.7304    8.1304   -0.0307 C   0  0  0  0  0  0  0  0  0  0  0  0
    2.7676    7.6408   -0.8408 C   0  0  0  0  0  0  0  0  0  0  0  0
    3.2109    6.3637   -0.8951 N   0  0  0  0  0  0  0  0  0  0  0  0
    1.2818    9.6517   -0.1387 C   0  0  0  0  0  0  0  0  0  0  0  0
    1.2181   10.2579   -1.5800 C   0  0  0  0  0  0  0  0  0  0  0  0
    0.0711   11.1509   -1.0836 C   0  0  0  0  0  0  0  0  0  0  0  0
   -0.2225   10.0538   -0.0386 C   0  0  0  0  0  0  0  0  0  0  0  0
    0.2708    7.6919    1.7573 O   0  0  0  0  0  0  0  0  0  0  0  0
    0.0347    6.9935    3.0003 C   0  0  1  0  0  0  0  0  0  0  0  0
    1.3033    6.9447    3.8592 C   0  0  0  0  0  0  0  0  0  0  0  0
   -1.0969    7.6931    3.7864 C   0  0  0  0  0  0  0  0  0  0  0  0
   -1.6733    8.6974    3.0877 F   0  0  0  0  0  0  0  0  0  0  0  0
   -2.0784    6.8103    4.0942 F   0  0  0  0  0  0  0  0  0  0  0  0
   -0.6659    8.2236    4.9565 F   0  0  0  0  0  0  0  0  0  0  0  0
    5.9854    2.6467   -3.3251 N   0  0  0  0  0  0  0  0  0  0  0  0
    7.3334    2.7988   -3.6580 O   0  0  0  0  0  0  0  0  0  0  0  0
    9.8443    2.9743   -3.5764 H   0  0  0  0  0  0  0  0  0  0  0  0
    9.9702    2.3980   -1.9064 H   0  0  0  0  0  0  0  0  0  0  0  0
    9.7513    4.1266   -2.2309 H   0  0  0  0  0  0  0  0  0  0  0  0
    4.3099    1.7346    0.9101 H   0  0  0  0  0  0  0  0  0  0  0  0
    5.8096    2.6468    0.7809 H   0  0  0  0  0  0  0  0  0  0  0  0
    5.7269    0.9941    0.1629 H   0  0  0  0  0  0  0  0  0  0  0  0
    3.3996    1.9277   -2.7626 H   0  0  0  0  0  0  0  0  0  0  0  0
    2.8148    1.4287   -1.1960 H   0  0  0  0  0  0  0  0  0  0  0  0
    5.2243    0.0849   -2.5145 H   0  0  0  0  0  0  0  0  0  0  0  0
    3.1573   -0.8942   -0.3708 H   0  0  0  0  0  0  0  0  0  0  0  0
    4.5480   -1.8565   -1.0408 H   0  0  0  0  0  0  0  0  0  0  0  0
    3.6089   -1.6015   -3.3626 H   0  0  0  0  0  0  0  0  0  0  0  0
    2.2160   -0.6485   -2.6862 H   0  0  0  0  0  0  0  0  0  0  0  0
    4.5051    4.6143   -1.4428 H   0  0  0  0  0  0  0  0  0  0  0  0
    1.0863    5.0795    1.3954 H   0  0  0  0  0  0  0  0  0  0  0  0
    3.2951    8.3198   -1.5075 H   0  0  0  0  0  0  0  0  0  0  0  0
    1.8974   10.2732    0.5304 H   0  0  0  0  0  0  0  0  0  0  0  0
    0.9079    9.5459   -2.3558 H   0  0  0  0  0  0  0  0  0  0  0  0
    2.1182   10.7772   -1.9177 H   0  0  0  0  0  0  0  0  0  0  0  0
   -0.7219   11.3495   -1.8088 H   0  0  0  0  0  0  0  0  0  0  0  0
    0.4107   12.1003   -0.6546 H   0  0  0  0  0  0  0  0  0  0  0  0
   -0.5562   10.4236    0.9349 H   0  0  0  0  0  0  0  0  0  0  0  0
   -0.9285    9.2927   -0.3913 H   0  0  0  0  0  0  0  0  0  0  0  0
   -0.3130    5.9770    2.7829 H   0  0  0  0  0  0  0  0  0  0  0  0
    1.6807    7.9568    4.0443 H   0  0  0  0  0  0  0  0  0  0  0  0
    2.1132    6.3984    3.3684 H   0  0  0  0  0  0  0  0  0  0  0  0
    1.1122    6.4568    4.8202 H   0  0  0  0  0  0  0  0  0  0  0  0
  1  2  1  0  0  0  0
  1 33  1  0  0  0  0
  1 34  1  0  0  0  0
  1 35  1  0  0  0  0
  2 32  1  0  0  0  0
  2  3  2  0  0  0  0
  3  4  1  0  0  0  0
  4 31  2  0  0  0  0
  5  7  1  6  0  0  0
  5 11  1  0  0  0  0
  5  6  1  0  0  0  0
  5  4  1  0  0  0  0
  6 36  1  0  0  0  0
  6 37  1  0  0  0  0
  6 38  1  0  0  0  0
  7  8  1  0  0  0  0
  7 39  1  0  0  0  0
  7 40  1  0  0  0  0
  8 10  1  0  0  0  0
  8  9  1  0  0  0  0
  8 41  1  0  0  0  0
  9 10  1  0  0  0  0
  9 42  1  0  0  0  0
  9 43  1  0  0  0  0
 10 44  1  0  0  0  0
 10 45  1  0  0  0  0
 11 12  1  0  0  0  0
 11 46  1  0  0  0  0
 12 13  2  0  0  0  0
 12 14  1  0  0  0  0
 14 19  2  0  0  0  0
 14 15  1  0  0  0  0
 15 16  2  0  0  0  0
 15 47  1  0  0  0  0
 16 17  1  0  0  0  0
 16 24  1  0  0  0  0
 17 18  2  0  0  0  0
 17 20  1  0  0  0  0
 18 19  1  0  0  0  0
 18 48  1  0  0  0  0
 20 23  1  0  0  0  0
 20 21  1  0  0  0  0
 20 49  1  0  0  0  0
 21 22  1  0  0  0  0
 21 50  1  0  0  0  0
 21 51  1  0  0  0  0
 22 23  1  0  0  0  0
 22 52  1  0  0  0  0
 22 53  1  0  0  0  0
 23 54  1  0  0  0  0
 23 55  1  0  0  0  0
 24 25  1  0  0  0  0
 25 26  1  0  0  0  0
 25 27  1  0  0  0  0
 25 56  1  6  0  0  0
 26 57  1  0  0  0  0
 26 58  1  0  0  0  0
 26 59  1  0  0  0  0
 27 28  1  0  0  0  0
 27 29  1  0  0  0  0
 27 30  1  0  0  0  0
 31 32  1  0  0  0  0
M  END
$$$$
CHEMBL3400948_8GUQ
 OpenBabel12022418113D

 46 48  0  0  0  0  0  0  0  0999 V2000
    1.2203   -0.7288   -0.3349 N   0  0  0  0  0  0  0  0  0  0  0  0
    0.1883   -1.5672    0.3022 C   0  0  0  0  0  0  0  0  0  0  0  0
   -1.2370   -1.1520   -0.0783 C   0  0  0  0  0  0  0  0  0  0  0  0
   -1.5658    0.2259    0.3173 N   0  0  0  0  0  0  0  0  0  0  0  0
   -0.8836    1.2731   -0.4463 C   0  0  0  0  0  0  0  0  0  0  0  0
    0.4899    1.6581    0.0990 C   0  0  0  0  0  0  0  0  0  0  0  0
    1.5015    0.5312    0.3407 C   0  0  0  0  0  0  0  0  0  0  0  0
   -2.3402    0.4109    1.4592 C   0  0  0  0  0  0  0  0  0  0  0  0
   -2.6503   -0.5306    2.1879 O   0  0  0  0  0  0  0  0  0  0  0  0
   -2.7720    1.6990    1.6737 N   0  0  0  0  0  0  0  0  0  0  0  0
   -3.6237    1.9991    2.7222 C   0  0  0  0  0  0  0  0  0  0  0  0
   -4.6468    2.8407    2.5409 N   0  0  0  0  0  0  0  0  0  0  0  0
   -5.3298    2.8754    3.7434 O   0  0  0  0  0  0  0  0  0  0  0  0
   -4.6683    2.1233    4.6617 C   0  0  0  0  0  0  0  0  0  0  0  0
   -3.5711    1.5501    4.0611 C   0  0  0  0  0  0  0  0  0  0  0  0
   -5.2178    2.1085    6.0298 C   0  0  0  0  0  0  0  0  0  0  0  0
   -6.4305    2.7109    6.1263 F   0  0  0  0  0  0  0  0  0  0  0  0
   -5.3710    0.8449    6.5044 F   0  0  0  0  0  0  0  0  0  0  0  0
   -4.3948    2.7499    6.9010 F   0  0  0  0  0  0  0  0  0  0  0  0
    1.9309   -1.0510   -1.5033 C   0  0  0  0  0  0  0  0  0  0  0  0
    2.8263   -0.3271   -1.9420 O   0  0  0  0  0  0  0  0  0  0  0  0
    1.6391   -2.3278   -2.2603 C   0  0  0  0  0  0  0  0  0  0  0  0
    0.3754   -2.8074   -2.2438 N   0  0  0  0  0  0  0  0  0  0  0  0
    0.1351   -3.9620   -2.8981 C   0  0  0  0  0  0  0  0  0  0  0  0
    1.0999   -4.6719   -3.6028 C   0  0  0  0  0  0  0  0  0  0  0  0
    2.3897   -4.1379   -3.6391 C   0  0  0  0  0  0  0  0  0  0  0  0
    2.6709   -2.9493   -2.9609 C   0  0  0  0  0  0  0  0  0  0  0  0
    0.7442   -5.9560   -4.2943 C   0  0  0  0  0  0  0  0  0  0  0  0
   -0.5504   -6.3322   -4.1086 F   0  0  0  0  0  0  0  0  0  0  0  0
    0.9264   -5.8878   -5.6404 F   0  0  0  0  0  0  0  0  0  0  0  0
    1.5037   -7.0009   -3.8647 F   0  0  0  0  0  0  0  0  0  0  0  0
    0.3195   -1.4908    1.3884 H   0  0  0  0  0  0  0  0  0  0  0  0
    0.3565   -2.6194    0.0694 H   0  0  0  0  0  0  0  0  0  0  0  0
   -1.9408   -1.8524    0.3849 H   0  0  0  0  0  0  0  0  0  0  0  0
   -1.3986   -1.2213   -1.1592 H   0  0  0  0  0  0  0  0  0  0  0  0
   -1.5038    2.1737   -0.4753 H   0  0  0  0  0  0  0  0  0  0  0  0
   -0.7961    0.9398   -1.4877 H   0  0  0  0  0  0  0  0  0  0  0  0
    0.3690    2.2117    1.0389 H   0  0  0  0  0  0  0  0  0  0  0  0
    0.9349    2.3721   -0.6056 H   0  0  0  0  0  0  0  0  0  0  0  0
    2.4987    0.8927    0.0639 H   0  0  0  0  0  0  0  0  0  0  0  0
    1.5629    0.3218    1.4171 H   0  0  0  0  0  0  0  0  0  0  0  0
   -2.9907    2.2328    0.8477 H   0  0  0  0  0  0  0  0  0  0  0  0
   -2.8318    0.9133    4.5249 H   0  0  0  0  0  0  0  0  0  0  0  0
   -0.8890   -4.3159   -2.8314 H   0  0  0  0  0  0  0  0  0  0  0  0
    3.1842   -4.6476   -4.1845 H   0  0  0  0  0  0  0  0  0  0  0  0
    3.6711   -2.5256   -2.9761 H   0  0  0  0  0  0  0  0  0  0  0  0
  1  7  1  0  0  0  0
  1  2  1  0  0  0  0
  1 20  1  0  0  0  0
  2  3  1  0  0  0  0
  2 32  1  0  0  0  0
  2 33  1  0  0  0  0
  3  4  1  0  0  0  0
  3 34  1  0  0  0  0
  3 35  1  0  0  0  0
  4  5  1  0  0  0  0
  4  8  1  0  0  0  0
  5  6  1  0  0  0  0
  5 36  1  0  0  0  0
  5 37  1  0  0  0  0
  6  7  1  0  0  0  0
  6 38  1  0  0  0  0
  6 39  1  0  0  0  0
  7 40  1  0  0  0  0
  7 41  1  0  0  0  0
  8  9  2  0  0  0  0
  8 10  1  0  0  0  0
 10 11  1  0  0  0  0
 10 42  1  0  0  0  0
 11 15  1  0  0  0  0
 11 12  2  0  0  0  0
 12 13  1  0  0  0  0
 13 14  1  0  0  0  0
 14 15  2  0  0  0  0
 14 16  1  0  0  0  0
 15 43  1  0  0  0  0
 16 17  1  0  0  0  0
 16 18  1  0  0  0  0
 16 19  1  0  0  0  0
 20 21  2  0  0  0  0
 20 22  1  0  0  0  0
 22 27  2  0  0  0  0
 22 23  1  0  0  0  0
 23 24  2  0  0  0  0
 24 25  1  0  0  0  0
 24 44  1  0  0  0  0
 25 26  2  0  0  0  0
 25 28  1  0  0  0  0
 26 27  1  0  0  0  0
 26 45  1  0  0  0  0
 27 46  1  0  0  0  0
 28 29  1  0  0  0  0
 28 30  1  0  0  0  0
 28 31  1  0  0  0  0
M  END
$$$$
CHEMBL4753891_8GUT
 OpenBabel12022418113D

 51 53  0  0  0  0  0  0  0  0999 V2000
   -0.7033    1.1399   -0.0618 C   0  0  0  0  0  0  0  0  0  0  0  0
    0.6490    1.1712   -0.0414 C   0  0  0  0  0  0  0  0  0  0  0  0
    1.4424    2.4598   -0.0824 C   0  0  0  0  0  0  0  0  0  0  0  0
    1.3644   -0.0408    0.0690 N   0  0  0  0  0  0  0  0  0  0  0  0
    2.8331   -0.0789    0.0511 C   0  0  0  0  0  0  0  0  0  0  0  0
    3.4662   -0.2481   -1.3216 C   0  0  0  0  0  0  0  0  0  0  0  0
    2.9345   -1.1116   -2.2955 C   0  0  0  0  0  0  0  0  0  0  0  0
    3.6466   -1.3951   -3.4649 C   0  0  0  0  0  0  0  0  0  0  0  0
    4.8919   -0.8177   -3.6684 C   0  0  0  0  0  0  0  0  0  0  0  0
    5.4258    0.0653   -2.7400 C   0  0  0  0  0  0  0  0  0  0  0  0
    4.7154    0.3508   -1.5713 C   0  0  0  0  0  0  0  0  0  0  0  0
    5.5974   -1.1332   -4.7624 F   0  0  0  0  0  0  0  0  0  0  0  0
    0.7202   -1.2750    0.2615 C   0  0  0  0  0  0  0  0  0  0  0  0
    1.3223   -2.3198    0.5149 O   0  0  0  0  0  0  0  0  0  0  0  0
   -0.7547   -1.3010    0.0956 C   0  0  0  0  0  0  0  0  0  0  0  0
   -1.3962   -0.1341   -0.0561 C   0  0  0  0  0  0  0  0  0  0  0  0
   -1.5730   -2.5556    0.0558 C   0  0  0  0  0  0  0  0  0  0  0  0
   -2.7264   -2.5448   -0.3649 O   0  0  0  0  0  0  0  0  0  0  0  0
   -0.9567   -3.6935    0.5213 N   0  0  0  0  0  0  0  0  0  0  0  0
   -1.6161   -5.0002    0.5298 C   0  0  0  0  0  0  0  0  0  0  0  0
   -1.4297   -5.7270   -0.8151 C   0  0  0  0  0  0  0  0  0  0  0  0
   -0.4577   -6.9098   -0.8365 C   0  0  0  0  0  0  0  0  0  0  0  0
   -1.0571   -8.2017   -0.2777 C   0  0  0  0  0  0  0  0  0  0  0  0
   -1.1547   -8.2776    1.2419 C   0  0  0  0  0  0  0  0  0  0  0  0
   -1.9034   -7.1285    1.9076 C   0  0  0  0  0  0  0  0  0  0  0  0
   -1.1899   -5.7845    1.7750 C   0  0  0  0  0  0  0  0  0  0  0  0
   -1.8166    2.6486   -0.1093 Br  0  0  0  0  0  0  0  0  0  0  0  0
    0.8295    3.3617   -0.1444 H   0  0  0  0  0  0  0  0  0  0  0  0
    2.1064    2.4769   -0.9525 H   0  0  0  0  0  0  0  0  0  0  0  0
    2.0409    2.5705    0.8284 H   0  0  0  0  0  0  0  0  0  0  0  0
    3.1834   -0.9185    0.6635 H   0  0  0  0  0  0  0  0  0  0  0  0
    3.2303    0.8118    0.5467 H   0  0  0  0  0  0  0  0  0  0  0  0
    1.9799   -1.6083   -2.1442 H   0  0  0  0  0  0  0  0  0  0  0  0
    3.2498   -2.0878   -4.2011 H   0  0  0  0  0  0  0  0  0  0  0  0
    6.4034    0.5021   -2.9175 H   0  0  0  0  0  0  0  0  0  0  0  0
    5.1636    1.0181   -0.8379 H   0  0  0  0  0  0  0  0  0  0  0  0
   -2.4736   -0.1166   -0.1990 H   0  0  0  0  0  0  0  0  0  0  0  0
    0.0360   -3.6420    0.7532 H   0  0  0  0  0  0  0  0  0  0  0  0
   -2.6900   -4.7939    0.6289 H   0  0  0  0  0  0  0  0  0  0  0  0
   -1.1084   -5.0080   -1.5800 H   0  0  0  0  0  0  0  0  0  0  0  0
   -2.4121   -6.0851   -1.1509 H   0  0  0  0  0  0  0  0  0  0  0  0
    0.4870   -6.6630   -0.3400 H   0  0  0  0  0  0  0  0  0  0  0  0
   -0.2067   -7.1048   -1.8875 H   0  0  0  0  0  0  0  0  0  0  0  0
   -0.4322   -9.0413   -0.6095 H   0  0  0  0  0  0  0  0  0  0  0  0
   -2.0476   -8.3726   -0.7172 H   0  0  0  0  0  0  0  0  0  0  0  0
   -0.1465   -8.3515    1.6678 H   0  0  0  0  0  0  0  0  0  0  0  0
   -1.6629   -9.2152    1.5025 H   0  0  0  0  0  0  0  0  0  0  0  0
   -1.9859   -7.3657    2.9758 H   0  0  0  0  0  0  0  0  0  0  0  0
   -2.9291   -7.0668    1.5249 H   0  0  0  0  0  0  0  0  0  0  0  0
   -1.4362   -5.1779    2.6568 H   0  0  0  0  0  0  0  0  0  0  0  0
   -0.1006   -5.9142    1.8085 H   0  0  0  0  0  0  0  0  0  0  0  0
  1 16  1  0  0  0  0
  1  2  2  0  0  0  0
  1 27  1  0  0  0  0
  2  3  1  0  0  0  0
  2  4  1  0  0  0  0
  3 28  1  0  0  0  0
  3 29  1  0  0  0  0
  3 30  1  0  0  0  0
  4  5  1  0  0  0  0
  4 13  1  0  0  0  0
  5  6  1  0  0  0  0
  5 31  1  0  0  0  0
  5 32  1  0  0  0  0
  6 11  2  0  0  0  0
  6  7  1  0  0  0  0
  7  8  2  0  0  0  0
  7 33  1  0  0  0  0
  8  9  1  0  0  0  0
  8 34  1  0  0  0  0
  9 10  2  0  0  0  0
  9 12  1  0  0  0  0
 10 11  1  0  0  0  0
 10 35  1  0  0  0  0
 11 36  1  0  0  0  0
 13 14  2  0  0  0  0
 13 15  1  0  0  0  0
 15 16  2  0  0  0  0
 15 17  1  0  0  0  0
 16 37  1  0  0  0  0
 17 18  2  0  0  0  0
 17 19  1  0  0  0  0
 19 20  1  0  0  0  0
 19 38  1  0  0  0  0
 20 26  1  0  0  0  0
 20 21  1  0  0  0  0
 20 39  1  0  0  0  0
 21 22  1  0  0  0  0
 21 40  1  0  0  0  0
 21 41  1  0  0  0  0
 22 23  1  0  0  0  0
 22 42  1  0  0  0  0
 22 43  1  0  0  0  0
 23 24  1  0  0  0  0
 23 44  1  0  0  0  0
 23 45  1  0  0  0  0
 24 25  1  0  0  0  0
 24 46  1  0  0  0  0
 24 47  1  0  0  0  0
 25 26  1  0  0  0  0
 25 48  1  0  0  0  0
 25 49  1  0  0  0  0
 26 50  1  0  0  0  0
 26 51  1  0  0  0  0
M  END
$$$$
CHEMBL3421695_5ZTY
 OpenBabel12022418113D

 54 56  0  0  0  0  0  0  0  0999 V2000
   -0.4132   -1.9508    0.0595 N   0  0  0  0  0  0  0  0  0  0  0  0
    0.9751   -1.8925   -0.0258 C   0  0  0  0  0  0  0  0  0  0  0  0
    1.6806   -0.7699   -0.0145 C   0  0  0  0  0  0  0  0  0  0  0  0
    1.0069    0.5132    0.0316 C   0  0  0  0  0  0  0  0  0  0  0  0
    1.8658    1.5033    0.0413 N   0  0  0  0  0  0  0  0  0  0  0  0
    3.1364    0.8873    0.0179 N   0  0  0  0  0  0  0  0  0  0  0  0
    3.1081   -0.5076   -0.0362 C   0  0  0  0  0  0  0  0  0  0  0  0
    4.0097   -1.3252   -0.0811 O   0  0  0  0  0  0  0  0  0  0  0  0
    4.3639    1.6476    0.0126 C   0  0  0  0  0  0  0  0  0  0  0  0
    4.5169    2.5720    1.2152 C   0  0  0  0  0  0  0  0  0  0  0  0
    4.5176    1.8391    2.5616 C   0  0  0  0  0  0  0  0  0  0  0  0
    4.6908    2.8446    3.7021 C   0  0  0  0  0  0  0  0  0  0  0  0
    4.6674    2.1782    5.0757 C   0  0  0  0  0  0  0  0  0  0  0  0
    4.8308    3.2109    6.1814 C   0  0  0  0  0  0  0  0  0  0  0  0
   -0.4579    0.5234    0.0367 C   0  0  0  0  0  0  0  0  0  0  0  0
   -1.1510   -0.7278    0.0413 C   0  0  0  0  0  0  0  0  0  0  0  0
   -2.5515   -0.6561    0.0251 C   0  0  0  0  0  0  0  0  0  0  0  0
   -3.2262    0.5751    0.0087 C   0  0  0  0  0  0  0  0  0  0  0  0
   -2.5199    1.7749    0.0066 C   0  0  0  0  0  0  0  0  0  0  0  0
   -1.1287    1.7532    0.0194 C   0  0  0  0  0  0  0  0  0  0  0  0
   -1.0882   -3.2632    0.0230 C   0  0  0  0  0  0  0  0  0  0  0  0
   -0.5729   -4.2291    1.0983 C   0  0  0  0  0  0  0  0  0  0  0  0
   -0.8708   -3.8040    2.5398 C   0  0  0  0  0  0  0  0  0  0  0  0
   -0.2762   -4.8364    3.5040 C   0  0  0  0  0  0  0  0  0  0  0  0
   -0.5549   -4.5189    4.9622 C   0  0  0  0  0  0  0  0  0  0  0  0
    1.4926   -2.8444   -0.0930 H   0  0  0  0  0  0  0  0  0  0  0  0
    4.3808    2.2326   -0.9131 H   0  0  0  0  0  0  0  0  0  0  0  0
    5.2120    0.9535   -0.0285 H   0  0  0  0  0  0  0  0  0  0  0  0
    3.7141    3.3183    1.2075 H   0  0  0  0  0  0  0  0  0  0  0  0
    5.4620    3.1185    1.1068 H   0  0  0  0  0  0  0  0  0  0  0  0
    5.3288    1.1013    2.5866 H   0  0  0  0  0  0  0  0  0  0  0  0
    3.5770    1.2922    2.6968 H   0  0  0  0  0  0  0  0  0  0  0  0
    3.8897    3.5920    3.6491 H   0  0  0  0  0  0  0  0  0  0  0  0
    5.6393    3.3803    3.5728 H   0  0  0  0  0  0  0  0  0  0  0  0
    5.4733    1.4390    5.1485 H   0  0  0  0  0  0  0  0  0  0  0  0
    3.7205    1.6448    5.2177 H   0  0  0  0  0  0  0  0  0  0  0  0
    5.7824    3.7435    6.0825 H   0  0  0  0  0  0  0  0  0  0  0  0
    4.8121    2.7271    7.1626 H   0  0  0  0  0  0  0  0  0  0  0  0
    4.0222    3.9486    6.1507 H   0  0  0  0  0  0  0  0  0  0  0  0
   -3.1781   -1.5406    0.0207 H   0  0  0  0  0  0  0  0  0  0  0  0
   -4.3142    0.5911   -0.0045 H   0  0  0  0  0  0  0  0  0  0  0  0
   -3.0519    2.7225   -0.0081 H   0  0  0  0  0  0  0  0  0  0  0  0
   -0.5717    2.6870    0.0119 H   0  0  0  0  0  0  0  0  0  0  0  0
   -0.8914   -3.7102   -0.9629 H   0  0  0  0  0  0  0  0  0  0  0  0
   -2.1753   -3.2140    0.1117 H   0  0  0  0  0  0  0  0  0  0  0  0
    0.5060   -4.3863    0.9907 H   0  0  0  0  0  0  0  0  0  0  0  0
   -1.0334   -5.2085    0.9189 H   0  0  0  0  0  0  0  0  0  0  0  0
   -1.9545   -3.7292    2.6890 H   0  0  0  0  0  0  0  0  0  0  0  0
   -0.4429   -2.8164    2.7488 H   0  0  0  0  0  0  0  0  0  0  0  0
    0.8091   -4.8918    3.3560 H   0  0  0  0  0  0  0  0  0  0  0  0
   -0.6818   -5.8288    3.2743 H   0  0  0  0  0  0  0  0  0  0  0  0
   -0.1220   -3.5554    5.2474 H   0  0  0  0  0  0  0  0  0  0  0  0
   -0.1115   -5.2908    5.6007 H   0  0  0  0  0  0  0  0  0  0  0  0
   -1.6302   -4.4924    5.1621 H   0  0  0  0  0  0  0  0  0  0  0  0
  1 16  1  0  0  0  0
  1  2  1  0  0  0  0
  1 21  1  0  0  0  0
  2  3  2  0  0  0  0
  2 26  1  0  0  0  0
  3  7  1  0  0  0  0
  3  4  1  0  0  0  0
  4  5  2  0  0  0  0
  4 15  1  0  0  0  0
  5  6  1  0  0  0  0
  6  7  1  0  0  0  0
  6  9  1  0  0  0  0
  7  8  2  0  0  0  0
  9 10  1  0  0  0  0
  9 27  1  0  0  0  0
  9 28  1  0  0  0  0
 10 11  1  0  0  0  0
 10 29  1  0  0  0  0
 10 30  1  0  0  0  0
 11 12  1  0  0  0  0
 11 31  1  0  0  0  0
 11 32  1  0  0  0  0
 12 13  1  0  0  0  0
 12 33  1  0  0  0  0
 12 34  1  0  0  0  0
 13 14  1  0  0  0  0
 13 35  1  0  0  0  0
 13 36  1  0  0  0  0
 14 37  1  0  0  0  0
 14 38  1  0  0  0  0
 14 39  1  0  0  0  0
 15 20  2  0  0  0  0
 15 16  1  0  0  0  0
 16 17  2  0  0  0  0
 17 18  1  0  0  0  0
 17 40  1  0  0  0  0
 18 19  2  0  0  0  0
 18 41  1  0  0  0  0
 19 20  1  0  0  0  0
 19 42  1  0  0  0  0
 20 43  1  0  0  0  0
 21 22  1  0  0  0  0
 21 44  1  0  0  0  0
 21 45  1  0  0  0  0
 22 23  1  0  0  0  0
 22 46  1  0  0  0  0
 22 47  1  0  0  0  0
 23 24  1  0  0  0  0
 23 48  1  0  0  0  0
 23 49  1  0  0  0  0
 24 25  1  0  0  0  0
 24 50  1  0  0  0  0
 24 51  1  0  0  0  0
 25 52  1  0  0  0  0
 25 53  1  0  0  0  0
 25 54  1  0  0  0  0
M  END
$$$$
CHEMBL3234706_8GUQ
 OpenBabel12022418113D

 48 50  0  0  1  0  0  0  0  0999 V2000
    4.6710    0.5151    0.2826 C   0  0  0  0  0  0  0  0  0  0  0  0
    5.0171   -0.6813   -0.6197 C   0  0  0  0  0  0  0  0  0  0  0  0
    4.9670   -0.2231   -2.0915 C   0  0  0  0  0  0  0  0  0  0  0  0
    6.4420   -1.1543   -0.2797 C   0  0  0  0  0  0  0  0  0  0  0  0
    4.0335   -1.7985   -0.4070 C   0  0  0  0  0  0  0  0  0  0  0  0
    4.1268   -3.1580   -0.5456 C   0  0  0  0  0  0  0  0  0  0  0  0
    2.8285   -3.6515   -0.2697 C   0  0  0  0  0  0  0  0  0  0  0  0
    2.4676   -4.9639   -0.3154 N   0  0  0  0  0  0  0  0  0  0  0  0
    1.1966   -5.4149   -0.0442 C   0  0  0  0  0  0  0  0  0  0  0  0
    0.2466   -4.6940    0.2402 O   0  0  0  0  0  0  0  0  0  0  0  0
    0.9353   -6.9127   -0.0945 C   0  0  2  0  0  0  0  0  0  0  0  0
    0.4197   -7.3919    1.2727 C   0  0  0  0  0  0  0  0  0  0  0  0
    0.2978   -8.8971    1.0567 C   0  0  0  0  0  0  0  0  0  0  0  0
    1.3543   -9.2094   -0.0127 C   0  0  0  0  0  0  0  0  0  0  0  0
    2.0023   -7.9006   -0.2683 N   0  0  0  0  0  0  0  0  0  0  0  0
    2.9130   -7.8891   -1.3071 C   0  0  0  0  0  0  0  0  0  0  0  0
    3.8553   -8.9002   -1.3380 C   0  0  0  0  0  0  0  0  0  0  0  0
    4.8731   -8.9059   -2.2647 C   0  0  0  0  0  0  0  0  0  0  0  0
    4.9067   -7.9169   -3.2391 C   0  0  0  0  0  0  0  0  0  0  0  0
    5.9572   -7.9375   -4.3038 C   0  0  0  0  0  0  0  0  0  0  0  0
    6.7982   -9.0068   -4.1929 F   0  0  0  0  0  0  0  0  0  0  0  0
    5.4358   -8.0061   -5.5568 F   0  0  0  0  0  0  0  0  0  0  0  0
    6.7577   -6.8386   -4.2840 F   0  0  0  0  0  0  0  0  0  0  0  0
    3.9108   -6.9545   -3.1829 C   0  0  0  0  0  0  0  0  0  0  0  0
    2.9576   -6.8876   -2.2103 N   0  0  0  0  0  0  0  0  0  0  0  0
    2.0353   -2.6388    0.0808 N   0  0  0  0  0  0  0  0  0  0  0  0
    2.7647   -1.4809   -0.0280 O   0  0  0  0  0  0  0  0  0  0  0  0
    5.3831    1.3357    0.1531 H   0  0  0  0  0  0  0  0  0  0  0  0
    4.6811    0.2220    1.3379 H   0  0  0  0  0  0  0  0  0  0  0  0
    3.6732    0.9049    0.0560 H   0  0  0  0  0  0  0  0  0  0  0  0
    5.6266    0.6366   -2.2589 H   0  0  0  0  0  0  0  0  0  0  0  0
    3.9522    0.0771   -2.3789 H   0  0  0  0  0  0  0  0  0  0  0  0
    5.2790   -1.0192   -2.7803 H   0  0  0  0  0  0  0  0  0  0  0  0
    7.1649   -0.3350   -0.3655 H   0  0  0  0  0  0  0  0  0  0  0  0
    6.7796   -1.9594   -0.9452 H   0  0  0  0  0  0  0  0  0  0  0  0
    6.4939   -1.5376    0.7470 H   0  0  0  0  0  0  0  0  0  0  0  0
    5.0112   -3.6956   -0.8371 H   0  0  0  0  0  0  0  0  0  0  0  0
    3.1664   -5.6320   -0.6316 H   0  0  0  0  0  0  0  0  0  0  0  0
    0.1685   -7.0830   -0.8651 H   0  0  0  0  0  0  0  0  0  0  0  0
   -0.5137   -6.9209    1.5917 H   0  0  0  0  0  0  0  0  0  0  0  0
    1.1724   -7.1936    2.0527 H   0  0  0  0  0  0  0  0  0  0  0  0
   -0.7032   -9.1461    0.6882 H   0  0  0  0  0  0  0  0  0  0  0  0
    0.4698   -9.4616    1.9788 H   0  0  0  0  0  0  0  0  0  0  0  0
    0.8620   -9.5817   -0.9245 H   0  0  0  0  0  0  0  0  0  0  0  0
    2.0492   -9.9774    0.3415 H   0  0  0  0  0  0  0  0  0  0  0  0
    3.7889   -9.7296   -0.6399 H   0  0  0  0  0  0  0  0  0  0  0  0
    5.6103   -9.7042   -2.2323 H   0  0  0  0  0  0  0  0  0  0  0  0
    3.8368   -6.1822   -3.9525 H   0  0  0  0  0  0  0  0  0  0  0  0
  1  2  1  0  0  0  0
  1 28  1  0  0  0  0
  1 29  1  0  0  0  0
  1 30  1  0  0  0  0
  2  3  1  0  0  0  0
  2  4  1  0  0  0  0
  2  5  1  0  0  0  0
  3 31  1  0  0  0  0
  3 32  1  0  0  0  0
  3 33  1  0  0  0  0
  4 34  1  0  0  0  0
  4 35  1  0  0  0  0
  4 36  1  0  0  0  0
  5 27  1  0  0  0  0
  5  6  2  0  0  0  0
  6  7  1  0  0  0  0
  6 37  1  0  0  0  0
  7  8  1  0  0  0  0
  7 26  2  0  0  0  0
  8  9  1  0  0  0  0
  8 38  1  0  0  0  0
  9 10  2  0  0  0  0
 11  9  1  0  0  0  0
 11 12  1  0  0  0  0
 11 15  1  0  0  0  0
 11 39  1  6  0  0  0
 12 13  1  0  0  0  0
 12 40  1  0  0  0  0
 12 41  1  0  0  0  0
 13 14  1  0  0  0  0
 13 42  1  0  0  0  0
 13 43  1  0  0  0  0
 14 15  1  0  0  0  0
 14 44  1  0  0  0  0
 14 45  1  0  0  0  0
 15 16  1  0  0  0  0
 16 25  2  0  0  0  0
 16 17  1  0  0  0  0
 17 18  2  0  0  0  0
 17 46  1  0  0  0  0
 18 19  1  0  0  0  0
 18 47  1  0  0  0  0
 19 20  1  0  0  0  0
 19 24  2  0  0  0  0
 20 21  1  0  0  0  0
 20 22  1  0  0  0  0
 20 23  1  0  0  0  0
 24 25  1  0  0  0  0
 24 48  1  0  0  0  0
 26 27  1  0  0  0  0
M  END
$$$$
CHEMBL3354962_8GUQ
 OpenBabel12022418113D

 43 46  0  0  1  0  0  0  0  0999 V2000
    4.1347   -1.6214    0.0206 C   0  0  0  0  0  0  0  0  0  0  0  0
    3.0767   -0.6790    0.6261 C   0  0  0  0  0  0  0  0  0  0  0  0
    2.4644    0.1924   -0.4871 C   0  0  0  0  0  0  0  0  0  0  0  0
    1.9541   -1.5550    1.2110 C   0  0  0  0  0  0  0  0  0  0  0  0
    3.6572    0.1625    1.6883 N   0  0  0  0  0  0  0  0  0  0  0  0
    4.6870    1.0621    1.4707 C   0  0  0  0  0  0  0  0  0  0  0  0
    5.2303    1.2023    0.3796 O   0  0  0  0  0  0  0  0  0  0  0  0
    5.1164    1.8666    2.6321 C   0  0  0  0  0  0  0  0  0  0  0  0
    6.1528    2.8120    2.5921 C   0  0  0  0  0  0  0  0  0  0  0  0
    6.2112    3.3577    3.8387 C   0  0  0  0  0  0  0  0  0  0  0  0
    7.1497    4.5437    3.8647 C   0  0  2  0  0  0  0  0  0  0  0  0
    7.6079    4.6464    2.3911 C   0  0  2  0  0  0  0  0  0  0  0  0
    7.0321    3.4636    1.5910 C   0  0  0  0  0  0  0  0  0  0  0  0
    8.6030    4.4046    3.4785 C   0  0  0  0  0  0  0  0  0  0  0  0
    5.2450    2.7806    4.6063 N   0  0  0  0  0  0  0  0  0  0  0  0
    5.0425    2.9934    5.9951 C   0  0  0  0  0  0  0  0  0  0  0  0
    3.8365    2.6627    6.6155 C   0  0  0  0  0  0  0  0  0  0  0  0
    3.6666    2.8592    7.9871 C   0  0  0  0  0  0  0  0  0  0  0  0
    4.7134    3.3723    8.7436 C   0  0  0  0  0  0  0  0  0  0  0  0
    5.9221    3.7073    8.1513 C   0  0  0  0  0  0  0  0  0  0  0  0
    6.0880    3.5255    6.7777 C   0  0  0  0  0  0  0  0  0  0  0  0
    4.5580    3.5443   10.0625 F   0  0  0  0  0  0  0  0  0  0  0  0
    2.7870    2.2055    5.9189 F   0  0  0  0  0  0  0  0  0  0  0  0
    4.5450    1.8473    3.8637 N   0  0  0  0  0  0  0  0  0  0  0  0
    3.6980   -2.2558   -0.7602 H   0  0  0  0  0  0  0  0  0  0  0  0
    4.5612   -2.2791    0.7867 H   0  0  0  0  0  0  0  0  0  0  0  0
    4.9650   -1.0779   -0.4401 H   0  0  0  0  0  0  0  0  0  0  0  0
    1.9968   -0.4256   -1.2624 H   0  0  0  0  0  0  0  0  0  0  0  0
    3.2133    0.8161   -0.9847 H   0  0  0  0  0  0  0  0  0  0  0  0
    1.6978    0.8634   -0.0832 H   0  0  0  0  0  0  0  0  0  0  0  0
    1.5060   -2.1892    0.4356 H   0  0  0  0  0  0  0  0  0  0  0  0
    1.1542   -0.9440    1.6431 H   0  0  0  0  0  0  0  0  0  0  0  0
    2.3322   -2.2143    2.0002 H   0  0  0  0  0  0  0  0  0  0  0  0
    3.2765    0.1487    2.6323 H   0  0  0  0  0  0  0  0  0  0  0  0
    6.9080    5.3935    4.4874 H   0  0  0  0  0  0  0  0  0  0  0  0
    7.5574    5.6019    1.8910 H   0  0  0  0  0  0  0  0  0  0  0  0
    6.4631    3.8251    0.7301 H   0  0  0  0  0  0  0  0  0  0  0  0
    7.8306    2.7938    1.2587 H   0  0  0  0  0  0  0  0  0  0  0  0
    9.0661    3.4279    3.5652 H   0  0  0  0  0  0  0  0  0  0  0  0
    9.2709    5.2197    3.7376 H   0  0  0  0  0  0  0  0  0  0  0  0
    2.7227    2.6173    8.4619 H   0  0  0  0  0  0  0  0  0  0  0  0
    6.7343    4.0950    8.7620 H   0  0  0  0  0  0  0  0  0  0  0  0
    7.0607    3.7591    6.3534 H   0  0  0  0  0  0  0  0  0  0  0  0
  1  2  1  0  0  0  0
  1 25  1  0  0  0  0
  1 26  1  0  0  0  0
  1 27  1  0  0  0  0
  2  3  1  0  0  0  0
  2  4  1  0  0  0  0
  2  5  1  0  0  0  0
  3 28  1  0  0  0  0
  3 29  1  0  0  0  0
  3 30  1  0  0  0  0
  4 31  1  0  0  0  0
  4 32  1  0  0  0  0
  4 33  1  0  0  0  0
  5  6  1  0  0  0  0
  5 34  1  0  0  0  0
  6  7  2  0  0  0  0
  6  8  1  0  0  0  0
  8 24  2  0  0  0  0
  8  9  1  0  0  0  0
  9 13  1  0  0  0  0
  9 10  2  0  0  0  0
 10 11  1  0  0  0  0
 10 15  1  0  0  0  0
 11 12  1  0  0  0  0
 11 14  1  0  0  0  0
 11 35  1  1  0  0  0
 12 13  1  0  0  0  0
 12 14  1  0  0  0  0
 12 36  1  6  0  0  0
 13 37  1  0  0  0  0
 13 38  1  0  0  0  0
 14 39  1  0  0  0  0
 14 40  1  0  0  0  0
 15 24  1  0  0  0  0
 15 16  1  0  0  0  0
 16 21  2  0  0  0  0
 16 17  1  0  0  0  0
 17 18  2  0  0  0  0
 17 23  1  0  0  0  0
 18 19  1  0  0  0  0
 18 41  1  0  0  0  0
 19 20  2  0  0  0  0
 19 22  1  0  0  0  0
 20 21  1  0  0  0  0
 20 42  1  0  0  0  0
 21 43  1  0  0  0  0
M  END
$$$$
CHEMBL2163573_6PT0
 OpenBabel12022418113D

 46 49  0  0  1  0  0  0  0  0999 V2000
    0.8798    0.0300    0.1145 C   0  0  0  0  0  0  0  0  0  0  0  0
    2.4166    0.0064    0.0656 C   0  0  2  0  0  0  0  0  0  0  0  0
    2.8998    1.3219   -0.5852 C   0  0  0  0  0  0  0  0  0  0  0  0
    3.8470    1.2996   -1.6417 O   0  0  0  0  0  0  0  0  0  0  0  0
    4.1117    0.0966   -2.2139 C   0  0  0  0  0  0  0  0  0  0  0  0
    4.9153    0.1654   -3.3606 C   0  0  0  0  0  0  0  0  0  0  0  0
    5.3258   -0.9920   -4.0147 C   0  0  0  0  0  0  0  0  0  0  0  0
    4.9379   -2.2272   -3.5145 C   0  0  0  0  0  0  0  0  0  0  0  0
    4.1275   -2.2914   -2.3722 C   0  0  0  0  0  0  0  0  0  0  0  0
    3.7472   -3.6256   -1.8532 C   0  0  0  0  0  0  0  0  0  0  0  0
    4.0525   -4.6380   -2.4724 O   0  0  0  0  0  0  0  0  0  0  0  0
    3.0111   -3.6935   -0.5673 C   0  0  0  0  0  0  0  0  0  0  0  0
    2.6932   -4.9785    0.1395 C   0  0  0  0  0  0  0  0  0  0  0  0
    2.1074   -4.9838    1.2178 O   0  0  0  0  0  0  0  0  0  0  0  0
    3.1173   -6.1286   -0.4908 N   0  0  0  0  0  0  0  0  0  0  0  0
    2.9292   -7.4676    0.0612 C   0  0  0  0  0  0  0  0  0  0  0  0
    1.5401   -8.0252   -0.2855 C   0  0  0  0  0  0  0  0  0  0  0  0
    1.3532   -9.4555    0.2220 C   0  0  0  0  0  0  0  0  0  0  0  0
    2.4522  -10.3742   -0.3001 C   0  0  0  0  0  0  0  0  0  0  0  0
    3.8288   -9.8482    0.0907 C   0  0  0  0  0  0  0  0  0  0  0  0
    4.0442   -8.4181   -0.4086 C   0  0  0  0  0  0  0  0  0  0  0  0
    2.6437   -2.5144   -0.0318 C   0  0  0  0  0  0  0  0  0  0  0  0
    2.8854   -1.2454   -0.5601 N   0  0  0  0  0  0  0  0  0  0  0  0
    3.6888   -1.1306   -1.7041 C   0  0  0  0  0  0  0  0  0  0  0  0
    0.5164    0.9553    0.5770 H   0  0  0  0  0  0  0  0  0  0  0  0
    0.4800   -0.8034    0.6992 H   0  0  0  0  0  0  0  0  0  0  0  0
    0.4552   -0.0353   -0.8939 H   0  0  0  0  0  0  0  0  0  0  0  0
    2.7707    0.0157    1.1058 H   0  0  0  0  0  0  0  0  0  0  0  0
    3.3487    1.9413    0.2030 H   0  0  0  0  0  0  0  0  0  0  0  0
    2.0505    1.9156   -0.9477 H   0  0  0  0  0  0  0  0  0  0  0  0
    5.2278    1.1358   -3.7404 H   0  0  0  0  0  0  0  0  0  0  0  0
    5.9522   -0.9325   -4.8997 H   0  0  0  0  0  0  0  0  0  0  0  0
    5.2703   -3.1391   -4.0054 H   0  0  0  0  0  0  0  0  0  0  0  0
    3.5157   -6.0362   -1.4276 H   0  0  0  0  0  0  0  0  0  0  0  0
    2.9984   -7.3789    1.1524 H   0  0  0  0  0  0  0  0  0  0  0  0
    1.3916   -8.0105   -1.3731 H   0  0  0  0  0  0  0  0  0  0  0  0
    0.7607   -7.3849    0.1437 H   0  0  0  0  0  0  0  0  0  0  0  0
    0.3748   -9.8361   -0.0920 H   0  0  0  0  0  0  0  0  0  0  0  0
    1.3608   -9.4627    1.3194 H   0  0  0  0  0  0  0  0  0  0  0  0
    2.3820  -10.4463   -1.3927 H   0  0  0  0  0  0  0  0  0  0  0  0
    2.3125  -11.3867    0.0959 H   0  0  0  0  0  0  0  0  0  0  0  0
    4.6044  -10.5070   -0.3163 H   0  0  0  0  0  0  0  0  0  0  0  0
    3.9311   -9.8736    1.1829 H   0  0  0  0  0  0  0  0  0  0  0  0
    5.0161   -8.0554   -0.0517 H   0  0  0  0  0  0  0  0  0  0  0  0
    4.1017   -8.4253   -1.5051 H   0  0  0  0  0  0  0  0  0  0  0  0
    2.1034   -2.4912    0.9128 H   0  0  0  0  0  0  0  0  0  0  0  0
  1 25  1  0  0  0  0
  1 26  1  0  0  0  0
  1 27  1  0  0  0  0
  2  1  1  0  0  0  0
  2  3  1  0  0  0  0
  2 23  1  0  0  0  0
  2 28  1  1  0  0  0
  3  4  1  0  0  0  0
  3 29  1  0  0  0  0
  3 30  1  0  0  0  0
  4  5  1  0  0  0  0
  5 24  2  0  0  0  0
  5  6  1  0  0  0  0
  6  7  2  0  0  0  0
  6 31  1  0  0  0  0
  7  8  1  0  0  0  0
  7 32  1  0  0  0  0
  8  9  2  0  0  0  0
  8 33  1  0  0  0  0
  9 24  1  0  0  0  0
  9 10  1  0  0  0  0
 10 11  2  0  0  0  0
 10 12  1  0  0  0  0
 12 13  1  0  0  0  0
 12 22  2  0  0  0  0
 13 14  2  0  0  0  0
 13 15  1  0  0  0  0
 15 16  1  0  0  0  0
 15 34  1  0  0  0  0
 16 21  1  0  0  0  0
 16 17  1  0  0  0  0
 16 35  1  0  0  0  0
 17 18  1  0  0  0  0
 17 36  1  0  0  0  0
 17 37  1  0  0  0  0
 18 19  1  0  0  0  0
 18 38  1  0  0  0  0
 18 39  1  0  0  0  0
 19 20  1  0  0  0  0
 19 40  1  0  0  0  0
 19 41  1  0  0  0  0
 20 21  1  0  0  0  0
 20 42  1  0  0  0  0
 20 43  1  0  0  0  0
 21 44  1  0  0  0  0
 21 45  1  0  0  0  0
 22 23  1  0  0  0  0
 22 46  1  0  0  0  0
 23 24  1  0  0  0  0
M  END
$$$$
CHEMBL500925_5ZTY
 OpenBabel12022418113D

 64 68  0  0  1  0  0  0  0  0999 V2000
    0.7019   -0.0252    0.5513 C   0  0  0  0  0  0  0  0  0  0  0  0
    2.2077   -0.0650    0.7266 C   0  0  0  0  0  0  0  0  0  0  0  0
    2.8085    1.3383    0.7173 C   0  0  0  0  0  0  0  0  0  0  0  0
    4.3284    1.2539    0.8704 C   0  0  0  0  0  0  0  0  0  0  0  0
    4.9713    2.6425    0.8626 C   0  0  0  0  0  0  0  0  0  0  0  0
    6.4480    2.6830    1.0505 N   0  0  0  0  0  0  0  0  0  0  0  0
    7.2362    1.5518    0.7979 C   0  0  0  0  0  0  0  0  0  0  0  0
    8.5775    1.4476    0.7497 C   0  0  0  0  0  0  0  0  0  0  0  0
    9.1773    0.1479    0.3270 C   0  0  0  0  0  0  0  0  0  0  0  0
    8.4627   -0.6600   -0.2735 O   0  0  0  0  0  0  0  0  0  0  0  0
   10.5195   -0.1020    0.6000 N   0  0  0  0  0  0  0  0  0  0  0  0
   11.1832   -1.3671    0.1877 C   0  0  2  0  0  0  0  0  0  0  0  0
   12.6716   -1.4890    0.6588 C   0  0  0  0  0  0  0  0  0  0  0  0
   13.2848   -2.8485    0.2020 C   0  0  1  0  0  0  0  0  0  0  0  0
   12.4699   -4.0091    0.7958 C   0  0  0  0  0  0  0  0  0  0  0  0
   11.0167   -3.9140    0.3176 C   0  0  2  0  0  0  0  0  0  0  0  0
   10.9424   -3.9506   -1.2182 C   0  0  0  0  0  0  0  0  0  0  0  0
   11.7899   -2.8178   -1.8184 C   0  0  2  0  0  0  0  0  0  0  0  0
   13.2375   -2.9647   -1.3322 C   0  0  0  0  0  0  0  0  0  0  0  0
   11.2313   -1.4627   -1.3592 C   0  0  0  0  0  0  0  0  0  0  0  0
   10.4289   -2.5844    0.7984 C   0  0  0  0  0  0  0  0  0  0  0  0
    9.3068    2.6772    1.0274 C   0  0  0  0  0  0  0  0  0  0  0  0
   10.5213    2.6617    1.2323 O   0  0  0  0  0  0  0  0  0  0  0  0
    8.5336    3.9514    1.0101 C   0  0  0  0  0  0  0  0  0  0  0  0
    9.2941    5.1224    0.8914 C   0  0  0  0  0  0  0  0  0  0  0  0
    8.6644    6.3481    0.8178 C   0  0  0  0  0  0  0  0  0  0  0  0
    7.2802    6.4221    0.9358 C   0  0  0  0  0  0  0  0  0  0  0  0
    6.4786    5.2619    1.1302 C   0  0  0  0  0  0  0  0  0  0  0  0
    5.0135    5.4942    1.4358 C   0  0  0  0  0  0  0  0  0  0  0  0
    7.1030    3.9663    1.0721 C   0  0  0  0  0  0  0  0  0  0  0  0
    6.6167    8.0248    0.8081 Cl  0  0  0  0  0  0  0  0  0  0  0  0
    0.2953   -1.0408    0.5601 H   0  0  0  0  0  0  0  0  0  0  0  0
    0.4328    0.4431   -0.4006 H   0  0  0  0  0  0  0  0  0  0  0  0
    0.2303    0.5406    1.3606 H   0  0  0  0  0  0  0  0  0  0  0  0
    2.6498   -0.6621   -0.0800 H   0  0  0  0  0  0  0  0  0  0  0  0
    2.4518   -0.5660    1.6707 H   0  0  0  0  0  0  0  0  0  0  0  0
    2.3769    1.9367    1.5291 H   0  0  0  0  0  0  0  0  0  0  0  0
    2.5592    1.8428   -0.2246 H   0  0  0  0  0  0  0  0  0  0  0  0
    4.7115    0.6471    0.0429 H   0  0  0  0  0  0  0  0  0  0  0  0
    4.5710    0.7424    1.8098 H   0  0  0  0  0  0  0  0  0  0  0  0
    4.4918    3.1516    1.6958 H   0  0  0  0  0  0  0  0  0  0  0  0
    4.7157    3.1364   -0.0814 H   0  0  0  0  0  0  0  0  0  0  0  0
    6.6690    0.6493    0.6031 H   0  0  0  0  0  0  0  0  0  0  0  0
   11.0707    0.6654    0.9720 H   0  0  0  0  0  0  0  0  0  0  0  0
   12.7439   -1.4087    1.7507 H   0  0  0  0  0  0  0  0  0  0  0  0
   13.2765   -0.6705    0.2473 H   0  0  0  0  0  0  0  0  0  0  0  0
   14.3256   -2.9285    0.5382 H   0  0  0  0  0  0  0  0  0  0  0  0
   12.5098   -3.9709    1.8914 H   0  0  0  0  0  0  0  0  0  0  0  0
   12.8989   -4.9747    0.4984 H   0  0  0  0  0  0  0  0  0  0  0  0
   10.4357   -4.7446    0.7342 H   0  0  0  0  0  0  0  0  0  0  0  0
    9.8992   -3.8450   -1.5433 H   0  0  0  0  0  0  0  0  0  0  0  0
   11.2941   -4.9202   -1.5889 H   0  0  0  0  0  0  0  0  0  0  0  0
   11.7584   -2.8713   -2.9124 H   0  0  0  0  0  0  0  0  0  0  0  0
   13.6345   -3.9379   -1.6525 H   0  0  0  0  0  0  0  0  0  0  0  0
   13.8734   -2.1989   -1.7905 H   0  0  0  0  0  0  0  0  0  0  0  0
   11.8567   -0.6502   -1.7573 H   0  0  0  0  0  0  0  0  0  0  0  0
   10.2406   -1.3199   -1.7998 H   0  0  0  0  0  0  0  0  0  0  0  0
    9.3694   -2.5807    0.5325 H   0  0  0  0  0  0  0  0  0  0  0  0
   10.4637   -2.5315    1.8948 H   0  0  0  0  0  0  0  0  0  0  0  0
   10.3775    5.0713    0.8232 H   0  0  0  0  0  0  0  0  0  0  0  0
    9.2597    7.2480    0.6829 H   0  0  0  0  0  0  0  0  0  0  0  0
    4.7687    6.5318    1.6769 H   0  0  0  0  0  0  0  0  0  0  0  0
    4.7317    4.9645    2.3502 H   0  0  0  0  0  0  0  0  0  0  0  0
    4.3783    5.2220    0.5897 H   0  0  0  0  0  0  0  0  0  0  0  0
  1  2  1  0  0  0  0
  1 32  1  0  0  0  0
  1 33  1  0  0  0  0
  1 34  1  0  0  0  0
  2  3  1  0  0  0  0
  2 35  1  0  0  0  0
  2 36  1  0  0  0  0
  3  4  1  0  0  0  0
  3 37  1  0  0  0  0
  3 38  1  0  0  0  0
  4  5  1  0  0  0  0
  4 39  1  0  0  0  0
  4 40  1  0  0  0  0
  5  6  1  0  0  0  0
  5 41  1  0  0  0  0
  5 42  1  0  0  0  0
  6 30  1  0  0  0  0
  6  7  1  0  0  0  0
  7  8  2  0  0  0  0
  7 43  1  0  0  0  0
  8  9  1  0  0  0  0
  8 22  1  0  0  0  0
  9 10  2  0  0  0  0
  9 11  1  0  0  0  0
 11 44  1  0  0  0  0
 12 11  1  1  0  0  0
 12 20  1  0  0  0  0
 12 21  1  0  0  0  0
 12 13  1  0  0  0  0
 13 45  1  0  0  0  0
 13 46  1  0  0  0  0
 14 13  1  0  0  0  0
 14 15  1  0  0  0  0
 14 19  1  0  0  0  0
 14 47  1  1  0  0  0
 15 48  1  0  0  0  0
 15 49  1  0  0  0  0
 16 15  1  0  0  0  0
 16 17  1  0  0  0  0
 16 21  1  0  0  0  0
 16 50  1  1  0  0  0
 17 51  1  0  0  0  0
 17 52  1  0  0  0  0
 18 17  1  0  0  0  0
 18 19  1  0  0  0  0
 18 20  1  0  0  0  0
 18 53  1  6  0  0  0
 19 54  1  0  0  0  0
 19 55  1  0  0  0  0
 20 56  1  0  0  0  0
 20 57  1  0  0  0  0
 21 58  1  0  0  0  0
 21 59  1  0  0  0  0
 22 23  2  0  0  0  0
 22 24  1  0  0  0  0
 24 30  2  0  0  0  0
 24 25  1  0  0  0  0
 25 26  2  0  0  0  0
 25 60  1  0  0  0  0
 26 27  1  0  0  0  0
 26 61  1  0  0  0  0
 27 28  2  0  0  0  0
 27 31  1  0  0  0  0
 28 29  1  0  0  0  0
 28 30  1  0  0  0  0
 29 62  1  0  0  0  0
 29 63  1  0  0  0  0
 29 64  1  0  0  0  0
M  END
$$$$
CHEMBL3647321_8GUR
 OpenBabel12022418113D

 57 59  0  0  0  0  0  0  0  0999 V2000
    8.6692   -0.1054   -4.6910 C   0  0  0  0  0  0  0  0  0  0  0  0
    8.9351   -1.6032   -4.6980 C   0  0  0  0  0  0  0  0  0  0  0  0
    8.2625   -2.2811   -3.5075 C   0  0  0  0  0  0  0  0  0  0  0  0
    8.5210   -3.7916   -3.4782 C   0  0  0  0  0  0  0  0  0  0  0  0
    7.9251   -4.3490   -2.2727 N   0  0  0  0  0  0  0  0  0  0  0  0
    6.5483   -4.5182   -2.1275 C   0  0  0  0  0  0  0  0  0  0  0  0
    5.6908   -4.4351   -3.0855 N   0  0  0  0  0  0  0  0  0  0  0  0
    4.3410   -4.6513   -2.9023 C   0  0  0  0  0  0  0  0  0  0  0  0
    3.4945   -3.8805   -3.3396 O   0  0  0  0  0  0  0  0  0  0  0  0
    3.8576   -5.8425   -2.1349 C   0  0  0  0  0  0  0  0  0  0  0  0
    2.8015   -5.5558   -1.2348 C   0  0  0  0  0  0  0  0  0  0  0  0
    2.3649   -6.5083   -0.3094 C   0  0  0  0  0  0  0  0  0  0  0  0
    2.9642   -7.7698   -0.3148 C   0  0  0  0  0  0  0  0  0  0  0  0
    4.0023   -8.0618   -1.2000 C   0  0  0  0  0  0  0  0  0  0  0  0
    4.4728   -7.1047   -2.1157 C   0  0  0  0  0  0  0  0  0  0  0  0
    5.5641   -7.3550   -2.9419 O   0  0  0  0  0  0  0  0  0  0  0  0
    6.1552   -8.6777   -2.6820 N   0  0  0  0  0  0  0  0  0  0  0  0
    7.3652   -8.8509   -3.5148 C   0  0  0  0  0  0  0  0  0  0  0  0
    8.5121   -7.9555   -3.0551 C   0  0  0  0  0  0  0  0  0  0  0  0
    7.8251  -10.3146   -3.3607 C   0  0  0  0  0  0  0  0  0  0  0  0
    7.0287   -8.5764   -4.9847 C   0  0  0  0  0  0  0  0  0  0  0  0
    1.3039   -6.1933    0.7143 C   0  0  0  0  0  0  0  0  0  0  0  0
    0.8805   -4.9003    0.6839 F   0  0  0  0  0  0  0  0  0  0  0  0
    0.1924   -6.9603    0.5548 F   0  0  0  0  0  0  0  0  0  0  0  0
    1.7343   -6.4158    1.9866 F   0  0  0  0  0  0  0  0  0  0  0  0
    6.2125   -4.9716   -0.4291 S   0  0  0  0  0  0  0  0  0  0  0  0
    7.8612   -5.5921   -0.2866 C   0  0  0  0  0  0  0  0  0  0  0  0
    8.3376   -6.5046    0.6314 C   0  0  0  0  0  0  0  0  0  0  0  0
    9.6931   -6.7513    0.5851 C   0  0  0  0  0  0  0  0  0  0  0  0
   10.5373   -6.1711   -0.3054 N   0  0  0  0  0  0  0  0  0  0  0  0
    9.9982   -5.3375   -1.2351 C   0  0  0  0  0  0  0  0  0  0  0  0
    8.6560   -5.0412   -1.3018 C   0  0  0  0  0  0  0  0  0  0  0  0
    9.1591    0.3728   -5.5443 H   0  0  0  0  0  0  0  0  0  0  0  0
    9.0535    0.3563   -3.7753 H   0  0  0  0  0  0  0  0  0  0  0  0
    7.5959    0.1027   -4.7538 H   0  0  0  0  0  0  0  0  0  0  0  0
   10.0167   -1.7776   -4.6665 H   0  0  0  0  0  0  0  0  0  0  0  0
    8.5611   -2.0334   -5.6339 H   0  0  0  0  0  0  0  0  0  0  0  0
    7.1843   -2.0872   -3.5434 H   0  0  0  0  0  0  0  0  0  0  0  0
    8.6295   -1.8328   -2.5749 H   0  0  0  0  0  0  0  0  0  0  0  0
    9.5990   -3.9690   -3.5248 H   0  0  0  0  0  0  0  0  0  0  0  0
    8.0951   -4.2693   -4.3706 H   0  0  0  0  0  0  0  0  0  0  0  0
    2.3751   -4.5497   -1.2092 H   0  0  0  0  0  0  0  0  0  0  0  0
    2.6501   -8.5300    0.4004 H   0  0  0  0  0  0  0  0  0  0  0  0
    4.4630   -9.0384   -1.1143 H   0  0  0  0  0  0  0  0  0  0  0  0
    5.4372   -9.2792   -3.0898 H   0  0  0  0  0  0  0  0  0  0  0  0
    8.7870   -8.1607   -2.0146 H   0  0  0  0  0  0  0  0  0  0  0  0
    8.2406   -6.9065   -3.1555 H   0  0  0  0  0  0  0  0  0  0  0  0
    9.4121   -8.1132   -3.6619 H   0  0  0  0  0  0  0  0  0  0  0  0
    8.1038  -10.5463   -2.3247 H   0  0  0  0  0  0  0  0  0  0  0  0
    8.7032  -10.5167   -3.9861 H   0  0  0  0  0  0  0  0  0  0  0  0
    7.0406  -11.0187   -3.6595 H   0  0  0  0  0  0  0  0  0  0  0  0
    6.6997   -7.5417   -5.1337 H   0  0  0  0  0  0  0  0  0  0  0  0
    6.2262   -9.2372   -5.3305 H   0  0  0  0  0  0  0  0  0  0  0  0
    7.9003   -8.7367   -5.6266 H   0  0  0  0  0  0  0  0  0  0  0  0
    7.6877   -7.0086    1.3356 H   0  0  0  0  0  0  0  0  0  0  0  0
   10.1595   -7.4385    1.2863 H   0  0  0  0  0  0  0  0  0  0  0  0
   10.7181   -4.9464   -1.9458 H   0  0  0  0  0  0  0  0  0  0  0  0
  1  2  1  0  0  0  0
  1 33  1  0  0  0  0
  1 34  1  0  0  0  0
  1 35  1  0  0  0  0
  2  3  1  0  0  0  0
  2 36  1  0  0  0  0
  2 37  1  0  0  0  0
  3  4  1  0  0  0  0
  3 38  1  0  0  0  0
  3 39  1  0  0  0  0
  4  5  1  0  0  0  0
  4 40  1  0  0  0  0
  4 41  1  0  0  0  0
  5 32  1  0  0  0  0
  5  6  1  0  0  0  0
  6  7  2  0  0  0  0
  6 26  1  0  0  0  0
  7  8  1  0  0  0  0
  8  9  2  0  0  0  0
  8 10  1  0  0  0  0
 10 15  2  0  0  0  0
 10 11  1  0  0  0  0
 11 12  2  0  0  0  0
 11 42  1  0  0  0  0
 12 13  1  0  0  0  0
 12 22  1  0  0  0  0
 13 14  2  0  0  0  0
 13 43  1  0  0  0  0
 14 15  1  0  0  0  0
 14 44  1  0  0  0  0
 15 16  1  0  0  0  0
 16 17  1  0  0  0  0
 17 18  1  0  0  0  0
 17 45  1  0  0  0  0
 18 19  1  0  0  0  0
 18 20  1  0  0  0  0
 18 21  1  0  0  0  0
 19 46  1  0  0  0  0
 19 47  1  0  0  0  0
 19 48  1  0  0  0  0
 20 49  1  0  0  0  0
 20 50  1  0  0  0  0
 20 51  1  0  0  0  0
 21 52  1  0  0  0  0
 21 53  1  0  0  0  0
 21 54  1  0  0  0  0
 22 23  1  0  0  0  0
 22 24  1  0  0  0  0
 22 25  1  0  0  0  0
 26 27  1  0  0  0  0
 27 32  2  0  0  0  0
 27 28  1  0  0  0  0
 28 29  2  0  0  0  0
 28 55  1  0  0  0  0
 29 30  1  0  0  0  0
 29 56  1  0  0  0  0
 30 31  2  0  0  0  0
 31 32  1  0  0  0  0
 31 57  1  0  0  0  0
M  END
$$$$
CHEMBL4788749_5ZTY
 OpenBabel12022418113D

 51 52  0  0  0  0  0  0  0  0999 V2000
   -0.5036   -1.1315    0.0841 C   0  0  0  0  0  0  0  0  0  0  0  0
   -1.2615    0.0307    0.1093 C   0  0  0  0  0  0  0  0  0  0  0  0
   -0.3662    1.1176    0.0406 C   0  0  0  0  0  0  0  0  0  0  0  0
   -0.7153    2.5456    0.0482 C   0  0  0  0  0  0  0  0  0  0  0  0
   -1.8742    2.9437    0.1116 O   0  0  0  0  0  0  0  0  0  0  0  0
    0.3795    3.3862   -0.0115 N   0  0  0  0  0  0  0  0  0  0  0  0
    0.3175    4.8577   -0.0713 C   0  0  0  0  0  0  0  0  0  0  0  0
    1.7588    5.3985   -0.1409 C   0  0  0  0  0  0  0  0  0  0  0  0
   -0.4293    5.3186   -1.3312 C   0  0  0  0  0  0  0  0  0  0  0  0
   -0.3844    5.4372    1.1883 C   0  0  0  0  0  0  0  0  0  0  0  0
    0.2978    5.0447    2.3810 O   0  0  0  0  0  0  0  0  0  0  0  0
    0.9011    0.6812   -0.0258 N   0  0  0  0  0  0  0  0  0  0  0  0
    0.7989   -0.6719   -0.0337 N   0  0  0  0  0  0  0  0  0  0  0  0
    2.0539   -1.4004   -0.0934 C   0  0  0  0  0  0  0  0  0  0  0  0
    2.2321   -2.3902   -1.2431 C   0  0  0  0  0  0  0  0  0  0  0  0
    2.1526   -1.7792   -2.6424 C   0  0  0  0  0  0  0  0  0  0  0  0
    2.3351   -2.8883   -3.6832 C   0  0  0  0  0  0  0  0  0  0  0  0
    2.2795   -2.3713   -5.1083 C   0  0  0  0  0  0  0  0  0  0  0  0
   -0.9916   -2.5268    0.0874 C   0  0  0  0  0  0  0  0  0  0  0  0
   -0.2637   -3.5819    0.6574 C   0  0  0  0  0  0  0  0  0  0  0  0
   -0.7008   -4.9072    0.5392 C   0  0  0  0  0  0  0  0  0  0  0  0
   -1.9091   -5.1836   -0.0852 C   0  0  0  0  0  0  0  0  0  0  0  0
   -2.6979   -4.1610   -0.5799 C   0  0  0  0  0  0  0  0  0  0  0  0
   -2.2352   -2.8496   -0.4957 C   0  0  0  0  0  0  0  0  0  0  0  0
   -3.0205   -1.8906   -1.0103 F   0  0  0  0  0  0  0  0  0  0  0  0
   -2.3158   -6.4535   -0.2053 F   0  0  0  0  0  0  0  0  0  0  0  0
   -2.3411    0.1026    0.1634 H   0  0  0  0  0  0  0  0  0  0  0  0
    1.2778    2.9089   -0.0827 H   0  0  0  0  0  0  0  0  0  0  0  0
    2.2780    5.0195   -1.0276 H   0  0  0  0  0  0  0  0  0  0  0  0
    2.3466    5.1005    0.7324 H   0  0  0  0  0  0  0  0  0  0  0  0
    1.7659    6.4950   -0.1924 H   0  0  0  0  0  0  0  0  0  0  0  0
    0.0437    4.9200   -2.2390 H   0  0  0  0  0  0  0  0  0  0  0  0
   -0.4391    6.4122   -1.4100 H   0  0  0  0  0  0  0  0  0  0  0  0
   -1.4712    4.9842   -1.3361 H   0  0  0  0  0  0  0  0  0  0  0  0
   -1.4231    5.1055    1.2737 H   0  0  0  0  0  0  0  0  0  0  0  0
   -0.3925    6.5315    1.1578 H   0  0  0  0  0  0  0  0  0  0  0  0
    0.2963    4.0704    2.3773 H   0  0  0  0  0  0  0  0  0  0  0  0
    2.1704   -1.9043    0.8718 H   0  0  0  0  0  0  0  0  0  0  0  0
    2.8634   -0.6600   -0.1398 H   0  0  0  0  0  0  0  0  0  0  0  0
    1.5014   -3.1982   -1.1783 H   0  0  0  0  0  0  0  0  0  0  0  0
    3.2142   -2.8646   -1.1213 H   0  0  0  0  0  0  0  0  0  0  0  0
    2.9299   -1.0158   -2.7627 H   0  0  0  0  0  0  0  0  0  0  0  0
    1.1831   -1.2899   -2.7911 H   0  0  0  0  0  0  0  0  0  0  0  0
    1.5537   -3.6462   -3.5515 H   0  0  0  0  0  0  0  0  0  0  0  0
    3.2971   -3.3892   -3.5236 H   0  0  0  0  0  0  0  0  0  0  0  0
    1.3186   -1.8918   -5.3173 H   0  0  0  0  0  0  0  0  0  0  0  0
    2.4020   -3.2034   -5.8102 H   0  0  0  0  0  0  0  0  0  0  0  0
    3.0791   -1.6489   -5.2973 H   0  0  0  0  0  0  0  0  0  0  0  0
    0.6655   -3.4065    1.1883 H   0  0  0  0  0  0  0  0  0  0  0  0
   -0.1013   -5.7248    0.9292 H   0  0  0  0  0  0  0  0  0  0  0  0
   -3.6556   -4.3755   -1.0396 H   0  0  0  0  0  0  0  0  0  0  0  0
  1 13  1  0  0  0  0
  1  2  2  0  0  0  0
  1 19  1  0  0  0  0
  2  3  1  0  0  0  0
  2 27  1  0  0  0  0
  3  4  1  0  0  0  0
  3 12  2  0  0  0  0
  4  5  2  0  0  0  0
  4  6  1  0  0  0  0
  6  7  1  0  0  0  0
  6 28  1  0  0  0  0
  7  8  1  0  0  0  0
  7  9  1  0  0  0  0
  7 10  1  0  0  0  0
  8 29  1  0  0  0  0
  8 30  1  0  0  0  0
  8 31  1  0  0  0  0
  9 32  1  0  0  0  0
  9 33  1  0  0  0  0
  9 34  1  0  0  0  0
 10 11  1  0  0  0  0
 10 35  1  0  0  0  0
 10 36  1  0  0  0  0
 11 37  1  0  0  0  0
 12 13  1  0  0  0  0
 13 14  1  0  0  0  0
 14 15  1  0  0  0  0
 14 38  1  0  0  0  0
 14 39  1  0  0  0  0
 15 16  1  0  0  0  0
 15 40  1  0  0  0  0
 15 41  1  0  0  0  0
 16 17  1  0  0  0  0
 16 42  1  0  0  0  0
 16 43  1  0  0  0  0
 17 18  1  0  0  0  0
 17 44  1  0  0  0  0
 17 45  1  0  0  0  0
 18 46  1  0  0  0  0
 18 47  1  0  0  0  0
 18 48  1  0  0  0  0
 19 24  2  0  0  0  0
 19 20  1  0  0  0  0
 20 21  2  0  0  0  0
 20 49  1  0  0  0  0
 21 22  1  0  0  0  0
 21 50  1  0  0  0  0
 22 23  2  0  0  0  0
 22 26  1  0  0  0  0
 23 24  1  0  0  0  0
 23 51  1  0  0  0  0
 24 25  1  0  0  0  0
M  END
$$$$
CHEMBL250767_5ZTY
 OpenBabel12022418113D

 55 58  0  0  0  0  0  0  0  0999 V2000
   -2.5479    0.6623   -0.0309 C   0  0  0  0  0  0  0  0  0  0  0  0
   -2.5183   -0.7289   -0.0066 C   0  0  0  0  0  0  0  0  0  0  0  0
   -1.2847   -1.4029    0.0572 C   0  0  0  0  0  0  0  0  0  0  0  0
   -0.0591   -0.7148    0.0785 C   0  0  0  0  0  0  0  0  0  0  0  0
   -0.1373    0.6923    0.1028 C   0  0  0  0  0  0  0  0  0  0  0  0
   -1.3590    1.3744    0.0454 C   0  0  0  0  0  0  0  0  0  0  0  0
    1.0997    1.4974    0.1611 C   0  0  0  0  0  0  0  0  0  0  0  0
    1.0476    2.6995    0.4194 O   0  0  0  0  0  0  0  0  0  0  0  0
    2.3814    0.8210   -0.1359 C   0  0  0  0  0  0  0  0  0  0  0  0
    2.3373   -0.5232   -0.1698 C   0  0  0  0  0  0  0  0  0  0  0  0
    1.2136   -1.3334    0.0339 N   0  0  0  0  0  0  0  0  0  0  0  0
    1.3176   -2.8089    0.0091 C   0  0  0  0  0  0  0  0  0  0  0  0
    1.4528   -3.4334    1.3867 C   0  0  0  0  0  0  0  0  0  0  0  0
    2.6182   -3.2418    2.1455 C   0  0  0  0  0  0  0  0  0  0  0  0
    2.8166   -3.9361    3.3424 C   0  0  0  0  0  0  0  0  0  0  0  0
    1.8477   -4.8221    3.8057 C   0  0  0  0  0  0  0  0  0  0  0  0
    0.6672   -4.9941    3.0869 C   0  0  0  0  0  0  0  0  0  0  0  0
    0.4699   -4.3044    1.8849 C   0  0  0  0  0  0  0  0  0  0  0  0
    3.6566    1.5538   -0.4106 C   0  0  0  0  0  0  0  0  0  0  0  0
    4.6917    0.9587   -0.6954 O   0  0  0  0  0  0  0  0  0  0  0  0
    3.5674    2.9277   -0.3406 N   0  0  0  0  0  0  0  0  0  0  0  0
    4.6942    3.8338   -0.5247 C   0  0  0  0  0  0  0  0  0  0  0  0
    4.2066    5.1605   -1.1353 C   0  0  0  0  0  0  0  0  0  0  0  0
    5.3154    6.2078   -1.2238 C   0  0  0  0  0  0  0  0  0  0  0  0
    5.9866    6.4287    0.1272 C   0  0  0  0  0  0  0  0  0  0  0  0
    6.5211    5.1164    0.6901 C   0  0  0  0  0  0  0  0  0  0  0  0
    5.4179    4.0666    0.8073 C   0  0  0  0  0  0  0  0  0  0  0  0
   -3.6201   -1.5421   -0.0511 O   0  0  0  0  0  0  0  0  0  0  0  0
   -4.8847   -0.8927   -0.1401 C   0  0  0  0  0  0  0  0  0  0  0  0
   -3.4726    1.2243   -0.1049 H   0  0  0  0  0  0  0  0  0  0  0  0
   -1.3286   -2.4866    0.0671 H   0  0  0  0  0  0  0  0  0  0  0  0
   -1.3815    2.4623    0.0395 H   0  0  0  0  0  0  0  0  0  0  0  0
    3.2419   -1.0871   -0.3888 H   0  0  0  0  0  0  0  0  0  0  0  0
    2.2041   -3.1106   -0.5674 H   0  0  0  0  0  0  0  0  0  0  0  0
    0.4931   -3.2717   -0.5458 H   0  0  0  0  0  0  0  0  0  0  0  0
    3.3964   -2.5668    1.7963 H   0  0  0  0  0  0  0  0  0  0  0  0
    3.7373   -3.7971    3.9034 H   0  0  0  0  0  0  0  0  0  0  0  0
    2.0143   -5.3799    4.7243 H   0  0  0  0  0  0  0  0  0  0  0  0
   -0.0929   -5.6798    3.4520 H   0  0  0  0  0  0  0  0  0  0  0  0
   -0.4507   -4.4778    1.3333 H   0  0  0  0  0  0  0  0  0  0  0  0
    2.6999    3.3161    0.0250 H   0  0  0  0  0  0  0  0  0  0  0  0
    5.3943    3.3652   -1.2258 H   0  0  0  0  0  0  0  0  0  0  0  0
    3.3798    5.5672   -0.5377 H   0  0  0  0  0  0  0  0  0  0  0  0
    3.7997    4.9793   -2.1377 H   0  0  0  0  0  0  0  0  0  0  0  0
    4.9013    7.1555   -1.5875 H   0  0  0  0  0  0  0  0  0  0  0  0
    6.0665    5.8871   -1.9560 H   0  0  0  0  0  0  0  0  0  0  0  0
    5.2657    6.8651    0.8297 H   0  0  0  0  0  0  0  0  0  0  0  0
    6.8054    7.1492    0.0219 H   0  0  0  0  0  0  0  0  0  0  0  0
    6.9686    5.2936    1.6745 H   0  0  0  0  0  0  0  0  0  0  0  0
    7.3193    4.7389    0.0391 H   0  0  0  0  0  0  0  0  0  0  0  0
    5.8494    3.1245    1.1659 H   0  0  0  0  0  0  0  0  0  0  0  0
    4.6974    4.3873    1.5713 H   0  0  0  0  0  0  0  0  0  0  0  0
   -5.6632   -1.6596   -0.0945 H   0  0  0  0  0  0  0  0  0  0  0  0
   -4.9849   -0.3675   -1.0962 H   0  0  0  0  0  0  0  0  0  0  0  0
   -5.0445   -0.2112    0.7026 H   0  0  0  0  0  0  0  0  0  0  0  0
  1  6  2  0  0  0  0
  1  2  1  0  0  0  0
  1 30  1  0  0  0  0
  2  3  2  0  0  0  0
  2 28  1  0  0  0  0
  3  4  1  0  0  0  0
  3 31  1  0  0  0  0
  4 11  1  0  0  0  0
  4  5  2  0  0  0  0
  5  6  1  0  0  0  0
  5  7  1  0  0  0  0
  6 32  1  0  0  0  0
  7  8  2  0  0  0  0
  7  9  1  0  0  0  0
  9 10  2  0  0  0  0
  9 19  1  0  0  0  0
 10 11  1  0  0  0  0
 10 33  1  0  0  0  0
 11 12  1  0  0  0  0
 12 13  1  0  0  0  0
 12 34  1  0  0  0  0
 12 35  1  0  0  0  0
 13 18  2  0  0  0  0
 13 14  1  0  0  0  0
 14 15  2  0  0  0  0
 14 36  1  0  0  0  0
 15 16  1  0  0  0  0
 15 37  1  0  0  0  0
 16 17  2  0  0  0  0
 16 38  1  0  0  0  0
 17 18  1  0  0  0  0
 17 39  1  0  0  0  0
 18 40  1  0  0  0  0
 19 20  2  0  0  0  0
 19 21  1  0  0  0  0
 21 22  1  0  0  0  0
 21 41  1  0  0  0  0
 22 27  1  0  0  0  0
 22 23  1  0  0  0  0
 22 42  1  0  0  0  0
 23 24  1  0  0  0  0
 23 43  1  0  0  0  0
 23 44  1  0  0  0  0
 24 25  1  0  0  0  0
 24 45  1  0  0  0  0
 24 46  1  0  0  0  0
 25 26  1  0  0  0  0
 25 47  1  0  0  0  0
 25 48  1  0  0  0  0
 26 27  1  0  0  0  0
 26 49  1  0  0  0  0
 26 50  1  0  0  0  0
 27 51  1  0  0  0  0
 27 52  1  0  0  0  0
 28 29  1  0  0  0  0
 29 53  1  0  0  0  0
 29 54  1  0  0  0  0
 29 55  1  0  0  0  0
M  END
$$$$
CHEMBL2087099_5ZTY
 OpenBabel12022418113D

 68 73  0  0  1  0  0  0  0  0999 V2000
    0.8979   -0.3810   -1.6655 C   0  0  0  0  0  0  0  0  0  0  0  0
    2.4169   -0.3942   -1.6968 C   0  0  0  0  0  0  0  0  0  0  0  0
    2.9965    1.0204   -1.6687 C   0  0  0  0  0  0  0  0  0  0  0  0
    4.5244    0.9819   -1.7097 C   0  0  0  0  0  0  0  0  0  0  0  0
    5.1243    2.3874   -1.7224 C   0  0  0  0  0  0  0  0  0  0  0  0
    6.5818    2.3703   -1.7225 N   0  0  0  0  0  0  0  0  0  0  0  0
    7.3439    1.8433   -2.7338 C   0  0  0  0  0  0  0  0  0  0  0  0
    8.6848    1.9636   -2.4069 C   0  0  0  0  0  0  0  0  0  0  0  0
    9.8029    1.4677   -3.2259 C   0  0  0  0  0  0  0  0  0  0  0  0
   10.9777    1.5092   -2.8648 O   0  0  0  0  0  0  0  0  0  0  0  0
    9.5145    0.8418   -4.6004 C   0  0  0  0  0  0  0  0  0  0  0  0
    8.8222    1.4746   -5.3910 O   0  0  0  0  0  0  0  0  0  0  0  0
   10.0484   -0.4225   -4.8462 N   0  0  0  0  0  0  0  0  0  0  0  0
    9.8091   -1.1322   -6.1204 C   0  0  2  0  0  0  0  0  0  0  0  0
   10.4603   -2.5511   -6.1708 C   0  0  0  0  0  0  0  0  0  0  0  0
   10.1582   -3.2432   -7.5308 C   0  0  1  0  0  0  0  0  0  0  0  0
    8.6387   -3.3808   -7.7255 C   0  0  0  0  0  0  0  0  0  0  0  0
    7.9847   -1.9944   -7.6764 C   0  0  2  0  0  0  0  0  0  0  0  0
    8.5598   -1.0963   -8.7834 C   0  0  0  0  0  0  0  0  0  0  0  0
   10.0874   -0.9918   -8.6462 C   0  0  2  0  0  0  0  0  0  0  0  0
   10.7102   -2.3945   -8.6867 C   0  0  0  0  0  0  0  0  0  0  0  0
   10.4219   -0.3333   -7.3010 C   0  0  0  0  0  0  0  0  0  0  0  0
    8.2839   -1.3561   -6.3156 C   0  0  0  0  0  0  0  0  0  0  0  0
    8.7218    2.6455   -1.1396 C   0  0  0  0  0  0  0  0  0  0  0  0
    9.7616    3.0849   -0.2842 C   0  0  0  0  0  0  0  0  0  0  0  0
    9.4745    3.7043    0.9502 C   0  0  0  0  0  0  0  0  0  0  0  0
   10.5486    4.0859    1.8629 C   0  0  0  0  0  0  0  0  0  0  0  0
   11.9243    3.9686    1.8416 C   0  0  0  0  0  0  0  0  0  0  0  0
   12.4010    4.4964    3.0672 C   0  0  0  0  0  0  0  0  0  0  0  0
   11.2905    4.9126    3.7606 C   0  0  0  0  0  0  0  0  0  0  0  0
   10.1691    4.6729    3.0424 O   0  0  0  0  0  0  0  0  0  0  0  0
    8.1359    3.9187    1.2977 C   0  0  0  0  0  0  0  0  0  0  0  0
    7.0861    3.5192    0.4688 C   0  0  0  0  0  0  0  0  0  0  0  0
    7.3990    2.8781   -0.7387 C   0  0  0  0  0  0  0  0  0  0  0  0
    0.5113   -1.4049   -1.6892 H   0  0  0  0  0  0  0  0  0  0  0  0
    0.4920    0.1552   -2.5290 H   0  0  0  0  0  0  0  0  0  0  0  0
    0.5282    0.1009   -0.7550 H   0  0  0  0  0  0  0  0  0  0  0  0
    2.7521   -0.9143   -2.6018 H   0  0  0  0  0  0  0  0  0  0  0  0
    2.7898   -0.9652   -0.8386 H   0  0  0  0  0  0  0  0  0  0  0  0
    2.6634    1.5392   -0.7618 H   0  0  0  0  0  0  0  0  0  0  0  0
    2.6191    1.5908   -2.5261 H   0  0  0  0  0  0  0  0  0  0  0  0
    4.8472    0.4318   -2.6020 H   0  0  0  0  0  0  0  0  0  0  0  0
    4.9028    0.4248   -0.8430 H   0  0  0  0  0  0  0  0  0  0  0  0
    4.7779    2.9481   -0.8491 H   0  0  0  0  0  0  0  0  0  0  0  0
    4.8137    2.9463   -2.6121 H   0  0  0  0  0  0  0  0  0  0  0  0
    6.8675    1.4157   -3.6083 H   0  0  0  0  0  0  0  0  0  0  0  0
   10.7732   -0.7543   -4.2099 H   0  0  0  0  0  0  0  0  0  0  0  0
   10.0843   -3.1777   -5.3516 H   0  0  0  0  0  0  0  0  0  0  0  0
   11.5471   -2.4817   -6.0326 H   0  0  0  0  0  0  0  0  0  0  0  0
   10.6190   -4.2376   -7.5565 H   0  0  0  0  0  0  0  0  0  0  0  0
    8.2161   -4.0276   -6.9472 H   0  0  0  0  0  0  0  0  0  0  0  0
    8.4193   -3.8598   -8.6884 H   0  0  0  0  0  0  0  0  0  0  0  0
    6.9008   -2.0917   -7.8049 H   0  0  0  0  0  0  0  0  0  0  0  0
    8.1116   -0.0971   -8.7232 H   0  0  0  0  0  0  0  0  0  0  0  0
    8.3004   -1.5042   -9.7687 H   0  0  0  0  0  0  0  0  0  0  0  0
   10.4911   -0.3869   -9.4682 H   0  0  0  0  0  0  0  0  0  0  0  0
   10.4806   -2.8693   -9.6507 H   0  0  0  0  0  0  0  0  0  0  0  0
   11.8015   -2.3271   -8.6199 H   0  0  0  0  0  0  0  0  0  0  0  0
   11.5109   -0.2712   -7.1768 H   0  0  0  0  0  0  0  0  0  0  0  0
   10.0627    0.6996   -7.3152 H   0  0  0  0  0  0  0  0  0  0  0  0
    7.7213   -0.4213   -6.2435 H   0  0  0  0  0  0  0  0  0  0  0  0
    7.8995   -1.9978   -5.5101 H   0  0  0  0  0  0  0  0  0  0  0  0
   10.7915    2.9234   -0.5918 H   0  0  0  0  0  0  0  0  0  0  0  0
   12.5140    3.5384    1.0445 H   0  0  0  0  0  0  0  0  0  0  0  0
   13.4248    4.5581    3.4049 H   0  0  0  0  0  0  0  0  0  0  0  0
   11.1362    5.3694    4.7279 H   0  0  0  0  0  0  0  0  0  0  0  0
    7.8873    4.3998    2.2429 H   0  0  0  0  0  0  0  0  0  0  0  0
    6.0624    3.7002    0.7780 H   0  0  0  0  0  0  0  0  0  0  0  0
  1  2  1  0  0  0  0
  1 35  1  0  0  0  0
  1 36  1  0  0  0  0
  1 37  1  0  0  0  0
  2  3  1  0  0  0  0
  2 38  1  0  0  0  0
  2 39  1  0  0  0  0
  3  4  1  0  0  0  0
  3 40  1  0  0  0  0
  3 41  1  0  0  0  0
  4  5  1  0  0  0  0
  4 42  1  0  0  0  0
  4 43  1  0  0  0  0
  5  6  1  0  0  0  0
  5 44  1  0  0  0  0
  5 45  1  0  0  0  0
  6 34  1  0  0  0  0
  6  7  1  0  0  0  0
  7  8  2  0  0  0  0
  7 46  1  0  0  0  0
  8  9  1  0  0  0  0
  8 24  1  0  0  0  0
  9 10  2  0  0  0  0
  9 11  1  0  0  0  0
 11 12  2  0  0  0  0
 11 13  1  0  0  0  0
 13 47  1  0  0  0  0
 14 13  1  1  0  0  0
 14 22  1  0  0  0  0
 14 23  1  0  0  0  0
 14 15  1  0  0  0  0
 15 48  1  0  0  0  0
 15 49  1  0  0  0  0
 16 15  1  0  0  0  0
 16 17  1  0  0  0  0
 16 21  1  0  0  0  0
 16 50  1  6  0  0  0
 17 51  1  0  0  0  0
 17 52  1  0  0  0  0
 18 17  1  0  0  0  0
 18 19  1  0  0  0  0
 18 23  1  0  0  0  0
 18 53  1  6  0  0  0
 19 54  1  0  0  0  0
 19 55  1  0  0  0  0
 20 19  1  0  0  0  0
 20 21  1  0  0  0  0
 20 22  1  0  0  0  0
 20 56  1  6  0  0  0
 21 57  1  0  0  0  0
 21 58  1  0  0  0  0
 22 59  1  0  0  0  0
 22 60  1  0  0  0  0
 23 61  1  0  0  0  0
 23 62  1  0  0  0  0
 24 34  2  0  0  0  0
 24 25  1  0  0  0  0
 25 26  2  0  0  0  0
 25 63  1  0  0  0  0
 26 27  1  0  0  0  0
 26 32  1  0  0  0  0
 27 31  1  0  0  0  0
 27 28  2  0  0  0  0
 28 29  1  0  0  0  0
 28 64  1  0  0  0  0
 29 30  2  0  0  0  0
 29 65  1  0  0  0  0
 30 31  1  0  0  0  0
 30 66  1  0  0  0  0
 32 33  2  0  0  0  0
 32 67  1  0  0  0  0
 33 34  1  0  0  0  0
 33 68  1  0  0  0  0
M  END
$$$$
CHEMBL1668504_5ZTY
 OpenBabel12022418113D

 42 44  0  0  0  0  0  0  0  0999 V2000
    1.4383    0.3474    0.0131 C   0  0  0  0  0  0  0  0  0  0  0  0
    2.8941    0.0485   -0.0867 C   0  0  0  0  0  0  0  0  0  0  0  0
    3.8015    1.0063   -0.1430 N   0  0  0  0  0  0  0  0  0  0  0  0
    5.0268    0.3819   -0.1992 C   0  0  0  0  0  0  0  0  0  0  0  0
    6.2804    1.1305   -0.3971 C   0  0  0  0  0  0  0  0  0  0  0  0
    7.3448    0.5815   -0.6599 O   0  0  0  0  0  0  0  0  0  0  0  0
    6.1345    2.4933   -0.1971 N   0  0  0  0  0  0  0  0  0  0  0  0
    7.1747    3.4342   -0.3443 C   0  0  0  0  0  0  0  0  0  0  0  0
    8.0978    3.3004   -1.3970 C   0  0  0  0  0  0  0  0  0  0  0  0
    9.1089    4.2400   -1.5995 C   0  0  0  0  0  0  0  0  0  0  0  0
    9.2183    5.3282   -0.7424 C   0  0  0  0  0  0  0  0  0  0  0  0
    8.3139    5.4730    0.3067 C   0  0  0  0  0  0  0  0  0  0  0  0
    7.2826    4.5348    0.5212 C   0  0  0  0  0  0  0  0  0  0  0  0
    6.4247    4.7143    1.7448 C   0  0  0  0  0  0  0  0  0  0  0  0
    5.4521    3.7726    1.9044 F   0  0  0  0  0  0  0  0  0  0  0  0
    7.1572    4.6839    2.8951 F   0  0  0  0  0  0  0  0  0  0  0  0
    5.7762    5.9129    1.7533 F   0  0  0  0  0  0  0  0  0  0  0  0
    4.8668   -0.9931   -0.0870 C   0  0  0  0  0  0  0  0  0  0  0  0
    5.9080   -2.0599   -0.1288 C   0  0  0  0  0  0  0  0  0  0  0  0
    3.4848   -1.2179   -0.0532 N   0  0  0  0  0  0  0  0  0  0  0  0
    2.8386   -2.4973   -0.0708 C   0  0  0  0  0  0  0  0  0  0  0  0
    3.3943   -3.5847    0.6197 C   0  0  0  0  0  0  0  0  0  0  0  0
    2.8607   -4.8691    0.4869 C   0  0  0  0  0  0  0  0  0  0  0  0
    1.7327   -5.0746   -0.2985 C   0  0  0  0  0  0  0  0  0  0  0  0
    1.1322   -3.9933   -0.9401 C   0  0  0  0  0  0  0  0  0  0  0  0
    1.6860   -2.7105   -0.8383 C   0  0  0  0  0  0  0  0  0  0  0  0
    0.8229   -0.5047    0.3023 H   0  0  0  0  0  0  0  0  0  0  0  0
    1.0757    0.7383   -0.9440 H   0  0  0  0  0  0  0  0  0  0  0  0
    1.2759    1.1227    0.7697 H   0  0  0  0  0  0  0  0  0  0  0  0
    5.2800    2.7478    0.2941 H   0  0  0  0  0  0  0  0  0  0  0  0
    8.0225    2.4692   -2.0990 H   0  0  0  0  0  0  0  0  0  0  0  0
    9.8081    4.1172   -2.4232 H   0  0  0  0  0  0  0  0  0  0  0  0
   10.0116    6.0595   -0.8911 H   0  0  0  0  0  0  0  0  0  0  0  0
    8.4333    6.3153    0.9892 H   0  0  0  0  0  0  0  0  0  0  0  0
    6.8917   -1.6781   -0.4043 H   0  0  0  0  0  0  0  0  0  0  0  0
    5.6584   -2.8266   -0.8681 H   0  0  0  0  0  0  0  0  0  0  0  0
    6.0341   -2.5195    0.8557 H   0  0  0  0  0  0  0  0  0  0  0  0
    4.2352   -3.4626    1.2937 H   0  0  0  0  0  0  0  0  0  0  0  0
    3.3310   -5.7065    0.9971 H   0  0  0  0  0  0  0  0  0  0  0  0
    1.3231   -6.0756   -0.4102 H   0  0  0  0  0  0  0  0  0  0  0  0
    0.2440   -4.1552   -1.5464 H   0  0  0  0  0  0  0  0  0  0  0  0
    1.2268   -1.9165   -1.4201 H   0  0  0  0  0  0  0  0  0  0  0  0
  1  2  1  0  0  0  0
  1 27  1  0  0  0  0
  1 28  1  0  0  0  0
  1 29  1  0  0  0  0
  2 20  1  0  0  0  0
  2  3  2  0  0  0  0
  3  4  1  0  0  0  0
  4  5  1  0  0  0  0
  4 18  2  0  0  0  0
  5  6  2  0  0  0  0
  5  7  1  0  0  0  0
  7  8  1  0  0  0  0
  7 30  1  0  0  0  0
  8 13  2  0  0  0  0
  8  9  1  0  0  0  0
  9 10  2  0  0  0  0
  9 31  1  0  0  0  0
 10 11  1  0  0  0  0
 10 32  1  0  0  0  0
 11 12  2  0  0  0  0
 11 33  1  0  0  0  0
 12 13  1  0  0  0  0
 12 34  1  0  0  0  0
 13 14  1  0  0  0  0
 14 15  1  0  0  0  0
 14 16  1  0  0  0  0
 14 17  1  0  0  0  0
 18 19  1  0  0  0  0
 18 20  1  0  0  0  0
 19 35  1  0  0  0  0
 19 36  1  0  0  0  0
 19 37  1  0  0  0  0
 20 21  1  0  0  0  0
 21 26  2  0  0  0  0
 21 22  1  0  0  0  0
 22 23  2  0  0  0  0
 22 38  1  0  0  0  0
 23 24  1  0  0  0  0
 23 39  1  0  0  0  0
 24 25  2  0  0  0  0
 24 40  1  0  0  0  0
 25 26  1  0  0  0  0
 25 41  1  0  0  0  0
 26 42  1  0  0  0  0
M  END
$$$$
CHEMBL4640659_5ZTY
 OpenBabel12022418113D

 59 63  0  0  1  0  0  0  0  0999 V2000
   -0.1526   -0.7359   -0.1220 C   0  0  0  0  0  0  0  0  0  0  0  0
    1.0551   -1.4823   -0.2277 C   0  0  0  0  0  0  0  0  0  0  0  0
    2.2605   -0.8685   -0.2922 C   0  0  0  0  0  0  0  0  0  0  0  0
    2.3060    0.6507   -0.1944 C   0  0  0  0  0  0  0  0  0  0  0  0
    3.4030    1.2163   -0.1757 O   0  0  0  0  0  0  0  0  0  0  0  0
    1.0962    1.3749   -0.1301 N   0  0  0  0  0  0  0  0  0  0  0  0
   -0.0969    0.6617   -0.0907 C   0  0  0  0  0  0  0  0  0  0  0  0
   -1.4057    1.0697   -0.0138 C   0  0  0  0  0  0  0  0  0  0  0  0
   -2.1494   -0.0789   -0.0099 N   0  0  0  0  0  0  0  0  0  0  0  0
   -3.5906   -0.1676    0.0184 C   0  0  0  0  0  0  0  0  0  0  0  0
   -1.4040   -1.2079   -0.0648 N   0  0  0  0  0  0  0  0  0  0  0  0
    1.1239    2.8320   -0.0012 C   0  0  0  0  0  0  0  0  0  0  0  0
    1.7492    3.5748   -1.1843 C   0  0  0  0  0  0  0  0  0  0  0  0
    1.0833    3.2788   -2.5275 C   0  0  0  0  0  0  0  0  0  0  0  0
    1.7708    4.0555   -3.6411 C   0  0  0  0  0  0  0  0  0  0  0  0
    3.5101   -1.7005   -0.4448 C   0  0  0  0  0  0  0  0  0  0  0  0
    3.5148   -2.9063   -0.2118 O   0  0  0  0  0  0  0  0  0  0  0  0
    4.6565   -1.0413   -0.8591 N   0  0  0  0  0  0  0  0  0  0  0  0
    5.9656   -1.7024   -1.0511 C   0  0  1  0  0  0  0  0  0  0  0  0
    6.4941   -2.2950    0.2807 C   0  0  0  0  0  0  0  0  0  0  0  0
    7.8521   -2.9877    0.0771 C   0  0  1  0  0  0  0  0  0  0  0  0
    7.7000   -4.1030   -0.9708 C   0  0  0  0  0  0  0  0  0  0  0  0
    7.2478   -3.5079   -2.3148 C   0  0  1  0  0  0  0  0  0  0  0  0
    5.8848   -2.8191   -2.1283 C   0  0  0  0  0  0  0  0  0  0  0  0
    8.2783   -2.4736   -2.7893 C   0  0  0  0  0  0  0  0  0  0  0  0
    8.4021   -1.3486   -1.7491 C   0  0  2  0  0  0  0  0  0  0  0  0
    8.8774   -1.9579   -0.4200 C   0  0  0  0  0  0  0  0  0  0  0  0
    7.0255   -0.6749   -1.5482 C   0  0  0  0  0  0  0  0  0  0  0  0
    0.8476   -2.8465   -0.2864 O   0  0  0  0  0  0  0  0  0  0  0  0
   -1.8694    2.0435    0.0312 H   0  0  0  0  0  0  0  0  0  0  0  0
   -4.0156    0.8399    0.0275 H   0  0  0  0  0  0  0  0  0  0  0  0
   -3.8891   -0.7051    0.9215 H   0  0  0  0  0  0  0  0  0  0  0  0
   -3.9213   -0.6998   -0.8770 H   0  0  0  0  0  0  0  0  0  0  0  0
    1.6919    3.0650    0.9065 H   0  0  0  0  0  0  0  0  0  0  0  0
    0.1104    3.2157    0.1572 H   0  0  0  0  0  0  0  0  0  0  0  0
    2.8172    3.3439   -1.2525 H   0  0  0  0  0  0  0  0  0  0  0  0
    1.6815    4.6512   -0.9805 H   0  0  0  0  0  0  0  0  0  0  0  0
    0.0226    3.5514   -2.4922 H   0  0  0  0  0  0  0  0  0  0  0  0
    1.1395    2.2088   -2.7563 H   0  0  0  0  0  0  0  0  0  0  0  0
    1.7005    5.1340   -3.4660 H   0  0  0  0  0  0  0  0  0  0  0  0
    1.3079    3.8346   -4.6070 H   0  0  0  0  0  0  0  0  0  0  0  0
    2.8313    3.7890   -3.7030 H   0  0  0  0  0  0  0  0  0  0  0  0
    4.6318   -0.0220   -0.8502 H   0  0  0  0  0  0  0  0  0  0  0  0
    5.7886   -3.0211    0.6984 H   0  0  0  0  0  0  0  0  0  0  0  0
    6.5917   -1.4976    1.0295 H   0  0  0  0  0  0  0  0  0  0  0  0
    8.1920   -3.4183    1.0260 H   0  0  0  0  0  0  0  0  0  0  0  0
    6.9709   -4.8471   -0.6250 H   0  0  0  0  0  0  0  0  0  0  0  0
    8.6544   -4.6292   -1.0968 H   0  0  0  0  0  0  0  0  0  0  0  0
    7.1592   -4.3071   -3.0595 H   0  0  0  0  0  0  0  0  0  0  0  0
    5.5513   -2.3937   -3.0843 H   0  0  0  0  0  0  0  0  0  0  0  0
    5.1455   -3.5803   -1.8594 H   0  0  0  0  0  0  0  0  0  0  0  0
    7.9791   -2.0592   -3.7594 H   0  0  0  0  0  0  0  0  0  0  0  0
    9.2519   -2.9579   -2.9390 H   0  0  0  0  0  0  0  0  0  0  0  0
    9.1332   -0.6091   -2.0950 H   0  0  0  0  0  0  0  0  0  0  0  0
    9.8542   -2.4403   -0.5543 H   0  0  0  0  0  0  0  0  0  0  0  0
    9.0138   -1.1688    0.3289 H   0  0  0  0  0  0  0  0  0  0  0  0
    7.1237    0.1476   -0.8278 H   0  0  0  0  0  0  0  0  0  0  0  0
    6.6997   -0.2196   -2.4928 H   0  0  0  0  0  0  0  0  0  0  0  0
   -0.1175   -2.9788   -0.1766 H   0  0  0  0  0  0  0  0  0  0  0  0
  1  7  1  0  0  0  0
  1 11  2  0  0  0  0
  1  2  1  0  0  0  0
  2  3  2  0  0  0  0
  2 29  1  0  0  0  0
  3  4  1  0  0  0  0
  3 16  1  0  0  0  0
  4  5  2  0  0  0  0
  4  6  1  0  0  0  0
  6  7  1  0  0  0  0
  6 12  1  0  0  0  0
  7  8  2  0  0  0  0
  8  9  1  0  0  0  0
  8 30  1  0  0  0  0
  9 10  1  0  0  0  0
  9 11  1  0  0  0  0
 10 31  1  0  0  0  0
 10 32  1  0  0  0  0
 10 33  1  0  0  0  0
 12 13  1  0  0  0  0
 12 34  1  0  0  0  0
 12 35  1  0  0  0  0
 13 14  1  0  0  0  0
 13 36  1  0  0  0  0
 13 37  1  0  0  0  0
 14 15  1  0  0  0  0
 14 38  1  0  0  0  0
 14 39  1  0  0  0  0
 15 40  1  0  0  0  0
 15 41  1  0  0  0  0
 15 42  1  0  0  0  0
 16 17  2  0  0  0  0
 16 18  1  0  0  0  0
 18 43  1  0  0  0  0
 19 18  1  1  0  0  0
 19 24  1  0  0  0  0
 19 28  1  0  0  0  0
 19 20  1  0  0  0  0
 20 44  1  0  0  0  0
 20 45  1  0  0  0  0
 21 20  1  0  0  0  0
 21 22  1  0  0  0  0
 21 27  1  0  0  0  0
 21 46  1  1  0  0  0
 22 47  1  0  0  0  0
 22 48  1  0  0  0  0
 23 22  1  0  0  0  0
 23 24  1  0  0  0  0
 23 25  1  0  0  0  0
 23 49  1  6  0  0  0
 24 50  1  0  0  0  0
 24 51  1  0  0  0  0
 25 52  1  0  0  0  0
 25 53  1  0  0  0  0
 26 25  1  0  0  0  0
 26 27  1  0  0  0  0
 26 28  1  0  0  0  0
 26 54  1  6  0  0  0
 27 55  1  0  0  0  0
 27 56  1  0  0  0  0
 28 57  1  0  0  0  0
 28 58  1  0  0  0  0
 29 59  1  0  0  0  0
M  END
$$$$
CHEMBL3650082_8GUR
 OpenBabel12022418113D

 70 72  0  0  1  0  0  0  0  0999 V2000
    3.0032   -2.7180   -1.9949 C   0  0  0  0  0  0  0  0  0  0  0  0
    2.2941   -3.9879   -2.0453 N   0  0  0  0  0  0  0  0  0  0  0  0
    2.3784   -4.9481   -3.0830 C   0  0  0  0  0  0  0  0  0  0  0  0
    2.9954   -4.7457   -4.4793 C   0  0  0  0  0  0  0  0  0  0  0  0
    4.5130   -4.5011   -4.3580 C   0  0  0  0  0  0  0  0  0  0  0  0
    2.8397   -6.0150   -5.3682 C   0  0  0  0  0  0  0  0  0  0  0  0
    2.3453   -3.5978   -5.2720 C   0  0  0  0  0  0  0  0  0  0  0  0
    1.9020   -6.1355   -2.6550 C   0  0  0  0  0  0  0  0  0  0  0  0
    1.5893   -5.9517   -1.2056 C   0  0  0  0  0  0  0  0  0  0  0  0
    1.1055   -6.8608   -0.4192 N   0  0  0  0  0  0  0  0  0  0  0  0
    0.6876   -8.0674   -0.9211 C   0  0  0  0  0  0  0  0  0  0  0  0
    0.1341   -8.2308   -2.0092 O   0  0  0  0  0  0  0  0  0  0  0  0
    0.8261   -9.2770   -0.0614 C   0  0  0  0  0  0  0  0  0  0  0  0
    1.2152  -10.4474   -0.7625 C   0  0  0  0  0  0  0  0  0  0  0  0
    1.3585  -11.6924   -0.1241 C   0  0  0  0  0  0  0  0  0  0  0  0
    1.7264  -12.9383   -0.8929 C   0  0  0  0  0  0  0  0  0  0  0  0
    1.8590  -12.7354   -2.2324 F   0  0  0  0  0  0  0  0  0  0  0  0
    2.9057  -13.4777   -0.4780 F   0  0  0  0  0  0  0  0  0  0  0  0
    0.7964  -13.9253   -0.7554 F   0  0  0  0  0  0  0  0  0  0  0  0
    1.1347  -11.7568    1.2528 C   0  0  0  0  0  0  0  0  0  0  0  0
    0.7353  -10.6113    1.9516 C   0  0  0  0  0  0  0  0  0  0  0  0
    0.5473   -9.3764    1.3087 C   0  0  0  0  0  0  0  0  0  0  0  0
    0.0716   -8.4290    2.1974 O   0  0  0  0  0  0  0  0  0  0  0  0
   -0.5788   -7.2768    1.6315 N   0  0  0  0  0  0  0  0  0  0  0  0
   -1.7693   -6.9234    2.4092 C   0  0  0  0  0  0  0  0  0  0  0  0
   -1.4171   -6.6530    3.8762 C   0  0  0  0  0  0  0  0  0  0  0  0
   -2.3124   -5.6310    1.7709 C   0  0  0  0  0  0  0  0  0  0  0  0
   -2.8173   -8.0334    2.2897 C   0  0  0  0  0  0  0  0  0  0  0  0
    1.9355   -4.6370   -0.8342 N   0  0  0  0  0  0  0  0  0  0  0  0
    1.1408   -3.9063    0.1752 C   0  0  0  0  0  0  0  0  0  0  0  0
    1.3309   -4.3844    1.6233 C   0  0  1  0  0  0  0  0  0  0  0  0
    2.7565   -4.3857    2.1742 C   0  0  0  0  0  0  0  0  0  0  0  0
    2.7187   -3.4203    3.3414 C   0  0  0  0  0  0  0  0  0  0  0  0
    1.2697   -3.4448    3.7468 C   0  0  0  0  0  0  0  0  0  0  0  0
    0.5594   -3.5275    2.5090 O   0  0  0  0  0  0  0  0  0  0  0  0
    2.7662   -2.1355   -1.1017 H   0  0  0  0  0  0  0  0  0  0  0  0
    2.7227   -2.0826   -2.8374 H   0  0  0  0  0  0  0  0  0  0  0  0
    4.0838   -2.8707   -1.9895 H   0  0  0  0  0  0  0  0  0  0  0  0
    4.9957   -5.2937   -3.7730 H   0  0  0  0  0  0  0  0  0  0  0  0
    4.7466   -3.5449   -3.8865 H   0  0  0  0  0  0  0  0  0  0  0  0
    4.9909   -4.4840   -5.3445 H   0  0  0  0  0  0  0  0  0  0  0  0
    3.4121   -6.8608   -4.9678 H   0  0  0  0  0  0  0  0  0  0  0  0
    3.2077   -5.8375   -6.3859 H   0  0  0  0  0  0  0  0  0  0  0  0
    1.7905   -6.3218   -5.4568 H   0  0  0  0  0  0  0  0  0  0  0  0
    2.4894   -2.6228   -4.8056 H   0  0  0  0  0  0  0  0  0  0  0  0
    1.2695   -3.7591   -5.4006 H   0  0  0  0  0  0  0  0  0  0  0  0
    2.7876   -3.5225   -6.2744 H   0  0  0  0  0  0  0  0  0  0  0  0
    1.8284   -7.0655   -3.1832 H   0  0  0  0  0  0  0  0  0  0  0  0
    1.3930  -10.3865   -1.8382 H   0  0  0  0  0  0  0  0  0  0  0  0
    1.2481  -12.7003    1.7852 H   0  0  0  0  0  0  0  0  0  0  0  0
    0.5432  -10.6950    3.0205 H   0  0  0  0  0  0  0  0  0  0  0  0
   -0.8734   -7.5297    0.6936 H   0  0  0  0  0  0  0  0  0  0  0  0
   -0.6607   -5.8669    3.9654 H   0  0  0  0  0  0  0  0  0  0  0  0
   -1.0244   -7.5463    4.3739 H   0  0  0  0  0  0  0  0  0  0  0  0
   -2.2999   -6.3235    4.4351 H   0  0  0  0  0  0  0  0  0  0  0  0
   -1.6447   -4.7821    1.9512 H   0  0  0  0  0  0  0  0  0  0  0  0
   -3.2930   -5.3657    2.1787 H   0  0  0  0  0  0  0  0  0  0  0  0
   -2.4216   -5.7296    0.6833 H   0  0  0  0  0  0  0  0  0  0  0  0
   -2.4743   -8.9622    2.7579 H   0  0  0  0  0  0  0  0  0  0  0  0
   -3.0432   -8.2520    1.2391 H   0  0  0  0  0  0  0  0  0  0  0  0
   -3.7542   -7.7404    2.7749 H   0  0  0  0  0  0  0  0  0  0  0  0
    0.0764   -3.9503   -0.0889 H   0  0  0  0  0  0  0  0  0  0  0  0
    1.3797   -2.8382    0.1645 H   0  0  0  0  0  0  0  0  0  0  0  0
    0.9276   -5.3868    1.7330 H   0  0  0  0  0  0  0  0  0  0  0  0
    3.5193   -4.1201    1.4377 H   0  0  0  0  0  0  0  0  0  0  0  0
    2.9962   -5.3911    2.5392 H   0  0  0  0  0  0  0  0  0  0  0  0
    2.9881   -2.4167    2.9924 H   0  0  0  0  0  0  0  0  0  0  0  0
    3.3931   -3.6937    4.1589 H   0  0  0  0  0  0  0  0  0  0  0  0
    0.9619   -2.5493    4.2945 H   0  0  0  0  0  0  0  0  0  0  0  0
    1.0324   -4.3254    4.3534 H   0  0  0  0  0  0  0  0  0  0  0  0
  1  2  1  0  0  0  0
  1 36  1  0  0  0  0
  1 37  1  0  0  0  0
  1 38  1  0  0  0  0
  2 29  1  0  0  0  0
  2  3  1  0  0  0  0
  3  4  1  0  0  0  0
  3  8  2  0  0  0  0
  4  5  1  0  0  0  0
  4  6  1  0  0  0  0
  4  7  1  0  0  0  0
  5 39  1  0  0  0  0
  5 40  1  0  0  0  0
  5 41  1  0  0  0  0
  6 42  1  0  0  0  0
  6 43  1  0  0  0  0
  6 44  1  0  0  0  0
  7 45  1  0  0  0  0
  7 46  1  0  0  0  0
  7 47  1  0  0  0  0
  8  9  1  0  0  0  0
  8 48  1  0  0  0  0
  9 10  2  0  0  0  0
  9 29  1  0  0  0  0
 10 11  1  0  0  0  0
 11 12  2  0  0  0  0
 11 13  1  0  0  0  0
 13 22  2  0  0  0  0
 13 14  1  0  0  0  0
 14 15  2  0  0  0  0
 14 49  1  0  0  0  0
 15 16  1  0  0  0  0
 15 20  1  0  0  0  0
 16 17  1  0  0  0  0
 16 18  1  0  0  0  0
 16 19  1  0  0  0  0
 20 21  2  0  0  0  0
 20 50  1  0  0  0  0
 21 22  1  0  0  0  0
 21 51  1  0  0  0  0
 22 23  1  0  0  0  0
 23 24  1  0  0  0  0
 24 25  1  0  0  0  0
 24 52  1  0  0  0  0
 25 26  1  0  0  0  0
 25 27  1  0  0  0  0
 25 28  1  0  0  0  0
 26 53  1  0  0  0  0
 26 54  1  0  0  0  0
 26 55  1  0  0  0  0
 27 56  1  0  0  0  0
 27 57  1  0  0  0  0
 27 58  1  0  0  0  0
 28 59  1  0  0  0  0
 28 60  1  0  0  0  0
 28 61  1  0  0  0  0
 29 30  1  0  0  0  0
 30 62  1  0  0  0  0
 30 63  1  0  0  0  0
 31 32  1  0  0  0  0
 31 35  1  0  0  0  0
 31 30  1  0  0  0  0
 31 64  1  1  0  0  0
 32 33  1  0  0  0  0
 32 65  1  0  0  0  0
 32 66  1  0  0  0  0
 33 34  1  0  0  0  0
 33 67  1  0  0  0  0
 33 68  1  0  0  0  0
 34 35  1  0  0  0  0
 34 69  1  0  0  0  0
 34 70  1  0  0  0  0
M  END
$$$$
CHEMBL4089308_8GUR
 OpenBabel12022418113D

 55 56  0  0  0  0  0  0  0  0999 V2000
   -2.4671   -0.7942    0.1118 C   0  0  0  0  0  0  0  0  0  0  0  0
   -2.4871    0.5920    0.0598 C   0  0  0  0  0  0  0  0  0  0  0  0
   -1.2889    1.3061    0.0622 C   0  0  0  0  0  0  0  0  0  0  0  0
   -0.0466    0.6504    0.0582 C   0  0  0  0  0  0  0  0  0  0  0  0
   -0.0303   -0.7547    0.1451 C   0  0  0  0  0  0  0  0  0  0  0  0
   -1.2489   -1.4871    0.1910 C   0  0  0  0  0  0  0  0  0  0  0  0
   -1.3147   -2.9880    0.3074 C   0  0  0  0  0  0  0  0  0  0  0  0
    1.2968   -1.4288    0.1717 C   0  0  0  0  0  0  0  0  0  0  0  0
    1.3860   -2.6318    0.4057 O   0  0  0  0  0  0  0  0  0  0  0  0
    2.4076   -0.6526   -0.1218 N   0  0  0  0  0  0  0  0  0  0  0  0
    2.3741    0.7117   -0.3652 C   0  0  0  0  0  0  0  0  0  0  0  0
    3.3679    1.3025   -0.7951 O   0  0  0  0  0  0  0  0  0  0  0  0
    1.1753    1.3655   -0.1045 N   0  0  0  0  0  0  0  0  0  0  0  0
    1.2076    2.8349   -0.0955 C   0  0  0  0  0  0  0  0  0  0  0  0
    1.1992    3.4529    1.3137 C   0  0  0  0  0  0  0  0  0  0  0  0
    2.4676    3.1740    2.1324 C   0  0  0  0  0  0  0  0  0  0  0  0
    2.4362    3.9339    3.4643 C   0  0  0  0  0  0  0  0  0  0  0  0
    3.6718    3.6728    4.3128 C   0  0  0  0  0  0  0  0  0  0  0  0
    3.7194   -1.2933   -0.1940 C   0  0  0  0  0  0  0  0  0  0  0  0
    4.5918   -0.9444    1.0254 C   0  0  0  0  0  0  0  0  0  0  0  0
    4.1839   -0.2682    1.9660 O   0  0  0  0  0  0  0  0  0  0  0  0
    5.8780   -1.4719    0.9674 N   0  0  0  0  0  0  0  0  0  0  0  0
    6.9154   -1.2616    1.9988 C   0  0  0  0  0  0  0  0  0  0  0  0
    6.4419   -1.7818    3.3661 C   0  0  0  0  0  0  0  0  0  0  0  0
    8.1825   -2.0518    1.6120 C   0  0  0  0  0  0  0  0  0  0  0  0
    7.3014    0.2238    2.0978 C   0  0  0  0  0  0  0  0  0  0  0  0
   -3.4126   -1.3347    0.0953 H   0  0  0  0  0  0  0  0  0  0  0  0
   -3.4370    1.1196    0.0051 H   0  0  0  0  0  0  0  0  0  0  0  0
   -1.3711    2.3872    0.0245 H   0  0  0  0  0  0  0  0  0  0  0  0
   -2.3525   -3.3409    0.3510 H   0  0  0  0  0  0  0  0  0  0  0  0
   -0.8369   -3.3214    1.2336 H   0  0  0  0  0  0  0  0  0  0  0  0
   -0.8503   -3.4648   -0.5598 H   0  0  0  0  0  0  0  0  0  0  0  0
    0.3718    3.2245   -0.6855 H   0  0  0  0  0  0  0  0  0  0  0  0
    2.1002    3.1970   -0.6187 H   0  0  0  0  0  0  0  0  0  0  0  0
    0.3235    3.1101    1.8769 H   0  0  0  0  0  0  0  0  0  0  0  0
    1.0946    4.5394    1.1987 H   0  0  0  0  0  0  0  0  0  0  0  0
    3.3532    3.4783    1.5613 H   0  0  0  0  0  0  0  0  0  0  0  0
    2.5577    2.0999    2.3284 H   0  0  0  0  0  0  0  0  0  0  0  0
    1.5462    3.6445    4.0351 H   0  0  0  0  0  0  0  0  0  0  0  0
    2.3605    5.0113    3.2741 H   0  0  0  0  0  0  0  0  0  0  0  0
    3.7630    2.6109    4.5621 H   0  0  0  0  0  0  0  0  0  0  0  0
    3.6096    4.2347    5.2510 H   0  0  0  0  0  0  0  0  0  0  0  0
    4.5827    3.9861    3.7933 H   0  0  0  0  0  0  0  0  0  0  0  0
    4.2329   -0.9657   -1.1047 H   0  0  0  0  0  0  0  0  0  0  0  0
    3.6214   -2.3828   -0.2318 H   0  0  0  0  0  0  0  0  0  0  0  0
    6.1535   -1.9579    0.1232 H   0  0  0  0  0  0  0  0  0  0  0  0
    6.1593   -2.8392    3.3037 H   0  0  0  0  0  0  0  0  0  0  0  0
    5.5727   -1.2332    3.7396 H   0  0  0  0  0  0  0  0  0  0  0  0
    7.2313   -1.6888    4.1204 H   0  0  0  0  0  0  0  0  0  0  0  0
    7.9891   -3.1302    1.5851 H   0  0  0  0  0  0  0  0  0  0  0  0
    8.9921   -1.8787    2.3327 H   0  0  0  0  0  0  0  0  0  0  0  0
    8.5523   -1.7592    0.6226 H   0  0  0  0  0  0  0  0  0  0  0  0
    6.4557    0.8511    2.3922 H   0  0  0  0  0  0  0  0  0  0  0  0
    7.6706    0.5981    1.1359 H   0  0  0  0  0  0  0  0  0  0  0  0
    8.0951    0.3749    2.8397 H   0  0  0  0  0  0  0  0  0  0  0  0
  1  6  2  0  0  0  0
  1  2  1  0  0  0  0
  1 27  1  0  0  0  0
  2  3  2  0  0  0  0
  2 28  1  0  0  0  0
  3  4  1  0  0  0  0
  3 29  1  0  0  0  0
  4 13  1  0  0  0  0
  4  5  2  0  0  0  0
  5  6  1  0  0  0  0
  5  8  1  0  0  0  0
  6  7  1  0  0  0  0
  7 30  1  0  0  0  0
  7 31  1  0  0  0  0
  7 32  1  0  0  0  0
  8  9  2  0  0  0  0
  8 10  1  0  0  0  0
 10 11  1  0  0  0  0
 10 19  1  0  0  0  0
 11 12  2  0  0  0  0
 11 13  1  0  0  0  0
 13 14  1  0  0  0  0
 14 15  1  0  0  0  0
 14 33  1  0  0  0  0
 14 34  1  0  0  0  0
 15 16  1  0  0  0  0
 15 35  1  0  0  0  0
 15 36  1  0  0  0  0
 16 17  1  0  0  0  0
 16 37  1  0  0  0  0
 16 38  1  0  0  0  0
 17 18  1  0  0  0  0
 17 39  1  0  0  0  0
 17 40  1  0  0  0  0
 18 41  1  0  0  0  0
 18 42  1  0  0  0  0
 18 43  1  0  0  0  0
 19 20  1  0  0  0  0
 19 44  1  0  0  0  0
 19 45  1  0  0  0  0
 20 21  2  0  0  0  0
 20 22  1  0  0  0  0
 22 23  1  0  0  0  0
 22 46  1  0  0  0  0
 23 24  1  0  0  0  0
 23 25  1  0  0  0  0
 23 26  1  0  0  0  0
 24 47  1  0  0  0  0
 24 48  1  0  0  0  0
 24 49  1  0  0  0  0
 25 50  1  0  0  0  0
 25 51  1  0  0  0  0
 25 52  1  0  0  0  0
 26 53  1  0  0  0  0
 26 54  1  0  0  0  0
 26 55  1  0  0  0  0
M  END
$$$$
CHEMBL1215944_5ZTY
 OpenBabel12022418113D

 61 65  0  0  1  0  0  0  0  0999 V2000
    0.8467    5.3894    1.4248 C   0  0  0  0  0  0  0  0  0  0  0  0
    2.3681    5.4288    1.4123 C   0  0  0  0  0  0  0  0  0  0  0  0
    2.9576    4.0605    1.0670 C   0  0  0  0  0  0  0  0  0  0  0  0
    4.4893    4.0814    1.0548 C   0  0  0  0  0  0  0  0  0  0  0  0
    5.0555    2.7016    0.6987 C   0  0  0  0  0  0  0  0  0  0  0  0
    6.5329    2.7049    0.7156 N   0  0  0  0  0  0  0  0  0  0  0  0
    7.2517    2.9037   -0.4535 C   0  0  0  0  0  0  0  0  0  0  0  0
    8.5878    2.9301   -0.5956 C   0  0  0  0  0  0  0  0  0  0  0  0
    9.1224    3.0999   -1.9722 C   0  0  0  0  0  0  0  0  0  0  0  0
    8.3332    3.1848   -2.9138 O   0  0  0  0  0  0  0  0  0  0  0  0
   10.4963    3.1339   -2.1356 N   0  0  0  0  0  0  0  0  0  0  0  0
   11.1020    3.2493   -3.4746 C   0  0  1  0  0  0  0  0  0  0  0  0
   10.7185    2.0064   -4.3267 C   0  0  0  0  0  0  0  0  0  0  0  0
   11.2015    2.1587   -5.7710 C   0  0  2  0  0  0  0  0  0  0  0  0
   12.7343    2.2251   -5.7751 C   0  0  0  0  0  0  0  0  0  0  0  0
   13.2049    3.4176   -4.9244 C   0  0  1  0  0  0  0  0  0  0  0  0
   12.6655    4.6976   -5.5859 C   0  0  0  0  0  0  0  0  0  0  0  0
   11.1321    4.6755   -5.5819 C   0  0  1  0  0  0  0  0  0  0  0  0
   10.6115    3.4527   -6.3549 C   0  0  0  0  0  0  0  0  0  0  0  0
   10.6505    4.5822   -4.1334 C   0  0  0  0  0  0  0  0  0  0  0  0
   12.6596    3.2896   -3.4685 C   0  0  0  0  0  0  0  0  0  0  0  0
    9.3888    2.7604    0.6281 C   0  0  0  0  0  0  0  0  0  0  0  0
   10.6208    2.8120    0.5979 O   0  0  0  0  0  0  0  0  0  0  0  0
    8.6611    2.5052    1.8997 C   0  0  0  0  0  0  0  0  0  0  0  0
    9.4124    2.2801    3.0624 C   0  0  0  0  0  0  0  0  0  0  0  0
    8.7610    1.9940    4.2562 C   0  0  0  0  0  0  0  0  0  0  0  0
    7.3712    1.9437    4.2982 C   0  0  0  0  0  0  0  0  0  0  0  0
    6.6238    2.1899    3.1402 C   0  0  0  0  0  0  0  0  0  0  0  0
    7.2448    2.4734    1.9122 C   0  0  0  0  0  0  0  0  0  0  0  0
    9.8623    1.6298    5.9776 I   0  0  0  0  0  0  0  0  0  0  0  0
    0.4416    6.3751    1.6745 H   0  0  0  0  0  0  0  0  0  0  0  0
    0.4787    4.6738    2.1672 H   0  0  0  0  0  0  0  0  0  0  0  0
    0.4534    5.0995    0.4451 H   0  0  0  0  0  0  0  0  0  0  0  0
    2.7266    5.7530    2.3961 H   0  0  0  0  0  0  0  0  0  0  0  0
    2.7018    6.1752    0.6822 H   0  0  0  0  0  0  0  0  0  0  0  0
    2.5876    3.7429    0.0844 H   0  0  0  0  0  0  0  0  0  0  0  0
    2.6091    3.3202    1.7973 H   0  0  0  0  0  0  0  0  0  0  0  0
    4.8593    4.4032    2.0358 H   0  0  0  0  0  0  0  0  0  0  0  0
    4.8420    4.8228    0.3272 H   0  0  0  0  0  0  0  0  0  0  0  0
    4.7023    2.4278   -0.3055 H   0  0  0  0  0  0  0  0  0  0  0  0
    4.6461    1.9222    1.3506 H   0  0  0  0  0  0  0  0  0  0  0  0
    6.6073    3.0289   -1.3241 H   0  0  0  0  0  0  0  0  0  0  0  0
   11.0855    3.0349   -1.3066 H   0  0  0  0  0  0  0  0  0  0  0  0
    9.6406    1.8286   -4.3358 H   0  0  0  0  0  0  0  0  0  0  0  0
   11.1619    1.1053   -3.8789 H   0  0  0  0  0  0  0  0  0  0  0  0
   10.8661    1.2984   -6.3614 H   0  0  0  0  0  0  0  0  0  0  0  0
   13.0954    2.3276   -6.8070 H   0  0  0  0  0  0  0  0  0  0  0  0
   13.1567    1.2926   -5.3833 H   0  0  0  0  0  0  0  0  0  0  0  0
   14.3005    3.4476   -4.9128 H   0  0  0  0  0  0  0  0  0  0  0  0
   13.0294    4.7765   -6.6186 H   0  0  0  0  0  0  0  0  0  0  0  0
   13.0338    5.5814   -5.0518 H   0  0  0  0  0  0  0  0  0  0  0  0
   10.7456    5.5942   -6.0373 H   0  0  0  0  0  0  0  0  0  0  0  0
    9.5147    3.4173   -6.2956 H   0  0  0  0  0  0  0  0  0  0  0  0
   10.8702    3.5397   -7.4150 H   0  0  0  0  0  0  0  0  0  0  0  0
   11.0466    5.4289   -3.5524 H   0  0  0  0  0  0  0  0  0  0  0  0
    9.5656    4.7071   -4.1247 H   0  0  0  0  0  0  0  0  0  0  0  0
   13.0697    2.3830   -3.0053 H   0  0  0  0  0  0  0  0  0  0  0  0
   13.0228    4.1341   -2.8681 H   0  0  0  0  0  0  0  0  0  0  0  0
   10.4987    2.3193    3.0187 H   0  0  0  0  0  0  0  0  0  0  0  0
    6.8483    1.7125    5.2236 H   0  0  0  0  0  0  0  0  0  0  0  0
    5.5434    2.1436    3.2346 H   0  0  0  0  0  0  0  0  0  0  0  0
  1  2  1  0  0  0  0
  1 31  1  0  0  0  0
  1 32  1  0  0  0  0
  1 33  1  0  0  0  0
  2  3  1  0  0  0  0
  2 34  1  0  0  0  0
  2 35  1  0  0  0  0
  3  4  1  0  0  0  0
  3 36  1  0  0  0  0
  3 37  1  0  0  0  0
  4  5  1  0  0  0  0
  4 38  1  0  0  0  0
  4 39  1  0  0  0  0
  5  6  1  0  0  0  0
  5 40  1  0  0  0  0
  5 41  1  0  0  0  0
  6 29  1  0  0  0  0
  6  7  1  0  0  0  0
  7  8  2  0  0  0  0
  7 42  1  0  0  0  0
  8  9  1  0  0  0  0
  8 22  1  0  0  0  0
  9 10  2  0  0  0  0
  9 11  1  0  0  0  0
 11 43  1  0  0  0  0
 12 11  1  1  0  0  0
 12 20  1  0  0  0  0
 12 21  1  0  0  0  0
 12 13  1  0  0  0  0
 13 44  1  0  0  0  0
 13 45  1  0  0  0  0
 14 13  1  0  0  0  0
 14 15  1  0  0  0  0
 14 19  1  0  0  0  0
 14 46  1  6  0  0  0
 15 47  1  0  0  0  0
 15 48  1  0  0  0  0
 16 15  1  0  0  0  0
 16 17  1  0  0  0  0
 16 21  1  0  0  0  0
 16 49  1  1  0  0  0
 17 50  1  0  0  0  0
 17 51  1  0  0  0  0
 18 17  1  0  0  0  0
 18 19  1  0  0  0  0
 18 20  1  0  0  0  0
 18 52  1  6  0  0  0
 19 53  1  0  0  0  0
 19 54  1  0  0  0  0
 20 55  1  0  0  0  0
 20 56  1  0  0  0  0
 21 57  1  0  0  0  0
 21 58  1  0  0  0  0
 22 23  2  0  0  0  0
 22 24  1  0  0  0  0
 24 29  2  0  0  0  0
 24 25  1  0  0  0  0
 25 26  2  0  0  0  0
 25 59  1  0  0  0  0
 26 27  1  0  0  0  0
 26 30  1  0  0  0  0
 27 28  2  0  0  0  0
 27 60  1  0  0  0  0
 28 29  1  0  0  0  0
 28 61  1  0  0  0  0
M  END
$$$$
CHEMBL3650138_5ZTY
 OpenBabel12022418113D

 65 67  0  0  0  0  0  0  0  0999 V2000
    5.3784    2.1442   -0.5010 C   0  0  0  0  0  0  0  0  0  0  0  0
    4.9589    1.8615    0.9340 C   0  0  0  0  0  0  0  0  0  0  0  0
    4.7994    0.3810    1.3039 C   0  0  0  0  0  0  0  0  0  0  0  0
    6.0005   -0.5593    1.1761 C   0  0  0  0  0  0  0  0  0  0  0  0
    7.0732   -0.5556    2.1851 N   0  0  0  0  0  0  0  0  0  0  0  0
    7.2059    0.2325    3.3257 C   0  0  0  0  0  0  0  0  0  0  0  0
    6.4630    1.2143    3.7529 N   0  0  0  0  0  0  0  0  0  0  0  0
    6.6893    1.7004    5.0308 C   0  0  0  0  0  0  0  0  0  0  0  0
    6.7390    1.0024    6.0436 O   0  0  0  0  0  0  0  0  0  0  0  0
    6.7560    3.1714    5.2477 C   0  0  0  0  0  0  0  0  0  0  0  0
    7.7639    3.6369    6.1210 C   0  0  0  0  0  0  0  0  0  0  0  0
    7.8469    4.9894    6.4952 C   0  0  0  0  0  0  0  0  0  0  0  0
    8.8144    5.4612    7.5518 C   0  0  0  0  0  0  0  0  0  0  0  0
    9.5722    4.4635    8.0838 F   0  0  0  0  0  0  0  0  0  0  0  0
    9.6918    6.3913    7.0846 F   0  0  0  0  0  0  0  0  0  0  0  0
    8.1797    6.0465    8.6063 F   0  0  0  0  0  0  0  0  0  0  0  0
    6.9467    5.8905    5.9089 C   0  0  0  0  0  0  0  0  0  0  0  0
    5.9429    5.4306    5.0455 C   0  0  0  0  0  0  0  0  0  0  0  0
    5.7956    4.0615    4.7385 C   0  0  0  0  0  0  0  0  0  0  0  0
    4.5773    3.6779    4.1418 N   0  0  0  0  0  0  0  0  0  0  0  0
    3.8441    2.5343    4.5116 N   0  0  0  0  0  0  0  0  0  0  0  0
    3.4689    2.5582    5.9357 C   0  0  0  0  0  0  0  0  0  0  0  0
    2.6014    1.3827    6.3281 C   0  0  0  0  0  0  0  0  0  0  0  0
    1.2715    1.3108    5.8907 C   0  0  0  0  0  0  0  0  0  0  0  0
    0.4331    0.2840    6.3288 C   0  0  0  0  0  0  0  0  0  0  0  0
    0.9169   -0.6890    7.2013 C   0  0  0  0  0  0  0  0  0  0  0  0
    2.2447   -0.6495    7.6200 C   0  0  0  0  0  0  0  0  0  0  0  0
    3.0858    0.3781    7.1804 C   0  0  0  0  0  0  0  0  0  0  0  0
    8.6326   -0.3382    4.1926 S   0  0  0  0  0  0  0  0  0  0  0  0
    8.7405   -1.7096    3.1046 C   0  0  0  0  0  0  0  0  0  0  0  0
    9.7385   -2.8350    3.4666 C   0  0  0  0  0  0  0  0  0  0  0  0
    9.1980   -3.6049    4.6893 C   0  0  0  0  0  0  0  0  0  0  0  0
    9.9377   -3.8520    2.3311 C   0  0  0  0  0  0  0  0  0  0  0  0
   11.1279   -2.2590    3.8085 C   0  0  0  0  0  0  0  0  0  0  0  0
    7.9160   -1.6950    2.0987 N   0  0  0  0  0  0  0  0  0  0  0  0
    5.4068    3.2281   -0.6675 H   0  0  0  0  0  0  0  0  0  0  0  0
    4.6680    1.7225   -1.2194 H   0  0  0  0  0  0  0  0  0  0  0  0
    6.3749    1.7511   -0.7158 H   0  0  0  0  0  0  0  0  0  0  0  0
    3.9824    2.3434    1.0849 H   0  0  0  0  0  0  0  0  0  0  0  0
    5.6553    2.3596    1.6108 H   0  0  0  0  0  0  0  0  0  0  0  0
    4.0197   -0.0138    0.6338 H   0  0  0  0  0  0  0  0  0  0  0  0
    4.3732    0.3064    2.3101 H   0  0  0  0  0  0  0  0  0  0  0  0
    6.4498   -0.4560    0.1770 H   0  0  0  0  0  0  0  0  0  0  0  0
    5.5714   -1.5725    1.1931 H   0  0  0  0  0  0  0  0  0  0  0  0
    8.4587    2.9166    6.5588 H   0  0  0  0  0  0  0  0  0  0  0  0
    6.9822    6.9459    6.1773 H   0  0  0  0  0  0  0  0  0  0  0  0
    5.2061    6.1502    4.6904 H   0  0  0  0  0  0  0  0  0  0  0  0
    4.2045    4.2803    3.4096 H   0  0  0  0  0  0  0  0  0  0  0  0
    4.3664    1.6759    4.3085 H   0  0  0  0  0  0  0  0  0  0  0  0
    2.9125    3.4760    6.1654 H   0  0  0  0  0  0  0  0  0  0  0  0
    4.3539    2.5670    6.5826 H   0  0  0  0  0  0  0  0  0  0  0  0
    0.8826    2.0717    5.2185 H   0  0  0  0  0  0  0  0  0  0  0  0
   -0.6012    0.2519    5.9977 H   0  0  0  0  0  0  0  0  0  0  0  0
    0.2578   -1.4770    7.5565 H   0  0  0  0  0  0  0  0  0  0  0  0
    2.6245   -1.4092    8.2972 H   0  0  0  0  0  0  0  0  0  0  0  0
    4.1202    0.3978    7.5255 H   0  0  0  0  0  0  0  0  0  0  0  0
    8.2681   -4.1310    4.4456 H   0  0  0  0  0  0  0  0  0  0  0  0
    8.9860   -2.9430    5.5350 H   0  0  0  0  0  0  0  0  0  0  0  0
    9.9214   -4.3524    5.0370 H   0  0  0  0  0  0  0  0  0  0  0  0
    9.0028   -4.3489    2.0532 H   0  0  0  0  0  0  0  0  0  0  0  0
   10.6426   -4.6375    2.6400 H   0  0  0  0  0  0  0  0  0  0  0  0
   10.3509   -3.3807    1.4326 H   0  0  0  0  0  0  0  0  0  0  0  0
   11.0948   -1.5247    4.6189 H   0  0  0  0  0  0  0  0  0  0  0  0
   11.5744   -1.7685    2.9365 H   0  0  0  0  0  0  0  0  0  0  0  0
   11.8135   -3.0504    4.1364 H   0  0  0  0  0  0  0  0  0  0  0  0
  1  2  1  0  0  0  0
  1 36  1  0  0  0  0
  1 37  1  0  0  0  0
  1 38  1  0  0  0  0
  2  3  1  0  0  0  0
  2 39  1  0  0  0  0
  2 40  1  0  0  0  0
  3  4  1  0  0  0  0
  3 41  1  0  0  0  0
  3 42  1  0  0  0  0
  4  5  1  0  0  0  0
  4 43  1  0  0  0  0
  4 44  1  0  0  0  0
  5 35  1  0  0  0  0
  5  6  1  0  0  0  0
  6  7  2  0  0  0  0
  6 29  1  0  0  0  0
  7  8  1  0  0  0  0
  8  9  2  0  0  0  0
  8 10  1  0  0  0  0
 10 19  2  0  0  0  0
 10 11  1  0  0  0  0
 11 12  2  0  0  0  0
 11 45  1  0  0  0  0
 12 13  1  0  0  0  0
 12 17  1  0  0  0  0
 13 14  1  0  0  0  0
 13 15  1  0  0  0  0
 13 16  1  0  0  0  0
 17 18  2  0  0  0  0
 17 46  1  0  0  0  0
 18 19  1  0  0  0  0
 18 47  1  0  0  0  0
 19 20  1  0  0  0  0
 20 21  1  0  0  0  0
 20 48  1  0  0  0  0
 21 22  1  0  0  0  0
 21 49  1  0  0  0  0
 22 23  1  0  0  0  0
 22 50  1  0  0  0  0
 22 51  1  0  0  0  0
 23 28  2  0  0  0  0
 23 24  1  0  0  0  0
 24 25  2  0  0  0  0
 24 52  1  0  0  0  0
 25 26  1  0  0  0  0
 25 53  1  0  0  0  0
 26 27  2  0  0  0  0
 26 54  1  0  0  0  0
 27 28  1  0  0  0  0
 27 55  1  0  0  0  0
 28 56  1  0  0  0  0
 29 30  1  0  0  0  0
 30 31  1  0  0  0  0
 30 35  2  0  0  0  0
 31 32  1  0  0  0  0
 31 33  1  0  0  0  0
 31 34  1  0  0  0  0
 32 57  1  0  0  0  0
 32 58  1  0  0  0  0
 32 59  1  0  0  0  0
 33 60  1  0  0  0  0
 33 61  1  0  0  0  0
 33 62  1  0  0  0  0
 34 63  1  0  0  0  0
 34 64  1  0  0  0  0
 34 65  1  0  0  0  0
M  END
$$$$
CHEMBL4643098_8GUS
 OpenBabel12022418113D

 85 86  0  0  0  0  0  0  0  0999 V2000
    1.1465    0.0565    0.3898 C   0  0  0  0  0  0  0  0  0  0  0  0
    2.6752   -0.0014    0.1356 C   0  0  0  0  0  0  0  0  0  0  0  0
    3.0601   -1.4962    0.1179 C   0  0  0  0  0  0  0  0  0  0  0  0
    2.9968    0.7405   -1.1726 C   0  0  0  0  0  0  0  0  0  0  0  0
    3.6899    0.1716   -2.2524 C   0  0  0  0  0  0  0  0  0  0  0  0
    4.0295    0.9287   -3.3854 C   0  0  0  0  0  0  0  0  0  0  0  0
    3.6505    2.2674   -3.4593 C   0  0  0  0  0  0  0  0  0  0  0  0
    2.9677    2.8577   -2.4038 C   0  0  0  0  0  0  0  0  0  0  0  0
    2.6460    2.0959   -1.2803 C   0  0  0  0  0  0  0  0  0  0  0  0
    2.6778    4.1869   -2.5572 O   0  0  0  0  0  0  0  0  0  0  0  0
    2.0093    4.7902   -1.4521 C   0  0  0  0  0  0  0  0  0  0  0  0
    1.7861    6.2575   -1.7591 C   0  0  0  0  0  0  0  0  0  0  0  0
    1.0536    6.9211   -0.6009 C   0  0  0  0  0  0  0  0  0  0  0  0
    0.8166    8.3924   -0.8963 C   0  0  0  0  0  0  0  0  0  0  0  0
    0.0792    9.0647    0.2544 C   0  0  0  0  0  0  0  0  0  0  0  0
   -0.1512   10.5369   -0.0623 C   0  0  0  0  0  0  0  0  0  0  0  0
   -0.8882   11.2279    1.0761 C   0  0  0  0  0  0  0  0  0  0  0  0
   -1.1180   12.7046    0.7600 C   0  0  0  0  0  0  0  0  0  0  0  0
   -1.8556   13.3768    1.9102 C   0  0  0  0  0  0  0  0  0  0  0  0
   -2.1150   14.8589    1.6556 C   0  0  0  0  0  0  0  0  0  0  0  0
   -2.8557   15.4694    2.8293 C   0  0  0  0  0  0  0  0  0  0  0  0
   -3.1985   14.8258    3.8145 O   0  0  0  0  0  0  0  0  0  0  0  0
   -3.1079   16.8188    2.6852 N   0  0  0  0  0  0  0  0  0  0  0  0
   -3.7704   17.5495    3.7191 C   0  0  0  0  0  0  0  0  0  0  0  0
   -4.4391   18.8684    3.4546 C   0  0  0  0  0  0  0  0  0  0  0  0
   -5.2724   17.6484    3.7237 C   0  0  0  0  0  0  0  0  0  0  0  0
    4.7521    0.2552   -4.3352 O   0  0  0  0  0  0  0  0  0  0  0  0
    5.1618    1.0076   -5.4722 C   0  0  0  0  0  0  0  0  0  0  0  0
    3.3989    0.6998    1.3327 C   0  0  0  0  0  0  0  0  0  0  0  0
    4.9263    0.7149    1.2033 C   0  0  0  0  0  0  0  0  0  0  0  0
    5.5963    1.4333    2.3718 C   0  0  0  0  0  0  0  0  0  0  0  0
    7.1133    1.3998    2.1901 C   0  0  0  0  0  0  0  0  0  0  0  0
    7.8337    2.0945    3.3391 C   0  0  0  0  0  0  0  0  0  0  0  0
    9.3395    2.0468    3.1400 C   0  0  0  0  0  0  0  0  0  0  0  0
    0.5929   -0.4085   -0.4345 H   0  0  0  0  0  0  0  0  0  0  0  0
    0.7745    1.0822    0.4920 H   0  0  0  0  0  0  0  0  0  0  0  0
    0.8794   -0.4684    1.3135 H   0  0  0  0  0  0  0  0  0  0  0  0
    2.4993   -2.0420   -0.6490 H   0  0  0  0  0  0  0  0  0  0  0  0
    2.8387   -1.9667    1.0837 H   0  0  0  0  0  0  0  0  0  0  0  0
    4.1243   -1.6536   -0.0819 H   0  0  0  0  0  0  0  0  0  0  0  0
    4.0052   -0.8683   -2.2308 H   0  0  0  0  0  0  0  0  0  0  0  0
    3.8858    2.8866   -4.3189 H   0  0  0  0  0  0  0  0  0  0  0  0
    2.1288    2.5539   -0.4445 H   0  0  0  0  0  0  0  0  0  0  0  0
    2.6241    4.7094   -0.5464 H   0  0  0  0  0  0  0  0  0  0  0  0
    1.0369    4.3066   -1.2947 H   0  0  0  0  0  0  0  0  0  0  0  0
    1.2130    6.3567   -2.6885 H   0  0  0  0  0  0  0  0  0  0  0  0
    2.7508    6.7472   -1.9385 H   0  0  0  0  0  0  0  0  0  0  0  0
    1.6398    6.8154    0.3209 H   0  0  0  0  0  0  0  0  0  0  0  0
    0.0939    6.4167   -0.4300 H   0  0  0  0  0  0  0  0  0  0  0  0
    0.2324    8.4929   -1.8191 H   0  0  0  0  0  0  0  0  0  0  0  0
    1.7777    8.8939   -1.0634 H   0  0  0  0  0  0  0  0  0  0  0  0
    0.6627    8.9668    1.1781 H   0  0  0  0  0  0  0  0  0  0  0  0
   -0.8817    8.5633    0.4241 H   0  0  0  0  0  0  0  0  0  0  0  0
   -0.7320   10.6277   -0.9883 H   0  0  0  0  0  0  0  0  0  0  0  0
    0.8126   11.0317   -0.2337 H   0  0  0  0  0  0  0  0  0  0  0  0
   -0.3078   11.1322    2.0022 H   0  0  0  0  0  0  0  0  0  0  0  0
   -1.8510   10.7304    1.2468 H   0  0  0  0  0  0  0  0  0  0  0  0
   -1.7010   12.7993   -0.1638 H   0  0  0  0  0  0  0  0  0  0  0  0
   -0.1551   13.2018    0.5918 H   0  0  0  0  0  0  0  0  0  0  0  0
   -1.2727   13.2618    2.8329 H   0  0  0  0  0  0  0  0  0  0  0  0
   -2.8105   12.8615    2.0785 H   0  0  0  0  0  0  0  0  0  0  0  0
   -2.7207   14.9889    0.7493 H   0  0  0  0  0  0  0  0  0  0  0  0
   -1.1662   15.3913    1.5197 H   0  0  0  0  0  0  0  0  0  0  0  0
   -2.7402   17.3174    1.8838 H   0  0  0  0  0  0  0  0  0  0  0  0
   -3.2924   17.4294    4.6868 H   0  0  0  0  0  0  0  0  0  0  0  0
   -4.4368   19.2658    2.4492 H   0  0  0  0  0  0  0  0  0  0  0  0
   -4.3864   19.6197    4.2347 H   0  0  0  0  0  0  0  0  0  0  0  0
   -5.7686   17.5560    4.6828 H   0  0  0  0  0  0  0  0  0  0  0  0
   -5.8200   17.2086    2.8995 H   0  0  0  0  0  0  0  0  0  0  0  0
    5.8447    0.3869   -6.0592 H   0  0  0  0  0  0  0  0  0  0  0  0
    5.7105    1.9125   -5.1878 H   0  0  0  0  0  0  0  0  0  0  0  0
    4.2989    1.2509   -6.1008 H   0  0  0  0  0  0  0  0  0  0  0  0
    3.1253    0.1958    2.2690 H   0  0  0  0  0  0  0  0  0  0  0  0
    3.0457    1.7337    1.4427 H   0  0  0  0  0  0  0  0  0  0  0  0
    5.2241    1.2112    0.2729 H   0  0  0  0  0  0  0  0  0  0  0  0
    5.3085   -0.3089    1.1611 H   0  0  0  0  0  0  0  0  0  0  0  0
    5.3213    0.9467    3.3150 H   0  0  0  0  0  0  0  0  0  0  0  0
    5.2484    2.4720    2.4235 H   0  0  0  0  0  0  0  0  0  0  0  0
    7.3792    1.8841    1.2420 H   0  0  0  0  0  0  0  0  0  0  0  0
    7.4501    0.3577    2.1220 H   0  0  0  0  0  0  0  0  0  0  0  0
    7.5768    1.6094    4.2877 H   0  0  0  0  0  0  0  0  0  0  0  0
    7.5081    3.1388    3.4065 H   0  0  0  0  0  0  0  0  0  0  0  0
    9.6949    1.0121    3.0947 H   0  0  0  0  0  0  0  0  0  0  0  0
    9.8482    2.5470    3.9689 H   0  0  0  0  0  0  0  0  0  0  0  0
    9.6265    2.5478    2.2097 H   0  0  0  0  0  0  0  0  0  0  0  0
  1  2  1  0  0  0  0
  1 35  1  0  0  0  0
  1 36  1  0  0  0  0
  1 37  1  0  0  0  0
  2  3  1  0  0  0  0
  2  4  1  0  0  0  0
  2 29  1  0  0  0  0
  3 38  1  0  0  0  0
  3 39  1  0  0  0  0
  3 40  1  0  0  0  0
  4  9  2  0  0  0  0
  4  5  1  0  0  0  0
  5  6  2  0  0  0  0
  5 41  1  0  0  0  0
  6  7  1  0  0  0  0
  6 27  1  0  0  0  0
  7  8  2  0  0  0  0
  7 42  1  0  0  0  0
  8  9  1  0  0  0  0
  8 10  1  0  0  0  0
  9 43  1  0  0  0  0
 10 11  1  0  0  0  0
 11 12  1  0  0  0  0
 11 44  1  0  0  0  0
 11 45  1  0  0  0  0
 12 13  1  0  0  0  0
 12 46  1  0  0  0  0
 12 47  1  0  0  0  0
 13 14  1  0  0  0  0
 13 48  1  0  0  0  0
 13 49  1  0  0  0  0
 14 15  1  0  0  0  0
 14 50  1  0  0  0  0
 14 51  1  0  0  0  0
 15 16  1  0  0  0  0
 15 52  1  0  0  0  0
 15 53  1  0  0  0  0
 16 17  1  0  0  0  0
 16 54  1  0  0  0  0
 16 55  1  0  0  0  0
 17 18  1  0  0  0  0
 17 56  1  0  0  0  0
 17 57  1  0  0  0  0
 18 19  1  0  0  0  0
 18 58  1  0  0  0  0
 18 59  1  0  0  0  0
 19 20  1  0  0  0  0
 19 60  1  0  0  0  0
 19 61  1  0  0  0  0
 20 21  1  0  0  0  0
 20 62  1  0  0  0  0
 20 63  1  0  0  0  0
 21 22  2  0  0  0  0
 21 23  1  0  0  0  0
 23 24  1  0  0  0  0
 23 64  1  0  0  0  0
 24 26  1  0  0  0  0
 24 25  1  0  0  0  0
 24 65  1  0  0  0  0
 25 26  1  0  0  0  0
 25 66  1  0  0  0  0
 25 67  1  0  0  0  0
 26 68  1  0  0  0  0
 26 69  1  0  0  0  0
 27 28  1  0  0  0  0
 28 70  1  0  0  0  0
 28 71  1  0  0  0  0
 28 72  1  0  0  0  0
 29 30  1  0  0  0  0
 29 73  1  0  0  0  0
 29 74  1  0  0  0  0
 30 31  1  0  0  0  0
 30 75  1  0  0  0  0
 30 76  1  0  0  0  0
 31 32  1  0  0  0  0
 31 77  1  0  0  0  0
 31 78  1  0  0  0  0
 32 33  1  0  0  0  0
 32 79  1  0  0  0  0
 32 80  1  0  0  0  0
 33 34  1  0  0  0  0
 33 81  1  0  0  0  0
 33 82  1  0  0  0  0
 34 83  1  0  0  0  0
 34 84  1  0  0  0  0
 34 85  1  0  0  0  0
M  END
$$$$
CHEMBL4646867_8GUR
 OpenBabel12022418113D

 69 70  0  0  0  0  0  0  0  0999 V2000
    1.6832    5.5263    9.3124 C   0  0  0  0  0  0  0  0  0  0  0  0
    1.2514    5.7312    7.8799 C   0  0  0  0  0  0  0  0  0  0  0  0
    1.6649    6.8502    7.1514 C   0  0  0  0  0  0  0  0  0  0  0  0
    1.2114    7.0464    5.8455 C   0  0  0  0  0  0  0  0  0  0  0  0
    0.3510    6.1218    5.2532 C   0  0  0  0  0  0  0  0  0  0  0  0
   -0.0549    4.9902    5.9562 C   0  0  0  0  0  0  0  0  0  0  0  0
    0.3882    4.8096    7.2705 C   0  0  0  0  0  0  0  0  0  0  0  0
   -0.8775    4.1347    5.2676 O   0  0  0  0  0  0  0  0  0  0  0  0
   -1.2988    2.9927    6.0088 C   0  0  0  0  0  0  0  0  0  0  0  0
   -2.2735    2.1612    5.1839 C   0  0  0  0  0  0  0  0  0  0  0  0
   -2.7229    0.9081    5.9379 C   0  0  0  0  0  0  0  0  0  0  0  0
   -3.4357    1.2531    7.2448 C   0  0  0  0  0  0  0  0  0  0  0  0
   -3.8745    0.0115    8.0041 C   0  0  0  0  0  0  0  0  0  0  0  0
   -4.5570    0.4253    9.3057 C   0  0  0  0  0  0  0  0  0  0  0  0
   -4.9965   -0.7987   10.0905 C   0  0  0  0  0  0  0  0  0  0  0  0
   -5.6934   -0.4039   11.3903 C   0  0  0  0  0  0  0  0  0  0  0  0
   -6.1185   -1.6626   12.1305 C   0  0  0  0  0  0  0  0  0  0  0  0
   -6.8349   -1.3704   13.4434 C   0  0  0  0  0  0  0  0  0  0  0  0
   -7.2263   -2.6752   14.1157 C   0  0  0  0  0  0  0  0  0  0  0  0
   -6.9318   -3.7761   13.6627 O   0  0  0  0  0  0  0  0  0  0  0  0
   -7.9409   -2.5068   15.2890 N   0  0  0  0  0  0  0  0  0  0  0  0
   -8.3583   -3.6329   16.0547 C   0  0  0  0  0  0  0  0  0  0  0  0
   -7.6686   -3.9507   17.3553 C   0  0  0  0  0  0  0  0  0  0  0  0
   -9.0964   -3.4862   17.3560 C   0  0  0  0  0  0  0  0  0  0  0  0
    2.3892    4.1843    9.5279 C   0  0  0  0  0  0  0  0  0  0  0  0
    2.7811    3.9855   10.9901 C   0  0  0  0  0  0  0  0  0  0  0  0
    3.4752    2.6382   11.1826 C   0  0  0  0  0  0  0  0  0  0  0  0
    3.8759    2.4243   12.6314 C   0  0  0  0  0  0  0  0  0  0  0  0
    0.7925    5.5915    9.9507 H   0  0  0  0  0  0  0  0  0  0  0  0
    2.3496    6.3400    9.6237 H   0  0  0  0  0  0  0  0  0  0  0  0
    2.3381    7.5794    7.5948 H   0  0  0  0  0  0  0  0  0  0  0  0
    1.5260    7.9231    5.2867 H   0  0  0  0  0  0  0  0  0  0  0  0
   -0.0075    6.2816    4.2398 H   0  0  0  0  0  0  0  0  0  0  0  0
    0.0718    3.9525    7.8534 H   0  0  0  0  0  0  0  0  0  0  0  0
   -1.8030    3.3368    6.9166 H   0  0  0  0  0  0  0  0  0  0  0  0
   -0.4305    2.3728    6.2666 H   0  0  0  0  0  0  0  0  0  0  0  0
   -1.8005    1.8735    4.2372 H   0  0  0  0  0  0  0  0  0  0  0  0
   -3.1422    2.7741    4.9140 H   0  0  0  0  0  0  0  0  0  0  0  0
   -1.8517    0.2755    6.1487 H   0  0  0  0  0  0  0  0  0  0  0  0
   -3.3933    0.3254    5.2963 H   0  0  0  0  0  0  0  0  0  0  0  0
   -4.3037    1.8891    7.0324 H   0  0  0  0  0  0  0  0  0  0  0  0
   -2.7724    1.8206    7.9056 H   0  0  0  0  0  0  0  0  0  0  0  0
   -3.0011   -0.6141    8.2264 H   0  0  0  0  0  0  0  0  0  0  0  0
   -4.5581   -0.5848    7.3893 H   0  0  0  0  0  0  0  0  0  0  0  0
   -5.4253    1.0574    9.0838 H   0  0  0  0  0  0  0  0  0  0  0  0
   -3.8678    1.0249    9.9137 H   0  0  0  0  0  0  0  0  0  0  0  0
   -4.1226   -1.4235   10.3145 H   0  0  0  0  0  0  0  0  0  0  0  0
   -5.6749   -1.4027    9.4754 H   0  0  0  0  0  0  0  0  0  0  0  0
   -6.5687    0.2194   11.1710 H   0  0  0  0  0  0  0  0  0  0  0  0
   -5.0151    0.1907   12.0139 H   0  0  0  0  0  0  0  0  0  0  0  0
   -5.2331   -2.2808   12.3287 H   0  0  0  0  0  0  0  0  0  0  0  0
   -6.7766   -2.2576   11.4836 H   0  0  0  0  0  0  0  0  0  0  0  0
   -7.7386   -0.7773   13.2616 H   0  0  0  0  0  0  0  0  0  0  0  0
   -6.1794   -0.8099   14.1196 H   0  0  0  0  0  0  0  0  0  0  0  0
   -8.1589   -1.5720   15.6096 H   0  0  0  0  0  0  0  0  0  0  0  0
   -8.6488   -4.4844   15.4409 H   0  0  0  0  0  0  0  0  0  0  0  0
   -6.9095   -3.2687   17.7181 H   0  0  0  0  0  0  0  0  0  0  0  0
   -7.4631   -4.9945   17.5633 H   0  0  0  0  0  0  0  0  0  0  0  0
   -9.8644   -4.2169   17.5774 H   0  0  0  0  0  0  0  0  0  0  0  0
   -9.3059   -2.4924   17.7305 H   0  0  0  0  0  0  0  0  0  0  0  0
    3.2811    4.1312    8.8913 H   0  0  0  0  0  0  0  0  0  0  0  0
    1.7398    3.3533    9.2274 H   0  0  0  0  0  0  0  0  0  0  0  0
    1.8849    4.0312   11.6212 H   0  0  0  0  0  0  0  0  0  0  0  0
    3.4457    4.7968   11.3096 H   0  0  0  0  0  0  0  0  0  0  0  0
    4.3678    2.5861   10.5483 H   0  0  0  0  0  0  0  0  0  0  0  0
    2.8078    1.8266   10.8692 H   0  0  0  0  0  0  0  0  0  0  0  0
    4.5649    3.2065   12.9651 H   0  0  0  0  0  0  0  0  0  0  0  0
    4.3749    1.4574   12.7469 H   0  0  0  0  0  0  0  0  0  0  0  0
    2.9982    2.4359   13.2853 H   0  0  0  0  0  0  0  0  0  0  0  0
  1  2  1  0  0  0  0
  1 25  1  0  0  0  0
  1 29  1  0  0  0  0
  1 30  1  0  0  0  0
  2  7  2  0  0  0  0
  2  3  1  0  0  0  0
  3  4  2  0  0  0  0
  3 31  1  0  0  0  0
  4  5  1  0  0  0  0
  4 32  1  0  0  0  0
  5  6  2  0  0  0  0
  5 33  1  0  0  0  0
  6  7  1  0  0  0  0
  6  8  1  0  0  0  0
  7 34  1  0  0  0  0
  8  9  1  0  0  0  0
  9 10  1  0  0  0  0
  9 35  1  0  0  0  0
  9 36  1  0  0  0  0
 10 11  1  0  0  0  0
 10 37  1  0  0  0  0
 10 38  1  0  0  0  0
 11 12  1  0  0  0  0
 11 39  1  0  0  0  0
 11 40  1  0  0  0  0
 12 13  1  0  0  0  0
 12 41  1  0  0  0  0
 12 42  1  0  0  0  0
 13 14  1  0  0  0  0
 13 43  1  0  0  0  0
 13 44  1  0  0  0  0
 14 15  1  0  0  0  0
 14 45  1  0  0  0  0
 14 46  1  0  0  0  0
 15 16  1  0  0  0  0
 15 47  1  0  0  0  0
 15 48  1  0  0  0  0
 16 17  1  0  0  0  0
 16 49  1  0  0  0  0
 16 50  1  0  0  0  0
 17 18  1  0  0  0  0
 17 51  1  0  0  0  0
 17 52  1  0  0  0  0
 18 19  1  0  0  0  0
 18 53  1  0  0  0  0
 18 54  1  0  0  0  0
 19 20  2  0  0  0  0
 19 21  1  0  0  0  0
 21 22  1  0  0  0  0
 21 55  1  0  0  0  0
 22 24  1  0  0  0  0
 22 23  1  0  0  0  0
 22 56  1  0  0  0  0
 23 24  1  0  0  0  0
 23 57  1  0  0  0  0
 23 58  1  0  0  0  0
 24 59  1  0  0  0  0
 24 60  1  0  0  0  0
 25 26  1  0  0  0  0
 25 61  1  0  0  0  0
 25 62  1  0  0  0  0
 26 27  1  0  0  0  0
 26 63  1  0  0  0  0
 26 64  1  0  0  0  0
 27 28  1  0  0  0  0
 27 65  1  0  0  0  0
 27 66  1  0  0  0  0
 28 67  1  0  0  0  0
 28 68  1  0  0  0  0
 28 69  1  0  0  0  0
M  END
$$$$
CHEMBL3781481_5ZTY
 OpenBabel12022418113D

 55 57  0  0  0  0  0  0  0  0999 V2000
   -2.4641   -0.7457   -0.0000 C   0  0  0  0  0  0  0  0  0  0  0  0
   -2.4649    0.6393   -0.0411 C   0  0  0  0  0  0  0  0  0  0  0  0
   -1.2555    1.3319    0.0072 C   0  0  0  0  0  0  0  0  0  0  0  0
   -0.0235    0.6529    0.0407 C   0  0  0  0  0  0  0  0  0  0  0  0
   -0.0173   -0.7578    0.0667 C   0  0  0  0  0  0  0  0  0  0  0  0
   -1.2533   -1.4342    0.0768 C   0  0  0  0  0  0  0  0  0  0  0  0
    1.2793   -1.4753    0.0512 C   0  0  0  0  0  0  0  0  0  0  0  0
    2.4486   -0.8067   -0.0090 C   0  0  0  0  0  0  0  0  0  0  0  0
    2.4398    0.6892    0.0097 C   0  0  0  0  0  0  0  0  0  0  0  0
    3.5132    1.3050   -0.0086 O   0  0  0  0  0  0  0  0  0  0  0  0
    1.2188    1.3600    0.0232 N   0  0  0  0  0  0  0  0  0  0  0  0
    1.2544    2.8344    0.0368 C   0  0  0  0  0  0  0  0  0  0  0  0
    1.2453    3.4008    1.4620 C   0  0  0  0  0  0  0  0  0  0  0  0
    1.2323    4.9314    1.5001 C   0  0  0  0  0  0  0  0  0  0  0  0
    1.2419    5.4342    2.9415 C   0  0  0  0  0  0  0  0  0  0  0  0
    1.2095    6.8538    2.9669 O   0  0  0  0  0  0  0  0  0  0  0  0
    3.7475   -1.5779   -0.1460 C   0  0  0  0  0  0  0  0  0  0  0  0
    3.8784   -2.7497    0.1930 O   0  0  0  0  0  0  0  0  0  0  0  0
    4.7882   -0.8746   -0.7106 N   0  0  0  0  0  0  0  0  0  0  0  0
    6.1063   -1.4381   -0.9385 C   0  0  0  0  0  0  0  0  0  0  0  0
    6.3301   -1.9900   -2.3620 C   0  0  0  0  0  0  0  0  0  0  0  0
    5.5121   -3.2595   -2.6532 C   0  0  0  0  0  0  0  0  0  0  0  0
    5.7404   -3.7743   -4.0757 C   0  0  0  0  0  0  0  0  0  0  0  0
    5.4720   -2.6898   -5.1141 C   0  0  0  0  0  0  0  0  0  0  0  0
    6.3152   -1.4488   -4.8444 C   0  0  0  0  0  0  0  0  0  0  0  0
    6.0840   -0.9148   -3.4327 C   0  0  0  0  0  0  0  0  0  0  0  0
    1.2502   -2.8588    0.0433 O   0  0  0  0  0  0  0  0  0  0  0  0
   -3.4070   -1.2898   -0.0322 H   0  0  0  0  0  0  0  0  0  0  0  0
   -3.4021    1.1862   -0.1090 H   0  0  0  0  0  0  0  0  0  0  0  0
   -1.3203    2.4134    0.0018 H   0  0  0  0  0  0  0  0  0  0  0  0
   -1.3276   -2.5157    0.1399 H   0  0  0  0  0  0  0  0  0  0  0  0
    0.4403    3.2431   -0.5687 H   0  0  0  0  0  0  0  0  0  0  0  0
    2.1670    3.1718   -0.4696 H   0  0  0  0  0  0  0  0  0  0  0  0
    2.1293    3.0372    1.9999 H   0  0  0  0  0  0  0  0  0  0  0  0
    0.3713    3.0242    2.0059 H   0  0  0  0  0  0  0  0  0  0  0  0
    0.3459    5.3238    0.9858 H   0  0  0  0  0  0  0  0  0  0  0  0
    2.0969    5.3420    0.9638 H   0  0  0  0  0  0  0  0  0  0  0  0
    2.1351    5.0946    3.4765 H   0  0  0  0  0  0  0  0  0  0  0  0
    0.3626    5.0704    3.4825 H   0  0  0  0  0  0  0  0  0  0  0  0
    2.0537    7.1744    2.6059 H   0  0  0  0  0  0  0  0  0  0  0  0
    4.6776    0.1320   -0.8169 H   0  0  0  0  0  0  0  0  0  0  0  0
    6.3065   -2.2159   -0.1934 H   0  0  0  0  0  0  0  0  0  0  0  0
    6.8174   -0.6232   -0.7575 H   0  0  0  0  0  0  0  0  0  0  0  0
    7.3908   -2.2749   -2.4203 H   0  0  0  0  0  0  0  0  0  0  0  0
    4.4422   -3.0613   -2.5239 H   0  0  0  0  0  0  0  0  0  0  0  0
    5.7820   -4.0481   -1.9405 H   0  0  0  0  0  0  0  0  0  0  0  0
    5.0880   -4.6345   -4.2660 H   0  0  0  0  0  0  0  0  0  0  0  0
    6.7735   -4.1297   -4.1780 H   0  0  0  0  0  0  0  0  0  0  0  0
    4.4082   -2.4214   -5.0968 H   0  0  0  0  0  0  0  0  0  0  0  0
    5.6882   -3.0738   -6.1174 H   0  0  0  0  0  0  0  0  0  0  0  0
    6.0713   -0.6707   -5.5760 H   0  0  0  0  0  0  0  0  0  0  0  0
    7.3770   -1.6913   -4.9768 H   0  0  0  0  0  0  0  0  0  0  0  0
    6.7473   -0.0594   -3.2587 H   0  0  0  0  0  0  0  0  0  0  0  0
    5.0549   -0.5416   -3.3634 H   0  0  0  0  0  0  0  0  0  0  0  0
    0.3955   -3.2075   -0.2365 H   0  0  0  0  0  0  0  0  0  0  0  0
  1  6  2  0  0  0  0
  1  2  1  0  0  0  0
  1 28  1  0  0  0  0
  2  3  2  0  0  0  0
  2 29  1  0  0  0  0
  3  4  1  0  0  0  0
  3 30  1  0  0  0  0
  4 11  1  0  0  0  0
  4  5  2  0  0  0  0
  5  6  1  0  0  0  0
  5  7  1  0  0  0  0
  6 31  1  0  0  0  0
  7  8  2  0  0  0  0
  7 27  1  0  0  0  0
  8  9  1  0  0  0  0
  8 17  1  0  0  0  0
  9 10  2  0  0  0  0
  9 11  1  0  0  0  0
 11 12  1  0  0  0  0
 12 13  1  0  0  0  0
 12 32  1  0  0  0  0
 12 33  1  0  0  0  0
 13 14  1  0  0  0  0
 13 34  1  0  0  0  0
 13 35  1  0  0  0  0
 14 15  1  0  0  0  0
 14 36  1  0  0  0  0
 14 37  1  0  0  0  0
 15 16  1  0  0  0  0
 15 38  1  0  0  0  0
 15 39  1  0  0  0  0
 16 40  1  0  0  0  0
 17 18  2  0  0  0  0
 17 19  1  0  0  0  0
 19 20  1  0  0  0  0
 19 41  1  0  0  0  0
 20 21  1  0  0  0  0
 20 42  1  0  0  0  0
 20 43  1  0  0  0  0
 21 26  1  0  0  0  0
 21 22  1  0  0  0  0
 21 44  1  0  0  0  0
 22 23  1  0  0  0  0
 22 45  1  0  0  0  0
 22 46  1  0  0  0  0
 23 24  1  0  0  0  0
 23 47  1  0  0  0  0
 23 48  1  0  0  0  0
 24 25  1  0  0  0  0
 24 49  1  0  0  0  0
 24 50  1  0  0  0  0
 25 26  1  0  0  0  0
 25 51  1  0  0  0  0
 25 52  1  0  0  0  0
 26 53  1  0  0  0  0
 26 54  1  0  0  0  0
 27 55  1  0  0  0  0
M  END
$$$$
CHEMBL387027_5ZTY
 OpenBabel12032413413D

 57 59  0  0  1  0  0  0  0  0999 V2000
    2.7020   -1.7260    3.5510 C   0  0  0  0  0  0  0  0  0  0  0  0
    2.3300   -1.0620    2.2120 C   0  0  2  0  0  0  0  0  0  0  0  0
    2.4510   -1.8280    1.4370 H   0  0  0  0  0  0  0  0  0  0  0  0
    3.2660    0.1370    1.8050 C   0  0  2  0  0  0  0  0  0  0  0  0
    3.0040    0.3460    0.7580 H   0  0  0  0  0  0  0  0  0  0  0  0
    4.7810   -0.2420    1.7300 C   0  0  0  0  0  0  0  0  0  0  0  0
    5.1110   -1.4110    0.8090 C   0  0  0  0  0  0  0  0  0  0  0  0
    5.4030   -1.1980   -0.5480 C   0  0  0  0  0  0  0  0  0  0  0  0
    5.6720   -2.2770   -1.4020 C   0  0  0  0  0  0  0  0  0  0  0  0
    5.6320   -3.5790   -0.9110 C   0  0  0  0  0  0  0  0  0  0  0  0
    5.3530   -3.8100    0.4320 C   0  0  0  0  0  0  0  0  0  0  0  0
    5.1160   -2.7310    1.2880 C   0  0  0  0  0  0  0  0  0  0  0  0
    5.9270   -4.9100   -1.9610 Cl  0  0  0  0  0  0  0  0  0  0  0  0
    3.0200    1.4710    2.5330 C   0  0  0  0  0  0  0  0  0  0  0  0
    2.1990    1.6030    3.6650 C   0  0  0  0  0  0  0  0  0  0  0  0
    1.7940    2.8540    4.1440 C   0  0  0  0  0  0  0  0  0  0  0  0
    2.2350    4.0110    3.5100 C   0  0  0  0  0  0  0  0  0  0  0  0
    3.0940    3.9130    2.4200 C   0  0  0  0  0  0  0  0  0  0  0  0
    3.4790    2.6590    1.9360 C   0  0  0  0  0  0  0  0  0  0  0  0
    0.8720   -0.8120    2.2280 N   0  0  0  0  0  0  0  0  0  0  0  0
    0.2040    0.0950    1.4270 C   0  0  0  0  0  0  0  0  0  0  0  0
    0.7910    0.8390    0.6410 O   0  0  0  0  0  0  0  0  0  0  0  0
   -1.3500    0.1590    1.5470 C   0  0  0  0  0  0  0  0  0  0  0  0
   -1.8090    0.0330    0.0830 C   0  0  0  0  0  0  0  0  0  0  0  0
   -1.9620   -0.9620    2.3980 C   0  0  0  0  0  0  0  0  0  0  0  0
   -1.6070    1.4310    2.1870 O   0  0  0  0  0  0  0  0  0  0  0  0
   -2.9150    1.8520    2.1820 C   0  0  0  0  0  0  0  0  0  0  0  0
   -3.4980    2.2130    3.3880 C   0  0  0  0  0  0  0  0  0  0  0  0
   -4.8300    2.6360    3.3820 C   0  0  0  0  0  0  0  0  0  0  0  0
   -5.5100    2.7150    2.1740 C   0  0  0  0  0  0  0  0  0  0  0  0
   -4.8300    2.3840    1.0170 C   0  0  0  0  0  0  0  0  0  0  0  0
   -3.5430    1.9600    0.9980 N   0  0  0  0  0  0  0  0  0  0  0  0
   -7.1560    3.1970    2.1140 Cl  0  0  0  0  0  0  0  0  0  0  0  0
    2.3420   -2.7620    3.5660 H   0  0  0  0  0  0  0  0  0  0  0  0
    2.2390   -1.2360    4.4120 H   0  0  0  0  0  0  0  0  0  0  0  0
    3.7760   -1.7550    3.7420 H   0  0  0  0  0  0  0  0  0  0  0  0
    5.1910   -0.4320    2.7290 H   0  0  0  0  0  0  0  0  0  0  0  0
    5.3540    0.6210    1.3630 H   0  0  0  0  0  0  0  0  0  0  0  0
    5.4290   -0.1890   -0.9570 H   0  0  0  0  0  0  0  0  0  0  0  0
    5.9070   -2.0960   -2.4470 H   0  0  0  0  0  0  0  0  0  0  0  0
    5.3180   -4.8250    0.8210 H   0  0  0  0  0  0  0  0  0  0  0  0
    4.9250   -2.9430    2.3340 H   0  0  0  0  0  0  0  0  0  0  0  0
    1.7730    0.7470    4.1680 H   0  0  0  0  0  0  0  0  0  0  0  0
    1.0980    2.9180    4.9710 H   0  0  0  0  0  0  0  0  0  0  0  0
    1.8790    4.9820    3.8440 H   0  0  0  0  0  0  0  0  0  0  0  0
    3.4180    4.8150    1.9080 H   0  0  0  0  0  0  0  0  0  0  0  0
    4.0880    2.6210    1.0360 H   0  0  0  0  0  0  0  0  0  0  0  0
    0.3320   -1.5960    2.5640 H   0  0  0  0  0  0  0  0  0  0  0  0
   -1.3080   -0.8060   -0.4130 H   0  0  0  0  0  0  0  0  0  0  0  0
   -1.5750    0.9440   -0.4830 H   0  0  0  0  0  0  0  0  0  0  0  0
   -2.8840   -0.1510    0.0000 H   0  0  0  0  0  0  0  0  0  0  0  0
   -1.7080   -1.9540    2.0110 H   0  0  0  0  0  0  0  0  0  0  0  0
   -3.0550   -0.8880    2.4230 H   0  0  0  0  0  0  0  0  0  0  0  0
   -1.6250   -0.8940    3.4400 H   0  0  0  0  0  0  0  0  0  0  0  0
   -2.9380    2.1520    4.3150 H   0  0  0  0  0  0  0  0  0  0  0  0
   -5.3250    2.9000    4.3120 H   0  0  0  0  0  0  0  0  0  0  0  0
   -5.3020    2.4430    0.0410 H   0  0  0  0  0  0  0  0  0  0  0  0
  1  2  1  0  0  0  0
  1 34  1  0  0  0  0
  1 35  1  0  0  0  0
  1 36  1  0  0  0  0
  2 20  1  0  0  0  0
  2  3  1  6  0  0  0
  2  4  1  0  0  0  0
  4  6  1  0  0  0  0
  4 14  1  0  0  0  0
  4  5  1  6  0  0  0
  6  7  1  0  0  0  0
  6 37  1  0  0  0  0
  6 38  1  0  0  0  0
  7  8  2  0  0  0  0
  7 12  1  0  0  0  0
  8  9  1  0  0  0  0
  8 39  1  0  0  0  0
  9 10  2  0  0  0  0
  9 40  1  0  0  0  0
 10 11  1  0  0  0  0
 10 13  1  0  0  0  0
 11 12  2  0  0  0  0
 11 41  1  0  0  0  0
 12 42  1  0  0  0  0
 14 15  2  0  0  0  0
 14 19  1  0  0  0  0
 15 16  1  0  0  0  0
 15 43  1  0  0  0  0
 16 17  2  0  0  0  0
 16 44  1  0  0  0  0
 17 18  1  0  0  0  0
 17 45  1  0  0  0  0
 18 19  2  0  0  0  0
 18 46  1  0  0  0  0
 19 47  1  0  0  0  0
 20 21  1  0  0  0  0
 20 48  1  0  0  0  0
 21 22  2  0  0  0  0
 21 23  1  0  0  0  0
 23 24  1  0  0  0  0
 23 25  1  0  0  0  0
 23 26  1  0  0  0  0
 24 49  1  0  0  0  0
 24 50  1  0  0  0  0
 24 51  1  0  0  0  0
 25 52  1  0  0  0  0
 25 53  1  0  0  0  0
 25 54  1  0  0  0  0
 26 27  1  0  0  0  0
 27 28  2  0  0  0  0
 27 32  1  0  0  0  0
 28 29  1  0  0  0  0
 28 55  1  0  0  0  0
 29 30  2  0  0  0  0
 29 56  1  0  0  0  0
 30 31  1  0  0  0  0
 30 33  1  0  0  0  0
 31 32  2  0  0  0  0
 31 57  1  0  0  0  0
M  END
$$$$
CHEMBL3780852_5ZTY
 OpenBabel12022418113D

 62 66  0  0  1  0  0  0  0  0999 V2000
   -2.4151    0.6569   -0.0138 C   0  0  0  0  0  0  0  0  0  0  0  0
   -2.3439   -0.7205   -0.0075 C   0  0  0  0  0  0  0  0  0  0  0  0
   -1.1200   -1.3722    0.0034 C   0  0  0  0  0  0  0  0  0  0  0  0
    0.0874   -0.6439   -0.0083 C   0  0  0  0  0  0  0  0  0  0  0  0
    0.0352    0.7653   -0.0110 C   0  0  0  0  0  0  0  0  0  0  0  0
   -1.2302    1.3959   -0.0040 C   0  0  0  0  0  0  0  0  0  0  0  0
    1.3067    1.5244   -0.0788 C   0  0  0  0  0  0  0  0  0  0  0  0
    2.4949    0.9043   -0.2531 C   0  0  0  0  0  0  0  0  0  0  0  0
    2.5516   -0.5881   -0.1780 C   0  0  0  0  0  0  0  0  0  0  0  0
    3.6440   -1.1595   -0.2289 O   0  0  0  0  0  0  0  0  0  0  0  0
    1.3548   -1.2983   -0.0353 N   0  0  0  0  0  0  0  0  0  0  0  0
    1.4390   -2.7693    0.0084 C   0  0  0  0  0  0  0  0  0  0  0  0
    1.3554   -3.3845   -1.3927 C   0  0  0  0  0  0  0  0  0  0  0  0
    1.3653   -4.9174   -1.3763 C   0  0  0  0  0  0  0  0  0  0  0  0
    1.2977   -5.4573   -2.8084 C   0  0  0  0  0  0  0  0  0  0  0  0
    1.3121   -6.9758   -2.8701 C   0  0  0  0  0  0  0  0  0  0  0  0
    3.7275    1.7407   -0.5500 C   0  0  0  0  0  0  0  0  0  0  0  0
    3.6698    2.9625   -0.6754 O   0  0  0  0  0  0  0  0  0  0  0  0
    4.9253    1.0725   -0.7361 N   0  0  0  0  0  0  0  0  0  0  0  0
    6.1977    1.7523   -1.0515 C   0  0  1  0  0  0  0  0  0  0  0  0
    6.1054    2.5621   -2.3768 C   0  0  0  0  0  0  0  0  0  0  0  0
    7.4280    3.2890   -2.6734 C   0  0  2  0  0  0  0  0  0  0  0  0
    8.5448    2.2494   -2.8402 C   0  0  0  0  0  0  0  0  0  0  0  0
    8.6849    1.4260   -1.5497 C   0  0  1  0  0  0  0  0  0  0  0  0
    9.0443    2.3742   -0.3937 C   0  0  0  0  0  0  0  0  0  0  0  0
    7.9300    3.4131   -0.2051 C   0  0  2  0  0  0  0  0  0  0  0  0
    6.6137    2.6888    0.1102 C   0  0  0  0  0  0  0  0  0  0  0  0
    7.7640    4.2250   -1.5001 C   0  0  0  0  0  0  0  0  0  0  0  0
    7.3458    0.7167   -1.2399 C   0  0  0  0  0  0  0  0  0  0  0  0
    1.2323    2.9020    0.0291 O   0  0  0  0  0  0  0  0  0  0  0  0
   -3.4758   -1.4400   -0.0261 F   0  0  0  0  0  0  0  0  0  0  0  0
   -3.3813    1.1509   -0.0373 H   0  0  0  0  0  0  0  0  0  0  0  0
   -1.1523   -2.4544   -0.0028 H   0  0  0  0  0  0  0  0  0  0  0  0
   -1.3491    2.4748   -0.0110 H   0  0  0  0  0  0  0  0  0  0  0  0
    0.6707   -3.1722    0.6775 H   0  0  0  0  0  0  0  0  0  0  0  0
    2.3905   -3.0580    0.4702 H   0  0  0  0  0  0  0  0  0  0  0  0
    2.1983   -3.0229   -1.9935 H   0  0  0  0  0  0  0  0  0  0  0  0
    0.4452   -3.0405   -1.8978 H   0  0  0  0  0  0  0  0  0  0  0  0
    0.5109   -5.2905   -0.7987 H   0  0  0  0  0  0  0  0  0  0  0  0
    2.2748   -5.2811   -0.8833 H   0  0  0  0  0  0  0  0  0  0  0  0
    2.1467   -5.0725   -3.3854 H   0  0  0  0  0  0  0  0  0  0  0  0
    0.3857   -5.0926   -3.2953 H   0  0  0  0  0  0  0  0  0  0  0  0
    2.2280   -7.3816   -2.4298 H   0  0  0  0  0  0  0  0  0  0  0  0
    1.2649   -7.3062   -3.9135 H   0  0  0  0  0  0  0  0  0  0  0  0
    0.4534   -7.4024   -2.3428 H   0  0  0  0  0  0  0  0  0  0  0  0
    4.9344    0.0681   -0.5584 H   0  0  0  0  0  0  0  0  0  0  0  0
    5.3061    3.3092   -2.3389 H   0  0  0  0  0  0  0  0  0  0  0  0
    5.8538    1.8911   -3.2091 H   0  0  0  0  0  0  0  0  0  0  0  0
    7.3290    3.8746   -3.5945 H   0  0  0  0  0  0  0  0  0  0  0  0
    9.4919    2.7526   -3.0741 H   0  0  0  0  0  0  0  0  0  0  0  0
    8.3206    1.5883   -3.6859 H   0  0  0  0  0  0  0  0  0  0  0  0
    9.4814    0.6837   -1.6750 H   0  0  0  0  0  0  0  0  0  0  0  0
    9.9942    2.8825   -0.6023 H   0  0  0  0  0  0  0  0  0  0  0  0
    9.1864    1.8019    0.5309 H   0  0  0  0  0  0  0  0  0  0  0  0
    8.1854    4.0843    0.6223 H   0  0  0  0  0  0  0  0  0  0  0  0
    6.7207    2.1057    1.0355 H   0  0  0  0  0  0  0  0  0  0  0  0
    5.8399    3.4376    0.3129 H   0  0  0  0  0  0  0  0  0  0  0  0
    6.9680    4.9700   -1.3757 H   0  0  0  0  0  0  0  0  0  0  0  0
    8.6863    4.7787   -1.7142 H   0  0  0  0  0  0  0  0  0  0  0  0
    7.1024    0.0217   -2.0543 H   0  0  0  0  0  0  0  0  0  0  0  0
    7.4576    0.1044   -0.3356 H   0  0  0  0  0  0  0  0  0  0  0  0
    0.3464    3.2515   -0.1117 H   0  0  0  0  0  0  0  0  0  0  0  0
  1  6  2  0  0  0  0
  1  2  1  0  0  0  0
  1 32  1  0  0  0  0
  2  3  2  0  0  0  0
  2 31  1  0  0  0  0
  3  4  1  0  0  0  0
  3 33  1  0  0  0  0
  4 11  1  0  0  0  0
  4  5  2  0  0  0  0
  5  6  1  0  0  0  0
  5  7  1  0  0  0  0
  6 34  1  0  0  0  0
  7  8  2  0  0  0  0
  7 30  1  0  0  0  0
  8  9  1  0  0  0  0
  8 17  1  0  0  0  0
  9 10  2  0  0  0  0
  9 11  1  0  0  0  0
 11 12  1  0  0  0  0
 12 13  1  0  0  0  0
 12 35  1  0  0  0  0
 12 36  1  0  0  0  0
 13 14  1  0  0  0  0
 13 37  1  0  0  0  0
 13 38  1  0  0  0  0
 14 15  1  0  0  0  0
 14 39  1  0  0  0  0
 14 40  1  0  0  0  0
 15 16  1  0  0  0  0
 15 41  1  0  0  0  0
 15 42  1  0  0  0  0
 16 43  1  0  0  0  0
 16 44  1  0  0  0  0
 16 45  1  0  0  0  0
 17 18  2  0  0  0  0
 17 19  1  0  0  0  0
 19 46  1  0  0  0  0
 20 19  1  1  0  0  0
 20 27  1  0  0  0  0
 20 29  1  0  0  0  0
 20 21  1  0  0  0  0
 21 47  1  0  0  0  0
 21 48  1  0  0  0  0
 22 21  1  0  0  0  0
 22 23  1  0  0  0  0
 22 28  1  0  0  0  0
 22 49  1  6  0  0  0
 23 50  1  0  0  0  0
 23 51  1  0  0  0  0
 24 23  1  0  0  0  0
 24 25  1  0  0  0  0
 24 29  1  0  0  0  0
 24 52  1  6  0  0  0
 25 53  1  0  0  0  0
 25 54  1  0  0  0  0
 26 25  1  0  0  0  0
 26 27  1  0  0  0  0
 26 28  1  0  0  0  0
 26 55  1  1  0  0  0
 27 56  1  0  0  0  0
 27 57  1  0  0  0  0
 28 58  1  0  0  0  0
 28 59  1  0  0  0  0
 29 60  1  0  0  0  0
 29 61  1  0  0  0  0
 30 62  1  0  0  0  0
M  END
$$$$
CHEMBL4760014_8GUT
 OpenBabel12022418123D

 51 53  0  0  0  0  0  0  0  0999 V2000
   -0.6939    1.1128   -0.0957 C   0  0  0  0  0  0  0  0  0  0  0  0
    0.6501    1.1552   -0.0474 C   0  0  0  0  0  0  0  0  0  0  0  0
    1.3778    2.4682   -0.0968 C   0  0  0  0  0  0  0  0  0  0  0  0
    1.3626   -0.0453    0.0962 N   0  0  0  0  0  0  0  0  0  0  0  0
    2.8292   -0.0784    0.0725 C   0  0  0  0  0  0  0  0  0  0  0  0
    3.4488   -0.2598   -1.3066 C   0  0  0  0  0  0  0  0  0  0  0  0
    2.8967   -1.1120   -2.2785 C   0  0  0  0  0  0  0  0  0  0  0  0
    3.5862   -1.3877   -3.4634 C   0  0  0  0  0  0  0  0  0  0  0  0
    4.8332   -0.8177   -3.6793 C   0  0  0  0  0  0  0  0  0  0  0  0
    5.3895    0.0484   -2.7501 C   0  0  0  0  0  0  0  0  0  0  0  0
    4.6995    0.3288   -1.5663 C   0  0  0  0  0  0  0  0  0  0  0  0
    5.5167   -1.1227   -4.7906 F   0  0  0  0  0  0  0  0  0  0  0  0
    0.7102   -1.2725    0.3073 C   0  0  0  0  0  0  0  0  0  0  0  0
    1.3002   -2.3096    0.6161 O   0  0  0  0  0  0  0  0  0  0  0  0
   -0.7707   -1.2975    0.0919 C   0  0  0  0  0  0  0  0  0  0  0  0
   -1.4060   -0.1312   -0.0896 C   0  0  0  0  0  0  0  0  0  0  0  0
   -1.5725   -2.5568    0.0293 C   0  0  0  0  0  0  0  0  0  0  0  0
   -2.7024   -2.5638   -0.4555 O   0  0  0  0  0  0  0  0  0  0  0  0
   -0.9706   -3.6835    0.5395 N   0  0  0  0  0  0  0  0  0  0  0  0
   -1.6041   -5.0030    0.5183 C   0  0  0  0  0  0  0  0  0  0  0  0
   -1.3299   -5.7285   -0.8123 C   0  0  0  0  0  0  0  0  0  0  0  0
   -0.3303   -6.8878   -0.7804 C   0  0  0  0  0  0  0  0  0  0  0  0
   -0.9255   -8.1905   -0.2430 C   0  0  0  0  0  0  0  0  0  0  0  0
   -1.0793   -8.2611    1.2716 C   0  0  0  0  0  0  0  0  0  0  0  0
   -1.8973   -7.1365    1.8961 C   0  0  0  0  0  0  0  0  0  0  0  0
   -1.2250   -5.7697    1.7898 C   0  0  0  0  0  0  0  0  0  0  0  0
   -1.4205    2.2445   -0.1896 F   0  0  0  0  0  0  0  0  0  0  0  0
    0.6922    3.3219   -0.1452 H   0  0  0  0  0  0  0  0  0  0  0  0
    2.0241    2.5224   -0.9797 H   0  0  0  0  0  0  0  0  0  0  0  0
    1.9863    2.6116    0.8016 H   0  0  0  0  0  0  0  0  0  0  0  0
    3.1856   -0.9116    0.6942 H   0  0  0  0  0  0  0  0  0  0  0  0
    3.2199    0.8247    0.5525 H   0  0  0  0  0  0  0  0  0  0  0  0
    1.9402   -1.6003   -2.1182 H   0  0  0  0  0  0  0  0  0  0  0  0
    3.1701   -2.0647   -4.2016 H   0  0  0  0  0  0  0  0  0  0  0  0
    6.3685    0.4798   -2.9372 H   0  0  0  0  0  0  0  0  0  0  0  0
    5.1649    0.9860   -0.8336 H   0  0  0  0  0  0  0  0  0  0  0  0
   -2.4791   -0.0808   -0.2611 H   0  0  0  0  0  0  0  0  0  0  0  0
    0.0081   -3.6170    0.8228 H   0  0  0  0  0  0  0  0  0  0  0  0
   -2.6857   -4.8186    0.5585 H   0  0  0  0  0  0  0  0  0  0  0  0
   -0.9856   -5.0040   -1.5620 H   0  0  0  0  0  0  0  0  0  0  0  0
   -2.2843   -6.1106   -1.1986 H   0  0  0  0  0  0  0  0  0  0  0  0
    0.5833   -6.6159   -0.2406 H   0  0  0  0  0  0  0  0  0  0  0  0
   -0.0248   -7.0819   -1.8171 H   0  0  0  0  0  0  0  0  0  0  0  0
   -0.2710   -9.0178   -0.5469 H   0  0  0  0  0  0  0  0  0  0  0  0
   -1.8946   -8.3827   -0.7199 H   0  0  0  0  0  0  0  0  0  0  0  0
   -0.0872   -8.2952    1.7375 H   0  0  0  0  0  0  0  0  0  0  0  0
   -1.5631   -9.2161    1.5193 H   0  0  0  0  0  0  0  0  0  0  0  0
   -2.0188   -7.3725    2.9609 H   0  0  0  0  0  0  0  0  0  0  0  0
   -2.9062   -7.1112    1.4677 H   0  0  0  0  0  0  0  0  0  0  0  0
   -1.5412   -5.1666    2.6518 H   0  0  0  0  0  0  0  0  0  0  0  0
   -0.1358   -5.8623    1.8858 H   0  0  0  0  0  0  0  0  0  0  0  0
  1 16  1  0  0  0  0
  1  2  2  0  0  0  0
  1 27  1  0  0  0  0
  2  3  1  0  0  0  0
  2  4  1  0  0  0  0
  3 28  1  0  0  0  0
  3 29  1  0  0  0  0
  3 30  1  0  0  0  0
  4  5  1  0  0  0  0
  4 13  1  0  0  0  0
  5  6  1  0  0  0  0
  5 31  1  0  0  0  0
  5 32  1  0  0  0  0
  6 11  2  0  0  0  0
  6  7  1  0  0  0  0
  7  8  2  0  0  0  0
  7 33  1  0  0  0  0
  8  9  1  0  0  0  0
  8 34  1  0  0  0  0
  9 10  2  0  0  0  0
  9 12  1  0  0  0  0
 10 11  1  0  0  0  0
 10 35  1  0  0  0  0
 11 36  1  0  0  0  0
 13 14  2  0  0  0  0
 13 15  1  0  0  0  0
 15 16  2  0  0  0  0
 15 17  1  0  0  0  0
 16 37  1  0  0  0  0
 17 18  2  0  0  0  0
 17 19  1  0  0  0  0
 19 20  1  0  0  0  0
 19 38  1  0  0  0  0
 20 26  1  0  0  0  0
 20 21  1  0  0  0  0
 20 39  1  0  0  0  0
 21 22  1  0  0  0  0
 21 40  1  0  0  0  0
 21 41  1  0  0  0  0
 22 23  1  0  0  0  0
 22 42  1  0  0  0  0
 22 43  1  0  0  0  0
 23 24  1  0  0  0  0
 23 44  1  0  0  0  0
 23 45  1  0  0  0  0
 24 25  1  0  0  0  0
 24 46  1  0  0  0  0
 24 47  1  0  0  0  0
 25 26  1  0  0  0  0
 25 48  1  0  0  0  0
 25 49  1  0  0  0  0
 26 50  1  0  0  0  0
 26 51  1  0  0  0  0
M  END
$$$$
CHEMBL4559193_6PT0
 OpenBabel12022418123D

 49 52  0  0  0  0  0  0  0  0999 V2000
   -1.6417   -0.8224    0.0624 C   0  0  0  0  0  0  0  0  0  0  0  0
   -1.4426    0.5606    0.0533 C   0  0  0  0  0  0  0  0  0  0  0  0
   -0.1483    1.1073    0.0088 C   0  0  0  0  0  0  0  0  0  0  0  0
    0.9344    0.2668   -0.0720 C   0  0  0  0  0  0  0  0  0  0  0  0
    0.7194   -1.1256    0.0257 C   0  0  0  0  0  0  0  0  0  0  0  0
   -0.5469   -1.6876    0.0417 C   0  0  0  0  0  0  0  0  0  0  0  0
    2.2332   -2.0143   -0.0415 S   0  0  0  0  0  0  0  0  0  0  0  0
    3.0224   -0.5231   -0.6935 C   0  0  0  0  0  0  0  0  0  0  0  0
    4.0614   -0.6278   -1.4626 N   0  0  0  0  0  0  0  0  0  0  0  0
    4.8003   -1.7417   -1.3011 C   0  0  0  0  0  0  0  0  0  0  0  0
    5.6603   -1.7484   -0.3700 O   0  0  0  0  0  0  0  0  0  0  0  0
    4.6752   -3.0045   -2.1401 C   0  0  0  0  0  0  0  0  0  0  0  0
    5.7001   -3.8977   -1.7692 C   0  0  0  0  0  0  0  0  0  0  0  0
    6.5049   -4.4516   -2.7313 C   0  0  0  0  0  0  0  0  0  0  0  0
    6.1578   -4.3311   -4.0674 C   0  0  0  0  0  0  0  0  0  0  0  0
    5.1901   -3.4394   -4.4945 C   0  0  0  0  0  0  0  0  0  0  0  0
    4.2446   -3.0663   -3.5268 C   0  0  0  0  0  0  0  0  0  0  0  0
    2.9427   -3.3987   -3.9703 C   0  0  0  0  0  0  0  0  0  0  0  0
    2.6812   -3.8118   -5.3031 C   0  0  0  0  0  0  0  0  0  0  0  0
    3.6817   -3.7191   -6.2791 C   0  0  0  0  0  0  0  0  0  0  0  0
    4.9524   -3.4411   -5.8595 C   0  0  0  0  0  0  0  0  0  0  0  0
    2.2700    0.5964   -0.3111 N   0  0  0  0  0  0  0  0  0  0  0  0
    2.7384    1.9986   -0.3201 C   0  0  0  0  0  0  0  0  0  0  0  0
    2.8375    2.6533    1.0777 C   0  0  0  0  0  0  0  0  0  0  0  0
    4.0259    2.2682    1.9707 C   0  0  0  0  0  0  0  0  0  0  0  0
    5.3932    2.5959    1.3689 C   0  0  0  0  0  0  0  0  0  0  0  0
    6.5340    2.1985    2.2981 C   0  0  0  0  0  0  0  0  0  0  0  0
   -2.6518   -1.2355    0.0582 H   0  0  0  0  0  0  0  0  0  0  0  0
   -2.3136    1.2231    0.0650 H   0  0  0  0  0  0  0  0  0  0  0  0
   -0.0461    2.1761   -0.0608 H   0  0  0  0  0  0  0  0  0  0  0  0
   -0.6823   -2.7582    0.0234 H   0  0  0  0  0  0  0  0  0  0  0  0
    6.0051   -3.9682   -0.7370 H   0  0  0  0  0  0  0  0  0  0  0  0
    7.4976   -4.8144   -2.4698 H   0  0  0  0  0  0  0  0  0  0  0  0
    6.1707   -5.2769   -4.6319 H   0  0  0  0  0  0  0  0  0  0  0  0
    2.1422   -3.5412   -3.2365 H   0  0  0  0  0  0  0  0  0  0  0  0
    1.7277   -4.2490   -5.5765 H   0  0  0  0  0  0  0  0  0  0  0  0
    3.5002   -3.9973   -7.3101 H   0  0  0  0  0  0  0  0  0  0  0  0
    5.7791   -3.4780   -6.5593 H   0  0  0  0  0  0  0  0  0  0  0  0
    2.0335    2.5867   -0.9013 H   0  0  0  0  0  0  0  0  0  0  0  0
    3.6958    2.0888   -0.8514 H   0  0  0  0  0  0  0  0  0  0  0  0
    1.9158    2.4837    1.6484 H   0  0  0  0  0  0  0  0  0  0  0  0
    2.8890    3.7386    0.9239 H   0  0  0  0  0  0  0  0  0  0  0  0
    3.9650    1.2074    2.2314 H   0  0  0  0  0  0  0  0  0  0  0  0
    3.9305    2.8246    2.9210 H   0  0  0  0  0  0  0  0  0  0  0  0
    5.4647    3.6702    1.1600 H   0  0  0  0  0  0  0  0  0  0  0  0
    5.5207    2.0673    0.4208 H   0  0  0  0  0  0  0  0  0  0  0  0
    6.5087    2.7740    3.2284 H   0  0  0  0  0  0  0  0  0  0  0  0
    7.4985    2.3850    1.8130 H   0  0  0  0  0  0  0  0  0  0  0  0
    6.4841    1.1344    2.5489 H   0  0  0  0  0  0  0  0  0  0  0  0
  1  6  2  0  0  0  0
  1  2  1  0  0  0  0
  1 28  1  0  0  0  0
  2  3  2  0  0  0  0
  2 29  1  0  0  0  0
  3  4  1  0  0  0  0
  3 30  1  0  0  0  0
  4 22  1  0  0  0  0
  4  5  2  0  0  0  0
  5  6  1  0  0  0  0
  5  7  1  0  0  0  0
  6 31  1  0  0  0  0
  7  8  1  0  0  0  0
  8  9  2  0  0  0  0
  8 22  1  0  0  0  0
  9 10  1  0  0  0  0
 10 11  2  0  0  0  0
 10 12  1  0  0  0  0
 12 17  2  0  0  0  0
 12 13  1  0  0  0  0
 13 14  2  0  0  0  0
 13 32  1  0  0  0  0
 14 15  1  0  0  0  0
 14 33  1  0  0  0  0
 15 16  2  0  0  0  0
 15 34  1  0  0  0  0
 16 21  1  0  0  0  0
 16 17  1  0  0  0  0
 17 18  1  0  0  0  0
 18 19  2  0  0  0  0
 18 35  1  0  0  0  0
 19 20  1  0  0  0  0
 19 36  1  0  0  0  0
 20 21  2  0  0  0  0
 20 37  1  0  0  0  0
 21 38  1  0  0  0  0
 22 23  1  0  0  0  0
 23 24  1  0  0  0  0
 23 39  1  0  0  0  0
 23 40  1  0  0  0  0
 24 25  1  0  0  0  0
 24 41  1  0  0  0  0
 24 42  1  0  0  0  0
 25 26  1  0  0  0  0
 25 43  1  0  0  0  0
 25 44  1  0  0  0  0
 26 27  1  0  0  0  0
 26 45  1  0  0  0  0
 26 46  1  0  0  0  0
 27 47  1  0  0  0  0
 27 48  1  0  0  0  0
 27 49  1  0  0  0  0
M  END
$$$$
CHEMBL2381784_5ZTY
 OpenBabel12022418123D

 60 63  0  0  0  0  0  0  0  0999 V2000
    1.1080    0.0212   -0.0224 C   0  0  0  0  0  0  0  0  0  0  0  0
    0.5462   -0.0001    1.4026 C   0  0  0  0  0  0  0  0  0  0  0  0
   -0.9866   -0.0151    1.4152 C   0  0  0  0  0  0  0  0  0  0  0  0
   -1.5225   -0.0145    2.8479 C   0  0  0  0  0  0  0  0  0  0  0  0
   -3.0423   -0.0178    2.8875 C   0  0  0  0  0  0  0  0  0  0  0  0
    2.5838   -0.0243   -0.0137 N   0  0  0  0  0  0  0  0  0  0  0  0
    3.3780    1.1221   -0.0484 C   0  0  0  0  0  0  0  0  0  0  0  0
    4.7300    1.1456   -0.0617 C   0  0  0  0  0  0  0  0  0  0  0  0
    5.4422   -0.1597   -0.0140 C   0  0  0  0  0  0  0  0  0  0  0  0
    6.6633   -0.2765   -0.0151 O   0  0  0  0  0  0  0  0  0  0  0  0
    4.5891   -1.2852    0.0218 N   0  0  0  0  0  0  0  0  0  0  0  0
    3.2065   -1.2376    0.0106 C   0  0  0  0  0  0  0  0  0  0  0  0
    2.7743   -2.5391    0.0103 C   0  0  0  0  0  0  0  0  0  0  0  0
    3.9500   -3.3342    0.0160 C   0  0  0  0  0  0  0  0  0  0  0  0
    4.0144   -4.7969   -0.0238 C   0  0  0  0  0  0  0  0  0  0  0  0
    5.0804   -5.4817    0.5728 C   0  0  0  0  0  0  0  0  0  0  0  0
    5.1413   -6.8774    0.5293 C   0  0  0  0  0  0  0  0  0  0  0  0
    4.1467   -7.6018   -0.1254 C   0  0  0  0  0  0  0  0  0  0  0  0
    3.0810   -6.9344   -0.7244 C   0  0  0  0  0  0  0  0  0  0  0  0
    3.0098   -5.5399   -0.6665 C   0  0  0  0  0  0  0  0  0  0  0  0
    5.0532   -2.5659    0.0569 N   0  0  0  0  0  0  0  0  0  0  0  0
    5.4085    2.4769   -0.1322 C   0  0  0  0  0  0  0  0  0  0  0  0
    4.7392    3.5122   -0.1939 O   0  0  0  0  0  0  0  0  0  0  0  0
    6.7864    2.4983   -0.1327 N   0  0  0  0  0  0  0  0  0  0  0  0
    7.5327    3.7549   -0.2764 C   0  0  0  0  0  0  0  0  0  0  0  0
    8.8738    3.7367    0.4724 C   0  0  0  0  0  0  0  0  0  0  0  0
    9.6156    5.0713    0.3234 C   0  0  0  0  0  0  0  0  0  0  0  0
    9.8020    5.4665   -1.1396 C   0  0  0  0  0  0  0  0  0  0  0  0
    8.4763    5.4534   -1.8948 C   0  0  0  0  0  0  0  0  0  0  0  0
    7.7622    4.1077   -1.7539 C   0  0  0  0  0  0  0  0  0  0  0  0
    0.7627    0.9220   -0.5467 H   0  0  0  0  0  0  0  0  0  0  0  0
    0.7012   -0.8234   -0.5944 H   0  0  0  0  0  0  0  0  0  0  0  0
    0.9095    0.8771    1.9517 H   0  0  0  0  0  0  0  0  0  0  0  0
    0.9166   -0.8827    1.9393 H   0  0  0  0  0  0  0  0  0  0  0  0
   -1.3532   -0.9040    0.8867 H   0  0  0  0  0  0  0  0  0  0  0  0
   -1.3700    0.8610    0.8772 H   0  0  0  0  0  0  0  0  0  0  0  0
   -1.1536    0.8701    3.3804 H   0  0  0  0  0  0  0  0  0  0  0  0
   -1.1489   -0.8944    3.3844 H   0  0  0  0  0  0  0  0  0  0  0  0
   -3.4508    0.8664    2.3883 H   0  0  0  0  0  0  0  0  0  0  0  0
   -3.3929   -0.0131    3.9249 H   0  0  0  0  0  0  0  0  0  0  0  0
   -3.4472   -0.9090    2.3975 H   0  0  0  0  0  0  0  0  0  0  0  0
    2.7986    2.0452   -0.0767 H   0  0  0  0  0  0  0  0  0  0  0  0
    1.7520   -2.8861   -0.0030 H   0  0  0  0  0  0  0  0  0  0  0  0
    5.8701   -4.9283    1.0775 H   0  0  0  0  0  0  0  0  0  0  0  0
    5.9713   -7.3967    1.0014 H   0  0  0  0  0  0  0  0  0  0  0  0
    4.2053   -8.6862   -0.1736 H   0  0  0  0  0  0  0  0  0  0  0  0
    2.3094   -7.4969   -1.2435 H   0  0  0  0  0  0  0  0  0  0  0  0
    2.1710   -5.0450   -1.1486 H   0  0  0  0  0  0  0  0  0  0  0  0
    7.2936    1.6140   -0.1743 H   0  0  0  0  0  0  0  0  0  0  0  0
    6.9159    4.5472    0.1685 H   0  0  0  0  0  0  0  0  0  0  0  0
    9.5084    2.9254    0.0946 H   0  0  0  0  0  0  0  0  0  0  0  0
    8.7076    3.5352    1.5376 H   0  0  0  0  0  0  0  0  0  0  0  0
   10.5951    5.0118    0.8134 H   0  0  0  0  0  0  0  0  0  0  0  0
    9.0533    5.8600    0.8385 H   0  0  0  0  0  0  0  0  0  0  0  0
   10.5039    4.7737   -1.6199 H   0  0  0  0  0  0  0  0  0  0  0  0
   10.2517    6.4649   -1.2001 H   0  0  0  0  0  0  0  0  0  0  0  0
    8.6538    5.6733   -2.9546 H   0  0  0  0  0  0  0  0  0  0  0  0
    7.8308    6.2521   -1.5087 H   0  0  0  0  0  0  0  0  0  0  0  0
    6.8080    4.1455   -2.2918 H   0  0  0  0  0  0  0  0  0  0  0  0
    8.3636    3.3257   -2.2353 H   0  0  0  0  0  0  0  0  0  0  0  0
  1  2  1  0  0  0  0
  1  6  1  0  0  0  0
  1 31  1  0  0  0  0
  1 32  1  0  0  0  0
  2  3  1  0  0  0  0
  2 33  1  0  0  0  0
  2 34  1  0  0  0  0
  3  4  1  0  0  0  0
  3 35  1  0  0  0  0
  3 36  1  0  0  0  0
  4  5  1  0  0  0  0
  4 37  1  0  0  0  0
  4 38  1  0  0  0  0
  5 39  1  0  0  0  0
  5 40  1  0  0  0  0
  5 41  1  0  0  0  0
  6 12  1  0  0  0  0
  6  7  1  0  0  0  0
  7  8  2  0  0  0  0
  7 42  1  0  0  0  0
  8  9  1  0  0  0  0
  8 22  1  0  0  0  0
  9 10  2  0  0  0  0
  9 11  1  0  0  0  0
 11 21  1  0  0  0  0
 11 12  1  0  0  0  0
 12 13  2  0  0  0  0
 13 14  1  0  0  0  0
 13 43  1  0  0  0  0
 14 15  1  0  0  0  0
 14 21  2  0  0  0  0
 15 20  2  0  0  0  0
 15 16  1  0  0  0  0
 16 17  2  0  0  0  0
 16 44  1  0  0  0  0
 17 18  1  0  0  0  0
 17 45  1  0  0  0  0
 18 19  2  0  0  0  0
 18 46  1  0  0  0  0
 19 20  1  0  0  0  0
 19 47  1  0  0  0  0
 20 48  1  0  0  0  0
 22 23  2  0  0  0  0
 22 24  1  0  0  0  0
 24 25  1  0  0  0  0
 24 49  1  0  0  0  0
 25 30  1  0  0  0  0
 25 26  1  0  0  0  0
 25 50  1  0  0  0  0
 26 27  1  0  0  0  0
 26 51  1  0  0  0  0
 26 52  1  0  0  0  0
 27 28  1  0  0  0  0
 27 53  1  0  0  0  0
 27 54  1  0  0  0  0
 28 29  1  0  0  0  0
 28 55  1  0  0  0  0
 28 56  1  0  0  0  0
 29 30  1  0  0  0  0
 29 57  1  0  0  0  0
 29 58  1  0  0  0  0
 30 59  1  0  0  0  0
 30 60  1  0  0  0  0
M  END
$$$$
CHEMBL1668518_5ZTY
 OpenBabel12022418123D

 64 68  0  0  1  0  0  0  0  0999 V2000
    5.2629    6.0578    4.5477 C   0  0  0  0  0  0  0  0  0  0  0  0
    4.6535    4.6657    4.6441 C   0  0  0  0  0  0  0  0  0  0  0  0
    5.1585    3.7876    3.5028 C   0  0  0  0  0  0  0  0  0  0  0  0
    4.6232    2.3542    3.5690 C   0  0  0  0  0  0  0  0  0  0  0  0
    5.0781    1.4912    2.3815 C   0  0  0  0  0  0  0  0  0  0  0  0
    6.5462    1.2648    2.3484 N   0  0  0  0  0  0  0  0  0  0  0  0
    7.3134    2.2206    1.6801 C   0  0  0  0  0  0  0  0  0  0  0  0
    8.6434    2.3799    1.6734 C   0  0  0  0  0  0  0  0  0  0  0  0
    9.1828    3.5712    0.9668 C   0  0  0  0  0  0  0  0  0  0  0  0
    8.3979    4.3915    0.4897 O   0  0  0  0  0  0  0  0  0  0  0  0
   10.5548    3.7156    0.8890 N   0  0  0  0  0  0  0  0  0  0  0  0
   11.1712    4.8659    0.2011 C   0  0  1  0  0  0  0  0  0  0  0  0
   10.7520    4.8610   -1.2938 C   0  0  0  0  0  0  0  0  0  0  0  0
   11.2690    6.1063   -2.0190 C   0  0  2  0  0  0  0  0  0  0  0  0
   12.8038    6.0888   -1.9965 C   0  0  0  0  0  0  0  0  0  0  0  0
   13.3005    6.0750   -0.5398 C   0  0  1  0  0  0  0  0  0  0  0  0
   12.8162    7.3725    0.1307 C   0  0  0  0  0  0  0  0  0  0  0  0
   11.2826    7.4086    0.1435 C   0  0  1  0  0  0  0  0  0  0  0  0
   10.7391    7.3541   -1.2939 C   0  0  0  0  0  0  0  0  0  0  0  0
   10.7684    6.1881    0.9125 C   0  0  0  0  0  0  0  0  0  0  0  0
   12.7301    4.8363    0.2109 C   0  0  0  0  0  0  0  0  0  0  0  0
    9.4113    1.3880    2.4320 C   0  0  0  0  0  0  0  0  0  0  0  0
   10.6412    1.4108    2.4238 O   0  0  0  0  0  0  0  0  0  0  0  0
    8.6444    0.3749    3.2139 C   0  0  0  0  0  0  0  0  0  0  0  0
    9.4140   -0.4942    4.0039 C   0  0  0  0  0  0  0  0  0  0  0  0
    8.7976   -1.4666    4.7667 C   0  0  0  0  0  0  0  0  0  0  0  0
    7.4179   -1.5950    4.7055 C   0  0  0  0  0  0  0  0  0  0  0  0
    6.6131   -0.7566    3.8902 C   0  0  0  0  0  0  0  0  0  0  0  0
    5.1575   -1.1477    3.8723 C   0  0  0  0  0  0  0  0  0  0  0  0
    7.2127    0.3024    3.1519 C   0  0  0  0  0  0  0  0  0  0  0  0
    4.9144    6.6881    5.3709 H   0  0  0  0  0  0  0  0  0  0  0  0
    4.9865    6.5414    3.6049 H   0  0  0  0  0  0  0  0  0  0  0  0
    6.3562    6.0094    4.5958 H   0  0  0  0  0  0  0  0  0  0  0  0
    3.5609    4.7406    4.6113 H   0  0  0  0  0  0  0  0  0  0  0  0
    4.9251    4.2191    5.6073 H   0  0  0  0  0  0  0  0  0  0  0  0
    6.2516    3.7739    3.5510 H   0  0  0  0  0  0  0  0  0  0  0  0
    4.8764    4.2392    2.5437 H   0  0  0  0  0  0  0  0  0  0  0  0
    3.5249    2.3883    3.5655 H   0  0  0  0  0  0  0  0  0  0  0  0
    4.9230    1.8960    4.5178 H   0  0  0  0  0  0  0  0  0  0  0  0
    4.7695    1.9991    1.4560 H   0  0  0  0  0  0  0  0  0  0  0  0
    4.5115    0.5639    2.3312 H   0  0  0  0  0  0  0  0  0  0  0  0
    6.6956    2.9430    1.1468 H   0  0  0  0  0  0  0  0  0  0  0  0
   11.1403    2.9992    1.3212 H   0  0  0  0  0  0  0  0  0  0  0  0
    9.6685    4.8125   -1.4203 H   0  0  0  0  0  0  0  0  0  0  0  0
   11.1453    3.9547   -1.7812 H   0  0  0  0  0  0  0  0  0  0  0  0
   10.9137    6.1000   -3.0554 H   0  0  0  0  0  0  0  0  0  0  0  0
   13.1889    6.9725   -2.5216 H   0  0  0  0  0  0  0  0  0  0  0  0
   13.1811    5.2109   -2.5307 H   0  0  0  0  0  0  0  0  0  0  0  0
   14.3962    6.0462   -0.5292 H   0  0  0  0  0  0  0  0  0  0  0  0
   13.2012    8.2470   -0.4103 H   0  0  0  0  0  0  0  0  0  0  0  0
   13.2057    7.4364    1.1533 H   0  0  0  0  0  0  0  0  0  0  0  0
   10.9369    8.3248    0.6350 H   0  0  0  0  0  0  0  0  0  0  0  0
    9.6409    7.3346   -1.2755 H   0  0  0  0  0  0  0  0  0  0  0  0
   11.0326    8.2574   -1.8409 H   0  0  0  0  0  0  0  0  0  0  0  0
   11.1751    6.1941    1.9348 H   0  0  0  0  0  0  0  0  0  0  0  0
    9.6856    6.2818    1.0272 H   0  0  0  0  0  0  0  0  0  0  0  0
   13.1002    3.9176   -0.2634 H   0  0  0  0  0  0  0  0  0  0  0  0
   13.1086    4.8267    1.2419 H   0  0  0  0  0  0  0  0  0  0  0  0
   10.4983   -0.4078    4.0261 H   0  0  0  0  0  0  0  0  0  0  0  0
    9.3864   -2.1350    5.3885 H   0  0  0  0  0  0  0  0  0  0  0  0
    6.9582   -2.3870    5.2969 H   0  0  0  0  0  0  0  0  0  0  0  0
    4.9815   -2.0844    4.4159 H   0  0  0  0  0  0  0  0  0  0  0  0
    4.8270   -1.3510    2.8499 H   0  0  0  0  0  0  0  0  0  0  0  0
    4.5355   -0.3942    4.3598 H   0  0  0  0  0  0  0  0  0  0  0  0
  1  2  1  0  0  0  0
  1 31  1  0  0  0  0
  1 32  1  0  0  0  0
  1 33  1  0  0  0  0
  2  3  1  0  0  0  0
  2 34  1  0  0  0  0
  2 35  1  0  0  0  0
  3  4  1  0  0  0  0
  3 36  1  0  0  0  0
  3 37  1  0  0  0  0
  4  5  1  0  0  0  0
  4 38  1  0  0  0  0
  4 39  1  0  0  0  0
  5  6  1  0  0  0  0
  5 40  1  0  0  0  0
  5 41  1  0  0  0  0
  6 30  1  0  0  0  0
  6  7  1  0  0  0  0
  7  8  2  0  0  0  0
  7 42  1  0  0  0  0
  8  9  1  0  0  0  0
  8 22  1  0  0  0  0
  9 10  2  0  0  0  0
  9 11  1  0  0  0  0
 11 43  1  0  0  0  0
 12 11  1  1  0  0  0
 12 20  1  0  0  0  0
 12 21  1  0  0  0  0
 12 13  1  0  0  0  0
 13 44  1  0  0  0  0
 13 45  1  0  0  0  0
 14 13  1  0  0  0  0
 14 15  1  0  0  0  0
 14 19  1  0  0  0  0
 14 46  1  6  0  0  0
 15 47  1  0  0  0  0
 15 48  1  0  0  0  0
 16 15  1  0  0  0  0
 16 17  1  0  0  0  0
 16 21  1  0  0  0  0
 16 49  1  1  0  0  0
 17 50  1  0  0  0  0
 17 51  1  0  0  0  0
 18 17  1  0  0  0  0
 18 19  1  0  0  0  0
 18 20  1  0  0  0  0
 18 52  1  1  0  0  0
 19 53  1  0  0  0  0
 19 54  1  0  0  0  0
 20 55  1  0  0  0  0
 20 56  1  0  0  0  0
 21 57  1  0  0  0  0
 21 58  1  0  0  0  0
 22 23  2  0  0  0  0
 22 24  1  0  0  0  0
 24 30  2  0  0  0  0
 24 25  1  0  0  0  0
 25 26  2  0  0  0  0
 25 59  1  0  0  0  0
 26 27  1  0  0  0  0
 26 60  1  0  0  0  0
 27 28  2  0  0  0  0
 27 61  1  0  0  0  0
 28 29  1  0  0  0  0
 28 30  1  0  0  0  0
 29 62  1  0  0  0  0
 29 63  1  0  0  0  0
 29 64  1  0  0  0  0
M  END
$$$$
CHEMBL1223589_5ZTY
 OpenBabel12022418123D

 56 58  0  0  1  0  0  0  0  0999 V2000
    6.8827    1.7405    0.4835 C   0  0  0  0  0  0  0  0  0  0  0  0
    5.6295    0.9190    0.2198 C   0  0  0  0  0  0  0  0  0  0  0  0
    5.9133   -0.1783   -0.8026 C   0  0  0  0  0  0  0  0  0  0  0  0
    4.6856   -1.0389   -1.0890 C   0  0  0  0  0  0  0  0  0  0  0  0
    5.0213   -2.0761   -2.1274 C   0  0  0  0  0  0  0  0  0  0  0  0
    5.4539   -1.7522   -3.3094 N   0  0  0  0  0  0  0  0  0  0  0  0
    5.7055   -2.9311   -3.9585 N   0  0  0  0  0  0  0  0  0  0  0  0
    6.2563   -2.9906   -5.2298 C   0  0  0  0  0  0  0  0  0  0  0  0
    6.5141   -4.0520   -5.7873 O   0  0  0  0  0  0  0  0  0  0  0  0
    6.4695   -1.7500   -5.7797 N   0  0  0  0  0  0  0  0  0  0  0  0
    6.9641   -1.4790   -7.1348 C   0  0  0  0  0  0  0  0  0  0  0  0
    8.3808   -2.0687   -7.3209 C   0  0  0  0  0  0  0  0  0  0  0  0
    6.0327   -2.1607   -8.1643 C   0  0  0  0  0  0  0  0  0  0  0  0
    7.0381    0.0553   -7.3430 C   0  0  0  0  0  0  0  0  0  0  0  0
    6.3213    0.7199   -8.3585 C   0  0  0  0  0  0  0  0  0  0  0  0
    6.4315    2.1013   -8.5488 C   0  0  0  0  0  0  0  0  0  0  0  0
    7.2581    2.8576   -7.7269 C   0  0  0  0  0  0  0  0  0  0  0  0
    7.9709    2.2306   -6.7092 C   0  0  0  0  0  0  0  0  0  0  0  0
    7.8592    0.8481   -6.5173 C   0  0  0  0  0  0  0  0  0  0  0  0
    5.3710   -4.1120   -3.1810 C   0  0  0  0  0  0  0  0  0  0  0  0
    4.9101   -3.5576   -1.8372 C   0  0  2  0  0  0  0  0  0  0  0  0
    3.5200   -3.9688   -1.4053 C   0  0  0  0  0  0  0  0  0  0  0  0
    3.3174   -4.5037   -0.1232 C   0  0  0  0  0  0  0  0  0  0  0  0
    2.0329   -4.8305    0.3174 C   0  0  0  0  0  0  0  0  0  0  0  0
    0.9367   -4.6322   -0.5183 C   0  0  0  0  0  0  0  0  0  0  0  0
    1.1241   -4.1140   -1.7973 C   0  0  0  0  0  0  0  0  0  0  0  0
    2.4064   -3.7828   -2.2384 C   0  0  0  0  0  0  0  0  0  0  0  0
    6.6732    2.5430    1.1966 H   0  0  0  0  0  0  0  0  0  0  0  0
    7.2543    2.1945   -0.4411 H   0  0  0  0  0  0  0  0  0  0  0  0
    7.6786    1.1137    0.8990 H   0  0  0  0  0  0  0  0  0  0  0  0
    4.8355    1.5783   -0.1494 H   0  0  0  0  0  0  0  0  0  0  0  0
    5.2783    0.4792    1.1602 H   0  0  0  0  0  0  0  0  0  0  0  0
    6.7284   -0.8187   -0.4427 H   0  0  0  0  0  0  0  0  0  0  0  0
    6.2671    0.2825   -1.7334 H   0  0  0  0  0  0  0  0  0  0  0  0
    3.8615   -0.4270   -1.4729 H   0  0  0  0  0  0  0  0  0  0  0  0
    4.3447   -1.5264   -0.1704 H   0  0  0  0  0  0  0  0  0  0  0  0
    6.1225   -0.9930   -5.1997 H   0  0  0  0  0  0  0  0  0  0  0  0
    8.3762   -3.1626   -7.2695 H   0  0  0  0  0  0  0  0  0  0  0  0
    9.0751   -1.7223   -6.5461 H   0  0  0  0  0  0  0  0  0  0  0  0
    8.8019   -1.7906   -8.2942 H   0  0  0  0  0  0  0  0  0  0  0  0
    6.0092   -3.2481   -8.0471 H   0  0  0  0  0  0  0  0  0  0  0  0
    6.3602   -1.9681   -9.1928 H   0  0  0  0  0  0  0  0  0  0  0  0
    4.9990   -1.8096   -8.0574 H   0  0  0  0  0  0  0  0  0  0  0  0
    5.6628    0.1827   -9.0331 H   0  0  0  0  0  0  0  0  0  0  0  0
    5.8707    2.5824   -9.3464 H   0  0  0  0  0  0  0  0  0  0  0  0
    7.3472    3.9287   -7.8800 H   0  0  0  0  0  0  0  0  0  0  0  0
    8.6209    2.8179   -6.0638 H   0  0  0  0  0  0  0  0  0  0  0  0
    8.4322    0.3895   -5.7123 H   0  0  0  0  0  0  0  0  0  0  0  0
    6.2640   -4.7388   -3.0804 H   0  0  0  0  0  0  0  0  0  0  0  0
    4.6153   -4.6902   -3.7233 H   0  0  0  0  0  0  0  0  0  0  0  0
    5.6444   -3.8049   -1.0631 H   0  0  0  0  0  0  0  0  0  0  0  0
    4.1556   -4.6613    0.5529 H   0  0  0  0  0  0  0  0  0  0  0  0
    1.8861   -5.2345    1.3162 H   0  0  0  0  0  0  0  0  0  0  0  0
   -0.0639   -4.8791   -0.1727 H   0  0  0  0  0  0  0  0  0  0  0  0
    0.2694   -3.9597   -2.4514 H   0  0  0  0  0  0  0  0  0  0  0  0
    2.5236   -3.3661   -3.2380 H   0  0  0  0  0  0  0  0  0  0  0  0
  1  2  1  0  0  0  0
  1 28  1  0  0  0  0
  1 29  1  0  0  0  0
  1 30  1  0  0  0  0
  2  3  1  0  0  0  0
  2 31  1  0  0  0  0
  2 32  1  0  0  0  0
  3  4  1  0  0  0  0
  3 33  1  0  0  0  0
  3 34  1  0  0  0  0
  4  5  1  0  0  0  0
  4 35  1  0  0  0  0
  4 36  1  0  0  0  0
  5 21  1  0  0  0  0
  5  6  2  0  0  0  0
  6  7  1  0  0  0  0
  7  8  1  0  0  0  0
  7 20  1  0  0  0  0
  8  9  2  0  0  0  0
  8 10  1  0  0  0  0
 10 11  1  0  0  0  0
 10 37  1  0  0  0  0
 11 12  1  0  0  0  0
 11 13  1  0  0  0  0
 11 14  1  0  0  0  0
 12 38  1  0  0  0  0
 12 39  1  0  0  0  0
 12 40  1  0  0  0  0
 13 41  1  0  0  0  0
 13 42  1  0  0  0  0
 13 43  1  0  0  0  0
 14 19  2  0  0  0  0
 14 15  1  0  0  0  0
 15 16  2  0  0  0  0
 15 44  1  0  0  0  0
 16 17  1  0  0  0  0
 16 45  1  0  0  0  0
 17 18  2  0  0  0  0
 17 46  1  0  0  0  0
 18 19  1  0  0  0  0
 18 47  1  0  0  0  0
 19 48  1  0  0  0  0
 20 21  1  0  0  0  0
 20 49  1  0  0  0  0
 20 50  1  0  0  0  0
 21 22  1  0  0  0  0
 21 51  1  1  0  0  0
 22 27  2  0  0  0  0
 22 23  1  0  0  0  0
 23 24  2  0  0  0  0
 23 52  1  0  0  0  0
 24 25  1  0  0  0  0
 24 53  1  0  0  0  0
 25 26  2  0  0  0  0
 25 54  1  0  0  0  0
 26 27  1  0  0  0  0
 26 55  1  0  0  0  0
 27 56  1  0  0  0  0
M  END
$$$$
CHEMBL3956670_5ZTY
 OpenBabel12022418123D

 56 59  0  0  1  0  0  0  0  0999 V2000
    3.9916    2.6294   -2.5361 C   0  0  0  0  0  0  0  0  0  0  0  0
    4.6108    1.7567   -1.5520 N   0  0  0  0  0  0  0  0  0  0  0  0
    5.6590    0.8640   -2.0227 C   0  0  0  0  0  0  0  0  0  0  0  0
    4.1731    1.8357   -0.2271 C   0  0  0  0  0  0  0  0  0  0  0  0
    3.2844    2.6328    0.1020 O   0  0  0  0  0  0  0  0  0  0  0  0
    4.8570    0.9383    0.8438 C   0  0  2  0  0  0  0  0  0  0  0  0
    3.9269   -0.1300    1.4071 C   0  0  0  0  0  0  0  0  0  0  0  0
    4.2448   -1.4904    1.2413 C   0  0  0  0  0  0  0  0  0  0  0  0
    3.4550   -2.4884    1.8182 C   0  0  0  0  0  0  0  0  0  0  0  0
    2.3339   -2.1433    2.5679 C   0  0  0  0  0  0  0  0  0  0  0  0
    1.9868   -0.8025    2.7176 C   0  0  0  0  0  0  0  0  0  0  0  0
    2.7726    0.1974    2.1365 C   0  0  0  0  0  0  0  0  0  0  0  0
    5.3726    1.7835    1.9149 N   0  0  0  0  0  0  0  0  0  0  0  0
    6.7259    2.0280    2.0509 C   0  0  0  0  0  0  0  0  0  0  0  0
    7.5682    1.4883    1.3386 O   0  0  0  0  0  0  0  0  0  0  0  0
    7.1500    2.9798    3.1270 C   0  0  0  0  0  0  0  0  0  0  0  0
    8.5015    3.1457    3.3716 C   0  0  0  0  0  0  0  0  0  0  0  0
    8.8925    3.9959    4.4005 C   0  0  0  0  0  0  0  0  0  0  0  0
    7.9418    4.6920    5.1665 C   0  0  0  0  0  0  0  0  0  0  0  0
    6.5970    4.4725    4.8067 C   0  0  0  0  0  0  0  0  0  0  0  0
    6.1805    3.6301    3.8188 N   0  0  0  0  0  0  0  0  0  0  0  0
    5.6242    5.1398    5.5421 O   0  0  0  0  0  0  0  0  0  0  0  0
    4.3791    5.2012    4.8360 C   0  0  0  0  0  0  0  0  0  0  0  0
    3.3322    5.8610    5.6876 C   0  0  0  0  0  0  0  0  0  0  0  0
    2.8819    7.2819    5.4529 C   0  0  0  0  0  0  0  0  0  0  0  0
    1.9850    6.1420    5.0634 C   0  0  0  0  0  0  0  0  0  0  0  0
    8.3974    5.5577    6.3253 C   0  0  0  0  0  0  0  0  0  0  0  0
    9.5431    6.5352    6.1378 C   0  0  0  0  0  0  0  0  0  0  0  0
    8.1510    7.0457    6.3396 C   0  0  0  0  0  0  0  0  0  0  0  0
    4.6695    2.8027   -3.3775 H   0  0  0  0  0  0  0  0  0  0  0  0
    3.7372    3.5957   -2.0919 H   0  0  0  0  0  0  0  0  0  0  0  0
    3.0768    2.1489   -2.8954 H   0  0  0  0  0  0  0  0  0  0  0  0
    5.6718    0.8240   -3.1164 H   0  0  0  0  0  0  0  0  0  0  0  0
    5.4946   -0.1473   -1.6441 H   0  0  0  0  0  0  0  0  0  0  0  0
    6.6219    1.2419   -1.6660 H   0  0  0  0  0  0  0  0  0  0  0  0
    5.7125    0.4287    0.3991 H   0  0  0  0  0  0  0  0  0  0  0  0
    5.1257   -1.7864    0.6750 H   0  0  0  0  0  0  0  0  0  0  0  0
    3.7238   -3.5346    1.6945 H   0  0  0  0  0  0  0  0  0  0  0  0
    1.7327   -2.9178    3.0372 H   0  0  0  0  0  0  0  0  0  0  0  0
    1.1075   -0.5323    3.2968 H   0  0  0  0  0  0  0  0  0  0  0  0
    2.4801    1.2375    2.2672 H   0  0  0  0  0  0  0  0  0  0  0  0
    4.7307    2.3641    2.4488 H   0  0  0  0  0  0  0  0  0  0  0  0
    9.2439    2.6104    2.7877 H   0  0  0  0  0  0  0  0  0  0  0  0
    9.9517    4.1156    4.6138 H   0  0  0  0  0  0  0  0  0  0  0  0
    4.0131    4.1928    4.6095 H   0  0  0  0  0  0  0  0  0  0  0  0
    4.5191    5.7637    3.9039 H   0  0  0  0  0  0  0  0  0  0  0  0
    3.3319    5.4785    6.7019 H   0  0  0  0  0  0  0  0  0  0  0  0
    3.3461    7.8551    4.6587 H   0  0  0  0  0  0  0  0  0  0  0  0
    2.5872    7.8749    6.3117 H   0  0  0  0  0  0  0  0  0  0  0  0
    1.0985    5.9586    5.6599 H   0  0  0  0  0  0  0  0  0  0  0  0
    1.8490    5.9452    4.0048 H   0  0  0  0  0  0  0  0  0  0  0  0
    8.3686    5.0613    7.2947 H   0  0  0  0  0  0  0  0  0  0  0  0
    9.9841    6.6699    5.1561 H   0  0  0  0  0  0  0  0  0  0  0  0
   10.2518    6.6530    6.9515 H   0  0  0  0  0  0  0  0  0  0  0  0
    7.9163    7.5074    7.2924 H   0  0  0  0  0  0  0  0  0  0  0  0
    7.6502    7.5016    5.4937 H   0  0  0  0  0  0  0  0  0  0  0  0
  1  2  1  0  0  0  0
  1 30  1  0  0  0  0
  1 31  1  0  0  0  0
  1 32  1  0  0  0  0
  2  3  1  0  0  0  0
  2  4  1  0  0  0  0
  3 33  1  0  0  0  0
  3 34  1  0  0  0  0
  3 35  1  0  0  0  0
  4  5  2  0  0  0  0
  6 13  1  0  0  0  0
  6  7  1  0  0  0  0
  6  4  1  0  0  0  0
  6 36  1  6  0  0  0
  7 12  2  0  0  0  0
  7  8  1  0  0  0  0
  8  9  2  0  0  0  0
  8 37  1  0  0  0  0
  9 10  1  0  0  0  0
  9 38  1  0  0  0  0
 10 11  2  0  0  0  0
 10 39  1  0  0  0  0
 11 12  1  0  0  0  0
 11 40  1  0  0  0  0
 12 41  1  0  0  0  0
 13 14  1  0  0  0  0
 13 42  1  0  0  0  0
 14 15  2  0  0  0  0
 14 16  1  0  0  0  0
 16 21  2  0  0  0  0
 16 17  1  0  0  0  0
 17 18  2  0  0  0  0
 17 43  1  0  0  0  0
 18 19  1  0  0  0  0
 18 44  1  0  0  0  0
 19 20  2  0  0  0  0
 19 27  1  0  0  0  0
 20 21  1  0  0  0  0
 20 22  1  0  0  0  0
 22 23  1  0  0  0  0
 23 24  1  0  0  0  0
 23 45  1  0  0  0  0
 23 46  1  0  0  0  0
 24 26  1  0  0  0  0
 24 25  1  0  0  0  0
 24 47  1  0  0  0  0
 25 26  1  0  0  0  0
 25 48  1  0  0  0  0
 25 49  1  0  0  0  0
 26 50  1  0  0  0  0
 26 51  1  0  0  0  0
 27 29  1  0  0  0  0
 27 28  1  0  0  0  0
 27 52  1  0  0  0  0
 28 29  1  0  0  0  0
 28 53  1  0  0  0  0
 28 54  1  0  0  0  0
 29 55  1  0  0  0  0
 29 56  1  0  0  0  0
M  END
$$$$
CHEMBL3353429_5ZTY
 OpenBabel12022418123D

 59 61  0  0  1  0  0  0  0  0999 V2000
   12.8764    3.2871   -3.7533 C   0  0  0  0  0  0  0  0  0  0  0  0
   12.3947    4.5388   -3.4136 C   0  0  0  0  0  0  0  0  0  0  0  0
   11.3454    4.7465   -2.5841 N   0  0  0  0  0  0  0  0  0  0  0  0
   10.7161    3.6622   -2.0742 C   0  0  0  0  0  0  0  0  0  0  0  0
   11.0902    2.3666   -2.4231 C   0  0  0  0  0  0  0  0  0  0  0  0
   12.2041    2.1820   -3.2622 C   0  0  0  0  0  0  0  0  0  0  0  0
   10.3105    1.2303   -2.0090 C   0  0  0  0  0  0  0  0  0  0  0  0
    9.2756    1.3698   -1.1657 C   0  0  0  0  0  0  0  0  0  0  0  0
    8.9665    2.7266   -0.5996 C   0  0  0  0  0  0  0  0  0  0  0  0
    8.1111    2.8374    0.2852 O   0  0  0  0  0  0  0  0  0  0  0  0
    9.6515    3.8320   -1.1398 N   0  0  0  0  0  0  0  0  0  0  0  0
    9.2140    5.2152   -0.8671 C   0  0  0  0  0  0  0  0  0  0  0  0
    9.7393    5.9169    0.4098 C   0  0  0  0  0  0  0  0  0  0  0  0
   11.2622    6.0248    0.5519 C   0  0  0  0  0  0  0  0  0  0  0  0
   11.7642    6.9452    1.6883 C   0  0  0  0  0  0  0  0  0  0  0  0
   11.3427    6.5989    3.1216 C   0  0  0  0  0  0  0  0  0  0  0  0
   11.9364    7.6015    4.1205 C   0  0  0  0  0  0  0  0  0  0  0  0
   11.6153    7.2335    5.4559 O   0  0  0  0  0  0  0  0  0  0  0  0
    8.5073    0.0896   -0.9555 C   0  0  0  0  0  0  0  0  0  0  0  0
    8.6785   -0.8720   -1.7095 O   0  0  0  0  0  0  0  0  0  0  0  0
    7.6232    0.0213    0.0831 N   0  0  0  0  0  0  0  0  0  0  0  0
    6.8414   -1.2004    0.3669 C   0  0  1  0  0  0  0  0  0  0  0  0
    7.5784   -2.1105    1.3631 C   0  0  0  0  0  0  0  0  0  0  0  0
    6.7006   -3.1911    2.0004 C   0  0  0  0  0  0  0  0  0  0  0  0
    5.4139   -2.6077    2.5875 C   0  0  1  0  0  0  0  0  0  0  0  0
    4.6209   -1.8871    1.4968 C   0  0  0  0  0  0  0  0  0  0  0  0
    5.4283   -0.7965    0.8001 C   0  0  0  0  0  0  0  0  0  0  0  0
    4.5551   -3.6988    3.2304 C   0  0  0  0  0  0  0  0  0  0  0  0
   13.7436    3.1742   -4.3916 H   0  0  0  0  0  0  0  0  0  0  0  0
   12.8599    5.4382   -3.8088 H   0  0  0  0  0  0  0  0  0  0  0  0
   12.5383    1.1816   -3.5263 H   0  0  0  0  0  0  0  0  0  0  0  0
   10.5511    0.2714   -2.4603 H   0  0  0  0  0  0  0  0  0  0  0  0
    8.1178    5.1893   -0.7908 H   0  0  0  0  0  0  0  0  0  0  0  0
    9.4114    5.8492   -1.7385 H   0  0  0  0  0  0  0  0  0  0  0  0
    9.3203    5.4228    1.2908 H   0  0  0  0  0  0  0  0  0  0  0  0
    9.3300    6.9375    0.3962 H   0  0  0  0  0  0  0  0  0  0  0  0
   11.6729    6.4339   -0.3801 H   0  0  0  0  0  0  0  0  0  0  0  0
   11.6915    5.0254    0.6776 H   0  0  0  0  0  0  0  0  0  0  0  0
   11.4636    7.9775    1.4712 H   0  0  0  0  0  0  0  0  0  0  0  0
   12.8622    6.9339    1.6523 H   0  0  0  0  0  0  0  0  0  0  0  0
   11.6765    5.5889    3.3878 H   0  0  0  0  0  0  0  0  0  0  0  0
   10.2519    6.6002    3.2244 H   0  0  0  0  0  0  0  0  0  0  0  0
   11.5600    8.6150    3.9426 H   0  0  0  0  0  0  0  0  0  0  0  0
   13.0281    7.6312    4.0426 H   0  0  0  0  0  0  0  0  0  0  0  0
   10.6670    7.4008    5.5892 H   0  0  0  0  0  0  0  0  0  0  0  0
    7.5516    0.8179    0.7088 H   0  0  0  0  0  0  0  0  0  0  0  0
    6.7423   -1.7684   -0.5669 H   0  0  0  0  0  0  0  0  0  0  0  0
    8.0279   -1.5065    2.1609 H   0  0  0  0  0  0  0  0  0  0  0  0
    8.4162   -2.6028    0.8506 H   0  0  0  0  0  0  0  0  0  0  0  0
    7.2725   -3.6943    2.7909 H   0  0  0  0  0  0  0  0  0  0  0  0
    6.4580   -3.9606    1.2556 H   0  0  0  0  0  0  0  0  0  0  0  0
    5.6826   -1.8851    3.3692 H   0  0  0  0  0  0  0  0  0  0  0  0
    3.7252   -1.4295    1.9358 H   0  0  0  0  0  0  0  0  0  0  0  0
    4.2665   -2.6124    0.7531 H   0  0  0  0  0  0  0  0  0  0  0  0
    4.8726   -0.4699   -0.0905 H   0  0  0  0  0  0  0  0  0  0  0  0
    5.4759    0.0780    1.4591 H   0  0  0  0  0  0  0  0  0  0  0  0
    4.2140   -4.4288    2.4882 H   0  0  0  0  0  0  0  0  0  0  0  0
    3.6687   -3.2626    3.7031 H   0  0  0  0  0  0  0  0  0  0  0  0
    5.1142   -4.2373    4.0025 H   0  0  0  0  0  0  0  0  0  0  0  0
  1  6  2  0  0  0  0
  1  2  1  0  0  0  0
  1 29  1  0  0  0  0
  2  3  2  0  0  0  0
  2 30  1  0  0  0  0
  3  4  1  0  0  0  0
  4 11  1  0  0  0  0
  4  5  2  0  0  0  0
  5  6  1  0  0  0  0
  5  7  1  0  0  0  0
  6 31  1  0  0  0  0
  7  8  2  0  0  0  0
  7 32  1  0  0  0  0
  8  9  1  0  0  0  0
  8 19  1  0  0  0  0
  9 10  2  0  0  0  0
  9 11  1  0  0  0  0
 11 12  1  0  0  0  0
 12 13  1  0  0  0  0
 12 33  1  0  0  0  0
 12 34  1  0  0  0  0
 13 14  1  0  0  0  0
 13 35  1  0  0  0  0
 13 36  1  0  0  0  0
 14 15  1  0  0  0  0
 14 37  1  0  0  0  0
 14 38  1  0  0  0  0
 15 16  1  0  0  0  0
 15 39  1  0  0  0  0
 15 40  1  0  0  0  0
 16 17  1  0  0  0  0
 16 41  1  0  0  0  0
 16 42  1  0  0  0  0
 17 18  1  0  0  0  0
 17 43  1  0  0  0  0
 17 44  1  0  0  0  0
 18 45  1  0  0  0  0
 19 20  2  0  0  0  0
 19 21  1  0  0  0  0
 21 46  1  0  0  0  0
 22 23  1  0  0  0  0
 22 27  1  0  0  0  0
 22 21  1  0  0  0  0
 22 47  1  6  0  0  0
 23 24  1  0  0  0  0
 23 48  1  0  0  0  0
 23 49  1  0  0  0  0
 24 25  1  0  0  0  0
 24 50  1  0  0  0  0
 24 51  1  0  0  0  0
 25 26  1  0  0  0  0
 25 28  1  0  0  0  0
 25 52  1  1  0  0  0
 26 27  1  0  0  0  0
 26 53  1  0  0  0  0
 26 54  1  0  0  0  0
 27 55  1  0  0  0  0
 27 56  1  0  0  0  0
 28 57  1  0  0  0  0
 28 58  1  0  0  0  0
 28 59  1  0  0  0  0
M  END
$$$$
CHEMBL574052_5ZTY
 OpenBabel12022418123D

 59 62  0  0  0  0  0  0  0  0999 V2000
   -0.0981   -0.9624    0.0167 N   0  0  0  0  0  0  0  0  0  0  0  0
   -0.9593    0.0941   -0.2083 N   0  0  0  0  0  0  0  0  0  0  0  0
   -0.1786    1.1888   -0.1989 C   0  0  0  0  0  0  0  0  0  0  0  0
    1.2057    0.8271   -0.2058 C   0  0  0  0  0  0  0  0  0  0  0  0
    1.2259   -0.5499   -0.0387 C   0  0  0  0  0  0  0  0  0  0  0  0
    2.3742   -1.3674   -0.0245 N   0  0  0  0  0  0  0  0  0  0  0  0
    2.6074   -2.5419   -0.7524 C   0  0  0  0  0  0  0  0  0  0  0  0
    3.8986   -2.9694   -0.5019 C   0  0  0  0  0  0  0  0  0  0  0  0
    4.4910   -2.0674    0.3881 C   0  0  0  0  0  0  0  0  0  0  0  0
    3.5420   -1.1198    0.7128 C   0  0  0  0  0  0  0  0  0  0  0  0
    3.6962   -0.0725    1.7645 C   0  0  0  0  0  0  0  0  0  0  0  0
    1.6681   -3.1911   -1.7085 C   0  0  0  0  0  0  0  0  0  0  0  0
    2.3520    1.7607   -0.4188 C   0  0  0  0  0  0  0  0  0  0  0  0
   -0.7010    2.5784   -0.2196 C   0  0  0  0  0  0  0  0  0  0  0  0
    0.0392    3.5571   -0.1153 O   0  0  0  0  0  0  0  0  0  0  0  0
   -2.0813    2.7413   -0.3581 N   0  0  0  0  0  0  0  0  0  0  0  0
   -2.6513    4.0913   -0.5226 C   0  0  0  0  0  0  0  0  0  0  0  0
   -2.5214    4.5695   -1.9840 C   0  0  0  0  0  0  0  0  0  0  0  0
   -3.8184    4.7316   -2.7744 C   0  0  0  0  0  0  0  0  0  0  0  0
   -4.5362    6.0479   -2.4796 C   0  0  0  0  0  0  0  0  0  0  0  0
   -5.3265    6.0775   -1.1762 C   0  0  0  0  0  0  0  0  0  0  0  0
   -4.5630    5.6763    0.0836 C   0  0  0  0  0  0  0  0  0  0  0  0
   -4.0518    4.2273    0.0922 C   0  0  0  0  0  0  0  0  0  0  0  0
   -0.6685   -2.2467    0.2665 C   0  0  0  0  0  0  0  0  0  0  0  0
   -0.1778   -3.1525    1.2204 C   0  0  0  0  0  0  0  0  0  0  0  0
   -0.7451   -4.4312    1.3295 C   0  0  0  0  0  0  0  0  0  0  0  0
   -1.8216   -4.7930    0.5245 C   0  0  0  0  0  0  0  0  0  0  0  0
   -2.3456   -3.8935   -0.3953 C   0  0  0  0  0  0  0  0  0  0  0  0
   -1.7789   -2.6206   -0.5200 C   0  0  0  0  0  0  0  0  0  0  0  0
   -2.5311   -6.3523    0.6978 Cl  0  0  0  0  0  0  0  0  0  0  0  0
    0.9822   -2.7484    2.4352 Cl  0  0  0  0  0  0  0  0  0  0  0  0
    4.3665   -3.8457   -0.9343 H   0  0  0  0  0  0  0  0  0  0  0  0
    5.4915   -2.1194    0.7988 H   0  0  0  0  0  0  0  0  0  0  0  0
    2.7510    0.3776    2.0749 H   0  0  0  0  0  0  0  0  0  0  0  0
    4.3756    0.7138    1.4168 H   0  0  0  0  0  0  0  0  0  0  0  0
    4.1415   -0.5122    2.6639 H   0  0  0  0  0  0  0  0  0  0  0  0
    0.8347   -2.5562   -2.0052 H   0  0  0  0  0  0  0  0  0  0  0  0
    1.2816   -4.1203   -1.2736 H   0  0  0  0  0  0  0  0  0  0  0  0
    2.1991   -3.4616   -2.6276 H   0  0  0  0  0  0  0  0  0  0  0  0
    2.0686    2.6145   -1.0407 H   0  0  0  0  0  0  0  0  0  0  0  0
    3.1697    1.2615   -0.9483 H   0  0  0  0  0  0  0  0  0  0  0  0
    2.7241    2.1524    0.5311 H   0  0  0  0  0  0  0  0  0  0  0  0
   -2.6229    1.9077   -0.5697 H   0  0  0  0  0  0  0  0  0  0  0  0
   -2.0037    4.7501    0.0722 H   0  0  0  0  0  0  0  0  0  0  0  0
   -1.8689    3.8839   -2.5378 H   0  0  0  0  0  0  0  0  0  0  0  0
   -1.9906    5.5317   -1.9824 H   0  0  0  0  0  0  0  0  0  0  0  0
   -4.4867    3.8746   -2.6371 H   0  0  0  0  0  0  0  0  0  0  0  0
   -3.5530    4.7403   -3.8393 H   0  0  0  0  0  0  0  0  0  0  0  0
   -5.2398    6.2464   -3.2978 H   0  0  0  0  0  0  0  0  0  0  0  0
   -3.8182    6.8771   -2.4955 H   0  0  0  0  0  0  0  0  0  0  0  0
   -6.2148    5.4433   -1.2786 H   0  0  0  0  0  0  0  0  0  0  0  0
   -5.7027    7.1013   -1.0380 H   0  0  0  0  0  0  0  0  0  0  0  0
   -5.2535    5.7985    0.9285 H   0  0  0  0  0  0  0  0  0  0  0  0
   -3.7398    6.3791    0.2614 H   0  0  0  0  0  0  0  0  0  0  0  0
   -3.9934    3.9011    1.1392 H   0  0  0  0  0  0  0  0  0  0  0  0
   -4.7726    3.5540   -0.3858 H   0  0  0  0  0  0  0  0  0  0  0  0
   -0.3636   -5.1362    2.0651 H   0  0  0  0  0  0  0  0  0  0  0  0
   -3.1894   -4.1745   -1.0217 H   0  0  0  0  0  0  0  0  0  0  0  0
   -2.1853   -1.9405   -1.2674 H   0  0  0  0  0  0  0  0  0  0  0  0
  1  5  1  0  0  0  0
  1  2  1  0  0  0  0
  1 24  1  0  0  0  0
  2  3  2  0  0  0  0
  3  4  1  0  0  0  0
  3 14  1  0  0  0  0
  4  5  2  0  0  0  0
  4 13  1  0  0  0  0
  5  6  1  0  0  0  0
  6 10  1  0  0  0  0
  6  7  1  0  0  0  0
  7  8  2  0  0  0  0
  7 12  1  0  0  0  0
  8  9  1  0  0  0  0
  8 32  1  0  0  0  0
  9 10  2  0  0  0  0
  9 33  1  0  0  0  0
 10 11  1  0  0  0  0
 11 34  1  0  0  0  0
 11 35  1  0  0  0  0
 11 36  1  0  0  0  0
 12 37  1  0  0  0  0
 12 38  1  0  0  0  0
 12 39  1  0  0  0  0
 13 40  1  0  0  0  0
 13 41  1  0  0  0  0
 13 42  1  0  0  0  0
 14 15  2  0  0  0  0
 14 16  1  0  0  0  0
 16 17  1  0  0  0  0
 16 43  1  0  0  0  0
 17 23  1  0  0  0  0
 17 18  1  0  0  0  0
 17 44  1  0  0  0  0
 18 19  1  0  0  0  0
 18 45  1  0  0  0  0
 18 46  1  0  0  0  0
 19 20  1  0  0  0  0
 19 47  1  0  0  0  0
 19 48  1  0  0  0  0
 20 21  1  0  0  0  0
 20 49  1  0  0  0  0
 20 50  1  0  0  0  0
 21 22  1  0  0  0  0
 21 51  1  0  0  0  0
 21 52  1  0  0  0  0
 22 23  1  0  0  0  0
 22 53  1  0  0  0  0
 22 54  1  0  0  0  0
 23 55  1  0  0  0  0
 23 56  1  0  0  0  0
 24 29  2  0  0  0  0
 24 25  1  0  0  0  0
 25 26  2  0  0  0  0
 25 31  1  0  0  0  0
 26 27  1  0  0  0  0
 26 57  1  0  0  0  0
 27 28  2  0  0  0  0
 27 30  1  0  0  0  0
 28 29  1  0  0  0  0
 28 58  1  0  0  0  0
 29 59  1  0  0  0  0
M  END
$$$$
CHEMBL1223649_5ZTY
 OpenBabel12022418123D

 60 63  0  0  1  0  0  0  0  0999 V2000
   19.1585    4.9037    0.1645 C   0  0  0  0  0  0  0  0  0  0  0  0
   18.3684    3.7451   -0.4311 C   0  0  0  0  0  0  0  0  0  0  0  0
   17.1124    3.4540    0.3900 C   0  0  0  0  0  0  0  0  0  0  0  0
   16.2857    2.2961   -0.1836 C   0  0  0  0  0  0  0  0  0  0  0  0
   15.0461    2.0604    0.6782 C   0  0  0  0  0  0  0  0  0  0  0  0
   14.1791    0.9151    0.2087 C   0  0  0  0  0  0  0  0  0  0  0  0
   13.6969    0.8340   -1.0021 N   0  0  0  0  0  0  0  0  0  0  0  0
   12.9533   -0.3229   -1.0357 N   0  0  0  0  0  0  0  0  0  0  0  0
   12.8272   -0.9592    0.2623 C   0  0  0  0  0  0  0  0  0  0  0  0
   13.8665   -0.2508    1.1206 C   0  0  2  0  0  0  0  0  0  0  0  0
   13.3243    0.0262    2.5085 C   0  0  0  0  0  0  0  0  0  0  0  0
   13.4741   -0.9511    3.5079 C   0  0  0  0  0  0  0  0  0  0  0  0
   12.8645   -0.8155    4.7559 C   0  0  0  0  0  0  0  0  0  0  0  0
   12.0797    0.3027    5.0179 C   0  0  0  0  0  0  0  0  0  0  0  0
   11.9290    1.2936    4.0472 C   0  0  0  0  0  0  0  0  0  0  0  0
   12.5431    1.1575    2.8029 C   0  0  0  0  0  0  0  0  0  0  0  0
   12.2238   -0.7687   -2.1342 C   0  0  0  0  0  0  0  0  0  0  0  0
   11.5113   -1.7628   -2.0737 O   0  0  0  0  0  0  0  0  0  0  0  0
   12.3769   -0.0053   -3.2632 N   0  0  0  0  0  0  0  0  0  0  0  0
   11.7318   -0.3388   -4.5246 C   0  0  1  0  0  0  0  0  0  0  0  0
   10.8777    0.8352   -5.0086 C   0  0  0  0  0  0  0  0  0  0  0  0
   10.2104    0.5921   -6.3596 C   0  0  0  0  0  0  0  0  0  0  0  0
   11.0419   -0.1444   -7.4137 C   0  0  0  0  0  0  0  0  0  0  0  0
   12.2112   -0.9511   -6.9172 C   0  0  0  0  0  0  0  0  0  0  0  0
   12.8790   -1.7874   -7.8289 C   0  0  0  0  0  0  0  0  0  0  0  0
   14.0463   -2.4504   -7.4599 C   0  0  0  0  0  0  0  0  0  0  0  0
   14.5933   -2.2319   -6.2005 C   0  0  0  0  0  0  0  0  0  0  0  0
   13.9106   -1.4452   -5.2703 C   0  0  0  0  0  0  0  0  0  0  0  0
   12.6757   -0.8552   -5.5927 C   0  0  0  0  0  0  0  0  0  0  0  0
   20.0474    5.1110   -0.4396 H   0  0  0  0  0  0  0  0  0  0  0  0
   19.4877    4.6726    1.1830 H   0  0  0  0  0  0  0  0  0  0  0  0
   18.5533    5.8155    0.2001 H   0  0  0  0  0  0  0  0  0  0  0  0
   19.0080    2.8559   -0.4671 H   0  0  0  0  0  0  0  0  0  0  0  0
   18.0928    3.9924   -1.4625 H   0  0  0  0  0  0  0  0  0  0  0  0
   16.4914    4.3572    0.4313 H   0  0  0  0  0  0  0  0  0  0  0  0
   17.4027    3.2183    1.4212 H   0  0  0  0  0  0  0  0  0  0  0  0
   16.8916    1.3827   -0.2188 H   0  0  0  0  0  0  0  0  0  0  0  0
   15.9900    2.5227   -1.2137 H   0  0  0  0  0  0  0  0  0  0  0  0
   14.4193    2.9601    0.6891 H   0  0  0  0  0  0  0  0  0  0  0  0
   15.3541    1.8655    1.7097 H   0  0  0  0  0  0  0  0  0  0  0  0
   13.0081   -2.0352    0.1820 H   0  0  0  0  0  0  0  0  0  0  0  0
   11.7987   -0.8052    0.6029 H   0  0  0  0  0  0  0  0  0  0  0  0
   14.7872   -0.8428    1.1934 H   0  0  0  0  0  0  0  0  0  0  0  0
   14.0704   -1.8477    3.3111 H   0  0  0  0  0  0  0  0  0  0  0  0
   12.9787   -1.5950    5.5038 H   0  0  0  0  0  0  0  0  0  0  0  0
   11.5740    0.3951    5.9757 H   0  0  0  0  0  0  0  0  0  0  0  0
   11.3155    2.1655    4.2610 H   0  0  0  0  0  0  0  0  0  0  0  0
   12.3667    1.9306    2.0525 H   0  0  0  0  0  0  0  0  0  0  0  0
   13.0615    0.7390   -3.1922 H   0  0  0  0  0  0  0  0  0  0  0  0
   11.0500   -1.1768   -4.3335 H   0  0  0  0  0  0  0  0  0  0  0  0
   11.4746    1.7516   -5.0486 H   0  0  0  0  0  0  0  0  0  0  0  0
   10.0852    1.0206   -4.2711 H   0  0  0  0  0  0  0  0  0  0  0  0
    9.2786    0.0399   -6.2081 H   0  0  0  0  0  0  0  0  0  0  0  0
    9.9023    1.5643   -6.7789 H   0  0  0  0  0  0  0  0  0  0  0  0
   11.4396    0.5939   -8.1162 H   0  0  0  0  0  0  0  0  0  0  0  0
   10.3681   -0.7924   -7.9889 H   0  0  0  0  0  0  0  0  0  0  0  0
   12.4802   -1.9346   -8.8301 H   0  0  0  0  0  0  0  0  0  0  0  0
   14.5338   -3.1260   -8.1575 H   0  0  0  0  0  0  0  0  0  0  0  0
   15.5271   -2.7104   -5.9222 H   0  0  0  0  0  0  0  0  0  0  0  0
   14.3321   -1.3362   -4.2746 H   0  0  0  0  0  0  0  0  0  0  0  0
  1  2  1  0  0  0  0
  1 30  1  0  0  0  0
  1 31  1  0  0  0  0
  1 32  1  0  0  0  0
  2  3  1  0  0  0  0
  2 33  1  0  0  0  0
  2 34  1  0  0  0  0
  3  4  1  0  0  0  0
  3 35  1  0  0  0  0
  3 36  1  0  0  0  0
  4  5  1  0  0  0  0
  4 37  1  0  0  0  0
  4 38  1  0  0  0  0
  5  6  1  0  0  0  0
  5 39  1  0  0  0  0
  5 40  1  0  0  0  0
  6 10  1  0  0  0  0
  6  7  2  0  0  0  0
  7  8  1  0  0  0  0
  8  9  1  0  0  0  0
  8 17  1  0  0  0  0
  9 10  1  0  0  0  0
  9 41  1  0  0  0  0
  9 42  1  0  0  0  0
 10 11  1  0  0  0  0
 10 43  1  1  0  0  0
 11 16  2  0  0  0  0
 11 12  1  0  0  0  0
 12 13  2  0  0  0  0
 12 44  1  0  0  0  0
 13 14  1  0  0  0  0
 13 45  1  0  0  0  0
 14 15  2  0  0  0  0
 14 46  1  0  0  0  0
 15 16  1  0  0  0  0
 15 47  1  0  0  0  0
 16 48  1  0  0  0  0
 17 18  2  0  0  0  0
 17 19  1  0  0  0  0
 19 49  1  0  0  0  0
 20 21  1  0  0  0  0
 20 29  1  0  0  0  0
 20 19  1  0  0  0  0
 20 50  1  1  0  0  0
 21 22  1  0  0  0  0
 21 51  1  0  0  0  0
 21 52  1  0  0  0  0
 22 23  1  0  0  0  0
 22 53  1  0  0  0  0
 22 54  1  0  0  0  0
 23 24  1  0  0  0  0
 23 55  1  0  0  0  0
 23 56  1  0  0  0  0
 24 29  2  0  0  0  0
 24 25  1  0  0  0  0
 25 26  2  0  0  0  0
 25 57  1  0  0  0  0
 26 27  1  0  0  0  0
 26 58  1  0  0  0  0
 27 28  2  0  0  0  0
 27 59  1  0  0  0  0
 28 29  1  0  0  0  0
 28 60  1  0  0  0  0
M  END
$$$$
CHEMBL272203_5ZTY
 OpenBabel12022418123D

 50 53  0  0  0  0  0  0  0  0999 V2000
    1.1356    0.4994   -0.0489 C   0  0  0  0  0  0  0  0  0  0  0  0
    2.6025    0.2447   -0.0268 C   0  0  0  0  0  0  0  0  0  0  0  0
    3.6109    1.2622    0.0948 C   0  0  0  0  0  0  0  0  0  0  0  0
    3.4168    2.7439    0.0977 C   0  0  0  0  0  0  0  0  0  0  0  0
    2.3123    3.2667   -0.0267 O   0  0  0  0  0  0  0  0  0  0  0  0
    4.5889    3.4596    0.2382 N   0  0  0  0  0  0  0  0  0  0  0  0
    4.7380    4.9155    0.2701 C   0  0  0  0  0  0  0  0  0  0  0  0
    4.4099    5.5932   -1.0686 C   0  0  0  0  0  0  0  0  0  0  0  0
    4.6882    7.0996   -1.0171 C   0  0  0  0  0  0  0  0  0  0  0  0
    3.9602    7.7795    0.1394 C   0  0  0  0  0  0  0  0  0  0  0  0
    4.2561    7.0962    1.4718 C   0  0  0  0  0  0  0  0  0  0  0  0
    3.9742    5.5909    1.4199 C   0  0  0  0  0  0  0  0  0  0  0  0
    4.8327    0.7113    0.2544 N   0  0  0  0  0  0  0  0  0  0  0  0
    4.6480   -0.6261    0.0689 N   0  0  0  0  0  0  0  0  0  0  0  0
    5.7956   -1.4402   -0.1724 C   0  0  0  0  0  0  0  0  0  0  0  0
    5.7500   -2.5131   -1.0748 C   0  0  0  0  0  0  0  0  0  0  0  0
    6.8865   -3.2983   -1.2887 C   0  0  0  0  0  0  0  0  0  0  0  0
    8.0756   -3.0156   -0.6121 C   0  0  0  0  0  0  0  0  0  0  0  0
    8.1278   -1.9389    0.2814 C   0  0  0  0  0  0  0  0  0  0  0  0
    6.9952   -1.1419    0.4886 C   0  0  0  0  0  0  0  0  0  0  0  0
    9.5562   -1.5515    1.1735 Cl  0  0  0  0  0  0  0  0  0  0  0  0
    9.4405   -4.0241   -0.9350 Cl  0  0  0  0  0  0  0  0  0  0  0  0
    3.3046   -0.9539    0.0093 C   0  0  0  0  0  0  0  0  0  0  0  0
    2.8025   -2.2626    0.0599 N   0  0  0  0  0  0  0  0  0  0  0  0
    3.3579   -3.3377    0.7365 C   0  0  0  0  0  0  0  0  0  0  0  0
    2.5856   -4.4613    0.5406 C   0  0  0  0  0  0  0  0  0  0  0  0
    1.4970   -4.0770   -0.2641 C   0  0  0  0  0  0  0  0  0  0  0  0
    1.6497   -2.7356   -0.5402 C   0  0  0  0  0  0  0  0  0  0  0  0
    0.5419   -0.4053    0.0909 H   0  0  0  0  0  0  0  0  0  0  0  0
    0.8405    0.9602   -0.9963 H   0  0  0  0  0  0  0  0  0  0  0  0
    0.8552    1.1702    0.7701 H   0  0  0  0  0  0  0  0  0  0  0  0
    5.4236    2.8817    0.2932 H   0  0  0  0  0  0  0  0  0  0  0  0
    5.8094    5.0683    0.4586 H   0  0  0  0  0  0  0  0  0  0  0  0
    3.3574    5.4317   -1.3306 H   0  0  0  0  0  0  0  0  0  0  0  0
    5.0068    5.1458   -1.8720 H   0  0  0  0  0  0  0  0  0  0  0  0
    4.3881    7.5662   -1.9626 H   0  0  0  0  0  0  0  0  0  0  0  0
    5.7674    7.2685   -0.9111 H   0  0  0  0  0  0  0  0  0  0  0  0
    2.8797    7.7647   -0.0485 H   0  0  0  0  0  0  0  0  0  0  0  0
    4.2565    8.8346    0.1926 H   0  0  0  0  0  0  0  0  0  0  0  0
    3.6543    7.5601    2.2619 H   0  0  0  0  0  0  0  0  0  0  0  0
    5.3078    7.2626    1.7370 H   0  0  0  0  0  0  0  0  0  0  0  0
    4.2573    5.1378    2.3771 H   0  0  0  0  0  0  0  0  0  0  0  0
    2.8946    5.4379    1.3056 H   0  0  0  0  0  0  0  0  0  0  0  0
    4.8536   -2.7448   -1.6466 H   0  0  0  0  0  0  0  0  0  0  0  0
    6.8375   -4.1282   -1.9911 H   0  0  0  0  0  0  0  0  0  0  0  0
    7.0423   -0.3154    1.1958 H   0  0  0  0  0  0  0  0  0  0  0  0
    4.2524   -3.2193    1.3315 H   0  0  0  0  0  0  0  0  0  0  0  0
    2.7854   -5.4458    0.9452 H   0  0  0  0  0  0  0  0  0  0  0  0
    0.6900   -4.7087   -0.6141 H   0  0  0  0  0  0  0  0  0  0  0  0
    1.0454   -2.0932   -1.1646 H   0  0  0  0  0  0  0  0  0  0  0  0
  1  2  1  0  0  0  0
  1 29  1  0  0  0  0
  1 30  1  0  0  0  0
  1 31  1  0  0  0  0
  2 23  2  0  0  0  0
  2  3  1  0  0  0  0
  3  4  1  0  0  0  0
  3 13  2  0  0  0  0
  4  5  2  0  0  0  0
  4  6  1  0  0  0  0
  6  7  1  0  0  0  0
  6 32  1  0  0  0  0
  7 12  1  0  0  0  0
  7  8  1  0  0  0  0
  7 33  1  0  0  0  0
  8  9  1  0  0  0  0
  8 34  1  0  0  0  0
  8 35  1  0  0  0  0
  9 10  1  0  0  0  0
  9 36  1  0  0  0  0
  9 37  1  0  0  0  0
 10 11  1  0  0  0  0
 10 38  1  0  0  0  0
 10 39  1  0  0  0  0
 11 12  1  0  0  0  0
 11 40  1  0  0  0  0
 11 41  1  0  0  0  0
 12 42  1  0  0  0  0
 12 43  1  0  0  0  0
 13 14  1  0  0  0  0
 14 15  1  0  0  0  0
 14 23  1  0  0  0  0
 15 20  2  0  0  0  0
 15 16  1  0  0  0  0
 16 17  2  0  0  0  0
 16 44  1  0  0  0  0
 17 18  1  0  0  0  0
 17 45  1  0  0  0  0
 18 19  2  0  0  0  0
 18 22  1  0  0  0  0
 19 20  1  0  0  0  0
 19 21  1  0  0  0  0
 20 46  1  0  0  0  0
 23 24  1  0  0  0  0
 24 28  1  0  0  0  0
 24 25  1  0  0  0  0
 25 26  2  0  0  0  0
 25 47  1  0  0  0  0
 26 27  1  0  0  0  0
 26 48  1  0  0  0  0
 27 28  2  0  0  0  0
 27 49  1  0  0  0  0
 28 50  1  0  0  0  0
M  END
$$$$
CHEMBL2163962_5ZTY
 OpenBabel12022418123D

 54 59  0  0  1  0  0  0  0  0999 V2000
    5.8639   -2.9407   -3.4980 C   0  0  0  0  0  0  0  0  0  0  0  0
    4.5137   -2.2062   -3.5469 C   0  0  2  0  0  0  0  0  0  0  0  0
    4.7923   -0.7457   -3.9662 C   0  0  0  0  0  0  0  0  0  0  0  0
    4.1436    0.3263   -3.3019 O   0  0  0  0  0  0  0  0  0  0  0  0
    3.5976    0.0522   -2.0885 C   0  0  0  0  0  0  0  0  0  0  0  0
    3.1998    1.1852   -1.3636 C   0  0  0  0  0  0  0  0  0  0  0  0
    2.5378    1.0543   -0.1472 C   0  0  0  0  0  0  0  0  0  0  0  0
    2.2577   -0.2131    0.3387 C   0  0  0  0  0  0  0  0  0  0  0  0
    2.6634   -1.3432   -0.3827 C   0  0  0  0  0  0  0  0  0  0  0  0
    2.3028   -2.6819    0.1353 C   0  0  0  0  0  0  0  0  0  0  0  0
    1.6819   -2.7958    1.1913 O   0  0  0  0  0  0  0  0  0  0  0  0
    2.6868   -3.8703   -0.6605 C   0  0  0  0  0  0  0  0  0  0  0  0
    2.3519   -5.2755   -0.2739 C   0  0  0  0  0  0  0  0  0  0  0  0
    2.8899   -6.2189   -0.8471 O   0  0  0  0  0  0  0  0  0  0  0  0
    1.4264   -5.4210    0.7451 N   0  0  0  0  0  0  0  0  0  0  0  0
    1.0415   -6.7074    1.3482 C   0  0  2  0  0  0  0  0  0  0  0  0
   -0.0797   -6.5088    2.4137 C   0  0  0  0  0  0  0  0  0  0  0  0
   -0.4719   -7.8590    3.0595 C   0  0  1  0  0  0  0  0  0  0  0  0
   -0.9806   -8.8228    1.9754 C   0  0  0  0  0  0  0  0  0  0  0  0
    0.1102   -9.0352    0.9163 C   0  0  2  0  0  0  0  0  0  0  0  0
    1.3630   -9.6314    1.5801 C   0  0  0  0  0  0  0  0  0  0  0  0
    1.8708   -8.6982    2.6914 C   0  0  2  0  0  0  0  0  0  0  0  0
    0.7609   -8.4847    3.7321 C   0  0  0  0  0  0  0  0  0  0  0  0
    2.2519   -7.3446    2.0739 C   0  0  0  0  0  0  0  0  0  0  0  0
    0.4728   -7.6824    0.2848 C   0  0  0  0  0  0  0  0  0  0  0  0
    3.3827   -3.6344   -1.7888 C   0  0  0  0  0  0  0  0  0  0  0  0
    3.7773   -2.3913   -2.2812 N   0  0  0  0  0  0  0  0  0  0  0  0
    3.3683   -1.2318   -1.6036 C   0  0  0  0  0  0  0  0  0  0  0  0
    6.4255   -2.7873   -4.4272 H   0  0  0  0  0  0  0  0  0  0  0  0
    5.7398   -4.0194   -3.3686 H   0  0  0  0  0  0  0  0  0  0  0  0
    6.4781   -2.5725   -2.6678 H   0  0  0  0  0  0  0  0  0  0  0  0
    3.9187   -2.6662   -4.3474 H   0  0  0  0  0  0  0  0  0  0  0  0
    4.5179   -0.6472   -5.0254 H   0  0  0  0  0  0  0  0  0  0  0  0
    5.8667   -0.5234   -3.9393 H   0  0  0  0  0  0  0  0  0  0  0  0
    3.4038    2.1761   -1.7617 H   0  0  0  0  0  0  0  0  0  0  0  0
    2.2275    1.9369    0.4058 H   0  0  0  0  0  0  0  0  0  0  0  0
    1.7123   -0.3269    1.2744 H   0  0  0  0  0  0  0  0  0  0  0  0
    1.1594   -4.5679    1.2391 H   0  0  0  0  0  0  0  0  0  0  0  0
   -0.9659   -6.0517    1.9541 H   0  0  0  0  0  0  0  0  0  0  0  0
    0.2538   -5.8137    3.1953 H   0  0  0  0  0  0  0  0  0  0  0  0
   -1.2579   -7.7025    3.8073 H   0  0  0  0  0  0  0  0  0  0  0  0
   -1.8879   -8.4208    1.5090 H   0  0  0  0  0  0  0  0  0  0  0  0
   -1.2553   -9.7863    2.4243 H   0  0  0  0  0  0  0  0  0  0  0  0
   -0.2565   -9.7160    0.1400 H   0  0  0  0  0  0  0  0  0  0  0  0
    2.1491   -9.7781    0.8286 H   0  0  0  0  0  0  0  0  0  0  0  0
    1.1318  -10.6189    1.9966 H   0  0  0  0  0  0  0  0  0  0  0  0
    2.7488   -9.1415    3.1751 H   0  0  0  0  0  0  0  0  0  0  0  0
    0.4931   -9.4445    4.1931 H   0  0  0  0  0  0  0  0  0  0  0  0
    1.1185   -7.8347    4.5396 H   0  0  0  0  0  0  0  0  0  0  0  0
    2.6141   -6.6674    2.8590 H   0  0  0  0  0  0  0  0  0  0  0  0
    3.0909   -7.4876    1.3833 H   0  0  0  0  0  0  0  0  0  0  0  0
    1.1902   -7.8583   -0.5222 H   0  0  0  0  0  0  0  0  0  0  0  0
   -0.4154   -7.2410   -0.1876 H   0  0  0  0  0  0  0  0  0  0  0  0
    3.6867   -4.4660   -2.4211 H   0  0  0  0  0  0  0  0  0  0  0  0
  1 29  1  0  0  0  0
  1 30  1  0  0  0  0
  1 31  1  0  0  0  0
  2  1  1  0  0  0  0
  2  3  1  0  0  0  0
  2 27  1  0  0  0  0
  2 32  1  6  0  0  0
  3  4  1  0  0  0  0
  3 33  1  0  0  0  0
  3 34  1  0  0  0  0
  4  5  1  0  0  0  0
  5 28  2  0  0  0  0
  5  6  1  0  0  0  0
  6  7  2  0  0  0  0
  6 35  1  0  0  0  0
  7  8  1  0  0  0  0
  7 36  1  0  0  0  0
  8  9  2  0  0  0  0
  8 37  1  0  0  0  0
  9 28  1  0  0  0  0
  9 10  1  0  0  0  0
 10 11  2  0  0  0  0
 10 12  1  0  0  0  0
 12 13  1  0  0  0  0
 12 26  2  0  0  0  0
 13 14  2  0  0  0  0
 13 15  1  0  0  0  0
 15 38  1  0  0  0  0
 16 15  1  6  0  0  0
 16 24  1  0  0  0  0
 16 25  1  0  0  0  0
 16 17  1  0  0  0  0
 17 39  1  0  0  0  0
 17 40  1  0  0  0  0
 18 17  1  0  0  0  0
 18 19  1  0  0  0  0
 18 23  1  0  0  0  0
 18 41  1  1  0  0  0
 19 42  1  0  0  0  0
 19 43  1  0  0  0  0
 20 19  1  0  0  0  0
 20 21  1  0  0  0  0
 20 25  1  0  0  0  0
 20 44  1  6  0  0  0
 21 45  1  0  0  0  0
 21 46  1  0  0  0  0
 22 21  1  0  0  0  0
 22 23  1  0  0  0  0
 22 24  1  0  0  0  0
 22 47  1  1  0  0  0
 23 48  1  0  0  0  0
 23 49  1  0  0  0  0
 24 50  1  0  0  0  0
 24 51  1  0  0  0  0
 25 52  1  0  0  0  0
 25 53  1  0  0  0  0
 26 27  1  0  0  0  0
 26 54  1  0  0  0  0
 27 28  1  0  0  0  0
M  END
$$$$
CHEMBL1909844_5ZTY
 OpenBabel12022418123D

 50 53  0  0  0  0  0  0  0  0999 V2000
    1.1592    0.3934   -0.0660 C   0  0  0  0  0  0  0  0  0  0  0  0
    2.6354    0.1811   -0.0584 C   0  0  0  0  0  0  0  0  0  0  0  0
    3.6392    1.2237    0.0055 C   0  0  0  0  0  0  0  0  0  0  0  0
    3.4650    2.7134    0.0501 C   0  0  0  0  0  0  0  0  0  0  0  0
    2.3544    3.2414   -0.0154 O   0  0  0  0  0  0  0  0  0  0  0  0
    4.6420    3.4502    0.1476 N   0  0  0  0  0  0  0  0  0  0  0  0
    4.7935    4.9124    0.1975 C   0  0  0  0  0  0  0  0  0  0  0  0
    4.4407    5.6131   -1.1245 C   0  0  0  0  0  0  0  0  0  0  0  0
    4.7264    7.1200   -1.0700 C   0  0  0  0  0  0  0  0  0  0  0  0
    4.0294    7.7963    0.1064 C   0  0  0  0  0  0  0  0  0  0  0  0
    4.3663    7.1045    1.4239 C   0  0  0  0  0  0  0  0  0  0  0  0
    4.0729    5.5969    1.3747 C   0  0  0  0  0  0  0  0  0  0  0  0
    4.8782    0.6758    0.0581 N   0  0  0  0  0  0  0  0  0  0  0  0
    4.6939   -0.6739   -0.0044 N   0  0  0  0  0  0  0  0  0  0  0  0
    5.8278   -1.4902   -0.2927 C   0  0  0  0  0  0  0  0  0  0  0  0
    5.7143   -2.5448   -1.2239 C   0  0  0  0  0  0  0  0  0  0  0  0
    6.8249   -3.3310   -1.5392 C   0  0  0  0  0  0  0  0  0  0  0  0
    8.0528   -3.0577   -0.9471 C   0  0  0  0  0  0  0  0  0  0  0  0
    8.1700   -2.0503    0.0081 C   0  0  0  0  0  0  0  0  0  0  0  0
    7.0587   -1.2696    0.3467 C   0  0  0  0  0  0  0  0  0  0  0  0
    7.2652   -0.1932    1.6896 Cl  0  0  0  0  0  0  0  0  0  0  0  0
    9.4398   -3.9646   -1.4058 Cl  0  0  0  0  0  0  0  0  0  0  0  0
    3.3454   -1.0152   -0.0024 C   0  0  0  0  0  0  0  0  0  0  0  0
    2.8507   -2.3387    0.0696 N   0  0  0  0  0  0  0  0  0  0  0  0
    1.7010   -2.8003   -0.5667 C   0  0  0  0  0  0  0  0  0  0  0  0
    1.5754   -4.1648   -0.4042 C   0  0  0  0  0  0  0  0  0  0  0  0
    2.6700   -4.5910    0.3661 C   0  0  0  0  0  0  0  0  0  0  0  0
    3.3708   -3.4607    0.7078 C   0  0  0  0  0  0  0  0  0  0  0  0
    4.6248   -3.3865    1.8717 Cl  0  0  0  0  0  0  0  0  0  0  0  0
    0.5975   -0.5373    0.0326 H   0  0  0  0  0  0  0  0  0  0  0  0
    0.8351    0.8708   -0.9948 H   0  0  0  0  0  0  0  0  0  0  0  0
    0.8491    1.0042    0.7859 H   0  0  0  0  0  0  0  0  0  0  0  0
    5.4824    2.8744    0.1260 H   0  0  0  0  0  0  0  0  0  0  0  0
    5.8702    5.0591    0.3603 H   0  0  0  0  0  0  0  0  0  0  0  0
    3.3808    5.4592   -1.3639 H   0  0  0  0  0  0  0  0  0  0  0  0
    5.0180    5.1731   -1.9463 H   0  0  0  0  0  0  0  0  0  0  0  0
    4.4067    7.5952   -2.0050 H   0  0  0  0  0  0  0  0  0  0  0  0
    5.8085    7.2860   -0.9881 H   0  0  0  0  0  0  0  0  0  0  0  0
    2.9442    7.7838   -0.0502 H   0  0  0  0  0  0  0  0  0  0  0  0
    4.3266    8.8528    0.1552 H   0  0  0  0  0  0  0  0  0  0  0  0
    3.7963    7.5721    2.2359 H   0  0  0  0  0  0  0  0  0  0  0  0
    5.4275    7.2664    1.6533 H   0  0  0  0  0  0  0  0  0  0  0  0
    4.3842    5.1435    2.3229 H   0  0  0  0  0  0  0  0  0  0  0  0
    2.9882    5.4537    1.2958 H   0  0  0  0  0  0  0  0  0  0  0  0
    4.7781   -2.7749   -1.7248 H   0  0  0  0  0  0  0  0  0  0  0  0
    6.7252   -4.1441   -2.2554 H   0  0  0  0  0  0  0  0  0  0  0  0
    9.1228   -1.8829    0.5032 H   0  0  0  0  0  0  0  0  0  0  0  0
    1.0753   -2.1373   -1.1452 H   0  0  0  0  0  0  0  0  0  0  0  0
    0.7762   -4.7812   -0.8000 H   0  0  0  0  0  0  0  0  0  0  0  0
    2.8887   -5.5978    0.6989 H   0  0  0  0  0  0  0  0  0  0  0  0
  1  2  1  0  0  0  0
  1 30  1  0  0  0  0
  1 31  1  0  0  0  0
  1 32  1  0  0  0  0
  2 23  2  0  0  0  0
  2  3  1  0  0  0  0
  3  4  1  0  0  0  0
  3 13  2  0  0  0  0
  4  5  2  0  0  0  0
  4  6  1  0  0  0  0
  6  7  1  0  0  0  0
  6 33  1  0  0  0  0
  7 12  1  0  0  0  0
  7  8  1  0  0  0  0
  7 34  1  0  0  0  0
  8  9  1  0  0  0  0
  8 35  1  0  0  0  0
  8 36  1  0  0  0  0
  9 10  1  0  0  0  0
  9 37  1  0  0  0  0
  9 38  1  0  0  0  0
 10 11  1  0  0  0  0
 10 39  1  0  0  0  0
 10 40  1  0  0  0  0
 11 12  1  0  0  0  0
 11 41  1  0  0  0  0
 11 42  1  0  0  0  0
 12 43  1  0  0  0  0
 12 44  1  0  0  0  0
 13 14  1  0  0  0  0
 14 15  1  0  0  0  0
 14 23  1  0  0  0  0
 15 20  2  0  0  0  0
 15 16  1  0  0  0  0
 16 17  2  0  0  0  0
 16 45  1  0  0  0  0
 17 18  1  0  0  0  0
 17 46  1  0  0  0  0
 18 19  2  0  0  0  0
 18 22  1  0  0  0  0
 19 20  1  0  0  0  0
 19 47  1  0  0  0  0
 20 21  1  0  0  0  0
 23 24  1  0  0  0  0
 24 28  1  0  0  0  0
 24 25  1  0  0  0  0
 25 26  2  0  0  0  0
 25 48  1  0  0  0  0
 26 27  1  0  0  0  0
 26 49  1  0  0  0  0
 27 28  2  0  0  0  0
 27 50  1  0  0  0  0
 28 29  1  0  0  0  0
M  END
$$$$
CHEMBL1909847_5ZTY
 OpenBabel12022418123D

 57 61  0  0  0  0  0  0  0  0999 V2000
    1.2588    0.1516    0.0223 C   0  0  0  0  0  0  0  0  0  0  0  0
    2.7380    0.0211    0.0612 C   0  0  0  0  0  0  0  0  0  0  0  0
    3.6776    1.1090   -0.0507 C   0  0  0  0  0  0  0  0  0  0  0  0
    3.4298    2.5785   -0.1576 C   0  0  0  0  0  0  0  0  0  0  0  0
    2.3230    3.0724   -0.1611 O   0  0  0  0  0  0  0  0  0  0  0  0
    4.6081    3.3073   -0.2296 N   0  0  0  0  0  0  0  0  0  0  0  0
    4.6731    4.7439   -0.3977 C   0  0  0  0  0  0  0  0  0  0  0  0
    4.8580    5.4916    0.9040 C   0  0  0  0  0  0  0  0  0  0  0  0
    3.7391    5.9058    1.6405 C   0  0  0  0  0  0  0  0  0  0  0  0
    3.8902    6.6076    2.8418 C   0  0  0  0  0  0  0  0  0  0  0  0
    5.1643    6.9050    3.3289 C   0  0  0  0  0  0  0  0  0  0  0  0
    6.2911    6.5078    2.6027 C   0  0  0  0  0  0  0  0  0  0  0  0
    6.1364    5.8040    1.3968 C   0  0  0  0  0  0  0  0  0  0  0  0
    7.8994    6.8586    3.1336 Cl  0  0  0  0  0  0  0  0  0  0  0  0
    5.2746    7.7618    4.8267 Cl  0  0  0  0  0  0  0  0  0  0  0  0
    4.9280    0.6502   -0.0576 N   0  0  0  0  0  0  0  0  0  0  0  0
    4.8476   -0.6861    0.0159 N   0  0  0  0  0  0  0  0  0  0  0  0
    5.9847   -1.4112   -0.3990 C   0  0  0  0  0  0  0  0  0  0  0  0
    5.8463   -2.4041   -1.3950 C   0  0  0  0  0  0  0  0  0  0  0  0
    6.9961   -2.9533   -1.9706 C   0  0  0  0  0  0  0  0  0  0  0  0
    8.2576   -2.5406   -1.5437 C   0  0  0  0  0  0  0  0  0  0  0  0
    8.3904   -1.5943   -0.5234 C   0  0  0  0  0  0  0  0  0  0  0  0
    7.2511   -1.0309    0.0472 C   0  0  0  0  0  0  0  0  0  0  0  0
    7.5076    0.0598    1.3700 Cl  0  0  0  0  0  0  0  0  0  0  0  0
    9.6692   -3.1733   -2.2883 Cl  0  0  0  0  0  0  0  0  0  0  0  0
    3.5556   -1.0992    0.2758 C   0  0  0  0  0  0  0  0  0  0  0  0
    3.2014   -2.3948    0.7119 N   0  0  0  0  0  0  0  0  0  0  0  0
    4.0002   -3.5039    1.0158 C   0  0  0  0  0  0  0  0  0  0  0  0
    3.1417   -4.5934    0.9607 C   0  0  0  0  0  0  0  0  0  0  0  0
    2.0369   -4.0324    1.6033 C   0  0  0  0  0  0  0  0  0  0  0  0
    1.8854   -2.8617    0.8928 C   0  0  0  0  0  0  0  0  0  0  0  0
    1.8319   -4.4253    3.0264 C   0  0  0  0  0  0  0  0  0  0  0  0
    1.9810   -5.9472    3.2185 C   0  0  0  0  0  0  0  0  0  0  0  0
    2.5267   -6.7845    2.0353 C   0  0  0  0  0  0  0  0  0  0  0  0
    3.2379   -6.0612    0.8756 C   0  0  0  0  0  0  0  0  0  0  0  0
    0.7344   -0.7997   -0.0429 H   0  0  0  0  0  0  0  0  0  0  0  0
    0.9580    0.7066   -0.8734 H   0  0  0  0  0  0  0  0  0  0  0  0
    0.8776    0.6763    0.9057 H   0  0  0  0  0  0  0  0  0  0  0  0
    5.4627    2.7615   -0.2166 H   0  0  0  0  0  0  0  0  0  0  0  0
    3.7703    5.0990   -0.9074 H   0  0  0  0  0  0  0  0  0  0  0  0
    5.5173    4.9565   -1.0627 H   0  0  0  0  0  0  0  0  0  0  0  0
    2.7362    5.6870    1.2761 H   0  0  0  0  0  0  0  0  0  0  0  0
    3.0053    6.9172    3.3933 H   0  0  0  0  0  0  0  0  0  0  0  0
    7.0230    5.5101    0.8381 H   0  0  0  0  0  0  0  0  0  0  0  0
    4.8741   -2.7001   -1.7820 H   0  0  0  0  0  0  0  0  0  0  0  0
    6.9043   -3.6801   -2.7753 H   0  0  0  0  0  0  0  0  0  0  0  0
    9.3760   -1.2959   -0.1805 H   0  0  0  0  0  0  0  0  0  0  0  0
    5.0656   -3.4217    1.1883 H   0  0  0  0  0  0  0  0  0  0  0  0
    1.2959   -2.7440   -0.0100 H   0  0  0  0  0  0  0  0  0  0  0  0
    0.8872   -4.0528    3.4290 H   0  0  0  0  0  0  0  0  0  0  0  0
    2.6252   -3.9466    3.6255 H   0  0  0  0  0  0  0  0  0  0  0  0
    2.6196   -6.1321    4.0932 H   0  0  0  0  0  0  0  0  0  0  0  0
    0.9993   -6.3494    3.4991 H   0  0  0  0  0  0  0  0  0  0  0  0
    1.6734   -7.3349    1.6119 H   0  0  0  0  0  0  0  0  0  0  0  0
    3.1907   -7.5683    2.4200 H   0  0  0  0  0  0  0  0  0  0  0  0
    4.2449   -6.4375    0.6846 H   0  0  0  0  0  0  0  0  0  0  0  0
    2.6628   -6.3184   -0.0314 H   0  0  0  0  0  0  0  0  0  0  0  0
  1  2  1  0  0  0  0
  1 36  1  0  0  0  0
  1 37  1  0  0  0  0
  1 38  1  0  0  0  0
  2 26  2  0  0  0  0
  2  3  1  0  0  0  0
  3  4  1  0  0  0  0
  3 16  2  0  0  0  0
  4  5  2  0  0  0  0
  4  6  1  0  0  0  0
  6  7  1  0  0  0  0
  6 39  1  0  0  0  0
  7  8  1  0  0  0  0
  7 40  1  0  0  0  0
  7 41  1  0  0  0  0
  8 13  2  0  0  0  0
  8  9  1  0  0  0  0
  9 10  2  0  0  0  0
  9 42  1  0  0  0  0
 10 11  1  0  0  0  0
 10 43  1  0  0  0  0
 11 12  2  0  0  0  0
 11 15  1  0  0  0  0
 12 13  1  0  0  0  0
 12 14  1  0  0  0  0
 13 44  1  0  0  0  0
 16 17  1  0  0  0  0
 17 18  1  0  0  0  0
 17 26  1  0  0  0  0
 18 23  2  0  0  0  0
 18 19  1  0  0  0  0
 19 20  2  0  0  0  0
 19 45  1  0  0  0  0
 20 21  1  0  0  0  0
 20 46  1  0  0  0  0
 21 22  2  0  0  0  0
 21 25  1  0  0  0  0
 22 23  1  0  0  0  0
 22 47  1  0  0  0  0
 23 24  1  0  0  0  0
 26 27  1  0  0  0  0
 27 31  1  0  0  0  0
 27 28  1  0  0  0  0
 28 29  2  0  0  0  0
 28 48  1  0  0  0  0
 29 35  1  0  0  0  0
 29 30  1  0  0  0  0
 30 31  2  0  0  0  0
 30 32  1  0  0  0  0
 31 49  1  0  0  0  0
 32 33  1  0  0  0  0
 32 50  1  0  0  0  0
 32 51  1  0  0  0  0
 33 34  1  0  0  0  0
 33 52  1  0  0  0  0
 33 53  1  0  0  0  0
 34 35  1  0  0  0  0
 34 54  1  0  0  0  0
 34 55  1  0  0  0  0
 35 56  1  0  0  0  0
 35 57  1  0  0  0  0
M  END
$$$$
CHEMBL2336561_8GUT
 OpenBabel12022418123D

 57 59  0  0  0  0  0  0  0  0999 V2000
    0.7091   -2.4186   -1.6305 C   0  0  0  0  0  0  0  0  0  0  0  0
    2.0734   -2.5423   -2.2923 C   0  0  0  0  0  0  0  0  0  0  0  0
    2.9025   -1.3113   -2.2236 N   0  0  0  0  0  0  0  0  0  0  0  0
    2.8454   -0.3729   -3.3889 C   0  0  0  0  0  0  0  0  0  0  0  0
    1.4855    0.2770   -3.6460 C   0  0  0  0  0  0  0  0  0  0  0  0
    4.2804   -1.5762   -1.9052 C   0  0  0  0  0  0  0  0  0  0  0  0
    5.0705   -0.5822   -1.3000 C   0  0  0  0  0  0  0  0  0  0  0  0
    6.4538   -0.7675   -1.0484 C   0  0  0  0  0  0  0  0  0  0  0  0
    7.0869   -1.9714   -1.3744 C   0  0  0  0  0  0  0  0  0  0  0  0
    8.6004   -2.1361   -1.3528 C   0  0  0  0  0  0  0  0  0  0  0  0
    9.3513   -2.0516   -0.0453 N   0  0  0  0  0  0  0  0  0  0  0  0
    8.8430   -3.0423    0.9606 C   0  0  0  0  0  0  0  0  0  0  0  0
    9.4457   -2.9239    2.3512 C   0  0  0  0  0  0  0  0  0  0  0  0
   10.1921   -3.9897    2.8791 C   0  0  0  0  0  0  0  0  0  0  0  0
   10.9229   -3.8309    4.0605 C   0  0  0  0  0  0  0  0  0  0  0  0
   10.8846   -2.6288    4.7484 C   0  0  0  0  0  0  0  0  0  0  0  0
   10.0913   -1.5738    4.2701 C   0  0  0  0  0  0  0  0  0  0  0  0
    9.3687   -1.7285    3.0741 C   0  0  0  0  0  0  0  0  0  0  0  0
   11.0746   -2.1848   -0.3362 S   0  0  0  0  0  0  0  0  0  0  0  0
   11.7903   -2.5781    0.8540 O   0  0  0  0  0  0  0  0  0  0  0  0
   11.2625   -2.9220   -1.5669 O   0  0  0  0  0  0  0  0  0  0  0  0
   11.5599   -0.4942   -0.6365 C   0  0  0  0  0  0  0  0  0  0  0  0
   11.9713    0.3042    0.4406 C   0  0  0  0  0  0  0  0  0  0  0  0
   12.4270    1.6041    0.2048 C   0  0  0  0  0  0  0  0  0  0  0  0
   12.4847    2.0891   -1.1014 C   0  0  0  0  0  0  0  0  0  0  0  0
   12.1161    1.2781   -2.1764 C   0  0  0  0  0  0  0  0  0  0  0  0
   11.6625   -0.0228   -1.9473 C   0  0  0  0  0  0  0  0  0  0  0  0
   13.0164    3.6992   -1.3939 Cl  0  0  0  0  0  0  0  0  0  0  0  0
    6.2859   -2.9993   -1.8917 C   0  0  0  0  0  0  0  0  0  0  0  0
    4.9209   -2.7970   -2.1693 C   0  0  0  0  0  0  0  0  0  0  0  0
    0.3332   -3.4304   -1.4096 H   0  0  0  0  0  0  0  0  0  0  0  0
   -0.0281   -1.9424   -2.2788 H   0  0  0  0  0  0  0  0  0  0  0  0
    0.7567   -1.8801   -0.6788 H   0  0  0  0  0  0  0  0  0  0  0  0
    1.9687   -2.9012   -3.3233 H   0  0  0  0  0  0  0  0  0  0  0  0
    2.5450   -3.3455   -1.7155 H   0  0  0  0  0  0  0  0  0  0  0  0
    3.1748   -0.8751   -4.3081 H   0  0  0  0  0  0  0  0  0  0  0  0
    3.5365    0.4635   -3.2219 H   0  0  0  0  0  0  0  0  0  0  0  0
    0.7996   -0.4003   -4.1566 H   0  0  0  0  0  0  0  0  0  0  0  0
    1.6175    1.1445   -4.3083 H   0  0  0  0  0  0  0  0  0  0  0  0
    1.0158    0.6353   -2.7277 H   0  0  0  0  0  0  0  0  0  0  0  0
    4.6117    0.3602   -1.0155 H   0  0  0  0  0  0  0  0  0  0  0  0
    7.0260    0.0487   -0.6204 H   0  0  0  0  0  0  0  0  0  0  0  0
    8.9955   -1.3767   -2.0413 H   0  0  0  0  0  0  0  0  0  0  0  0
    8.8280   -3.1102   -1.8109 H   0  0  0  0  0  0  0  0  0  0  0  0
    9.0077   -4.0525    0.5623 H   0  0  0  0  0  0  0  0  0  0  0  0
    7.7595   -2.9253    1.0764 H   0  0  0  0  0  0  0  0  0  0  0  0
   10.2853   -4.9246    2.3313 H   0  0  0  0  0  0  0  0  0  0  0  0
   11.5539   -4.6419    4.4193 H   0  0  0  0  0  0  0  0  0  0  0  0
   11.4862   -2.4865    5.6408 H   0  0  0  0  0  0  0  0  0  0  0  0
   10.0574   -0.6368    4.8074 H   0  0  0  0  0  0  0  0  0  0  0  0
    8.7965   -0.8913    2.6984 H   0  0  0  0  0  0  0  0  0  0  0  0
   11.9577   -0.0839    1.4587 H   0  0  0  0  0  0  0  0  0  0  0  0
   12.7406    2.2283    1.0384 H   0  0  0  0  0  0  0  0  0  0  0  0
   12.1870    1.6509   -3.1947 H   0  0  0  0  0  0  0  0  0  0  0  0
   11.4071   -0.6609   -2.7894 H   0  0  0  0  0  0  0  0  0  0  0  0
    6.7154   -3.9698   -2.1295 H   0  0  0  0  0  0  0  0  0  0  0  0
    4.3891   -3.6262   -2.6264 H   0  0  0  0  0  0  0  0  0  0  0  0
  1  2  1  0  0  0  0
  1 31  1  0  0  0  0
  1 32  1  0  0  0  0
  1 33  1  0  0  0  0
  2  3  1  0  0  0  0
  2 34  1  0  0  0  0
  2 35  1  0  0  0  0
  3  4  1  0  0  0  0
  3  6  1  0  0  0  0
  4  5  1  0  0  0  0
  4 36  1  0  0  0  0
  4 37  1  0  0  0  0
  5 38  1  0  0  0  0
  5 39  1  0  0  0  0
  5 40  1  0  0  0  0
  6 30  2  0  0  0  0
  6  7  1  0  0  0  0
  7  8  2  0  0  0  0
  7 41  1  0  0  0  0
  8  9  1  0  0  0  0
  8 42  1  0  0  0  0
  9 10  1  0  0  0  0
  9 29  2  0  0  0  0
 10 11  1  0  0  0  0
 10 43  1  0  0  0  0
 10 44  1  0  0  0  0
 11 12  1  0  0  0  0
 11 19  1  0  0  0  0
 12 13  1  0  0  0  0
 12 45  1  0  0  0  0
 12 46  1  0  0  0  0
 13 18  2  0  0  0  0
 13 14  1  0  0  0  0
 14 15  2  0  0  0  0
 14 47  1  0  0  0  0
 15 16  1  0  0  0  0
 15 48  1  0  0  0  0
 16 17  2  0  0  0  0
 16 49  1  0  0  0  0
 17 18  1  0  0  0  0
 17 50  1  0  0  0  0
 18 51  1  0  0  0  0
 19 20  2  0  0  0  0
 19 21  2  0  0  0  0
 19 22  1  0  0  0  0
 22 27  2  0  0  0  0
 22 23  1  0  0  0  0
 23 24  2  0  0  0  0
 23 52  1  0  0  0  0
 24 25  1  0  0  0  0
 24 53  1  0  0  0  0
 25 26  2  0  0  0  0
 25 28  1  0  0  0  0
 26 27  1  0  0  0  0
 26 54  1  0  0  0  0
 27 55  1  0  0  0  0
 29 30  1  0  0  0  0
 29 56  1  0  0  0  0
 30 57  1  0  0  0  0
M  END
$$$$
CHEMBL2179771_5ZTY
 OpenBabel12022418123D

 63 65  0  0  0  0  0  0  0  0999 V2000
    2.1342   -0.4669    0.7139 C   0  0  0  0  0  0  0  0  0  0  0  0
    2.2725    0.2066   -0.6477 C   0  0  0  0  0  0  0  0  0  0  0  0
    2.9422   -0.6681   -1.6175 N   0  0  0  0  0  0  0  0  0  0  0  0
    2.1840   -1.3950   -2.6548 C   0  0  0  0  0  0  0  0  0  0  0  0
    0.6705   -1.4249   -2.5549 C   0  0  0  0  0  0  0  0  0  0  0  0
    4.3455   -0.6713   -1.7334 C   0  0  0  0  0  0  0  0  0  0  0  0
    5.0041   -1.3700   -2.7622 C   0  0  0  0  0  0  0  0  0  0  0  0
    6.3992   -1.3736   -2.9097 C   0  0  0  0  0  0  0  0  0  0  0  0
    7.2181   -0.6590   -2.0340 C   0  0  0  0  0  0  0  0  0  0  0  0
    8.7190   -0.6311   -2.2669 C   0  0  0  0  0  0  0  0  0  0  0  0
    9.1787    0.7204   -2.4686 N   0  0  0  0  0  0  0  0  0  0  0  0
   10.2010    1.0058   -3.3465 C   0  0  0  0  0  0  0  0  0  0  0  0
   10.8192    0.1512   -3.9678 O   0  0  0  0  0  0  0  0  0  0  0  0
   10.4940    2.4857   -3.5128 C   0  0  0  0  0  0  0  0  0  0  0  0
   11.4550    3.0832   -2.5115 C   0  0  0  0  0  0  0  0  0  0  0  0
   11.3528    4.4515   -2.2109 C   0  0  0  0  0  0  0  0  0  0  0  0
   12.2475    5.0606   -1.3295 C   0  0  0  0  0  0  0  0  0  0  0  0
   13.2645    4.3125   -0.7438 C   0  0  0  0  0  0  0  0  0  0  0  0
   13.3974    2.9606   -1.0547 C   0  0  0  0  0  0  0  0  0  0  0  0
   12.5059    2.3507   -1.9424 C   0  0  0  0  0  0  0  0  0  0  0  0
    9.4434   -1.2000   -1.1705 N   0  0  0  0  0  0  0  0  0  0  0  0
    9.8297   -2.5207   -1.1825 C   0  0  0  0  0  0  0  0  0  0  0  0
    9.5139   -3.3199   -2.0598 O   0  0  0  0  0  0  0  0  0  0  0  0
   10.7156   -2.9085   -0.0143 C   0  0  0  0  0  0  0  0  0  0  0  0
    9.9352   -3.2991    1.2135 C   0  0  0  0  0  0  0  0  0  0  0  0
   10.0845   -2.5892    2.4127 C   0  0  0  0  0  0  0  0  0  0  0  0
    9.3626   -2.9622    3.5475 C   0  0  0  0  0  0  0  0  0  0  0  0
    8.4892   -4.0471    3.4951 C   0  0  0  0  0  0  0  0  0  0  0  0
    8.3401   -4.7644    2.3100 C   0  0  0  0  0  0  0  0  0  0  0  0
    9.0618   -4.3951    1.1753 C   0  0  0  0  0  0  0  0  0  0  0  0
    6.5922    0.0185   -0.9817 C   0  0  0  0  0  0  0  0  0  0  0  0
    5.1910    0.0075   -0.8399 C   0  0  0  0  0  0  0  0  0  0  0  0
    1.7085    0.2345    1.4399 H   0  0  0  0  0  0  0  0  0  0  0  0
    3.0985   -0.8044    1.1065 H   0  0  0  0  0  0  0  0  0  0  0  0
    1.4742   -1.3381    0.6596 H   0  0  0  0  0  0  0  0  0  0  0  0
    2.8069    1.1579   -0.5342 H   0  0  0  0  0  0  0  0  0  0  0  0
    1.2779    0.5050   -0.9933 H   0  0  0  0  0  0  0  0  0  0  0  0
    2.5064   -2.4438   -2.6448 H   0  0  0  0  0  0  0  0  0  0  0  0
    2.4274   -0.9711   -3.6376 H   0  0  0  0  0  0  0  0  0  0  0  0
    0.3274   -1.8362   -1.6027 H   0  0  0  0  0  0  0  0  0  0  0  0
    0.2804   -2.0688   -3.3541 H   0  0  0  0  0  0  0  0  0  0  0  0
    0.2302   -0.4351   -2.7039 H   0  0  0  0  0  0  0  0  0  0  0  0
    4.4527   -1.9411   -3.5031 H   0  0  0  0  0  0  0  0  0  0  0  0
    6.8317   -1.9502   -3.7263 H   0  0  0  0  0  0  0  0  0  0  0  0
    8.9439   -1.2055   -3.1747 H   0  0  0  0  0  0  0  0  0  0  0  0
    8.8508    1.4396   -1.8428 H   0  0  0  0  0  0  0  0  0  0  0  0
    9.5359    3.0206   -3.4713 H   0  0  0  0  0  0  0  0  0  0  0  0
   10.8938    2.6367   -4.5229 H   0  0  0  0  0  0  0  0  0  0  0  0
   10.5799    5.0600   -2.6767 H   0  0  0  0  0  0  0  0  0  0  0  0
   12.1571    6.1215   -1.1106 H   0  0  0  0  0  0  0  0  0  0  0  0
   13.9638    4.7864   -0.0597 H   0  0  0  0  0  0  0  0  0  0  0  0
   14.2078    2.3826   -0.6172 H   0  0  0  0  0  0  0  0  0  0  0  0
   12.6571    1.3020   -2.1941 H   0  0  0  0  0  0  0  0  0  0  0  0
    9.5645   -0.6527   -0.3343 H   0  0  0  0  0  0  0  0  0  0  0  0
   11.3909   -2.0713    0.2032 H   0  0  0  0  0  0  0  0  0  0  0  0
   11.3584   -3.7407   -0.3240 H   0  0  0  0  0  0  0  0  0  0  0  0
   10.7669   -1.7451    2.4763 H   0  0  0  0  0  0  0  0  0  0  0  0
    9.4832   -2.4088    4.4752 H   0  0  0  0  0  0  0  0  0  0  0  0
    7.9260   -4.3365    4.3780 H   0  0  0  0  0  0  0  0  0  0  0  0
    7.6613   -5.6121    2.2664 H   0  0  0  0  0  0  0  0  0  0  0  0
    8.9362   -4.9660    0.2559 H   0  0  0  0  0  0  0  0  0  0  0  0
    7.1820    0.5673   -0.2523 H   0  0  0  0  0  0  0  0  0  0  0  0
    4.7867    0.5519    0.0075 H   0  0  0  0  0  0  0  0  0  0  0  0
  1  2  1  0  0  0  0
  1 33  1  0  0  0  0
  1 34  1  0  0  0  0
  1 35  1  0  0  0  0
  2  3  1  0  0  0  0
  2 36  1  0  0  0  0
  2 37  1  0  0  0  0
  3  4  1  0  0  0  0
  3  6  1  0  0  0  0
  4  5  1  0  0  0  0
  4 38  1  0  0  0  0
  4 39  1  0  0  0  0
  5 40  1  0  0  0  0
  5 41  1  0  0  0  0
  5 42  1  0  0  0  0
  6 32  2  0  0  0  0
  6  7  1  0  0  0  0
  7  8  2  0  0  0  0
  7 43  1  0  0  0  0
  8  9  1  0  0  0  0
  8 44  1  0  0  0  0
  9 10  1  0  0  0  0
  9 31  2  0  0  0  0
 10 11  1  0  0  0  0
 10 21  1  0  0  0  0
 10 45  1  0  0  0  0
 11 12  1  0  0  0  0
 11 46  1  0  0  0  0
 12 13  2  0  0  0  0
 12 14  1  0  0  0  0
 14 15  1  0  0  0  0
 14 47  1  0  0  0  0
 14 48  1  0  0  0  0
 15 20  2  0  0  0  0
 15 16  1  0  0  0  0
 16 17  2  0  0  0  0
 16 49  1  0  0  0  0
 17 18  1  0  0  0  0
 17 50  1  0  0  0  0
 18 19  2  0  0  0  0
 18 51  1  0  0  0  0
 19 20  1  0  0  0  0
 19 52  1  0  0  0  0
 20 53  1  0  0  0  0
 21 22  1  0  0  0  0
 21 54  1  0  0  0  0
 22 23  2  0  0  0  0
 22 24  1  0  0  0  0
 24 25  1  0  0  0  0
 24 55  1  0  0  0  0
 24 56  1  0  0  0  0
 25 30  2  0  0  0  0
 25 26  1  0  0  0  0
 26 27  2  0  0  0  0
 26 57  1  0  0  0  0
 27 28  1  0  0  0  0
 27 58  1  0  0  0  0
 28 29  2  0  0  0  0
 28 59  1  0  0  0  0
 29 30  1  0  0  0  0
 29 60  1  0  0  0  0
 30 61  1  0  0  0  0
 31 32  1  0  0  0  0
 31 62  1  0  0  0  0
 32 63  1  0  0  0  0
M  END
$$$$
CHEMBL2336537_8GUT
 OpenBabel12022418123D

 57 59  0  0  0  0  0  0  0  0999 V2000
    0.7305    1.0826    2.9865 C   0  0  0  0  0  0  0  0  0  0  0  0
    2.1405    1.0278    3.5561 C   0  0  0  0  0  0  0  0  0  0  0  0
    3.0025    0.0758    2.8197 N   0  0  0  0  0  0  0  0  0  0  0  0
    3.0758   -1.3054    3.3696 C   0  0  0  0  0  0  0  0  0  0  0  0
    1.7480   -2.0473    3.3440 C   0  0  0  0  0  0  0  0  0  0  0  0
    4.3327    0.5374    2.5817 C   0  0  0  0  0  0  0  0  0  0  0  0
    5.0849   -0.0158    1.5266 C   0  0  0  0  0  0  0  0  0  0  0  0
    6.4412    0.2930    1.3444 C   0  0  0  0  0  0  0  0  0  0  0  0
    7.0877    1.1789    2.2076 C   0  0  0  0  0  0  0  0  0  0  0  0
    8.5930    1.3274    2.2347 C   0  0  0  0  0  0  0  0  0  0  0  0
    9.3026    1.9015    1.0560 N   0  0  0  0  0  0  0  0  0  0  0  0
    8.6985    3.1755    0.5674 C   0  0  0  0  0  0  0  0  0  0  0  0
    9.2852    3.7369   -0.6993 C   0  0  0  0  0  0  0  0  0  0  0  0
    9.7616    3.1008   -1.8279 C   0  0  0  0  0  0  0  0  0  0  0  0
   10.2041    4.0102   -2.8295 C   0  0  0  0  0  0  0  0  0  0  0  0
   10.0363    5.3237   -2.4489 C   0  0  0  0  0  0  0  0  0  0  0  0
    9.3391    5.4486   -0.8977 S   0  0  0  0  0  0  0  0  0  0  0  0
   11.0203    1.8640    1.2766 S   0  0  0  0  0  0  0  0  0  0  0  0
   11.3278    0.9024    2.3165 O   0  0  0  0  0  0  0  0  0  0  0  0
   11.6482    1.7437   -0.0204 O   0  0  0  0  0  0  0  0  0  0  0  0
   11.4346    3.4697    1.9359 C   0  0  0  0  0  0  0  0  0  0  0  0
   10.9590    3.8619    3.1885 C   0  0  0  0  0  0  0  0  0  0  0  0
   11.2116    5.1552    3.6473 C   0  0  0  0  0  0  0  0  0  0  0  0
   11.9770    6.0430    2.8817 C   0  0  0  0  0  0  0  0  0  0  0  0
   12.2803    7.4239    3.3824 C   0  0  0  0  0  0  0  0  0  0  0  0
   12.4941    5.6188    1.6507 C   0  0  0  0  0  0  0  0  0  0  0  0
   12.2228    4.3357    1.1759 C   0  0  0  0  0  0  0  0  0  0  0  0
    6.3242    1.8077    3.2031 C   0  0  0  0  0  0  0  0  0  0  0  0
    4.9787    1.4783    3.3954 C   0  0  0  0  0  0  0  0  0  0  0  0
    0.2215    1.9796    3.3607 H   0  0  0  0  0  0  0  0  0  0  0  0
    0.1300    0.2224    3.2886 H   0  0  0  0  0  0  0  0  0  0  0  0
    0.7420    1.1340    1.8937 H   0  0  0  0  0  0  0  0  0  0  0  0
    2.1148    0.7912    4.6268 H   0  0  0  0  0  0  0  0  0  0  0  0
    2.5116    2.0544    3.4589 H   0  0  0  0  0  0  0  0  0  0  0  0
    3.4601   -1.2846    4.3979 H   0  0  0  0  0  0  0  0  0  0  0  0
    3.7740   -1.9156    2.7824 H   0  0  0  0  0  0  0  0  0  0  0  0
    1.0830   -1.7016    4.1409 H   0  0  0  0  0  0  0  0  0  0  0  0
    1.9191   -3.1173    3.5132 H   0  0  0  0  0  0  0  0  0  0  0  0
    1.2366   -1.9363    2.3834 H   0  0  0  0  0  0  0  0  0  0  0  0
    4.6099   -0.7337    0.8582 H   0  0  0  0  0  0  0  0  0  0  0  0
    7.0023   -0.2169    0.5584 H   0  0  0  0  0  0  0  0  0  0  0  0
    8.9701    0.3099    2.4071 H   0  0  0  0  0  0  0  0  0  0  0  0
    8.8546    1.9100    3.1225 H   0  0  0  0  0  0  0  0  0  0  0  0
    8.7372    3.9150    1.3759 H   0  0  0  0  0  0  0  0  0  0  0  0
    7.6362    3.0078    0.3588 H   0  0  0  0  0  0  0  0  0  0  0  0
    9.8193    2.0209   -1.9226 H   0  0  0  0  0  0  0  0  0  0  0  0
   10.6437    3.7126   -3.7745 H   0  0  0  0  0  0  0  0  0  0  0  0
   10.2814    6.2128   -3.0150 H   0  0  0  0  0  0  0  0  0  0  0  0
   10.3880    3.1843    3.8124 H   0  0  0  0  0  0  0  0  0  0  0  0
   10.8085    5.4660    4.6092 H   0  0  0  0  0  0  0  0  0  0  0  0
   11.7152    7.6531    4.2919 H   0  0  0  0  0  0  0  0  0  0  0  0
   12.0121    8.1700    2.6274 H   0  0  0  0  0  0  0  0  0  0  0  0
   13.3468    7.5102    3.6132 H   0  0  0  0  0  0  0  0  0  0  0  0
   13.1033    6.2909    1.0494 H   0  0  0  0  0  0  0  0  0  0  0  0
   12.6146    4.0315    0.2056 H   0  0  0  0  0  0  0  0  0  0  0  0
    6.7852    2.5113    3.8943 H   0  0  0  0  0  0  0  0  0  0  0  0
    4.4731    1.9347    4.2402 H   0  0  0  0  0  0  0  0  0  0  0  0
  1  2  1  0  0  0  0
  1 30  1  0  0  0  0
  1 31  1  0  0  0  0
  1 32  1  0  0  0  0
  2  3  1  0  0  0  0
  2 33  1  0  0  0  0
  2 34  1  0  0  0  0
  3  4  1  0  0  0  0
  3  6  1  0  0  0  0
  4  5  1  0  0  0  0
  4 35  1  0  0  0  0
  4 36  1  0  0  0  0
  5 37  1  0  0  0  0
  5 38  1  0  0  0  0
  5 39  1  0  0  0  0
  6 29  2  0  0  0  0
  6  7  1  0  0  0  0
  7  8  2  0  0  0  0
  7 40  1  0  0  0  0
  8  9  1  0  0  0  0
  8 41  1  0  0  0  0
  9 10  1  0  0  0  0
  9 28  2  0  0  0  0
 10 11  1  0  0  0  0
 10 42  1  0  0  0  0
 10 43  1  0  0  0  0
 11 12  1  0  0  0  0
 11 18  1  0  0  0  0
 12 13  1  0  0  0  0
 12 44  1  0  0  0  0
 12 45  1  0  0  0  0
 13 17  1  0  0  0  0
 13 14  2  0  0  0  0
 14 15  1  0  0  0  0
 14 46  1  0  0  0  0
 15 16  2  0  0  0  0
 15 47  1  0  0  0  0
 16 17  1  0  0  0  0
 16 48  1  0  0  0  0
 18 19  2  0  0  0  0
 18 20  2  0  0  0  0
 18 21  1  0  0  0  0
 21 27  2  0  0  0  0
 21 22  1  0  0  0  0
 22 23  2  0  0  0  0
 22 49  1  0  0  0  0
 23 24  1  0  0  0  0
 23 50  1  0  0  0  0
 24 25  1  0  0  0  0
 24 26  2  0  0  0  0
 25 51  1  0  0  0  0
 25 52  1  0  0  0  0
 25 53  1  0  0  0  0
 26 27  1  0  0  0  0
 26 54  1  0  0  0  0
 27 55  1  0  0  0  0
 28 29  1  0  0  0  0
 28 56  1  0  0  0  0
 29 57  1  0  0  0  0
M  END
$$$$
CHEMBL1909859_8GUT
 OpenBabel12022418123D

 50 53  0  0  0  0  0  0  0  0999 V2000
    2.9530   -0.4534   -1.3554 C   0  0  0  0  0  0  0  0  0  0  0  0
    2.3747    0.0776   -0.0522 C   0  0  0  0  0  0  0  0  0  0  0  0
    2.9652    1.3843    0.3900 C   0  0  0  0  0  0  0  0  0  0  0  0
    2.4065    2.6897    0.1609 C   0  0  0  0  0  0  0  0  0  0  0  0
    1.2265    3.0437   -0.6715 C   0  0  0  0  0  0  0  0  0  0  0  0
    0.6111    2.2225   -1.3436 O   0  0  0  0  0  0  0  0  0  0  0  0
    0.8966    4.3836   -0.6479 N   0  0  0  0  0  0  0  0  0  0  0  0
   -0.1641    4.9451   -1.4520 C   0  0  0  0  0  0  0  0  0  0  0  0
   -1.4497    5.1146   -0.6788 C   0  0  0  0  0  0  0  0  0  0  0  0
   -2.3934    4.0784   -0.6345 C   0  0  0  0  0  0  0  0  0  0  0  0
   -3.5869    4.2303    0.0782 C   0  0  0  0  0  0  0  0  0  0  0  0
   -3.8524    5.4196    0.7611 C   0  0  0  0  0  0  0  0  0  0  0  0
   -2.9199    6.4611    0.7250 C   0  0  0  0  0  0  0  0  0  0  0  0
   -1.7244    6.3062    0.0103 C   0  0  0  0  0  0  0  0  0  0  0  0
   -3.1822    7.9657    1.5353 Cl  0  0  0  0  0  0  0  0  0  0  0  0
   -5.3425    5.5355    1.6296 Cl  0  0  0  0  0  0  0  0  0  0  0  0
    3.0776    3.6333    0.8524 N   0  0  0  0  0  0  0  0  0  0  0  0
    4.1521    2.9888    1.3826 N   0  0  0  0  0  0  0  0  0  0  0  0
    5.2379    3.7747    1.8732 C   0  0  0  0  0  0  0  0  0  0  0  0
    6.5643    3.3426    1.7340 C   0  0  0  0  0  0  0  0  0  0  0  0
    7.6120    4.1208    2.2346 C   0  0  0  0  0  0  0  0  0  0  0  0
    7.3465    5.3378    2.8669 C   0  0  0  0  0  0  0  0  0  0  0  0
    6.0246    5.7815    2.9925 C   0  0  0  0  0  0  0  0  0  0  0  0
    4.9727    5.0102    2.4818 C   0  0  0  0  0  0  0  0  0  0  0  0
    5.6231    7.2642    3.7848 Cl  0  0  0  0  0  0  0  0  0  0  0  0
    8.6933    6.2446    3.4572 Cl  0  0  0  0  0  0  0  0  0  0  0  0
    4.0457    1.6158    1.2352 C   0  0  0  0  0  0  0  0  0  0  0  0
    4.8399    0.6763    1.9114 N   0  0  0  0  0  0  0  0  0  0  0  0
    5.4185    0.8280    3.1617 C   0  0  0  0  0  0  0  0  0  0  0  0
    6.1363   -0.3020    3.4855 C   0  0  0  0  0  0  0  0  0  0  0  0
    5.9799   -1.2077    2.4223 C   0  0  0  0  0  0  0  0  0  0  0  0
    5.1736   -0.5965    1.4890 C   0  0  0  0  0  0  0  0  0  0  0  0
    2.5938   -1.4725   -1.5317 H   0  0  0  0  0  0  0  0  0  0  0  0
    4.0460   -0.4799   -1.3494 H   0  0  0  0  0  0  0  0  0  0  0  0
    2.6514    0.1668   -2.2046 H   0  0  0  0  0  0  0  0  0  0  0  0
    2.5083   -0.6670    0.7407 H   0  0  0  0  0  0  0  0  0  0  0  0
    1.2886    0.1698   -0.1584 H   0  0  0  0  0  0  0  0  0  0  0  0
    1.4685    4.9777   -0.0562 H   0  0  0  0  0  0  0  0  0  0  0  0
   -0.3416    4.3198   -2.3353 H   0  0  0  0  0  0  0  0  0  0  0  0
    0.1802    5.9182   -1.8215 H   0  0  0  0  0  0  0  0  0  0  0  0
   -2.2034    3.1429   -1.1608 H   0  0  0  0  0  0  0  0  0  0  0  0
   -4.3060    3.4143    0.0964 H   0  0  0  0  0  0  0  0  0  0  0  0
   -1.0070    7.1241   -0.0142 H   0  0  0  0  0  0  0  0  0  0  0  0
    6.8151    2.4177    1.2185 H   0  0  0  0  0  0  0  0  0  0  0  0
    8.6366    3.7709    2.1240 H   0  0  0  0  0  0  0  0  0  0  0  0
    3.9478    5.3584    2.5987 H   0  0  0  0  0  0  0  0  0  0  0  0
    5.2546    1.7225    3.7463 H   0  0  0  0  0  0  0  0  0  0  0  0
    6.6949   -0.4584    4.3995 H   0  0  0  0  0  0  0  0  0  0  0  0
    6.4016   -2.2015    2.3377 H   0  0  0  0  0  0  0  0  0  0  0  0
    4.8567   -0.9712    0.5315 H   0  0  0  0  0  0  0  0  0  0  0  0
  1  2  1  0  0  0  0
  1 33  1  0  0  0  0
  1 34  1  0  0  0  0
  1 35  1  0  0  0  0
  2  3  1  0  0  0  0
  2 36  1  0  0  0  0
  2 37  1  0  0  0  0
  3 27  2  0  0  0  0
  3  4  1  0  0  0  0
  4  5  1  0  0  0  0
  4 17  2  0  0  0  0
  5  6  2  0  0  0  0
  5  7  1  0  0  0  0
  7  8  1  0  0  0  0
  7 38  1  0  0  0  0
  8  9  1  0  0  0  0
  8 39  1  0  0  0  0
  8 40  1  0  0  0  0
  9 14  2  0  0  0  0
  9 10  1  0  0  0  0
 10 11  2  0  0  0  0
 10 41  1  0  0  0  0
 11 12  1  0  0  0  0
 11 42  1  0  0  0  0
 12 13  2  0  0  0  0
 12 16  1  0  0  0  0
 13 14  1  0  0  0  0
 13 15  1  0  0  0  0
 14 43  1  0  0  0  0
 17 18  1  0  0  0  0
 18 19  1  0  0  0  0
 18 27  1  0  0  0  0
 19 24  2  0  0  0  0
 19 20  1  0  0  0  0
 20 21  2  0  0  0  0
 20 44  1  0  0  0  0
 21 22  1  0  0  0  0
 21 45  1  0  0  0  0
 22 23  2  0  0  0  0
 22 26  1  0  0  0  0
 23 24  1  0  0  0  0
 23 25  1  0  0  0  0
 24 46  1  0  0  0  0
 27 28  1  0  0  0  0
 28 32  1  0  0  0  0
 28 29  1  0  0  0  0
 29 30  2  0  0  0  0
 29 47  1  0  0  0  0
 30 31  1  0  0  0  0
 30 48  1  0  0  0  0
 31 32  2  0  0  0  0
 31 49  1  0  0  0  0
 32 50  1  0  0  0  0
M  END
$$$$
CHEMBL250565_5ZTY
 OpenBabel12022418123D

 54 57  0  0  0  0  0  0  0  0999 V2000
    2.8640   -1.6135    0.2955 C   0  0  0  0  0  0  0  0  0  0  0  0
    2.4517   -0.2779   -0.0021 O   0  0  0  0  0  0  0  0  0  0  0  0
    3.1319    0.2483   -1.0788 C   0  0  0  0  0  0  0  0  0  0  0  0
    2.8196    1.5403   -1.4661 C   0  0  0  0  0  0  0  0  0  0  0  0
    3.5161    2.0805   -2.5366 C   0  0  0  0  0  0  0  0  0  0  0  0
    4.4709    1.2936   -3.1850 C   0  0  0  0  0  0  0  0  0  0  0  0
    5.2163    1.8416   -4.3301 C   0  0  0  0  0  0  0  0  0  0  0  0
    5.1924    3.0491   -4.5653 O   0  0  0  0  0  0  0  0  0  0  0  0
    5.9567    0.8886   -5.1904 C   0  0  0  0  0  0  0  0  0  0  0  0
    6.4941    1.2438   -6.5382 C   0  0  0  0  0  0  0  0  0  0  0  0
    7.0594    0.4006   -7.2339 O   0  0  0  0  0  0  0  0  0  0  0  0
    6.2870    2.5391   -6.9385 N   0  0  0  0  0  0  0  0  0  0  0  0
    6.7429    3.0525   -8.2298 C   0  0  0  0  0  0  0  0  0  0  0  0
    5.7947    4.1437   -8.7503 C   0  0  0  0  0  0  0  0  0  0  0  0
    6.2879    4.7474  -10.0664 C   0  0  0  0  0  0  0  0  0  0  0  0
    7.7102    5.2797   -9.9353 C   0  0  0  0  0  0  0  0  0  0  0  0
    8.6591    4.1916   -9.4437 C   0  0  0  0  0  0  0  0  0  0  0  0
    8.1811    3.5776   -8.1280 C   0  0  0  0  0  0  0  0  0  0  0  0
    6.1020   -0.3622   -4.7054 C   0  0  0  0  0  0  0  0  0  0  0  0
    5.6057   -0.8274   -3.4936 N   0  0  0  0  0  0  0  0  0  0  0  0
    5.9181   -2.1526   -2.9131 C   0  0  0  0  0  0  0  0  0  0  0  0
    7.1858   -2.0966   -2.0785 C   0  0  0  0  0  0  0  0  0  0  0  0
    8.4470   -2.2149   -2.6803 C   0  0  0  0  0  0  0  0  0  0  0  0
    9.6114   -1.9987   -1.9381 C   0  0  0  0  0  0  0  0  0  0  0  0
    9.5306   -1.6799   -0.5841 C   0  0  0  0  0  0  0  0  0  0  0  0
    8.2879   -1.6218    0.0411 C   0  0  0  0  0  0  0  0  0  0  0  0
    7.1233   -1.8385   -0.6997 C   0  0  0  0  0  0  0  0  0  0  0  0
    4.7120   -0.0166   -2.7635 C   0  0  0  0  0  0  0  0  0  0  0  0
    4.0517   -0.5222   -1.7017 N   0  0  0  0  0  0  0  0  0  0  0  0
    2.2968   -1.9651    1.1612 H   0  0  0  0  0  0  0  0  0  0  0  0
    3.9263   -1.6497    0.5618 H   0  0  0  0  0  0  0  0  0  0  0  0
    2.6512   -2.2892   -0.5414 H   0  0  0  0  0  0  0  0  0  0  0  0
    2.0570    2.1156   -0.9523 H   0  0  0  0  0  0  0  0  0  0  0  0
    3.3117    3.0918   -2.8777 H   0  0  0  0  0  0  0  0  0  0  0  0
    5.9343    3.2020   -6.2516 H   0  0  0  0  0  0  0  0  0  0  0  0
    6.7270    2.2167   -8.9386 H   0  0  0  0  0  0  0  0  0  0  0  0
    5.6950    4.9431   -8.0045 H   0  0  0  0  0  0  0  0  0  0  0  0
    4.7897    3.7308   -8.8990 H   0  0  0  0  0  0  0  0  0  0  0  0
    5.6183    5.5560  -10.3786 H   0  0  0  0  0  0  0  0  0  0  0  0
    6.2555    3.9842  -10.8546 H   0  0  0  0  0  0  0  0  0  0  0  0
    7.7226    6.1238   -9.2346 H   0  0  0  0  0  0  0  0  0  0  0  0
    8.0537    5.6637  -10.9028 H   0  0  0  0  0  0  0  0  0  0  0  0
    9.6628    4.6113   -9.3126 H   0  0  0  0  0  0  0  0  0  0  0  0
    8.7377    3.4064  -10.2059 H   0  0  0  0  0  0  0  0  0  0  0  0
    8.8585    2.7659   -7.8382 H   0  0  0  0  0  0  0  0  0  0  0  0
    8.2450    4.3336   -7.3343 H   0  0  0  0  0  0  0  0  0  0  0  0
    6.6232   -1.1230   -5.2797 H   0  0  0  0  0  0  0  0  0  0  0  0
    6.0459   -2.8906   -3.7172 H   0  0  0  0  0  0  0  0  0  0  0  0
    5.0973   -2.5574   -2.3079 H   0  0  0  0  0  0  0  0  0  0  0  0
    8.5315   -2.4430   -3.7400 H   0  0  0  0  0  0  0  0  0  0  0  0
   10.5820   -2.0485   -2.4251 H   0  0  0  0  0  0  0  0  0  0  0  0
   10.4347   -1.4654   -0.0197 H   0  0  0  0  0  0  0  0  0  0  0  0
    8.2227   -1.3760    1.0981 H   0  0  0  0  0  0  0  0  0  0  0  0
    6.1615   -1.7683   -0.1982 H   0  0  0  0  0  0  0  0  0  0  0  0
  1  2  1  0  0  0  0
  1 30  1  0  0  0  0
  1 31  1  0  0  0  0
  1 32  1  0  0  0  0
  2  3  1  0  0  0  0
  3 29  2  0  0  0  0
  3  4  1  0  0  0  0
  4  5  2  0  0  0  0
  4 33  1  0  0  0  0
  5  6  1  0  0  0  0
  5 34  1  0  0  0  0
  6 28  2  0  0  0  0
  6  7  1  0  0  0  0
  7  8  2  0  0  0  0
  7  9  1  0  0  0  0
  9 10  1  0  0  0  0
  9 19  2  0  0  0  0
 10 11  2  0  0  0  0
 10 12  1  0  0  0  0
 12 13  1  0  0  0  0
 12 35  1  0  0  0  0
 13 18  1  0  0  0  0
 13 14  1  0  0  0  0
 13 36  1  0  0  0  0
 14 15  1  0  0  0  0
 14 37  1  0  0  0  0
 14 38  1  0  0  0  0
 15 16  1  0  0  0  0
 15 39  1  0  0  0  0
 15 40  1  0  0  0  0
 16 17  1  0  0  0  0
 16 41  1  0  0  0  0
 16 42  1  0  0  0  0
 17 18  1  0  0  0  0
 17 43  1  0  0  0  0
 17 44  1  0  0  0  0
 18 45  1  0  0  0  0
 18 46  1  0  0  0  0
 19 20  1  0  0  0  0
 19 47  1  0  0  0  0
 20 21  1  0  0  0  0
 20 28  1  0  0  0  0
 21 22  1  0  0  0  0
 21 48  1  0  0  0  0
 21 49  1  0  0  0  0
 22 27  2  0  0  0  0
 22 23  1  0  0  0  0
 23 24  2  0  0  0  0
 23 50  1  0  0  0  0
 24 25  1  0  0  0  0
 24 51  1  0  0  0  0
 25 26  2  0  0  0  0
 25 52  1  0  0  0  0
 26 27  1  0  0  0  0
 26 53  1  0  0  0  0
 27 54  1  0  0  0  0
 28 29  1  0  0  0  0
M  END
$$$$
CHEMBL3354956_8GUQ
 OpenBabel12022418123D

 48 52  0  0  1  0  0  0  0  0999 V2000
    1.2561   -0.6582   -0.7501 C   0  0  2  0  0  0  0  0  0  0  0  0
    0.7473   -0.8802    0.6942 C   0  0  0  0  0  0  0  0  0  0  0  0
    1.2948   -2.0482    1.3071 O   0  0  0  0  0  0  0  0  0  0  0  0
    0.6842   -1.6638   -1.7353 C   0  0  0  0  0  0  0  0  0  0  0  0
   -0.2342   -1.2340   -2.7112 C   0  0  0  0  0  0  0  0  0  0  0  0
   -0.8280   -2.1445   -3.5883 C   0  0  0  0  0  0  0  0  0  0  0  0
   -0.5078   -3.4967   -3.5084 C   0  0  0  0  0  0  0  0  0  0  0  0
    0.4085   -3.9373   -2.5558 C   0  0  0  0  0  0  0  0  0  0  0  0
    1.0010   -3.0278   -1.6753 C   0  0  0  0  0  0  0  0  0  0  0  0
    2.7144   -0.5874   -0.8139 N   0  0  0  0  0  0  0  0  0  0  0  0
    3.3583    0.5933   -1.1233 C   0  0  0  0  0  0  0  0  0  0  0  0
    2.7442    1.6335   -1.3572 O   0  0  0  0  0  0  0  0  0  0  0  0
    4.8317    0.5519   -1.1451 C   0  0  0  0  0  0  0  0  0  0  0  0
    5.6474    1.6303   -1.5269 C   0  0  0  0  0  0  0  0  0  0  0  0
    6.9256    1.1960   -1.3834 C   0  0  0  0  0  0  0  0  0  0  0  0
    7.9135    2.1644   -1.9891 C   0  0  1  0  0  0  0  0  0  0  0  0
    6.9875    3.2586   -2.5732 C   0  0  1  0  0  0  0  0  0  0  0  0
    5.5282    2.9603   -2.1729 C   0  0  0  0  0  0  0  0  0  0  0  0
    8.0019    3.5970   -1.5284 C   0  0  0  0  0  0  0  0  0  0  0  0
    6.9024   -0.0874   -0.9410 N   0  0  0  0  0  0  0  0  0  0  0  0
    8.0313   -0.8781   -0.6260 C   0  0  0  0  0  0  0  0  0  0  0  0
    8.0089   -2.2635   -0.8186 C   0  0  0  0  0  0  0  0  0  0  0  0
    9.1814   -3.0016   -0.6024 C   0  0  0  0  0  0  0  0  0  0  0  0
   10.3400   -2.3642   -0.1585 C   0  0  0  0  0  0  0  0  0  0  0  0
   10.3550   -1.0016    0.0859 C   0  0  0  0  0  0  0  0  0  0  0  0
    9.2013   -0.2646   -0.1511 C   0  0  0  0  0  0  0  0  0  0  0  0
    9.2360    1.0411    0.1523 F   0  0  0  0  0  0  0  0  0  0  0  0
   11.4547   -3.0792    0.0398 F   0  0  0  0  0  0  0  0  0  0  0  0
    5.5962   -0.5367   -0.8404 N   0  0  0  0  0  0  0  0  0  0  0  0
    0.8615    0.3247   -1.0386 H   0  0  0  0  0  0  0  0  0  0  0  0
    1.0195   -0.0263    1.3252 H   0  0  0  0  0  0  0  0  0  0  0  0
   -0.3452   -0.9696    0.7097 H   0  0  0  0  0  0  0  0  0  0  0  0
    2.2423   -1.8734    1.4354 H   0  0  0  0  0  0  0  0  0  0  0  0
   -0.5085   -0.1832   -2.7873 H   0  0  0  0  0  0  0  0  0  0  0  0
   -1.5460   -1.7981   -4.3270 H   0  0  0  0  0  0  0  0  0  0  0  0
   -0.9761   -4.2077   -4.1838 H   0  0  0  0  0  0  0  0  0  0  0  0
    0.6534   -4.9939   -2.4877 H   0  0  0  0  0  0  0  0  0  0  0  0
    1.6927   -3.4010   -0.9236 H   0  0  0  0  0  0  0  0  0  0  0  0
    3.2871   -1.4161   -0.7062 H   0  0  0  0  0  0  0  0  0  0  0  0
    8.7976    1.7765   -2.4747 H   0  0  0  0  0  0  0  0  0  0  0  0
    7.1279    3.5621   -3.5983 H   0  0  0  0  0  0  0  0  0  0  0  0
    5.1546    3.7183   -1.4783 H   0  0  0  0  0  0  0  0  0  0  0  0
    4.8922    2.9186   -3.0614 H   0  0  0  0  0  0  0  0  0  0  0  0
    8.8777    4.1598   -1.8348 H   0  0  0  0  0  0  0  0  0  0  0  0
    7.6775    3.8256   -0.5199 H   0  0  0  0  0  0  0  0  0  0  0  0
    7.1184   -2.7660   -1.1887 H   0  0  0  0  0  0  0  0  0  0  0  0
    9.2071   -4.0715   -0.7925 H   0  0  0  0  0  0  0  0  0  0  0  0
   11.2493   -0.5145    0.4592 H   0  0  0  0  0  0  0  0  0  0  0  0
  1 10  1  0  0  0  0
  1  4  1  0  0  0  0
  1  2  1  0  0  0  0
  1 30  1  6  0  0  0
  2  3  1  0  0  0  0
  2 31  1  0  0  0  0
  2 32  1  0  0  0  0
  3 33  1  0  0  0  0
  4  9  2  0  0  0  0
  4  5  1  0  0  0  0
  5  6  2  0  0  0  0
  5 34  1  0  0  0  0
  6  7  1  0  0  0  0
  6 35  1  0  0  0  0
  7  8  2  0  0  0  0
  7 36  1  0  0  0  0
  8  9  1  0  0  0  0
  8 37  1  0  0  0  0
  9 38  1  0  0  0  0
 10 11  1  0  0  0  0
 10 39  1  0  0  0  0
 11 12  2  0  0  0  0
 11 13  1  0  0  0  0
 13 29  2  0  0  0  0
 13 14  1  0  0  0  0
 14 18  1  0  0  0  0
 14 15  2  0  0  0  0
 15 16  1  0  0  0  0
 15 20  1  0  0  0  0
 16 17  1  0  0  0  0
 16 19  1  0  0  0  0
 16 40  1  6  0  0  0
 17 18  1  0  0  0  0
 17 19  1  0  0  0  0
 17 41  1  6  0  0  0
 18 42  1  0  0  0  0
 18 43  1  0  0  0  0
 19 44  1  0  0  0  0
 19 45  1  0  0  0  0
 20 21  1  0  0  0  0
 20 29  1  0  0  0  0
 21 26  2  0  0  0  0
 21 22  1  0  0  0  0
 22 23  2  0  0  0  0
 22 46  1  0  0  0  0
 23 24  1  0  0  0  0
 23 47  1  0  0  0  0
 24 25  2  0  0  0  0
 24 28  1  0  0  0  0
 25 26  1  0  0  0  0
 25 48  1  0  0  0  0
 26 27  1  0  0  0  0
M  END
$$$$
CHEMBL461011_8GUQ
 OpenBabel12022418123D

 46 47  0  0  0  0  0  0  0  0999 V2000
    4.0151    1.4094   -1.0578 C   0  0  0  0  0  0  0  0  0  0  0  0
    4.3290    0.4432   -2.2172 C   0  0  0  0  0  0  0  0  0  0  0  0
    3.7594    1.0334   -3.5169 C   0  0  0  0  0  0  0  0  0  0  0  0
    5.8582    0.3103   -2.3434 C   0  0  0  0  0  0  0  0  0  0  0  0
    3.7525   -0.9235   -1.9693 C   0  0  0  0  0  0  0  0  0  0  0  0
    3.8143   -2.1261   -2.6390 C   0  0  0  0  0  0  0  0  0  0  0  0
    3.1904   -3.0543   -1.7722 C   0  0  0  0  0  0  0  0  0  0  0  0
    3.1005   -4.4113   -2.0235 N   0  0  0  0  0  0  0  0  0  0  0  0
    2.4634   -5.3042   -1.1803 C   0  0  0  0  0  0  0  0  0  0  0  0
    1.9673   -5.0119   -0.0959 O   0  0  0  0  0  0  0  0  0  0  0  0
    2.4064   -6.7516   -1.6681 C   0  0  0  0  0  0  0  0  0  0  0  0
    3.8272   -7.2969   -1.8790 C   0  0  0  0  0  0  0  0  0  0  0  0
    1.7030   -7.6324   -0.6203 C   0  0  0  0  0  0  0  0  0  0  0  0
    1.4977   -6.7638   -3.2167 S   0  0  0  0  0  0  0  0  0  0  0  0
    2.2557   -5.9692   -4.1733 O   0  0  0  0  0  0  0  0  0  0  0  0
    1.1405   -8.1307   -3.5482 O   0  0  0  0  0  0  0  0  0  0  0  0
   -0.0232   -5.8863   -2.9025 C   0  0  0  0  0  0  0  0  0  0  0  0
   -0.1059   -4.5177   -3.1834 C   0  0  0  0  0  0  0  0  0  0  0  0
   -1.2869   -3.8272   -2.9081 C   0  0  0  0  0  0  0  0  0  0  0  0
   -2.3828   -4.5103   -2.3825 C   0  0  0  0  0  0  0  0  0  0  0  0
   -2.3116   -5.8823   -2.1366 C   0  0  0  0  0  0  0  0  0  0  0  0
   -1.1316   -6.5789   -2.4069 C   0  0  0  0  0  0  0  0  0  0  0  0
   -3.8381   -3.6567   -2.0480 Cl  0  0  0  0  0  0  0  0  0  0  0  0
    2.7111   -2.4331   -0.6941 N   0  0  0  0  0  0  0  0  0  0  0  0
    3.0592   -1.1099   -0.8151 O   0  0  0  0  0  0  0  0  0  0  0  0
    4.4718    2.3915   -1.2234 H   0  0  0  0  0  0  0  0  0  0  0  0
    4.3945    1.0265   -0.1026 H   0  0  0  0  0  0  0  0  0  0  0  0
    2.9347    1.5612   -0.9451 H   0  0  0  0  0  0  0  0  0  0  0  0
    4.1951    2.0177   -3.7254 H   0  0  0  0  0  0  0  0  0  0  0  0
    2.6717    1.1569   -3.4563 H   0  0  0  0  0  0  0  0  0  0  0  0
    3.9694    0.3906   -4.3796 H   0  0  0  0  0  0  0  0  0  0  0  0
    6.3320    1.2827   -2.5127 H   0  0  0  0  0  0  0  0  0  0  0  0
    6.1357   -0.3440   -3.1788 H   0  0  0  0  0  0  0  0  0  0  0  0
    6.2925   -0.1228   -1.4338 H   0  0  0  0  0  0  0  0  0  0  0  0
    4.2980   -2.3107   -3.5860 H   0  0  0  0  0  0  0  0  0  0  0  0
    3.4367   -4.7163   -2.9338 H   0  0  0  0  0  0  0  0  0  0  0  0
    4.4205   -7.2025   -0.9623 H   0  0  0  0  0  0  0  0  0  0  0  0
    4.3674   -6.7644   -2.6686 H   0  0  0  0  0  0  0  0  0  0  0  0
    3.8060   -8.3554   -2.1608 H   0  0  0  0  0  0  0  0  0  0  0  0
    2.2678   -7.6513    0.3192 H   0  0  0  0  0  0  0  0  0  0  0  0
    1.5944   -8.6656   -0.9656 H   0  0  0  0  0  0  0  0  0  0  0  0
    0.7028   -7.2592   -0.3776 H   0  0  0  0  0  0  0  0  0  0  0  0
    0.7363   -3.9722   -3.6009 H   0  0  0  0  0  0  0  0  0  0  0  0
   -1.3440   -2.7585   -3.1006 H   0  0  0  0  0  0  0  0  0  0  0  0
   -3.1707   -6.4118   -1.7324 H   0  0  0  0  0  0  0  0  0  0  0  0
   -1.0869   -7.6494   -2.2180 H   0  0  0  0  0  0  0  0  0  0  0  0
  1  2  1  0  0  0  0
  1 26  1  0  0  0  0
  1 27  1  0  0  0  0
  1 28  1  0  0  0  0
  2  3  1  0  0  0  0
  2  4  1  0  0  0  0
  2  5  1  0  0  0  0
  3 29  1  0  0  0  0
  3 30  1  0  0  0  0
  3 31  1  0  0  0  0
  4 32  1  0  0  0  0
  4 33  1  0  0  0  0
  4 34  1  0  0  0  0
  5 25  1  0  0  0  0
  5  6  2  0  0  0  0
  6  7  1  0  0  0  0
  6 35  1  0  0  0  0
  7  8  1  0  0  0  0
  7 24  2  0  0  0  0
  8  9  1  0  0  0  0
  8 36  1  0  0  0  0
  9 10  2  0  0  0  0
  9 11  1  0  0  0  0
 11 12  1  0  0  0  0
 11 13  1  0  0  0  0
 11 14  1  0  0  0  0
 12 37  1  0  0  0  0
 12 38  1  0  0  0  0
 12 39  1  0  0  0  0
 13 40  1  0  0  0  0
 13 41  1  0  0  0  0
 13 42  1  0  0  0  0
 14 15  2  0  0  0  0
 14 16  2  0  0  0  0
 14 17  1  0  0  0  0
 17 22  2  0  0  0  0
 17 18  1  0  0  0  0
 18 19  2  0  0  0  0
 18 43  1  0  0  0  0
 19 20  1  0  0  0  0
 19 44  1  0  0  0  0
 20 21  2  0  0  0  0
 20 23  1  0  0  0  0
 21 22  1  0  0  0  0
 21 45  1  0  0  0  0
 22 46  1  0  0  0  0
 24 25  1  0  0  0  0
M  END
$$$$
CHEMBL3353441_8GUT
 OpenBabel12022418123D

 53 56  0  0  1  0  0  0  0  0999 V2000
    2.4317   -0.8895    0.1161 C   0  0  0  0  0  0  0  0  0  0  0  0
    2.4001    0.4894    0.2315 C   0  0  0  0  0  0  0  0  0  0  0  0
    1.2574    1.2241    0.2217 N   0  0  0  0  0  0  0  0  0  0  0  0
    0.0858    0.5543    0.1087 C   0  0  0  0  0  0  0  0  0  0  0  0
    0.0317   -0.8457    0.0633 C   0  0  0  0  0  0  0  0  0  0  0  0
    1.2265   -1.5728    0.0471 C   0  0  0  0  0  0  0  0  0  0  0  0
   -1.2490   -1.5429    0.0085 C   0  0  0  0  0  0  0  0  0  0  0  0
   -2.3981   -0.8528    0.0019 C   0  0  0  0  0  0  0  0  0  0  0  0
   -2.3580    0.6468    0.0456 C   0  0  0  0  0  0  0  0  0  0  0  0
   -3.4151    1.2810    0.1077 O   0  0  0  0  0  0  0  0  0  0  0  0
   -1.1278    1.2811    0.0265 N   0  0  0  0  0  0  0  0  0  0  0  0
   -1.0982    2.7392    0.0270 C   0  0  0  0  0  0  0  0  0  0  0  0
   -1.1053    3.4243   -1.3337 C   0  0  0  0  0  0  0  0  0  0  0  0
    0.0820    3.9757   -1.8424 C   0  0  0  0  0  0  0  0  0  0  0  0
    0.0461    4.8770   -2.9115 C   0  0  0  0  0  0  0  0  0  0  0  0
   -1.1638    5.1943   -3.5053 C   0  0  0  0  0  0  0  0  0  0  0  0
   -2.3429    4.5792   -3.0914 C   0  0  0  0  0  0  0  0  0  0  0  0
   -2.3121    3.6905   -2.0142 C   0  0  0  0  0  0  0  0  0  0  0  0
   -1.2083    6.1330   -4.4646 F   0  0  0  0  0  0  0  0  0  0  0  0
   -3.6880   -1.6415   -0.0630 C   0  0  0  0  0  0  0  0  0  0  0  0
   -3.7129   -2.8621   -0.0595 O   0  0  0  0  0  0  0  0  0  0  0  0
   -4.8023   -0.8445   -0.1224 N   0  0  0  0  0  0  0  0  0  0  0  0
   -6.1883   -1.2818   -0.0129 C   0  0  2  0  0  0  0  0  0  0  0  0
   -7.1160   -0.2451   -0.6682 C   0  0  0  0  0  0  0  0  0  0  0  0
   -7.0978    1.1094    0.0514 C   0  0  0  0  0  0  0  0  0  0  0  0
   -7.3325    0.9898    1.5649 C   0  0  1  0  0  0  0  0  0  0  0  0
   -6.4854   -0.1171    2.2118 C   0  0  0  0  0  0  0  0  0  0  0  0
   -6.5852   -1.4454    1.4574 C   0  0  0  0  0  0  0  0  0  0  0  0
   -7.0512    2.3310    2.2465 C   0  0  0  0  0  0  0  0  0  0  0  0
    4.0672   -1.8200    0.0119 Br  0  0  0  0  0  0  0  0  0  0  0  0
    3.3158    1.0679    0.3207 H   0  0  0  0  0  0  0  0  0  0  0  0
    1.2141   -2.6562   -0.0388 H   0  0  0  0  0  0  0  0  0  0  0  0
   -1.2421   -2.6293   -0.0237 H   0  0  0  0  0  0  0  0  0  0  0  0
   -0.2597    3.1124    0.6250 H   0  0  0  0  0  0  0  0  0  0  0  0
   -1.9845    3.1113    0.5600 H   0  0  0  0  0  0  0  0  0  0  0  0
    1.0350    3.7608   -1.3596 H   0  0  0  0  0  0  0  0  0  0  0  0
    0.9541    5.3645   -3.2518 H   0  0  0  0  0  0  0  0  0  0  0  0
   -3.2795    4.8365   -3.5798 H   0  0  0  0  0  0  0  0  0  0  0  0
   -3.2500    3.2646   -1.6618 H   0  0  0  0  0  0  0  0  0  0  0  0
   -4.6461    0.1459    0.0280 H   0  0  0  0  0  0  0  0  0  0  0  0
   -6.2808   -2.2426   -0.5285 H   0  0  0  0  0  0  0  0  0  0  0  0
   -8.1428   -0.6301   -0.6648 H   0  0  0  0  0  0  0  0  0  0  0  0
   -6.8349   -0.0952   -1.7177 H   0  0  0  0  0  0  0  0  0  0  0  0
   -7.8650    1.7599   -0.3876 H   0  0  0  0  0  0  0  0  0  0  0  0
   -6.1424    1.6122   -0.1409 H   0  0  0  0  0  0  0  0  0  0  0  0
   -8.3898    0.7407    1.7250 H   0  0  0  0  0  0  0  0  0  0  0  0
   -6.8054   -0.2678    3.2495 H   0  0  0  0  0  0  0  0  0  0  0  0
   -5.4354    0.1977    2.2583 H   0  0  0  0  0  0  0  0  0  0  0  0
   -5.9484   -2.1911    1.9457 H   0  0  0  0  0  0  0  0  0  0  0  0
   -7.6163   -1.8183    1.5155 H   0  0  0  0  0  0  0  0  0  0  0  0
   -6.0260    2.6665    2.0504 H   0  0  0  0  0  0  0  0  0  0  0  0
   -7.1768    2.2554    3.3315 H   0  0  0  0  0  0  0  0  0  0  0  0
   -7.7334    3.1049    1.8798 H   0  0  0  0  0  0  0  0  0  0  0  0
  1  6  2  0  0  0  0
  1  2  1  0  0  0  0
  1 30  1  0  0  0  0
  2  3  2  0  0  0  0
  2 31  1  0  0  0  0
  3  4  1  0  0  0  0
  4 11  1  0  0  0  0
  4  5  2  0  0  0  0
  5  6  1  0  0  0  0
  5  7  1  0  0  0  0
  6 32  1  0  0  0  0
  7  8  2  0  0  0  0
  7 33  1  0  0  0  0
  8  9  1  0  0  0  0
  8 20  1  0  0  0  0
  9 10  2  0  0  0  0
  9 11  1  0  0  0  0
 11 12  1  0  0  0  0
 12 13  1  0  0  0  0
 12 34  1  0  0  0  0
 12 35  1  0  0  0  0
 13 18  2  0  0  0  0
 13 14  1  0  0  0  0
 14 15  2  0  0  0  0
 14 36  1  0  0  0  0
 15 16  1  0  0  0  0
 15 37  1  0  0  0  0
 16 17  2  0  0  0  0
 16 19  1  0  0  0  0
 17 18  1  0  0  0  0
 17 38  1  0  0  0  0
 18 39  1  0  0  0  0
 20 21  2  0  0  0  0
 20 22  1  0  0  0  0
 22 40  1  0  0  0  0
 23 22  1  0  0  0  0
 23 24  1  0  0  0  0
 23 28  1  0  0  0  0
 23 41  1  6  0  0  0
 24 25  1  0  0  0  0
 24 42  1  0  0  0  0
 24 43  1  0  0  0  0
 25 26  1  0  0  0  0
 25 44  1  0  0  0  0
 25 45  1  0  0  0  0
 26 27  1  0  0  0  0
 26 29  1  0  0  0  0
 26 46  1  1  0  0  0
 27 28  1  0  0  0  0
 27 47  1  0  0  0  0
 27 48  1  0  0  0  0
 28 49  1  0  0  0  0
 28 50  1  0  0  0  0
 29 51  1  0  0  0  0
 29 52  1  0  0  0  0
 29 53  1  0  0  0  0
M  END
$$$$
CHEMBL2163579_5ZTY
 OpenBabel12022418123D

 57 62  0  0  1  0  0  0  0  0999 V2000
    0.9965   -8.0729    0.0902 C   0  0  0  0  0  0  0  0  0  0  0  0
    1.6266   -6.9824    0.9601 C   0  0  0  0  0  0  0  0  0  0  0  0
    1.7111   -5.5953    0.2728 C   0  0  2  0  0  0  0  0  0  0  0  0
    2.5908   -5.7533   -0.9920 C   0  0  0  0  0  0  0  0  0  0  0  0
    2.9684   -4.5572   -1.6554 O   0  0  0  0  0  0  0  0  0  0  0  0
    3.2589   -3.5201   -0.8207 C   0  0  0  0  0  0  0  0  0  0  0  0
    3.9505   -2.4667   -1.4353 C   0  0  0  0  0  0  0  0  0  0  0  0
    4.2127   -1.2948   -0.7363 C   0  0  0  0  0  0  0  0  0  0  0  0
    3.7753   -1.1753    0.5764 C   0  0  0  0  0  0  0  0  0  0  0  0
    3.1130   -2.2429    1.2005 C   0  0  0  0  0  0  0  0  0  0  0  0
    2.6317   -2.0542    2.5881 C   0  0  0  0  0  0  0  0  0  0  0  0
    2.8003   -0.9739    3.1730 O   0  0  0  0  0  0  0  0  0  0  0  0
    1.9323   -3.1747    3.2501 C   0  0  0  0  0  0  0  0  0  0  0  0
    1.4271   -3.1113    4.6719 C   0  0  0  0  0  0  0  0  0  0  0  0
    1.1195   -4.1598    5.2365 O   0  0  0  0  0  0  0  0  0  0  0  0
    1.3374   -1.8646    5.2874 N   0  0  0  0  0  0  0  0  0  0  0  0
    0.9129   -1.6668    6.7084 C   0  0  2  0  0  0  0  0  0  0  0  0
    0.8590   -0.1588    7.1430 C   0  0  0  0  0  0  0  0  0  0  0  0
    0.4081   -0.0242    8.6282 C   0  0  1  0  0  0  0  0  0  0  0  0
   -0.9875   -0.6456    8.8014 C   0  0  0  0  0  0  0  0  0  0  0  0
   -0.9439   -2.1263    8.4031 C   0  0  2  0  0  0  0  0  0  0  0  0
    0.0737   -2.8784    9.2764 C   0  0  0  0  0  0  0  0  0  0  0  0
    1.4672   -2.2473    9.1289 C   0  0  2  0  0  0  0  0  0  0  0  0
    1.3960   -0.7708    9.5413 C   0  0  0  0  0  0  0  0  0  0  0  0
    1.9225   -2.3486    7.6645 C   0  0  0  0  0  0  0  0  0  0  0  0
   -0.5153   -2.2351    6.9319 C   0  0  0  0  0  0  0  0  0  0  0  0
    1.7677   -4.2873    2.5049 C   0  0  0  0  0  0  0  0  0  0  0  0
    2.2087   -4.5185    1.1912 N   0  0  0  0  0  0  0  0  0  0  0  0
    2.8558   -3.4484    0.5201 C   0  0  0  0  0  0  0  0  0  0  0  0
    0.8675   -8.9901    0.6747 H   0  0  0  0  0  0  0  0  0  0  0  0
    1.6218   -8.3287   -0.7714 H   0  0  0  0  0  0  0  0  0  0  0  0
    0.0117   -7.7658   -0.2759 H   0  0  0  0  0  0  0  0  0  0  0  0
    2.6309   -7.3101    1.2588 H   0  0  0  0  0  0  0  0  0  0  0  0
    1.0314   -6.9244    1.8745 H   0  0  0  0  0  0  0  0  0  0  0  0
    0.7058   -5.2930   -0.0490 H   0  0  0  0  0  0  0  0  0  0  0  0
    2.0210   -6.3197   -1.7405 H   0  0  0  0  0  0  0  0  0  0  0  0
    3.4977   -6.3357   -0.7915 H   0  0  0  0  0  0  0  0  0  0  0  0
    4.2759   -2.5632   -2.4676 H   0  0  0  0  0  0  0  0  0  0  0  0
    4.7364   -0.4726   -1.2181 H   0  0  0  0  0  0  0  0  0  0  0  0
    3.9454   -0.2433    1.1156 H   0  0  0  0  0  0  0  0  0  0  0  0
    1.7500   -1.0749    4.7920 H   0  0  0  0  0  0  0  0  0  0  0  0
    0.1676    0.4074    6.5054 H   0  0  0  0  0  0  0  0  0  0  0  0
    1.8433    0.3138    7.0272 H   0  0  0  0  0  0  0  0  0  0  0  0
    0.3717    1.0315    8.9229 H   0  0  0  0  0  0  0  0  0  0  0  0
   -1.7160   -0.1093    8.1810 H   0  0  0  0  0  0  0  0  0  0  0  0
   -1.3279   -0.5468    9.8409 H   0  0  0  0  0  0  0  0  0  0  0  0
   -1.9373   -2.5709    8.5308 H   0  0  0  0  0  0  0  0  0  0  0  0
    0.1095   -3.9348    8.9825 H   0  0  0  0  0  0  0  0  0  0  0  0
   -0.2401   -2.8514   10.3271 H   0  0  0  0  0  0  0  0  0  0  0  0
    2.1821   -2.7759    9.7691 H   0  0  0  0  0  0  0  0  0  0  0  0
    1.0791   -0.6948   10.5906 H   0  0  0  0  0  0  0  0  0  0  0  0
    2.3890   -0.3108    9.4786 H   0  0  0  0  0  0  0  0  0  0  0  0
    2.9106   -1.8814    7.5510 H   0  0  0  0  0  0  0  0  0  0  0  0
    2.0535   -3.4041    7.4071 H   0  0  0  0  0  0  0  0  0  0  0  0
   -0.5743   -3.2859    6.6370 H   0  0  0  0  0  0  0  0  0  0  0  0
   -1.2332   -1.6980    6.2972 H   0  0  0  0  0  0  0  0  0  0  0  0
    1.2369   -5.1346    2.9359 H   0  0  0  0  0  0  0  0  0  0  0  0
  1  2  1  0  0  0  0
  1 30  1  0  0  0  0
  1 31  1  0  0  0  0
  1 32  1  0  0  0  0
  2 33  1  0  0  0  0
  2 34  1  0  0  0  0
  3  2  1  0  0  0  0
  3  4  1  0  0  0  0
  3 28  1  0  0  0  0
  3 35  1  6  0  0  0
  4  5  1  0  0  0  0
  4 36  1  0  0  0  0
  4 37  1  0  0  0  0
  5  6  1  0  0  0  0
  6 29  2  0  0  0  0
  6  7  1  0  0  0  0
  7  8  2  0  0  0  0
  7 38  1  0  0  0  0
  8  9  1  0  0  0  0
  8 39  1  0  0  0  0
  9 10  2  0  0  0  0
  9 40  1  0  0  0  0
 10 29  1  0  0  0  0
 10 11  1  0  0  0  0
 11 12  2  0  0  0  0
 11 13  1  0  0  0  0
 13 14  1  0  0  0  0
 13 27  2  0  0  0  0
 14 15  2  0  0  0  0
 14 16  1  0  0  0  0
 16 41  1  0  0  0  0
 17 16  1  6  0  0  0
 17 25  1  0  0  0  0
 17 26  1  0  0  0  0
 17 18  1  0  0  0  0
 18 42  1  0  0  0  0
 18 43  1  0  0  0  0
 19 18  1  0  0  0  0
 19 20  1  0  0  0  0
 19 24  1  0  0  0  0
 19 44  1  1  0  0  0
 20 45  1  0  0  0  0
 20 46  1  0  0  0  0
 21 20  1  0  0  0  0
 21 22  1  0  0  0  0
 21 26  1  0  0  0  0
 21 47  1  1  0  0  0
 22 48  1  0  0  0  0
 22 49  1  0  0  0  0
 23 22  1  0  0  0  0
 23 24  1  0  0  0  0
 23 25  1  0  0  0  0
 23 50  1  1  0  0  0
 24 51  1  0  0  0  0
 24 52  1  0  0  0  0
 25 53  1  0  0  0  0
 25 54  1  0  0  0  0
 26 55  1  0  0  0  0
 26 56  1  0  0  0  0
 27 28  1  0  0  0  0
 27 57  1  0  0  0  0
 28 29  1  0  0  0  0
M  END
$$$$
CHEMBL2336566_5ZTY
 OpenBabel12022418123D

 61 63  0  0  0  0  0  0  0  0999 V2000
    0.5533   -2.7309    0.4600 C   0  0  0  0  0  0  0  0  0  0  0  0
    2.0173   -3.0249    0.7523 C   0  0  0  0  0  0  0  0  0  0  0  0
    2.9477   -2.3080   -0.1383 N   0  0  0  0  0  0  0  0  0  0  0  0
    2.7926   -2.4757   -1.5983 C   0  0  0  0  0  0  0  0  0  0  0  0
    3.0973   -3.8889   -2.0855 C   0  0  0  0  0  0  0  0  0  0  0  0
    4.2816   -2.2108    0.3051 C   0  0  0  0  0  0  0  0  0  0  0  0
    5.1022   -1.1500   -0.1183 C   0  0  0  0  0  0  0  0  0  0  0  0
    6.4552   -1.0524    0.2649 C   0  0  0  0  0  0  0  0  0  0  0  0
    7.0287   -2.0310    1.0791 C   0  0  0  0  0  0  0  0  0  0  0  0
    8.5240   -2.1311    1.2965 C   0  0  0  0  0  0  0  0  0  0  0  0
    9.2639   -1.0123    1.9654 N   0  0  0  0  0  0  0  0  0  0  0  0
    8.7452   -0.7225    3.3362 C   0  0  0  0  0  0  0  0  0  0  0  0
    9.3514    0.4974    4.0004 C   0  0  0  0  0  0  0  0  0  0  0  0
   10.0867    0.3583    5.1900 C   0  0  0  0  0  0  0  0  0  0  0  0
   10.7824    1.4422    5.7279 C   0  0  0  0  0  0  0  0  0  0  0  0
   10.7284    2.6844    5.1009 C   0  0  0  0  0  0  0  0  0  0  0  0
    9.9630    2.8485    3.9464 C   0  0  0  0  0  0  0  0  0  0  0  0
    9.2743    1.7623    3.3994 C   0  0  0  0  0  0  0  0  0  0  0  0
   10.9769   -1.3219    1.8825 S   0  0  0  0  0  0  0  0  0  0  0  0
   11.7098   -0.5872    2.8817 O   0  0  0  0  0  0  0  0  0  0  0  0
   11.1662   -2.7538    1.7507 O   0  0  0  0  0  0  0  0  0  0  0  0
   11.4004   -0.5795    0.3183 C   0  0  0  0  0  0  0  0  0  0  0  0
   11.7832    0.7649    0.2868 C   0  0  0  0  0  0  0  0  0  0  0  0
   12.1952    1.3307   -0.9203 C   0  0  0  0  0  0  0  0  0  0  0  0
   12.2461    0.5586   -2.0846 C   0  0  0  0  0  0  0  0  0  0  0  0
   11.8672   -0.7854   -2.0414 C   0  0  0  0  0  0  0  0  0  0  0  0
   11.4552   -1.3619   -0.8358 C   0  0  0  0  0  0  0  0  0  0  0  0
   12.6492    1.2291   -3.2068 O   0  0  0  0  0  0  0  0  0  0  0  0
   13.2568    0.4353   -4.2198 C   0  0  0  0  0  0  0  0  0  0  0  0
    6.2047   -3.0595    1.5532 C   0  0  0  0  0  0  0  0  0  0  0  0
    4.8584   -3.1430    1.1755 C   0  0  0  0  0  0  0  0  0  0  0  0
   -0.0621   -3.0492    1.3092 H   0  0  0  0  0  0  0  0  0  0  0  0
    0.2057   -3.2848   -0.4177 H   0  0  0  0  0  0  0  0  0  0  0  0
    0.3761   -1.6646    0.2912 H   0  0  0  0  0  0  0  0  0  0  0  0
    2.1800   -4.1080    0.7070 H   0  0  0  0  0  0  0  0  0  0  0  0
    2.1980   -2.7041    1.7864 H   0  0  0  0  0  0  0  0  0  0  0  0
    3.4268   -1.7701   -2.1486 H   0  0  0  0  0  0  0  0  0  0  0  0
    1.7671   -2.2184   -1.8852 H   0  0  0  0  0  0  0  0  0  0  0  0
    4.1529   -4.1426   -1.9464 H   0  0  0  0  0  0  0  0  0  0  0  0
    2.8753   -3.9699   -3.1555 H   0  0  0  0  0  0  0  0  0  0  0  0
    2.4951   -4.6405   -1.5664 H   0  0  0  0  0  0  0  0  0  0  0  0
    4.6845   -0.3740   -0.7553 H   0  0  0  0  0  0  0  0  0  0  0  0
    7.0578   -0.2333   -0.1197 H   0  0  0  0  0  0  0  0  0  0  0  0
    8.9466   -2.2932    0.2986 H   0  0  0  0  0  0  0  0  0  0  0  0
    8.7138   -3.0464    1.8731 H   0  0  0  0  0  0  0  0  0  0  0  0
    8.8741   -1.6115    3.9661 H   0  0  0  0  0  0  0  0  0  0  0  0
    7.6648   -0.5384    3.2818 H   0  0  0  0  0  0  0  0  0  0  0  0
   10.1862   -0.6150    5.6651 H   0  0  0  0  0  0  0  0  0  0  0  0
   11.3978    1.3046    6.6132 H   0  0  0  0  0  0  0  0  0  0  0  0
   11.2972    3.5186    5.5029 H   0  0  0  0  0  0  0  0  0  0  0  0
    9.9284    3.8178    3.4567 H   0  0  0  0  0  0  0  0  0  0  0  0
    8.7132    1.8956    2.4771 H   0  0  0  0  0  0  0  0  0  0  0  0
   11.7807    1.3675    1.1933 H   0  0  0  0  0  0  0  0  0  0  0  0
   12.5003    2.3743   -0.9510 H   0  0  0  0  0  0  0  0  0  0  0  0
   11.8754   -1.4081   -2.9293 H   0  0  0  0  0  0  0  0  0  0  0  0
   11.1870   -2.4142   -0.8078 H   0  0  0  0  0  0  0  0  0  0  0  0
   13.6040    1.1110   -5.0074 H   0  0  0  0  0  0  0  0  0  0  0  0
   12.5413   -0.2557   -4.6754 H   0  0  0  0  0  0  0  0  0  0  0  0
   14.1280   -0.1000   -3.8270 H   0  0  0  0  0  0  0  0  0  0  0  0
    6.6090   -3.8495    2.1826 H   0  0  0  0  0  0  0  0  0  0  0  0
    4.2885   -3.9945    1.5373 H   0  0  0  0  0  0  0  0  0  0  0  0
  1  2  1  0  0  0  0
  1 32  1  0  0  0  0
  1 33  1  0  0  0  0
  1 34  1  0  0  0  0
  2  3  1  0  0  0  0
  2 35  1  0  0  0  0
  2 36  1  0  0  0  0
  3  4  1  0  0  0  0
  3  6  1  0  0  0  0
  4  5  1  0  0  0  0
  4 37  1  0  0  0  0
  4 38  1  0  0  0  0
  5 39  1  0  0  0  0
  5 40  1  0  0  0  0
  5 41  1  0  0  0  0
  6 31  2  0  0  0  0
  6  7  1  0  0  0  0
  7  8  2  0  0  0  0
  7 42  1  0  0  0  0
  8  9  1  0  0  0  0
  8 43  1  0  0  0  0
  9 10  1  0  0  0  0
  9 30  2  0  0  0  0
 10 11  1  0  0  0  0
 10 44  1  0  0  0  0
 10 45  1  0  0  0  0
 11 12  1  0  0  0  0
 11 19  1  0  0  0  0
 12 13  1  0  0  0  0
 12 46  1  0  0  0  0
 12 47  1  0  0  0  0
 13 18  2  0  0  0  0
 13 14  1  0  0  0  0
 14 15  2  0  0  0  0
 14 48  1  0  0  0  0
 15 16  1  0  0  0  0
 15 49  1  0  0  0  0
 16 17  2  0  0  0  0
 16 50  1  0  0  0  0
 17 18  1  0  0  0  0
 17 51  1  0  0  0  0
 18 52  1  0  0  0  0
 19 20  2  0  0  0  0
 19 21  2  0  0  0  0
 19 22  1  0  0  0  0
 22 27  2  0  0  0  0
 22 23  1  0  0  0  0
 23 24  2  0  0  0  0
 23 53  1  0  0  0  0
 24 25  1  0  0  0  0
 24 54  1  0  0  0  0
 25 26  2  0  0  0  0
 25 28  1  0  0  0  0
 26 27  1  0  0  0  0
 26 55  1  0  0  0  0
 27 56  1  0  0  0  0
 28 29  1  0  0  0  0
 29 57  1  0  0  0  0
 29 58  1  0  0  0  0
 29 59  1  0  0  0  0
 30 31  1  0  0  0  0
 30 60  1  0  0  0  0
 31 61  1  0  0  0  0
M  END
$$$$
CHEMBL1668521_5ZTY
 OpenBabel12022418123D

 58 60  0  0  0  0  0  0  0  0999 V2000
    2.0051   -2.8869    0.2122 C   0  0  0  0  0  0  0  0  0  0  0  0
    3.1524   -1.8930    0.1336 C   0  0  0  0  0  0  0  0  0  0  0  0
    3.6835   -1.5542    1.5246 C   0  0  0  0  0  0  0  0  0  0  0  0
    4.8384   -0.5552    1.4549 C   0  0  0  0  0  0  0  0  0  0  0  0
    5.3596   -0.2303    2.8554 C   0  0  0  0  0  0  0  0  0  0  0  0
    6.5362    0.7504    2.8058 C   0  0  0  0  0  0  0  0  0  0  0  0
    6.9963    1.0715    4.1657 N   0  0  0  0  0  0  0  0  0  0  0  0
    7.5933    0.1425    5.0098 C   0  0  0  0  0  0  0  0  0  0  0  0
    8.0108    0.3704    6.2686 C   0  0  0  0  0  0  0  0  0  0  0  0
    8.6723   -0.7188    7.0447 C   0  0  0  0  0  0  0  0  0  0  0  0
    8.8139   -1.8467    6.5786 O   0  0  0  0  0  0  0  0  0  0  0  0
    9.1197   -0.3574    8.2952 N   0  0  0  0  0  0  0  0  0  0  0  0
    9.7597   -1.2851    9.2141 C   0  0  0  0  0  0  0  0  0  0  0  0
   10.7485   -0.5421   10.1238 C   0  0  0  0  0  0  0  0  0  0  0  0
   11.3875   -1.4783   11.1474 C   0  0  0  0  0  0  0  0  0  0  0  0
   10.3283   -2.2032   11.9710 C   0  0  0  0  0  0  0  0  0  0  0  0
    9.3590   -2.9645   11.0721 C   0  0  0  0  0  0  0  0  0  0  0  0
    8.7117   -2.0454   10.0378 C   0  0  0  0  0  0  0  0  0  0  0  0
    7.7898    1.7371    6.7930 C   0  0  0  0  0  0  0  0  0  0  0  0
    8.0017    2.0197    7.9699 O   0  0  0  0  0  0  0  0  0  0  0  0
    7.3200    2.7755    5.8580 C   0  0  0  0  0  0  0  0  0  0  0  0
    7.2915    4.1062    6.2744 C   0  0  0  0  0  0  0  0  0  0  0  0
    6.8563    5.0780    5.3872 C   0  0  0  0  0  0  0  0  0  0  0  0
    6.4500    4.6803    4.1207 C   0  0  0  0  0  0  0  0  0  0  0  0
    5.9120    5.6857    3.1477 C   0  0  0  0  0  0  0  0  0  0  0  0
    6.4723    3.3837    3.7126 N   0  0  0  0  0  0  0  0  0  0  0  0
    6.9164    2.4281    4.5671 C   0  0  0  0  0  0  0  0  0  0  0  0
    1.6340   -3.1191   -0.7906 H   0  0  0  0  0  0  0  0  0  0  0  0
    1.1744   -2.4797    0.7975 H   0  0  0  0  0  0  0  0  0  0  0  0
    2.3290   -3.8218    0.6808 H   0  0  0  0  0  0  0  0  0  0  0  0
    2.8070   -0.9807   -0.3663 H   0  0  0  0  0  0  0  0  0  0  0  0
    3.9561   -2.3162   -0.4802 H   0  0  0  0  0  0  0  0  0  0  0  0
    4.0218   -2.4719    2.0215 H   0  0  0  0  0  0  0  0  0  0  0  0
    2.8739   -1.1367    2.1356 H   0  0  0  0  0  0  0  0  0  0  0  0
    4.5019    0.3646    0.9615 H   0  0  0  0  0  0  0  0  0  0  0  0
    5.6501   -0.9720    0.8463 H   0  0  0  0  0  0  0  0  0  0  0  0
    5.6679   -1.1609    3.3467 H   0  0  0  0  0  0  0  0  0  0  0  0
    4.5498    0.1945    3.4616 H   0  0  0  0  0  0  0  0  0  0  0  0
    6.2251    1.6313    2.2324 H   0  0  0  0  0  0  0  0  0  0  0  0
    7.3669    0.3083    2.2414 H   0  0  0  0  0  0  0  0  0  0  0  0
    7.7170   -0.8403    4.5583 H   0  0  0  0  0  0  0  0  0  0  0  0
    8.8484    0.5632    8.6464 H   0  0  0  0  0  0  0  0  0  0  0  0
   10.3214   -2.0112    8.6132 H   0  0  0  0  0  0  0  0  0  0  0  0
   10.2369    0.2741   10.6510 H   0  0  0  0  0  0  0  0  0  0  0  0
   11.5341   -0.0738    9.5181 H   0  0  0  0  0  0  0  0  0  0  0  0
   12.0469   -0.9086   11.8118 H   0  0  0  0  0  0  0  0  0  0  0  0
   12.0148   -2.2144   10.6291 H   0  0  0  0  0  0  0  0  0  0  0  0
    9.7732   -1.4753   12.5756 H   0  0  0  0  0  0  0  0  0  0  0  0
   10.8108   -2.8970   12.6686 H   0  0  0  0  0  0  0  0  0  0  0  0
    8.5826   -3.4372   11.6839 H   0  0  0  0  0  0  0  0  0  0  0  0
    9.8962   -3.7712   10.5579 H   0  0  0  0  0  0  0  0  0  0  0  0
    8.0707   -2.6388    9.3749 H   0  0  0  0  0  0  0  0  0  0  0  0
    8.0517   -1.3331   10.5504 H   0  0  0  0  0  0  0  0  0  0  0  0
    7.6088    4.3812    7.2766 H   0  0  0  0  0  0  0  0  0  0  0  0
    6.8333    6.1202    5.6880 H   0  0  0  0  0  0  0  0  0  0  0  0
    6.0858    6.7107    3.4912 H   0  0  0  0  0  0  0  0  0  0  0  0
    4.8342    5.5392    3.0306 H   0  0  0  0  0  0  0  0  0  0  0  0
    6.3980    5.5680    2.1747 H   0  0  0  0  0  0  0  0  0  0  0  0
  1  2  1  0  0  0  0
  1 28  1  0  0  0  0
  1 29  1  0  0  0  0
  1 30  1  0  0  0  0
  2  3  1  0  0  0  0
  2 31  1  0  0  0  0
  2 32  1  0  0  0  0
  3  4  1  0  0  0  0
  3 33  1  0  0  0  0
  3 34  1  0  0  0  0
  4  5  1  0  0  0  0
  4 35  1  0  0  0  0
  4 36  1  0  0  0  0
  5  6  1  0  0  0  0
  5 37  1  0  0  0  0
  5 38  1  0  0  0  0
  6  7  1  0  0  0  0
  6 39  1  0  0  0  0
  6 40  1  0  0  0  0
  7 27  1  0  0  0  0
  7  8  1  0  0  0  0
  8  9  2  0  0  0  0
  8 41  1  0  0  0  0
  9 10  1  0  0  0  0
  9 19  1  0  0  0  0
 10 11  2  0  0  0  0
 10 12  1  0  0  0  0
 12 13  1  0  0  0  0
 12 42  1  0  0  0  0
 13 18  1  0  0  0  0
 13 14  1  0  0  0  0
 13 43  1  0  0  0  0
 14 15  1  0  0  0  0
 14 44  1  0  0  0  0
 14 45  1  0  0  0  0
 15 16  1  0  0  0  0
 15 46  1  0  0  0  0
 15 47  1  0  0  0  0
 16 17  1  0  0  0  0
 16 48  1  0  0  0  0
 16 49  1  0  0  0  0
 17 18  1  0  0  0  0
 17 50  1  0  0  0  0
 17 51  1  0  0  0  0
 18 52  1  0  0  0  0
 18 53  1  0  0  0  0
 19 20  2  0  0  0  0
 19 21  1  0  0  0  0
 21 27  2  0  0  0  0
 21 22  1  0  0  0  0
 22 23  2  0  0  0  0
 22 54  1  0  0  0  0
 23 24  1  0  0  0  0
 23 55  1  0  0  0  0
 24 25  1  0  0  0  0
 24 26  2  0  0  0  0
 25 56  1  0  0  0  0
 25 57  1  0  0  0  0
 25 58  1  0  0  0  0
 26 27  1  0  0  0  0
M  END
$$$$
CHEMBL481886_6PT0
 OpenBabel12022418123D

 48 51  0  0  0  0  0  0  0  0999 V2000
    1.2250   -1.3761    1.0765 O   0  0  0  0  0  0  0  0  0  0  0  0
    2.2862   -0.9584    0.6002 C   0  0  0  0  0  0  0  0  0  0  0  0
    2.7092   -1.2854   -0.8121 C   0  0  0  0  0  0  0  0  0  0  0  0
    1.7073   -2.0728   -1.5167 N   0  0  0  0  0  0  0  0  0  0  0  0
    1.9260   -3.3705   -1.8098 N   0  0  0  0  0  0  0  0  0  0  0  0
    0.8698   -3.6788   -2.5840 C   0  0  0  0  0  0  0  0  0  0  0  0
    0.6866   -5.0410   -3.1084 C   0  0  0  0  0  0  0  0  0  0  0  0
    0.3931   -5.2131   -4.4754 C   0  0  0  0  0  0  0  0  0  0  0  0
    0.1932   -6.4857   -5.0203 C   0  0  0  0  0  0  0  0  0  0  0  0
    0.3287   -7.6103   -4.2157 C   0  0  0  0  0  0  0  0  0  0  0  0
    0.6270   -7.4743   -2.8643 C   0  0  0  0  0  0  0  0  0  0  0  0
    0.7897   -6.1958   -2.3077 C   0  0  0  0  0  0  0  0  0  0  0  0
    1.0551   -6.1423   -0.5957 Cl  0  0  0  0  0  0  0  0  0  0  0  0
    0.1229   -9.1767   -4.8974 Cl  0  0  0  0  0  0  0  0  0  0  0  0
    0.1188   -2.4700   -2.8357 C   0  0  0  0  0  0  0  0  0  0  0  0
   -1.0572   -2.2405   -3.6886 C   0  0  0  0  0  0  0  0  0  0  0  0
   -2.0671   -3.2212   -3.7405 C   0  0  0  0  0  0  0  0  0  0  0  0
   -3.1501   -3.1018   -4.6175 C   0  0  0  0  0  0  0  0  0  0  0  0
   -3.2700   -1.9714   -5.4167 C   0  0  0  0  0  0  0  0  0  0  0  0
   -2.3174   -0.9616   -5.3491 C   0  0  0  0  0  0  0  0  0  0  0  0
   -1.2085   -1.0958   -4.5009 C   0  0  0  0  0  0  0  0  0  0  0  0
   -0.0454    0.1875   -4.5887 Cl  0  0  0  0  0  0  0  0  0  0  0  0
   -4.5942   -1.8281   -6.5042 Cl  0  0  0  0  0  0  0  0  0  0  0  0
    0.6865   -1.4664   -2.1473 N   0  0  0  0  0  0  0  0  0  0  0  0
    3.1609   -0.1980    1.3807 N   0  0  0  0  0  0  0  0  0  0  0  0
    4.3771    0.4703    0.9186 C   0  0  0  0  0  0  0  0  0  0  0  0
    5.5817    0.0779    1.7757 C   0  0  0  0  0  0  0  0  0  0  0  0
    5.3028    0.2255    3.2733 C   0  0  0  0  0  0  0  0  0  0  0  0
    3.9909   -0.4501    3.6698 C   0  0  0  0  0  0  0  0  0  0  0  0
    2.8400    0.0294    2.7898 C   0  0  0  0  0  0  0  0  0  0  0  0
    3.6334   -1.8708   -0.7849 H   0  0  0  0  0  0  0  0  0  0  0  0
    2.8623   -0.3712   -1.3930 H   0  0  0  0  0  0  0  0  0  0  0  0
    0.3099   -4.3544   -5.1390 H   0  0  0  0  0  0  0  0  0  0  0  0
   -0.0599   -6.5880   -6.0730 H   0  0  0  0  0  0  0  0  0  0  0  0
    0.7224   -8.3594   -2.2399 H   0  0  0  0  0  0  0  0  0  0  0  0
   -2.0176   -4.1064   -3.1089 H   0  0  0  0  0  0  0  0  0  0  0  0
   -3.8912   -3.8960   -4.6714 H   0  0  0  0  0  0  0  0  0  0  0  0
   -2.4239   -0.0751   -5.9701 H   0  0  0  0  0  0  0  0  0  0  0  0
    4.1990    1.5503    0.9978 H   0  0  0  0  0  0  0  0  0  0  0  0
    4.5847    0.2548   -0.1314 H   0  0  0  0  0  0  0  0  0  0  0  0
    6.4477    0.6919    1.5021 H   0  0  0  0  0  0  0  0  0  0  0  0
    5.8464   -0.9652    1.5652 H   0  0  0  0  0  0  0  0  0  0  0  0
    5.2565    1.2896    3.5347 H   0  0  0  0  0  0  0  0  0  0  0  0
    6.1296   -0.2089    3.8472 H   0  0  0  0  0  0  0  0  0  0  0  0
    3.7688   -0.2458    4.7230 H   0  0  0  0  0  0  0  0  0  0  0  0
    4.1003   -1.5369    3.5652 H   0  0  0  0  0  0  0  0  0  0  0  0
    1.9201   -0.4835    3.0839 H   0  0  0  0  0  0  0  0  0  0  0  0
    2.6724    1.1047    2.9237 H   0  0  0  0  0  0  0  0  0  0  0  0
  1  2  2  0  0  0  0
  2  3  1  0  0  0  0
  2 25  1  0  0  0  0
  3  4  1  0  0  0  0
  3 31  1  0  0  0  0
  3 32  1  0  0  0  0
  4 24  1  0  0  0  0
  4  5  1  0  0  0  0
  5  6  2  0  0  0  0
  6  7  1  0  0  0  0
  6 15  1  0  0  0  0
  7 12  2  0  0  0  0
  7  8  1  0  0  0  0
  8  9  2  0  0  0  0
  8 33  1  0  0  0  0
  9 10  1  0  0  0  0
  9 34  1  0  0  0  0
 10 11  2  0  0  0  0
 10 14  1  0  0  0  0
 11 12  1  0  0  0  0
 11 35  1  0  0  0  0
 12 13  1  0  0  0  0
 15 16  1  0  0  0  0
 15 24  2  0  0  0  0
 16 21  2  0  0  0  0
 16 17  1  0  0  0  0
 17 18  2  0  0  0  0
 17 36  1  0  0  0  0
 18 19  1  0  0  0  0
 18 37  1  0  0  0  0
 19 20  2  0  0  0  0
 19 23  1  0  0  0  0
 20 21  1  0  0  0  0
 20 38  1  0  0  0  0
 21 22  1  0  0  0  0
 25 30  1  0  0  0  0
 25 26  1  0  0  0  0
 26 27  1  0  0  0  0
 26 39  1  0  0  0  0
 26 40  1  0  0  0  0
 27 28  1  0  0  0  0
 27 41  1  0  0  0  0
 27 42  1  0  0  0  0
 28 29  1  0  0  0  0
 28 43  1  0  0  0  0
 28 44  1  0  0  0  0
 29 30  1  0  0  0  0
 29 45  1  0  0  0  0
 29 46  1  0  0  0  0
 30 47  1  0  0  0  0
 30 48  1  0  0  0  0
M  END
$$$$
CHEMBL1765161_5ZTY
 OpenBabel12022418123D

 55 59  0  0  1  0  0  0  0  0999 V2000
    2.1655    1.1756    0.2593 O   0  0  0  0  0  0  0  0  0  0  0  0
    2.1455   -0.0009   -0.0846 C   0  0  0  0  0  0  0  0  0  0  0  0
    0.9425   -0.4685   -0.8566 C   0  0  0  0  0  0  0  0  0  0  0  0
   -0.3069   -0.2328   -0.3043 C   0  0  0  0  0  0  0  0  0  0  0  0
   -1.3766   -0.9852   -0.7761 C   0  0  0  0  0  0  0  0  0  0  0  0
   -1.1595   -1.9490   -1.7764 C   0  0  0  0  0  0  0  0  0  0  0  0
   -2.1665   -2.8469   -2.1644 C   0  0  0  0  0  0  0  0  0  0  0  0
   -1.9113   -3.8200   -3.1333 C   0  0  0  0  0  0  0  0  0  0  0  0
   -0.6673   -3.8648   -3.7481 C   0  0  0  0  0  0  0  0  0  0  0  0
    0.3326   -2.9642   -3.3637 C   0  0  0  0  0  0  0  0  0  0  0  0
    0.1233   -2.0232   -2.3629 C   0  0  0  0  0  0  0  0  0  0  0  0
    1.1578   -1.2833   -1.9270 N   0  0  0  0  0  0  0  0  0  0  0  0
    3.1322   -0.9553    0.2535 N   0  0  0  0  0  0  0  0  0  0  0  0
    2.8290   -2.3971    0.2320 C   0  0  0  0  0  0  0  0  0  0  0  0
    3.9782   -3.1864   -0.3687 C   0  0  0  0  0  0  0  0  0  0  0  0
    5.2904   -2.9489    0.4125 C   0  0  2  0  0  0  0  0  0  0  0  0
    6.3611   -3.5587   -0.3323 O   0  0  0  0  0  0  0  0  0  0  0  0
    5.2948   -3.7089    1.7540 C   0  0  0  0  0  0  0  0  0  0  0  0
    5.5179   -3.0898    2.9977 C   0  0  0  0  0  0  0  0  0  0  0  0
    5.5109   -3.8156    4.1933 C   0  0  0  0  0  0  0  0  0  0  0  0
    5.3041   -5.1889    4.1733 C   0  0  0  0  0  0  0  0  0  0  0  0
    5.1098   -5.8378    2.9593 C   0  0  0  0  0  0  0  0  0  0  0  0
    5.1104   -5.1051    1.7651 C   0  0  0  0  0  0  0  0  0  0  0  0
    5.5619   -1.4132    0.5264 C   0  0  1  0  0  0  0  0  0  0  0  0
    6.0218   -0.7581   -0.7949 C   0  0  0  0  0  0  0  0  0  0  0  0
    6.2794    0.7454   -0.6819 C   0  0  0  0  0  0  0  0  0  0  0  0
    5.3116    1.5406    0.1879 C   0  0  0  0  0  0  0  0  0  0  0  0
    4.7416    0.7834    1.3791 C   0  0  0  0  0  0  0  0  0  0  0  0
    4.3207   -0.6571    1.0804 C   0  0  1  0  0  0  0  0  0  0  0  0
   -0.4297    0.4514    0.5273 H   0  0  0  0  0  0  0  0  0  0  0  0
   -2.3533   -0.8729   -0.3218 H   0  0  0  0  0  0  0  0  0  0  0  0
   -3.1416   -2.8278   -1.6839 H   0  0  0  0  0  0  0  0  0  0  0  0
   -2.6804   -4.5428   -3.3980 H   0  0  0  0  0  0  0  0  0  0  0  0
   -0.4605   -4.6130   -4.5103 H   0  0  0  0  0  0  0  0  0  0  0  0
    1.3115   -3.0256   -3.8327 H   0  0  0  0  0  0  0  0  0  0  0  0
    1.9154   -2.6525   -0.2934 H   0  0  0  0  0  0  0  0  0  0  0  0
    2.6377   -2.7005    1.2677 H   0  0  0  0  0  0  0  0  0  0  0  0
    4.1066   -2.8952   -1.4196 H   0  0  0  0  0  0  0  0  0  0  0  0
    3.7107   -4.2486   -0.4088 H   0  0  0  0  0  0  0  0  0  0  0  0
    6.2670   -3.3043   -1.2647 H   0  0  0  0  0  0  0  0  0  0  0  0
    5.7160   -2.0265    3.0852 H   0  0  0  0  0  0  0  0  0  0  0  0
    5.6807   -3.3035    5.1359 H   0  0  0  0  0  0  0  0  0  0  0  0
    5.3148   -5.7543    5.1008 H   0  0  0  0  0  0  0  0  0  0  0  0
    4.9745   -6.9137    2.9334 H   0  0  0  0  0  0  0  0  0  0  0  0
    4.9893   -5.6483    0.8299 H   0  0  0  0  0  0  0  0  0  0  0  0
    6.4110   -1.2713    1.2100 H   0  0  0  0  0  0  0  0  0  0  0  0
    5.2929   -0.9381   -1.5902 H   0  0  0  0  0  0  0  0  0  0  0  0
    6.9611   -1.2211   -1.1260 H   0  0  0  0  0  0  0  0  0  0  0  0
    6.2732    1.1789   -1.6912 H   0  0  0  0  0  0  0  0  0  0  0  0
    7.2968    0.8964   -0.3026 H   0  0  0  0  0  0  0  0  0  0  0  0
    4.4952    1.9160   -0.4305 H   0  0  0  0  0  0  0  0  0  0  0  0
    5.8348    2.4294    0.5665 H   0  0  0  0  0  0  0  0  0  0  0  0
    3.9315    1.3509    1.8468 H   0  0  0  0  0  0  0  0  0  0  0  0
    5.5262    0.7373    2.1479 H   0  0  0  0  0  0  0  0  0  0  0  0
    4.0458   -1.0614    2.0611 H   0  0  0  0  0  0  0  0  0  0  0  0
  1  2  2  0  0  0  0
  2  3  1  0  0  0  0
  2 13  1  0  0  0  0
  3 12  2  0  0  0  0
  3  4  1  0  0  0  0
  4  5  2  0  0  0  0
  4 30  1  0  0  0  0
  5  6  1  0  0  0  0
  5 31  1  0  0  0  0
  6 11  2  0  0  0  0
  6  7  1  0  0  0  0
  7  8  2  0  0  0  0
  7 32  1  0  0  0  0
  8  9  1  0  0  0  0
  8 33  1  0  0  0  0
  9 10  2  0  0  0  0
  9 34  1  0  0  0  0
 10 11  1  0  0  0  0
 10 35  1  0  0  0  0
 11 12  1  0  0  0  0
 13 29  1  0  0  0  0
 13 14  1  0  0  0  0
 14 15  1  0  0  0  0
 14 36  1  0  0  0  0
 14 37  1  0  0  0  0
 15 16  1  0  0  0  0
 15 38  1  0  0  0  0
 15 39  1  0  0  0  0
 16 24  1  0  0  0  0
 16 18  1  0  0  0  0
 16 17  1  6  0  0  0
 17 40  1  0  0  0  0
 18 23  2  0  0  0  0
 18 19  1  0  0  0  0
 19 20  2  0  0  0  0
 19 41  1  0  0  0  0
 20 21  1  0  0  0  0
 20 42  1  0  0  0  0
 21 22  2  0  0  0  0
 21 43  1  0  0  0  0
 22 23  1  0  0  0  0
 22 44  1  0  0  0  0
 23 45  1  0  0  0  0
 24 25  1  0  0  0  0
 24 29  1  0  0  0  0
 24 46  1  1  0  0  0
 25 26  1  0  0  0  0
 25 47  1  0  0  0  0
 25 48  1  0  0  0  0
 26 27  1  0  0  0  0
 26 49  1  0  0  0  0
 26 50  1  0  0  0  0
 27 28  1  0  0  0  0
 27 51  1  0  0  0  0
 27 52  1  0  0  0  0
 28 53  1  0  0  0  0
 28 54  1  0  0  0  0
 29 28  1  0  0  0  0
 29 55  1  1  0  0  0
M  END
$$$$
CHEMBL496578_8GUQ
 OpenBabel12022418123D

 53 54  0  0  1  0  0  0  0  0999 V2000
    8.2306    1.6916    4.5504 C   0  0  0  0  0  0  0  0  0  0  0  0
    7.1194    1.0634    5.3810 C   0  0  0  0  0  0  0  0  0  0  0  0
    6.0235    0.4260    4.5129 C   0  0  2  0  0  0  0  0  0  0  0  0
    4.8624   -0.0477    5.3883 C   0  0  0  0  0  0  0  0  0  0  0  0
    6.5489   -0.6716    3.7055 N   0  0  0  0  0  0  0  0  0  0  0  0
    6.0146   -0.9974    2.4747 C   0  0  0  0  0  0  0  0  0  0  0  0
    5.0923   -0.3657    1.9605 O   0  0  0  0  0  0  0  0  0  0  0  0
    6.7003   -2.1338    1.7227 C   0  0  0  0  0  0  0  0  0  0  0  0
    7.2126   -3.1782    2.6445 N   0  0  0  0  0  0  0  0  0  0  0  0
    6.3085   -4.2432    2.9986 C   0  0  0  0  0  0  0  0  0  0  0  0
    6.1276   -4.5437    4.3474 C   0  0  0  0  0  0  0  0  0  0  0  0
    5.2558   -5.5677    4.7275 C   0  0  0  0  0  0  0  0  0  0  0  0
    4.5533   -6.2997    3.7685 C   0  0  0  0  0  0  0  0  0  0  0  0
    4.7662   -6.0342    2.4169 C   0  0  0  0  0  0  0  0  0  0  0  0
    5.6478   -5.0134    2.0331 C   0  0  0  0  0  0  0  0  0  0  0  0
    3.7415   -7.2822    4.2629 O   0  0  0  0  0  0  0  0  0  0  0  0
    2.5710   -7.5772    3.4984 C   0  0  0  0  0  0  0  0  0  0  0  0
    1.7454   -8.5852    4.2815 C   0  0  0  0  0  0  0  0  0  0  0  0
    8.8744   -3.5509    2.5568 S   0  0  0  0  0  0  0  0  0  0  0  0
    9.5874   -2.3481    2.1793 O   0  0  0  0  0  0  0  0  0  0  0  0
    9.2510   -4.2670    3.7587 O   0  0  0  0  0  0  0  0  0  0  0  0
    8.9901   -4.6981    1.1956 C   0  0  0  0  0  0  0  0  0  0  0  0
    9.1997   -4.2335   -0.1071 C   0  0  0  0  0  0  0  0  0  0  0  0
    9.2299   -5.1479   -1.1648 C   0  0  0  0  0  0  0  0  0  0  0  0
    9.0686   -6.5117   -0.9108 C   0  0  0  0  0  0  0  0  0  0  0  0
    8.9281   -6.9793    0.3954 C   0  0  0  0  0  0  0  0  0  0  0  0
    8.9029   -6.0716    1.4549 C   0  0  0  0  0  0  0  0  0  0  0  0
    9.0153   -7.7360   -2.3503 Br  0  0  0  0  0  0  0  0  0  0  0  0
    8.9526    2.1924    5.2033 H   0  0  0  0  0  0  0  0  0  0  0  0
    7.8278    2.4373    3.8575 H   0  0  0  0  0  0  0  0  0  0  0  0
    8.7695    0.9363    3.9706 H   0  0  0  0  0  0  0  0  0  0  0  0
    6.6761    1.8470    6.0087 H   0  0  0  0  0  0  0  0  0  0  0  0
    7.5544    0.3186    6.0583 H   0  0  0  0  0  0  0  0  0  0  0  0
    5.6333    1.1902    3.8292 H   0  0  0  0  0  0  0  0  0  0  0  0
    5.1900   -0.7992    6.1148 H   0  0  0  0  0  0  0  0  0  0  0  0
    4.0670   -0.4942    4.7827 H   0  0  0  0  0  0  0  0  0  0  0  0
    4.4282    0.7923    5.9426 H   0  0  0  0  0  0  0  0  0  0  0  0
    7.1938   -1.3342    4.1238 H   0  0  0  0  0  0  0  0  0  0  0  0
    7.4974   -1.6799    1.1268 H   0  0  0  0  0  0  0  0  0  0  0  0
    5.9789   -2.5499    1.0120 H   0  0  0  0  0  0  0  0  0  0  0  0
    6.6577   -3.9829    5.1118 H   0  0  0  0  0  0  0  0  0  0  0  0
    5.1151   -5.7891    5.7826 H   0  0  0  0  0  0  0  0  0  0  0  0
    4.2805   -6.6185    1.6418 H   0  0  0  0  0  0  0  0  0  0  0  0
    5.8092   -4.8431    0.9717 H   0  0  0  0  0  0  0  0  0  0  0  0
    2.8372   -8.0200    2.5333 H   0  0  0  0  0  0  0  0  0  0  0  0
    1.9809   -6.6661    3.3420 H   0  0  0  0  0  0  0  0  0  0  0  0
    2.3296   -9.4909    4.4771 H   0  0  0  0  0  0  0  0  0  0  0  0
    0.8407   -8.8624    3.7327 H   0  0  0  0  0  0  0  0  0  0  0  0
    1.4558   -8.1777    5.2559 H   0  0  0  0  0  0  0  0  0  0  0  0
    9.3363   -3.1736   -0.3099 H   0  0  0  0  0  0  0  0  0  0  0  0
    9.3734   -4.7910   -2.1824 H   0  0  0  0  0  0  0  0  0  0  0  0
    8.8280   -8.0429    0.5987 H   0  0  0  0  0  0  0  0  0  0  0  0
    8.7938   -6.4393    2.4739 H   0  0  0  0  0  0  0  0  0  0  0  0
  1  2  1  0  0  0  0
  1 29  1  0  0  0  0
  1 30  1  0  0  0  0
  1 31  1  0  0  0  0
  2 32  1  0  0  0  0
  2 33  1  0  0  0  0
  3  5  1  0  0  0  0
  3  4  1  0  0  0  0
  3  2  1  0  0  0  0
  3 34  1  6  0  0  0
  4 35  1  0  0  0  0
  4 36  1  0  0  0  0
  4 37  1  0  0  0  0
  5  6  1  0  0  0  0
  5 38  1  0  0  0  0
  6  7  2  0  0  0  0
  6  8  1  0  0  0  0
  8  9  1  0  0  0  0
  8 39  1  0  0  0  0
  8 40  1  0  0  0  0
  9 10  1  0  0  0  0
  9 19  1  0  0  0  0
 10 15  2  0  0  0  0
 10 11  1  0  0  0  0
 11 12  2  0  0  0  0
 11 41  1  0  0  0  0
 12 13  1  0  0  0  0
 12 42  1  0  0  0  0
 13 14  2  0  0  0  0
 13 16  1  0  0  0  0
 14 15  1  0  0  0  0
 14 43  1  0  0  0  0
 15 44  1  0  0  0  0
 16 17  1  0  0  0  0
 17 18  1  0  0  0  0
 17 45  1  0  0  0  0
 17 46  1  0  0  0  0
 18 47  1  0  0  0  0
 18 48  1  0  0  0  0
 18 49  1  0  0  0  0
 19 20  2  0  0  0  0
 19 21  2  0  0  0  0
 19 22  1  0  0  0  0
 22 27  2  0  0  0  0
 22 23  1  0  0  0  0
 23 24  2  0  0  0  0
 23 50  1  0  0  0  0
 24 25  1  0  0  0  0
 24 51  1  0  0  0  0
 25 26  2  0  0  0  0
 25 28  1  0  0  0  0
 26 27  1  0  0  0  0
 26 52  1  0  0  0  0
 27 53  1  0  0  0  0
M  END
$$$$
CHEMBL1629731_5ZTY
 OpenBabel12022418123D

 49 51  0  0  0  0  0  0  0  0999 V2000
    2.9407   -0.1494    1.1674 C   0  0  0  0  0  0  0  0  0  0  0  0
    2.5402    1.3175    1.0587 C   0  0  0  0  0  0  0  0  0  0  0  0
    3.2116    2.1010   -0.1057 C   0  0  0  0  0  0  0  0  0  0  0  0
    2.7949    1.4823   -1.4540 C   0  0  0  0  0  0  0  0  0  0  0  0
    2.6778    3.5508   -0.0892 C   0  0  0  0  0  0  0  0  0  0  0  0
    4.6822    2.0972    0.0000 N   0  0  0  0  0  0  0  0  0  0  0  0
    5.3893    2.5917    1.0834 C   0  0  0  0  0  0  0  0  0  0  0  0
    4.8347    3.0314    2.0842 O   0  0  0  0  0  0  0  0  0  0  0  0
    6.8700    2.5569    0.9488 C   0  0  0  0  0  0  0  0  0  0  0  0
    7.8406    3.0575    1.8786 C   0  0  0  0  0  0  0  0  0  0  0  0
    9.0683    2.8267    1.2684 C   0  0  0  0  0  0  0  0  0  0  0  0
    8.8081    2.1994    0.0541 N   0  0  0  0  0  0  0  0  0  0  0  0
    9.7183    1.6028   -0.8740 C   0  0  0  0  0  0  0  0  0  0  0  0
   10.8846    0.9735   -0.3940 C   0  0  0  0  0  0  0  0  0  0  0  0
   11.8524    0.4877   -1.2786 C   0  0  0  0  0  0  0  0  0  0  0  0
   11.6397    0.5794   -2.6485 C   0  0  0  0  0  0  0  0  0  0  0  0
   10.4658    1.1408   -3.1425 C   0  0  0  0  0  0  0  0  0  0  0  0
    9.4992    1.6559   -2.2638 C   0  0  0  0  0  0  0  0  0  0  0  0
    8.1591    2.4510   -3.0157 Cl  0  0  0  0  0  0  0  0  0  0  0  0
   12.8442    0.0152   -3.7400 Cl  0  0  0  0  0  0  0  0  0  0  0  0
    7.4688    2.0496   -0.1435 N   0  0  0  0  0  0  0  0  0  0  0  0
   10.3298    3.2434    1.7282 N   0  0  0  0  0  0  0  0  0  0  0  0
   10.7244    3.3720    3.0497 C   0  0  0  0  0  0  0  0  0  0  0  0
   12.0438    3.7613    3.1123 C   0  0  0  0  0  0  0  0  0  0  0  0
   12.4905    3.9101    1.7859 C   0  0  0  0  0  0  0  0  0  0  0  0
   11.4198    3.6304    0.9656 C   0  0  0  0  0  0  0  0  0  0  0  0
    7.5626    3.7934    3.1449 C   0  0  0  0  0  0  0  0  0  0  0  0
    2.4696   -0.5973    2.0486 H   0  0  0  0  0  0  0  0  0  0  0  0
    4.0233   -0.2650    1.2723 H   0  0  0  0  0  0  0  0  0  0  0  0
    2.6098   -0.7223    0.2968 H   0  0  0  0  0  0  0  0  0  0  0  0
    2.7579    1.7980    2.0194 H   0  0  0  0  0  0  0  0  0  0  0  0
    1.4487    1.3652    0.9489 H   0  0  0  0  0  0  0  0  0  0  0  0
    1.7033    1.4770   -1.5632 H   0  0  0  0  0  0  0  0  0  0  0  0
    3.1486    0.4521   -1.5595 H   0  0  0  0  0  0  0  0  0  0  0  0
    3.2096    2.0496   -2.2947 H   0  0  0  0  0  0  0  0  0  0  0  0
    1.5888    3.5718   -0.2170 H   0  0  0  0  0  0  0  0  0  0  0  0
    3.1208    4.1452   -0.8970 H   0  0  0  0  0  0  0  0  0  0  0  0
    2.9003    4.0633    0.8522 H   0  0  0  0  0  0  0  0  0  0  0  0
    5.2585    1.8027   -0.7892 H   0  0  0  0  0  0  0  0  0  0  0  0
   11.0720    0.8572    0.6724 H   0  0  0  0  0  0  0  0  0  0  0  0
   12.7713    0.0551   -0.8904 H   0  0  0  0  0  0  0  0  0  0  0  0
   10.3143    1.2094   -4.2167 H   0  0  0  0  0  0  0  0  0  0  0  0
   10.0555    3.1227    3.8586 H   0  0  0  0  0  0  0  0  0  0  0  0
   12.6164    3.9179    4.0168 H   0  0  0  0  0  0  0  0  0  0  0  0
   13.4776    4.2116    1.4585 H   0  0  0  0  0  0  0  0  0  0  0  0
   11.3531    3.6927   -0.1113 H   0  0  0  0  0  0  0  0  0  0  0  0
    6.5050    4.0009    3.3051 H   0  0  0  0  0  0  0  0  0  0  0  0
    8.0674    4.7659    3.1325 H   0  0  0  0  0  0  0  0  0  0  0  0
    7.9057    3.2219    4.0113 H   0  0  0  0  0  0  0  0  0  0  0  0
  1  2  1  0  0  0  0
  1 28  1  0  0  0  0
  1 29  1  0  0  0  0
  1 30  1  0  0  0  0
  2  3  1  0  0  0  0
  2 31  1  0  0  0  0
  2 32  1  0  0  0  0
  3  4  1  0  0  0  0
  3  5  1  0  0  0  0
  3  6  1  0  0  0  0
  4 33  1  0  0  0  0
  4 34  1  0  0  0  0
  4 35  1  0  0  0  0
  5 36  1  0  0  0  0
  5 37  1  0  0  0  0
  5 38  1  0  0  0  0
  6  7  1  0  0  0  0
  6 39  1  0  0  0  0
  7  8  2  0  0  0  0
  7  9  1  0  0  0  0
  9 21  2  0  0  0  0
  9 10  1  0  0  0  0
 10 11  2  0  0  0  0
 10 27  1  0  0  0  0
 11 12  1  0  0  0  0
 11 22  1  0  0  0  0
 12 13  1  0  0  0  0
 12 21  1  0  0  0  0
 13 18  2  0  0  0  0
 13 14  1  0  0  0  0
 14 15  2  0  0  0  0
 14 40  1  0  0  0  0
 15 16  1  0  0  0  0
 15 41  1  0  0  0  0
 16 17  2  0  0  0  0
 16 20  1  0  0  0  0
 17 18  1  0  0  0  0
 17 42  1  0  0  0  0
 18 19  1  0  0  0  0
 22 26  1  0  0  0  0
 22 23  1  0  0  0  0
 23 24  2  0  0  0  0
 23 43  1  0  0  0  0
 24 25  1  0  0  0  0
 24 44  1  0  0  0  0
 25 26  2  0  0  0  0
 25 45  1  0  0  0  0
 26 46  1  0  0  0  0
 27 47  1  0  0  0  0
 27 48  1  0  0  0  0
 27 49  1  0  0  0  0
M  END
$$$$
CHEMBL460754_5ZTY
 OpenBabel12022418123D

 39 41  0  0  0  0  0  0  0  0999 V2000
    3.1298   -1.0778    0.6051 C   0  0  0  0  0  0  0  0  0  0  0  0
    2.4321    0.1127    0.2428 O   0  0  0  0  0  0  0  0  0  0  0  0
    3.1776    1.2574    0.0871 C   0  0  0  0  0  0  0  0  0  0  0  0
    4.5786    1.2168   -0.0223 C   0  0  0  0  0  0  0  0  0  0  0  0
    5.3268    2.3908   -0.1278 C   0  0  0  0  0  0  0  0  0  0  0  0
    6.8060    2.2812   -0.1796 C   0  0  0  0  0  0  0  0  0  0  0  0
    7.3143    1.2867   -0.6906 O   0  0  0  0  0  0  0  0  0  0  0  0
    7.6871    3.3442    0.3701 C   0  0  0  0  0  0  0  0  0  0  0  0
    8.9157    3.5758   -0.2581 C   0  0  0  0  0  0  0  0  0  0  0  0
    9.7623    4.5818    0.2103 C   0  0  0  0  0  0  0  0  0  0  0  0
    9.3874    5.3506    1.3113 C   0  0  0  0  0  0  0  0  0  0  0  0
    8.1775    5.1035    1.9602 C   0  0  0  0  0  0  0  0  0  0  0  0
    7.3325    4.0922    1.5011 C   0  0  0  0  0  0  0  0  0  0  0  0
    4.6791    3.6179   -0.2075 C   0  0  0  0  0  0  0  0  0  0  0  0
    3.2804    3.6632   -0.1282 C   0  0  0  0  0  0  0  0  0  0  0  0
    2.4838    2.4998    0.0407 C   0  0  0  0  0  0  0  0  0  0  0  0
    0.9949    2.6110    0.1807 C   0  0  0  0  0  0  0  0  0  0  0  0
    0.1045    1.7166   -0.4426 C   0  0  0  0  0  0  0  0  0  0  0  0
   -1.2831    1.8668   -0.3187 C   0  0  0  0  0  0  0  0  0  0  0  0
   -1.8287    2.9252    0.3980 C   0  0  0  0  0  0  0  0  0  0  0  0
   -0.9712    3.8212    1.0169 C   0  0  0  0  0  0  0  0  0  0  0  0
    0.4130    3.6526    0.9337 C   0  0  0  0  0  0  0  0  0  0  0  0
   -1.6140    5.1649    1.8812 Cl  0  0  0  0  0  0  0  0  0  0  0  0
   -2.3354    0.7287   -1.0701 Cl  0  0  0  0  0  0  0  0  0  0  0  0
    2.6880    4.8972   -0.2254 O   0  0  0  0  0  0  0  0  0  0  0  0
    2.3907   -1.8642    0.7823 H   0  0  0  0  0  0  0  0  0  0  0  0
    3.6927   -0.9311    1.5334 H   0  0  0  0  0  0  0  0  0  0  0  0
    3.7838   -1.4230   -0.2035 H   0  0  0  0  0  0  0  0  0  0  0  0
    5.1230    0.2766   -0.0255 H   0  0  0  0  0  0  0  0  0  0  0  0
    9.2139    2.9740   -1.1148 H   0  0  0  0  0  0  0  0  0  0  0  0
   10.7138    4.7613   -0.2830 H   0  0  0  0  0  0  0  0  0  0  0  0
   10.0466    6.1370    1.6715 H   0  0  0  0  0  0  0  0  0  0  0  0
    7.8981    5.6947    2.8293 H   0  0  0  0  0  0  0  0  0  0  0  0
    6.4109    3.8934    2.0421 H   0  0  0  0  0  0  0  0  0  0  0  0
    5.2432    4.5294   -0.3501 H   0  0  0  0  0  0  0  0  0  0  0  0
    0.4861    0.8916   -1.0390 H   0  0  0  0  0  0  0  0  0  0  0  0
   -2.9047    3.0507    0.4710 H   0  0  0  0  0  0  0  0  0  0  0  0
    1.0480    4.3688    1.4509 H   0  0  0  0  0  0  0  0  0  0  0  0
    3.3625    5.5960   -0.2177 H   0  0  0  0  0  0  0  0  0  0  0  0
  1  2  1  0  0  0  0
  1 26  1  0  0  0  0
  1 27  1  0  0  0  0
  1 28  1  0  0  0  0
  2  3  1  0  0  0  0
  3 16  2  0  0  0  0
  3  4  1  0  0  0  0
  4  5  2  0  0  0  0
  4 29  1  0  0  0  0
  5  6  1  0  0  0  0
  5 14  1  0  0  0  0
  6  7  2  0  0  0  0
  6  8  1  0  0  0  0
  8 13  2  0  0  0  0
  8  9  1  0  0  0  0
  9 10  2  0  0  0  0
  9 30  1  0  0  0  0
 10 11  1  0  0  0  0
 10 31  1  0  0  0  0
 11 12  2  0  0  0  0
 11 32  1  0  0  0  0
 12 13  1  0  0  0  0
 12 33  1  0  0  0  0
 13 34  1  0  0  0  0
 14 15  2  0  0  0  0
 14 35  1  0  0  0  0
 15 16  1  0  0  0  0
 15 25  1  0  0  0  0
 16 17  1  0  0  0  0
 17 22  2  0  0  0  0
 17 18  1  0  0  0  0
 18 19  2  0  0  0  0
 18 36  1  0  0  0  0
 19 20  1  0  0  0  0
 19 24  1  0  0  0  0
 20 21  2  0  0  0  0
 20 37  1  0  0  0  0
 21 22  1  0  0  0  0
 21 23  1  0  0  0  0
 22 38  1  0  0  0  0
 25 39  1  0  0  0  0
M  END
$$$$
CHEMBL3354395_6PT0
 OpenBabel12022418123D

 52 56  0  0  0  0  0  0  0  0999 V2000
   -1.2469    0.2663   -1.8123 C   0  0  0  0  0  0  0  0  0  0  0  0
   -1.0147   -1.0876   -1.1522 C   0  0  0  0  0  0  0  0  0  0  0  0
    0.2854   -1.0804   -0.3541 C   0  0  0  0  0  0  0  0  0  0  0  0
    1.4868   -0.7424   -1.2533 C   0  0  0  0  0  0  0  0  0  0  0  0
    1.2567    0.6252   -1.9254 C   0  0  0  0  0  0  0  0  0  0  0  0
   -0.0654    0.6578   -2.6956 C   0  0  0  0  0  0  0  0  0  0  0  0
    2.7768   -0.7438   -0.4434 C   0  0  0  0  0  0  0  0  0  0  0  0
    3.2959    0.2801   -0.0089 O   0  0  0  0  0  0  0  0  0  0  0  0
    3.3799   -2.0002   -0.1633 N   0  0  0  0  0  0  0  0  0  0  0  0
    4.5862   -2.1919    0.5402 C   0  0  0  0  0  0  0  0  0  0  0  0
    5.5035   -1.2618    1.0773 C   0  0  0  0  0  0  0  0  0  0  0  0
    6.6330   -1.7326    1.7517 C   0  0  0  0  0  0  0  0  0  0  0  0
    6.8573   -3.0947    1.8954 C   0  0  0  0  0  0  0  0  0  0  0  0
    5.9503   -4.0215    1.3683 C   0  0  0  0  0  0  0  0  0  0  0  0
    4.7995   -3.5739    0.6806 C   0  0  0  0  0  0  0  0  0  0  0  0
    3.7061   -4.2281    0.0612 C   0  0  0  0  0  0  0  0  0  0  0  0
    2.8898   -3.2591   -0.4845 C   0  0  0  0  0  0  0  0  0  0  0  0
    1.7625   -3.5293   -1.1613 N   0  0  0  0  0  0  0  0  0  0  0  0
    1.4310   -4.8252   -1.1757 C   0  0  0  0  0  0  0  0  0  0  0  0
    2.1886   -5.8157   -0.6604 N   0  0  0  0  0  0  0  0  0  0  0  0
    3.3655   -5.5418   -0.0579 N   0  0  0  0  0  0  0  0  0  0  0  0
   -0.1817   -5.0921   -1.8720 S   0  0  0  0  0  0  0  0  0  0  0  0
   -0.4785   -6.8686   -1.6405 C   0  0  0  0  0  0  0  0  0  0  0  0
   -1.8880   -7.2060   -2.1151 C   0  0  0  0  0  0  0  0  0  0  0  0
   -2.1213   -7.3420   -3.4995 C   0  0  0  0  0  0  0  0  0  0  0  0
   -3.4038   -7.5885   -3.9988 C   0  0  0  0  0  0  0  0  0  0  0  0
   -4.4789   -7.7107   -3.1276 C   0  0  0  0  0  0  0  0  0  0  0  0
   -4.2754   -7.5768   -1.7567 C   0  0  0  0  0  0  0  0  0  0  0  0
   -2.9940   -7.3192   -1.2442 C   0  0  0  0  0  0  0  0  0  0  0  0
   -2.8657   -7.1567    0.1781 C   0  0  0  0  0  0  0  0  0  0  0  0
   -2.7842   -7.0365    1.3295 N   0  0  0  0  0  0  0  0  0  0  0  0
   -2.1651    0.2349   -2.4077 H   0  0  0  0  0  0  0  0  0  0  0  0
   -1.3915    1.0279   -1.0360 H   0  0  0  0  0  0  0  0  0  0  0  0
   -0.9749   -1.8726   -1.9180 H   0  0  0  0  0  0  0  0  0  0  0  0
   -1.8532   -1.3270   -0.4887 H   0  0  0  0  0  0  0  0  0  0  0  0
    0.3992   -2.0472    0.1435 H   0  0  0  0  0  0  0  0  0  0  0  0
    0.2163   -0.3488    0.4607 H   0  0  0  0  0  0  0  0  0  0  0  0
    1.5847   -1.4454   -2.0866 H   0  0  0  0  0  0  0  0  0  0  0  0
    2.0823    0.8434   -2.6140 H   0  0  0  0  0  0  0  0  0  0  0  0
    1.2565    1.4249   -1.1743 H   0  0  0  0  0  0  0  0  0  0  0  0
   -0.2298    1.6601   -3.1056 H   0  0  0  0  0  0  0  0  0  0  0  0
   -0.0076   -0.0307   -3.5481 H   0  0  0  0  0  0  0  0  0  0  0  0
    5.3536   -0.1883    0.9835 H   0  0  0  0  0  0  0  0  0  0  0  0
    7.3406   -1.0184    2.1704 H   0  0  0  0  0  0  0  0  0  0  0  0
    7.7413   -3.4415    2.4259 H   0  0  0  0  0  0  0  0  0  0  0  0
    6.1341   -5.0856    1.4930 H   0  0  0  0  0  0  0  0  0  0  0  0
   -0.3309   -7.1600   -0.5967 H   0  0  0  0  0  0  0  0  0  0  0  0
    0.2446   -7.4333   -2.2394 H   0  0  0  0  0  0  0  0  0  0  0  0
   -1.3010   -7.2306   -4.2067 H   0  0  0  0  0  0  0  0  0  0  0  0
   -3.5623   -7.6750   -5.0716 H   0  0  0  0  0  0  0  0  0  0  0  0
   -5.4791   -7.8994   -3.5159 H   0  0  0  0  0  0  0  0  0  0  0  0
   -5.1288   -7.6636   -1.0853 H   0  0  0  0  0  0  0  0  0  0  0  0
  1  6  1  0  0  0  0
  1  2  1  0  0  0  0
  1 32  1  0  0  0  0
  1 33  1  0  0  0  0
  2  3  1  0  0  0  0
  2 34  1  0  0  0  0
  2 35  1  0  0  0  0
  3  4  1  0  0  0  0
  3 36  1  0  0  0  0
  3 37  1  0  0  0  0
  4  5  1  0  0  0  0
  4  7  1  0  0  0  0
  4 38  1  0  0  0  0
  5  6  1  0  0  0  0
  5 39  1  0  0  0  0
  5 40  1  0  0  0  0
  6 41  1  0  0  0  0
  6 42  1  0  0  0  0
  7  8  2  0  0  0  0
  7  9  1  0  0  0  0
  9 17  1  0  0  0  0
  9 10  1  0  0  0  0
 10 15  2  0  0  0  0
 10 11  1  0  0  0  0
 11 12  2  0  0  0  0
 11 43  1  0  0  0  0
 12 13  1  0  0  0  0
 12 44  1  0  0  0  0
 13 14  2  0  0  0  0
 13 45  1  0  0  0  0
 14 15  1  0  0  0  0
 14 46  1  0  0  0  0
 15 16  1  0  0  0  0
 16 21  2  0  0  0  0
 16 17  1  0  0  0  0
 17 18  2  0  0  0  0
 18 19  1  0  0  0  0
 19 20  2  0  0  0  0
 19 22  1  0  0  0  0
 20 21  1  0  0  0  0
 22 23  1  0  0  0  0
 23 24  1  0  0  0  0
 23 47  1  0  0  0  0
 23 48  1  0  0  0  0
 24 29  2  0  0  0  0
 24 25  1  0  0  0  0
 25 26  2  0  0  0  0
 25 49  1  0  0  0  0
 26 27  1  0  0  0  0
 26 50  1  0  0  0  0
 27 28  2  0  0  0  0
 27 51  1  0  0  0  0
 28 29  1  0  0  0  0
 28 52  1  0  0  0  0
 29 30  1  0  0  0  0
 30 31  3  0  0  0  0
M  END
$$$$
CHEMBL4779298_8GUT
 OpenBabel12022418123D

 51 53  0  0  0  0  0  0  0  0999 V2000
   -1.2538   -0.6057    0.0002 C   0  0  0  0  0  0  0  0  0  0  0  0
   -0.1504   -1.3678    0.0711 C   0  0  0  0  0  0  0  0  0  0  0  0
   -0.3097   -2.8566    0.2223 C   0  0  0  0  0  0  0  0  0  0  0  0
    1.1170   -0.7636    0.0342 N   0  0  0  0  0  0  0  0  0  0  0  0
    2.3387   -1.5246    0.3193 C   0  0  0  0  0  0  0  0  0  0  0  0
    3.1275   -2.0704   -0.8577 C   0  0  0  0  0  0  0  0  0  0  0  0
    3.1154   -3.4472   -1.1424 C   0  0  0  0  0  0  0  0  0  0  0  0
    4.0340   -3.9972   -2.0427 C   0  0  0  0  0  0  0  0  0  0  0  0
    4.9538   -3.1720   -2.6756 C   0  0  0  0  0  0  0  0  0  0  0  0
    4.9433   -1.8005   -2.4622 C   0  0  0  0  0  0  0  0  0  0  0  0
    4.0269   -1.2483   -1.5586 C   0  0  0  0  0  0  0  0  0  0  0  0
    5.8833   -3.7108   -3.4770 F   0  0  0  0  0  0  0  0  0  0  0  0
    1.2639    0.6360   -0.0756 C   0  0  0  0  0  0  0  0  0  0  0  0
    2.3569    1.2043   -0.0948 O   0  0  0  0  0  0  0  0  0  0  0  0
    0.0133    1.4579   -0.1124 C   0  0  0  0  0  0  0  0  0  0  0  0
   -1.1697    0.8216   -0.0728 C   0  0  0  0  0  0  0  0  0  0  0  0
   -0.0336    2.9485   -0.1597 C   0  0  0  0  0  0  0  0  0  0  0  0
   -1.0976    3.5607   -0.1015 O   0  0  0  0  0  0  0  0  0  0  0  0
    1.1751    3.5923   -0.2671 N   0  0  0  0  0  0  0  0  0  0  0  0
    1.2804    5.0467   -0.3491 C   0  0  0  0  0  0  0  0  0  0  0  0
    1.2058    5.6949    1.0434 C   0  0  0  0  0  0  0  0  0  0  0  0
    2.5460    5.8174    1.7657 C   0  0  0  0  0  0  0  0  0  0  0  0
    3.2741    7.1196    1.4318 C   0  0  0  0  0  0  0  0  0  0  0  0
    3.8447    7.2217    0.0192 C   0  0  0  0  0  0  0  0  0  0  0  0
    2.8791    6.9017   -1.1206 C   0  0  0  0  0  0  0  0  0  0  0  0
    2.5097    5.4216   -1.1828 C   0  0  0  0  0  0  0  0  0  0  0  0
   -2.2493   -1.0394    0.0324 H   0  0  0  0  0  0  0  0  0  0  0  0
   -1.3614   -3.1343    0.3669 H   0  0  0  0  0  0  0  0  0  0  0  0
    0.2196   -3.2363    1.1004 H   0  0  0  0  0  0  0  0  0  0  0  0
    0.0402   -3.3772   -0.6729 H   0  0  0  0  0  0  0  0  0  0  0  0
    2.1134   -2.3398    1.0140 H   0  0  0  0  0  0  0  0  0  0  0  0
    3.0205   -0.8858    0.8958 H   0  0  0  0  0  0  0  0  0  0  0  0
    2.4331   -4.1146   -0.6222 H   0  0  0  0  0  0  0  0  0  0  0  0
    4.0638   -5.0673   -2.2230 H   0  0  0  0  0  0  0  0  0  0  0  0
    5.6723   -1.1732   -2.9654 H   0  0  0  0  0  0  0  0  0  0  0  0
    4.0677   -0.1797   -1.3632 H   0  0  0  0  0  0  0  0  0  0  0  0
   -2.1095    1.3723   -0.0747 H   0  0  0  0  0  0  0  0  0  0  0  0
    2.0249    3.0294   -0.2153 H   0  0  0  0  0  0  0  0  0  0  0  0
    0.3928    5.3883   -0.8982 H   0  0  0  0  0  0  0  0  0  0  0  0
    0.5134    5.1258    1.6768 H   0  0  0  0  0  0  0  0  0  0  0  0
    0.7581    6.6922    0.9445 H   0  0  0  0  0  0  0  0  0  0  0  0
    3.1855    4.9479    1.5768 H   0  0  0  0  0  0  0  0  0  0  0  0
    2.3452    5.8253    2.8448 H   0  0  0  0  0  0  0  0  0  0  0  0
    4.1049    7.2409    2.1386 H   0  0  0  0  0  0  0  0  0  0  0  0
    2.6021    7.9685    1.6107 H   0  0  0  0  0  0  0  0  0  0  0  0
    4.7246    6.5710   -0.0595 H   0  0  0  0  0  0  0  0  0  0  0  0
    4.2132    8.2459   -0.1208 H   0  0  0  0  0  0  0  0  0  0  0  0
    3.3843    7.1609   -2.0595 H   0  0  0  0  0  0  0  0  0  0  0  0
    1.9845    7.5333   -1.0674 H   0  0  0  0  0  0  0  0  0  0  0  0
    2.2969    5.1547   -2.2268 H   0  0  0  0  0  0  0  0  0  0  0  0
    3.3747    4.8078   -0.8992 H   0  0  0  0  0  0  0  0  0  0  0  0
  1 16  1  0  0  0  0
  1  2  2  0  0  0  0
  1 27  1  0  0  0  0
  2  3  1  0  0  0  0
  2  4  1  0  0  0  0
  3 28  1  0  0  0  0
  3 29  1  0  0  0  0
  3 30  1  0  0  0  0
  4  5  1  0  0  0  0
  4 13  1  0  0  0  0
  5  6  1  0  0  0  0
  5 31  1  0  0  0  0
  5 32  1  0  0  0  0
  6 11  2  0  0  0  0
  6  7  1  0  0  0  0
  7  8  2  0  0  0  0
  7 33  1  0  0  0  0
  8  9  1  0  0  0  0
  8 34  1  0  0  0  0
  9 10  2  0  0  0  0
  9 12  1  0  0  0  0
 10 11  1  0  0  0  0
 10 35  1  0  0  0  0
 11 36  1  0  0  0  0
 13 14  2  0  0  0  0
 13 15  1  0  0  0  0
 15 16  2  0  0  0  0
 15 17  1  0  0  0  0
 16 37  1  0  0  0  0
 17 18  2  0  0  0  0
 17 19  1  0  0  0  0
 19 20  1  0  0  0  0
 19 38  1  0  0  0  0
 20 26  1  0  0  0  0
 20 21  1  0  0  0  0
 20 39  1  0  0  0  0
 21 22  1  0  0  0  0
 21 40  1  0  0  0  0
 21 41  1  0  0  0  0
 22 23  1  0  0  0  0
 22 42  1  0  0  0  0
 22 43  1  0  0  0  0
 23 24  1  0  0  0  0
 23 44  1  0  0  0  0
 23 45  1  0  0  0  0
 24 25  1  0  0  0  0
 24 46  1  0  0  0  0
 24 47  1  0  0  0  0
 25 26  1  0  0  0  0
 25 48  1  0  0  0  0
 25 49  1  0  0  0  0
 26 50  1  0  0  0  0
 26 51  1  0  0  0  0
M  END
$$$$
CHEMBL2163949_6PT0
 OpenBabel12022418123D

 53 57  0  0  1  0  0  0  0  0999 V2000
    2.4613   -0.0815    1.4339 O   0  0  0  0  0  0  0  0  0  0  0  0
    2.2252   -0.0221    0.2317 C   0  0  0  0  0  0  0  0  0  0  0  0
    2.8879   -0.9534   -0.7397 C   0  0  0  0  0  0  0  0  0  0  0  0
    3.7985   -1.8378   -0.2930 C   0  0  0  0  0  0  0  0  0  0  0  0
    4.5486   -2.7276   -1.0584 N   0  0  0  0  0  0  0  0  0  0  0  0
    4.3002   -2.8203   -2.4355 C   0  0  0  0  0  0  0  0  0  0  0  0
    4.9903   -3.7042   -3.2688 C   0  0  0  0  0  0  0  0  0  0  0  0
    6.0236   -4.4925   -2.8635 O   0  0  0  0  0  0  0  0  0  0  0  0
    6.2396   -4.6051   -1.4601 C   0  0  0  0  0  0  0  0  0  0  0  0
    5.6625   -3.5307   -0.5125 C   0  0  1  0  0  0  0  0  0  0  0  0
    6.7636   -2.6282    0.0397 C   0  0  0  0  0  0  0  0  0  0  0  0
    7.3876   -1.6696   -0.7752 C   0  0  0  0  0  0  0  0  0  0  0  0
    8.3269   -0.7858   -0.2419 C   0  0  0  0  0  0  0  0  0  0  0  0
    8.6781   -0.8685    1.1046 C   0  0  0  0  0  0  0  0  0  0  0  0
    8.1060   -1.8465    1.9130 C   0  0  0  0  0  0  0  0  0  0  0  0
    7.1568   -2.7243    1.3866 C   0  0  0  0  0  0  0  0  0  0  0  0
    4.6734   -3.8054   -4.6311 C   0  0  0  0  0  0  0  0  0  0  0  0
    3.6831   -3.0078   -5.1939 C   0  0  0  0  0  0  0  0  0  0  0  0
    3.0116   -2.0881   -4.3942 C   0  0  0  0  0  0  0  0  0  0  0  0
    3.3232   -1.9934   -3.0322 C   0  0  0  0  0  0  0  0  0  0  0  0
    2.6241   -0.9699   -2.2077 C   0  0  0  0  0  0  0  0  0  0  0  0
    1.8580   -0.1680   -2.7302 O   0  0  0  0  0  0  0  0  0  0  0  0
    1.3489    0.8889   -0.3159 N   0  0  0  0  0  0  0  0  0  0  0  0
    0.5922    1.8731    0.4555 C   0  0  0  0  0  0  0  0  0  0  0  0
    1.3880    3.1729    0.6429 C   0  0  0  0  0  0  0  0  0  0  0  0
    0.5857    4.2055    1.4372 C   0  0  0  0  0  0  0  0  0  0  0  0
   -0.7780    4.4823    0.8095 C   0  0  0  0  0  0  0  0  0  0  0  0
   -1.5630    3.1935    0.5822 C   0  0  0  0  0  0  0  0  0  0  0  0
   -0.7551    2.1750   -0.2212 C   0  0  0  0  0  0  0  0  0  0  0  0
    4.0308   -1.8947    0.7677 H   0  0  0  0  0  0  0  0  0  0  0  0
    7.3272   -4.6737   -1.3339 H   0  0  0  0  0  0  0  0  0  0  0  0
    5.8553   -5.5867   -1.1583 H   0  0  0  0  0  0  0  0  0  0  0  0
    5.2530   -4.0835    0.3452 H   0  0  0  0  0  0  0  0  0  0  0  0
    7.1228   -1.5883   -1.8284 H   0  0  0  0  0  0  0  0  0  0  0  0
    8.7708   -0.0220   -0.8734 H   0  0  0  0  0  0  0  0  0  0  0  0
    9.3949   -0.1662    1.5223 H   0  0  0  0  0  0  0  0  0  0  0  0
    8.3882   -1.9139    2.9627 H   0  0  0  0  0  0  0  0  0  0  0  0
    6.7132   -3.4683    2.0437 H   0  0  0  0  0  0  0  0  0  0  0  0
    5.2096   -4.5190   -5.2540 H   0  0  0  0  0  0  0  0  0  0  0  0
    3.4418   -3.0970   -6.2518 H   0  0  0  0  0  0  0  0  0  0  0  0
    2.2519   -1.4465   -4.8342 H   0  0  0  0  0  0  0  0  0  0  0  0
    1.3103    0.9420   -1.3359 H   0  0  0  0  0  0  0  0  0  0  0  0
    0.3935    1.4427    1.4458 H   0  0  0  0  0  0  0  0  0  0  0  0
    1.6586    3.5908   -0.3336 H   0  0  0  0  0  0  0  0  0  0  0  0
    2.3300    2.9679    1.1658 H   0  0  0  0  0  0  0  0  0  0  0  0
    1.1535    5.1414    1.5098 H   0  0  0  0  0  0  0  0  0  0  0  0
    0.4443    3.8405    2.4603 H   0  0  0  0  0  0  0  0  0  0  0  0
   -0.6435    5.0018   -0.1467 H   0  0  0  0  0  0  0  0  0  0  0  0
   -1.3516    5.1533    1.4596 H   0  0  0  0  0  0  0  0  0  0  0  0
   -2.5020    3.4209    0.0625 H   0  0  0  0  0  0  0  0  0  0  0  0
   -1.8352    2.7576    1.5516 H   0  0  0  0  0  0  0  0  0  0  0  0
   -1.3369    1.2512   -0.3279 H   0  0  0  0  0  0  0  0  0  0  0  0
   -0.5905    2.5582   -1.2359 H   0  0  0  0  0  0  0  0  0  0  0  0
  1  2  2  0  0  0  0
  2  3  1  0  0  0  0
  2 23  1  0  0  0  0
  3 21  1  0  0  0  0
  3  4  2  0  0  0  0
  4  5  1  0  0  0  0
  4 30  1  0  0  0  0
  5 10  1  0  0  0  0
  5  6  1  0  0  0  0
  6 20  2  0  0  0  0
  6  7  1  0  0  0  0
  7  8  1  0  0  0  0
  7 17  2  0  0  0  0
  8  9  1  0  0  0  0
  9 10  1  0  0  0  0
  9 31  1  0  0  0  0
  9 32  1  0  0  0  0
 10 11  1  0  0  0  0
 10 33  1  1  0  0  0
 11 16  2  0  0  0  0
 11 12  1  0  0  0  0
 12 13  2  0  0  0  0
 12 34  1  0  0  0  0
 13 14  1  0  0  0  0
 13 35  1  0  0  0  0
 14 15  2  0  0  0  0
 14 36  1  0  0  0  0
 15 16  1  0  0  0  0
 15 37  1  0  0  0  0
 16 38  1  0  0  0  0
 17 18  1  0  0  0  0
 17 39  1  0  0  0  0
 18 19  2  0  0  0  0
 18 40  1  0  0  0  0
 19 20  1  0  0  0  0
 19 41  1  0  0  0  0
 20 21  1  0  0  0  0
 21 22  2  0  0  0  0
 23 24  1  0  0  0  0
 23 42  1  0  0  0  0
 24 29  1  0  0  0  0
 24 25  1  0  0  0  0
 24 43  1  0  0  0  0
 25 26  1  0  0  0  0
 25 44  1  0  0  0  0
 25 45  1  0  0  0  0
 26 27  1  0  0  0  0
 26 46  1  0  0  0  0
 26 47  1  0  0  0  0
 27 28  1  0  0  0  0
 27 48  1  0  0  0  0
 27 49  1  0  0  0  0
 28 29  1  0  0  0  0
 28 50  1  0  0  0  0
 28 51  1  0  0  0  0
 29 52  1  0  0  0  0
 29 53  1  0  0  0  0
M  END
$$$$
CHEMBL3354399_6PT0
 OpenBabel12022418123D

 47 51  0  0  0  0  0  0  0  0999 V2000
   -3.9969   -0.3643    4.5781 C   0  0  0  0  0  0  0  0  0  0  0  0
   -4.8204    0.4742    3.8301 C   0  0  0  0  0  0  0  0  0  0  0  0
   -4.4616    0.8211    2.5293 C   0  0  0  0  0  0  0  0  0  0  0  0
   -3.3061    0.2746    1.9570 C   0  0  0  0  0  0  0  0  0  0  0  0
   -2.4539   -0.5204    2.7331 C   0  0  0  0  0  0  0  0  0  0  0  0
   -2.8016   -0.8427    4.0415 C   0  0  0  0  0  0  0  0  0  0  0  0
   -2.9360    0.5343    0.5506 C   0  0  0  0  0  0  0  0  0  0  0  0
   -1.7326    0.6233    0.2990 O   0  0  0  0  0  0  0  0  0  0  0  0
   -3.8407    0.6601   -0.5277 N   0  0  0  0  0  0  0  0  0  0  0  0
   -5.1447    0.1456   -0.6358 C   0  0  0  0  0  0  0  0  0  0  0  0
   -5.8930   -0.7140    0.1962 C   0  0  0  0  0  0  0  0  0  0  0  0
   -7.2418   -0.9374   -0.0996 C   0  0  0  0  0  0  0  0  0  0  0  0
   -7.8244   -0.3772   -1.2266 C   0  0  0  0  0  0  0  0  0  0  0  0
   -7.0541    0.3720   -2.1201 C   0  0  0  0  0  0  0  0  0  0  0  0
   -5.6957    0.6274   -1.8336 C   0  0  0  0  0  0  0  0  0  0  0  0
   -4.6656    1.3160   -2.5134 C   0  0  0  0  0  0  0  0  0  0  0  0
   -3.5693    1.3814   -1.6783 C   0  0  0  0  0  0  0  0  0  0  0  0
   -2.4677    2.1151   -1.9269 N   0  0  0  0  0  0  0  0  0  0  0  0
   -2.5283    2.7447   -3.1073 C   0  0  0  0  0  0  0  0  0  0  0  0
   -3.5391    2.6360   -4.0064 N   0  0  0  0  0  0  0  0  0  0  0  0
   -4.6330    1.9250   -3.7256 N   0  0  0  0  0  0  0  0  0  0  0  0
   -1.2242    3.9191   -3.3888 S   0  0  0  0  0  0  0  0  0  0  0  0
   -1.3843    4.1666   -5.1772 C   0  0  0  0  0  0  0  0  0  0  0  0
   -0.3563    5.1662   -5.6574 C   0  0  0  0  0  0  0  0  0  0  0  0
    0.9144    4.6985   -6.0396 C   0  0  0  0  0  0  0  0  0  0  0  0
    1.9209    5.5844   -6.4377 C   0  0  0  0  0  0  0  0  0  0  0  0
    1.6890    6.9590   -6.4476 C   0  0  0  0  0  0  0  0  0  0  0  0
    0.4469    7.4549   -6.0599 C   0  0  0  0  0  0  0  0  0  0  0  0
   -0.5616    6.5591   -5.6734 C   0  0  0  0  0  0  0  0  0  0  0  0
   -1.8441    7.1366   -5.3049 N   0  3  0  0  0  0  0  0  0  0  0  0
   -2.8267    6.8089   -5.9849 O   0  0  0  0  0  0  0  0  0  0  0  0
   -1.8535    7.9477   -4.3709 O   0  5  0  0  0  0  0  0  0  0  0  0
   -4.2807   -0.6417    5.5944 H   0  0  0  0  0  0  0  0  0  0  0  0
   -5.7443    0.8544    4.2597 H   0  0  0  0  0  0  0  0  0  0  0  0
   -5.1077    1.4949    1.9671 H   0  0  0  0  0  0  0  0  0  0  0  0
   -1.5171   -0.8908    2.3155 H   0  0  0  0  0  0  0  0  0  0  0  0
   -2.1439   -1.4666    4.6390 H   0  0  0  0  0  0  0  0  0  0  0  0
   -5.4656   -1.1892    1.0742 H   0  0  0  0  0  0  0  0  0  0  0  0
   -7.8401   -1.5529    0.5698 H   0  0  0  0  0  0  0  0  0  0  0  0
   -8.8819   -0.5359   -1.4257 H   0  0  0  0  0  0  0  0  0  0  0  0
   -7.5086    0.7803   -3.0202 H   0  0  0  0  0  0  0  0  0  0  0  0
   -2.3966    4.4814   -5.4383 H   0  0  0  0  0  0  0  0  0  0  0  0
   -1.2206    3.2069   -5.6813 H   0  0  0  0  0  0  0  0  0  0  0  0
    1.1364    3.6320   -6.0157 H   0  0  0  0  0  0  0  0  0  0  0  0
    2.8945    5.1975   -6.7316 H   0  0  0  0  0  0  0  0  0  0  0  0
    2.4786    7.6416   -6.7531 H   0  0  0  0  0  0  0  0  0  0  0  0
    0.2701    8.5286   -6.0617 H   0  0  0  0  0  0  0  0  0  0  0  0
  1  6  2  0  0  0  0
  1  2  1  0  0  0  0
  1 33  1  0  0  0  0
  2  3  2  0  0  0  0
  2 34  1  0  0  0  0
  3  4  1  0  0  0  0
  3 35  1  0  0  0  0
  4  5  2  0  0  0  0
  4  7  1  0  0  0  0
  5  6  1  0  0  0  0
  5 36  1  0  0  0  0
  6 37  1  0  0  0  0
  7  8  2  0  0  0  0
  7  9  1  0  0  0  0
  9 17  1  0  0  0  0
  9 10  1  0  0  0  0
 10 15  2  0  0  0  0
 10 11  1  0  0  0  0
 11 12  2  0  0  0  0
 11 38  1  0  0  0  0
 12 13  1  0  0  0  0
 12 39  1  0  0  0  0
 13 14  2  0  0  0  0
 13 40  1  0  0  0  0
 14 15  1  0  0  0  0
 14 41  1  0  0  0  0
 15 16  1  0  0  0  0
 16 21  2  0  0  0  0
 16 17  1  0  0  0  0
 17 18  2  0  0  0  0
 18 19  1  0  0  0  0
 19 20  2  0  0  0  0
 19 22  1  0  0  0  0
 20 21  1  0  0  0  0
 22 23  1  0  0  0  0
 23 24  1  0  0  0  0
 23 42  1  0  0  0  0
 23 43  1  0  0  0  0
 24 29  2  0  0  0  0
 24 25  1  0  0  0  0
 25 26  2  0  0  0  0
 25 44  1  0  0  0  0
 26 27  1  0  0  0  0
 26 45  1  0  0  0  0
 27 28  2  0  0  0  0
 27 46  1  0  0  0  0
 28 29  1  0  0  0  0
 28 47  1  0  0  0  0
 29 30  1  0  0  0  0
 30 31  2  0  0  0  0
 30 32  1  0  0  0  0
M  CHG  2  30   1  32  -1
M  END
$$$$
CHEMBL526153_5ZTY
 OpenBabel12022418123D

 56 60  0  0  1  0  0  0  0  0999 V2000
    3.4477   -6.4715   -1.3560 C   0  0  0  0  0  0  0  0  0  0  0  0
    4.6519   -6.0614   -0.9293 C   0  0  0  0  0  0  0  0  0  0  0  0
    4.9003   -4.7619   -0.2038 C   0  0  0  0  0  0  0  0  0  0  0  0
    5.4371   -4.9693    1.2326 C   0  0  0  0  0  0  0  0  0  0  0  0
    5.6091   -3.6970    1.9818 N   0  0  0  0  0  0  0  0  0  0  0  0
    6.8342   -3.3218    2.5500 C   0  0  0  0  0  0  0  0  0  0  0  0
    7.1169   -2.1407    3.1328 C   0  0  0  0  0  0  0  0  0  0  0  0
    8.4408   -1.9454    3.8056 C   0  0  0  0  0  0  0  0  0  0  0  0
    9.1450   -2.9221    4.0541 O   0  0  0  0  0  0  0  0  0  0  0  0
    8.7880   -0.6495    4.1524 N   0  0  0  0  0  0  0  0  0  0  0  0
    9.9910   -0.2949    4.9385 C   0  0  2  0  0  0  0  0  0  0  0  0
   10.1331    1.2503    5.1087 C   0  0  0  0  0  0  0  0  0  0  0  0
   11.3969    1.6039    5.9340 C   0  0  1  0  0  0  0  0  0  0  0  0
   11.3082    0.9570    7.3261 C   0  0  0  0  0  0  0  0  0  0  0  0
   11.1645   -0.5656    7.1827 C   0  0  2  0  0  0  0  0  0  0  0  0
   12.3922   -1.1256    6.4466 C   0  0  0  0  0  0  0  0  0  0  0  0
   12.5306   -0.4630    5.0651 C   0  0  2  0  0  0  0  0  0  0  0  0
   12.6488    1.0591    5.2273 C   0  0  0  0  0  0  0  0  0  0  0  0
   11.2824   -0.7839    4.2304 C   0  0  0  0  0  0  0  0  0  0  0  0
    9.9003   -0.8867    6.3686 C   0  0  0  0  0  0  0  0  0  0  0  0
    6.0425   -1.1217    3.1044 C   0  0  0  0  0  0  0  0  0  0  0  0
    6.2577    0.0474    3.4074 O   0  0  0  0  0  0  0  0  0  0  0  0
    4.6726   -1.5802    2.7470 C   0  0  0  0  0  0  0  0  0  0  0  0
    3.5959   -0.7037    2.9412 C   0  0  0  0  0  0  0  0  0  0  0  0
    2.3025   -1.1423    2.6825 C   0  0  0  0  0  0  0  0  0  0  0  0
    2.0738   -2.4468    2.2640 C   0  0  0  0  0  0  0  0  0  0  0  0
    3.1542   -3.3134    2.0667 C   0  0  0  0  0  0  0  0  0  0  0  0
    4.4827   -2.8877    2.2530 C   0  0  0  0  0  0  0  0  0  0  0  0
    0.8444    0.0340    2.9216 Br  0  0  0  0  0  0  0  0  0  0  0  0
    3.3374   -7.4041   -1.9003 H   0  0  0  0  0  0  0  0  0  0  0  0
    2.5463   -5.8873   -1.1903 H   0  0  0  0  0  0  0  0  0  0  0  0
    5.5222   -6.6790   -1.1445 H   0  0  0  0  0  0  0  0  0  0  0  0
    3.9747   -4.1794   -0.2088 H   0  0  0  0  0  0  0  0  0  0  0  0
    5.6179   -4.1669   -0.7813 H   0  0  0  0  0  0  0  0  0  0  0  0
    6.4069   -5.4788    1.1496 H   0  0  0  0  0  0  0  0  0  0  0  0
    4.7937   -5.6529    1.8008 H   0  0  0  0  0  0  0  0  0  0  0  0
    7.5797   -4.1108    2.5156 H   0  0  0  0  0  0  0  0  0  0  0  0
    8.0922    0.0768    3.9788 H   0  0  0  0  0  0  0  0  0  0  0  0
    9.2466    1.6629    5.6084 H   0  0  0  0  0  0  0  0  0  0  0  0
   10.1892    1.7397    4.1271 H   0  0  0  0  0  0  0  0  0  0  0  0
   11.4835    2.6913    6.0417 H   0  0  0  0  0  0  0  0  0  0  0  0
   10.4577    1.3695    7.8814 H   0  0  0  0  0  0  0  0  0  0  0  0
   12.2091    1.1912    7.9093 H   0  0  0  0  0  0  0  0  0  0  0  0
   11.0886   -1.0226    8.1759 H   0  0  0  0  0  0  0  0  0  0  0  0
   12.2930   -2.2121    6.3315 H   0  0  0  0  0  0  0  0  0  0  0  0
   13.2978   -0.9498    7.0397 H   0  0  0  0  0  0  0  0  0  0  0  0
   13.4227   -0.8487    4.5589 H   0  0  0  0  0  0  0  0  0  0  0  0
   13.5486    1.3032    5.8063 H   0  0  0  0  0  0  0  0  0  0  0  0
   12.7647    1.5360    4.2466 H   0  0  0  0  0  0  0  0  0  0  0  0
   11.3652   -0.3116    3.2421 H   0  0  0  0  0  0  0  0  0  0  0  0
   11.2588   -1.8624    4.0502 H   0  0  0  0  0  0  0  0  0  0  0  0
    9.7627   -1.9737    6.3362 H   0  0  0  0  0  0  0  0  0  0  0  0
    9.0182   -0.4816    6.8832 H   0  0  0  0  0  0  0  0  0  0  0  0
    3.7756    0.3074    3.2983 H   0  0  0  0  0  0  0  0  0  0  0  0
    1.0619   -2.8069    2.0822 H   0  0  0  0  0  0  0  0  0  0  0  0
    2.9246   -4.3326    1.7644 H   0  0  0  0  0  0  0  0  0  0  0  0
  1  2  2  0  0  0  0
  1 30  1  0  0  0  0
  1 31  1  0  0  0  0
  2  3  1  0  0  0  0
  2 32  1  0  0  0  0
  3  4  1  0  0  0  0
  3 33  1  0  0  0  0
  3 34  1  0  0  0  0
  4  5  1  0  0  0  0
  4 35  1  0  0  0  0
  4 36  1  0  0  0  0
  5 28  1  0  0  0  0
  5  6  1  0  0  0  0
  6  7  2  0  0  0  0
  6 37  1  0  0  0  0
  7  8  1  0  0  0  0
  7 21  1  0  0  0  0
  8  9  2  0  0  0  0
  8 10  1  0  0  0  0
 10 38  1  0  0  0  0
 11 10  1  6  0  0  0
 11 19  1  0  0  0  0
 11 20  1  0  0  0  0
 11 12  1  0  0  0  0
 12 39  1  0  0  0  0
 12 40  1  0  0  0  0
 13 12  1  0  0  0  0
 13 14  1  0  0  0  0
 13 18  1  0  0  0  0
 13 41  1  1  0  0  0
 14 42  1  0  0  0  0
 14 43  1  0  0  0  0
 15 14  1  0  0  0  0
 15 16  1  0  0  0  0
 15 20  1  0  0  0  0
 15 44  1  1  0  0  0
 16 45  1  0  0  0  0
 16 46  1  0  0  0  0
 17 16  1  0  0  0  0
 17 18  1  0  0  0  0
 17 19  1  0  0  0  0
 17 47  1  6  0  0  0
 18 48  1  0  0  0  0
 18 49  1  0  0  0  0
 19 50  1  0  0  0  0
 19 51  1  0  0  0  0
 20 52  1  0  0  0  0
 20 53  1  0  0  0  0
 21 22  2  0  0  0  0
 21 23  1  0  0  0  0
 23 28  2  0  0  0  0
 23 24  1  0  0  0  0
 24 25  2  0  0  0  0
 24 54  1  0  0  0  0
 25 26  1  0  0  0  0
 25 29  1  0  0  0  0
 26 27  2  0  0  0  0
 26 55  1  0  0  0  0
 27 28  1  0  0  0  0
 27 56  1  0  0  0  0
M  END
$$$$
CHEMBL456535_5ZTY
 OpenBabel12022418123D

 44 47  0  0  0  0  0  0  0  0999 V2000
    3.9719    1.1798   -3.2562 O   0  0  0  0  0  0  0  0  0  0  0  0
    3.5762    1.0565   -2.0966 C   0  0  0  0  0  0  0  0  0  0  0  0
    2.2285    0.4088   -1.9495 C   0  0  0  0  0  0  0  0  0  0  0  0
    1.5953    0.0051   -3.1504 C   0  0  0  0  0  0  0  0  0  0  0  0
    0.2803   -0.4580   -3.1717 C   0  0  0  0  0  0  0  0  0  0  0  0
   -0.4205   -0.5627   -1.9786 C   0  0  0  0  0  0  0  0  0  0  0  0
    0.2162   -0.2575   -0.7718 C   0  0  0  0  0  0  0  0  0  0  0  0
    1.5425    0.2128   -0.7484 C   0  0  0  0  0  0  0  0  0  0  0  0
    4.2912    1.5194   -0.9872 N   0  0  0  0  0  0  0  0  0  0  0  0
    5.6263    2.0968   -1.0367 N   0  0  0  0  0  0  0  0  0  0  0  0
    6.4922    1.4987   -1.8193 C   0  0  0  0  0  0  0  0  0  0  0  0
    6.2212    0.2360   -2.6324 C   0  0  0  0  0  0  0  0  0  0  0  0
    5.8001   -0.7960   -2.1424 O   0  0  0  0  0  0  0  0  0  0  0  0
    7.0075    0.3996   -3.7717 N   0  0  0  0  0  0  0  0  0  0  0  0
    6.4979    1.5543   -4.6267 C   0  0  0  0  0  0  0  0  0  0  0  0
    5.8430    1.1650   -5.9142 C   0  0  0  0  0  0  0  0  0  0  0  0
    5.7563    2.1144   -6.9490 C   0  0  0  0  0  0  0  0  0  0  0  0
    5.0899    1.8025   -8.1311 C   0  0  0  0  0  0  0  0  0  0  0  0
    4.4894    0.5571   -8.2716 C   0  0  0  0  0  0  0  0  0  0  0  0
    4.5498   -0.3827   -7.2364 C   0  0  0  0  0  0  0  0  0  0  0  0
    5.2156   -0.0724   -6.0624 C   0  0  0  0  0  0  0  0  0  0  0  0
    8.1942    0.8443   -3.1511 C   0  0  0  0  0  0  0  0  0  0  0  0
    7.9296    1.8025   -2.1616 C   0  0  0  0  0  0  0  0  0  0  0  0
    8.9614    2.6680   -1.8619 C   0  0  0  0  0  0  0  0  0  0  0  0
   10.2620    2.3185   -2.3192 C   0  0  0  0  0  0  0  0  0  0  0  0
   10.5106    1.1128   -3.0093 C   0  0  0  0  0  0  0  0  0  0  0  0
    9.4451    0.3775   -3.4821 C   0  0  0  0  0  0  0  0  0  0  0  0
    2.1273    0.0718   -4.1000 H   0  0  0  0  0  0  0  0  0  0  0  0
   -0.1901   -0.7158   -4.1184 H   0  0  0  0  0  0  0  0  0  0  0  0
   -1.4575   -0.8883   -1.9914 H   0  0  0  0  0  0  0  0  0  0  0  0
   -0.3373   -0.3791    0.1569 H   0  0  0  0  0  0  0  0  0  0  0  0
    2.0024    0.4212    0.2109 H   0  0  0  0  0  0  0  0  0  0  0  0
    3.7821    1.7712   -0.1520 H   0  0  0  0  0  0  0  0  0  0  0  0
    7.3384    2.2237   -4.8698 H   0  0  0  0  0  0  0  0  0  0  0  0
    5.7871    2.1876   -4.0787 H   0  0  0  0  0  0  0  0  0  0  0  0
    6.1920    3.1065   -6.8355 H   0  0  0  0  0  0  0  0  0  0  0  0
    5.0179    2.5388   -8.9294 H   0  0  0  0  0  0  0  0  0  0  0  0
    3.9616    0.3067   -9.1828 H   0  0  0  0  0  0  0  0  0  0  0  0
    4.0636   -1.3413   -7.3382 H   0  0  0  0  0  0  0  0  0  0  0  0
    5.2201   -0.7908   -5.2417 H   0  0  0  0  0  0  0  0  0  0  0  0
    8.8128    3.5933   -1.3176 H   0  0  0  0  0  0  0  0  0  0  0  0
   11.1122    2.9691   -2.1192 H   0  0  0  0  0  0  0  0  0  0  0  0
   11.5241    0.7749   -3.2163 H   0  0  0  0  0  0  0  0  0  0  0  0
    9.5610   -0.5332   -4.0612 H   0  0  0  0  0  0  0  0  0  0  0  0
  1  2  2  0  0  0  0
  2  3  1  0  0  0  0
  2  9  1  0  0  0  0
  3  8  2  0  0  0  0
  3  4  1  0  0  0  0
  4  5  2  0  0  0  0
  4 28  1  0  0  0  0
  5  6  1  0  0  0  0
  5 29  1  0  0  0  0
  6  7  2  0  0  0  0
  6 30  1  0  0  0  0
  7  8  1  0  0  0  0
  7 31  1  0  0  0  0
  8 32  1  0  0  0  0
  9 10  1  0  0  0  0
  9 33  1  0  0  0  0
 10 11  2  0  0  0  0
 11 23  1  0  0  0  0
 11 12  1  0  0  0  0
 12 13  2  0  0  0  0
 12 14  1  0  0  0  0
 14 15  1  0  0  0  0
 14 22  1  0  0  0  0
 15 16  1  0  0  0  0
 15 34  1  0  0  0  0
 15 35  1  0  0  0  0
 16 21  2  0  0  0  0
 16 17  1  0  0  0  0
 17 18  2  0  0  0  0
 17 36  1  0  0  0  0
 18 19  1  0  0  0  0
 18 37  1  0  0  0  0
 19 20  2  0  0  0  0
 19 38  1  0  0  0  0
 20 21  1  0  0  0  0
 20 39  1  0  0  0  0
 21 40  1  0  0  0  0
 22 27  2  0  0  0  0
 22 23  1  0  0  0  0
 23 24  2  0  0  0  0
 24 25  1  0  0  0  0
 24 41  1  0  0  0  0
 25 26  2  0  0  0  0
 25 42  1  0  0  0  0
 26 27  1  0  0  0  0
 26 43  1  0  0  0  0
 27 44  1  0  0  0  0
M  END
$$$$
CHEMBL498297_5ZTY
 OpenBabel12022418123D

 61 65  0  0  1  0  0  0  0  0999 V2000
    0.8299    4.7675    1.8424 C   0  0  0  0  0  0  0  0  0  0  0  0
    2.3492    4.7405    1.8313 C   0  0  0  0  0  0  0  0  0  0  0  0
    2.8901    3.3122    1.9014 C   0  0  0  0  0  0  0  0  0  0  0  0
    4.4212    3.3091    1.8937 C   0  0  0  0  0  0  0  0  0  0  0  0
    4.9849    1.8859    1.9434 C   0  0  0  0  0  0  0  0  0  0  0  0
    6.4627    1.9046    1.9559 N   0  0  0  0  0  0  0  0  0  0  0  0
    7.1930    1.8365    0.7735 C   0  0  0  0  0  0  0  0  0  0  0  0
    8.5285    1.8096    0.6278 C   0  0  0  0  0  0  0  0  0  0  0  0
    9.0807    1.6535   -0.7386 C   0  0  0  0  0  0  0  0  0  0  0  0
    8.2894    1.5309   -1.6784 O   0  0  0  0  0  0  0  0  0  0  0  0
   10.4602    1.6287   -0.9166 N   0  0  0  0  0  0  0  0  0  0  0  0
   11.0361    1.4535   -2.2718 C   0  0  2  0  0  0  0  0  0  0  0  0
   12.5990    1.4679   -2.3761 C   0  0  0  0  0  0  0  0  0  0  0  0
   13.0405    1.2775   -3.8681 C   0  0  1  0  0  0  0  0  0  0  0  0
   12.5070   -0.0572   -4.4198 C   0  0  0  0  0  0  0  0  0  0  0  0
   10.9798   -0.0943   -4.2906 C   0  0  2  0  0  0  0  0  0  0  0  0
   10.3453    1.0630   -5.0786 C   0  0  0  0  0  0  0  0  0  0  0  0
   10.9327    2.4098   -4.6272 C   0  0  2  0  0  0  0  0  0  0  0  0
   12.4599    2.3995   -4.7484 C   0  0  0  0  0  0  0  0  0  0  0  0
   10.5702    2.6383   -3.1632 C   0  0  0  0  0  0  0  0  0  0  0  0
   10.6165    0.0580   -2.8149 C   0  0  0  0  0  0  0  0  0  0  0  0
    9.3251    1.9107    1.8702 C   0  0  0  0  0  0  0  0  0  0  0  0
   10.5447    1.9304    1.8385 O   0  0  0  0  0  0  0  0  0  0  0  0
    8.5834    1.9786    3.1589 C   0  0  0  0  0  0  0  0  0  0  0  0
    9.3376    2.0302    4.3392 C   0  0  0  0  0  0  0  0  0  0  0  0
    8.6864    2.0436    5.5645 C   0  0  0  0  0  0  0  0  0  0  0  0
    7.2971    2.0234    5.6191 C   0  0  0  0  0  0  0  0  0  0  0  0
    6.5497    1.9979    4.4347 C   0  0  0  0  0  0  0  0  0  0  0  0
    7.1708    1.9626    3.1752 C   0  0  0  0  0  0  0  0  0  0  0  0
    9.6914    2.0830    7.1623 Br  0  0  0  0  0  0  0  0  0  0  0  0
    0.4699    5.7999    1.7896 H   0  0  0  0  0  0  0  0  0  0  0  0
    0.4367    4.3170    2.7593 H   0  0  0  0  0  0  0  0  0  0  0  0
    0.4213    4.2208    0.9867 H   0  0  0  0  0  0  0  0  0  0  0  0
    2.7248    5.3217    2.6815 H   0  0  0  0  0  0  0  0  0  0  0  0
    2.7106    5.2299    0.9193 H   0  0  0  0  0  0  0  0  0  0  0  0
    2.5122    2.7328    1.0501 H   0  0  0  0  0  0  0  0  0  0  0  0
    2.5233    2.8239    2.8126 H   0  0  0  0  0  0  0  0  0  0  0  0
    4.7890    3.8911    2.7466 H   0  0  0  0  0  0  0  0  0  0  0  0
    4.7818    3.8136    0.9888 H   0  0  0  0  0  0  0  0  0  0  0  0
    4.6306    1.3303    1.0653 H   0  0  0  0  0  0  0  0  0  0  0  0
    4.5756    1.3321    2.7956 H   0  0  0  0  0  0  0  0  0  0  0  0
    6.5468    1.7775   -0.1076 H   0  0  0  0  0  0  0  0  0  0  0  0
   11.0632    1.7196   -0.1011 H   0  0  0  0  0  0  0  0  0  0  0  0
   13.0416    0.6714   -1.7641 H   0  0  0  0  0  0  0  0  0  0  0  0
   13.0077    2.4130   -1.9965 H   0  0  0  0  0  0  0  0  0  0  0  0
   14.1339    1.2890   -3.9432 H   0  0  0  0  0  0  0  0  0  0  0  0
   12.9557   -0.8955   -3.8741 H   0  0  0  0  0  0  0  0  0  0  0  0
   12.7891   -0.1791   -5.4739 H   0  0  0  0  0  0  0  0  0  0  0  0
   10.5981   -1.0513   -4.6632 H   0  0  0  0  0  0  0  0  0  0  0  0
    9.2578    1.0629   -4.9221 H   0  0  0  0  0  0  0  0  0  0  0  0
   10.5132    0.9224   -6.1513 H   0  0  0  0  0  0  0  0  0  0  0  0
   10.5155    3.2200   -5.2353 H   0  0  0  0  0  0  0  0  0  0  0  0
   12.7431    2.2525   -5.7988 H   0  0  0  0  0  0  0  0  0  0  0  0
   12.8720    3.3683   -4.4426 H   0  0  0  0  0  0  0  0  0  0  0  0
   11.0354    3.5674   -2.8006 H   0  0  0  0  0  0  0  0  0  0  0  0
    9.4953    2.8195   -3.1020 H   0  0  0  0  0  0  0  0  0  0  0  0
    9.5479   -0.1353   -2.6968 H   0  0  0  0  0  0  0  0  0  0  0  0
   11.1162   -0.7262   -2.2255 H   0  0  0  0  0  0  0  0  0  0  0  0
   10.4237    2.0512    4.2920 H   0  0  0  0  0  0  0  0  0  0  0  0
    6.7810    2.0253    6.5757 H   0  0  0  0  0  0  0  0  0  0  0  0
    5.4679    2.0010    4.5410 H   0  0  0  0  0  0  0  0  0  0  0  0
  1  2  1  0  0  0  0
  1 31  1  0  0  0  0
  1 32  1  0  0  0  0
  1 33  1  0  0  0  0
  2  3  1  0  0  0  0
  2 34  1  0  0  0  0
  2 35  1  0  0  0  0
  3  4  1  0  0  0  0
  3 36  1  0  0  0  0
  3 37  1  0  0  0  0
  4  5  1  0  0  0  0
  4 38  1  0  0  0  0
  4 39  1  0  0  0  0
  5  6  1  0  0  0  0
  5 40  1  0  0  0  0
  5 41  1  0  0  0  0
  6 29  1  0  0  0  0
  6  7  1  0  0  0  0
  7  8  2  0  0  0  0
  7 42  1  0  0  0  0
  8  9  1  0  0  0  0
  8 22  1  0  0  0  0
  9 10  2  0  0  0  0
  9 11  1  0  0  0  0
 11 43  1  0  0  0  0
 12 11  1  1  0  0  0
 12 20  1  0  0  0  0
 12 21  1  0  0  0  0
 12 13  1  0  0  0  0
 13 44  1  0  0  0  0
 13 45  1  0  0  0  0
 14 13  1  0  0  0  0
 14 15  1  0  0  0  0
 14 19  1  0  0  0  0
 14 46  1  6  0  0  0
 15 47  1  0  0  0  0
 15 48  1  0  0  0  0
 16 15  1  0  0  0  0
 16 17  1  0  0  0  0
 16 21  1  0  0  0  0
 16 49  1  6  0  0  0
 17 50  1  0  0  0  0
 17 51  1  0  0  0  0
 18 17  1  0  0  0  0
 18 19  1  0  0  0  0
 18 20  1  0  0  0  0
 18 52  1  6  0  0  0
 19 53  1  0  0  0  0
 19 54  1  0  0  0  0
 20 55  1  0  0  0  0
 20 56  1  0  0  0  0
 21 57  1  0  0  0  0
 21 58  1  0  0  0  0
 22 23  2  0  0  0  0
 22 24  1  0  0  0  0
 24 29  2  0  0  0  0
 24 25  1  0  0  0  0
 25 26  2  0  0  0  0
 25 59  1  0  0  0  0
 26 27  1  0  0  0  0
 26 30  1  0  0  0  0
 27 28  2  0  0  0  0
 27 60  1  0  0  0  0
 28 29  1  0  0  0  0
 28 61  1  0  0  0  0
M  END
$$$$
CHEMBL199102_8GUT
 OpenBabel12022418123D

 55 57  0  0  1  0  0  0  0  0999 V2000
    3.0043    0.3636   -1.2003 C   0  0  0  0  0  0  0  0  0  0  0  0
    4.2637   -0.3878   -0.7405 C   0  0  1  0  0  0  0  0  0  0  0  0
    4.1610   -0.8680    0.6948 C   0  0  0  0  0  0  0  0  0  0  0  0
    5.3284   -0.9336    1.4730 C   0  0  0  0  0  0  0  0  0  0  0  0
    5.3219   -1.5554    2.7208 C   0  0  0  0  0  0  0  0  0  0  0  0
    4.1415   -2.1064    3.2347 C   0  0  0  0  0  0  0  0  0  0  0  0
    4.1720   -2.9452    4.4909 C   0  0  0  0  0  0  0  0  0  0  0  0
    4.1118   -2.1482    5.7728 C   0  0  0  0  0  0  0  0  0  0  0  0
    5.3536   -1.6742    6.2568 C   0  0  0  0  0  0  0  0  0  0  0  0
    5.4492   -0.8691    7.3899 C   0  0  0  0  0  0  0  0  0  0  0  0
    4.2996   -0.5036    8.0881 C   0  0  0  0  0  0  0  0  0  0  0  0
    4.3787    0.4261    9.2734 C   0  0  0  0  0  0  0  0  0  0  0  0
    5.6481    0.8355    9.5577 F   0  0  0  0  0  0  0  0  0  0  0  0
    3.6586    1.5663    9.0830 F   0  0  0  0  0  0  0  0  0  0  0  0
    3.9031   -0.1335   10.4184 F   0  0  0  0  0  0  0  0  0  0  0  0
    3.0619   -1.0060    7.6525 C   0  0  0  0  0  0  0  0  0  0  0  0
    2.9503   -1.8117    6.4957 C   0  0  0  0  0  0  0  0  0  0  0  0
    1.3162   -2.4927    6.1749 S   0  0  0  0  0  0  0  0  0  0  0  0
    1.4854   -3.7531    5.4734 O   0  0  0  0  0  0  0  0  0  0  0  0
    0.6179   -2.5033    7.4509 O   0  0  0  0  0  0  0  0  0  0  0  0
    0.3193   -1.4753    5.1308 C   0  0  0  0  0  0  0  0  0  0  0  0
   -0.7193   -2.0730    4.4000 C   0  0  0  0  0  0  0  0  0  0  0  0
   -1.6200   -1.2750    3.6894 C   0  0  0  0  0  0  0  0  0  0  0  0
   -1.4777    0.1124    3.7023 C   0  0  0  0  0  0  0  0  0  0  0  0
   -0.4210    0.6972    4.4018 C   0  0  0  0  0  0  0  0  0  0  0  0
    0.4773   -0.0994    5.1115 C   0  0  0  0  0  0  0  0  0  0  0  0
    1.4576    0.5051    5.7905 F   0  0  0  0  0  0  0  0  0  0  0  0
    2.9556   -1.9474    2.5122 C   0  0  0  0  0  0  0  0  0  0  0  0
    2.9670   -1.3471    1.2502 C   0  0  0  0  0  0  0  0  0  0  0  0
    4.5200   -1.4759   -1.7448 N   0  0  0  0  0  0  0  0  0  0  0  0
    5.8811   -2.4541   -1.4664 S   0  0  0  0  0  0  0  0  0  0  0  0
    7.0279   -1.5697   -1.4568 O   0  0  0  0  0  0  0  0  0  0  0  0
    5.6065   -3.3721   -0.3913 O   0  0  0  0  0  0  0  0  0  0  0  0
    5.9452   -3.4132   -2.9602 C   0  0  0  0  0  0  0  0  0  0  0  0
    2.6788    1.0980   -0.4554 H   0  0  0  0  0  0  0  0  0  0  0  0
    2.1696   -0.3206   -1.3947 H   0  0  0  0  0  0  0  0  0  0  0  0
    3.1978    0.8996   -2.1364 H   0  0  0  0  0  0  0  0  0  0  0  0
    5.0875    0.3350   -0.8131 H   0  0  0  0  0  0  0  0  0  0  0  0
    6.2794   -0.5880    1.0698 H   0  0  0  0  0  0  0  0  0  0  0  0
    6.2652   -1.6715    3.2487 H   0  0  0  0  0  0  0  0  0  0  0  0
    5.1071   -3.5256    4.4839 H   0  0  0  0  0  0  0  0  0  0  0  0
    3.4207   -3.7301    4.4315 H   0  0  0  0  0  0  0  0  0  0  0  0
    6.2758   -1.9325    5.7355 H   0  0  0  0  0  0  0  0  0  0  0  0
    6.4299   -0.5217    7.7133 H   0  0  0  0  0  0  0  0  0  0  0  0
    2.1687   -0.7514    8.2260 H   0  0  0  0  0  0  0  0  0  0  0  0
   -0.8582   -3.1529    4.4134 H   0  0  0  0  0  0  0  0  0  0  0  0
   -2.4450   -1.7326    3.1473 H   0  0  0  0  0  0  0  0  0  0  0  0
   -2.1988    0.7382    3.1791 H   0  0  0  0  0  0  0  0  0  0  0  0
   -0.3066    1.7776    4.4195 H   0  0  0  0  0  0  0  0  0  0  0  0
    2.0244   -2.3630    2.8842 H   0  0  0  0  0  0  0  0  0  0  0  0
    2.0373   -1.3179    0.6884 H   0  0  0  0  0  0  0  0  0  0  0  0
    4.5875   -1.0604   -2.6744 H   0  0  0  0  0  0  0  0  0  0  0  0
    6.1341   -2.7491   -3.8044 H   0  0  0  0  0  0  0  0  0  0  0  0
    5.0045   -3.9542   -3.0772 H   0  0  0  0  0  0  0  0  0  0  0  0
    6.7682   -4.1247   -2.8556 H   0  0  0  0  0  0  0  0  0  0  0  0
  1 35  1  0  0  0  0
  1 36  1  0  0  0  0
  1 37  1  0  0  0  0
  2  1  1  0  0  0  0
  2  3  1  0  0  0  0
  2 30  1  0  0  0  0
  2 38  1  6  0  0  0
  3 29  2  0  0  0  0
  3  4  1  0  0  0  0
  4  5  2  0  0  0  0
  4 39  1  0  0  0  0
  5  6  1  0  0  0  0
  5 40  1  0  0  0  0
  6  7  1  0  0  0  0
  6 28  2  0  0  0  0
  7  8  1  0  0  0  0
  7 41  1  0  0  0  0
  7 42  1  0  0  0  0
  8 17  2  0  0  0  0
  8  9  1  0  0  0  0
  9 10  2  0  0  0  0
  9 43  1  0  0  0  0
 10 11  1  0  0  0  0
 10 44  1  0  0  0  0
 11 12  1  0  0  0  0
 11 16  2  0  0  0  0
 12 13  1  0  0  0  0
 12 14  1  0  0  0  0
 12 15  1  0  0  0  0
 16 17  1  0  0  0  0
 16 45  1  0  0  0  0
 17 18  1  0  0  0  0
 18 19  2  0  0  0  0
 18 20  2  0  0  0  0
 18 21  1  0  0  0  0
 21 26  2  0  0  0  0
 21 22  1  0  0  0  0
 22 23  2  0  0  0  0
 22 46  1  0  0  0  0
 23 24  1  0  0  0  0
 23 47  1  0  0  0  0
 24 25  2  0  0  0  0
 24 48  1  0  0  0  0
 25 26  1  0  0  0  0
 25 49  1  0  0  0  0
 26 27  1  0  0  0  0
 28 29  1  0  0  0  0
 28 50  1  0  0  0  0
 29 51  1  0  0  0  0
 30 31  1  0  0  0  0
 30 52  1  0  0  0  0
 31 32  2  0  0  0  0
 31 33  2  0  0  0  0
 31 34  1  0  0  0  0
 34 53  1  0  0  0  0
 34 54  1  0  0  0  0
 34 55  1  0  0  0  0
M  END
$$$$
CHEMBL385940_6PT0
 OpenBabel12022418123D

 53 56  0  0  0  0  0  0  0  0999 V2000
    4.7190    3.5378    7.0702 C   0  0  0  0  0  0  0  0  0  0  0  0
    4.2538    2.3785    6.2074 C   0  0  0  0  0  0  0  0  0  0  0  0
    4.8825    2.4431    4.8167 C   0  0  0  0  0  0  0  0  0  0  0  0
    4.4173    1.2790    3.9414 C   0  0  0  0  0  0  0  0  0  0  0  0
    5.0498    1.3073    2.5478 C   0  0  0  0  0  0  0  0  0  0  0  0
    6.5001    1.1664    2.5262 N   0  0  0  0  0  0  0  0  0  0  0  0
    7.3212    2.1701    2.0423 C   0  0  0  0  0  0  0  0  0  0  0  0
    8.6356    1.8406    2.2959 C   0  0  0  0  0  0  0  0  0  0  0  0
    9.8621    2.5982    2.0314 C   0  0  0  0  0  0  0  0  0  0  0  0
   10.9459    2.0222    1.9940 O   0  0  0  0  0  0  0  0  0  0  0  0
    9.8186    4.0900    1.8978 C   0  0  0  0  0  0  0  0  0  0  0  0
    8.9494    4.8027    2.7409 C   0  0  0  0  0  0  0  0  0  0  0  0
    8.9055    6.1928    2.7065 C   0  0  0  0  0  0  0  0  0  0  0  0
    9.7615    6.8863    1.8556 C   0  0  0  0  0  0  0  0  0  0  0  0
   10.6693    6.2075    1.0313 C   0  0  0  0  0  0  0  0  0  0  0  0
   11.5450    6.9472    0.2173 C   0  0  0  0  0  0  0  0  0  0  0  0
   12.4716    6.3141   -0.6079 C   0  0  0  0  0  0  0  0  0  0  0  0
   12.5213    4.9292   -0.6421 C   0  0  0  0  0  0  0  0  0  0  0  0
   11.6512    4.1793    0.1537 C   0  0  0  0  0  0  0  0  0  0  0  0
   10.7129    4.7888    1.0264 C   0  0  0  0  0  0  0  0  0  0  0  0
    8.5910    0.5410    2.8697 C   0  0  0  0  0  0  0  0  0  0  0  0
    7.2745    0.1125    2.9891 C   0  0  0  0  0  0  0  0  0  0  0  0
    6.8254   -1.1870    3.5268 C   0  0  0  0  0  0  0  0  0  0  0  0
    7.5900   -1.8302    4.5166 C   0  0  0  0  0  0  0  0  0  0  0  0
    7.2426   -3.0958    4.9987 C   0  0  0  0  0  0  0  0  0  0  0  0
    6.1041   -3.7331    4.5178 C   0  0  0  0  0  0  0  0  0  0  0  0
    5.3270   -3.1111    3.5463 C   0  0  0  0  0  0  0  0  0  0  0  0
    5.6993   -1.8607    3.0403 C   0  0  0  0  0  0  0  0  0  0  0  0
    4.2584    3.4834    8.0627 H   0  0  0  0  0  0  0  0  0  0  0  0
    4.4437    4.4967    6.6188 H   0  0  0  0  0  0  0  0  0  0  0  0
    5.8066    3.5188    7.1986 H   0  0  0  0  0  0  0  0  0  0  0  0
    3.1610    2.3989    6.1268 H   0  0  0  0  0  0  0  0  0  0  0  0
    4.5255    1.4338    6.6957 H   0  0  0  0  0  0  0  0  0  0  0  0
    5.9736    2.4256    4.9180 H   0  0  0  0  0  0  0  0  0  0  0  0
    4.6165    3.3916    4.3345 H   0  0  0  0  0  0  0  0  0  0  0  0
    3.3270    1.3282    3.8266 H   0  0  0  0  0  0  0  0  0  0  0  0
    4.6311    0.3348    4.4510 H   0  0  0  0  0  0  0  0  0  0  0  0
    4.8006    2.2609    2.0650 H   0  0  0  0  0  0  0  0  0  0  0  0
    4.6314    0.5336    1.9003 H   0  0  0  0  0  0  0  0  0  0  0  0
    6.8899    3.0512    1.5832 H   0  0  0  0  0  0  0  0  0  0  0  0
    8.3098    4.2876    3.4539 H   0  0  0  0  0  0  0  0  0  0  0  0
    8.2226    6.7339    3.3543 H   0  0  0  0  0  0  0  0  0  0  0  0
    9.7244    7.9743    1.8569 H   0  0  0  0  0  0  0  0  0  0  0  0
   11.5214    8.0356    0.2295 H   0  0  0  0  0  0  0  0  0  0  0  0
   13.1506    6.9015   -1.2190 H   0  0  0  0  0  0  0  0  0  0  0  0
   13.2411    4.4227   -1.2815 H   0  0  0  0  0  0  0  0  0  0  0  0
   11.7327    3.0962    0.0906 H   0  0  0  0  0  0  0  0  0  0  0  0
    9.4648   -0.0283    3.1647 H   0  0  0  0  0  0  0  0  0  0  0  0
    8.4849   -1.3571    4.9177 H   0  0  0  0  0  0  0  0  0  0  0  0
    7.8688   -3.5842    5.7410 H   0  0  0  0  0  0  0  0  0  0  0  0
    5.8310   -4.7174    4.8879 H   0  0  0  0  0  0  0  0  0  0  0  0
    4.4395   -3.6060    3.1611 H   0  0  0  0  0  0  0  0  0  0  0  0
    5.0999   -1.4471    2.2390 H   0  0  0  0  0  0  0  0  0  0  0  0
  1  2  1  0  0  0  0
  1 29  1  0  0  0  0
  1 30  1  0  0  0  0
  1 31  1  0  0  0  0
  2  3  1  0  0  0  0
  2 32  1  0  0  0  0
  2 33  1  0  0  0  0
  3  4  1  0  0  0  0
  3 34  1  0  0  0  0
  3 35  1  0  0  0  0
  4  5  1  0  0  0  0
  4 36  1  0  0  0  0
  4 37  1  0  0  0  0
  5  6  1  0  0  0  0
  5 38  1  0  0  0  0
  5 39  1  0  0  0  0
  6 22  1  0  0  0  0
  6  7  1  0  0  0  0
  7  8  2  0  0  0  0
  7 40  1  0  0  0  0
  8  9  1  0  0  0  0
  8 21  1  0  0  0  0
  9 10  2  0  0  0  0
  9 11  1  0  0  0  0
 11 20  2  0  0  0  0
 11 12  1  0  0  0  0
 12 13  2  0  0  0  0
 12 41  1  0  0  0  0
 13 14  1  0  0  0  0
 13 42  1  0  0  0  0
 14 15  2  0  0  0  0
 14 43  1  0  0  0  0
 15 20  1  0  0  0  0
 15 16  1  0  0  0  0
 16 17  2  0  0  0  0
 16 44  1  0  0  0  0
 17 18  1  0  0  0  0
 17 45  1  0  0  0  0
 18 19  2  0  0  0  0
 18 46  1  0  0  0  0
 19 20  1  0  0  0  0
 19 47  1  0  0  0  0
 21 22  2  0  0  0  0
 21 48  1  0  0  0  0
 22 23  1  0  0  0  0
 23 28  2  0  0  0  0
 23 24  1  0  0  0  0
 24 25  2  0  0  0  0
 24 49  1  0  0  0  0
 25 26  1  0  0  0  0
 25 50  1  0  0  0  0
 26 27  2  0  0  0  0
 26 51  1  0  0  0  0
 27 28  1  0  0  0  0
 27 52  1  0  0  0  0
 28 53  1  0  0  0  0
M  END
$$$$
CHEMBL393792_5ZTY
 OpenBabel12022418123D

 61 65  0  0  1  0  0  0  0  0999 V2000
    5.1466   -2.2219    0.1995 C   0  0  0  0  0  0  0  0  0  0  0  0
    4.6089   -0.9620   -0.4560 C   0  0  0  0  0  0  0  0  0  0  0  0
    5.1020    0.2881    0.2703 C   0  0  0  0  0  0  0  0  0  0  0  0
    4.5573    1.5516   -0.3954 C   0  0  0  0  0  0  0  0  0  0  0  0
    5.0867    2.8538    0.2193 C   0  0  0  0  0  0  0  0  0  0  0  0
    6.5606    2.9203    0.2669 N   0  0  0  0  0  0  0  0  0  0  0  0
    7.2167    2.7559    1.4785 C   0  0  0  0  0  0  0  0  0  0  0  0
    8.5367    2.6710    1.6832 C   0  0  0  0  0  0  0  0  0  0  0  0
    9.4004    2.7749    0.4610 C   0  0  0  0  0  0  0  0  0  0  0  0
   10.6257    2.7477    0.5668 O   0  0  0  0  0  0  0  0  0  0  0  0
    8.7267    2.8991   -0.8658 C   0  0  0  0  0  0  0  0  0  0  0  0
    9.5018    2.9100   -2.0366 C   0  0  0  0  0  0  0  0  0  0  0  0
    8.8840    2.9957   -3.2860 C   0  0  0  0  0  0  0  0  0  0  0  0
    7.5023    3.1199   -3.3632 C   0  0  0  0  0  0  0  0  0  0  0  0
    6.7370    3.1527   -2.1931 C   0  0  0  0  0  0  0  0  0  0  0  0
    7.3191    2.9968   -0.9207 C   0  0  0  0  0  0  0  0  0  0  0  0
    9.1690    2.5087    2.9006 N   0  0  0  0  0  0  0  0  0  0  0  0
    8.5840    2.3316    4.1499 C   0  0  0  0  0  0  0  0  0  0  0  0
    7.3744    2.2142    4.3395 O   0  0  0  0  0  0  0  0  0  0  0  0
    9.5703    2.3296    5.3340 C   0  0  1  0  0  0  0  0  0  0  0  0
   10.5876    1.1714    5.2025 C   0  0  0  0  0  0  0  0  0  0  0  0
   11.6111    1.2222    6.3490 C   0  0  2  0  0  0  0  0  0  0  0  0
   10.8818    1.0541    7.6916 C   0  0  0  0  0  0  0  0  0  0  0  0
    9.8453    2.1751    7.8667 C   0  0  1  0  0  0  0  0  0  0  0  0
   10.5804    3.5248    7.8692 C   0  0  0  0  0  0  0  0  0  0  0  0
   11.3160    3.7219    6.5345 C   0  0  1  0  0  0  0  0  0  0  0  0
   12.3269    2.5830    6.3207 C   0  0  0  0  0  0  0  0  0  0  0  0
   10.2955    3.6953    5.3893 C   0  0  0  0  0  0  0  0  0  0  0  0
    8.8391    2.1382    6.6955 C   0  0  0  0  0  0  0  0  0  0  0  0
    4.7870   -3.1085   -0.3309 H   0  0  0  0  0  0  0  0  0  0  0  0
    4.8190   -2.2886    1.2416 H   0  0  0  0  0  0  0  0  0  0  0  0
    6.2413   -2.2346    0.1817 H   0  0  0  0  0  0  0  0  0  0  0  0
    3.5134   -0.9876   -0.4583 H   0  0  0  0  0  0  0  0  0  0  0  0
    4.9356   -0.9356   -1.5028 H   0  0  0  0  0  0  0  0  0  0  0  0
    6.1977    0.2875    0.2519 H   0  0  0  0  0  0  0  0  0  0  0  0
    4.7925    0.2631    1.3214 H   0  0  0  0  0  0  0  0  0  0  0  0
    3.4629    1.5591   -0.3212 H   0  0  0  0  0  0  0  0  0  0  0  0
    4.7812    1.5066   -1.4649 H   0  0  0  0  0  0  0  0  0  0  0  0
    4.6773    2.9348    1.2363 H   0  0  0  0  0  0  0  0  0  0  0  0
    4.6869    3.7247   -0.3134 H   0  0  0  0  0  0  0  0  0  0  0  0
    6.5293    2.6893    2.3126 H   0  0  0  0  0  0  0  0  0  0  0  0
   10.5830    2.8324   -1.9814 H   0  0  0  0  0  0  0  0  0  0  0  0
    9.4776    2.9697   -4.1977 H   0  0  0  0  0  0  0  0  0  0  0  0
    7.0092    3.1850   -4.3303 H   0  0  0  0  0  0  0  0  0  0  0  0
    5.6659    3.2837   -2.3144 H   0  0  0  0  0  0  0  0  0  0  0  0
   10.1833    2.5165    2.8287 H   0  0  0  0  0  0  0  0  0  0  0  0
   11.1162    1.2091    4.2446 H   0  0  0  0  0  0  0  0  0  0  0  0
   10.0578    0.2094    5.2204 H   0  0  0  0  0  0  0  0  0  0  0  0
   12.3422    0.4158    6.2246 H   0  0  0  0  0  0  0  0  0  0  0  0
   11.6070    1.0814    8.5152 H   0  0  0  0  0  0  0  0  0  0  0  0
   10.3890    0.0756    7.7359 H   0  0  0  0  0  0  0  0  0  0  0  0
    9.3157    2.0422    8.8172 H   0  0  0  0  0  0  0  0  0  0  0  0
   11.2971    3.5622    8.6992 H   0  0  0  0  0  0  0  0  0  0  0  0
    9.8650    4.3403    8.0309 H   0  0  0  0  0  0  0  0  0  0  0  0
   11.8368    4.6857    6.5399 H   0  0  0  0  0  0  0  0  0  0  0  0
   12.8353    2.7141    5.3569 H   0  0  0  0  0  0  0  0  0  0  0  0
   13.0998    2.6175    7.0971 H   0  0  0  0  0  0  0  0  0  0  0  0
    9.5601    4.5000    5.5276 H   0  0  0  0  0  0  0  0  0  0  0  0
   10.8078    3.9116    4.4449 H   0  0  0  0  0  0  0  0  0  0  0  0
    8.2978    1.1828    6.7078 H   0  0  0  0  0  0  0  0  0  0  0  0
    8.0828    2.9211    6.8387 H   0  0  0  0  0  0  0  0  0  0  0  0
  1  2  1  0  0  0  0
  1 30  1  0  0  0  0
  1 31  1  0  0  0  0
  1 32  1  0  0  0  0
  2  3  1  0  0  0  0
  2 33  1  0  0  0  0
  2 34  1  0  0  0  0
  3  4  1  0  0  0  0
  3 35  1  0  0  0  0
  3 36  1  0  0  0  0
  4  5  1  0  0  0  0
  4 37  1  0  0  0  0
  4 38  1  0  0  0  0
  5  6  1  0  0  0  0
  5 39  1  0  0  0  0
  5 40  1  0  0  0  0
  6 16  1  0  0  0  0
  6  7  1  0  0  0  0
  7  8  2  0  0  0  0
  7 41  1  0  0  0  0
  8  9  1  0  0  0  0
  8 17  1  0  0  0  0
  9 10  2  0  0  0  0
  9 11  1  0  0  0  0
 11 16  2  0  0  0  0
 11 12  1  0  0  0  0
 12 13  2  0  0  0  0
 12 42  1  0  0  0  0
 13 14  1  0  0  0  0
 13 43  1  0  0  0  0
 14 15  2  0  0  0  0
 14 44  1  0  0  0  0
 15 16  1  0  0  0  0
 15 45  1  0  0  0  0
 17 18  1  0  0  0  0
 17 46  1  0  0  0  0
 18 19  2  0  0  0  0
 20 18  1  6  0  0  0
 20 28  1  0  0  0  0
 20 29  1  0  0  0  0
 20 21  1  0  0  0  0
 21 47  1  0  0  0  0
 21 48  1  0  0  0  0
 22 21  1  0  0  0  0
 22 23  1  0  0  0  0
 22 27  1  0  0  0  0
 22 49  1  6  0  0  0
 23 50  1  0  0  0  0
 23 51  1  0  0  0  0
 24 23  1  0  0  0  0
 24 25  1  0  0  0  0
 24 29  1  0  0  0  0
 24 52  1  1  0  0  0
 25 53  1  0  0  0  0
 25 54  1  0  0  0  0
 26 25  1  0  0  0  0
 26 27  1  0  0  0  0
 26 28  1  0  0  0  0
 26 55  1  1  0  0  0
 27 56  1  0  0  0  0
 27 57  1  0  0  0  0
 28 58  1  0  0  0  0
 28 59  1  0  0  0  0
 29 60  1  0  0  0  0
 29 61  1  0  0  0  0
M  END
$$$$
CHEMBL238047_5ZTY
 OpenBabel12022418123D

 65 70  0  0  1  0  0  0  0  0999 V2000
   -1.3778   -0.1280    1.6386 C   0  0  0  0  0  0  0  0  0  0  0  0
   -2.6843   -0.1377    0.8387 C   0  0  1  0  0  0  0  0  0  0  0  0
   -2.4386   -0.6978   -0.5801 C   0  0  0  0  0  0  0  0  0  0  0  0
   -3.7469   -0.6991   -1.3860 C   0  0  1  0  0  0  0  0  0  0  0  0
   -4.7787   -1.5887   -0.6753 C   0  0  0  0  0  0  0  0  0  0  0  0
   -5.0629   -1.0489    0.7419 C   0  0  1  0  0  0  0  0  0  0  0  0
   -6.1000   -1.9232    1.4530 C   0  0  0  0  0  0  0  0  0  0  0  0
   -3.7408   -1.0195    1.5449 C   0  0  0  0  0  0  0  0  0  0  0  0
   -5.5981    0.3917    0.6229 C   0  0  0  0  0  0  0  0  0  0  0  0
   -4.5702    1.3146   -0.0716 C   0  0  2  0  0  0  0  0  0  0  0  0
   -4.2882    0.7373   -1.4826 C   0  0  0  0  0  0  0  0  0  0  0  0
   -3.2390    1.2998    0.7175 C   0  0  0  0  0  0  0  0  0  0  0  0
   -5.0916    2.6755   -0.2035 N   0  0  0  0  0  0  0  0  0  0  0  0
   -5.5068    3.4616    0.8436 C   0  0  0  0  0  0  0  0  0  0  0  0
   -5.5276    3.0900    2.0143 O   0  0  0  0  0  0  0  0  0  0  0  0
   -5.8912    4.8515    0.4792 C   0  0  0  0  0  0  0  0  0  0  0  0
   -6.3286    5.6596    1.4550 C   0  0  0  0  0  0  0  0  0  0  0  0
   -6.5901    7.0222    1.3572 N   0  0  0  0  0  0  0  0  0  0  0  0
   -6.8736    7.8168    2.5701 C   0  0  0  0  0  0  0  0  0  0  0  0
   -5.6251    8.3787    3.2347 C   0  0  0  0  0  0  0  0  0  0  0  0
   -4.4350    7.6343    3.3331 C   0  0  0  0  0  0  0  0  0  0  0  0
   -3.3436    8.1150    4.0571 C   0  0  0  0  0  0  0  0  0  0  0  0
   -3.4336    9.3431    4.6918 C   0  0  0  0  0  0  0  0  0  0  0  0
   -4.5888   10.1086    4.6008 C   0  0  0  0  0  0  0  0  0  0  0  0
   -5.6836    9.6286    3.8758 C   0  0  0  0  0  0  0  0  0  0  0  0
   -2.3990    9.7890    5.4160 F   0  0  0  0  0  0  0  0  0  0  0  0
   -6.3663    7.6681    0.1193 C   0  0  0  0  0  0  0  0  0  0  0  0
   -6.5141    9.0503   -0.0776 C   0  0  0  0  0  0  0  0  0  0  0  0
   -6.2779    9.6421   -1.3260 C   0  0  0  0  0  0  0  0  0  0  0  0
   -5.8929    8.8663   -2.4127 C   0  0  0  0  0  0  0  0  0  0  0  0
   -5.7408    7.4947   -2.2551 C   0  0  0  0  0  0  0  0  0  0  0  0
   -5.9708    6.9061   -1.0028 C   0  0  0  0  0  0  0  0  0  0  0  0
   -5.7525    5.4463   -0.8655 C   0  0  0  0  0  0  0  0  0  0  0  0
   -5.4483    4.7607   -1.8383 O   0  0  0  0  0  0  0  0  0  0  0  0
   -1.5315    0.2902    2.6395 H   0  0  0  0  0  0  0  0  0  0  0  0
   -0.6133    0.4773    1.1388 H   0  0  0  0  0  0  0  0  0  0  0  0
   -0.9778   -1.1408    1.7570 H   0  0  0  0  0  0  0  0  0  0  0  0
   -2.0402   -1.7191   -0.5211 H   0  0  0  0  0  0  0  0  0  0  0  0
   -1.6847   -0.0954   -1.1024 H   0  0  0  0  0  0  0  0  0  0  0  0
   -3.5574   -1.0898   -2.3921 H   0  0  0  0  0  0  0  0  0  0  0  0
   -4.4051   -2.6193   -0.6211 H   0  0  0  0  0  0  0  0  0  0  0  0
   -5.7050   -1.6203   -1.2635 H   0  0  0  0  0  0  0  0  0  0  0  0
   -5.7469   -2.9546    1.5564 H   0  0  0  0  0  0  0  0  0  0  0  0
   -7.0440   -1.9452    0.8964 H   0  0  0  0  0  0  0  0  0  0  0  0
   -6.3164   -1.5402    2.4565 H   0  0  0  0  0  0  0  0  0  0  0  0
   -3.9273   -0.6361    2.5573 H   0  0  0  0  0  0  0  0  0  0  0  0
   -3.3555   -2.0407    1.6646 H   0  0  0  0  0  0  0  0  0  0  0  0
   -5.8403    0.7600    1.6260 H   0  0  0  0  0  0  0  0  0  0  0  0
   -6.5427    0.4030    0.0615 H   0  0  0  0  0  0  0  0  0  0  0  0
   -5.2063    0.7471   -2.0853 H   0  0  0  0  0  0  0  0  0  0  0  0
   -3.5661    1.3700   -2.0150 H   0  0  0  0  0  0  0  0  0  0  0  0
   -2.5045    1.9470    0.2166 H   0  0  0  0  0  0  0  0  0  0  0  0
   -3.3793    1.7240    1.7194 H   0  0  0  0  0  0  0  0  0  0  0  0
   -5.0648    3.1107   -1.1277 H   0  0  0  0  0  0  0  0  0  0  0  0
   -6.4488    5.2740    2.4681 H   0  0  0  0  0  0  0  0  0  0  0  0
   -7.3756    7.1840    3.3157 H   0  0  0  0  0  0  0  0  0  0  0  0
   -7.5990    8.6103    2.3550 H   0  0  0  0  0  0  0  0  0  0  0  0
   -4.3404    6.6603    2.8617 H   0  0  0  0  0  0  0  0  0  0  0  0
   -2.4345    7.5267    4.1390 H   0  0  0  0  0  0  0  0  0  0  0  0
   -4.6353   11.0658    5.1098 H   0  0  0  0  0  0  0  0  0  0  0  0
   -6.5886   10.2310    3.8332 H   0  0  0  0  0  0  0  0  0  0  0  0
   -6.8080    9.7140    0.7286 H   0  0  0  0  0  0  0  0  0  0  0  0
   -6.3914   10.7173   -1.4433 H   0  0  0  0  0  0  0  0  0  0  0  0
   -5.7040    9.3281   -3.3782 H   0  0  0  0  0  0  0  0  0  0  0  0
   -5.4325    6.8853   -3.1020 H   0  0  0  0  0  0  0  0  0  0  0  0
  1 35  1  0  0  0  0
  1 36  1  0  0  0  0
  1 37  1  0  0  0  0
  2  8  1  0  0  0  0
  2 12  1  0  0  0  0
  2  3  1  0  0  0  0
  2  1  1  1  0  0  0
  3 38  1  0  0  0  0
  3 39  1  0  0  0  0
  4  3  1  0  0  0  0
  4  5  1  0  0  0  0
  4 11  1  0  0  0  0
  4 40  1  6  0  0  0
  5  6  1  0  0  0  0
  5 41  1  0  0  0  0
  5 42  1  0  0  0  0
  6  8  1  0  0  0  0
  6  9  1  0  0  0  0
  6  7  1  1  0  0  0
  7 43  1  0  0  0  0
  7 44  1  0  0  0  0
  7 45  1  0  0  0  0
  8 46  1  0  0  0  0
  8 47  1  0  0  0  0
  9 10  1  0  0  0  0
  9 48  1  0  0  0  0
  9 49  1  0  0  0  0
 10 11  1  0  0  0  0
 10 12  1  0  0  0  0
 10 13  1  6  0  0  0
 11 50  1  0  0  0  0
 11 51  1  0  0  0  0
 12 52  1  0  0  0  0
 12 53  1  0  0  0  0
 13 14  1  0  0  0  0
 13 54  1  0  0  0  0
 14 15  2  0  0  0  0
 14 16  1  0  0  0  0
 16 33  1  0  0  0  0
 16 17  2  0  0  0  0
 17 18  1  0  0  0  0
 17 55  1  0  0  0  0
 18 19  1  0  0  0  0
 18 27  1  0  0  0  0
 19 20  1  0  0  0  0
 19 56  1  0  0  0  0
 19 57  1  0  0  0  0
 20 25  2  0  0  0  0
 20 21  1  0  0  0  0
 21 22  2  0  0  0  0
 21 58  1  0  0  0  0
 22 23  1  0  0  0  0
 22 59  1  0  0  0  0
 23 24  2  0  0  0  0
 23 26  1  0  0  0  0
 24 25  1  0  0  0  0
 24 60  1  0  0  0  0
 25 61  1  0  0  0  0
 27 32  2  0  0  0  0
 27 28  1  0  0  0  0
 28 29  2  0  0  0  0
 28 62  1  0  0  0  0
 29 30  1  0  0  0  0
 29 63  1  0  0  0  0
 30 31  2  0  0  0  0
 30 64  1  0  0  0  0
 31 32  1  0  0  0  0
 31 65  1  0  0  0  0
 32 33  1  0  0  0  0
 33 34  2  0  0  0  0
M  END
$$$$
CHEMBL235487_5ZTY
 OpenBabel12022418123D

 64 68  0  0  1  0  0  0  0  0999 V2000
    0.9984   -0.3425    0.8865 C   0  0  0  0  0  0  0  0  0  0  0  0
    2.5150   -0.3554    0.8304 C   0  0  0  0  0  0  0  0  0  0  0  0
    3.0176   -1.5931    0.0939 C   0  0  0  0  0  0  0  0  0  0  0  0
    4.5388   -1.6088    0.0373 C   0  0  0  0  0  0  0  0  0  0  0  0
    5.0493   -2.8636   -0.6765 C   0  0  0  0  0  0  0  0  0  0  0  0
    6.5219   -2.8431   -0.7298 N   0  0  0  0  0  0  0  0  0  0  0  0
    7.2585   -2.8994    0.4497 C   0  0  0  0  0  0  0  0  0  0  0  0
    8.5910   -2.8715    0.5836 C   0  0  0  0  0  0  0  0  0  0  0  0
    9.1613   -2.9031    1.9628 C   0  0  0  0  0  0  0  0  0  0  0  0
    8.4240   -2.9555    2.9469 O   0  0  0  0  0  0  0  0  0  0  0  0
   10.5268   -2.8735    2.0799 N   0  0  0  0  0  0  0  0  0  0  0  0
   11.1574   -2.9138    3.3990 C   0  0  0  0  0  0  0  0  0  0  0  0
   12.7014   -2.8561    3.3815 C   0  0  1  0  0  0  0  0  0  0  0  0
   13.2470   -4.0503    2.5625 C   0  0  0  0  0  0  0  0  0  0  0  0
   14.7699   -3.9708    2.4246 C   0  0  2  0  0  0  0  0  0  0  0  0
   15.4052   -4.0449    3.8197 C   0  0  0  0  0  0  0  0  0  0  0  0
   14.9069   -2.8730    4.6829 C   0  0  1  0  0  0  0  0  0  0  0  0
   15.3115   -1.5487    4.0135 C   0  0  0  0  0  0  0  0  0  0  0  0
   14.6760   -1.4551    2.6206 C   0  0  1  0  0  0  0  0  0  0  0  0
   15.1429   -2.6383    1.7555 C   0  0  0  0  0  0  0  0  0  0  0  0
   13.1497   -1.5133    2.7551 C   0  0  0  0  0  0  0  0  0  0  0  0
   13.3588   -2.9409    4.7997 C   0  0  0  0  0  0  0  0  0  0  0  0
    9.3727   -2.8101   -0.6668 C   0  0  0  0  0  0  0  0  0  0  0  0
   10.5994   -2.7205   -0.6475 O   0  0  0  0  0  0  0  0  0  0  0  0
    8.6267   -2.8798   -1.9543 C   0  0  0  0  0  0  0  0  0  0  0  0
    9.3671   -2.9845   -3.1432 C   0  0  0  0  0  0  0  0  0  0  0  0
    8.7105   -3.0758   -4.3644 C   0  0  0  0  0  0  0  0  0  0  0  0
    7.3230   -3.0034   -4.4024 C   0  0  0  0  0  0  0  0  0  0  0  0
    6.5885   -2.8757   -3.2165 C   0  0  0  0  0  0  0  0  0  0  0  0
    7.2144   -2.8604   -1.9581 C   0  0  0  0  0  0  0  0  0  0  0  0
    0.6453    0.5498    1.4108 H   0  0  0  0  0  0  0  0  0  0  0  0
    0.6214   -1.2236    1.4158 H   0  0  0  0  0  0  0  0  0  0  0  0
    0.5729   -0.3397   -0.1220 H   0  0  0  0  0  0  0  0  0  0  0  0
    2.9175   -0.3360    1.8503 H   0  0  0  0  0  0  0  0  0  0  0  0
    2.8702    0.5500    0.3246 H   0  0  0  0  0  0  0  0  0  0  0  0
    2.6116   -1.6123   -0.9241 H   0  0  0  0  0  0  0  0  0  0  0  0
    2.6620   -2.4963    0.6048 H   0  0  0  0  0  0  0  0  0  0  0  0
    4.9268   -1.5725    1.0615 H   0  0  0  0  0  0  0  0  0  0  0  0
    4.9115   -0.7114   -0.4717 H   0  0  0  0  0  0  0  0  0  0  0  0
    4.5630   -2.9366   -1.6509 H   0  0  0  0  0  0  0  0  0  0  0  0
    4.7271   -3.7607   -0.1326 H   0  0  0  0  0  0  0  0  0  0  0  0
    6.6278   -2.9571    1.3361 H   0  0  0  0  0  0  0  0  0  0  0  0
   11.0833   -2.8442    1.2240 H   0  0  0  0  0  0  0  0  0  0  0  0
   10.8123   -3.8371    3.8809 H   0  0  0  0  0  0  0  0  0  0  0  0
   10.7485   -2.0717    3.9702 H   0  0  0  0  0  0  0  0  0  0  0  0
   12.8033   -4.0738    1.5612 H   0  0  0  0  0  0  0  0  0  0  0  0
   12.9661   -4.9942    3.0525 H   0  0  0  0  0  0  0  0  0  0  0  0
   15.1216   -4.8072    1.8112 H   0  0  0  0  0  0  0  0  0  0  0  0
   16.4988   -4.0200    3.7317 H   0  0  0  0  0  0  0  0  0  0  0  0
   15.1483   -4.9971    4.3000 H   0  0  0  0  0  0  0  0  0  0  0  0
   15.3682   -2.9326    5.6760 H   0  0  0  0  0  0  0  0  0  0  0  0
   16.4031   -1.4764    3.9306 H   0  0  0  0  0  0  0  0  0  0  0  0
   14.9847   -0.7033    4.6321 H   0  0  0  0  0  0  0  0  0  0  0  0
   14.9621   -0.5112    2.1428 H   0  0  0  0  0  0  0  0  0  0  0  0
   14.6766   -2.5790    0.7632 H   0  0  0  0  0  0  0  0  0  0  0  0
   16.2269   -2.5861    1.6037 H   0  0  0  0  0  0  0  0  0  0  0  0
   12.8016   -0.6742    3.3854 H   0  0  0  0  0  0  0  0  0  0  0  0
   12.7010   -1.3731    1.7760 H   0  0  0  0  0  0  0  0  0  0  0  0
   13.0791   -3.8738    5.3063 H   0  0  0  0  0  0  0  0  0  0  0  0
   13.0127   -2.1204    5.4426 H   0  0  0  0  0  0  0  0  0  0  0  0
   10.4539   -3.0169   -3.1128 H   0  0  0  0  0  0  0  0  0  0  0  0
    9.2770   -3.2013   -5.2822 H   0  0  0  0  0  0  0  0  0  0  0  0
    6.8011   -3.0571   -5.3555 H   0  0  0  0  0  0  0  0  0  0  0  0
    5.5135   -2.8000   -3.3322 H   0  0  0  0  0  0  0  0  0  0  0  0
  1  2  1  0  0  0  0
  1 31  1  0  0  0  0
  1 32  1  0  0  0  0
  1 33  1  0  0  0  0
  2  3  1  0  0  0  0
  2 34  1  0  0  0  0
  2 35  1  0  0  0  0
  3  4  1  0  0  0  0
  3 36  1  0  0  0  0
  3 37  1  0  0  0  0
  4  5  1  0  0  0  0
  4 38  1  0  0  0  0
  4 39  1  0  0  0  0
  5  6  1  0  0  0  0
  5 40  1  0  0  0  0
  5 41  1  0  0  0  0
  6 30  1  0  0  0  0
  6  7  1  0  0  0  0
  7  8  2  0  0  0  0
  7 42  1  0  0  0  0
  8  9  1  0  0  0  0
  8 23  1  0  0  0  0
  9 10  2  0  0  0  0
  9 11  1  0  0  0  0
 11 12  1  0  0  0  0
 11 43  1  0  0  0  0
 12 44  1  0  0  0  0
 12 45  1  0  0  0  0
 13 12  1  1  0  0  0
 13 21  1  0  0  0  0
 13 22  1  0  0  0  0
 13 14  1  0  0  0  0
 14 46  1  0  0  0  0
 14 47  1  0  0  0  0
 15 14  1  0  0  0  0
 15 16  1  0  0  0  0
 15 20  1  0  0  0  0
 15 48  1  6  0  0  0
 16 49  1  0  0  0  0
 16 50  1  0  0  0  0
 17 16  1  0  0  0  0
 17 18  1  0  0  0  0
 17 22  1  0  0  0  0
 17 51  1  1  0  0  0
 18 52  1  0  0  0  0
 18 53  1  0  0  0  0
 19 18  1  0  0  0  0
 19 20  1  0  0  0  0
 19 21  1  0  0  0  0
 19 54  1  6  0  0  0
 20 55  1  0  0  0  0
 20 56  1  0  0  0  0
 21 57  1  0  0  0  0
 21 58  1  0  0  0  0
 22 59  1  0  0  0  0
 22 60  1  0  0  0  0
 23 24  2  0  0  0  0
 23 25  1  0  0  0  0
 25 30  2  0  0  0  0
 25 26  1  0  0  0  0
 26 27  2  0  0  0  0
 26 61  1  0  0  0  0
 27 28  1  0  0  0  0
 27 62  1  0  0  0  0
 28 29  2  0  0  0  0
 28 63  1  0  0  0  0
 29 30  1  0  0  0  0
 29 64  1  0  0  0  0
M  END
$$$$
CHEMBL218253_6PT0
 OpenBabel12022418123D

 55 58  0  0  0  0  0  0  0  0999 V2000
    0.9227   -1.0380   -1.5226 C   0  0  0  0  0  0  0  0  0  0  0  0
    2.1524   -0.5225   -1.1328 C   0  0  0  0  0  0  0  0  0  0  0  0
    2.2242    0.7622   -0.6047 C   0  0  0  0  0  0  0  0  0  0  0  0
    1.0733    1.5690   -0.4969 C   0  0  0  0  0  0  0  0  0  0  0  0
   -0.1950    1.0541   -0.9125 C   0  0  0  0  0  0  0  0  0  0  0  0
   -0.2486   -0.2759   -1.4103 C   0  0  0  0  0  0  0  0  0  0  0  0
   -1.4765   -0.8476   -1.7837 C   0  0  0  0  0  0  0  0  0  0  0  0
   -2.6651   -0.1284   -1.6897 C   0  0  0  0  0  0  0  0  0  0  0  0
   -2.6379    1.1808   -1.2373 C   0  0  0  0  0  0  0  0  0  0  0  0
   -1.4239    1.7631   -0.8649 C   0  0  0  0  0  0  0  0  0  0  0  0
    1.1908    2.9091    0.1807 C   0  0  0  0  0  0  0  0  0  0  0  0
    0.2583    3.3341    0.8555 O   0  0  0  0  0  0  0  0  0  0  0  0
    2.4424    3.6636    0.1330 C   0  0  0  0  0  0  0  0  0  0  0  0
    3.4128    3.6878   -0.8498 C   0  0  0  0  0  0  0  0  0  0  0  0
    4.4567    4.4854   -0.4372 N   0  0  0  0  0  0  0  0  0  0  0  0
    4.1644    5.0374    0.8075 C   0  0  0  0  0  0  0  0  0  0  0  0
    2.8967    4.5665    1.1316 C   0  0  0  0  0  0  0  0  0  0  0  0
    5.0553    5.8611    1.6539 C   0  0  0  0  0  0  0  0  0  0  0  0
    6.0274    6.7284    1.1333 C   0  0  0  0  0  0  0  0  0  0  0  0
    6.9295    7.4094    1.9626 C   0  0  0  0  0  0  0  0  0  0  0  0
    6.8296    7.2892    3.3405 C   0  0  0  0  0  0  0  0  0  0  0  0
    5.8183    6.4890    3.8846 C   0  0  0  0  0  0  0  0  0  0  0  0
    4.9445    5.7738    3.0516 C   0  0  0  0  0  0  0  0  0  0  0  0
    5.6765    6.3952    5.3395 N   0  3  0  0  0  0  0  0  0  0  0  0
    6.4920    7.0126    6.0394 O   0  0  0  0  0  0  0  0  0  0  0  0
    4.7497    5.7019    5.7879 O   0  5  0  0  0  0  0  0  0  0  0  0
    5.6918    4.6768   -1.1835 C   0  0  0  0  0  0  0  0  0  0  0  0
    5.8471    3.8834   -2.4784 C   0  0  0  0  0  0  0  0  0  0  0  0
    7.1792    4.2057   -3.1517 C   0  0  0  0  0  0  0  0  0  0  0  0
    7.2901    3.4399   -4.4650 C   0  0  0  0  0  0  0  0  0  0  0  0
    8.6041    3.7210   -5.1690 C   0  0  0  0  0  0  0  0  0  0  0  0
    0.8821   -2.0559   -1.9061 H   0  0  0  0  0  0  0  0  0  0  0  0
    3.0490   -1.1322   -1.2148 H   0  0  0  0  0  0  0  0  0  0  0  0
    3.1922    1.1069   -0.2495 H   0  0  0  0  0  0  0  0  0  0  0  0
   -1.5193   -1.8732   -2.1448 H   0  0  0  0  0  0  0  0  0  0  0  0
   -3.6076   -0.5905   -1.9695 H   0  0  0  0  0  0  0  0  0  0  0  0
   -3.5575    1.7555   -1.1620 H   0  0  0  0  0  0  0  0  0  0  0  0
   -1.4619    2.7951   -0.5221 H   0  0  0  0  0  0  0  0  0  0  0  0
    3.4401    3.1709   -1.7994 H   0  0  0  0  0  0  0  0  0  0  0  0
    2.3499    4.7937    2.0401 H   0  0  0  0  0  0  0  0  0  0  0  0
    6.1174    6.9141    0.0732 H   0  0  0  0  0  0  0  0  0  0  0  0
    7.7001    8.0347    1.5180 H   0  0  0  0  0  0  0  0  0  0  0  0
    7.5312    7.8295    3.9732 H   0  0  0  0  0  0  0  0  0  0  0  0
    4.1792    5.1393    3.4950 H   0  0  0  0  0  0  0  0  0  0  0  0
    6.5180    4.4384   -0.5024 H   0  0  0  0  0  0  0  0  0  0  0  0
    5.7189    5.7353   -1.4549 H   0  0  0  0  0  0  0  0  0  0  0  0
    5.0308    4.1477   -3.1633 H   0  0  0  0  0  0  0  0  0  0  0  0
    5.7800    2.8114   -2.2771 H   0  0  0  0  0  0  0  0  0  0  0  0
    8.0084    3.9380   -2.4855 H   0  0  0  0  0  0  0  0  0  0  0  0
    7.2538    5.2843   -3.3412 H   0  0  0  0  0  0  0  0  0  0  0  0
    6.4599    3.7180   -5.1250 H   0  0  0  0  0  0  0  0  0  0  0  0
    7.2047    2.3642   -4.2722 H   0  0  0  0  0  0  0  0  0  0  0  0
    8.7002    4.7848   -5.4074 H   0  0  0  0  0  0  0  0  0  0  0  0
    8.6554    3.1547   -6.1034 H   0  0  0  0  0  0  0  0  0  0  0  0
    9.4528    3.4283   -4.5433 H   0  0  0  0  0  0  0  0  0  0  0  0
  1  6  2  0  0  0  0
  1  2  1  0  0  0  0
  1 32  1  0  0  0  0
  2  3  2  0  0  0  0
  2 33  1  0  0  0  0
  3  4  1  0  0  0  0
  3 34  1  0  0  0  0
  4  5  2  0  0  0  0
  4 11  1  0  0  0  0
  5 10  1  0  0  0  0
  5  6  1  0  0  0  0
  6  7  1  0  0  0  0
  7  8  2  0  0  0  0
  7 35  1  0  0  0  0
  8  9  1  0  0  0  0
  8 36  1  0  0  0  0
  9 10  2  0  0  0  0
  9 37  1  0  0  0  0
 10 38  1  0  0  0  0
 11 12  2  0  0  0  0
 11 13  1  0  0  0  0
 13 17  1  0  0  0  0
 13 14  2  0  0  0  0
 14 15  1  0  0  0  0
 14 39  1  0  0  0  0
 15 16  1  0  0  0  0
 15 27  1  0  0  0  0
 16 17  2  0  0  0  0
 16 18  1  0  0  0  0
 17 40  1  0  0  0  0
 18 23  2  0  0  0  0
 18 19  1  0  0  0  0
 19 20  2  0  0  0  0
 19 41  1  0  0  0  0
 20 21  1  0  0  0  0
 20 42  1  0  0  0  0
 21 22  2  0  0  0  0
 21 43  1  0  0  0  0
 22 23  1  0  0  0  0
 22 24  1  0  0  0  0
 23 44  1  0  0  0  0
 24 25  2  0  0  0  0
 24 26  1  0  0  0  0
 27 28  1  0  0  0  0
 27 45  1  0  0  0  0
 27 46  1  0  0  0  0
 28 29  1  0  0  0  0
 28 47  1  0  0  0  0
 28 48  1  0  0  0  0
 29 30  1  0  0  0  0
 29 49  1  0  0  0  0
 29 50  1  0  0  0  0
 30 31  1  0  0  0  0
 30 51  1  0  0  0  0
 30 52  1  0  0  0  0
 31 53  1  0  0  0  0
 31 54  1  0  0  0  0
 31 55  1  0  0  0  0
M  CHG  2  24   1  26  -1
M  END
$$$$
CHEMBL3354943_8GUQ
 OpenBabel12022418123D

 50 54  0  0  1  0  0  0  0  0999 V2000
    4.0659   -0.4102   -1.8105 C   0  0  0  0  0  0  0  0  0  0  0  0
    2.9740   -0.9043   -0.8248 C   0  0  0  0  0  0  0  0  0  0  0  0
    2.3434    0.3502   -0.1683 C   0  0  0  0  0  0  0  0  0  0  0  0
    1.9287   -1.7030   -1.6475 C   0  0  0  0  0  0  0  0  0  0  0  0
    0.5753   -1.3186   -1.7361 C   0  0  0  0  0  0  0  0  0  0  0  0
   -0.3315   -1.9999   -2.5561 C   0  0  0  0  0  0  0  0  0  0  0  0
    0.0898   -3.0885   -3.3088 C   0  0  0  0  0  0  0  0  0  0  0  0
    1.4163   -3.5009   -3.2337 C   0  0  0  0  0  0  0  0  0  0  0  0
    2.3225   -2.8228   -2.4078 C   0  0  0  0  0  0  0  0  0  0  0  0
    3.5654   -1.7618    0.2245 N   0  0  0  0  0  0  0  0  0  0  0  0
    4.5586   -1.3250    1.0864 C   0  0  0  0  0  0  0  0  0  0  0  0
    5.0404   -0.1973    1.0348 O   0  0  0  0  0  0  0  0  0  0  0  0
    5.0516   -2.2887    2.0863 C   0  0  0  0  0  0  0  0  0  0  0  0
    6.1402   -2.0535    2.9448 C   0  0  0  0  0  0  0  0  0  0  0  0
    6.3516   -3.2264    3.6053 C   0  0  0  0  0  0  0  0  0  0  0  0
    7.6982   -3.2304    4.2983 C   0  0  1  0  0  0  0  0  0  0  0  0
    8.2831   -1.8529    3.8845 C   0  0  1  0  0  0  0  0  0  0  0  0
    7.2145   -1.0468    3.1234 C   0  0  0  0  0  0  0  0  0  0  0  0
    8.0926   -2.1970    5.3239 C   0  0  0  0  0  0  0  0  0  0  0  0
    5.4072   -4.1222    3.2001 N   0  0  0  0  0  0  0  0  0  0  0  0
    5.2011   -5.4190    3.7393 C   0  0  0  0  0  0  0  0  0  0  0  0
    5.5657   -5.6423    5.0872 C   0  0  0  0  0  0  0  0  0  0  0  0
    5.3610   -6.8871    5.6866 C   0  0  0  0  0  0  0  0  0  0  0  0
    4.8079   -7.9224    4.9415 C   0  0  0  0  0  0  0  0  0  0  0  0
    4.4575   -7.7233    3.6101 C   0  0  0  0  0  0  0  0  0  0  0  0
    4.6446   -6.4721    3.0014 C   0  0  0  0  0  0  0  0  0  0  0  0
    4.2876   -6.3928    1.3102 Cl  0  0  0  0  0  0  0  0  0  0  0  0
    4.5651   -9.4620    5.6728 Cl  0  0  0  0  0  0  0  0  0  0  0  0
    4.5836   -3.5506    2.2552 N   0  0  0  0  0  0  0  0  0  0  0  0
    3.6314    0.2152   -2.5996 H   0  0  0  0  0  0  0  0  0  0  0  0
    4.5921   -1.2396   -2.2962 H   0  0  0  0  0  0  0  0  0  0  0  0
    4.8335    0.1924   -1.3156 H   0  0  0  0  0  0  0  0  0  0  0  0
    1.9007    1.0165   -0.9185 H   0  0  0  0  0  0  0  0  0  0  0  0
    3.0738    0.9541    0.3776 H   0  0  0  0  0  0  0  0  0  0  0  0
    1.5654    0.0731    0.5529 H   0  0  0  0  0  0  0  0  0  0  0  0
    0.1881   -0.4644   -1.1874 H   0  0  0  0  0  0  0  0  0  0  0  0
   -1.3654   -1.6673   -2.6121 H   0  0  0  0  0  0  0  0  0  0  0  0
   -0.6128   -3.6103   -3.9532 H   0  0  0  0  0  0  0  0  0  0  0  0
    1.7513   -4.3473   -3.8282 H   0  0  0  0  0  0  0  0  0  0  0  0
    3.3540   -3.1685   -2.3864 H   0  0  0  0  0  0  0  0  0  0  0  0
    3.2149   -2.7039    0.3749 H   0  0  0  0  0  0  0  0  0  0  0  0
    8.2696   -4.1486    4.3085 H   0  0  0  0  0  0  0  0  0  0  0  0
    9.2712   -1.8134    3.4510 H   0  0  0  0  0  0  0  0  0  0  0  0
    6.8738   -0.1950    3.7205 H   0  0  0  0  0  0  0  0  0  0  0  0
    7.6066   -0.6971    2.1649 H   0  0  0  0  0  0  0  0  0  0  0  0
    8.9866   -2.3906    5.9093 H   0  0  0  0  0  0  0  0  0  0  0  0
    7.3094   -1.7052    5.8888 H   0  0  0  0  0  0  0  0  0  0  0  0
    5.9677   -4.8425    5.7082 H   0  0  0  0  0  0  0  0  0  0  0  0
    5.6252   -7.0369    6.7309 H   0  0  0  0  0  0  0  0  0  0  0  0
    4.0507   -8.5515    3.0323 H   0  0  0  0  0  0  0  0  0  0  0  0
  1  2  1  0  0  0  0
  1 30  1  0  0  0  0
  1 31  1  0  0  0  0
  1 32  1  0  0  0  0
  2  3  1  0  0  0  0
  2  4  1  0  0  0  0
  2 10  1  0  0  0  0
  3 33  1  0  0  0  0
  3 34  1  0  0  0  0
  3 35  1  0  0  0  0
  4  9  2  0  0  0  0
  4  5  1  0  0  0  0
  5  6  2  0  0  0  0
  5 36  1  0  0  0  0
  6  7  1  0  0  0  0
  6 37  1  0  0  0  0
  7  8  2  0  0  0  0
  7 38  1  0  0  0  0
  8  9  1  0  0  0  0
  8 39  1  0  0  0  0
  9 40  1  0  0  0  0
 10 11  1  0  0  0  0
 10 41  1  0  0  0  0
 11 12  2  0  0  0  0
 11 13  1  0  0  0  0
 13 29  2  0  0  0  0
 13 14  1  0  0  0  0
 14 18  1  0  0  0  0
 14 15  2  0  0  0  0
 15 16  1  0  0  0  0
 15 20  1  0  0  0  0
 16 17  1  0  0  0  0
 16 19  1  0  0  0  0
 16 42  1  6  0  0  0
 17 18  1  0  0  0  0
 17 19  1  0  0  0  0
 17 43  1  6  0  0  0
 18 44  1  0  0  0  0
 18 45  1  0  0  0  0
 19 46  1  0  0  0  0
 19 47  1  0  0  0  0
 20 21  1  0  0  0  0
 20 29  1  0  0  0  0
 21 26  2  0  0  0  0
 21 22  1  0  0  0  0
 22 23  2  0  0  0  0
 22 48  1  0  0  0  0
 23 24  1  0  0  0  0
 23 49  1  0  0  0  0
 24 25  2  0  0  0  0
 24 28  1  0  0  0  0
 25 26  1  0  0  0  0
 25 50  1  0  0  0  0
 26 27  1  0  0  0  0
M  END
$$$$
CHEMBL177393_5ZTY
 OpenBabel12022418123D

 53 57  0  0  1  0  0  0  0  0999 V2000
    1.1332    0.4027    0.0515 C   0  0  0  0  0  0  0  0  0  0  0  0
    2.6092    0.1996   -0.0578 C   0  0  0  0  0  0  0  0  0  0  0  0
    3.6044    1.1681   -0.1057 C   0  0  0  0  0  0  0  0  0  0  0  0
    3.4652    2.6462   -0.0583 C   0  0  0  0  0  0  0  0  0  0  0  0
    2.3933    3.2193    0.1176 O   0  0  0  0  0  0  0  0  0  0  0  0
    4.6912    3.3115   -0.1676 N   0  0  0  0  0  0  0  0  0  0  0  0
    4.8873    4.6590    0.3379 C   0  0  2  0  0  0  0  0  0  0  0  0
    4.5053    5.8449   -0.5793 C   0  0  0  0  0  0  0  0  0  0  0  0
    5.6788    6.8472   -0.3661 C   0  0  2  0  0  0  0  0  0  0  0  0
    6.8558    6.4153   -1.2467 C   0  0  0  0  0  0  0  0  0  0  0  0
    7.2163    5.0489   -0.6428 C   0  0  0  0  0  0  0  0  0  0  0  0
    6.3655    4.9903    0.6528 C   0  0  1  0  0  0  0  0  0  0  0  0
    6.2297    6.4721    1.0121 C   0  0  0  0  0  0  0  0  0  0  0  0
    4.8420    0.5611   -0.1580 N   0  0  0  0  0  0  0  0  0  0  0  0
    4.6475   -0.7476   -0.1131 C   0  0  0  0  0  0  0  0  0  0  0  0
    5.7480   -1.7306   -0.2726 C   0  0  0  0  0  0  0  0  0  0  0  0
    5.5828   -2.8418   -1.1250 C   0  0  0  0  0  0  0  0  0  0  0  0
    6.5820   -3.8092   -1.2682 C   0  0  0  0  0  0  0  0  0  0  0  0
    7.7968   -3.6456   -0.6156 C   0  0  0  0  0  0  0  0  0  0  0  0
    8.0108   -2.5374    0.1972 C   0  0  0  0  0  0  0  0  0  0  0  0
    6.9902   -1.5914    0.3800 C   0  0  0  0  0  0  0  0  0  0  0  0
    7.3354   -0.2951    1.4760 Cl  0  0  0  0  0  0  0  0  0  0  0  0
    9.0386   -4.8175   -0.8189 Cl  0  0  0  0  0  0  0  0  0  0  0  0
    3.2721   -1.0357   -0.0057 N   0  0  0  0  0  0  0  0  0  0  0  0
    2.6784   -2.3394    0.1447 C   0  0  0  0  0  0  0  0  0  0  0  0
    3.2950   -3.3202    0.9367 C   0  0  0  0  0  0  0  0  0  0  0  0
    2.7478   -4.6058    1.0395 C   0  0  0  0  0  0  0  0  0  0  0  0
    1.5626   -4.9107    0.3781 C   0  0  0  0  0  0  0  0  0  0  0  0
    0.9371   -3.9494   -0.4103 C   0  0  0  0  0  0  0  0  0  0  0  0
    1.5018   -2.6740   -0.5467 C   0  0  0  0  0  0  0  0  0  0  0  0
    0.8712   -6.4789    0.5354 Cl  0  0  0  0  0  0  0  0  0  0  0  0
    0.5837   -0.4861    0.3636 H   0  0  0  0  0  0  0  0  0  0  0  0
    0.7368    0.7299   -0.9143 H   0  0  0  0  0  0  0  0  0  0  0  0
    0.9017    1.1664    0.7979 H   0  0  0  0  0  0  0  0  0  0  0  0
    5.4773    2.6669   -0.1870 H   0  0  0  0  0  0  0  0  0  0  0  0
    4.2993    4.7432    1.2649 H   0  0  0  0  0  0  0  0  0  0  0  0
    3.5584    6.2910   -0.2570 H   0  0  0  0  0  0  0  0  0  0  0  0
    4.4089    5.5580   -1.6323 H   0  0  0  0  0  0  0  0  0  0  0  0
    5.4048    7.8975   -0.4900 H   0  0  0  0  0  0  0  0  0  0  0  0
    7.6975    7.1121   -1.1316 H   0  0  0  0  0  0  0  0  0  0  0  0
    6.6066    6.3634   -2.3099 H   0  0  0  0  0  0  0  0  0  0  0  0
    8.2877    5.0079   -0.4201 H   0  0  0  0  0  0  0  0  0  0  0  0
    6.9807    4.2371   -1.3378 H   0  0  0  0  0  0  0  0  0  0  0  0
    6.7969    4.3554    1.4293 H   0  0  0  0  0  0  0  0  0  0  0  0
    5.5254    6.6673    1.8271 H   0  0  0  0  0  0  0  0  0  0  0  0
    7.1905    6.9467    1.2447 H   0  0  0  0  0  0  0  0  0  0  0  0
    4.6572   -2.9853   -1.6796 H   0  0  0  0  0  0  0  0  0  0  0  0
    6.4024   -4.6812   -1.8930 H   0  0  0  0  0  0  0  0  0  0  0  0
    8.9687   -2.4122    0.6965 H   0  0  0  0  0  0  0  0  0  0  0  0
    4.1996   -3.1105    1.5030 H   0  0  0  0  0  0  0  0  0  0  0  0
    3.2487   -5.3605    1.6416 H   0  0  0  0  0  0  0  0  0  0  0  0
    0.0123   -4.1912   -0.9329 H   0  0  0  0  0  0  0  0  0  0  0  0
    1.0178   -1.9766   -1.2261 H   0  0  0  0  0  0  0  0  0  0  0  0
  1  2  1  0  0  0  0
  1 32  1  0  0  0  0
  1 33  1  0  0  0  0
  1 34  1  0  0  0  0
  2 24  1  0  0  0  0
  2  3  2  0  0  0  0
  3  4  1  0  0  0  0
  3 14  1  0  0  0  0
  4  5  2  0  0  0  0
  4  6  1  0  0  0  0
  6 35  1  0  0  0  0
  7  6  1  0  0  0  0
  7  8  1  0  0  0  0
  7 12  1  0  0  0  0
  7 36  1  1  0  0  0
  8 37  1  0  0  0  0
  8 38  1  0  0  0  0
  9  8  1  0  0  0  0
  9 10  1  0  0  0  0
  9 13  1  0  0  0  0
  9 39  1  6  0  0  0
 10 11  1  0  0  0  0
 10 40  1  0  0  0  0
 10 41  1  0  0  0  0
 11 42  1  0  0  0  0
 11 43  1  0  0  0  0
 12 11  1  0  0  0  0
 12 13  1  0  0  0  0
 12 44  1  1  0  0  0
 13 45  1  0  0  0  0
 13 46  1  0  0  0  0
 14 15  2  0  0  0  0
 15 16  1  0  0  0  0
 15 24  1  0  0  0  0
 16 21  2  0  0  0  0
 16 17  1  0  0  0  0
 17 18  2  0  0  0  0
 17 47  1  0  0  0  0
 18 19  1  0  0  0  0
 18 48  1  0  0  0  0
 19 20  2  0  0  0  0
 19 23  1  0  0  0  0
 20 21  1  0  0  0  0
 20 49  1  0  0  0  0
 21 22  1  0  0  0  0
 24 25  1  0  0  0  0
 25 30  2  0  0  0  0
 25 26  1  0  0  0  0
 26 27  2  0  0  0  0
 26 50  1  0  0  0  0
 27 28  1  0  0  0  0
 27 51  1  0  0  0  0
 28 29  2  0  0  0  0
 28 31  1  0  0  0  0
 29 30  1  0  0  0  0
 29 52  1  0  0  0  0
 30 53  1  0  0  0  0
M  END
$$$$
CHEMBL2380327_5ZTY
 OpenBabel12022418123D

 66 69  0  0  0  0  0  0  0  0999 V2000
    0.9747    0.0619    0.0502 C   0  0  0  0  0  0  0  0  0  0  0  0
    0.4278    0.0172    1.4816 C   0  0  0  0  0  0  0  0  0  0  0  0
   -1.1047   -0.0127    1.5167 C   0  0  0  0  0  0  0  0  0  0  0  0
   -1.6151   -0.0322    2.9597 C   0  0  0  0  0  0  0  0  0  0  0  0
   -3.1338   -0.0512    3.0318 C   0  0  0  0  0  0  0  0  0  0  0  0
    2.4529    0.0187    0.0457 N   0  0  0  0  0  0  0  0  0  0  0  0
    3.2481    1.1655    0.0791 C   0  0  0  0  0  0  0  0  0  0  0  0
    4.6021    1.1853    0.0770 C   0  0  0  0  0  0  0  0  0  0  0  0
    5.3090   -0.1214    0.0400 C   0  0  0  0  0  0  0  0  0  0  0  0
    6.5295   -0.2417    0.0014 O   0  0  0  0  0  0  0  0  0  0  0  0
    4.4555   -1.2425    0.0553 N   0  0  0  0  0  0  0  0  0  0  0  0
    3.0722   -1.1963    0.0458 C   0  0  0  0  0  0  0  0  0  0  0  0
    2.6496   -2.5011    0.0320 C   0  0  0  0  0  0  0  0  0  0  0  0
    3.8299   -3.2958    0.0434 C   0  0  0  0  0  0  0  0  0  0  0  0
    3.9035   -4.7648    0.0669 C   0  0  0  0  0  0  0  0  0  0  0  0
    2.8918   -5.4694    0.7538 C   0  0  0  0  0  0  0  0  0  0  0  0
    2.9087   -6.8629    0.8609 C   0  0  0  0  0  0  0  0  0  0  0  0
    3.9491   -7.5806    0.2884 C   0  0  0  0  0  0  0  0  0  0  0  0
    4.9516   -6.9102   -0.4073 C   0  0  0  0  0  0  0  0  0  0  0  0
    4.9339   -5.5063   -0.5543 C   0  0  0  0  0  0  0  0  0  0  0  0
    6.0308   -4.9132   -1.3996 C   0  0  0  0  0  0  0  0  0  0  0  0
    4.9231   -2.5154    0.0907 N   0  0  0  0  0  0  0  0  0  0  0  0
    5.3017    2.5092    0.1135 C   0  0  0  0  0  0  0  0  0  0  0  0
    4.6501    3.5548    0.1874 O   0  0  0  0  0  0  0  0  0  0  0  0
    6.6817    2.5065    0.0573 N   0  0  0  0  0  0  0  0  0  0  0  0
    7.4626    3.7556    0.0918 C   0  0  0  0  0  0  0  0  0  0  0  0
    7.5800    4.3207    1.5241 C   0  0  0  0  0  0  0  0  0  0  0  0
    8.9716    4.3562    2.1673 C   0  0  0  0  0  0  0  0  0  0  0  0
    9.8632    5.4921    1.6629 C   0  0  0  0  0  0  0  0  0  0  0  0
   10.4951    5.2702    0.2935 C   0  0  0  0  0  0  0  0  0  0  0  0
    9.5178    4.9484   -0.8319 C   0  0  0  0  0  0  0  0  0  0  0  0
    8.7930    3.6088   -0.6587 C   0  0  0  0  0  0  0  0  0  0  0  0
    0.6247    0.9706   -0.4572 H   0  0  0  0  0  0  0  0  0  0  0  0
    0.5637   -0.7744   -0.5302 H   0  0  0  0  0  0  0  0  0  0  0  0
    0.7915    0.8898    2.0367 H   0  0  0  0  0  0  0  0  0  0  0  0
    0.8129   -0.8690    2.0009 H   0  0  0  0  0  0  0  0  0  0  0  0
   -1.4715   -0.9004    0.9864 H   0  0  0  0  0  0  0  0  0  0  0  0
   -1.5063    0.8642    0.9947 H   0  0  0  0  0  0  0  0  0  0  0  0
   -1.2446    0.8503    3.4943 H   0  0  0  0  0  0  0  0  0  0  0  0
   -1.2224   -0.9138    3.4798 H   0  0  0  0  0  0  0  0  0  0  0  0
   -3.5621    0.8335    2.5503 H   0  0  0  0  0  0  0  0  0  0  0  0
   -3.4613   -0.0593    4.0766 H   0  0  0  0  0  0  0  0  0  0  0  0
   -3.5410   -0.9421    2.5430 H   0  0  0  0  0  0  0  0  0  0  0  0
    2.6724    2.0887    0.1054 H   0  0  0  0  0  0  0  0  0  0  0  0
    1.6277   -2.8535    0.0176 H   0  0  0  0  0  0  0  0  0  0  0  0
    2.0745   -4.9345    1.2383 H   0  0  0  0  0  0  0  0  0  0  0  0
    2.1150   -7.3782    1.3925 H   0  0  0  0  0  0  0  0  0  0  0  0
    3.9837   -8.6620    0.3856 H   0  0  0  0  0  0  0  0  0  0  0  0
    5.7596   -7.4883   -0.8524 H   0  0  0  0  0  0  0  0  0  0  0  0
    5.9205   -3.8496   -1.6039 H   0  0  0  0  0  0  0  0  0  0  0  0
    6.0344   -5.4028   -2.3809 H   0  0  0  0  0  0  0  0  0  0  0  0
    7.0020   -5.0739   -0.9207 H   0  0  0  0  0  0  0  0  0  0  0  0
    7.1742    1.6122    0.0391 H   0  0  0  0  0  0  0  0  0  0  0  0
    6.8601    4.4772   -0.4772 H   0  0  0  0  0  0  0  0  0  0  0  0
    6.9153    3.7628    2.1953 H   0  0  0  0  0  0  0  0  0  0  0  0
    7.1872    5.3465    1.5164 H   0  0  0  0  0  0  0  0  0  0  0  0
    9.4783    3.3887    2.0830 H   0  0  0  0  0  0  0  0  0  0  0  0
    8.8243    4.5262    3.2423 H   0  0  0  0  0  0  0  0  0  0  0  0
   10.6819    5.6303    2.3823 H   0  0  0  0  0  0  0  0  0  0  0  0
    9.3031    6.4353    1.6627 H   0  0  0  0  0  0  0  0  0  0  0  0
   11.2472    4.4752    0.3629 H   0  0  0  0  0  0  0  0  0  0  0  0
   11.0453    6.1821    0.0227 H   0  0  0  0  0  0  0  0  0  0  0  0
   10.0952    4.9083   -1.7642 H   0  0  0  0  0  0  0  0  0  0  0  0
    8.7996    5.7685   -0.9520 H   0  0  0  0  0  0  0  0  0  0  0  0
    8.5799    3.2088   -1.6587 H   0  0  0  0  0  0  0  0  0  0  0  0
    9.4444    2.8676   -0.1798 H   0  0  0  0  0  0  0  0  0  0  0  0
  1  2  1  0  0  0  0
  1  6  1  0  0  0  0
  1 33  1  0  0  0  0
  1 34  1  0  0  0  0
  2  3  1  0  0  0  0
  2 35  1  0  0  0  0
  2 36  1  0  0  0  0
  3  4  1  0  0  0  0
  3 37  1  0  0  0  0
  3 38  1  0  0  0  0
  4  5  1  0  0  0  0
  4 39  1  0  0  0  0
  4 40  1  0  0  0  0
  5 41  1  0  0  0  0
  5 42  1  0  0  0  0
  5 43  1  0  0  0  0
  6 12  1  0  0  0  0
  6  7  1  0  0  0  0
  7  8  2  0  0  0  0
  7 44  1  0  0  0  0
  8  9  1  0  0  0  0
  8 23  1  0  0  0  0
  9 10  2  0  0  0  0
  9 11  1  0  0  0  0
 11 22  1  0  0  0  0
 11 12  1  0  0  0  0
 12 13  2  0  0  0  0
 13 14  1  0  0  0  0
 13 45  1  0  0  0  0
 14 15  1  0  0  0  0
 14 22  2  0  0  0  0
 15 20  2  0  0  0  0
 15 16  1  0  0  0  0
 16 17  2  0  0  0  0
 16 46  1  0  0  0  0
 17 18  1  0  0  0  0
 17 47  1  0  0  0  0
 18 19  2  0  0  0  0
 18 48  1  0  0  0  0
 19 20  1  0  0  0  0
 19 49  1  0  0  0  0
 20 21  1  0  0  0  0
 21 50  1  0  0  0  0
 21 51  1  0  0  0  0
 21 52  1  0  0  0  0
 23 24  2  0  0  0  0
 23 25  1  0  0  0  0
 25 26  1  0  0  0  0
 25 53  1  0  0  0  0
 26 32  1  0  0  0  0
 26 27  1  0  0  0  0
 26 54  1  0  0  0  0
 27 28  1  0  0  0  0
 27 55  1  0  0  0  0
 27 56  1  0  0  0  0
 28 29  1  0  0  0  0
 28 57  1  0  0  0  0
 28 58  1  0  0  0  0
 29 30  1  0  0  0  0
 29 59  1  0  0  0  0
 29 60  1  0  0  0  0
 30 31  1  0  0  0  0
 30 61  1  0  0  0  0
 30 62  1  0  0  0  0
 31 32  1  0  0  0  0
 31 63  1  0  0  0  0
 31 64  1  0  0  0  0
 32 65  1  0  0  0  0
 32 66  1  0  0  0  0
M  END
$$$$
CHEMBL2381793_8GUT
 OpenBabel12022418123D

 63 66  0  0  0  0  0  0  0  0999 V2000
    1.1111    0.1041   -0.0924 C   0  0  0  0  0  0  0  0  0  0  0  0
    0.5652    0.0474    1.3386 C   0  0  0  0  0  0  0  0  0  0  0  0
   -0.9671    0.0126    1.3634 C   0  0  0  0  0  0  0  0  0  0  0  0
   -1.4970   -0.0011    2.7997 C   0  0  0  0  0  0  0  0  0  0  0  0
   -3.0179   -0.0218    2.8504 C   0  0  0  0  0  0  0  0  0  0  0  0
    2.5891    0.0465   -0.1015 N   0  0  0  0  0  0  0  0  0  0  0  0
    3.3854    1.1884   -0.0612 C   0  0  0  0  0  0  0  0  0  0  0  0
    4.7339    1.2017   -0.0516 C   0  0  0  0  0  0  0  0  0  0  0  0
    5.4407   -0.1095   -0.0767 C   0  0  0  0  0  0  0  0  0  0  0  0
    6.6618   -0.2323   -0.0975 O   0  0  0  0  0  0  0  0  0  0  0  0
    4.5823   -1.2305   -0.0795 N   0  0  0  0  0  0  0  0  0  0  0  0
    3.2027   -1.1720   -0.1018 C   0  0  0  0  0  0  0  0  0  0  0  0
    2.7617   -2.4672   -0.1286 C   0  0  0  0  0  0  0  0  0  0  0  0
    3.9234   -3.2815   -0.0566 C   0  0  0  0  0  0  0  0  0  0  0  0
    3.9886   -4.7520   -0.0433 C   0  0  0  0  0  0  0  0  0  0  0  0
    5.0618   -5.3793   -0.7048 C   0  0  0  0  0  0  0  0  0  0  0  0
    5.1566   -6.7731   -0.7787 C   0  0  0  0  0  0  0  0  0  0  0  0
    4.1787   -7.5703   -0.1944 C   0  0  0  0  0  0  0  0  0  0  0  0
    3.1179   -6.9732    0.4818 C   0  0  0  0  0  0  0  0  0  0  0  0
    3.0244   -5.5759    0.5712 C   0  0  0  0  0  0  0  0  0  0  0  0
    1.7001   -4.9770    1.5159 Cl  0  0  0  0  0  0  0  0  0  0  0  0
    5.0352   -2.5183   -0.0671 N   0  0  0  0  0  0  0  0  0  0  0  0
    5.4144    2.5325   -0.0288 C   0  0  0  0  0  0  0  0  0  0  0  0
    4.7569    3.5714    0.0271 O   0  0  0  0  0  0  0  0  0  0  0  0
    6.7919    2.5405   -0.0793 N   0  0  0  0  0  0  0  0  0  0  0  0
    7.5517    3.7990   -0.0620 C   0  0  0  0  0  0  0  0  0  0  0  0
    7.6533    4.3774    1.3653 C   0  0  0  0  0  0  0  0  0  0  0  0
    9.0407    4.4352    2.0101 C   0  0  0  0  0  0  0  0  0  0  0  0
    9.9170    5.5751    1.4908 C   0  0  0  0  0  0  0  0  0  0  0  0
   10.5677    5.3289    0.1349 C   0  0  0  0  0  0  0  0  0  0  0  0
    9.6060    4.9876   -0.9978 C   0  0  0  0  0  0  0  0  0  0  0  0
    8.8803    3.6520   -0.8122 C   0  0  0  0  0  0  0  0  0  0  0  0
    0.7721    1.0240   -0.5843 H   0  0  0  0  0  0  0  0  0  0  0  0
    0.6923   -0.7183   -0.6877 H   0  0  0  0  0  0  0  0  0  0  0  0
    0.9239    0.9189    1.8992 H   0  0  0  0  0  0  0  0  0  0  0  0
    0.9523   -0.8398    1.8550 H   0  0  0  0  0  0  0  0  0  0  0  0
   -1.3243   -0.8789    0.8333 H   0  0  0  0  0  0  0  0  0  0  0  0
   -1.3659    0.8857    0.8329 H   0  0  0  0  0  0  0  0  0  0  0  0
   -1.1362    0.8847    3.3353 H   0  0  0  0  0  0  0  0  0  0  0  0
   -1.1104   -0.8796    3.3295 H   0  0  0  0  0  0  0  0  0  0  0  0
   -3.4406    0.8583    2.3564 H   0  0  0  0  0  0  0  0  0  0  0  0
   -3.3604   -0.0243    3.8897 H   0  0  0  0  0  0  0  0  0  0  0  0
   -3.4160   -0.9169    2.3609 H   0  0  0  0  0  0  0  0  0  0  0  0
    2.8107    2.1130   -0.0416 H   0  0  0  0  0  0  0  0  0  0  0  0
    1.7328   -2.7909   -0.1806 H   0  0  0  0  0  0  0  0  0  0  0  0
    5.8376   -4.7772   -1.1770 H   0  0  0  0  0  0  0  0  0  0  0  0
    5.9956   -7.2323   -1.2962 H   0  0  0  0  0  0  0  0  0  0  0  0
    4.2458   -8.6538   -0.2542 H   0  0  0  0  0  0  0  0  0  0  0  0
    2.3646   -7.6041    0.9490 H   0  0  0  0  0  0  0  0  0  0  0  0
    7.2950    1.6530   -0.0641 H   0  0  0  0  0  0  0  0  0  0  0  0
    6.9421    4.5080   -0.6400 H   0  0  0  0  0  0  0  0  0  0  0  0
    6.9956    3.8133    2.0388 H   0  0  0  0  0  0  0  0  0  0  0  0
    7.2423    5.3962    1.3506 H   0  0  0  0  0  0  0  0  0  0  0  0
    9.5576    3.4723    1.9358 H   0  0  0  0  0  0  0  0  0  0  0  0
    8.8897    4.6149    3.0830 H   0  0  0  0  0  0  0  0  0  0  0  0
   10.7240    5.7441    2.2163 H   0  0  0  0  0  0  0  0  0  0  0  0
    9.3404    6.5077    1.4603 H   0  0  0  0  0  0  0  0  0  0  0  0
   11.3181    4.5345    0.2290 H   0  0  0  0  0  0  0  0  0  0  0  0
   11.1206    6.2357   -0.1445 H   0  0  0  0  0  0  0  0  0  0  0  0
   10.1964    4.9304   -1.9211 H   0  0  0  0  0  0  0  0  0  0  0  0
    8.8889    5.8047   -1.1431 H   0  0  0  0  0  0  0  0  0  0  0  0
    8.6638    3.2457   -1.8091 H   0  0  0  0  0  0  0  0  0  0  0  0
    9.5319    2.9130   -0.3303 H   0  0  0  0  0  0  0  0  0  0  0  0
  1  2  1  0  0  0  0
  1  6  1  0  0  0  0
  1 33  1  0  0  0  0
  1 34  1  0  0  0  0
  2  3  1  0  0  0  0
  2 35  1  0  0  0  0
  2 36  1  0  0  0  0
  3  4  1  0  0  0  0
  3 37  1  0  0  0  0
  3 38  1  0  0  0  0
  4  5  1  0  0  0  0
  4 39  1  0  0  0  0
  4 40  1  0  0  0  0
  5 41  1  0  0  0  0
  5 42  1  0  0  0  0
  5 43  1  0  0  0  0
  6 12  1  0  0  0  0
  6  7  1  0  0  0  0
  7  8  2  0  0  0  0
  7 44  1  0  0  0  0
  8  9  1  0  0  0  0
  8 23  1  0  0  0  0
  9 10  2  0  0  0  0
  9 11  1  0  0  0  0
 11 22  1  0  0  0  0
 11 12  1  0  0  0  0
 12 13  2  0  0  0  0
 13 14  1  0  0  0  0
 13 45  1  0  0  0  0
 14 15  1  0  0  0  0
 14 22  2  0  0  0  0
 15 20  2  0  0  0  0
 15 16  1  0  0  0  0
 16 17  2  0  0  0  0
 16 46  1  0  0  0  0
 17 18  1  0  0  0  0
 17 47  1  0  0  0  0
 18 19  2  0  0  0  0
 18 48  1  0  0  0  0
 19 20  1  0  0  0  0
 19 49  1  0  0  0  0
 20 21  1  0  0  0  0
 23 24  2  0  0  0  0
 23 25  1  0  0  0  0
 25 26  1  0  0  0  0
 25 50  1  0  0  0  0
 26 32  1  0  0  0  0
 26 27  1  0  0  0  0
 26 51  1  0  0  0  0
 27 28  1  0  0  0  0
 27 52  1  0  0  0  0
 27 53  1  0  0  0  0
 28 29  1  0  0  0  0
 28 54  1  0  0  0  0
 28 55  1  0  0  0  0
 29 30  1  0  0  0  0
 29 56  1  0  0  0  0
 29 57  1  0  0  0  0
 30 31  1  0  0  0  0
 30 58  1  0  0  0  0
 30 59  1  0  0  0  0
 31 32  1  0  0  0  0
 31 60  1  0  0  0  0
 31 61  1  0  0  0  0
 32 62  1  0  0  0  0
 32 63  1  0  0  0  0
M  END
$$$$
CHEMBL3647305_8GUT
 OpenBabel12022418123D

 63 65  0  0  0  0  0  0  0  0999 V2000
    3.0199   -0.4646   -3.2509 C   0  0  0  0  0  0  0  0  0  0  0  0
    2.6280    0.6027   -2.2279 C   0  0  0  0  0  0  0  0  0  0  0  0
    1.0999    0.7070   -2.1713 C   0  0  0  0  0  0  0  0  0  0  0  0
    3.2267    0.3144   -0.8302 C   0  0  0  0  0  0  0  0  0  0  0  0
    4.6962    0.3004   -0.8625 N   0  0  0  0  0  0  0  0  0  0  0  0
    5.4516    1.4663   -0.9512 C   0  0  0  0  0  0  0  0  0  0  0  0
    6.7669    1.2952   -1.1963 C   0  0  0  0  0  0  0  0  0  0  0  0
    7.8848    2.3161   -1.3063 C   0  0  0  0  0  0  0  0  0  0  0  0
    7.3850    3.7504   -1.0466 C   0  0  0  0  0  0  0  0  0  0  0  0
    8.9771    1.9989   -0.2629 C   0  0  0  0  0  0  0  0  0  0  0  0
    8.4998    2.2672   -2.7178 C   0  0  0  0  0  0  0  0  0  0  0  0
    7.1137   -0.4176   -1.3893 S   0  0  0  0  0  0  0  0  0  0  0  0
    5.4524   -0.8746   -0.9686 C   0  0  0  0  0  0  0  0  0  0  0  0
    5.0317   -2.0814   -0.8123 N   0  0  0  0  0  0  0  0  0  0  0  0
    5.8431   -3.1978   -0.9496 C   0  0  0  0  0  0  0  0  0  0  0  0
    7.0300   -3.2708   -0.6735 O   0  0  0  0  0  0  0  0  0  0  0  0
    5.0808   -4.4335   -1.3608 C   0  0  0  0  0  0  0  0  0  0  0  0
    3.6804   -4.2757   -1.4780 C   0  0  0  0  0  0  0  0  0  0  0  0
    2.8235   -5.3420   -1.7449 C   0  0  0  0  0  0  0  0  0  0  0  0
    1.3344   -5.1205   -1.8070 C   0  0  0  0  0  0  0  0  0  0  0  0
    0.9709   -3.8258   -1.5836 F   0  0  0  0  0  0  0  0  0  0  0  0
    0.8074   -5.4516   -3.0160 F   0  0  0  0  0  0  0  0  0  0  0  0
    0.6640   -5.8594   -0.8822 F   0  0  0  0  0  0  0  0  0  0  0  0
    3.3820   -6.6047   -1.9089 C   0  0  0  0  0  0  0  0  0  0  0  0
    4.7683   -6.7821   -1.8216 C   0  0  0  0  0  0  0  0  0  0  0  0
    5.6471   -5.7075   -1.5792 C   0  0  0  0  0  0  0  0  0  0  0  0
    7.0185   -5.8817   -1.5555 O   0  0  0  0  0  0  0  0  0  0  0  0
    7.4956   -7.1271   -2.0993 C   0  0  0  0  0  0  0  0  0  0  0  0
    9.0085   -7.1458   -2.3175 C   0  0  0  0  0  0  0  0  0  0  0  0
    9.4052   -8.3293   -3.0668 N   0  0  0  0  0  0  0  0  0  0  0  0
    9.3872   -8.4682   -4.4294 C   0  0  0  0  0  0  0  0  0  0  0  0
    9.7610   -9.7697   -4.6642 C   0  0  0  0  0  0  0  0  0  0  0  0
   10.0081  -10.4216   -3.4844 N   0  0  0  0  0  0  0  0  0  0  0  0
    9.7978   -9.5278   -2.5421 C   0  0  0  0  0  0  0  0  0  0  0  0
    2.5761   -0.2478   -4.2284 H   0  0  0  0  0  0  0  0  0  0  0  0
    2.6771   -1.4549   -2.9359 H   0  0  0  0  0  0  0  0  0  0  0  0
    4.1032   -0.5013   -3.3932 H   0  0  0  0  0  0  0  0  0  0  0  0
    3.0094    1.5680   -2.5870 H   0  0  0  0  0  0  0  0  0  0  0  0
    0.6506   -0.2021   -1.7573 H   0  0  0  0  0  0  0  0  0  0  0  0
    0.6835    0.8565   -3.1747 H   0  0  0  0  0  0  0  0  0  0  0  0
    0.7839    1.5563   -1.5566 H   0  0  0  0  0  0  0  0  0  0  0  0
    2.8356   -0.6318   -0.4339 H   0  0  0  0  0  0  0  0  0  0  0  0
    2.8921    1.0954   -0.1339 H   0  0  0  0  0  0  0  0  0  0  0  0
    4.9444    2.4075   -0.8078 H   0  0  0  0  0  0  0  0  0  0  0  0
    6.9747    3.8552   -0.0353 H   0  0  0  0  0  0  0  0  0  0  0  0
    6.6059    4.0416   -1.7601 H   0  0  0  0  0  0  0  0  0  0  0  0
    8.2039    4.4729   -1.1436 H   0  0  0  0  0  0  0  0  0  0  0  0
    8.5756    2.0365    0.7571 H   0  0  0  0  0  0  0  0  0  0  0  0
    9.8033    2.7152   -0.3260 H   0  0  0  0  0  0  0  0  0  0  0  0
    9.4123    1.0029   -0.4079 H   0  0  0  0  0  0  0  0  0  0  0  0
    7.7488    2.4810   -3.4872 H   0  0  0  0  0  0  0  0  0  0  0  0
    8.9350    1.2867   -2.9441 H   0  0  0  0  0  0  0  0  0  0  0  0
    9.3053    3.0024   -2.8215 H   0  0  0  0  0  0  0  0  0  0  0  0
    3.2277   -3.2951   -1.3355 H   0  0  0  0  0  0  0  0  0  0  0  0
    2.7463   -7.4671   -2.1009 H   0  0  0  0  0  0  0  0  0  0  0  0
    5.1280   -7.8010   -1.9417 H   0  0  0  0  0  0  0  0  0  0  0  0
    7.0144   -7.3046   -3.0694 H   0  0  0  0  0  0  0  0  0  0  0  0
    7.2409   -7.9426   -1.4101 H   0  0  0  0  0  0  0  0  0  0  0  0
    9.5487   -7.1489   -1.3646 H   0  0  0  0  0  0  0  0  0  0  0  0
    9.3435   -6.2670   -2.8795 H   0  0  0  0  0  0  0  0  0  0  0  0
    9.1086   -7.6636   -5.0966 H   0  0  0  0  0  0  0  0  0  0  0  0
    9.8522  -10.2771   -5.6181 H   0  0  0  0  0  0  0  0  0  0  0  0
    9.9056   -9.7063   -1.4792 H   0  0  0  0  0  0  0  0  0  0  0  0
  1  2  1  0  0  0  0
  1 35  1  0  0  0  0
  1 36  1  0  0  0  0
  1 37  1  0  0  0  0
  2  3  1  0  0  0  0
  2  4  1  0  0  0  0
  2 38  1  0  0  0  0
  3 39  1  0  0  0  0
  3 40  1  0  0  0  0
  3 41  1  0  0  0  0
  4  5  1  0  0  0  0
  4 42  1  0  0  0  0
  4 43  1  0  0  0  0
  5 13  1  0  0  0  0
  5  6  1  0  0  0  0
  6  7  2  0  0  0  0
  6 44  1  0  0  0  0
  7  8  1  0  0  0  0
  7 12  1  0  0  0  0
  8  9  1  0  0  0  0
  8 10  1  0  0  0  0
  8 11  1  0  0  0  0
  9 45  1  0  0  0  0
  9 46  1  0  0  0  0
  9 47  1  0  0  0  0
 10 48  1  0  0  0  0
 10 49  1  0  0  0  0
 10 50  1  0  0  0  0
 11 51  1  0  0  0  0
 11 52  1  0  0  0  0
 11 53  1  0  0  0  0
 12 13  1  0  0  0  0
 13 14  2  0  0  0  0
 14 15  1  0  0  0  0
 15 16  2  0  0  0  0
 15 17  1  0  0  0  0
 17 26  2  0  0  0  0
 17 18  1  0  0  0  0
 18 19  2  0  0  0  0
 18 54  1  0  0  0  0
 19 20  1  0  0  0  0
 19 24  1  0  0  0  0
 20 21  1  0  0  0  0
 20 22  1  0  0  0  0
 20 23  1  0  0  0  0
 24 25  2  0  0  0  0
 24 55  1  0  0  0  0
 25 26  1  0  0  0  0
 25 56  1  0  0  0  0
 26 27  1  0  0  0  0
 27 28  1  0  0  0  0
 28 29  1  0  0  0  0
 28 57  1  0  0  0  0
 28 58  1  0  0  0  0
 29 30  1  0  0  0  0
 29 59  1  0  0  0  0
 29 60  1  0  0  0  0
 30 34  1  0  0  0  0
 30 31  1  0  0  0  0
 31 32  2  0  0  0  0
 31 61  1  0  0  0  0
 32 33  1  0  0  0  0
 32 62  1  0  0  0  0
 33 34  2  0  0  0  0
 34 63  1  0  0  0  0
M  END
$$$$
CHEMBL216276_8GUQ
 OpenBabel12022418123D

 52 56  0  0  0  0  0  0  0  0999 V2000
    0.9857   -0.2228   -0.0172 C   0  0  0  0  0  0  0  0  0  0  0  0
    2.4872   -0.1760   -0.0637 C   0  0  0  0  0  0  0  0  0  0  0  0
    3.0996    1.0853   -0.1853 C   0  0  0  0  0  0  0  0  0  0  0  0
    4.4858    1.2054   -0.2342 C   0  0  0  0  0  0  0  0  0  0  0  0
    5.2552    0.0699   -0.0907 C   0  0  0  0  0  0  0  0  0  0  0  0
    6.6660   -0.1478   -0.0248 C   0  0  0  0  0  0  0  0  0  0  0  0
    6.9536   -1.4843    0.0242 C   0  0  0  0  0  0  0  0  0  0  0  0
    5.7302   -2.3512    0.0427 C   0  0  0  0  0  0  0  0  0  0  0  0
    4.6705   -1.2178   -0.0069 C   0  0  0  0  0  0  0  0  0  0  0  0
    3.2803   -1.3423    0.0072 C   0  0  0  0  0  0  0  0  0  0  0  0
    8.3694   -1.5604    0.0089 C   0  0  0  0  0  0  0  0  0  0  0  0
    9.2339   -2.7688    0.0424 C   0  0  0  0  0  0  0  0  0  0  0  0
    8.7586   -3.8977    0.1275 O   0  0  0  0  0  0  0  0  0  0  0  0
   10.6008   -2.4746   -0.0417 N   0  0  0  0  0  0  0  0  0  0  0  0
   11.6092   -3.4874    0.0374 N   0  0  0  0  0  0  0  0  0  0  0  0
   11.9544   -3.9950   -1.3026 C   0  0  0  0  0  0  0  0  0  0  0  0
   13.0008   -5.1147   -1.2418 C   0  0  0  0  0  0  0  0  0  0  0  0
   14.2560   -4.6752   -0.4993 C   0  0  0  0  0  0  0  0  0  0  0  0
   13.8861   -4.0930    0.8599 C   0  0  0  0  0  0  0  0  0  0  0  0
   12.8152   -3.0008    0.7339 C   0  0  0  0  0  0  0  0  0  0  0  0
    8.9010   -0.3072   -0.0561 N   0  0  0  0  0  0  0  0  0  0  0  0
    7.8324    0.5518   -0.0324 N   0  0  0  0  0  0  0  0  0  0  0  0
    7.9782    1.9620    0.0224 C   0  0  0  0  0  0  0  0  0  0  0  0
    8.9077    2.6490   -0.7635 C   0  0  0  0  0  0  0  0  0  0  0  0
    8.8671    4.0506   -0.8062 C   0  0  0  0  0  0  0  0  0  0  0  0
    7.9203    4.7551   -0.0617 C   0  0  0  0  0  0  0  0  0  0  0  0
    7.0428    4.0817    0.7772 C   0  0  0  0  0  0  0  0  0  0  0  0
    7.0928    2.6893    0.8424 C   0  0  0  0  0  0  0  0  0  0  0  0
    7.8193    6.4665   -0.1983 Cl  0  0  0  0  0  0  0  0  0  0  0  0
   10.0360    1.8866   -1.8286 Cl  0  0  0  0  0  0  0  0  0  0  0  0
    0.6069   -1.2476    0.0045 H   0  0  0  0  0  0  0  0  0  0  0  0
    0.5678    0.2747   -0.9009 H   0  0  0  0  0  0  0  0  0  0  0  0
    0.6225    0.2973    0.8773 H   0  0  0  0  0  0  0  0  0  0  0  0
    2.4874    1.9844   -0.2477 H   0  0  0  0  0  0  0  0  0  0  0  0
    4.9131    2.1922   -0.3782 H   0  0  0  0  0  0  0  0  0  0  0  0
    5.6383   -2.9290    0.9643 H   0  0  0  0  0  0  0  0  0  0  0  0
    5.6556   -2.9750   -0.8519 H   0  0  0  0  0  0  0  0  0  0  0  0
    2.8131   -2.3202    0.0737 H   0  0  0  0  0  0  0  0  0  0  0  0
   10.8495   -1.4888   -0.1156 H   0  0  0  0  0  0  0  0  0  0  0  0
   12.3309   -3.1809   -1.9363 H   0  0  0  0  0  0  0  0  0  0  0  0
   11.0574   -4.3962   -1.7873 H   0  0  0  0  0  0  0  0  0  0  0  0
   13.2694   -5.4283   -2.2579 H   0  0  0  0  0  0  0  0  0  0  0  0
   12.5746   -5.9930   -0.7407 H   0  0  0  0  0  0  0  0  0  0  0  0
   14.7925   -3.9224   -1.0904 H   0  0  0  0  0  0  0  0  0  0  0  0
   14.9388   -5.5256   -0.3741 H   0  0  0  0  0  0  0  0  0  0  0  0
   14.7842   -3.6832    1.3369 H   0  0  0  0  0  0  0  0  0  0  0  0
   13.5211   -4.8973    1.5108 H   0  0  0  0  0  0  0  0  0  0  0  0
   12.5494   -2.6654    1.7434 H   0  0  0  0  0  0  0  0  0  0  0  0
   13.2436   -2.1374    0.2070 H   0  0  0  0  0  0  0  0  0  0  0  0
    9.5495    4.5943   -1.4535 H   0  0  0  0  0  0  0  0  0  0  0  0
    6.3041    4.6243    1.3630 H   0  0  0  0  0  0  0  0  0  0  0  0
    6.4104    2.1819    1.5238 H   0  0  0  0  0  0  0  0  0  0  0  0
  1  2  1  0  0  0  0
  1 31  1  0  0  0  0
  1 32  1  0  0  0  0
  1 33  1  0  0  0  0
  2 10  2  0  0  0  0
  2  3  1  0  0  0  0
  3  4  2  0  0  0  0
  3 34  1  0  0  0  0
  4  5  1  0  0  0  0
  4 35  1  0  0  0  0
  5  9  2  0  0  0  0
  5  6  1  0  0  0  0
  6 22  1  0  0  0  0
  6  7  2  0  0  0  0
  7  8  1  0  0  0  0
  7 11  1  0  0  0  0
  8  9  1  0  0  0  0
  8 36  1  0  0  0  0
  8 37  1  0  0  0  0
  9 10  1  0  0  0  0
 10 38  1  0  0  0  0
 11 12  1  0  0  0  0
 11 21  2  0  0  0  0
 12 13  2  0  0  0  0
 12 14  1  0  0  0  0
 14 15  1  0  0  0  0
 14 39  1  0  0  0  0
 15 20  1  0  0  0  0
 15 16  1  0  0  0  0
 16 17  1  0  0  0  0
 16 40  1  0  0  0  0
 16 41  1  0  0  0  0
 17 18  1  0  0  0  0
 17 42  1  0  0  0  0
 17 43  1  0  0  0  0
 18 19  1  0  0  0  0
 18 44  1  0  0  0  0
 18 45  1  0  0  0  0
 19 20  1  0  0  0  0
 19 46  1  0  0  0  0
 19 47  1  0  0  0  0
 20 48  1  0  0  0  0
 20 49  1  0  0  0  0
 21 22  1  0  0  0  0
 22 23  1  0  0  0  0
 23 28  2  0  0  0  0
 23 24  1  0  0  0  0
 24 25  2  0  0  0  0
 24 30  1  0  0  0  0
 25 26  1  0  0  0  0
 25 50  1  0  0  0  0
 26 27  2  0  0  0  0
 26 29  1  0  0  0  0
 27 28  1  0  0  0  0
 27 51  1  0  0  0  0
 28 52  1  0  0  0  0
M  END
$$$$
CHEMBL2022361_8GUT
 OpenBabel12022418123D

 51 54  0  0  0  0  0  0  0  0999 V2000
    2.5922   -0.9442    1.1996 O   0  0  0  0  0  0  0  0  0  0  0  0
    2.1070   -0.5295    0.1522 C   0  0  0  0  0  0  0  0  0  0  0  0
    2.7003   -0.9017   -1.1841 C   0  0  0  0  0  0  0  0  0  0  0  0
    3.7442   -1.7461   -1.1774 C   0  0  0  0  0  0  0  0  0  0  0  0
    4.5511   -1.9607   -2.3766 C   0  0  0  0  0  0  0  0  0  0  0  0
    5.6989   -2.7630   -2.3014 C   0  0  0  0  0  0  0  0  0  0  0  0
    6.5707   -2.8481   -3.3850 C   0  0  0  0  0  0  0  0  0  0  0  0
    6.2911   -2.1448   -4.5514 C   0  0  0  0  0  0  0  0  0  0  0  0
    5.1296   -1.3714   -4.6445 C   0  0  0  0  0  0  0  0  0  0  0  0
    4.2434   -1.2714   -3.5607 C   0  0  0  0  0  0  0  0  0  0  0  0
    3.0482   -0.4901   -3.6052 N   0  0  0  0  0  0  0  0  0  0  0  0
    2.6201    0.1558   -4.8481 C   0  0  0  0  0  0  0  0  0  0  0  0
    3.1441    1.5691   -5.0469 C   0  0  0  0  0  0  0  0  0  0  0  0
    3.2004    2.4886   -3.9851 C   0  0  0  0  0  0  0  0  0  0  0  0
    3.5215    3.8266   -4.2120 C   0  0  0  0  0  0  0  0  0  0  0  0
    3.7904    4.2539   -5.5051 C   0  0  0  0  0  0  0  0  0  0  0  0
    3.7642    3.3646   -6.5701 C   0  0  0  0  0  0  0  0  0  0  0  0
    3.4447    2.0234   -6.3439 C   0  0  0  0  0  0  0  0  0  0  0  0
    4.0490    5.5487   -5.7294 F   0  0  0  0  0  0  0  0  0  0  0  0
    2.2336   -0.3316   -2.4821 C   0  0  0  0  0  0  0  0  0  0  0  0
    1.1694    0.2917   -2.5163 O   0  0  0  0  0  0  0  0  0  0  0  0
    1.0422    0.3384    0.1109 N   0  0  0  0  0  0  0  0  0  0  0  0
    0.3667    0.9300    1.2659 C   0  0  0  0  0  0  0  0  0  0  0  0
   -0.2493   -0.1190    2.1961 C   0  0  0  0  0  0  0  0  0  0  0  0
   -0.9637    0.5166    3.3877 C   0  0  0  0  0  0  0  0  0  0  0  0
   -0.0529    1.4794    4.1429 C   0  0  0  0  0  0  0  0  0  0  0  0
    0.5027    2.5524    3.2126 C   0  0  0  0  0  0  0  0  0  0  0  0
    1.2504    1.9329    2.0286 C   0  0  0  0  0  0  0  0  0  0  0  0
    4.0869   -2.2068   -0.2548 H   0  0  0  0  0  0  0  0  0  0  0  0
    5.9428   -3.2988   -1.3864 H   0  0  0  0  0  0  0  0  0  0  0  0
    7.4799   -3.4395   -3.3085 H   0  0  0  0  0  0  0  0  0  0  0  0
    6.9843   -2.1855   -5.3888 H   0  0  0  0  0  0  0  0  0  0  0  0
    4.9694   -0.8314   -5.5718 H   0  0  0  0  0  0  0  0  0  0  0  0
    1.5245    0.2191   -4.8645 H   0  0  0  0  0  0  0  0  0  0  0  0
    2.8720   -0.4845   -5.7017 H   0  0  0  0  0  0  0  0  0  0  0  0
    2.9618    2.1879   -2.9680 H   0  0  0  0  0  0  0  0  0  0  0  0
    3.5371    4.5387   -3.3928 H   0  0  0  0  0  0  0  0  0  0  0  0
    3.9765    3.7257   -7.5731 H   0  0  0  0  0  0  0  0  0  0  0  0
    3.4022    1.3443   -7.1931 H   0  0  0  0  0  0  0  0  0  0  0  0
    0.7001    0.6120   -0.8120 H   0  0  0  0  0  0  0  0  0  0  0  0
   -0.4609    1.5074    0.8280 H   0  0  0  0  0  0  0  0  0  0  0  0
    0.5211   -0.7995    2.5750 H   0  0  0  0  0  0  0  0  0  0  0  0
   -0.9601   -0.7364    1.6337 H   0  0  0  0  0  0  0  0  0  0  0  0
   -1.3143   -0.2683    4.0667 H   0  0  0  0  0  0  0  0  0  0  0  0
   -1.8525    1.0560    3.0375 H   0  0  0  0  0  0  0  0  0  0  0  0
    0.7757    0.9230    4.5980 H   0  0  0  0  0  0  0  0  0  0  0  0
   -0.6099    1.9496    4.9618 H   0  0  0  0  0  0  0  0  0  0  0  0
    1.1724    3.2160    3.7717 H   0  0  0  0  0  0  0  0  0  0  0  0
   -0.3223    3.1745    2.8420 H   0  0  0  0  0  0  0  0  0  0  0  0
    1.5792    2.7331    1.3540 H   0  0  0  0  0  0  0  0  0  0  0  0
    2.1596    1.4431    2.3967 H   0  0  0  0  0  0  0  0  0  0  0  0
  1  2  2  0  0  0  0
  2  3  1  0  0  0  0
  2 22  1  0  0  0  0
  3 20  1  0  0  0  0
  3  4  2  0  0  0  0
  4  5  1  0  0  0  0
  4 29  1  0  0  0  0
  5 10  2  0  0  0  0
  5  6  1  0  0  0  0
  6  7  2  0  0  0  0
  6 30  1  0  0  0  0
  7  8  1  0  0  0  0
  7 31  1  0  0  0  0
  8  9  2  0  0  0  0
  8 32  1  0  0  0  0
  9 10  1  0  0  0  0
  9 33  1  0  0  0  0
 10 11  1  0  0  0  0
 11 12  1  0  0  0  0
 11 20  1  0  0  0  0
 12 13  1  0  0  0  0
 12 34  1  0  0  0  0
 12 35  1  0  0  0  0
 13 18  2  0  0  0  0
 13 14  1  0  0  0  0
 14 15  2  0  0  0  0
 14 36  1  0  0  0  0
 15 16  1  0  0  0  0
 15 37  1  0  0  0  0
 16 17  2  0  0  0  0
 16 19  1  0  0  0  0
 17 18  1  0  0  0  0
 17 38  1  0  0  0  0
 18 39  1  0  0  0  0
 20 21  2  0  0  0  0
 22 23  1  0  0  0  0
 22 40  1  0  0  0  0
 23 28  1  0  0  0  0
 23 24  1  0  0  0  0
 23 41  1  0  0  0  0
 24 25  1  0  0  0  0
 24 42  1  0  0  0  0
 24 43  1  0  0  0  0
 25 26  1  0  0  0  0
 25 44  1  0  0  0  0
 25 45  1  0  0  0  0
 26 27  1  0  0  0  0
 26 46  1  0  0  0  0
 26 47  1  0  0  0  0
 27 28  1  0  0  0  0
 27 48  1  0  0  0  0
 27 49  1  0  0  0  0
 28 50  1  0  0  0  0
 28 51  1  0  0  0  0
M  END
$$$$
CHEMBL2022363_8GUT
 OpenBabel12022418123D

 54 57  0  0  0  0  0  0  0  0999 V2000
    2.5541   -0.7973    1.4491 O   0  0  0  0  0  0  0  0  0  0  0  0
    2.1354   -0.4560    0.3490 C   0  0  0  0  0  0  0  0  0  0  0  0
    2.7697   -0.9444   -0.9286 C   0  0  0  0  0  0  0  0  0  0  0  0
    3.8507   -1.7313   -0.8159 C   0  0  0  0  0  0  0  0  0  0  0  0
    4.6644   -2.0692   -1.9844 C   0  0  0  0  0  0  0  0  0  0  0  0
    5.8435   -2.8098   -1.8178 C   0  0  0  0  0  0  0  0  0  0  0  0
    6.7037   -3.0164   -2.8945 C   0  0  0  0  0  0  0  0  0  0  0  0
    6.3830   -2.4955   -4.1431 C   0  0  0  0  0  0  0  0  0  0  0  0
    5.1932   -1.7834   -4.3225 C   0  0  0  0  0  0  0  0  0  0  0  0
    4.3168   -1.5646   -3.2488 C   0  0  0  0  0  0  0  0  0  0  0  0
    3.0932   -0.8436   -3.3862 N   0  0  0  0  0  0  0  0  0  0  0  0
    2.6188   -0.4075   -4.6995 C   0  0  0  0  0  0  0  0  0  0  0  0
    3.0851    0.9729   -5.1286 C   0  0  0  0  0  0  0  0  0  0  0  0
    3.1438    2.0507   -4.2272 C   0  0  0  0  0  0  0  0  0  0  0  0
    3.4088    3.3443   -4.6717 C   0  0  0  0  0  0  0  0  0  0  0  0
    3.6179    3.5735   -6.0262 C   0  0  0  0  0  0  0  0  0  0  0  0
    3.5903    2.5254   -6.9365 C   0  0  0  0  0  0  0  0  0  0  0  0
    3.3241    1.2278   -6.4909 C   0  0  0  0  0  0  0  0  0  0  0  0
    3.8263    4.8227   -6.4596 F   0  0  0  0  0  0  0  0  0  0  0  0
    2.2859   -0.5604   -2.2867 C   0  0  0  0  0  0  0  0  0  0  0  0
    1.2089    0.0352   -2.3918 O   0  0  0  0  0  0  0  0  0  0  0  0
    1.0988    0.4249    0.1801 N   0  0  0  0  0  0  0  0  0  0  0  0
    0.3426    1.0612    1.2690 C   0  0  0  0  0  0  0  0  0  0  0  0
    0.9306    2.4377    1.6092 C   0  0  0  0  0  0  0  0  0  0  0  0
    0.5328    3.5829    0.6753 C   0  0  0  0  0  0  0  0  0  0  0  0
   -0.7840    4.2508    1.0652 C   0  0  0  0  0  0  0  0  0  0  0  0
   -2.0282    3.4083    0.8170 C   0  0  0  0  0  0  0  0  0  0  0  0
   -2.0458    2.0663    1.5499 C   0  0  0  0  0  0  0  0  0  0  0  0
   -1.1454    1.0243    0.8944 C   0  0  0  0  0  0  0  0  0  0  0  0
    4.2108   -2.0626    0.1562 H   0  0  0  0  0  0  0  0  0  0  0  0
    6.1179   -3.2049   -0.8418 H   0  0  0  0  0  0  0  0  0  0  0  0
    7.6337   -3.5617   -2.7531 H   0  0  0  0  0  0  0  0  0  0  0  0
    7.0646   -2.6325   -4.9798 H   0  0  0  0  0  0  0  0  0  0  0  0
    5.0003   -1.3854   -5.3132 H   0  0  0  0  0  0  0  0  0  0  0  0
    1.5210   -0.3841   -4.6982 H   0  0  0  0  0  0  0  0  0  0  0  0
    2.8770   -1.1639   -5.4489 H   0  0  0  0  0  0  0  0  0  0  0  0
    2.9508    1.9040   -3.1673 H   0  0  0  0  0  0  0  0  0  0  0  0
    3.4272    4.1768   -3.9760 H   0  0  0  0  0  0  0  0  0  0  0  0
    3.7509    2.7299   -7.9900 H   0  0  0  0  0  0  0  0  0  0  0  0
    3.2740    0.4232   -7.2214 H   0  0  0  0  0  0  0  0  0  0  0  0
    0.8257    0.6537   -0.7752 H   0  0  0  0  0  0  0  0  0  0  0  0
    0.4837    0.4371    2.1603 H   0  0  0  0  0  0  0  0  0  0  0  0
    2.0264    2.3661    1.6159 H   0  0  0  0  0  0  0  0  0  0  0  0
    0.6475    2.7034    2.6373 H   0  0  0  0  0  0  0  0  0  0  0  0
    0.5086    3.2518   -0.3701 H   0  0  0  0  0  0  0  0  0  0  0  0
    1.3125    4.3522    0.7395 H   0  0  0  0  0  0  0  0  0  0  0  0
   -0.8847    5.1799    0.4894 H   0  0  0  0  0  0  0  0  0  0  0  0
   -0.7516    4.5515    2.1202 H   0  0  0  0  0  0  0  0  0  0  0  0
   -2.1540    3.2499   -0.2608 H   0  0  0  0  0  0  0  0  0  0  0  0
   -2.9001    3.9900    1.1417 H   0  0  0  0  0  0  0  0  0  0  0  0
   -3.0750    1.6873    1.4971 H   0  0  0  0  0  0  0  0  0  0  0  0
   -1.8140    2.1890    2.6123 H   0  0  0  0  0  0  0  0  0  0  0  0
   -1.5211    0.0273    1.1613 H   0  0  0  0  0  0  0  0  0  0  0  0
   -1.2693    1.0894   -0.1952 H   0  0  0  0  0  0  0  0  0  0  0  0
  1  2  2  0  0  0  0
  2  3  1  0  0  0  0
  2 22  1  0  0  0  0
  3 20  1  0  0  0  0
  3  4  2  0  0  0  0
  4  5  1  0  0  0  0
  4 30  1  0  0  0  0
  5 10  2  0  0  0  0
  5  6  1  0  0  0  0
  6  7  2  0  0  0  0
  6 31  1  0  0  0  0
  7  8  1  0  0  0  0
  7 32  1  0  0  0  0
  8  9  2  0  0  0  0
  8 33  1  0  0  0  0
  9 10  1  0  0  0  0
  9 34  1  0  0  0  0
 10 11  1  0  0  0  0
 11 12  1  0  0  0  0
 11 20  1  0  0  0  0
 12 13  1  0  0  0  0
 12 35  1  0  0  0  0
 12 36  1  0  0  0  0
 13 18  2  0  0  0  0
 13 14  1  0  0  0  0
 14 15  2  0  0  0  0
 14 37  1  0  0  0  0
 15 16  1  0  0  0  0
 15 38  1  0  0  0  0
 16 17  2  0  0  0  0
 16 19  1  0  0  0  0
 17 18  1  0  0  0  0
 17 39  1  0  0  0  0
 18 40  1  0  0  0  0
 20 21  2  0  0  0  0
 22 23  1  0  0  0  0
 22 41  1  0  0  0  0
 23 29  1  0  0  0  0
 23 24  1  0  0  0  0
 23 42  1  0  0  0  0
 24 25  1  0  0  0  0
 24 43  1  0  0  0  0
 24 44  1  0  0  0  0
 25 26  1  0  0  0  0
 25 45  1  0  0  0  0
 25 46  1  0  0  0  0
 26 27  1  0  0  0  0
 26 47  1  0  0  0  0
 26 48  1  0  0  0  0
 27 28  1  0  0  0  0
 27 49  1  0  0  0  0
 27 50  1  0  0  0  0
 28 29  1  0  0  0  0
 28 51  1  0  0  0  0
 28 52  1  0  0  0  0
 29 53  1  0  0  0  0
 29 54  1  0  0  0  0
M  END
$$$$
CHEMBL2163965_6PT0
 OpenBabel12022418123D

 50 54  0  0  1  0  0  0  0  0999 V2000
    2.6467   -0.4117   -1.3829 O   0  0  0  0  0  0  0  0  0  0  0  0
    2.2936    0.0409   -0.2972 C   0  0  0  0  0  0  0  0  0  0  0  0
    2.9635    1.2298    0.3177 C   0  0  0  0  0  0  0  0  0  0  0  0
    4.0242    1.7861   -0.2920 C   0  0  0  0  0  0  0  0  0  0  0  0
    4.7841    2.8523    0.1813 N   0  0  0  0  0  0  0  0  0  0  0  0
    4.4401    3.4551    1.4028 C   0  0  0  0  0  0  0  0  0  0  0  0
    5.1844    4.4943    1.9688 C   0  0  0  0  0  0  0  0  0  0  0  0
    6.3712    4.9393    1.4618 O   0  0  0  0  0  0  0  0  0  0  0  0
    6.5908    4.6421    0.0838 C   0  0  0  0  0  0  0  0  0  0  0  0
    6.0245    3.3194   -0.4707 C   0  0  1  0  0  0  0  0  0  0  0  0
    7.0732    2.2105   -0.4986 C   0  0  0  0  0  0  0  0  0  0  0  0
    7.5074    1.5751    0.6697 C   0  0  0  0  0  0  0  0  0  0  0  0
    8.4220    0.5244    0.6024 C   0  0  0  0  0  0  0  0  0  0  0  0
    8.9266    0.1046   -0.6280 C   0  0  0  0  0  0  0  0  0  0  0  0
    8.5225    0.7473   -1.7983 C   0  0  0  0  0  0  0  0  0  0  0  0
    7.6067    1.7908   -1.7355 C   0  0  0  0  0  0  0  0  0  0  0  0
    4.7851    5.0981    3.1684 C   0  0  0  0  0  0  0  0  0  0  0  0
    3.6474    4.6574    3.8409 C   0  0  0  0  0  0  0  0  0  0  0  0
    2.9196    3.5928    3.3244 C   0  0  0  0  0  0  0  0  0  0  0  0
    3.3161    2.9989    2.1177 C   0  0  0  0  0  0  0  0  0  0  0  0
    2.5512    1.8352    1.6105 C   0  0  0  0  0  0  0  0  0  0  0  0
    1.6076    1.3868    2.2593 O   0  0  0  0  0  0  0  0  0  0  0  0
    1.2768   -0.5028    0.4505 N   0  0  0  0  0  0  0  0  0  0  0  0
    0.4990   -1.6499    0.0403 C   0  0  0  0  0  0  0  0  0  0  0  0
   -0.1453   -2.3669    1.2236 C   0  0  0  0  0  0  0  0  0  0  0  0
   -1.2020   -3.2469    0.5709 C   0  0  0  0  0  0  0  0  0  0  0  0
   -1.6589   -2.4822   -0.6720 C   0  0  0  0  0  0  0  0  0  0  0  0
   -0.7151   -1.2856   -0.8106 C   0  0  0  0  0  0  0  0  0  0  0  0
    4.3870    1.3849   -1.2377 H   0  0  0  0  0  0  0  0  0  0  0  0
    7.6787    4.6751   -0.0625 H   0  0  0  0  0  0  0  0  0  0  0  0
    6.1910    5.4838   -0.4951 H   0  0  0  0  0  0  0  0  0  0  0  0
    5.7668    3.5334   -1.5177 H   0  0  0  0  0  0  0  0  0  0  0  0
    7.1126    1.8728    1.6380 H   0  0  0  0  0  0  0  0  0  0  0  0
    8.7376    0.0193    1.5132 H   0  0  0  0  0  0  0  0  0  0  0  0
    9.6303   -0.7203   -0.6752 H   0  0  0  0  0  0  0  0  0  0  0  0
    8.9151    0.4180   -2.7541 H   0  0  0  0  0  0  0  0  0  0  0  0
    7.2938    2.2664   -2.6632 H   0  0  0  0  0  0  0  0  0  0  0  0
    5.3708    5.9154    3.5828 H   0  0  0  0  0  0  0  0  0  0  0  0
    3.3427    5.1263    4.7730 H   0  0  0  0  0  0  0  0  0  0  0  0
    2.0500    3.2202    3.8624 H   0  0  0  0  0  0  0  0  0  0  0  0
    1.0135   -0.0210    1.3115 H   0  0  0  0  0  0  0  0  0  0  0  0
    1.1449   -2.3417   -0.5147 H   0  0  0  0  0  0  0  0  0  0  0  0
   -0.6256   -1.6505    1.9028 H   0  0  0  0  0  0  0  0  0  0  0  0
    0.5760   -2.9453    1.8088 H   0  0  0  0  0  0  0  0  0  0  0  0
   -2.0317   -3.4648    1.2509 H   0  0  0  0  0  0  0  0  0  0  0  0
   -0.7599   -4.2050    0.2727 H   0  0  0  0  0  0  0  0  0  0  0  0
   -2.6987   -2.1511   -0.5782 H   0  0  0  0  0  0  0  0  0  0  0  0
   -1.6007   -3.1306   -1.5534 H   0  0  0  0  0  0  0  0  0  0  0  0
   -0.4525   -1.0868   -1.8539 H   0  0  0  0  0  0  0  0  0  0  0  0
   -1.2077   -0.3854   -0.4201 H   0  0  0  0  0  0  0  0  0  0  0  0
  1  2  2  0  0  0  0
  2  3  1  0  0  0  0
  2 23  1  0  0  0  0
  3 21  1  0  0  0  0
  3  4  2  0  0  0  0
  4  5  1  0  0  0  0
  4 29  1  0  0  0  0
  5 10  1  0  0  0  0
  5  6  1  0  0  0  0
  6 20  2  0  0  0  0
  6  7  1  0  0  0  0
  7  8  1  0  0  0  0
  7 17  2  0  0  0  0
  8  9  1  0  0  0  0
  9 10  1  0  0  0  0
  9 30  1  0  0  0  0
  9 31  1  0  0  0  0
 10 11  1  0  0  0  0
 10 32  1  6  0  0  0
 11 16  2  0  0  0  0
 11 12  1  0  0  0  0
 12 13  2  0  0  0  0
 12 33  1  0  0  0  0
 13 14  1  0  0  0  0
 13 34  1  0  0  0  0
 14 15  2  0  0  0  0
 14 35  1  0  0  0  0
 15 16  1  0  0  0  0
 15 36  1  0  0  0  0
 16 37  1  0  0  0  0
 17 18  1  0  0  0  0
 17 38  1  0  0  0  0
 18 19  2  0  0  0  0
 18 39  1  0  0  0  0
 19 20  1  0  0  0  0
 19 40  1  0  0  0  0
 20 21  1  0  0  0  0
 21 22  2  0  0  0  0
 23 24  1  0  0  0  0
 23 41  1  0  0  0  0
 24 28  1  0  0  0  0
 24 25  1  0  0  0  0
 24 42  1  0  0  0  0
 25 26  1  0  0  0  0
 25 43  1  0  0  0  0
 25 44  1  0  0  0  0
 26 27  1  0  0  0  0
 26 45  1  0  0  0  0
 26 46  1  0  0  0  0
 27 28  1  0  0  0  0
 27 47  1  0  0  0  0
 27 48  1  0  0  0  0
 28 49  1  0  0  0  0
 28 50  1  0  0  0  0
M  END
$$$$
CHEMBL271824_5ZTY
 OpenBabel12022418123D

 56 59  0  0  0  0  0  0  0  0999 V2000
   -0.1358   -0.9737   -0.0090 N   0  0  0  0  0  0  0  0  0  0  0  0
   -0.9927    0.0671   -0.2314 N   0  0  0  0  0  0  0  0  0  0  0  0
   -0.2230    1.1725   -0.2142 C   0  0  0  0  0  0  0  0  0  0  0  0
    1.1641    0.8212   -0.1887 C   0  0  0  0  0  0  0  0  0  0  0  0
    1.1844   -0.5578   -0.0131 C   0  0  0  0  0  0  0  0  0  0  0  0
    2.3281   -1.3798    0.0295 N   0  0  0  0  0  0  0  0  0  0  0  0
    2.5669   -2.5536   -0.6985 C   0  0  0  0  0  0  0  0  0  0  0  0
    3.8581   -2.9789   -0.4459 C   0  0  0  0  0  0  0  0  0  0  0  0
    4.4452   -2.0752    0.4442 C   0  0  0  0  0  0  0  0  0  0  0  0
    3.4922   -1.1314    0.7710 C   0  0  0  0  0  0  0  0  0  0  0  0
    3.6622   -0.0617    1.7974 C   0  0  0  0  0  0  0  0  0  0  0  0
    1.6414   -3.1989   -1.6743 C   0  0  0  0  0  0  0  0  0  0  0  0
    2.3064    1.7548   -0.4028 C   0  0  0  0  0  0  0  0  0  0  0  0
   -0.7957    2.5461   -0.2453 C   0  0  0  0  0  0  0  0  0  0  0  0
   -0.0916    3.5503   -0.1786 O   0  0  0  0  0  0  0  0  0  0  0  0
   -2.1781    2.6141   -0.3206 N   0  0  0  0  0  0  0  0  0  0  0  0
   -2.8881    3.8869   -0.3709 C   0  0  0  0  0  0  0  0  0  0  0  0
   -2.9999    4.4071   -1.8107 C   0  0  0  0  0  0  0  0  0  0  0  0
   -3.7440    5.7421   -1.8752 C   0  0  0  0  0  0  0  0  0  0  0  0
   -5.1181    5.6624   -1.2166 C   0  0  0  0  0  0  0  0  0  0  0  0
   -5.0349    5.1150    0.2055 C   0  0  0  0  0  0  0  0  0  0  0  0
   -4.2787    3.7819    0.2672 C   0  0  0  0  0  0  0  0  0  0  0  0
   -0.6987   -2.2549    0.2661 C   0  0  0  0  0  0  0  0  0  0  0  0
   -0.1012   -3.1412    1.1700 C   0  0  0  0  0  0  0  0  0  0  0  0
   -0.6634   -4.4070    1.3764 C   0  0  0  0  0  0  0  0  0  0  0  0
   -1.8079   -4.8007    0.6744 C   0  0  0  0  0  0  0  0  0  0  0  0
   -2.4014   -3.9188   -0.2346 C   0  0  0  0  0  0  0  0  0  0  0  0
   -1.8639   -2.6398   -0.4195 C   0  0  0  0  0  0  0  0  0  0  0  0
   -3.7696   -4.3626   -1.1928 Cl  0  0  0  0  0  0  0  0  0  0  0  0
   -2.4309   -6.3845    0.9712 Cl  0  0  0  0  0  0  0  0  0  0  0  0
    4.3311   -3.8459   -0.8904 H   0  0  0  0  0  0  0  0  0  0  0  0
    5.4527   -2.1151    0.8402 H   0  0  0  0  0  0  0  0  0  0  0  0
    2.7213    0.3930    2.1126 H   0  0  0  0  0  0  0  0  0  0  0  0
    4.3349    0.7162    1.4202 H   0  0  0  0  0  0  0  0  0  0  0  0
    4.1265   -0.4804    2.6976 H   0  0  0  0  0  0  0  0  0  0  0  0
    0.7890   -2.5812   -1.9527 H   0  0  0  0  0  0  0  0  0  0  0  0
    1.2818   -4.1523   -1.2707 H   0  0  0  0  0  0  0  0  0  0  0  0
    2.1792   -3.4222   -2.6018 H   0  0  0  0  0  0  0  0  0  0  0  0
    2.0212    2.6070   -1.0252 H   0  0  0  0  0  0  0  0  0  0  0  0
    3.1252    1.2535   -0.9289 H   0  0  0  0  0  0  0  0  0  0  0  0
    2.6769    2.1468    0.5470 H   0  0  0  0  0  0  0  0  0  0  0  0
   -2.6633    1.7271   -0.4417 H   0  0  0  0  0  0  0  0  0  0  0  0
   -2.3028    4.6181    0.2082 H   0  0  0  0  0  0  0  0  0  0  0  0
   -3.5268    3.6685   -2.4284 H   0  0  0  0  0  0  0  0  0  0  0  0
   -2.0032    4.5279   -2.2503 H   0  0  0  0  0  0  0  0  0  0  0  0
   -3.8572    6.0520   -2.9205 H   0  0  0  0  0  0  0  0  0  0  0  0
   -3.1477    6.5170   -1.3775 H   0  0  0  0  0  0  0  0  0  0  0  0
   -5.7743    5.0208   -1.8171 H   0  0  0  0  0  0  0  0  0  0  0  0
   -5.5774    6.6583   -1.2019 H   0  0  0  0  0  0  0  0  0  0  0  0
   -6.0473    4.9842    0.6055 H   0  0  0  0  0  0  0  0  0  0  0  0
   -4.5347    5.8514    0.8471 H   0  0  0  0  0  0  0  0  0  0  0  0
   -4.1876    3.4726    1.3161 H   0  0  0  0  0  0  0  0  0  0  0  0
   -4.8657    3.0106   -0.2395 H   0  0  0  0  0  0  0  0  0  0  0  0
    0.7857   -2.8698    1.7388 H   0  0  0  0  0  0  0  0  0  0  0  0
   -0.1962   -5.0909    2.0822 H   0  0  0  0  0  0  0  0  0  0  0  0
   -2.3187   -1.9698   -1.1473 H   0  0  0  0  0  0  0  0  0  0  0  0
  1  5  1  0  0  0  0
  1  2  1  0  0  0  0
  1 23  1  0  0  0  0
  2  3  2  0  0  0  0
  3  4  1  0  0  0  0
  3 14  1  0  0  0  0
  4  5  2  0  0  0  0
  4 13  1  0  0  0  0
  5  6  1  0  0  0  0
  6 10  1  0  0  0  0
  6  7  1  0  0  0  0
  7  8  2  0  0  0  0
  7 12  1  0  0  0  0
  8  9  1  0  0  0  0
  8 31  1  0  0  0  0
  9 10  2  0  0  0  0
  9 32  1  0  0  0  0
 10 11  1  0  0  0  0
 11 33  1  0  0  0  0
 11 34  1  0  0  0  0
 11 35  1  0  0  0  0
 12 36  1  0  0  0  0
 12 37  1  0  0  0  0
 12 38  1  0  0  0  0
 13 39  1  0  0  0  0
 13 40  1  0  0  0  0
 13 41  1  0  0  0  0
 14 15  2  0  0  0  0
 14 16  1  0  0  0  0
 16 17  1  0  0  0  0
 16 42  1  0  0  0  0
 17 22  1  0  0  0  0
 17 18  1  0  0  0  0
 17 43  1  0  0  0  0
 18 19  1  0  0  0  0
 18 44  1  0  0  0  0
 18 45  1  0  0  0  0
 19 20  1  0  0  0  0
 19 46  1  0  0  0  0
 19 47  1  0  0  0  0
 20 21  1  0  0  0  0
 20 48  1  0  0  0  0
 20 49  1  0  0  0  0
 21 22  1  0  0  0  0
 21 50  1  0  0  0  0
 21 51  1  0  0  0  0
 22 52  1  0  0  0  0
 22 53  1  0  0  0  0
 23 28  2  0  0  0  0
 23 24  1  0  0  0  0
 24 25  2  0  0  0  0
 24 54  1  0  0  0  0
 25 26  1  0  0  0  0
 25 55  1  0  0  0  0
 26 27  2  0  0  0  0
 26 30  1  0  0  0  0
 27 28  1  0  0  0  0
 27 29  1  0  0  0  0
 28 56  1  0  0  0  0
M  END
$$$$
CHEMBL3927144_8GUT
 OpenBabel12022418123D

 46 48  0  0  1  0  0  0  0  0999 V2000
    3.6002    0.5214    4.7469 C   0  0  0  0  0  0  0  0  0  0  0  0
    3.5944    0.9345    3.3327 C   0  0  0  0  0  0  0  0  0  0  0  0
    2.5846    1.0561    2.5044 N   0  0  0  0  0  0  0  0  0  0  0  0
    3.2026    1.4203    1.3243 C   0  0  0  0  0  0  0  0  0  0  0  0
    2.4314    1.6175    0.0200 C   0  0  2  0  0  0  0  0  0  0  0  0
    1.1459    0.7574    0.0677 C   0  0  0  0  0  0  0  0  0  0  0  0
    3.2931    1.2285   -1.2228 C   0  0  0  0  0  0  0  0  0  0  0  0
    3.7750   -0.2077   -1.2678 C   0  0  0  0  0  0  0  0  0  0  0  0
    3.1372   -1.2231   -2.1820 C   0  0  0  0  0  0  0  0  0  0  0  0
    4.4991   -0.6776   -2.5038 C   0  0  0  0  0  0  0  0  0  0  0  0
    2.0612    3.0543   -0.0478 N   0  0  0  0  0  0  0  0  0  0  0  0
    1.2764    3.6161   -1.0353 C   0  0  0  0  0  0  0  0  0  0  0  0
    0.8372    3.0043   -2.0010 O   0  0  0  0  0  0  0  0  0  0  0  0
    0.9548    5.0712   -0.8576 C   0  0  0  0  0  0  0  0  0  0  0  0
    0.1155    5.7061   -1.7689 C   0  0  0  0  0  0  0  0  0  0  0  0
   -0.2050    7.0584   -1.5842 C   0  0  0  0  0  0  0  0  0  0  0  0
    0.3069    7.7149   -0.4643 C   0  0  0  0  0  0  0  0  0  0  0  0
    1.1486    6.9933    0.3872 C   0  0  0  0  0  0  0  0  0  0  0  0
    1.4952    5.6940    0.2197 N   0  0  0  0  0  0  0  0  0  0  0  0
   -0.0823    9.3271    0.0057 Cl  0  0  0  0  0  0  0  0  0  0  0  0
   -1.0616    7.5360   -2.5421 O   0  0  0  0  0  0  0  0  0  0  0  0
   -0.9773    8.9171   -2.9164 C   0  0  0  0  0  0  0  0  0  0  0  0
   -1.3956    9.1441   -4.3704 C   0  0  0  0  0  0  0  0  0  0  0  0
   -1.7467    8.0050   -5.0020 F   0  0  0  0  0  0  0  0  0  0  0  0
   -2.4474    9.9930   -4.4451 F   0  0  0  0  0  0  0  0  0  0  0  0
   -0.3826    9.7020   -5.0759 F   0  0  0  0  0  0  0  0  0  0  0  0
    4.5327    1.5861    1.4381 N   0  0  0  0  0  0  0  0  0  0  0  0
    4.7958    1.2380    2.7637 O   0  0  0  0  0  0  0  0  0  0  0  0
    4.6175    0.3610    5.1165 H   0  0  0  0  0  0  0  0  0  0  0  0
    3.0432   -0.4129    4.8701 H   0  0  0  0  0  0  0  0  0  0  0  0
    3.1249    1.2871    5.3674 H   0  0  0  0  0  0  0  0  0  0  0  0
    0.5679    0.8247   -0.8582 H   0  0  0  0  0  0  0  0  0  0  0  0
    0.4868    1.0827    0.8819 H   0  0  0  0  0  0  0  0  0  0  0  0
    1.3760   -0.3005    0.2379 H   0  0  0  0  0  0  0  0  0  0  0  0
    4.1778    1.8792   -1.2677 H   0  0  0  0  0  0  0  0  0  0  0  0
    2.7345    1.4356   -2.1432 H   0  0  0  0  0  0  0  0  0  0  0  0
    4.1777   -0.5534   -0.3231 H   0  0  0  0  0  0  0  0  0  0  0  0
    2.3107   -0.9195   -2.8147 H   0  0  0  0  0  0  0  0  0  0  0  0
    3.0774   -2.2510   -1.8414 H   0  0  0  0  0  0  0  0  0  0  0  0
    5.3575   -1.3259   -2.3685 H   0  0  0  0  0  0  0  0  0  0  0  0
    4.5864   -0.0013   -3.3471 H   0  0  0  0  0  0  0  0  0  0  0  0
    2.3701    3.6773    0.6928 H   0  0  0  0  0  0  0  0  0  0  0  0
   -0.2977    5.1542   -2.6092 H   0  0  0  0  0  0  0  0  0  0  0  0
    1.5722    7.4608    1.2724 H   0  0  0  0  0  0  0  0  0  0  0  0
    0.0443    9.2957   -2.7972 H   0  0  0  0  0  0  0  0  0  0  0  0
   -1.6589    9.4852   -2.2744 H   0  0  0  0  0  0  0  0  0  0  0  0
  1  2  1  0  0  0  0
  1 29  1  0  0  0  0
  1 30  1  0  0  0  0
  1 31  1  0  0  0  0
  2 28  1  0  0  0  0
  2  3  2  0  0  0  0
  3  4  1  0  0  0  0
  4 27  2  0  0  0  0
  5  7  1  6  0  0  0
  5 11  1  0  0  0  0
  5  6  1  0  0  0  0
  5  4  1  0  0  0  0
  6 32  1  0  0  0  0
  6 33  1  0  0  0  0
  6 34  1  0  0  0  0
  7  8  1  0  0  0  0
  7 35  1  0  0  0  0
  7 36  1  0  0  0  0
  8 10  1  0  0  0  0
  8  9  1  0  0  0  0
  8 37  1  0  0  0  0
  9 10  1  0  0  0  0
  9 38  1  0  0  0  0
  9 39  1  0  0  0  0
 10 40  1  0  0  0  0
 10 41  1  0  0  0  0
 11 12  1  0  0  0  0
 11 42  1  0  0  0  0
 12 13  2  0  0  0  0
 12 14  1  0  0  0  0
 14 19  2  0  0  0  0
 14 15  1  0  0  0  0
 15 16  2  0  0  0  0
 15 43  1  0  0  0  0
 16 17  1  0  0  0  0
 16 21  1  0  0  0  0
 17 18  2  0  0  0  0
 17 20  1  0  0  0  0
 18 19  1  0  0  0  0
 18 44  1  0  0  0  0
 21 22  1  0  0  0  0
 22 23  1  0  0  0  0
 22 45  1  0  0  0  0
 22 46  1  0  0  0  0
 23 24  1  0  0  0  0
 23 25  1  0  0  0  0
 23 26  1  0  0  0  0
 27 28  1  0  0  0  0
M  END
$$$$
CHEMBL3354946_8GUQ
 OpenBabel12022418123D

 48 53  0  0  1  0  0  0  0  0999 V2000
    2.4838   -1.5531    2.9144 C   0  0  0  0  0  0  0  0  0  0  0  0
    1.2049   -2.3692    2.9130 C   0  0  0  0  0  0  0  0  0  0  0  0
    2.4649   -2.8810    3.5954 C   0  0  0  0  0  0  0  0  0  0  0  0
    0.0596   -1.9403    3.8423 C   0  0  0  0  0  0  0  0  0  0  0  0
   -0.3303   -2.7259    4.9465 C   0  0  0  0  0  0  0  0  0  0  0  0
   -1.2691   -2.2743    5.8800 C   0  0  0  0  0  0  0  0  0  0  0  0
   -1.8641   -1.0274    5.7192 C   0  0  0  0  0  0  0  0  0  0  0  0
   -1.5455   -0.2518    4.6077 C   0  0  0  0  0  0  0  0  0  0  0  0
   -0.6009   -0.7087    3.6795 C   0  0  0  0  0  0  0  0  0  0  0  0
    0.8014   -2.9758    1.6770 N   0  0  0  0  0  0  0  0  0  0  0  0
    0.6048   -2.2595    0.5029 C   0  0  0  0  0  0  0  0  0  0  0  0
    0.9151   -1.0914    0.3404 O   0  0  0  0  0  0  0  0  0  0  0  0
   -0.1945   -3.0235   -0.4780 C   0  0  0  0  0  0  0  0  0  0  0  0
   -1.1337   -2.4491   -1.3783 C   0  0  0  0  0  0  0  0  0  0  0  0
   -2.1910   -3.3003   -1.1750 C   0  0  0  0  0  0  0  0  0  0  0  0
   -3.4359   -2.4963   -0.8070 C   0  0  1  0  0  0  0  0  0  0  0  0
   -2.9677   -1.0307   -1.0342 C   0  0  1  0  0  0  0  0  0  0  0  0
   -1.5715   -1.0514   -1.6608 C   0  0  0  0  0  0  0  0  0  0  0  0
   -4.1703   -1.5831   -1.7318 C   0  0  0  0  0  0  0  0  0  0  0  0
   -1.7205   -4.5010   -0.7383 N   0  0  0  0  0  0  0  0  0  0  0  0
   -2.4721   -5.6668   -0.4896 C   0  0  0  0  0  0  0  0  0  0  0  0
   -1.9556   -6.6651    0.3460 C   0  0  0  0  0  0  0  0  0  0  0  0
   -2.7953   -7.6983    0.7661 C   0  0  0  0  0  0  0  0  0  0  0  0
   -4.1146   -7.7435    0.3250 C   0  0  0  0  0  0  0  0  0  0  0  0
   -4.6045   -6.8124   -0.5796 C   0  0  0  0  0  0  0  0  0  0  0  0
   -3.7696   -5.7873   -0.9971 C   0  0  0  0  0  0  0  0  0  0  0  0
   -4.2526   -4.9295   -1.9076 F   0  0  0  0  0  0  0  0  0  0  0  0
   -4.9321   -8.6970    0.7884 F   0  0  0  0  0  0  0  0  0  0  0  0
   -0.4400   -4.3473   -0.2918 N   0  0  0  0  0  0  0  0  0  0  0  0
    3.0371   -1.4724    1.9848 H   0  0  0  0  0  0  0  0  0  0  0  0
    2.5047   -0.6500    3.5113 H   0  0  0  0  0  0  0  0  0  0  0  0
    2.5284   -2.8684    4.6780 H   0  0  0  0  0  0  0  0  0  0  0  0
    2.9900   -3.7087    3.1355 H   0  0  0  0  0  0  0  0  0  0  0  0
    0.1383   -3.6941    5.1090 H   0  0  0  0  0  0  0  0  0  0  0  0
   -1.5165   -2.8884    6.7428 H   0  0  0  0  0  0  0  0  0  0  0  0
   -2.5700   -0.6614    6.4607 H   0  0  0  0  0  0  0  0  0  0  0  0
   -2.0158    0.7196    4.4710 H   0  0  0  0  0  0  0  0  0  0  0  0
   -0.3484   -0.0802    2.8269 H   0  0  0  0  0  0  0  0  0  0  0  0
    0.4122   -3.9127    1.6821 H   0  0  0  0  0  0  0  0  0  0  0  0
   -3.9402   -2.7878    0.1071 H   0  0  0  0  0  0  0  0  0  0  0  0
   -3.0643   -0.3347   -0.2134 H   0  0  0  0  0  0  0  0  0  0  0  0
   -1.6464   -0.8954   -2.7448 H   0  0  0  0  0  0  0  0  0  0  0  0
   -0.9149   -0.2889   -1.2408 H   0  0  0  0  0  0  0  0  0  0  0  0
   -4.1388   -1.8185   -2.7864 H   0  0  0  0  0  0  0  0  0  0  0  0
   -5.1425   -1.2407   -1.3883 H   0  0  0  0  0  0  0  0  0  0  0  0
   -0.9339   -6.6234    0.7155 H   0  0  0  0  0  0  0  0  0  0  0  0
   -2.4374   -8.4549    1.4563 H   0  0  0  0  0  0  0  0  0  0  0  0
   -5.6220   -6.8739   -0.9434 H   0  0  0  0  0  0  0  0  0  0  0  0
  1  3  1  0  0  0  0
  1  2  1  0  0  0  0
  1 30  1  0  0  0  0
  1 31  1  0  0  0  0
  2  3  1  0  0  0  0
  2  4  1  0  0  0  0
  2 10  1  0  0  0  0
  3 32  1  0  0  0  0
  3 33  1  0  0  0  0
  4  9  2  0  0  0  0
  4  5  1  0  0  0  0
  5  6  2  0  0  0  0
  5 34  1  0  0  0  0
  6  7  1  0  0  0  0
  6 35  1  0  0  0  0
  7  8  2  0  0  0  0
  7 36  1  0  0  0  0
  8  9  1  0  0  0  0
  8 37  1  0  0  0  0
  9 38  1  0  0  0  0
 10 11  1  0  0  0  0
 10 39  1  0  0  0  0
 11 12  2  0  0  0  0
 11 13  1  0  0  0  0
 13 29  2  0  0  0  0
 13 14  1  0  0  0  0
 14 18  1  0  0  0  0
 14 15  2  0  0  0  0
 15 16  1  0  0  0  0
 15 20  1  0  0  0  0
 16 17  1  0  0  0  0
 16 19  1  0  0  0  0
 16 40  1  1  0  0  0
 17 18  1  0  0  0  0
 17 19  1  0  0  0  0
 17 41  1  1  0  0  0
 18 42  1  0  0  0  0
 18 43  1  0  0  0  0
 19 44  1  0  0  0  0
 19 45  1  0  0  0  0
 20 21  1  0  0  0  0
 20 29  1  0  0  0  0
 21 26  2  0  0  0  0
 21 22  1  0  0  0  0
 22 23  2  0  0  0  0
 22 46  1  0  0  0  0
 23 24  1  0  0  0  0
 23 47  1  0  0  0  0
 24 25  2  0  0  0  0
 24 28  1  0  0  0  0
 25 26  1  0  0  0  0
 25 48  1  0  0  0  0
 26 27  1  0  0  0  0
M  END
$$$$
CHEMBL3354957_8GUQ
 OpenBabel12022418123D

 48 52  0  0  1  0  0  0  0  0999 V2000
    1.2475    0.8617   -0.2986 C   0  0  2  0  0  0  0  0  0  0  0  0
    0.6714   -0.5669   -0.4608 C   0  0  0  0  0  0  0  0  0  0  0  0
    1.2088   -1.2567   -1.5914 O   0  0  0  0  0  0  0  0  0  0  0  0
    0.7592    1.8272   -1.3651 C   0  0  0  0  0  0  0  0  0  0  0  0
   -0.0660    2.9074   -1.0022 C   0  0  0  0  0  0  0  0  0  0  0  0
   -0.5390    3.8038   -1.9628 C   0  0  0  0  0  0  0  0  0  0  0  0
   -0.1948    3.6353   -3.3010 C   0  0  0  0  0  0  0  0  0  0  0  0
    0.6167    2.5677   -3.6787 C   0  0  0  0  0  0  0  0  0  0  0  0
    1.0896    1.6692   -2.7190 C   0  0  0  0  0  0  0  0  0  0  0  0
    2.7046    0.8569   -0.1978 N   0  0  0  0  0  0  0  0  0  0  0  0
    3.3299    0.6416    1.0143 C   0  0  0  0  0  0  0  0  0  0  0  0
    2.6915    0.4463    2.0486 O   0  0  0  0  0  0  0  0  0  0  0  0
    4.8022    0.6405    0.9989 C   0  0  0  0  0  0  0  0  0  0  0  0
    5.6126    0.5223    2.1411 C   0  0  0  0  0  0  0  0  0  0  0  0
    6.8954    0.5687    1.6881 C   0  0  0  0  0  0  0  0  0  0  0  0
    7.8808    0.7130    2.8256 C   0  0  1  0  0  0  0  0  0  0  0  0
    6.9514    0.7924    4.0597 C   0  0  1  0  0  0  0  0  0  0  0  0
    5.4910    0.5578    3.6195 C   0  0  0  0  0  0  0  0  0  0  0  0
    7.9616   -0.3018    3.9358 C   0  0  0  0  0  0  0  0  0  0  0  0
    6.8756    0.7026    0.3390 N   0  0  0  0  0  0  0  0  0  0  0  0
    8.0044    0.7425   -0.5090 C   0  0  0  0  0  0  0  0  0  0  0  0
    7.9905    1.5094   -1.6795 C   0  0  0  0  0  0  0  0  0  0  0  0
    9.1610    1.6147   -2.4419 C   0  0  0  0  0  0  0  0  0  0  0  0
   10.3104    0.9262   -2.0559 C   0  0  0  0  0  0  0  0  0  0  0  0
   10.3189    0.1244   -0.9266 C   0  0  0  0  0  0  0  0  0  0  0  0
    9.1666    0.0419   -0.1550 C   0  0  0  0  0  0  0  0  0  0  0  0
    9.1930   -0.7855    0.8992 F   0  0  0  0  0  0  0  0  0  0  0  0
   11.4251    1.0358   -2.7890 F   0  0  0  0  0  0  0  0  0  0  0  0
    5.5723    0.8087   -0.1146 N   0  0  0  0  0  0  0  0  0  0  0  0
    0.8632    1.2253    0.6642 H   0  0  0  0  0  0  0  0  0  0  0  0
    0.9032   -1.1729    0.4220 H   0  0  0  0  0  0  0  0  0  0  0  0
   -0.4193   -0.5384   -0.5680 H   0  0  0  0  0  0  0  0  0  0  0  0
    2.1706   -1.3035   -1.4466 H   0  0  0  0  0  0  0  0  0  0  0  0
   -0.3552    3.0570    0.0366 H   0  0  0  0  0  0  0  0  0  0  0  0
   -1.1791    4.6316   -1.6663 H   0  0  0  0  0  0  0  0  0  0  0  0
   -0.5620    4.3318   -4.0501 H   0  0  0  0  0  0  0  0  0  0  0  0
    0.8776    2.4282   -4.7244 H   0  0  0  0  0  0  0  0  0  0  0  0
    1.7056    0.8344   -3.0433 H   0  0  0  0  0  0  0  0  0  0  0  0
    3.2929    1.0183   -1.0080 H   0  0  0  0  0  0  0  0  0  0  0  0
    8.7650    1.3137    2.6761 H   0  0  0  0  0  0  0  0  0  0  0  0
    7.0920    1.5966    4.7656 H   0  0  0  0  0  0  0  0  0  0  0  0
    5.1143   -0.3885    4.0179 H   0  0  0  0  0  0  0  0  0  0  0  0
    4.8568    1.3844    3.9517 H   0  0  0  0  0  0  0  0  0  0  0  0
    8.8368   -0.2607    4.5760 H   0  0  0  0  0  0  0  0  0  0  0  0
    7.6362   -1.3138    3.7218 H   0  0  0  0  0  0  0  0  0  0  0  0
    7.1056    2.0696   -1.9737 H   0  0  0  0  0  0  0  0  0  0  0  0
    9.1926    2.2423   -3.3268 H   0  0  0  0  0  0  0  0  0  0  0  0
   11.2057   -0.4324   -0.6470 H   0  0  0  0  0  0  0  0  0  0  0  0
  1 10  1  0  0  0  0
  1  4  1  0  0  0  0
  1  2  1  0  0  0  0
  1 30  1  1  0  0  0
  2  3  1  0  0  0  0
  2 31  1  0  0  0  0
  2 32  1  0  0  0  0
  3 33  1  0  0  0  0
  4  9  2  0  0  0  0
  4  5  1  0  0  0  0
  5  6  2  0  0  0  0
  5 34  1  0  0  0  0
  6  7  1  0  0  0  0
  6 35  1  0  0  0  0
  7  8  2  0  0  0  0
  7 36  1  0  0  0  0
  8  9  1  0  0  0  0
  8 37  1  0  0  0  0
  9 38  1  0  0  0  0
 10 11  1  0  0  0  0
 10 39  1  0  0  0  0
 11 12  2  0  0  0  0
 11 13  1  0  0  0  0
 13 29  2  0  0  0  0
 13 14  1  0  0  0  0
 14 18  1  0  0  0  0
 14 15  2  0  0  0  0
 15 16  1  0  0  0  0
 15 20  1  0  0  0  0
 16 17  1  0  0  0  0
 16 19  1  0  0  0  0
 16 40  1  6  0  0  0
 17 18  1  0  0  0  0
 17 19  1  0  0  0  0
 17 41  1  1  0  0  0
 18 42  1  0  0  0  0
 18 43  1  0  0  0  0
 19 44  1  0  0  0  0
 19 45  1  0  0  0  0
 20 21  1  0  0  0  0
 20 29  1  0  0  0  0
 21 26  2  0  0  0  0
 21 22  1  0  0  0  0
 22 23  2  0  0  0  0
 22 46  1  0  0  0  0
 23 24  1  0  0  0  0
 23 47  1  0  0  0  0
 24 25  2  0  0  0  0
 24 28  1  0  0  0  0
 25 26  1  0  0  0  0
 25 48  1  0  0  0  0
 26 27  1  0  0  0  0
M  END
$$$$
CHEMBL3354944_8GUQ
 OpenBabel12022418123D

 49 53  0  0  1  0  0  0  0  0999 V2000
    4.2625    1.6033   -0.4177 C   0  0  0  0  0  0  0  0  0  0  0  0
    3.0990    0.7367   -0.9637 C   0  0  0  0  0  0  0  0  0  0  0  0
    2.3412    0.1651    0.2613 C   0  0  0  0  0  0  0  0  0  0  0  0
    2.1866    1.6412   -1.8304 C   0  0  0  0  0  0  0  0  0  0  0  0
    0.8144    1.8193   -1.5634 C   0  0  0  0  0  0  0  0  0  0  0  0
    0.0198    2.6700   -2.3393 C   0  0  0  0  0  0  0  0  0  0  0  0
    0.5770    3.3676   -3.4039 C   0  0  0  0  0  0  0  0  0  0  0  0
    1.9286    3.2121   -3.6934 C   0  0  0  0  0  0  0  0  0  0  0  0
    2.7222    2.3547   -2.9215 C   0  0  0  0  0  0  0  0  0  0  0  0
    3.6111   -0.3752   -1.7922 N   0  0  0  0  0  0  0  0  0  0  0  0
    4.4711   -1.3446   -1.3173 C   0  0  0  0  0  0  0  0  0  0  0  0
    4.9369   -1.3346   -0.1818 O   0  0  0  0  0  0  0  0  0  0  0  0
    4.8269   -2.4326   -2.2549 C   0  0  0  0  0  0  0  0  0  0  0  0
    5.7199   -3.4741   -1.9516 C   0  0  0  0  0  0  0  0  0  0  0  0
    5.8237   -4.2197   -3.0858 C   0  0  0  0  0  0  0  0  0  0  0  0
    6.8970   -5.2741   -2.9636 C   0  0  1  0  0  0  0  0  0  0  0  0
    7.4862   -4.9821   -1.5602 C   0  0  1  0  0  0  0  0  0  0  0  0
    6.6487   -3.8865   -0.8700 C   0  0  0  0  0  0  0  0  0  0  0  0
    6.8770   -6.3105   -1.8659 C   0  0  0  0  0  0  0  0  0  0  0  0
    5.0142   -3.6787   -4.0344 N   0  0  0  0  0  0  0  0  0  0  0  0
    4.7620   -4.2406   -5.3230 C   0  0  0  0  0  0  0  0  0  0  0  0
    3.8507   -3.6274   -6.1752 C   0  0  0  0  0  0  0  0  0  0  0  0
    3.5498   -4.2546   -7.3862 C   0  0  0  0  0  0  0  0  0  0  0  0
    4.1613   -5.4607   -7.7123 C   0  0  0  0  0  0  0  0  0  0  0  0
    5.0728   -5.9927   -6.8199 C   0  0  0  0  0  0  0  0  0  0  0  0
    5.3880   -5.4107   -5.6439 N   0  0  0  0  0  0  0  0  0  0  0  0
    4.3721   -2.5497   -3.5327 N   0  0  0  0  0  0  0  0  0  0  0  0
    3.8834    2.4730    0.1328 H   0  0  0  0  0  0  0  0  0  0  0  0
    4.9145    1.9727   -1.2169 H   0  0  0  0  0  0  0  0  0  0  0  0
    4.9043    1.0465    0.2727 H   0  0  0  0  0  0  0  0  0  0  0  0
    1.9452    0.9666    0.8968 H   0  0  0  0  0  0  0  0  0  0  0  0
    2.9820   -0.4466    0.9035 H   0  0  0  0  0  0  0  0  0  0  0  0
    1.5076   -0.4767   -0.0476 H   0  0  0  0  0  0  0  0  0  0  0  0
    0.3245    1.3128   -0.7362 H   0  0  0  0  0  0  0  0  0  0  0  0
   -1.0351    2.7899   -2.1031 H   0  0  0  0  0  0  0  0  0  0  0  0
   -0.0403    4.0318   -4.0026 H   0  0  0  0  0  0  0  0  0  0  0  0
    2.3699    3.7639   -4.5196 H   0  0  0  0  0  0  0  0  0  0  0  0
    3.7760    2.2628   -3.1764 H   0  0  0  0  0  0  0  0  0  0  0  0
    3.2699   -0.4989   -2.7395 H   0  0  0  0  0  0  0  0  0  0  0  0
    7.4690   -5.5432   -3.8403 H   0  0  0  0  0  0  0  0  0  0  0  0
    8.5543   -4.8792   -1.4472 H   0  0  0  0  0  0  0  0  0  0  0  0
    6.1079   -4.2983   -0.0120 H   0  0  0  0  0  0  0  0  0  0  0  0
    7.2876   -3.0602   -0.5475 H   0  0  0  0  0  0  0  0  0  0  0  0
    7.5459   -7.1586   -1.9724 H   0  0  0  0  0  0  0  0  0  0  0  0
    5.9179   -6.5749   -1.4351 H   0  0  0  0  0  0  0  0  0  0  0  0
    3.3624   -2.6957   -5.9078 H   0  0  0  0  0  0  0  0  0  0  0  0
    2.8278   -3.8081   -8.0656 H   0  0  0  0  0  0  0  0  0  0  0  0
    3.9297   -5.9764   -8.6381 H   0  0  0  0  0  0  0  0  0  0  0  0
    5.5803   -6.9309   -7.0260 H   0  0  0  0  0  0  0  0  0  0  0  0
  1  2  1  0  0  0  0
  1 28  1  0  0  0  0
  1 29  1  0  0  0  0
  1 30  1  0  0  0  0
  2  3  1  0  0  0  0
  2  4  1  0  0  0  0
  2 10  1  0  0  0  0
  3 31  1  0  0  0  0
  3 32  1  0  0  0  0
  3 33  1  0  0  0  0
  4  9  2  0  0  0  0
  4  5  1  0  0  0  0
  5  6  2  0  0  0  0
  5 34  1  0  0  0  0
  6  7  1  0  0  0  0
  6 35  1  0  0  0  0
  7  8  2  0  0  0  0
  7 36  1  0  0  0  0
  8  9  1  0  0  0  0
  8 37  1  0  0  0  0
  9 38  1  0  0  0  0
 10 11  1  0  0  0  0
 10 39  1  0  0  0  0
 11 12  2  0  0  0  0
 11 13  1  0  0  0  0
 13 27  2  0  0  0  0
 13 14  1  0  0  0  0
 14 18  1  0  0  0  0
 14 15  2  0  0  0  0
 15 16  1  0  0  0  0
 15 20  1  0  0  0  0
 16 17  1  0  0  0  0
 16 19  1  0  0  0  0
 16 40  1  6  0  0  0
 17 18  1  0  0  0  0
 17 19  1  0  0  0  0
 17 41  1  1  0  0  0
 18 42  1  0  0  0  0
 18 43  1  0  0  0  0
 19 44  1  0  0  0  0
 19 45  1  0  0  0  0
 20 21  1  0  0  0  0
 20 27  1  0  0  0  0
 21 26  2  0  0  0  0
 21 22  1  0  0  0  0
 22 23  2  0  0  0  0
 22 46  1  0  0  0  0
 23 24  1  0  0  0  0
 23 47  1  0  0  0  0
 24 25  2  0  0  0  0
 24 48  1  0  0  0  0
 25 26  1  0  0  0  0
 25 49  1  0  0  0  0
M  END
$$$$
CHEMBL2316296_5ZTY
 OpenBabel12022418123D

 59 61  0  0  1  0  0  0  0  0999 V2000
   12.3772    4.0687   -2.4685 C   0  0  0  0  0  0  0  0  0  0  0  0
   12.4585    4.6922   -3.8552 C   0  0  0  0  0  0  0  0  0  0  0  0
   11.1686    5.4438   -4.1633 C   0  0  0  0  0  0  0  0  0  0  0  0
   11.1773    6.1529   -5.5193 C   0  0  0  0  0  0  0  0  0  0  0  0
    9.8293    6.8234   -5.8345 C   0  0  0  0  0  0  0  0  0  0  0  0
    9.5363    7.9574   -4.9348 N   0  0  0  0  0  0  0  0  0  0  0  0
    9.0164    7.7341   -3.6351 C   0  0  0  0  0  0  0  0  0  0  0  0
    9.0046    8.6072   -2.5996 C   0  0  0  0  0  0  0  0  0  0  0  0
    8.5756    8.1320   -1.2218 C   0  0  0  0  0  0  0  0  0  0  0  0
    8.0449    7.0334   -1.0770 O   0  0  0  0  0  0  0  0  0  0  0  0
    8.8647    8.9645   -0.1548 N   0  0  0  0  0  0  0  0  0  0  0  0
    8.8569    8.5815    1.2833 C   0  0  1  0  0  0  0  0  0  0  0  0
   10.2644    8.8337    1.8525 C   0  0  0  0  0  0  0  0  0  0  0  0
   10.3938    8.7604    3.3748 C   0  0  0  0  0  0  0  0  0  0  0  0
    9.3385    9.5953    4.1077 C   0  0  2  0  0  0  0  0  0  0  0  0
    9.5081    9.4331    5.6246 C   0  0  0  0  0  0  0  0  0  0  0  0
    7.9398    9.1961    3.6189 C   0  0  0  0  0  0  0  0  0  0  0  0
    7.7944    9.3549    2.0936 C   0  0  0  0  0  0  0  0  0  0  0  0
    9.5217    9.9885   -2.8730 C   0  0  0  0  0  0  0  0  0  0  0  0
    9.6592   10.8162   -1.9762 O   0  0  0  0  0  0  0  0  0  0  0  0
    9.8543   10.2487   -4.2623 C   0  0  0  0  0  0  0  0  0  0  0  0
   10.1061   11.4443   -4.9705 C   0  0  0  0  0  0  0  0  0  0  0  0
    9.9726   12.8450   -4.5105 C   0  0  0  0  0  0  0  0  0  0  0  0
   10.4335   11.2011   -6.2455 N   0  0  0  0  0  0  0  0  0  0  0  0
   10.3253    9.8568   -6.3790 N   0  0  0  0  0  0  0  0  0  0  0  0
   10.5778    9.3299   -7.6984 C   0  0  0  0  0  0  0  0  0  0  0  0
    9.9077    9.2496   -5.2204 C   0  0  0  0  0  0  0  0  0  0  0  0
   13.2650    3.4642   -2.2641 H   0  0  0  0  0  0  0  0  0  0  0  0
   11.4953    3.4240   -2.3778 H   0  0  0  0  0  0  0  0  0  0  0  0
   12.3076    4.8437   -1.6976 H   0  0  0  0  0  0  0  0  0  0  0  0
   12.6258    3.9082   -4.6025 H   0  0  0  0  0  0  0  0  0  0  0  0
   13.3128    5.3768   -3.8950 H   0  0  0  0  0  0  0  0  0  0  0  0
   11.0235    6.1770   -3.3655 H   0  0  0  0  0  0  0  0  0  0  0  0
   10.3234    4.7452   -4.1285 H   0  0  0  0  0  0  0  0  0  0  0  0
   11.3882    5.4151   -6.3045 H   0  0  0  0  0  0  0  0  0  0  0  0
   11.9869    6.8917   -5.5517 H   0  0  0  0  0  0  0  0  0  0  0  0
    9.0221    6.0794   -5.7649 H   0  0  0  0  0  0  0  0  0  0  0  0
    9.8217    7.1223   -6.8838 H   0  0  0  0  0  0  0  0  0  0  0  0
    8.6475    6.7175   -3.5016 H   0  0  0  0  0  0  0  0  0  0  0  0
    9.2921    9.8631   -0.3786 H   0  0  0  0  0  0  0  0  0  0  0  0
    8.6300    7.5092    1.3569 H   0  0  0  0  0  0  0  0  0  0  0  0
   10.6048    9.8286    1.5342 H   0  0  0  0  0  0  0  0  0  0  0  0
   10.9653    8.1160    1.4092 H   0  0  0  0  0  0  0  0  0  0  0  0
   11.3897    9.1250    3.6549 H   0  0  0  0  0  0  0  0  0  0  0  0
   10.3343    7.7187    3.7039 H   0  0  0  0  0  0  0  0  0  0  0  0
    9.4998   10.6561    3.8736 H   0  0  0  0  0  0  0  0  0  0  0  0
    9.1620    8.4544    5.9735 H   0  0  0  0  0  0  0  0  0  0  0  0
    8.9529   10.2032    6.1716 H   0  0  0  0  0  0  0  0  0  0  0  0
   10.5631    9.5315    5.9124 H   0  0  0  0  0  0  0  0  0  0  0  0
    7.1847    9.8132    4.1257 H   0  0  0  0  0  0  0  0  0  0  0  0
    7.7304    8.1559    3.9048 H   0  0  0  0  0  0  0  0  0  0  0  0
    6.7916    9.0231    1.7975 H   0  0  0  0  0  0  0  0  0  0  0  0
    7.8503   10.4231    1.8491 H   0  0  0  0  0  0  0  0  0  0  0  0
    9.6605   12.9040   -3.4691 H   0  0  0  0  0  0  0  0  0  0  0  0
    9.2056   13.3472   -5.1132 H   0  0  0  0  0  0  0  0  0  0  0  0
   10.9131   13.3886   -4.6294 H   0  0  0  0  0  0  0  0  0  0  0  0
   10.8892   10.1423   -8.3651 H   0  0  0  0  0  0  0  0  0  0  0  0
    9.6555    8.8968   -8.0931 H   0  0  0  0  0  0  0  0  0  0  0  0
   11.3875    8.5986   -7.6437 H   0  0  0  0  0  0  0  0  0  0  0  0
  1  2  1  0  0  0  0
  1 28  1  0  0  0  0
  1 29  1  0  0  0  0
  1 30  1  0  0  0  0
  2  3  1  0  0  0  0
  2 31  1  0  0  0  0
  2 32  1  0  0  0  0
  3  4  1  0  0  0  0
  3 33  1  0  0  0  0
  3 34  1  0  0  0  0
  4  5  1  0  0  0  0
  4 35  1  0  0  0  0
  4 36  1  0  0  0  0
  5  6  1  0  0  0  0
  5 37  1  0  0  0  0
  5 38  1  0  0  0  0
  6 27  1  0  0  0  0
  6  7  1  0  0  0  0
  7  8  2  0  0  0  0
  7 39  1  0  0  0  0
  8  9  1  0  0  0  0
  8 19  1  0  0  0  0
  9 10  2  0  0  0  0
  9 11  1  0  0  0  0
 11 40  1  0  0  0  0
 12 13  1  0  0  0  0
 12 18  1  0  0  0  0
 12 11  1  0  0  0  0
 12 41  1  1  0  0  0
 13 14  1  0  0  0  0
 13 42  1  0  0  0  0
 13 43  1  0  0  0  0
 14 15  1  0  0  0  0
 14 44  1  0  0  0  0
 14 45  1  0  0  0  0
 15 16  1  0  0  0  0
 15 17  1  0  0  0  0
 15 46  1  6  0  0  0
 16 47  1  0  0  0  0
 16 48  1  0  0  0  0
 16 49  1  0  0  0  0
 17 18  1  0  0  0  0
 17 50  1  0  0  0  0
 17 51  1  0  0  0  0
 18 52  1  0  0  0  0
 18 53  1  0  0  0  0
 19 20  2  0  0  0  0
 19 21  1  0  0  0  0
 21 27  2  0  0  0  0
 21 22  1  0  0  0  0
 22 23  1  0  0  0  0
 22 24  2  0  0  0  0
 23 54  1  0  0  0  0
 23 55  1  0  0  0  0
 23 56  1  0  0  0  0
 24 25  1  0  0  0  0
 25 26  1  0  0  0  0
 25 27  1  0  0  0  0
 26 57  1  0  0  0  0
 26 58  1  0  0  0  0
 26 59  1  0  0  0  0
M  END
$$$$
CHEMBL2163942_6PT0
 OpenBabel12022418123D

 53 57  0  0  1  0  0  0  0  0999 V2000
    2.4646   -1.0858   -0.8654 O   0  0  0  0  0  0  0  0  0  0  0  0
    2.2406   -0.1742   -0.0734 C   0  0  0  0  0  0  0  0  0  0  0  0
    2.8087    1.1917   -0.2725 C   0  0  0  0  0  0  0  0  0  0  0  0
    3.7656    1.3463   -1.2002 C   0  0  0  0  0  0  0  0  0  0  0  0
    4.4499    2.5155   -1.4997 N   0  0  0  0  0  0  0  0  0  0  0  0
    4.2058    3.6668   -0.7291 C   0  0  0  0  0  0  0  0  0  0  0  0
    4.9196    4.8556   -0.9156 C   0  0  0  0  0  0  0  0  0  0  0  0
    5.8695    5.0158   -1.8854 O   0  0  0  0  0  0  0  0  0  0  0  0
    6.4818    3.7962   -2.3028 C   0  0  0  0  0  0  0  0  0  0  0  0
    5.5584    2.5714   -2.4699 C   0  0  2  0  0  0  0  0  0  0  0  0
    5.1429    2.3965   -3.9192 C   0  0  0  0  0  0  0  0  0  0  0  0
    3.7788    1.9480   -4.3990 C   0  0  0  0  0  0  0  0  0  0  0  0
    4.2229    3.3669   -4.6164 C   0  0  0  0  0  0  0  0  0  0  0  0
    4.6532    5.9864   -0.1361 C   0  0  0  0  0  0  0  0  0  0  0  0
    3.6532    5.9564    0.8335 C   0  0  0  0  0  0  0  0  0  0  0  0
    2.9238    4.7893    1.0337 C   0  0  0  0  0  0  0  0  0  0  0  0
    3.2066    3.6494    0.2673 C   0  0  0  0  0  0  0  0  0  0  0  0
    2.4572    2.3919    0.5279 C   0  0  0  0  0  0  0  0  0  0  0  0
    1.5926    2.3452    1.4032 O   0  0  0  0  0  0  0  0  0  0  0  0
    1.5143   -0.3448    1.0779 N   0  0  0  0  0  0  0  0  0  0  0  0
    1.0543   -1.6491    1.5524 C   0  0  0  0  0  0  0  0  0  0  0  0
    0.8230   -1.5966    3.0688 C   0  0  0  0  0  0  0  0  0  0  0  0
   -0.5232   -0.9916    3.4656 C   0  0  0  0  0  0  0  0  0  0  0  0
   -1.6074   -2.0549    3.6227 C   0  0  0  0  0  0  0  0  0  0  0  0
   -2.0663   -2.7243    2.3291 C   0  0  0  0  0  0  0  0  0  0  0  0
   -0.9659   -3.2561    1.4084 C   0  0  0  0  0  0  0  0  0  0  0  0
   -0.1477   -2.1493    0.7369 C   0  0  0  0  0  0  0  0  0  0  0  0
    4.0803    0.5015   -1.8122 H   0  0  0  0  0  0  0  0  0  0  0  0
    7.2902    3.5649   -1.5970 H   0  0  0  0  0  0  0  0  0  0  0  0
    6.9744    4.0190   -3.2581 H   0  0  0  0  0  0  0  0  0  0  0  0
    6.1984    1.6982   -2.2642 H   0  0  0  0  0  0  0  0  0  0  0  0
    5.9909    2.0378   -4.4996 H   0  0  0  0  0  0  0  0  0  0  0  0
    2.9585    1.7971   -3.7096 H   0  0  0  0  0  0  0  0  0  0  0  0
    3.7506    1.2762   -5.2505 H   0  0  0  0  0  0  0  0  0  0  0  0
    4.4787    3.6654   -5.6270 H   0  0  0  0  0  0  0  0  0  0  0  0
    3.7407    4.1409   -4.0300 H   0  0  0  0  0  0  0  0  0  0  0  0
    5.2325    6.8948   -0.2834 H   0  0  0  0  0  0  0  0  0  0  0  0
    3.4442    6.8406    1.4320 H   0  0  0  0  0  0  0  0  0  0  0  0
    2.1333    4.7662    1.7838 H   0  0  0  0  0  0  0  0  0  0  0  0
    1.3039    0.4847    1.6345 H   0  0  0  0  0  0  0  0  0  0  0  0
    1.8862   -2.3452    1.3805 H   0  0  0  0  0  0  0  0  0  0  0  0
    1.6279   -1.0142    3.5353 H   0  0  0  0  0  0  0  0  0  0  0  0
    0.9128   -2.6078    3.4868 H   0  0  0  0  0  0  0  0  0  0  0  0
   -0.8409   -0.2156    2.7597 H   0  0  0  0  0  0  0  0  0  0  0  0
   -0.4010   -0.4953    4.4360 H   0  0  0  0  0  0  0  0  0  0  0  0
   -2.4834   -1.5897    4.0926 H   0  0  0  0  0  0  0  0  0  0  0  0
   -1.2630   -2.8236    4.3261 H   0  0  0  0  0  0  0  0  0  0  0  0
   -2.6960   -2.0230    1.7681 H   0  0  0  0  0  0  0  0  0  0  0  0
   -2.7198   -3.5630    2.6029 H   0  0  0  0  0  0  0  0  0  0  0  0
   -1.4618   -3.8303    0.6150 H   0  0  0  0  0  0  0  0  0  0  0  0
   -0.3194   -3.9654    1.9379 H   0  0  0  0  0  0  0  0  0  0  0  0
    0.2322   -2.5368   -0.2177 H   0  0  0  0  0  0  0  0  0  0  0  0
   -0.8060   -1.3129    0.4698 H   0  0  0  0  0  0  0  0  0  0  0  0
  1  2  2  0  0  0  0
  2  3  1  0  0  0  0
  2 20  1  0  0  0  0
  3 18  1  0  0  0  0
  3  4  2  0  0  0  0
  4  5  1  0  0  0  0
  4 28  1  0  0  0  0
  5 10  1  0  0  0  0
  5  6  1  0  0  0  0
  6 17  2  0  0  0  0
  6  7  1  0  0  0  0
  7  8  1  0  0  0  0
  7 14  2  0  0  0  0
  8  9  1  0  0  0  0
  9 10  1  0  0  0  0
  9 29  1  0  0  0  0
  9 30  1  0  0  0  0
 10 11  1  0  0  0  0
 10 31  1  1  0  0  0
 11 13  1  0  0  0  0
 11 12  1  0  0  0  0
 11 32  1  0  0  0  0
 12 13  1  0  0  0  0
 12 33  1  0  0  0  0
 12 34  1  0  0  0  0
 13 35  1  0  0  0  0
 13 36  1  0  0  0  0
 14 15  1  0  0  0  0
 14 37  1  0  0  0  0
 15 16  2  0  0  0  0
 15 38  1  0  0  0  0
 16 17  1  0  0  0  0
 16 39  1  0  0  0  0
 17 18  1  0  0  0  0
 18 19  2  0  0  0  0
 20 21  1  0  0  0  0
 20 40  1  0  0  0  0
 21 27  1  0  0  0  0
 21 22  1  0  0  0  0
 21 41  1  0  0  0  0
 22 23  1  0  0  0  0
 22 42  1  0  0  0  0
 22 43  1  0  0  0  0
 23 24  1  0  0  0  0
 23 44  1  0  0  0  0
 23 45  1  0  0  0  0
 24 25  1  0  0  0  0
 24 46  1  0  0  0  0
 24 47  1  0  0  0  0
 25 26  1  0  0  0  0
 25 48  1  0  0  0  0
 25 49  1  0  0  0  0
 26 27  1  0  0  0  0
 26 50  1  0  0  0  0
 26 51  1  0  0  0  0
 27 52  1  0  0  0  0
 27 53  1  0  0  0  0
M  END
$$$$
CHEMBL2163930_6PT0
 OpenBabel12022418123D

 57 62  0  0  1  0  0  0  0  0999 V2000
    5.0952    2.3236   -3.0269 C   0  0  0  0  0  0  0  0  0  0  0  0
    5.1152    3.5940   -2.1963 C   0  0  0  0  0  0  0  0  0  0  0  0
    4.1249    3.5981   -1.0154 C   0  0  1  0  0  0  0  0  0  0  0  0
    2.6656    3.4140   -1.4848 C   0  0  0  0  0  0  0  0  0  0  0  0
    2.1583    2.0818   -1.5044 O   0  0  0  0  0  0  0  0  0  0  0  0
    2.5321    1.3303   -0.4249 C   0  0  0  0  0  0  0  0  0  0  0  0
    1.7185    0.2221   -0.1532 C   0  0  0  0  0  0  0  0  0  0  0  0
    2.0457   -0.6548    0.8779 C   0  0  0  0  0  0  0  0  0  0  0  0
    3.1857   -0.4262    1.6413 C   0  0  0  0  0  0  0  0  0  0  0  0
    3.9993    0.6843    1.3681 C   0  0  0  0  0  0  0  0  0  0  0  0
    5.2282    0.9008    2.1914 C   0  0  0  0  0  0  0  0  0  0  0  0
    5.5041    0.1442    3.1110 O   0  0  0  0  0  0  0  0  0  0  0  0
    6.1023    2.0568    1.8427 C   0  0  0  0  0  0  0  0  0  0  0  0
    7.3640    2.4204    2.5822 C   0  0  0  0  0  0  0  0  0  0  0  0
    8.0519    3.3765    2.2369 O   0  0  0  0  0  0  0  0  0  0  0  0
    7.6734    1.6260    3.6592 N   0  0  0  0  0  0  0  0  0  0  0  0
    8.8777    1.7708    4.4920 C   0  0  1  0  0  0  0  0  0  0  0  0
    8.6314    1.2899    5.9494 C   0  0  1  0  0  0  0  0  0  0  0  0
    8.3501   -0.2269    5.9789 C   0  0  0  0  0  0  0  0  0  0  0  0
    9.5368   -0.9975    5.3770 C   0  0  2  0  0  0  0  0  0  0  0  0
   10.7859   -0.7201    6.2288 C   0  0  0  0  0  0  0  0  0  0  0  0
   11.0972    0.7865    6.2233 C   0  0  2  0  0  0  0  0  0  0  0  0
    9.8966    1.5605    6.7961 C   0  0  0  0  0  0  0  0  0  0  0  0
   11.3390    1.2501    4.7758 C   0  0  0  0  0  0  0  0  0  0  0  0
   10.0850    0.9910    3.9115 C   0  0  1  0  0  0  0  0  0  0  0  0
    9.7916   -0.5228    3.9344 C   0  0  0  0  0  0  0  0  0  0  0  0
    5.7000    2.8201    0.8129 C   0  0  0  0  0  0  0  0  0  0  0  0
    4.5468    2.6610    0.0522 N   0  0  0  0  0  0  0  0  0  0  0  0
    3.6860    1.5789    0.3279 C   0  0  0  0  0  0  0  0  0  0  0  0
    5.8570    2.3796   -3.8103 H   0  0  0  0  0  0  0  0  0  0  0  0
    4.1274    2.1851   -3.5177 H   0  0  0  0  0  0  0  0  0  0  0  0
    5.3034    1.4446   -2.4115 H   0  0  0  0  0  0  0  0  0  0  0  0
    4.8820    4.4450   -2.8505 H   0  0  0  0  0  0  0  0  0  0  0  0
    6.1346    3.7682   -1.8336 H   0  0  0  0  0  0  0  0  0  0  0  0
    4.1721    4.6074   -0.5910 H   0  0  0  0  0  0  0  0  0  0  0  0
    2.5627    3.7917   -2.5115 H   0  0  0  0  0  0  0  0  0  0  0  0
    1.9885    4.0310   -0.8818 H   0  0  0  0  0  0  0  0  0  0  0  0
    0.8271    0.0434   -0.7541 H   0  0  0  0  0  0  0  0  0  0  0  0
    1.4177   -1.5223    1.0775 H   0  0  0  0  0  0  0  0  0  0  0  0
    3.4476   -1.1170    2.4401 H   0  0  0  0  0  0  0  0  0  0  0  0
    7.0937    0.7980    3.7945 H   0  0  0  0  0  0  0  0  0  0  0  0
    9.1259    2.8399    4.5120 H   0  0  0  0  0  0  0  0  0  0  0  0
    7.7814    1.8274    6.3858 H   0  0  0  0  0  0  0  0  0  0  0  0
    7.4319   -0.4631    5.4318 H   0  0  0  0  0  0  0  0  0  0  0  0
    8.1813   -0.5529    7.0134 H   0  0  0  0  0  0  0  0  0  0  0  0
    9.3194   -2.0713    5.3788 H   0  0  0  0  0  0  0  0  0  0  0  0
   11.6410   -1.2846    5.8367 H   0  0  0  0  0  0  0  0  0  0  0  0
   10.6231   -1.0671    7.2573 H   0  0  0  0  0  0  0  0  0  0  0  0
   11.9891    0.9775    6.8309 H   0  0  0  0  0  0  0  0  0  0  0  0
    9.7251    1.2593    7.8376 H   0  0  0  0  0  0  0  0  0  0  0  0
   10.1191    2.6344    6.8110 H   0  0  0  0  0  0  0  0  0  0  0  0
   12.1995    0.7129    4.3566 H   0  0  0  0  0  0  0  0  0  0  0  0
   11.5956    2.3163    4.7642 H   0  0  0  0  0  0  0  0  0  0  0  0
   10.2818    1.3128    2.8819 H   0  0  0  0  0  0  0  0  0  0  0  0
    8.9259   -0.7527    3.3039 H   0  0  0  0  0  0  0  0  0  0  0  0
   10.6429   -1.0691    3.5096 H   0  0  0  0  0  0  0  0  0  0  0  0
    6.3029    3.6714    0.4959 H   0  0  0  0  0  0  0  0  0  0  0  0
  1  2  1  0  0  0  0
  1 30  1  0  0  0  0
  1 31  1  0  0  0  0
  1 32  1  0  0  0  0
  2 33  1  0  0  0  0
  2 34  1  0  0  0  0
  3  4  1  0  0  0  0
  3 28  1  0  0  0  0
  3  2  1  0  0  0  0
  3 35  1  1  0  0  0
  4  5  1  0  0  0  0
  4 36  1  0  0  0  0
  4 37  1  0  0  0  0
  5  6  1  0  0  0  0
  6 29  2  0  0  0  0
  6  7  1  0  0  0  0
  7  8  2  0  0  0  0
  7 38  1  0  0  0  0
  8  9  1  0  0  0  0
  8 39  1  0  0  0  0
  9 10  2  0  0  0  0
  9 40  1  0  0  0  0
 10 29  1  0  0  0  0
 10 11  1  0  0  0  0
 11 12  2  0  0  0  0
 11 13  1  0  0  0  0
 13 14  1  0  0  0  0
 13 27  2  0  0  0  0
 14 15  2  0  0  0  0
 14 16  1  0  0  0  0
 16 41  1  0  0  0  0
 17 18  1  0  0  0  0
 17 25  1  0  0  0  0
 17 16  1  0  0  0  0
 17 42  1  1  0  0  0
 18 19  1  0  0  0  0
 18 23  1  0  0  0  0
 18 43  1  1  0  0  0
 19 44  1  0  0  0  0
 19 45  1  0  0  0  0
 20 19  1  0  0  0  0
 20 21  1  0  0  0  0
 20 26  1  0  0  0  0
 20 46  1  1  0  0  0
 21 47  1  0  0  0  0
 21 48  1  0  0  0  0
 22 21  1  0  0  0  0
 22 23  1  0  0  0  0
 22 24  1  0  0  0  0
 22 49  1  1  0  0  0
 23 50  1  0  0  0  0
 23 51  1  0  0  0  0
 24 52  1  0  0  0  0
 24 53  1  0  0  0  0
 25 24  1  0  0  0  0
 25 26  1  0  0  0  0
 25 54  1  6  0  0  0
 26 55  1  0  0  0  0
 26 56  1  0  0  0  0
 27 28  1  0  0  0  0
 27 57  1  0  0  0  0
 28 29  1  0  0  0  0
M  END
$$$$
CHEMBL2316283_5ZTY
 OpenBabel12022418123D

 56 58  0  0  0  0  0  0  0  0999 V2000
    0.7845    5.6390   -0.1962 C   0  0  0  0  0  0  0  0  0  0  0  0
    2.3033    5.7138   -0.1919 C   0  0  0  0  0  0  0  0  0  0  0  0
    2.9170    4.3160   -0.1597 C   0  0  0  0  0  0  0  0  0  0  0  0
    4.4458    4.3646   -0.1555 C   0  0  0  0  0  0  0  0  0  0  0  0
    5.0263    2.9471   -0.1125 C   0  0  0  0  0  0  0  0  0  0  0  0
    6.4999    2.9661   -0.1033 N   0  0  0  0  0  0  0  0  0  0  0  0
    7.2437    2.8975   -1.2867 C   0  0  0  0  0  0  0  0  0  0  0  0
    8.5891    2.8651   -1.3624 C   0  0  0  0  0  0  0  0  0  0  0  0
    9.2560    2.7944   -2.7006 C   0  0  0  0  0  0  0  0  0  0  0  0
    8.5930    2.7539   -3.7357 O   0  0  0  0  0  0  0  0  0  0  0  0
   10.6329    2.7826   -2.6940 N   0  0  0  0  0  0  0  0  0  0  0  0
   11.4365    2.7330   -3.9143 C   0  0  0  0  0  0  0  0  0  0  0  0
   12.6483    3.6743   -3.8125 C   0  0  0  0  0  0  0  0  0  0  0  0
   13.9467    3.0710   -3.2799 C   0  0  0  0  0  0  0  0  0  0  0  0
   14.7702    2.3645   -4.3573 C   0  0  0  0  0  0  0  0  0  0  0  0
   14.1959    1.0521   -4.8796 C   0  0  0  0  0  0  0  0  0  0  0  0
   12.7637    1.1174   -5.4043 C   0  0  0  0  0  0  0  0  0  0  0  0
   11.7361    1.2769   -4.2875 C   0  0  0  0  0  0  0  0  0  0  0  0
    9.3624    2.9109   -0.0930 C   0  0  0  0  0  0  0  0  0  0  0  0
   10.5887    2.8515   -0.1002 O   0  0  0  0  0  0  0  0  0  0  0  0
    8.5772    3.0202    1.1394 C   0  0  0  0  0  0  0  0  0  0  0  0
    9.0840    3.1058    2.4904 C   0  0  0  0  0  0  0  0  0  0  0  0
   10.5195    3.1171    2.9060 C   0  0  0  0  0  0  0  0  0  0  0  0
    8.0439    3.1753    3.3963 C   0  0  0  0  0  0  0  0  0  0  0  0
    6.5142    3.1534    2.6548 S   0  0  0  0  0  0  0  0  0  0  0  0
    7.1897    3.0382    1.0866 C   0  0  0  0  0  0  0  0  0  0  0  0
    0.3526    6.6439   -0.2190 H   0  0  0  0  0  0  0  0  0  0  0  0
    0.4159    5.1295    0.7001 H   0  0  0  0  0  0  0  0  0  0  0  0
    0.4233    5.0922   -1.0733 H   0  0  0  0  0  0  0  0  0  0  0  0
    2.6348    6.2889    0.6805 H   0  0  0  0  0  0  0  0  0  0  0  0
    2.6423    6.2511   -1.0849 H   0  0  0  0  0  0  0  0  0  0  0  0
    2.5715    3.7449   -1.0302 H   0  0  0  0  0  0  0  0  0  0  0  0
    2.5651    3.7849    0.7336 H   0  0  0  0  0  0  0  0  0  0  0  0
    4.7899    4.9446    0.7089 H   0  0  0  0  0  0  0  0  0  0  0  0
    4.8043    4.8894   -1.0493 H   0  0  0  0  0  0  0  0  0  0  0  0
    4.6685    2.3807   -0.9825 H   0  0  0  0  0  0  0  0  0  0  0  0
    4.6293    2.4051    0.7553 H   0  0  0  0  0  0  0  0  0  0  0  0
    6.6303    2.8650   -2.1837 H   0  0  0  0  0  0  0  0  0  0  0  0
   11.1153    2.7340   -1.7962 H   0  0  0  0  0  0  0  0  0  0  0  0
   10.8040    3.1461   -4.7090 H   0  0  0  0  0  0  0  0  0  0  0  0
   12.3798    4.5344   -3.1846 H   0  0  0  0  0  0  0  0  0  0  0  0
   12.8427    4.0907   -4.8095 H   0  0  0  0  0  0  0  0  0  0  0  0
   13.7654    2.4130   -2.4236 H   0  0  0  0  0  0  0  0  0  0  0  0
   14.5628    3.9006   -2.9076 H   0  0  0  0  0  0  0  0  0  0  0  0
   15.7648    2.1519   -3.9436 H   0  0  0  0  0  0  0  0  0  0  0  0
   14.9369    3.0481   -5.1995 H   0  0  0  0  0  0  0  0  0  0  0  0
   14.2620    0.2909   -4.0927 H   0  0  0  0  0  0  0  0  0  0  0  0
   14.8440    0.7029   -5.6936 H   0  0  0  0  0  0  0  0  0  0  0  0
   12.5598    0.1677   -5.9145 H   0  0  0  0  0  0  0  0  0  0  0  0
   12.6549    1.9032   -6.1614 H   0  0  0  0  0  0  0  0  0  0  0  0
   10.7918    0.8159   -4.6136 H   0  0  0  0  0  0  0  0  0  0  0  0
   12.0464    0.7010   -3.4056 H   0  0  0  0  0  0  0  0  0  0  0  0
   11.2190    3.0570    2.0728 H   0  0  0  0  0  0  0  0  0  0  0  0
   10.7247    2.2665    3.5636 H   0  0  0  0  0  0  0  0  0  0  0  0
   10.7435    4.0415    3.4479 H   0  0  0  0  0  0  0  0  0  0  0  0
    8.1169    3.2399    4.4736 H   0  0  0  0  0  0  0  0  0  0  0  0
  1  2  1  0  0  0  0
  1 27  1  0  0  0  0
  1 28  1  0  0  0  0
  1 29  1  0  0  0  0
  2  3  1  0  0  0  0
  2 30  1  0  0  0  0
  2 31  1  0  0  0  0
  3  4  1  0  0  0  0
  3 32  1  0  0  0  0
  3 33  1  0  0  0  0
  4  5  1  0  0  0  0
  4 34  1  0  0  0  0
  4 35  1  0  0  0  0
  5  6  1  0  0  0  0
  5 36  1  0  0  0  0
  5 37  1  0  0  0  0
  6 26  1  0  0  0  0
  6  7  1  0  0  0  0
  7  8  2  0  0  0  0
  7 38  1  0  0  0  0
  8  9  1  0  0  0  0
  8 19  1  0  0  0  0
  9 10  2  0  0  0  0
  9 11  1  0  0  0  0
 11 12  1  0  0  0  0
 11 39  1  0  0  0  0
 12 18  1  0  0  0  0
 12 13  1  0  0  0  0
 12 40  1  0  0  0  0
 13 14  1  0  0  0  0
 13 41  1  0  0  0  0
 13 42  1  0  0  0  0
 14 15  1  0  0  0  0
 14 43  1  0  0  0  0
 14 44  1  0  0  0  0
 15 16  1  0  0  0  0
 15 45  1  0  0  0  0
 15 46  1  0  0  0  0
 16 17  1  0  0  0  0
 16 47  1  0  0  0  0
 16 48  1  0  0  0  0
 17 18  1  0  0  0  0
 17 49  1  0  0  0  0
 17 50  1  0  0  0  0
 18 51  1  0  0  0  0
 18 52  1  0  0  0  0
 19 20  2  0  0  0  0
 19 21  1  0  0  0  0
 21 26  2  0  0  0  0
 21 22  1  0  0  0  0
 22 23  1  0  0  0  0
 22 24  2  0  0  0  0
 23 53  1  0  0  0  0
 23 54  1  0  0  0  0
 23 55  1  0  0  0  0
 24 25  1  0  0  0  0
 24 56  1  0  0  0  0
 25 26  1  0  0  0  0
M  END
$$$$
CHEMBL2204895_8GUQ
 OpenBabel12022418123D

 48 51  0  0  0  0  0  0  0  0999 V2000
    3.1230   -0.3030    1.1287 O   0  0  0  0  0  0  0  0  0  0  0  0
    2.5873    0.3232    0.2238 C   0  0  0  0  0  0  0  0  0  0  0  0
    1.1170    0.5677    0.2908 C   0  0  0  0  0  0  0  0  0  0  0  0
    0.3774   -0.5343    0.7676 C   0  0  0  0  0  0  0  0  0  0  0  0
   -1.0182   -0.5415    0.7444 C   0  0  0  0  0  0  0  0  0  0  0  0
   -1.7008    0.5676    0.2642 C   0  0  0  0  0  0  0  0  0  0  0  0
   -0.9839    1.6904   -0.1602 C   0  0  0  0  0  0  0  0  0  0  0  0
    0.4249    1.7146   -0.1336 C   0  0  0  0  0  0  0  0  0  0  0  0
    0.9623    2.8400   -0.6885 O   0  0  0  0  0  0  0  0  0  0  0  0
    1.9032    3.5981    0.0659 C   0  0  0  0  0  0  0  0  0  0  0  0
    2.4324    2.9234    1.0995 F   0  0  0  0  0  0  0  0  0  0  0  0
    2.8987    3.9274   -0.7869 F   0  0  0  0  0  0  0  0  0  0  0  0
    1.3397    4.7357    0.5141 F   0  0  0  0  0  0  0  0  0  0  0  0
    3.2503    0.8483   -0.8860 N   0  0  0  0  0  0  0  0  0  0  0  0
    4.6216    0.6868   -0.9502 C   0  0  0  0  0  0  0  0  0  0  0  0
    5.4269   -0.4305   -1.0719 C   0  0  0  0  0  0  0  0  0  0  0  0
    6.8197   -0.0515   -0.8875 C   0  0  0  0  0  0  0  0  0  0  0  0
    6.9701    1.3230   -0.8711 C   0  0  0  0  0  0  0  0  0  0  0  0
    8.2774    2.0456   -0.7742 C   0  0  0  0  0  0  0  0  0  0  0  0
    9.4233    1.0911   -1.1077 C   0  0  0  0  0  0  0  0  0  0  0  0
    9.2988   -0.2545   -0.4042 C   0  0  0  0  0  0  0  0  0  0  0  0
    8.0034   -0.9759   -0.7855 C   0  0  0  0  0  0  0  0  0  0  0  0
   10.6042    1.6672   -0.7644 F   0  0  0  0  0  0  0  0  0  0  0  0
    9.4778    0.8886   -2.4525 F   0  0  0  0  0  0  0  0  0  0  0  0
    5.4915    2.1438   -0.9866 S   0  0  0  0  0  0  0  0  0  0  0  0
    4.9339   -1.7722   -1.4044 C   0  0  0  0  0  0  0  0  0  0  0  0
    3.9131   -2.2673   -0.9399 O   0  0  0  0  0  0  0  0  0  0  0  0
    5.6963   -2.4404   -2.3550 N   0  0  0  0  0  0  0  0  0  0  0  0
    6.1972   -1.8724   -3.6124 C   0  0  0  0  0  0  0  0  0  0  0  0
    5.6084   -3.0852   -4.3449 C   0  0  0  0  0  0  0  0  0  0  0  0
    5.3387   -3.7166   -2.9721 C   0  0  0  0  0  0  0  0  0  0  0  0
    6.4743   -3.7582   -5.1408 F   0  0  0  0  0  0  0  0  0  0  0  0
    4.5146   -2.8293   -5.1025 F   0  0  0  0  0  0  0  0  0  0  0  0
    0.9001   -1.4247    1.1195 H   0  0  0  0  0  0  0  0  0  0  0  0
   -1.5622   -1.4239    1.0741 H   0  0  0  0  0  0  0  0  0  0  0  0
   -2.7856    0.5537    0.2026 H   0  0  0  0  0  0  0  0  0  0  0  0
   -1.5382    2.5478   -0.5400 H   0  0  0  0  0  0  0  0  0  0  0  0
    2.8901    1.7041   -1.2771 H   0  0  0  0  0  0  0  0  0  0  0  0
    8.4056    2.4311    0.2445 H   0  0  0  0  0  0  0  0  0  0  0  0
    8.3017    2.9006   -1.4583 H   0  0  0  0  0  0  0  0  0  0  0  0
    9.3427   -0.1027    0.6809 H   0  0  0  0  0  0  0  0  0  0  0  0
   10.1528   -0.8903   -0.6647 H   0  0  0  0  0  0  0  0  0  0  0  0
    8.1683   -1.4703   -1.7447 H   0  0  0  0  0  0  0  0  0  0  0  0
    7.7964   -1.7626   -0.0498 H   0  0  0  0  0  0  0  0  0  0  0  0
    7.2874   -1.8131   -3.6630 H   0  0  0  0  0  0  0  0  0  0  0  0
    5.7558   -0.9127   -3.8919 H   0  0  0  0  0  0  0  0  0  0  0  0
    4.3074   -4.0383   -2.8109 H   0  0  0  0  0  0  0  0  0  0  0  0
    6.0306   -4.5154   -2.6888 H   0  0  0  0  0  0  0  0  0  0  0  0
  1  2  2  0  0  0  0
  2  3  1  0  0  0  0
  2 14  1  0  0  0  0
  3  8  2  0  0  0  0
  3  4  1  0  0  0  0
  4  5  2  0  0  0  0
  4 34  1  0  0  0  0
  5  6  1  0  0  0  0
  5 35  1  0  0  0  0
  6  7  2  0  0  0  0
  6 36  1  0  0  0  0
  7  8  1  0  0  0  0
  7 37  1  0  0  0  0
  8  9  1  0  0  0  0
  9 10  1  0  0  0  0
 10 11  1  0  0  0  0
 10 12  1  0  0  0  0
 10 13  1  0  0  0  0
 14 15  1  0  0  0  0
 14 38  1  0  0  0  0
 15 25  1  0  0  0  0
 15 16  2  0  0  0  0
 16 17  1  0  0  0  0
 16 26  1  0  0  0  0
 17 22  1  0  0  0  0
 17 18  2  0  0  0  0
 18 19  1  0  0  0  0
 18 25  1  0  0  0  0
 19 20  1  0  0  0  0
 19 39  1  0  0  0  0
 19 40  1  0  0  0  0
 20 21  1  0  0  0  0
 20 23  1  0  0  0  0
 20 24  1  0  0  0  0
 21 22  1  0  0  0  0
 21 41  1  0  0  0  0
 21 42  1  0  0  0  0
 22 43  1  0  0  0  0
 22 44  1  0  0  0  0
 26 27  2  0  0  0  0
 26 28  1  0  0  0  0
 28 31  1  0  0  0  0
 28 29  1  0  0  0  0
 29 30  1  0  0  0  0
 29 45  1  0  0  0  0
 29 46  1  0  0  0  0
 30 31  1  0  0  0  0
 30 32  1  0  0  0  0
 30 33  1  0  0  0  0
 31 47  1  0  0  0  0
 31 48  1  0  0  0  0
M  END
$$$$
CHEMBL2316297_5ZTY
 OpenBabel12022418123D

 59 61  0  0  1  0  0  0  0  0999 V2000
   11.9829   -9.4910   -1.8721 C   0  0  0  0  0  0  0  0  0  0  0  0
   10.6446   -9.6249   -2.5843 C   0  0  0  0  0  0  0  0  0  0  0  0
    9.7600   -8.4089   -2.3133 C   0  0  0  0  0  0  0  0  0  0  0  0
    8.3641   -8.5002   -2.9442 C   0  0  0  0  0  0  0  0  0  0  0  0
    7.4822   -9.6388   -2.4223 C   0  0  0  0  0  0  0  0  0  0  0  0
    7.2386   -9.6424   -0.9623 N   0  0  0  0  0  0  0  0  0  0  0  0
    7.3794   -8.5107   -0.1222 C   0  0  0  0  0  0  0  0  0  0  0  0
    7.4573   -8.4959    1.2366 C   0  0  0  0  0  0  0  0  0  0  0  0
    7.8342   -7.1971    1.9436 C   0  0  0  0  0  0  0  0  0  0  0  0
    8.0936   -6.1830    1.2915 O   0  0  0  0  0  0  0  0  0  0  0  0
    7.9382   -7.2314    3.3223 N   0  0  0  0  0  0  0  0  0  0  0  0
    8.6863   -6.2514    4.1772 C   0  0  1  0  0  0  0  0  0  0  0  0
    7.7870   -5.2913    4.9946 C   0  0  0  0  0  0  0  0  0  0  0  0
    8.5473   -4.4961    6.0908 C   0  0  0  0  0  0  0  0  0  0  0  0
    9.2937   -5.4265    7.0566 C   0  0  2  0  0  0  0  0  0  0  0  0
   10.0862   -4.6862    8.1483 C   0  0  0  0  0  0  0  0  0  0  0  0
   10.2533   -6.3128    6.2652 C   0  0  0  0  0  0  0  0  0  0  0  0
    9.5872   -7.0708    5.1210 C   0  0  0  0  0  0  0  0  0  0  0  0
    7.2664   -9.8152    1.9247 C   0  0  0  0  0  0  0  0  0  0  0  0
    7.4099   -9.9278    3.1469 O   0  0  0  0  0  0  0  0  0  0  0  0
    6.8978  -10.9264    1.0539 C   0  0  0  0  0  0  0  0  0  0  0  0
    6.4055  -12.2236    1.3062 C   0  0  0  0  0  0  0  0  0  0  0  0
    5.9855  -12.8408    2.5855 C   0  0  0  0  0  0  0  0  0  0  0  0
    6.2495  -12.9230    0.1731 N   0  0  0  0  0  0  0  0  0  0  0  0
    6.5700  -12.0613   -0.8145 N   0  0  0  0  0  0  0  0  0  0  0  0
    6.4101  -12.5474   -2.1645 C   0  0  0  0  0  0  0  0  0  0  0  0
    6.9338  -10.8196   -0.3263 C   0  0  0  0  0  0  0  0  0  0  0  0
   12.6602  -10.2919   -2.1815 H   0  0  0  0  0  0  0  0  0  0  0  0
   11.8507   -9.5597   -0.7865 H   0  0  0  0  0  0  0  0  0  0  0  0
   12.4584   -8.5319   -2.0984 H   0  0  0  0  0  0  0  0  0  0  0  0
   10.1631  -10.5466   -2.2434 H   0  0  0  0  0  0  0  0  0  0  0  0
   10.8133   -9.7215   -3.6629 H   0  0  0  0  0  0  0  0  0  0  0  0
   10.2524   -7.5137   -2.7129 H   0  0  0  0  0  0  0  0  0  0  0  0
    9.6901   -8.2520   -1.2334 H   0  0  0  0  0  0  0  0  0  0  0  0
    8.4788   -8.6276   -4.0286 H   0  0  0  0  0  0  0  0  0  0  0  0
    7.8437   -7.5441   -2.8138 H   0  0  0  0  0  0  0  0  0  0  0  0
    7.9836  -10.5666   -2.7131 H   0  0  0  0  0  0  0  0  0  0  0  0
    6.5220   -9.6172   -2.9485 H   0  0  0  0  0  0  0  0  0  0  0  0
    7.4721   -7.5738   -0.6748 H   0  0  0  0  0  0  0  0  0  0  0  0
    7.7321   -8.1283    3.7568 H   0  0  0  0  0  0  0  0  0  0  0  0
    9.3168   -5.6400    3.5190 H   0  0  0  0  0  0  0  0  0  0  0  0
    6.9815   -5.8578    5.4765 H   0  0  0  0  0  0  0  0  0  0  0  0
    7.3004   -4.5749    4.3204 H   0  0  0  0  0  0  0  0  0  0  0  0
    7.8359   -3.8775    6.6536 H   0  0  0  0  0  0  0  0  0  0  0  0
    9.2561   -3.8014    5.6212 H   0  0  0  0  0  0  0  0  0  0  0  0
    8.5544   -6.0564    7.5678 H   0  0  0  0  0  0  0  0  0  0  0  0
   10.8043   -3.9772    7.7220 H   0  0  0  0  0  0  0  0  0  0  0  0
   10.6571   -5.4020    8.7536 H   0  0  0  0  0  0  0  0  0  0  0  0
    9.4293   -4.1395    8.8324 H   0  0  0  0  0  0  0  0  0  0  0  0
   10.7013   -7.0465    6.9479 H   0  0  0  0  0  0  0  0  0  0  0  0
   11.0786   -5.7052    5.8743 H   0  0  0  0  0  0  0  0  0  0  0  0
   10.3692   -7.5592    4.5271 H   0  0  0  0  0  0  0  0  0  0  0  0
    8.9911   -7.8787    5.5655 H   0  0  0  0  0  0  0  0  0  0  0  0
    6.1437  -12.1707    3.4317 H   0  0  0  0  0  0  0  0  0  0  0  0
    6.5255  -13.7732    2.7718 H   0  0  0  0  0  0  0  0  0  0  0  0
    4.9123  -13.0712    2.5426 H   0  0  0  0  0  0  0  0  0  0  0  0
    5.9868  -13.5580   -2.1432 H   0  0  0  0  0  0  0  0  0  0  0  0
    7.3873  -12.6013   -2.6489 H   0  0  0  0  0  0  0  0  0  0  0  0
    5.7239  -11.8922   -2.7041 H   0  0  0  0  0  0  0  0  0  0  0  0
  1  2  1  0  0  0  0
  1 28  1  0  0  0  0
  1 29  1  0  0  0  0
  1 30  1  0  0  0  0
  2  3  1  0  0  0  0
  2 31  1  0  0  0  0
  2 32  1  0  0  0  0
  3  4  1  0  0  0  0
  3 33  1  0  0  0  0
  3 34  1  0  0  0  0
  4  5  1  0  0  0  0
  4 35  1  0  0  0  0
  4 36  1  0  0  0  0
  5  6  1  0  0  0  0
  5 37  1  0  0  0  0
  5 38  1  0  0  0  0
  6 27  1  0  0  0  0
  6  7  1  0  0  0  0
  7  8  2  0  0  0  0
  7 39  1  0  0  0  0
  8  9  1  0  0  0  0
  8 19  1  0  0  0  0
  9 10  2  0  0  0  0
  9 11  1  0  0  0  0
 11 40  1  0  0  0  0
 12 13  1  0  0  0  0
 12 18  1  0  0  0  0
 12 11  1  0  0  0  0
 12 41  1  6  0  0  0
 13 14  1  0  0  0  0
 13 42  1  0  0  0  0
 13 43  1  0  0  0  0
 14 15  1  0  0  0  0
 14 44  1  0  0  0  0
 14 45  1  0  0  0  0
 15 16  1  0  0  0  0
 15 17  1  0  0  0  0
 15 46  1  1  0  0  0
 16 47  1  0  0  0  0
 16 48  1  0  0  0  0
 16 49  1  0  0  0  0
 17 18  1  0  0  0  0
 17 50  1  0  0  0  0
 17 51  1  0  0  0  0
 18 52  1  0  0  0  0
 18 53  1  0  0  0  0
 19 20  2  0  0  0  0
 19 21  1  0  0  0  0
 21 27  2  0  0  0  0
 21 22  1  0  0  0  0
 22 23  1  0  0  0  0
 22 24  2  0  0  0  0
 23 54  1  0  0  0  0
 23 55  1  0  0  0  0
 23 56  1  0  0  0  0
 24 25  1  0  0  0  0
 25 26  1  0  0  0  0
 25 27  1  0  0  0  0
 26 57  1  0  0  0  0
 26 58  1  0  0  0  0
 26 59  1  0  0  0  0
M  END
$$$$
CHEMBL3114520_5ZTY
 OpenBabel12022418123D

 48 51  0  0  0  0  0  0  0  0999 V2000
   -0.8490   -1.4384    0.0053 C   0  0  0  0  0  0  0  0  0  0  0  0
   -2.0529   -0.7442    0.0093 C   0  0  0  0  0  0  0  0  0  0  0  0
   -2.0636    0.6444    0.0364 C   0  0  0  0  0  0  0  0  0  0  0  0
   -0.8712    1.4108    0.0437 C   0  0  0  0  0  0  0  0  0  0  0  0
   -0.9129    2.8827    0.0588 C   0  0  0  0  0  0  0  0  0  0  0  0
   -1.9626    3.5795   -0.5717 C   0  0  0  0  0  0  0  0  0  0  0  0
   -1.9873    4.9724   -0.6209 C   0  0  0  0  0  0  0  0  0  0  0  0
   -0.9782    5.7042   -0.0037 C   0  0  0  0  0  0  0  0  0  0  0  0
    0.0429    5.0414    0.6717 C   0  0  0  0  0  0  0  0  0  0  0  0
    0.0790    3.6436    0.6907 C   0  0  0  0  0  0  0  0  0  0  0  0
    0.3621    0.7001    0.0229 C   0  0  0  0  0  0  0  0  0  0  0  0
    0.3371   -0.6923    0.0189 C   0  0  0  0  0  0  0  0  0  0  0  0
    1.6570   -1.0776    0.0323 N   0  0  0  0  0  0  0  0  0  0  0  0
    2.4447    0.0631    0.0288 C   0  0  0  0  0  0  0  0  0  0  0  0
    3.8994    0.1191    0.0590 C   0  0  0  0  0  0  0  0  0  0  0  0
    4.6048   -0.8936    0.1069 O   0  0  0  0  0  0  0  0  0  0  0  0
    4.4649    1.3736    0.0245 N   0  0  0  0  0  0  0  0  0  0  0  0
    5.9016    1.5322    0.0619 C   0  0  0  0  0  0  0  0  0  0  0  0
    6.4632    1.5653    1.4631 C   0  0  0  0  0  0  0  0  0  0  0  0
    6.1682    2.6348    2.3177 C   0  0  0  0  0  0  0  0  0  0  0  0
    6.8382    2.7634    3.5339 C   0  0  0  0  0  0  0  0  0  0  0  0
    7.7488    1.7934    3.9493 C   0  0  0  0  0  0  0  0  0  0  0  0
    7.9819    0.6776    3.1467 C   0  0  0  0  0  0  0  0  0  0  0  0
    7.3558    0.5720    1.9021 C   0  0  0  0  0  0  0  0  0  0  0  0
    6.5782    4.1656    4.4978 Cl  0  0  0  0  0  0  0  0  0  0  0  0
    1.6755    1.1444    0.0029 N   0  0  0  0  0  0  0  0  0  0  0  0
    2.0862   -2.4650   -0.0359 C   0  0  0  0  0  0  0  0  0  0  0  0
    2.2377   -3.1474    1.3147 C   0  0  0  0  0  0  0  0  0  0  0  0
   -0.8474   -2.5213   -0.0041 H   0  0  0  0  0  0  0  0  0  0  0  0
   -2.9934   -1.2903   -0.0000 H   0  0  0  0  0  0  0  0  0  0  0  0
   -3.0327    1.1392    0.0613 H   0  0  0  0  0  0  0  0  0  0  0  0
   -2.7727    3.0429   -1.0586 H   0  0  0  0  0  0  0  0  0  0  0  0
   -2.7880    5.4791   -1.1524 H   0  0  0  0  0  0  0  0  0  0  0  0
   -0.9859    6.7850   -0.0530 H   0  0  0  0  0  0  0  0  0  0  0  0
    0.8231    5.6071    1.1725 H   0  0  0  0  0  0  0  0  0  0  0  0
    0.8962    3.1585    1.2206 H   0  0  0  0  0  0  0  0  0  0  0  0
    3.8460    2.1782   -0.0527 H   0  0  0  0  0  0  0  0  0  0  0  0
    6.1815    2.4542   -0.4614 H   0  0  0  0  0  0  0  0  0  0  0  0
    6.3576    0.7064   -0.4973 H   0  0  0  0  0  0  0  0  0  0  0  0
    5.4368    3.3818    2.0222 H   0  0  0  0  0  0  0  0  0  0  0  0
    8.2781    1.9030    4.8912 H   0  0  0  0  0  0  0  0  0  0  0  0
    8.6693   -0.0992    3.4793 H   0  0  0  0  0  0  0  0  0  0  0  0
    7.5798   -0.2844    1.2681 H   0  0  0  0  0  0  0  0  0  0  0  0
    3.0076   -2.5322   -0.6186 H   0  0  0  0  0  0  0  0  0  0  0  0
    1.3272   -3.0043   -0.6142 H   0  0  0  0  0  0  0  0  0  0  0  0
    3.0159   -2.6714    1.9172 H   0  0  0  0  0  0  0  0  0  0  0  0
    2.5146   -4.1990    1.1740 H   0  0  0  0  0  0  0  0  0  0  0  0
    1.3016   -3.1311    1.8845 H   0  0  0  0  0  0  0  0  0  0  0  0
  1 12  2  0  0  0  0
  1  2  1  0  0  0  0
  1 29  1  0  0  0  0
  2  3  2  0  0  0  0
  2 30  1  0  0  0  0
  3  4  1  0  0  0  0
  3 31  1  0  0  0  0
  4  5  1  0  0  0  0
  4 11  2  0  0  0  0
  5 10  2  0  0  0  0
  5  6  1  0  0  0  0
  6  7  2  0  0  0  0
  6 32  1  0  0  0  0
  7  8  1  0  0  0  0
  7 33  1  0  0  0  0
  8  9  2  0  0  0  0
  8 34  1  0  0  0  0
  9 10  1  0  0  0  0
  9 35  1  0  0  0  0
 10 36  1  0  0  0  0
 11 26  1  0  0  0  0
 11 12  1  0  0  0  0
 12 13  1  0  0  0  0
 13 14  1  0  0  0  0
 13 27  1  0  0  0  0
 14 15  1  0  0  0  0
 14 26  2  0  0  0  0
 15 16  2  0  0  0  0
 15 17  1  0  0  0  0
 17 18  1  0  0  0  0
 17 37  1  0  0  0  0
 18 19  1  0  0  0  0
 18 38  1  0  0  0  0
 18 39  1  0  0  0  0
 19 24  2  0  0  0  0
 19 20  1  0  0  0  0
 20 21  2  0  0  0  0
 20 40  1  0  0  0  0
 21 22  1  0  0  0  0
 21 25  1  0  0  0  0
 22 23  2  0  0  0  0
 22 41  1  0  0  0  0
 23 24  1  0  0  0  0
 23 42  1  0  0  0  0
 24 43  1  0  0  0  0
 27 28  1  0  0  0  0
 27 44  1  0  0  0  0
 27 45  1  0  0  0  0
 28 46  1  0  0  0  0
 28 47  1  0  0  0  0
 28 48  1  0  0  0  0
M  END
$$$$
CHEMBL572887_5ZTY
 OpenBabel12022418123D

 53 56  0  0  0  0  0  0  0  0999 V2000
    1.2024    0.4065   -0.0436 C   0  0  0  0  0  0  0  0  0  0  0  0
    2.6695    0.1557   -0.0429 C   0  0  0  0  0  0  0  0  0  0  0  0
    3.6830    1.1745    0.0465 C   0  0  0  0  0  0  0  0  0  0  0  0
    3.5171    2.6653    0.0884 C   0  0  0  0  0  0  0  0  0  0  0  0
    2.4295    3.2191   -0.0086 O   0  0  0  0  0  0  0  0  0  0  0  0
    4.7116    3.3437    0.2353 N   0  0  0  0  0  0  0  0  0  0  0  0
    4.9561    4.7950    0.2157 C   0  0  0  0  0  0  0  0  0  0  0  0
    4.7654    5.4176   -1.1802 C   0  0  0  0  0  0  0  0  0  0  0  0
    3.6523    6.4580   -1.3404 C   0  0  0  0  0  0  0  0  0  0  0  0
    4.0357    7.8511   -0.8381 C   0  0  0  0  0  0  0  0  0  0  0  0
    4.0092    8.0291    0.6756 C   0  0  0  0  0  0  0  0  0  0  0  0
    4.8173    7.0125    1.4784 C   0  0  0  0  0  0  0  0  0  0  0  0
    4.3071    5.5652    1.3759 C   0  0  0  0  0  0  0  0  0  0  0  0
    4.9087    0.6154    0.1197 N   0  0  0  0  0  0  0  0  0  0  0  0
    4.7196   -0.7274    0.0351 N   0  0  0  0  0  0  0  0  0  0  0  0
    5.8547   -1.5631   -0.2158 C   0  0  0  0  0  0  0  0  0  0  0  0
    5.7597   -2.5909   -1.1743 C   0  0  0  0  0  0  0  0  0  0  0  0
    6.8605   -3.4071   -1.4537 C   0  0  0  0  0  0  0  0  0  0  0  0
    8.0656   -3.1912   -0.7938 C   0  0  0  0  0  0  0  0  0  0  0  0
    8.1764   -2.1792    0.1562 C   0  0  0  0  0  0  0  0  0  0  0  0
    7.0753   -1.3633    0.4527 C   0  0  0  0  0  0  0  0  0  0  0  0
    7.2904   -0.2493    1.7606 Cl  0  0  0  0  0  0  0  0  0  0  0  0
    9.4234   -4.1866   -1.1473 Cl  0  0  0  0  0  0  0  0  0  0  0  0
    3.3701   -1.0475    0.0030 C   0  0  0  0  0  0  0  0  0  0  0  0
    2.8641   -2.3548    0.0829 N   0  0  0  0  0  0  0  0  0  0  0  0
    3.4266   -3.4231    0.7671 C   0  0  0  0  0  0  0  0  0  0  0  0
    2.6334   -4.5408    0.6259 C   0  0  0  0  0  0  0  0  0  0  0  0
    1.5357   -4.1699   -0.1713 C   0  0  0  0  0  0  0  0  0  0  0  0
    1.6998   -2.8372   -0.4909 C   0  0  0  0  0  0  0  0  0  0  0  0
    0.6155   -0.4984    0.1252 H   0  0  0  0  0  0  0  0  0  0  0  0
    0.8921    0.8406   -0.9984 H   0  0  0  0  0  0  0  0  0  0  0  0
    0.9330    1.0951    0.7626 H   0  0  0  0  0  0  0  0  0  0  0  0
    5.5195    2.7253    0.2503 H   0  0  0  0  0  0  0  0  0  0  0  0
    6.0378    4.8350    0.4074 H   0  0  0  0  0  0  0  0  0  0  0  0
    4.6071    4.6235   -1.9199 H   0  0  0  0  0  0  0  0  0  0  0  0
    5.7131    5.8940   -1.4688 H   0  0  0  0  0  0  0  0  0  0  0  0
    2.7157    6.1196   -0.8853 H   0  0  0  0  0  0  0  0  0  0  0  0
    3.4510    6.5543   -2.4154 H   0  0  0  0  0  0  0  0  0  0  0  0
    3.3320    8.5777   -1.2671 H   0  0  0  0  0  0  0  0  0  0  0  0
    5.0235    8.1314   -1.2252 H   0  0  0  0  0  0  0  0  0  0  0  0
    2.9693    8.0248    1.0237 H   0  0  0  0  0  0  0  0  0  0  0  0
    4.3965    9.0326    0.9014 H   0  0  0  0  0  0  0  0  0  0  0  0
    4.7646    7.3200    2.5309 H   0  0  0  0  0  0  0  0  0  0  0  0
    5.8760    7.0735    1.1975 H   0  0  0  0  0  0  0  0  0  0  0  0
    4.5670    5.0532    2.3117 H   0  0  0  0  0  0  0  0  0  0  0  0
    3.2129    5.5430    1.3194 H   0  0  0  0  0  0  0  0  0  0  0  0
    4.8452   -2.7658   -1.7387 H   0  0  0  0  0  0  0  0  0  0  0  0
    6.7714   -4.2032   -2.1903 H   0  0  0  0  0  0  0  0  0  0  0  0
    9.1169   -2.0369    0.6837 H   0  0  0  0  0  0  0  0  0  0  0  0
    4.3359   -3.3012    1.3390 H   0  0  0  0  0  0  0  0  0  0  0  0
    2.8253   -5.5139    1.0617 H   0  0  0  0  0  0  0  0  0  0  0  0
    0.7151   -4.8005   -0.4866 H   0  0  0  0  0  0  0  0  0  0  0  0
    1.0932   -2.2071   -1.1247 H   0  0  0  0  0  0  0  0  0  0  0  0
  1  2  1  0  0  0  0
  1 30  1  0  0  0  0
  1 31  1  0  0  0  0
  1 32  1  0  0  0  0
  2 24  2  0  0  0  0
  2  3  1  0  0  0  0
  3  4  1  0  0  0  0
  3 14  2  0  0  0  0
  4  5  2  0  0  0  0
  4  6  1  0  0  0  0
  6  7  1  0  0  0  0
  6 33  1  0  0  0  0
  7 13  1  0  0  0  0
  7  8  1  0  0  0  0
  7 34  1  0  0  0  0
  8  9  1  0  0  0  0
  8 35  1  0  0  0  0
  8 36  1  0  0  0  0
  9 10  1  0  0  0  0
  9 37  1  0  0  0  0
  9 38  1  0  0  0  0
 10 11  1  0  0  0  0
 10 39  1  0  0  0  0
 10 40  1  0  0  0  0
 11 12  1  0  0  0  0
 11 41  1  0  0  0  0
 11 42  1  0  0  0  0
 12 13  1  0  0  0  0
 12 43  1  0  0  0  0
 12 44  1  0  0  0  0
 13 45  1  0  0  0  0
 13 46  1  0  0  0  0
 14 15  1  0  0  0  0
 15 16  1  0  0  0  0
 15 24  1  0  0  0  0
 16 21  2  0  0  0  0
 16 17  1  0  0  0  0
 17 18  2  0  0  0  0
 17 47  1  0  0  0  0
 18 19  1  0  0  0  0
 18 48  1  0  0  0  0
 19 20  2  0  0  0  0
 19 23  1  0  0  0  0
 20 21  1  0  0  0  0
 20 49  1  0  0  0  0
 21 22  1  0  0  0  0
 24 25  1  0  0  0  0
 25 29  1  0  0  0  0
 25 26  1  0  0  0  0
 26 27  2  0  0  0  0
 26 50  1  0  0  0  0
 27 28  1  0  0  0  0
 27 51  1  0  0  0  0
 28 29  2  0  0  0  0
 28 52  1  0  0  0  0
 29 53  1  0  0  0  0
M  END
$$$$
CHEMBL1765259_5ZTY
 OpenBabel12022418123D

 55 59  0  0  1  0  0  0  0  0999 V2000
    1.5613    0.5941    0.5658 O   0  0  0  0  0  0  0  0  0  0  0  0
    2.4356   -0.0483   -0.0196 C   0  0  0  0  0  0  0  0  0  0  0  0
    2.7715   -1.3768    0.5706 C   0  0  0  0  0  0  0  0  0  0  0  0
    3.0151   -2.5132   -0.1972 C   0  0  0  0  0  0  0  0  0  0  0  0
    3.3744   -3.7210    0.4083 C   0  0  0  0  0  0  0  0  0  0  0  0
    3.3972   -3.8669    1.7839 C   0  0  0  0  0  0  0  0  0  0  0  0
    3.0474   -2.7455    2.5747 C   0  0  0  0  0  0  0  0  0  0  0  0
    2.9918   -2.9269    3.9628 C   0  0  0  0  0  0  0  0  0  0  0  0
    3.2815   -4.1700    4.5089 C   0  0  0  0  0  0  0  0  0  0  0  0
    3.6380   -5.1915    3.6493 C   0  0  0  0  0  0  0  0  0  0  0  0
    3.7036   -5.0594    2.3073 N   0  0  0  0  0  0  0  0  0  0  0  0
    2.7559   -1.5092    1.9651 C   0  0  0  0  0  0  0  0  0  0  0  0
    3.1072    0.4593   -1.1436 N   0  0  0  0  0  0  0  0  0  0  0  0
    2.6954    1.7781   -1.6417 C   0  0  0  0  0  0  0  0  0  0  0  0
    3.8668    2.7628   -1.6721 C   0  0  0  0  0  0  0  0  0  0  0  0
    5.0481    2.2019   -2.4941 C   0  0  1  0  0  0  0  0  0  0  0  0
    4.5635    2.0934   -3.8389 O   0  0  0  0  0  0  0  0  0  0  0  0
    6.2716    3.1291   -2.4678 C   0  0  0  0  0  0  0  0  0  0  0  0
    6.9279    3.5158   -3.6521 C   0  0  0  0  0  0  0  0  0  0  0  0
    8.1082    4.2621   -3.6163 C   0  0  0  0  0  0  0  0  0  0  0  0
    8.6647    4.6280   -2.3955 C   0  0  0  0  0  0  0  0  0  0  0  0
    8.0357    4.2579   -1.2109 C   0  0  0  0  0  0  0  0  0  0  0  0
    6.8493    3.5208   -1.2462 C   0  0  0  0  0  0  0  0  0  0  0  0
    5.4364    0.8011   -1.9331 C   0  0  2  0  0  0  0  0  0  0  0  0
    6.5817    0.0710   -2.6512 C   0  0  0  0  0  0  0  0  0  0  0  0
    6.2651   -0.2866   -4.0898 C   0  0  0  0  0  0  0  0  0  0  0  0
    4.8897   -0.9056   -4.3136 C   0  0  0  0  0  0  0  0  0  0  0  0
    3.8125   -0.7205   -3.2400 C   0  0  0  0  0  0  0  0  0  0  0  0
    4.2414   -0.1602   -1.8691 C   0  0  2  0  0  0  0  0  0  0  0  0
    2.9237   -2.4933   -1.2732 H   0  0  0  0  0  0  0  0  0  0  0  0
    3.6201   -4.5791   -0.2125 H   0  0  0  0  0  0  0  0  0  0  0  0
    2.7046   -2.1059    4.6164 H   0  0  0  0  0  0  0  0  0  0  0  0
    3.2263   -4.3401    5.5782 H   0  0  0  0  0  0  0  0  0  0  0  0
    3.8825   -6.1808    4.0244 H   0  0  0  0  0  0  0  0  0  0  0  0
    2.4962   -0.6473    2.5782 H   0  0  0  0  0  0  0  0  0  0  0  0
    1.8926    2.2042   -1.0314 H   0  0  0  0  0  0  0  0  0  0  0  0
    2.2721    1.6463   -2.6431 H   0  0  0  0  0  0  0  0  0  0  0  0
    4.1668    2.9796   -0.6407 H   0  0  0  0  0  0  0  0  0  0  0  0
    3.5153    3.7061   -2.1106 H   0  0  0  0  0  0  0  0  0  0  0  0
    4.3664    2.9946   -4.1486 H   0  0  0  0  0  0  0  0  0  0  0  0
    6.5544    3.2047   -4.6256 H   0  0  0  0  0  0  0  0  0  0  0  0
    8.6042    4.5351   -4.5443 H   0  0  0  0  0  0  0  0  0  0  0  0
    9.5956    5.1876   -2.3673 H   0  0  0  0  0  0  0  0  0  0  0  0
    8.4789    4.5250   -0.2549 H   0  0  0  0  0  0  0  0  0  0  0  0
    6.4049    3.2206   -0.2996 H   0  0  0  0  0  0  0  0  0  0  0  0
    5.7716    0.9498   -0.8948 H   0  0  0  0  0  0  0  0  0  0  0  0
    6.8033   -0.8556   -2.1035 H   0  0  0  0  0  0  0  0  0  0  0  0
    7.5062    0.6573   -2.6109 H   0  0  0  0  0  0  0  0  0  0  0  0
    7.0310   -0.9781   -4.4629 H   0  0  0  0  0  0  0  0  0  0  0  0
    6.3669    0.6063   -4.7164 H   0  0  0  0  0  0  0  0  0  0  0  0
    5.0183   -1.9801   -4.4928 H   0  0  0  0  0  0  0  0  0  0  0  0
    4.4927   -0.5133   -5.2604 H   0  0  0  0  0  0  0  0  0  0  0  0
    3.3383   -1.6970   -3.0948 H   0  0  0  0  0  0  0  0  0  0  0  0
    3.0071   -0.1144   -3.6683 H   0  0  0  0  0  0  0  0  0  0  0  0
    4.6061   -1.0015   -1.2753 H   0  0  0  0  0  0  0  0  0  0  0  0
  1  2  2  0  0  0  0
  2  3  1  0  0  0  0
  2 13  1  0  0  0  0
  3 12  2  0  0  0  0
  3  4  1  0  0  0  0
  4  5  2  0  0  0  0
  4 30  1  0  0  0  0
  5  6  1  0  0  0  0
  5 31  1  0  0  0  0
  6 11  2  0  0  0  0
  6  7  1  0  0  0  0
  7  8  2  0  0  0  0
  7 12  1  0  0  0  0
  8  9  1  0  0  0  0
  8 32  1  0  0  0  0
  9 10  2  0  0  0  0
  9 33  1  0  0  0  0
 10 11  1  0  0  0  0
 10 34  1  0  0  0  0
 12 35  1  0  0  0  0
 13 29  1  0  0  0  0
 13 14  1  0  0  0  0
 14 15  1  0  0  0  0
 14 36  1  0  0  0  0
 14 37  1  0  0  0  0
 15 16  1  0  0  0  0
 15 38  1  0  0  0  0
 15 39  1  0  0  0  0
 16 17  1  6  0  0  0
 16 18  1  0  0  0  0
 16 24  1  0  0  0  0
 17 40  1  0  0  0  0
 18 23  2  0  0  0  0
 18 19  1  0  0  0  0
 19 20  2  0  0  0  0
 19 41  1  0  0  0  0
 20 21  1  0  0  0  0
 20 42  1  0  0  0  0
 21 22  2  0  0  0  0
 21 43  1  0  0  0  0
 22 23  1  0  0  0  0
 22 44  1  0  0  0  0
 23 45  1  0  0  0  0
 24 25  1  0  0  0  0
 24 29  1  0  0  0  0
 24 46  1  1  0  0  0
 25 26  1  0  0  0  0
 25 47  1  0  0  0  0
 25 48  1  0  0  0  0
 26 27  1  0  0  0  0
 26 49  1  0  0  0  0
 26 50  1  0  0  0  0
 27 28  1  0  0  0  0
 27 51  1  0  0  0  0
 27 52  1  0  0  0  0
 28 53  1  0  0  0  0
 28 54  1  0  0  0  0
 29 28  1  0  0  0  0
 29 55  1  1  0  0  0
M  END
$$$$
CHEMBL3354969_8GUQ
 OpenBabel12022418123D

 44 47  0  0  1  0  0  0  0  0999 V2000
    2.0003   -0.9888    1.5419 C   0  0  0  0  0  0  0  0  0  0  0  0
    3.0983   -0.3845    0.6440 C   0  0  0  0  0  0  0  0  0  0  0  0
    4.2056   -1.4481    0.4924 C   0  0  0  0  0  0  0  0  0  0  0  0
    2.4691   -0.0593   -0.7440 C   0  0  0  0  0  0  0  0  0  0  0  0
    1.9363   -1.2178   -1.3875 O   0  0  0  0  0  0  0  0  0  0  0  0
    3.6394    0.8347    1.2901 N   0  0  0  0  0  0  0  0  0  0  0  0
    4.6292    1.6228    0.7418 C   0  0  0  0  0  0  0  0  0  0  0  0
    5.1381    1.3844   -0.3522 O   0  0  0  0  0  0  0  0  0  0  0  0
    5.0638    2.7836    1.5442 C   0  0  0  0  0  0  0  0  0  0  0  0
    6.1264    3.6421    1.2200 C   0  0  0  0  0  0  0  0  0  0  0  0
    6.2053    4.5402    2.2423 C   0  0  0  0  0  0  0  0  0  0  0  0
    7.4880    5.3365    2.1849 C   0  0  1  0  0  0  0  0  0  0  0  0
    8.2048    4.7138    0.9592 C   0  0  1  0  0  0  0  0  0  0  0  0
    7.2608    3.7082    0.2669 C   0  0  0  0  0  0  0  0  0  0  0  0
    7.8734    6.1694    0.9902 C   0  0  0  0  0  0  0  0  0  0  0  0
    5.2323    4.2477    3.1432 N   0  0  0  0  0  0  0  0  0  0  0  0
    4.9169    4.9829    4.3108 C   0  0  0  0  0  0  0  0  0  0  0  0
    4.2784    4.3529    5.3850 C   0  0  0  0  0  0  0  0  0  0  0  0
    3.9708    5.0840    6.5366 C   0  0  0  0  0  0  0  0  0  0  0  0
    4.2601    6.4484    6.6012 C   0  0  0  0  0  0  0  0  0  0  0  0
    4.8766    7.0689    5.5230 C   0  0  0  0  0  0  0  0  0  0  0  0
    5.2286    6.3486    4.3868 C   0  0  0  0  0  0  0  0  0  0  0  0
    5.1248    8.3848    5.5709 F   0  0  0  0  0  0  0  0  0  0  0  0
    4.5302    3.1251    2.7513 N   0  0  0  0  0  0  0  0  0  0  0  0
    1.5934   -1.9137    1.1148 H   0  0  0  0  0  0  0  0  0  0  0  0
    1.1673   -0.2890    1.6733 H   0  0  0  0  0  0  0  0  0  0  0  0
    2.3882   -1.2299    2.5380 H   0  0  0  0  0  0  0  0  0  0  0  0
    3.8117   -2.3881    0.0891 H   0  0  0  0  0  0  0  0  0  0  0  0
    4.6675   -1.6739    1.4603 H   0  0  0  0  0  0  0  0  0  0  0  0
    5.0021   -1.1168   -0.1810 H   0  0  0  0  0  0  0  0  0  0  0  0
    3.1853    0.3983   -1.4323 H   0  0  0  0  0  0  0  0  0  0  0  0
    1.6452    0.6532   -0.6224 H   0  0  0  0  0  0  0  0  0  0  0  0
    2.6858   -1.6916   -1.7871 H   0  0  0  0  0  0  0  0  0  0  0  0
    3.3273    1.1043    2.2205 H   0  0  0  0  0  0  0  0  0  0  0  0
    7.9808    5.5888    3.1135 H   0  0  0  0  0  0  0  0  0  0  0  0
    9.2237    4.3752    1.0719 H   0  0  0  0  0  0  0  0  0  0  0  0
    6.9480    4.0823   -0.7123 H   0  0  0  0  0  0  0  0  0  0  0  0
    7.7515    2.7371    0.1586 H   0  0  0  0  0  0  0  0  0  0  0  0
    8.6947    6.8686    1.1194 H   0  0  0  0  0  0  0  0  0  0  0  0
    7.0836    6.5510    0.3533 H   0  0  0  0  0  0  0  0  0  0  0  0
    4.0496    3.2900    5.3481 H   0  0  0  0  0  0  0  0  0  0  0  0
    3.5025    4.5895    7.3839 H   0  0  0  0  0  0  0  0  0  0  0  0
    4.0032    7.0302    7.4813 H   0  0  0  0  0  0  0  0  0  0  0  0
    5.6846    6.8894    3.5625 H   0  0  0  0  0  0  0  0  0  0  0  0
  1  2  1  0  0  0  0
  1 25  1  0  0  0  0
  1 26  1  0  0  0  0
  1 27  1  0  0  0  0
  2  3  1  0  0  0  0
  2  4  1  0  0  0  0
  2  6  1  0  0  0  0
  3 28  1  0  0  0  0
  3 29  1  0  0  0  0
  3 30  1  0  0  0  0
  4  5  1  0  0  0  0
  4 31  1  0  0  0  0
  4 32  1  0  0  0  0
  5 33  1  0  0  0  0
  6  7  1  0  0  0  0
  6 34  1  0  0  0  0
  7  8  2  0  0  0  0
  7  9  1  0  0  0  0
  9 24  2  0  0  0  0
  9 10  1  0  0  0  0
 10 14  1  0  0  0  0
 10 11  2  0  0  0  0
 11 12  1  0  0  0  0
 11 16  1  0  0  0  0
 12 13  1  0  0  0  0
 12 15  1  0  0  0  0
 12 35  1  1  0  0  0
 13 14  1  0  0  0  0
 13 15  1  0  0  0  0
 13 36  1  1  0  0  0
 14 37  1  0  0  0  0
 14 38  1  0  0  0  0
 15 39  1  0  0  0  0
 15 40  1  0  0  0  0
 16 17  1  0  0  0  0
 16 24  1  0  0  0  0
 17 22  2  0  0  0  0
 17 18  1  0  0  0  0
 18 19  2  0  0  0  0
 18 41  1  0  0  0  0
 19 20  1  0  0  0  0
 19 42  1  0  0  0  0
 20 21  2  0  0  0  0
 20 43  1  0  0  0  0
 21 22  1  0  0  0  0
 21 23  1  0  0  0  0
 22 44  1  0  0  0  0
M  END
$$$$
CHEMBL1814468_5ZTY
 OpenBabel12022418123D

 61 65  0  0  1  0  0  0  0  0999 V2000
    3.2445   -0.3728   -5.0385 C   0  0  0  0  0  0  0  0  0  0  0  0
    3.7213   -0.1953   -3.5904 C   0  0  2  0  0  0  0  0  0  0  0  0
    2.4986   -0.2407   -2.6699 C   0  0  0  0  0  0  0  0  0  0  0  0
    1.5534    0.9447   -2.9732 C   0  0  2  0  0  0  0  0  0  0  0  0
    1.0614    0.7563   -4.4357 C   0  0  0  0  0  0  0  0  0  0  0  0
    2.2599    0.7502   -5.4080 C   0  0  1  0  0  0  0  0  0  0  0  0
    2.9944    2.0951   -5.2965 C   0  0  0  0  0  0  0  0  0  0  0  0
    3.4898    2.3071   -3.8563 C   0  0  2  0  0  0  0  0  0  0  0  0
    4.4301    1.1631   -3.4417 C   0  0  0  0  0  0  0  0  0  0  0  0
    2.2963    2.2995   -2.9023 C   0  0  0  0  0  0  0  0  0  0  0  0
    0.4249    0.9683   -2.0595 N   0  0  0  0  0  0  0  0  0  0  0  0
    0.5459    1.1051   -0.6940 C   0  0  0  0  0  0  0  0  0  0  0  0
    1.6005    1.0173   -0.0732 O   0  0  0  0  0  0  0  0  0  0  0  0
   -0.7227    1.4107    0.0096 C   0  0  0  0  0  0  0  0  0  0  0  0
   -2.0269    1.5166   -0.7261 C   0  0  0  0  0  0  0  0  0  0  0  0
   -2.0726    1.6218   -1.9492 O   0  0  0  0  0  0  0  0  0  0  0  0
   -3.1560    1.2807    0.0444 N   0  0  0  0  0  0  0  0  0  0  0  0
   -3.1441    1.9321    1.3128 C   0  0  0  0  0  0  0  0  0  0  0  0
   -1.9403    2.0026    2.0219 C   0  0  0  0  0  0  0  0  0  0  0  0
   -0.7118    1.5839    1.3464 C   0  0  0  0  0  0  0  0  0  0  0  0
   -1.9369    2.5463    3.3056 C   0  0  0  0  0  0  0  0  0  0  0  0
   -3.0963    3.1533    3.7946 C   0  0  0  0  0  0  0  0  0  0  0  0
   -4.2514    3.2140    3.0115 C   0  0  0  0  0  0  0  0  0  0  0  0
   -4.2866    2.5718    1.7737 C   0  0  0  0  0  0  0  0  0  0  0  0
   -3.3983   -0.1726    0.1427 C   0  0  0  0  0  0  0  0  0  0  0  0
   -4.8608   -0.5651    0.2666 C   0  0  0  0  0  0  0  0  0  0  0  0
   -5.6333   -0.1628   -0.9841 C   0  0  0  0  0  0  0  0  0  0  0  0
   -7.1011   -0.5538   -0.8715 C   0  0  0  0  0  0  0  0  0  0  0  0
   -7.8817   -0.1336   -2.1069 C   0  0  0  0  0  0  0  0  0  0  0  0
    4.1076   -0.3556   -5.7150 H   0  0  0  0  0  0  0  0  0  0  0  0
    2.7640   -1.3511   -5.1583 H   0  0  0  0  0  0  0  0  0  0  0  0
    4.4103   -1.0034   -3.3209 H   0  0  0  0  0  0  0  0  0  0  0  0
    1.9553   -1.1870   -2.8136 H   0  0  0  0  0  0  0  0  0  0  0  0
    2.8344   -0.2467   -1.6301 H   0  0  0  0  0  0  0  0  0  0  0  0
    0.3678    1.5632   -4.7108 H   0  0  0  0  0  0  0  0  0  0  0  0
    0.4932   -0.1780   -4.5321 H   0  0  0  0  0  0  0  0  0  0  0  0
    1.9037    0.6028   -6.4336 H   0  0  0  0  0  0  0  0  0  0  0  0
    3.8425    2.1183   -5.9911 H   0  0  0  0  0  0  0  0  0  0  0  0
    2.3207    2.9106   -5.5879 H   0  0  0  0  0  0  0  0  0  0  0  0
    4.0122    3.2675   -3.7842 H   0  0  0  0  0  0  0  0  0  0  0  0
    5.3364    1.1843   -4.0548 H   0  0  0  0  0  0  0  0  0  0  0  0
    4.7440    1.3047   -2.3987 H   0  0  0  0  0  0  0  0  0  0  0  0
    1.6070    3.1200   -3.1533 H   0  0  0  0  0  0  0  0  0  0  0  0
    2.6450    2.5040   -1.8825 H   0  0  0  0  0  0  0  0  0  0  0  0
   -0.4742    1.2300   -2.4682 H   0  0  0  0  0  0  0  0  0  0  0  0
    0.2016    1.4987    1.9253 H   0  0  0  0  0  0  0  0  0  0  0  0
   -1.0359    2.5385    3.9121 H   0  0  0  0  0  0  0  0  0  0  0  0
   -3.0875    3.6196    4.7776 H   0  0  0  0  0  0  0  0  0  0  0  0
   -5.1208    3.7634    3.3600 H   0  0  0  0  0  0  0  0  0  0  0  0
   -5.1790    2.6248    1.1527 H   0  0  0  0  0  0  0  0  0  0  0  0
   -2.9744   -0.6651   -0.7435 H   0  0  0  0  0  0  0  0  0  0  0  0
   -2.8337   -0.5755    0.9944 H   0  0  0  0  0  0  0  0  0  0  0  0
   -5.3074   -0.1169    1.1598 H   0  0  0  0  0  0  0  0  0  0  0  0
   -4.9164   -1.6545    0.3944 H   0  0  0  0  0  0  0  0  0  0  0  0
   -5.5564    0.9204   -1.1363 H   0  0  0  0  0  0  0  0  0  0  0  0
   -5.1873   -0.6449   -1.8631 H   0  0  0  0  0  0  0  0  0  0  0  0
   -7.1862   -1.6379   -0.7312 H   0  0  0  0  0  0  0  0  0  0  0  0
   -7.5368   -0.0815    0.0166 H   0  0  0  0  0  0  0  0  0  0  0  0
   -8.7180    0.5129   -1.8235 H   0  0  0  0  0  0  0  0  0  0  0  0
   -7.2637    0.4106   -2.8285 H   0  0  0  0  0  0  0  0  0  0  0  0
   -8.2959   -1.0119   -2.6114 H   0  0  0  0  0  0  0  0  0  0  0  0
  1  6  1  0  0  0  0
  1 30  1  0  0  0  0
  1 31  1  0  0  0  0
  2  1  1  0  0  0  0
  2  3  1  0  0  0  0
  2  9  1  0  0  0  0
  2 32  1  1  0  0  0
  3  4  1  0  0  0  0
  3 33  1  0  0  0  0
  3 34  1  0  0  0  0
  4 10  1  0  0  0  0
  4  5  1  0  0  0  0
  4 11  1  1  0  0  0
  5 35  1  0  0  0  0
  5 36  1  0  0  0  0
  6  5  1  0  0  0  0
  6  7  1  0  0  0  0
  6 37  1  6  0  0  0
  7 38  1  0  0  0  0
  7 39  1  0  0  0  0
  8  7  1  0  0  0  0
  8  9  1  0  0  0  0
  8 10  1  0  0  0  0
  8 40  1  1  0  0  0
  9 41  1  0  0  0  0
  9 42  1  0  0  0  0
 10 43  1  0  0  0  0
 10 44  1  0  0  0  0
 11 12  1  0  0  0  0
 11 45  1  0  0  0  0
 12 13  2  0  0  0  0
 12 14  1  0  0  0  0
 14 20  2  0  0  0  0
 14 15  1  0  0  0  0
 15 16  2  0  0  0  0
 15 17  1  0  0  0  0
 17 18  1  0  0  0  0
 17 25  1  0  0  0  0
 18 24  2  0  0  0  0
 18 19  1  0  0  0  0
 19 20  1  0  0  0  0
 19 21  2  0  0  0  0
 20 46  1  0  0  0  0
 21 22  1  0  0  0  0
 21 47  1  0  0  0  0
 22 23  2  0  0  0  0
 22 48  1  0  0  0  0
 23 24  1  0  0  0  0
 23 49  1  0  0  0  0
 24 50  1  0  0  0  0
 25 26  1  0  0  0  0
 25 51  1  0  0  0  0
 25 52  1  0  0  0  0
 26 27  1  0  0  0  0
 26 53  1  0  0  0  0
 26 54  1  0  0  0  0
 27 28  1  0  0  0  0
 27 55  1  0  0  0  0
 27 56  1  0  0  0  0
 28 29  1  0  0  0  0
 28 57  1  0  0  0  0
 28 58  1  0  0  0  0
 29 59  1  0  0  0  0
 29 60  1  0  0  0  0
 29 61  1  0  0  0  0
M  END
$$$$
CHEMBL3354960_8GUQ
 OpenBabel12022418123D

 56 60  0  0  1  0  0  0  0  0999 V2000
    1.3112    0.2889    0.5133 C   0  0  0  0  0  0  0  0  0  0  0  0
    2.8296    0.1507    0.2842 C   0  0  0  0  0  0  0  0  0  0  0  0
    3.3955   -0.6506    1.4781 C   0  0  0  0  0  0  0  0  0  0  0  0
    3.0889   -0.6649   -1.0536 C   0  0  0  0  0  0  0  0  0  0  0  0
    2.4572   -0.1627   -2.2992 N   0  0  0  0  0  0  0  0  0  0  0  0
    2.6161   -1.1102   -3.4337 C   0  0  0  0  0  0  0  0  0  0  0  0
    3.9642   -1.0561   -4.1923 C   0  0  0  0  0  0  0  0  0  0  0  0
    4.3830    0.2789   -4.5053 O   0  0  0  0  0  0  0  0  0  0  0  0
    4.3826    1.0845   -3.3220 C   0  0  0  0  0  0  0  0  0  0  0  0
    2.9585    1.1481   -2.7566 C   0  0  0  0  0  0  0  0  0  0  0  0
    3.4326    1.5022    0.2781 N   0  0  0  0  0  0  0  0  0  0  0  0
    4.7685    1.7563    0.0692 C   0  0  0  0  0  0  0  0  0  0  0  0
    5.6217    0.8721    0.0225 O   0  0  0  0  0  0  0  0  0  0  0  0
    5.1097    3.1697   -0.1760 C   0  0  0  0  0  0  0  0  0  0  0  0
    6.3963    3.6593   -0.4353 C   0  0  0  0  0  0  0  0  0  0  0  0
    6.2647    5.0136   -0.5168 C   0  0  0  0  0  0  0  0  0  0  0  0
    7.6116    5.6995   -0.4386 C   0  0  1  0  0  0  0  0  0  0  0  0
    8.5797    4.4984   -0.2486 C   0  0  1  0  0  0  0  0  0  0  0  0
    7.7967    3.1798   -0.3906 C   0  0  0  0  0  0  0  0  0  0  0  0
    8.7292    5.4212   -1.4118 C   0  0  0  0  0  0  0  0  0  0  0  0
    4.9497    5.3294   -0.3585 N   0  0  0  0  0  0  0  0  0  0  0  0
    4.3748    6.6161   -0.4642 C   0  0  0  0  0  0  0  0  0  0  0  0
    4.9993    7.5990   -1.2583 C   0  0  0  0  0  0  0  0  0  0  0  0
    4.4323    8.8700   -1.3749 C   0  0  0  0  0  0  0  0  0  0  0  0
    3.2637    9.1649   -0.6818 C   0  0  0  0  0  0  0  0  0  0  0  0
    2.6439    8.2100    0.1152 C   0  0  0  0  0  0  0  0  0  0  0  0
    3.1934    6.9335    0.2102 C   0  0  0  0  0  0  0  0  0  0  0  0
    2.5989    6.0565    1.0311 F   0  0  0  0  0  0  0  0  0  0  0  0
    2.7318   10.3890   -0.7804 F   0  0  0  0  0  0  0  0  0  0  0  0
    4.2092    4.1858   -0.1525 N   0  0  0  0  0  0  0  0  0  0  0  0
    0.8203   -0.6914    0.5277 H   0  0  0  0  0  0  0  0  0  0  0  0
    0.8370    0.8935   -0.2669 H   0  0  0  0  0  0  0  0  0  0  0  0
    1.1009    0.7791    1.4715 H   0  0  0  0  0  0  0  0  0  0  0  0
    2.9248   -1.6369    1.5568 H   0  0  0  0  0  0  0  0  0  0  0  0
    3.2194   -0.1202    2.4219 H   0  0  0  0  0  0  0  0  0  0  0  0
    4.4742   -0.8117    1.3957 H   0  0  0  0  0  0  0  0  0  0  0  0
    2.6714   -1.6677   -0.8772 H   0  0  0  0  0  0  0  0  0  0  0  0
    4.1636   -0.8216   -1.1970 H   0  0  0  0  0  0  0  0  0  0  0  0
    1.8259   -0.8613   -4.1546 H   0  0  0  0  0  0  0  0  0  0  0  0
    2.4126   -2.1414   -3.1210 H   0  0  0  0  0  0  0  0  0  0  0  0
    3.8611   -1.5829   -5.1477 H   0  0  0  0  0  0  0  0  0  0  0  0
    4.7607   -1.5503   -3.6264 H   0  0  0  0  0  0  0  0  0  0  0  0
    4.7237    2.0881   -3.5930 H   0  0  0  0  0  0  0  0  0  0  0  0
    5.1080    0.6754   -2.6109 H   0  0  0  0  0  0  0  0  0  0  0  0
    2.8672    1.9125   -1.9880 H   0  0  0  0  0  0  0  0  0  0  0  0
    2.2882    1.4878   -3.5574 H   0  0  0  0  0  0  0  0  0  0  0  0
    2.8256    2.3178    0.2274 H   0  0  0  0  0  0  0  0  0  0  0  0
    7.6848    6.6274    0.1124 H   0  0  0  0  0  0  0  0  0  0  0  0
    9.2751    4.5219    0.5756 H   0  0  0  0  0  0  0  0  0  0  0  0
    8.0741    2.6611   -1.3138 H   0  0  0  0  0  0  0  0  0  0  0  0
    7.9723    2.5300    0.4710 H   0  0  0  0  0  0  0  0  0  0  0  0
    9.5783    6.0995   -1.3987 H   0  0  0  0  0  0  0  0  0  0  0  0
    8.4722    5.0730   -2.4040 H   0  0  0  0  0  0  0  0  0  0  0  0
    5.8977    7.3811   -1.8329 H   0  0  0  0  0  0  0  0  0  0  0  0
    4.8872    9.6283   -2.0055 H   0  0  0  0  0  0  0  0  0  0  0  0
    1.7465    8.4614    0.6677 H   0  0  0  0  0  0  0  0  0  0  0  0
  1  2  1  0  0  0  0
  1 31  1  0  0  0  0
  1 32  1  0  0  0  0
  1 33  1  0  0  0  0
  2  3  1  0  0  0  0
  2  4  1  0  0  0  0
  2 11  1  0  0  0  0
  3 34  1  0  0  0  0
  3 35  1  0  0  0  0
  3 36  1  0  0  0  0
  4  5  1  0  0  0  0
  4 37  1  0  0  0  0
  4 38  1  0  0  0  0
  5 10  1  0  0  0  0
  5  6  1  0  0  0  0
  6  7  1  0  0  0  0
  6 39  1  0  0  0  0
  6 40  1  0  0  0  0
  7  8  1  0  0  0  0
  7 41  1  0  0  0  0
  7 42  1  0  0  0  0
  8  9  1  0  0  0  0
  9 10  1  0  0  0  0
  9 43  1  0  0  0  0
  9 44  1  0  0  0  0
 10 45  1  0  0  0  0
 10 46  1  0  0  0  0
 11 12  1  0  0  0  0
 11 47  1  0  0  0  0
 12 13  2  0  0  0  0
 12 14  1  0  0  0  0
 14 30  2  0  0  0  0
 14 15  1  0  0  0  0
 15 19  1  0  0  0  0
 15 16  2  0  0  0  0
 16 17  1  0  0  0  0
 16 21  1  0  0  0  0
 17 18  1  0  0  0  0
 17 20  1  0  0  0  0
 17 48  1  1  0  0  0
 18 19  1  0  0  0  0
 18 20  1  0  0  0  0
 18 49  1  1  0  0  0
 19 50  1  0  0  0  0
 19 51  1  0  0  0  0
 20 52  1  0  0  0  0
 20 53  1  0  0  0  0
 21 22  1  0  0  0  0
 21 30  1  0  0  0  0
 22 27  2  0  0  0  0
 22 23  1  0  0  0  0
 23 24  2  0  0  0  0
 23 54  1  0  0  0  0
 24 25  1  0  0  0  0
 24 55  1  0  0  0  0
 25 26  2  0  0  0  0
 25 29  1  0  0  0  0
 26 27  1  0  0  0  0
 26 56  1  0  0  0  0
 27 28  1  0  0  0  0
M  END
$$$$
CHEMBL3354970_8GUQ
 OpenBabel12022418123D

 44 47  0  0  1  0  0  0  0  0999 V2000
    2.3196    1.9479   -1.4181 C   0  0  0  0  0  0  0  0  0  0  0  0
    3.2100    0.9087   -0.7085 C   0  0  0  0  0  0  0  0  0  0  0  0
    4.3554    1.6800   -0.0196 C   0  0  0  0  0  0  0  0  0  0  0  0
    2.3499    0.1592    0.3516 C   0  0  0  0  0  0  0  0  0  0  0  0
    1.8069    1.0368    1.3375 O   0  0  0  0  0  0  0  0  0  0  0  0
    3.7474   -0.0270   -1.7178 N   0  0  0  0  0  0  0  0  0  0  0  0
    4.5950   -1.0751   -1.4145 C   0  0  0  0  0  0  0  0  0  0  0  0
    4.9944   -1.2975   -0.2725 O   0  0  0  0  0  0  0  0  0  0  0  0
    4.9879   -1.9369   -2.5421 C   0  0  0  0  0  0  0  0  0  0  0  0
    5.8700   -3.0231   -2.4451 C   0  0  0  0  0  0  0  0  0  0  0  0
    5.9536   -3.5510   -3.6979 C   0  0  0  0  0  0  0  0  0  0  0  0
    7.0478   -4.5888   -3.7827 C   0  0  1  0  0  0  0  0  0  0  0  0
    7.6545   -4.5497   -2.3575 C   0  0  1  0  0  0  0  0  0  0  0  0
    6.8175   -3.6116   -1.4668 C   0  0  0  0  0  0  0  0  0  0  0  0
    7.0569   -5.8086   -2.8943 C   0  0  0  0  0  0  0  0  0  0  0  0
    5.1679   -2.8112   -4.5249 N   0  0  0  0  0  0  0  0  0  0  0  0
    4.8782   -3.0814   -5.8885 C   0  0  0  0  0  0  0  0  0  0  0  0
    4.4339   -2.0573   -6.7331 C   0  0  0  0  0  0  0  0  0  0  0  0
    4.1417   -2.3422   -8.0714 C   0  0  0  0  0  0  0  0  0  0  0  0
    4.2580   -3.6461   -8.5457 C   0  0  0  0  0  0  0  0  0  0  0  0
    4.6822   -4.6733   -7.7140 C   0  0  0  0  0  0  0  0  0  0  0  0
    5.0084   -4.3906   -6.3858 C   0  0  0  0  0  0  0  0  0  0  0  0
    3.9483   -3.9174   -9.8215 F   0  0  0  0  0  0  0  0  0  0  0  0
    4.5866   -1.7667   -3.8318 N   0  0  0  0  0  0  0  0  0  0  0  0
    1.9188    2.6856   -0.7127 H   0  0  0  0  0  0  0  0  0  0  0  0
    1.4706    1.4662   -1.9159 H   0  0  0  0  0  0  0  0  0  0  0  0
    2.8824    2.4944   -2.1832 H   0  0  0  0  0  0  0  0  0  0  0  0
    3.9731    2.4511    0.6590 H   0  0  0  0  0  0  0  0  0  0  0  0
    4.9934    2.1767   -0.7591 H   0  0  0  0  0  0  0  0  0  0  0  0
    4.9959    1.0201    0.5737 H   0  0  0  0  0  0  0  0  0  0  0  0
    2.9174   -0.6153    0.8763 H   0  0  0  0  0  0  0  0  0  0  0  0
    1.5074   -0.3426   -0.1378 H   0  0  0  0  0  0  0  0  0  0  0  0
    2.5132    1.2079    1.9852 H   0  0  0  0  0  0  0  0  0  0  0  0
    3.4711    0.0449   -2.6922 H   0  0  0  0  0  0  0  0  0  0  0  0
    7.6283   -4.6639   -4.6917 H   0  0  0  0  0  0  0  0  0  0  0  0
    8.7233   -4.4481   -2.2464 H   0  0  0  0  0  0  0  0  0  0  0  0
    6.2972   -4.1747   -0.6870 H   0  0  0  0  0  0  0  0  0  0  0  0
    7.4535   -2.8452   -1.0151 H   0  0  0  0  0  0  0  0  0  0  0  0
    7.7365   -6.6129   -3.1571 H   0  0  0  0  0  0  0  0  0  0  0  0
    6.1120   -6.1596   -2.4951 H   0  0  0  0  0  0  0  0  0  0  0  0
    4.3446   -1.0349   -6.3732 H   0  0  0  0  0  0  0  0  0  0  0  0
    3.8208   -1.5573   -8.7485 H   0  0  0  0  0  0  0  0  0  0  0  0
    4.7440   -5.6873   -8.0968 H   0  0  0  0  0  0  0  0  0  0  0  0
    5.3051   -5.2181   -5.7457 H   0  0  0  0  0  0  0  0  0  0  0  0
  1  2  1  0  0  0  0
  1 25  1  0  0  0  0
  1 26  1  0  0  0  0
  1 27  1  0  0  0  0
  2  3  1  0  0  0  0
  2  4  1  0  0  0  0
  2  6  1  0  0  0  0
  3 28  1  0  0  0  0
  3 29  1  0  0  0  0
  3 30  1  0  0  0  0
  4  5  1  0  0  0  0
  4 31  1  0  0  0  0
  4 32  1  0  0  0  0
  5 33  1  0  0  0  0
  6  7  1  0  0  0  0
  6 34  1  0  0  0  0
  7  8  2  0  0  0  0
  7  9  1  0  0  0  0
  9 24  2  0  0  0  0
  9 10  1  0  0  0  0
 10 14  1  0  0  0  0
 10 11  2  0  0  0  0
 11 12  1  0  0  0  0
 11 16  1  0  0  0  0
 12 13  1  0  0  0  0
 12 15  1  0  0  0  0
 12 35  1  6  0  0  0
 13 14  1  0  0  0  0
 13 15  1  0  0  0  0
 13 36  1  1  0  0  0
 14 37  1  0  0  0  0
 14 38  1  0  0  0  0
 15 39  1  0  0  0  0
 15 40  1  0  0  0  0
 16 17  1  0  0  0  0
 16 24  1  0  0  0  0
 17 22  2  0  0  0  0
 17 18  1  0  0  0  0
 18 19  2  0  0  0  0
 18 41  1  0  0  0  0
 19 20  1  0  0  0  0
 19 42  1  0  0  0  0
 20 21  2  0  0  0  0
 20 23  1  0  0  0  0
 21 22  1  0  0  0  0
 21 43  1  0  0  0  0
 22 44  1  0  0  0  0
M  END
$$$$
CHEMBL2163948_5ZTY
 OpenBabel12022418123D

 61 66  0  0  1  0  0  0  0  0999 V2000
    1.1951   -0.9535    0.8697 C   0  0  0  0  0  0  0  0  0  0  0  0
    0.8563    0.3370    0.1020 C   0  0  1  0  0  0  0  0  0  0  0  0
    1.2144    0.0941   -1.3686 C   0  0  0  0  0  0  0  0  0  0  0  0
    0.3441   -1.0399   -1.9339 C   0  0  1  0  0  0  0  0  0  0  0  0
    0.5628   -2.3414   -1.1459 C   0  0  0  0  0  0  0  0  0  0  0  0
    0.3228   -2.1107    0.3555 C   0  0  2  0  0  0  0  0  0  0  0  0
   -1.1476   -1.7351    0.5609 C   0  0  0  0  0  0  0  0  0  0  0  0
   -1.5229   -0.5078   -0.3045 C   0  0  1  0  0  0  0  0  0  0  0  0
   -0.6528    0.6678    0.2396 C   0  0  0  0  0  0  0  0  0  0  0  0
   -1.1274   -0.6492   -1.7946 C   0  0  0  0  0  0  0  0  0  0  0  0
   -2.9841   -0.3516   -0.2725 N   0  0  0  0  0  0  0  0  0  0  0  0
   -3.6487    0.2954    0.7198 C   0  0  0  0  0  0  0  0  0  0  0  0
   -3.0695    1.0041    1.5476 O   0  0  0  0  0  0  0  0  0  0  0  0
   -5.1135    0.1136    0.8041 C   0  0  0  0  0  0  0  0  0  0  0  0
   -5.7158    0.8731    1.7208 C   0  0  0  0  0  0  0  0  0  0  0  0
   -7.0474    0.8920    2.0577 N   0  0  0  0  0  0  0  0  0  0  0  0
   -7.9339    0.0652    1.3539 C   0  0  0  0  0  0  0  0  0  0  0  0
   -7.4264   -0.8288    0.3764 C   0  0  0  0  0  0  0  0  0  0  0  0
   -8.2725   -1.7075   -0.3056 C   0  0  0  0  0  0  0  0  0  0  0  0
   -9.6355   -1.6885   -0.0319 C   0  0  0  0  0  0  0  0  0  0  0  0
  -10.1749   -0.7772    0.8854 C   0  0  0  0  0  0  0  0  0  0  0  0
   -9.3191    0.1122    1.5657 C   0  0  0  0  0  0  0  0  0  0  0  0
   -9.8913    1.0568    2.3601 O   0  0  0  0  0  0  0  0  0  0  0  0
   -9.0864    1.8175    3.2431 C   0  0  0  0  0  0  0  0  0  0  0  0
   -7.5634    1.7536    3.1285 C   0  0  1  0  0  0  0  0  0  0  0  0
   -6.9250    1.4268    4.5026 C   0  0  0  0  0  0  0  0  0  0  0  0
   -7.1742    0.0098    5.0030 C   0  0  0  0  0  0  0  0  0  0  0  0
  -11.5387   -0.8870    0.9897 O   0  0  0  0  0  0  0  0  0  0  0  0
  -12.2253   -0.0401    1.9004 C   0  0  0  0  0  0  0  0  0  0  0  0
   -5.9675   -0.8172    0.0376 C   0  0  0  0  0  0  0  0  0  0  0  0
   -5.5007   -1.5383   -0.8398 O   0  0  0  0  0  0  0  0  0  0  0  0
    2.2560   -1.2017    0.7381 H   0  0  0  0  0  0  0  0  0  0  0  0
    1.0368   -0.8059    1.9448 H   0  0  0  0  0  0  0  0  0  0  0  0
    1.4488    1.1685    0.5008 H   0  0  0  0  0  0  0  0  0  0  0  0
    2.2757   -0.1712   -1.4561 H   0  0  0  0  0  0  0  0  0  0  0  0
    1.0687    1.0154   -1.9448 H   0  0  0  0  0  0  0  0  0  0  0  0
    0.5870   -1.1942   -2.9906 H   0  0  0  0  0  0  0  0  0  0  0  0
    1.5755   -2.7199   -1.3152 H   0  0  0  0  0  0  0  0  0  0  0  0
   -0.1325   -3.1094   -1.5121 H   0  0  0  0  0  0  0  0  0  0  0  0
    0.5542   -3.0239    0.9151 H   0  0  0  0  0  0  0  0  0  0  0  0
   -1.3138   -1.4992    1.6237 H   0  0  0  0  0  0  0  0  0  0  0  0
   -1.7949   -2.5938    0.3445 H   0  0  0  0  0  0  0  0  0  0  0  0
   -0.8932    1.5983   -0.2907 H   0  0  0  0  0  0  0  0  0  0  0  0
   -0.8429    0.8519    1.3026 H   0  0  0  0  0  0  0  0  0  0  0  0
   -1.7636   -1.3772   -2.3114 H   0  0  0  0  0  0  0  0  0  0  0  0
   -1.2985    0.3111   -2.3042 H   0  0  0  0  0  0  0  0  0  0  0  0
   -3.5280   -1.0363   -0.8003 H   0  0  0  0  0  0  0  0  0  0  0  0
   -5.1288    1.5798    2.3159 H   0  0  0  0  0  0  0  0  0  0  0  0
   -7.8797   -2.3994   -1.0466 H   0  0  0  0  0  0  0  0  0  0  0  0
  -10.2996   -2.3771   -0.5550 H   0  0  0  0  0  0  0  0  0  0  0  0
   -9.4183    1.5657    4.2570 H   0  0  0  0  0  0  0  0  0  0  0  0
   -9.3916    2.8625    3.1102 H   0  0  0  0  0  0  0  0  0  0  0  0
   -7.2336    2.7764    2.8920 H   0  0  0  0  0  0  0  0  0  0  0  0
   -7.3139    2.1344    5.2463 H   0  0  0  0  0  0  0  0  0  0  0  0
   -5.8421    1.5970    4.4722 H   0  0  0  0  0  0  0  0  0  0  0  0
   -8.2394   -0.2361    5.0223 H   0  0  0  0  0  0  0  0  0  0  0  0
   -6.7913   -0.0945    6.0240 H   0  0  0  0  0  0  0  0  0  0  0  0
   -6.6609   -0.7273    4.3785 H   0  0  0  0  0  0  0  0  0  0  0  0
  -13.2834   -0.3166    1.8814 H   0  0  0  0  0  0  0  0  0  0  0  0
  -12.1617    1.0071    1.5866 H   0  0  0  0  0  0  0  0  0  0  0  0
  -11.8745   -0.1859    2.9277 H   0  0  0  0  0  0  0  0  0  0  0  0
  1  6  1  0  0  0  0
  1 32  1  0  0  0  0
  1 33  1  0  0  0  0
  2  1  1  0  0  0  0
  2  3  1  0  0  0  0
  2  9  1  0  0  0  0
  2 34  1  1  0  0  0
  3 35  1  0  0  0  0
  3 36  1  0  0  0  0
  4  3  1  0  0  0  0
  4  5  1  0  0  0  0
  4 10  1  0  0  0  0
  4 37  1  6  0  0  0
  5 38  1  0  0  0  0
  5 39  1  0  0  0  0
  6  5  1  0  0  0  0
  6  7  1  0  0  0  0
  6 40  1  1  0  0  0
  7  8  1  0  0  0  0
  7 41  1  0  0  0  0
  7 42  1  0  0  0  0
  8  9  1  0  0  0  0
  8 10  1  0  0  0  0
  8 11  1  1  0  0  0
  9 43  1  0  0  0  0
  9 44  1  0  0  0  0
 10 45  1  0  0  0  0
 10 46  1  0  0  0  0
 11 12  1  0  0  0  0
 11 47  1  0  0  0  0
 12 13  2  0  0  0  0
 12 14  1  0  0  0  0
 14 30  1  0  0  0  0
 14 15  2  0  0  0  0
 15 16  1  0  0  0  0
 15 48  1  0  0  0  0
 16 25  1  0  0  0  0
 16 17  1  0  0  0  0
 17 22  2  0  0  0  0
 17 18  1  0  0  0  0
 18 19  2  0  0  0  0
 18 30  1  0  0  0  0
 19 20  1  0  0  0  0
 19 49  1  0  0  0  0
 20 21  2  0  0  0  0
 20 50  1  0  0  0  0
 21 22  1  0  0  0  0
 21 28  1  0  0  0  0
 22 23  1  0  0  0  0
 23 24  1  0  0  0  0
 24 25  1  0  0  0  0
 24 51  1  0  0  0  0
 24 52  1  0  0  0  0
 25 26  1  0  0  0  0
 25 53  1  6  0  0  0
 26 27  1  0  0  0  0
 26 54  1  0  0  0  0
 26 55  1  0  0  0  0
 27 56  1  0  0  0  0
 27 57  1  0  0  0  0
 27 58  1  0  0  0  0
 28 29  1  0  0  0  0
 29 59  1  0  0  0  0
 29 60  1  0  0  0  0
 29 61  1  0  0  0  0
 30 31  2  0  0  0  0
M  END
$$$$
CHEMBL3354948_8GUQ
 OpenBabel12022418123D

 49 53  0  0  1  0  0  0  0  0999 V2000
    4.1467   -0.4108   -1.7760 C   0  0  0  0  0  0  0  0  0  0  0  0
    3.0350   -0.9436   -0.8335 C   0  0  0  0  0  0  0  0  0  0  0  0
    2.3683    0.2901   -0.1688 C   0  0  0  0  0  0  0  0  0  0  0  0
    2.0121   -1.7192   -1.7018 C   0  0  0  0  0  0  0  0  0  0  0  0
    2.3919   -2.8094   -2.5023 C   0  0  0  0  0  0  0  0  0  0  0  0
    1.4641   -3.4386   -3.3429 C   0  0  0  0  0  0  0  0  0  0  0  0
    0.1615   -2.9736   -3.3617 C   0  0  0  0  0  0  0  0  0  0  0  0
   -0.2565   -1.9391   -2.6134 N   0  0  0  0  0  0  0  0  0  0  0  0
    0.6675   -1.3444   -1.8139 C   0  0  0  0  0  0  0  0  0  0  0  0
    3.6205   -1.8218    0.2144 N   0  0  0  0  0  0  0  0  0  0  0  0
    4.5742   -1.3802    1.1354 C   0  0  0  0  0  0  0  0  0  0  0  0
    5.0101   -0.2342    1.1249 O   0  0  0  0  0  0  0  0  0  0  0  0
    5.0790   -2.3491    2.1343 C   0  0  0  0  0  0  0  0  0  0  0  0
    6.1587   -2.0774    3.0102 C   0  0  0  0  0  0  0  0  0  0  0  0
    6.3964   -3.2436    3.6679 C   0  0  0  0  0  0  0  0  0  0  0  0
    7.7623   -3.2554    4.3168 C   0  0  1  0  0  0  0  0  0  0  0  0
    8.3304   -1.8747    3.9127 C   0  0  1  0  0  0  0  0  0  0  0  0
    7.2296   -1.0641    3.1924 C   0  0  0  0  0  0  0  0  0  0  0  0
    8.1904   -2.2524    5.3523 C   0  0  0  0  0  0  0  0  0  0  0  0
    5.4717   -4.1575    3.2841 N   0  0  0  0  0  0  0  0  0  0  0  0
    5.4155   -5.4881    3.7599 C   0  0  0  0  0  0  0  0  0  0  0  0
    5.0084   -6.5258    2.9180 C   0  0  0  0  0  0  0  0  0  0  0  0
    5.1414   -7.8475    3.3596 C   0  0  0  0  0  0  0  0  0  0  0  0
    5.6278   -8.1176    4.6389 C   0  0  0  0  0  0  0  0  0  0  0  0
    5.9758   -7.0934    5.5036 C   0  0  0  0  0  0  0  0  0  0  0  0
    5.8671   -5.7830    5.0581 C   0  0  0  0  0  0  0  0  0  0  0  0
    6.1750   -4.8123    5.9319 F   0  0  0  0  0  0  0  0  0  0  0  0
    5.7627   -9.3871    5.0417 F   0  0  0  0  0  0  0  0  0  0  0  0
    4.6718   -3.6452    2.2749 N   0  0  0  0  0  0  0  0  0  0  0  0
    3.7360    0.2804   -2.5221 H   0  0  0  0  0  0  0  0  0  0  0  0
    4.6553   -1.2163   -2.3158 H   0  0  0  0  0  0  0  0  0  0  0  0
    4.9248    0.1357   -1.2346 H   0  0  0  0  0  0  0  0  0  0  0  0
    1.9477    0.9713   -0.9204 H   0  0  0  0  0  0  0  0  0  0  0  0
    3.0686    0.8882    0.4187 H   0  0  0  0  0  0  0  0  0  0  0  0
    1.5637   -0.0119    0.5121 H   0  0  0  0  0  0  0  0  0  0  0  0
    3.4185   -3.1661   -2.5071 H   0  0  0  0  0  0  0  0  0  0  0  0
    1.7542   -4.2705   -3.9763 H   0  0  0  0  0  0  0  0  0  0  0  0
   -0.5944   -3.4263   -3.9957 H   0  0  0  0  0  0  0  0  0  0  0  0
    0.2462   -0.5066   -1.2660 H   0  0  0  0  0  0  0  0  0  0  0  0
    3.3126   -2.7813    0.3146 H   0  0  0  0  0  0  0  0  0  0  0  0
    8.3268   -4.1778    4.3016 H   0  0  0  0  0  0  0  0  0  0  0  0
    9.3021   -1.8366    3.4440 H   0  0  0  0  0  0  0  0  0  0  0  0
    6.8985   -0.2319    3.8214 H   0  0  0  0  0  0  0  0  0  0  0  0
    7.6015   -0.6886    2.2358 H   0  0  0  0  0  0  0  0  0  0  0  0
    9.0961   -2.4838    5.9056 H   0  0  0  0  0  0  0  0  0  0  0  0
    7.4226   -1.7930    5.9626 H   0  0  0  0  0  0  0  0  0  0  0  0
    4.6608   -6.3263    1.9068 H   0  0  0  0  0  0  0  0  0  0  0  0
    4.8908   -8.6783    2.7069 H   0  0  0  0  0  0  0  0  0  0  0  0
    6.3344   -7.3044    6.5040 H   0  0  0  0  0  0  0  0  0  0  0  0
  1  2  1  0  0  0  0
  1 30  1  0  0  0  0
  1 31  1  0  0  0  0
  1 32  1  0  0  0  0
  2  3  1  0  0  0  0
  2  4  1  0  0  0  0
  2 10  1  0  0  0  0
  3 33  1  0  0  0  0
  3 34  1  0  0  0  0
  3 35  1  0  0  0  0
  4  9  2  0  0  0  0
  4  5  1  0  0  0  0
  5  6  2  0  0  0  0
  5 36  1  0  0  0  0
  6  7  1  0  0  0  0
  6 37  1  0  0  0  0
  7  8  2  0  0  0  0
  7 38  1  0  0  0  0
  8  9  1  0  0  0  0
  9 39  1  0  0  0  0
 10 11  1  0  0  0  0
 10 40  1  0  0  0  0
 11 12  2  0  0  0  0
 11 13  1  0  0  0  0
 13 29  2  0  0  0  0
 13 14  1  0  0  0  0
 14 18  1  0  0  0  0
 14 15  2  0  0  0  0
 15 16  1  0  0  0  0
 15 20  1  0  0  0  0
 16 17  1  0  0  0  0
 16 19  1  0  0  0  0
 16 41  1  6  0  0  0
 17 18  1  0  0  0  0
 17 19  1  0  0  0  0
 17 42  1  6  0  0  0
 18 43  1  0  0  0  0
 18 44  1  0  0  0  0
 19 45  1  0  0  0  0
 19 46  1  0  0  0  0
 20 21  1  0  0  0  0
 20 29  1  0  0  0  0
 21 26  2  0  0  0  0
 21 22  1  0  0  0  0
 22 23  2  0  0  0  0
 22 47  1  0  0  0  0
 23 24  1  0  0  0  0
 23 48  1  0  0  0  0
 24 25  2  0  0  0  0
 24 28  1  0  0  0  0
 25 26  1  0  0  0  0
 25 49  1  0  0  0  0
 26 27  1  0  0  0  0
M  END
$$$$
CHEMBL3354950_8GUQ
 OpenBabel12022418123D

 43 46  0  0  1  0  0  0  0  0999 V2000
    4.2683    0.0702    1.6897 C   0  0  0  0  0  0  0  0  0  0  0  0
    3.1095    0.6798    0.8803 C   0  0  0  0  0  0  0  0  0  0  0  0
    2.3310   -0.4371    0.1612 C   0  0  0  0  0  0  0  0  0  0  0  0
    2.1504    1.3651    1.8700 C   0  0  0  0  0  0  0  0  0  0  0  0
    3.6081    1.6755   -0.0804 N   0  0  0  0  0  0  0  0  0  0  0  0
    4.4966    1.3901   -1.0964 C   0  0  0  0  0  0  0  0  0  0  0  0
    4.9809    0.2779   -1.2866 O   0  0  0  0  0  0  0  0  0  0  0  0
    4.8285    2.5245   -1.9793 C   0  0  0  0  0  0  0  0  0  0  0  0
    5.7106    2.4607   -3.0698 C   0  0  0  0  0  0  0  0  0  0  0  0
    5.7116    3.7094   -3.6165 C   0  0  0  0  0  0  0  0  0  0  0  0
    6.7975    3.8535   -4.6571 C   0  0  1  0  0  0  0  0  0  0  0  0
    7.4935    2.4680   -4.6020 C   0  0  1  0  0  0  0  0  0  0  0  0
    6.7117    1.5369   -3.6539 C   0  0  0  0  0  0  0  0  0  0  0  0
    6.8652    2.9531   -5.8661 C   0  0  0  0  0  0  0  0  0  0  0  0
    4.8822    4.4978   -2.8863 N   0  0  0  0  0  0  0  0  0  0  0  0
    4.5267    5.8372   -3.1495 C   0  0  0  0  0  0  0  0  0  0  0  0
    4.4427    6.2978   -4.4700 C   0  0  0  0  0  0  0  0  0  0  0  0
    4.0725    7.6091   -4.7466 C   0  0  0  0  0  0  0  0  0  0  0  0
    3.8160    8.4720   -3.6920 C   0  0  0  0  0  0  0  0  0  0  0  0
    3.9053    8.0395   -2.3703 C   0  0  0  0  0  0  0  0  0  0  0  0
    4.2390    6.7099   -2.0919 C   0  0  0  0  0  0  0  0  0  0  0  0
    3.4688    9.7393   -3.9501 F   0  0  0  0  0  0  0  0  0  0  0  0
    4.6293    5.4751   -5.5115 F   0  0  0  0  0  0  0  0  0  0  0  0
    4.3596    3.7937   -1.8179 N   0  0  0  0  0  0  0  0  0  0  0  0
    3.8991   -0.6487    2.4300 H   0  0  0  0  0  0  0  0  0  0  0  0
    4.8249    0.8485    2.2240 H   0  0  0  0  0  0  0  0  0  0  0  0
    4.9828   -0.4626    1.0550 H   0  0  0  0  0  0  0  0  0  0  0  0
    1.9278   -1.1626    0.8774 H   0  0  0  0  0  0  0  0  0  0  0  0
    2.9593   -0.9933   -0.5414 H   0  0  0  0  0  0  0  0  0  0  0  0
    1.4901   -0.0259   -0.4090 H   0  0  0  0  0  0  0  0  0  0  0  0
    1.7707    0.6510    2.6112 H   0  0  0  0  0  0  0  0  0  0  0  0
    1.2872    1.7990    1.3531 H   0  0  0  0  0  0  0  0  0  0  0  0
    2.6508    2.1747    2.4129 H   0  0  0  0  0  0  0  0  0  0  0  0
    3.2711    2.6341   -0.0554 H   0  0  0  0  0  0  0  0  0  0  0  0
    7.3122    4.7991   -4.7513 H   0  0  0  0  0  0  0  0  0  0  0  0
    8.5670    2.4243   -4.4993 H   0  0  0  0  0  0  0  0  0  0  0  0
    6.2371    0.7232   -4.2099 H   0  0  0  0  0  0  0  0  0  0  0  0
    7.3745    1.1289   -2.8861 H   0  0  0  0  0  0  0  0  0  0  0  0
    7.5247    3.2547   -6.6735 H   0  0  0  0  0  0  0  0  0  0  0  0
    5.9418    2.5030   -6.2136 H   0  0  0  0  0  0  0  0  0  0  0  0
    3.9707    7.9450   -5.7724 H   0  0  0  0  0  0  0  0  0  0  0  0
    3.7130    8.7439   -1.5662 H   0  0  0  0  0  0  0  0  0  0  0  0
    4.3154    6.3799   -1.0578 H   0  0  0  0  0  0  0  0  0  0  0  0
  1  2  1  0  0  0  0
  1 25  1  0  0  0  0
  1 26  1  0  0  0  0
  1 27  1  0  0  0  0
  2  3  1  0  0  0  0
  2  4  1  0  0  0  0
  2  5  1  0  0  0  0
  3 28  1  0  0  0  0
  3 29  1  0  0  0  0
  3 30  1  0  0  0  0
  4 31  1  0  0  0  0
  4 32  1  0  0  0  0
  4 33  1  0  0  0  0
  5  6  1  0  0  0  0
  5 34  1  0  0  0  0
  6  7  2  0  0  0  0
  6  8  1  0  0  0  0
  8 24  2  0  0  0  0
  8  9  1  0  0  0  0
  9 13  1  0  0  0  0
  9 10  2  0  0  0  0
 10 11  1  0  0  0  0
 10 15  1  0  0  0  0
 11 12  1  0  0  0  0
 11 14  1  0  0  0  0
 11 35  1  1  0  0  0
 12 13  1  0  0  0  0
 12 14  1  0  0  0  0
 12 36  1  1  0  0  0
 13 37  1  0  0  0  0
 13 38  1  0  0  0  0
 14 39  1  0  0  0  0
 14 40  1  0  0  0  0
 15 16  1  0  0  0  0
 15 24  1  0  0  0  0
 16 21  2  0  0  0  0
 16 17  1  0  0  0  0
 17 18  2  0  0  0  0
 17 23  1  0  0  0  0
 18 19  1  0  0  0  0
 18 41  1  0  0  0  0
 19 20  2  0  0  0  0
 19 22  1  0  0  0  0
 20 21  1  0  0  0  0
 20 42  1  0  0  0  0
 21 43  1  0  0  0  0
M  END
$$$$
CHEMBL2441450_5ZTY
 OpenBabel12022418123D

 53 56  0  0  0  0  0  0  0  0999 V2000
    4.7334   -7.0397   -3.4244 C   0  0  0  0  0  0  0  0  0  0  0  0
    4.3128   -5.5816   -3.4490 C   0  0  0  0  0  0  0  0  0  0  0  0
    4.8863   -4.8281   -2.2501 C   0  0  0  0  0  0  0  0  0  0  0  0
    4.4661   -3.3598   -2.2716 C   0  0  0  0  0  0  0  0  0  0  0  0
    5.0870   -2.5511   -1.1297 C   0  0  0  0  0  0  0  0  0  0  0  0
    6.5421   -2.5711   -1.1058 N   0  0  0  0  0  0  0  0  0  0  0  0
    7.3501   -2.0371   -2.0933 C   0  0  0  0  0  0  0  0  0  0  0  0
    7.0320   -1.3797   -3.2933 C   0  0  0  0  0  0  0  0  0  0  0  0
    8.0743   -0.9865   -4.1334 C   0  0  0  0  0  0  0  0  0  0  0  0
    9.3981   -1.2086   -3.7746 C   0  0  0  0  0  0  0  0  0  0  0  0
    9.7113   -1.8410   -2.5665 C   0  0  0  0  0  0  0  0  0  0  0  0
    8.6737   -2.2747   -1.7127 C   0  0  0  0  0  0  0  0  0  0  0  0
    8.6479   -2.9459   -0.4498 C   0  0  0  0  0  0  0  0  0  0  0  0
    9.6431   -3.3907    0.4381 C   0  0  0  0  0  0  0  0  0  0  0  0
    9.2064   -3.9923    1.6169 C   0  0  0  0  0  0  0  0  0  0  0  0
   10.2193   -4.3176    2.6775 C   0  0  0  0  0  0  0  0  0  0  0  0
   11.3567   -4.6071    2.3127 O   0  0  0  0  0  0  0  0  0  0  0  0
    9.8702   -4.2403    4.0362 N   0  0  0  0  0  0  0  0  0  0  0  0
   10.8370   -4.6557    5.0483 C   0  0  0  0  0  0  0  0  0  0  0  0
   10.2864   -5.8302    5.8589 C   0  0  0  0  0  0  0  0  0  0  0  0
    8.8910   -5.5309    6.4163 C   0  0  0  0  0  0  0  0  0  0  0  0
    7.9483   -5.0366    5.3167 C   0  0  0  0  0  0  0  0  0  0  0  0
    8.5724   -3.8462    4.5970 C   0  0  0  0  0  0  0  0  0  0  0  0
    7.9081   -4.2658    1.8810 N   0  0  0  0  0  0  0  0  0  0  0  0
    6.9489   -3.8226    1.0440 C   0  0  0  0  0  0  0  0  0  0  0  0
    7.3091   -3.1449   -0.1125 C   0  0  0  0  0  0  0  0  0  0  0  0
    4.3114   -7.5696   -4.2823 H   0  0  0  0  0  0  0  0  0  0  0  0
    4.3826   -7.5309   -2.5119 H   0  0  0  0  0  0  0  0  0  0  0  0
    5.8214   -7.1315   -3.4671 H   0  0  0  0  0  0  0  0  0  0  0  0
    3.2163   -5.5132   -3.4411 H   0  0  0  0  0  0  0  0  0  0  0  0
    4.6599   -5.1193   -4.3789 H   0  0  0  0  0  0  0  0  0  0  0  0
    5.9802   -4.9125   -2.2794 H   0  0  0  0  0  0  0  0  0  0  0  0
    4.5502   -5.2928   -1.3162 H   0  0  0  0  0  0  0  0  0  0  0  0
    3.3756   -3.2877   -2.1991 H   0  0  0  0  0  0  0  0  0  0  0  0
    4.7344   -2.9263   -3.2393 H   0  0  0  0  0  0  0  0  0  0  0  0
    4.7126   -2.9298   -0.1719 H   0  0  0  0  0  0  0  0  0  0  0  0
    4.7833   -1.4994   -1.1898 H   0  0  0  0  0  0  0  0  0  0  0  0
    6.0054   -1.1869   -3.5856 H   0  0  0  0  0  0  0  0  0  0  0  0
    7.8428   -0.5018   -5.0782 H   0  0  0  0  0  0  0  0  0  0  0  0
   10.1973   -0.8890   -4.4375 H   0  0  0  0  0  0  0  0  0  0  0  0
   10.7490   -2.0090   -2.2963 H   0  0  0  0  0  0  0  0  0  0  0  0
   10.6969   -3.2316    0.2439 H   0  0  0  0  0  0  0  0  0  0  0  0
   11.0151   -3.7944    5.7023 H   0  0  0  0  0  0  0  0  0  0  0  0
   11.7976   -4.9289    4.6010 H   0  0  0  0  0  0  0  0  0  0  0  0
   10.9703   -6.0688    6.6806 H   0  0  0  0  0  0  0  0  0  0  0  0
   10.2281   -6.7168    5.2151 H   0  0  0  0  0  0  0  0  0  0  0  0
    8.9687   -4.7612    7.1947 H   0  0  0  0  0  0  0  0  0  0  0  0
    8.4768   -6.4271    6.8905 H   0  0  0  0  0  0  0  0  0  0  0  0
    6.9842   -4.7530    5.7495 H   0  0  0  0  0  0  0  0  0  0  0  0
    7.7621   -5.8512    4.6044 H   0  0  0  0  0  0  0  0  0  0  0  0
    7.8853   -3.4234    3.8720 H   0  0  0  0  0  0  0  0  0  0  0  0
    8.7623   -3.0317    5.3080 H   0  0  0  0  0  0  0  0  0  0  0  0
    5.9259   -4.0049    1.3522 H   0  0  0  0  0  0  0  0  0  0  0  0
  1  2  1  0  0  0  0
  1 27  1  0  0  0  0
  1 28  1  0  0  0  0
  1 29  1  0  0  0  0
  2  3  1  0  0  0  0
  2 30  1  0  0  0  0
  2 31  1  0  0  0  0
  3  4  1  0  0  0  0
  3 32  1  0  0  0  0
  3 33  1  0  0  0  0
  4  5  1  0  0  0  0
  4 34  1  0  0  0  0
  4 35  1  0  0  0  0
  5  6  1  0  0  0  0
  5 36  1  0  0  0  0
  5 37  1  0  0  0  0
  6 26  1  0  0  0  0
  6  7  1  0  0  0  0
  7 12  2  0  0  0  0
  7  8  1  0  0  0  0
  8  9  2  0  0  0  0
  8 38  1  0  0  0  0
  9 10  1  0  0  0  0
  9 39  1  0  0  0  0
 10 11  2  0  0  0  0
 10 40  1  0  0  0  0
 11 12  1  0  0  0  0
 11 41  1  0  0  0  0
 12 13  1  0  0  0  0
 13 26  2  0  0  0  0
 13 14  1  0  0  0  0
 14 15  2  0  0  0  0
 14 42  1  0  0  0  0
 15 16  1  0  0  0  0
 15 24  1  0  0  0  0
 16 17  2  0  0  0  0
 16 18  1  0  0  0  0
 18 23  1  0  0  0  0
 18 19  1  0  0  0  0
 19 20  1  0  0  0  0
 19 43  1  0  0  0  0
 19 44  1  0  0  0  0
 20 21  1  0  0  0  0
 20 45  1  0  0  0  0
 20 46  1  0  0  0  0
 21 22  1  0  0  0  0
 21 47  1  0  0  0  0
 21 48  1  0  0  0  0
 22 23  1  0  0  0  0
 22 49  1  0  0  0  0
 22 50  1  0  0  0  0
 23 51  1  0  0  0  0
 23 52  1  0  0  0  0
 24 25  2  0  0  0  0
 25 26  1  0  0  0  0
 25 53  1  0  0  0  0
M  END
$$$$
CHEMBL188031_8GUS
 OpenBabel12022418123D

 50 52  0  0  0  0  0  0  0  0999 V2000
    0.8218    0.1373    5.3687 C   0  0  0  0  0  0  0  0  0  0  0  0
    2.3412    0.1742    5.4328 C   0  0  0  0  0  0  0  0  0  0  0  0
    2.9513    0.5340    4.0781 C   0  0  0  0  0  0  0  0  0  0  0  0
    4.4815    0.5656    4.1381 C   0  0  0  0  0  0  0  0  0  0  0  0
    5.0740    0.8962    2.7670 C   0  0  0  0  0  0  0  0  0  0  0  0
    6.5288    0.9795    2.7681 N   0  0  0  0  0  0  0  0  0  0  0  0
    7.3594   -0.0956    2.9501 C   0  0  0  0  0  0  0  0  0  0  0  0
    8.6762    0.3237    2.8447 C   0  0  0  0  0  0  0  0  0  0  0  0
    9.8240   -0.5830    2.9992 C   0  0  0  0  0  0  0  0  0  0  0  0
    9.7281   -1.7786    2.6987 O   0  0  0  0  0  0  0  0  0  0  0  0
   11.1092   -0.0675    3.6337 C   0  0  0  0  0  0  0  0  0  0  0  0
   12.1047    0.6217    2.7233 C   0  0  0  0  0  0  0  0  0  0  0  0
   12.2212    0.1244    1.4000 C   0  0  0  0  0  0  0  0  0  0  0  0
   13.1085    0.6753    0.4724 C   0  0  0  0  0  0  0  0  0  0  0  0
   13.9270    1.7264    0.8457 C   0  0  0  0  0  0  0  0  0  0  0  0
   13.8437    2.2227    2.1434 C   0  0  0  0  0  0  0  0  0  0  0  0
   12.9480    1.6913    3.0938 C   0  0  0  0  0  0  0  0  0  0  0  0
   13.0671    2.3802    4.2669 O   0  0  0  0  0  0  0  0  0  0  0  0
   12.1441    2.2554    5.3278 C   0  0  0  0  0  0  0  0  0  0  0  0
    8.6248    1.7297    2.5553 C   0  0  0  0  0  0  0  0  0  0  0  0
    9.5867    2.7266    2.2866 C   0  0  0  0  0  0  0  0  0  0  0  0
    9.2174    4.0365    1.9883 C   0  0  0  0  0  0  0  0  0  0  0  0
    7.8792    4.3803    1.9398 C   0  0  0  0  0  0  0  0  0  0  0  0
    6.8890    3.4283    2.1980 C   0  0  0  0  0  0  0  0  0  0  0  0
    7.2757    2.1083    2.5020 C   0  0  0  0  0  0  0  0  0  0  0  0
    0.4071   -0.1234    6.3475 H   0  0  0  0  0  0  0  0  0  0  0  0
    0.4770   -0.6082    4.6450 H   0  0  0  0  0  0  0  0  0  0  0  0
    0.4169    1.1118    5.0773 H   0  0  0  0  0  0  0  0  0  0  0  0
    2.7099   -0.8054    5.7585 H   0  0  0  0  0  0  0  0  0  0  0  0
    2.6515    0.9060    6.1873 H   0  0  0  0  0  0  0  0  0  0  0  0
    2.5759    1.5132    3.7557 H   0  0  0  0  0  0  0  0  0  0  0  0
    2.6293   -0.1975    3.3265 H   0  0  0  0  0  0  0  0  0  0  0  0
    4.8536   -0.4071    4.4825 H   0  0  0  0  0  0  0  0  0  0  0  0
    4.8084    1.3093    4.8754 H   0  0  0  0  0  0  0  0  0  0  0  0
    4.6718    1.8483    2.4085 H   0  0  0  0  0  0  0  0  0  0  0  0
    4.8035    0.1327    2.0287 H   0  0  0  0  0  0  0  0  0  0  0  0
    6.9583   -1.0824    3.1502 H   0  0  0  0  0  0  0  0  0  0  0  0
   11.6202   -0.9188    4.1018 H   0  0  0  0  0  0  0  0  0  0  0  0
   10.7625    0.5599    4.4484 H   0  0  0  0  0  0  0  0  0  0  0  0
   11.6036   -0.7081    1.0621 H   0  0  0  0  0  0  0  0  0  0  0  0
   13.1562    0.2787   -0.5392 H   0  0  0  0  0  0  0  0  0  0  0  0
   14.6238    2.1637    0.1363 H   0  0  0  0  0  0  0  0  0  0  0  0
   14.4827    3.0581    2.4252 H   0  0  0  0  0  0  0  0  0  0  0  0
   12.4099    2.9951    6.0900 H   0  0  0  0  0  0  0  0  0  0  0  0
   12.2269    1.2714    5.7969 H   0  0  0  0  0  0  0  0  0  0  0  0
   11.1241    2.4916    5.0103 H   0  0  0  0  0  0  0  0  0  0  0  0
   10.6406    2.5067    2.2736 H   0  0  0  0  0  0  0  0  0  0  0  0
    9.9907    4.7718    1.7807 H   0  0  0  0  0  0  0  0  0  0  0  0
    7.5999    5.3995    1.6878 H   0  0  0  0  0  0  0  0  0  0  0  0
    5.8452    3.7173    2.1449 H   0  0  0  0  0  0  0  0  0  0  0  0
  1  2  1  0  0  0  0
  1 26  1  0  0  0  0
  1 27  1  0  0  0  0
  1 28  1  0  0  0  0
  2  3  1  0  0  0  0
  2 29  1  0  0  0  0
  2 30  1  0  0  0  0
  3  4  1  0  0  0  0
  3 31  1  0  0  0  0
  3 32  1  0  0  0  0
  4  5  1  0  0  0  0
  4 33  1  0  0  0  0
  4 34  1  0  0  0  0
  5  6  1  0  0  0  0
  5 35  1  0  0  0  0
  5 36  1  0  0  0  0
  6 25  1  0  0  0  0
  6  7  1  0  0  0  0
  7  8  2  0  0  0  0
  7 37  1  0  0  0  0
  8  9  1  0  0  0  0
  8 20  1  0  0  0  0
  9 10  2  0  0  0  0
  9 11  1  0  0  0  0
 11 12  1  0  0  0  0
 11 38  1  0  0  0  0
 11 39  1  0  0  0  0
 12 17  2  0  0  0  0
 12 13  1  0  0  0  0
 13 14  2  0  0  0  0
 13 40  1  0  0  0  0
 14 15  1  0  0  0  0
 14 41  1  0  0  0  0
 15 16  2  0  0  0  0
 15 42  1  0  0  0  0
 16 17  1  0  0  0  0
 16 43  1  0  0  0  0
 17 18  1  0  0  0  0
 18 19  1  0  0  0  0
 19 44  1  0  0  0  0
 19 45  1  0  0  0  0
 19 46  1  0  0  0  0
 20 25  2  0  0  0  0
 20 21  1  0  0  0  0
 21 22  2  0  0  0  0
 21 47  1  0  0  0  0
 22 23  1  0  0  0  0
 22 48  1  0  0  0  0
 23 24  2  0  0  0  0
 23 49  1  0  0  0  0
 24 25  1  0  0  0  0
 24 50  1  0  0  0  0
M  END
$$$$
CHEMBL259255_5ZTY
 OpenBabel12022418123D

 55 58  0  0  0  0  0  0  0  0999 V2000
   -0.1222   -0.9832    0.0087 N   0  0  0  0  0  0  0  0  0  0  0  0
   -0.9708    0.0750   -0.1817 N   0  0  0  0  0  0  0  0  0  0  0  0
   -0.1791    1.1656   -0.1645 C   0  0  0  0  0  0  0  0  0  0  0  0
    1.2011    0.7969   -0.1808 C   0  0  0  0  0  0  0  0  0  0  0  0
    1.2023   -0.5784   -0.0011 C   0  0  0  0  0  0  0  0  0  0  0  0
    2.3407   -1.4031    0.0417 N   0  0  0  0  0  0  0  0  0  0  0  0
    2.5848   -2.5680   -0.6950 C   0  0  0  0  0  0  0  0  0  0  0  0
    3.8780   -2.9887   -0.4423 C   0  0  0  0  0  0  0  0  0  0  0  0
    4.4588   -2.0891    0.4572 C   0  0  0  0  0  0  0  0  0  0  0  0
    3.5007   -1.1535    0.7898 C   0  0  0  0  0  0  0  0  0  0  0  0
    3.6583   -0.0858    1.8214 C   0  0  0  0  0  0  0  0  0  0  0  0
    1.6614   -3.2031   -1.6787 C   0  0  0  0  0  0  0  0  0  0  0  0
    2.3450    1.7202   -0.4152 C   0  0  0  0  0  0  0  0  0  0  0  0
   -0.7077    2.5531   -0.1616 C   0  0  0  0  0  0  0  0  0  0  0  0
    0.0391    3.5246   -0.0566 O   0  0  0  0  0  0  0  0  0  0  0  0
   -2.0935    2.6455   -0.2570 N   0  0  0  0  0  0  0  0  0  0  0  0
   -2.8107    3.8815   -0.2702 N   0  0  0  0  0  0  0  0  0  0  0  0
   -2.6560    4.6410    0.9843 C   0  0  0  0  0  0  0  0  0  0  0  0
   -3.5207    5.9065    0.9897 C   0  0  0  0  0  0  0  0  0  0  0  0
   -3.2550    6.7792   -0.2323 C   0  0  0  0  0  0  0  0  0  0  0  0
   -3.3578    5.9554   -1.5110 C   0  0  0  0  0  0  0  0  0  0  0  0
   -2.4750    4.7076   -1.4428 C   0  0  0  0  0  0  0  0  0  0  0  0
   -0.6926   -2.2650    0.2717 C   0  0  0  0  0  0  0  0  0  0  0  0
   -0.0996   -3.1606    1.1698 C   0  0  0  0  0  0  0  0  0  0  0  0
   -0.6679   -4.4248    1.3717 C   0  0  0  0  0  0  0  0  0  0  0  0
   -1.8146   -4.8084    0.6687 C   0  0  0  0  0  0  0  0  0  0  0  0
   -2.4024   -3.9191   -0.2374 C   0  0  0  0  0  0  0  0  0  0  0  0
   -1.8580   -2.6411   -0.4168 C   0  0  0  0  0  0  0  0  0  0  0  0
   -3.7730   -4.3529   -1.1974 Cl  0  0  0  0  0  0  0  0  0  0  0  0
   -2.4485   -6.3889    0.9630 Cl  0  0  0  0  0  0  0  0  0  0  0  0
    4.3570   -3.8488   -0.8938 H   0  0  0  0  0  0  0  0  0  0  0  0
    5.4662   -2.1246    0.8537 H   0  0  0  0  0  0  0  0  0  0  0  0
    2.7144    0.3714    2.1243 H   0  0  0  0  0  0  0  0  0  0  0  0
    4.3344    0.6935    1.4533 H   0  0  0  0  0  0  0  0  0  0  0  0
    4.1102   -0.5054    2.7272 H   0  0  0  0  0  0  0  0  0  0  0  0
    0.8093   -2.5815   -1.9514 H   0  0  0  0  0  0  0  0  0  0  0  0
    1.2990   -4.1595   -1.2855 H   0  0  0  0  0  0  0  0  0  0  0  0
    2.1999   -3.4168   -2.6082 H   0  0  0  0  0  0  0  0  0  0  0  0
    2.0617    2.5572   -1.0540 H   0  0  0  0  0  0  0  0  0  0  0  0
    3.1622    1.2043   -0.9320 H   0  0  0  0  0  0  0  0  0  0  0  0
    2.7187    2.1295    0.5280 H   0  0  0  0  0  0  0  0  0  0  0  0
   -2.6127    1.7731   -0.3397 H   0  0  0  0  0  0  0  0  0  0  0  0
   -1.6124    4.9319    1.1532 H   0  0  0  0  0  0  0  0  0  0  0  0
   -2.9581    4.0149    1.8325 H   0  0  0  0  0  0  0  0  0  0  0  0
   -3.3221    6.4850    1.8999 H   0  0  0  0  0  0  0  0  0  0  0  0
   -4.5816    5.6285    1.0144 H   0  0  0  0  0  0  0  0  0  0  0  0
   -2.2532    7.2205   -0.1591 H   0  0  0  0  0  0  0  0  0  0  0  0
   -3.9687    7.6104   -0.2627 H   0  0  0  0  0  0  0  0  0  0  0  0
   -3.0623    6.5706   -2.3687 H   0  0  0  0  0  0  0  0  0  0  0  0
   -4.4021    5.6608   -1.6734 H   0  0  0  0  0  0  0  0  0  0  0  0
   -2.6275    4.1247   -2.3587 H   0  0  0  0  0  0  0  0  0  0  0  0
   -1.4235    5.0192   -1.4277 H   0  0  0  0  0  0  0  0  0  0  0  0
    0.7880   -2.8964    1.7406 H   0  0  0  0  0  0  0  0  0  0  0  0
   -0.2054   -5.1127    2.0771 H   0  0  0  0  0  0  0  0  0  0  0  0
   -2.3095   -1.9663   -1.1426 H   0  0  0  0  0  0  0  0  0  0  0  0
  1  5  1  0  0  0  0
  1  2  1  0  0  0  0
  1 23  1  0  0  0  0
  2  3  2  0  0  0  0
  3  4  1  0  0  0  0
  3 14  1  0  0  0  0
  4  5  2  0  0  0  0
  4 13  1  0  0  0  0
  5  6  1  0  0  0  0
  6 10  1  0  0  0  0
  6  7  1  0  0  0  0
  7  8  2  0  0  0  0
  7 12  1  0  0  0  0
  8  9  1  0  0  0  0
  8 31  1  0  0  0  0
  9 10  2  0  0  0  0
  9 32  1  0  0  0  0
 10 11  1  0  0  0  0
 11 33  1  0  0  0  0
 11 34  1  0  0  0  0
 11 35  1  0  0  0  0
 12 36  1  0  0  0  0
 12 37  1  0  0  0  0
 12 38  1  0  0  0  0
 13 39  1  0  0  0  0
 13 40  1  0  0  0  0
 13 41  1  0  0  0  0
 14 15  2  0  0  0  0
 14 16  1  0  0  0  0
 16 17  1  0  0  0  0
 16 42  1  0  0  0  0
 17 22  1  0  0  0  0
 17 18  1  0  0  0  0
 18 19  1  0  0  0  0
 18 43  1  0  0  0  0
 18 44  1  0  0  0  0
 19 20  1  0  0  0  0
 19 45  1  0  0  0  0
 19 46  1  0  0  0  0
 20 21  1  0  0  0  0
 20 47  1  0  0  0  0
 20 48  1  0  0  0  0
 21 22  1  0  0  0  0
 21 49  1  0  0  0  0
 21 50  1  0  0  0  0
 22 51  1  0  0  0  0
 22 52  1  0  0  0  0
 23 28  2  0  0  0  0
 23 24  1  0  0  0  0
 24 25  2  0  0  0  0
 24 53  1  0  0  0  0
 25 26  1  0  0  0  0
 25 54  1  0  0  0  0
 26 27  2  0  0  0  0
 26 30  1  0  0  0  0
 27 28  1  0  0  0  0
 27 29  1  0  0  0  0
 28 55  1  0  0  0  0
M  END
$$$$
CHEMBL3647320_8GUR
 OpenBabel12022418123D

 56 58  0  0  0  0  0  0  0  0999 V2000
    0.9226    0.1674   -7.6997 C   0  0  0  0  0  0  0  0  0  0  0  0
    0.5723   -0.6676   -6.4767 C   0  0  0  0  0  0  0  0  0  0  0  0
    1.4193   -1.9369   -6.4262 C   0  0  0  0  0  0  0  0  0  0  0  0
    1.1071   -2.7969   -5.1972 C   0  0  0  0  0  0  0  0  0  0  0  0
    1.8570   -4.0424   -5.2794 N   0  0  0  0  0  0  0  0  0  0  0  0
    3.2469   -4.1180   -5.1493 C   0  0  0  0  0  0  0  0  0  0  0  0
    4.0147   -3.1987   -4.6480 N   0  0  0  0  0  0  0  0  0  0  0  0
    5.3624   -3.4203   -4.3894 C   0  0  0  0  0  0  0  0  0  0  0  0
    6.2335   -2.6400   -4.7381 O   0  0  0  0  0  0  0  0  0  0  0  0
    5.7160   -4.6073   -3.5344 C   0  0  0  0  0  0  0  0  0  0  0  0
    4.7520   -5.0121   -2.5784 C   0  0  0  0  0  0  0  0  0  0  0  0
    4.7259   -6.3266   -2.0998 C   0  0  0  0  0  0  0  0  0  0  0  0
    5.7436   -7.1972   -2.4950 C   0  0  0  0  0  0  0  0  0  0  0  0
    6.7682   -6.7601   -3.3387 C   0  0  0  0  0  0  0  0  0  0  0  0
    6.7861   -5.4605   -3.8715 C   0  0  0  0  0  0  0  0  0  0  0  0
    7.7549   -5.0298   -4.7556 O   0  0  0  0  0  0  0  0  0  0  0  0
    8.7985   -5.9835   -5.0286 C   0  0  0  0  0  0  0  0  0  0  0  0
    9.9365   -5.4135   -5.8891 C   0  0  0  0  0  0  0  0  0  0  0  0
   10.6496   -4.2418   -5.2215 C   0  0  0  0  0  0  0  0  0  0  0  0
   10.9432   -6.5437   -6.1744 C   0  0  0  0  0  0  0  0  0  0  0  0
    9.4219   -4.9774   -7.1505 O   0  0  0  0  0  0  0  0  0  0  0  0
    3.5671   -6.8521   -1.2908 C   0  0  0  0  0  0  0  0  0  0  0  0
    2.5889   -5.9308   -1.0774 F   0  0  0  0  0  0  0  0  0  0  0  0
    2.9564   -7.9051   -1.9062 F   0  0  0  0  0  0  0  0  0  0  0  0
    3.9442   -7.3023   -0.0652 F   0  0  0  0  0  0  0  0  0  0  0  0
    3.7702   -5.7613   -5.6495 S   0  0  0  0  0  0  0  0  0  0  0  0
    2.1345   -6.3698   -5.3454 C   0  0  0  0  0  0  0  0  0  0  0  0
    1.7548   -7.6863   -5.1719 C   0  0  0  0  0  0  0  0  0  0  0  0
    0.4047   -7.9091   -4.9998 C   0  0  0  0  0  0  0  0  0  0  0  0
   -0.5273   -6.9246   -5.0034 N   0  0  0  0  0  0  0  0  0  0  0  0
   -0.0930   -5.6420   -5.1322 C   0  0  0  0  0  0  0  0  0  0  0  0
    1.2367   -5.2986   -5.2663 C   0  0  0  0  0  0  0  0  0  0  0  0
    0.3112    1.0743   -7.7309 H   0  0  0  0  0  0  0  0  0  0  0  0
    0.7445   -0.3953   -8.6218 H   0  0  0  0  0  0  0  0  0  0  0  0
    1.9755    0.4667   -7.6800 H   0  0  0  0  0  0  0  0  0  0  0  0
   -0.4919   -0.9275   -6.5107 H   0  0  0  0  0  0  0  0  0  0  0  0
    0.7349   -0.0714   -5.5718 H   0  0  0  0  0  0  0  0  0  0  0  0
    2.4807   -1.6638   -6.4265 H   0  0  0  0  0  0  0  0  0  0  0  0
    1.2464   -2.5260   -7.3358 H   0  0  0  0  0  0  0  0  0  0  0  0
    0.0257   -2.9682   -5.1630 H   0  0  0  0  0  0  0  0  0  0  0  0
    1.3601   -2.2604   -4.2745 H   0  0  0  0  0  0  0  0  0  0  0  0
    3.9394   -4.3329   -2.3189 H   0  0  0  0  0  0  0  0  0  0  0  0
    5.7271   -8.2388   -2.1807 H   0  0  0  0  0  0  0  0  0  0  0  0
    7.5074   -7.5072   -3.6136 H   0  0  0  0  0  0  0  0  0  0  0  0
    8.3461   -6.8218   -5.5718 H   0  0  0  0  0  0  0  0  0  0  0  0
    9.2396   -6.3264   -4.0851 H   0  0  0  0  0  0  0  0  0  0  0  0
   11.0797   -4.5327   -4.2572 H   0  0  0  0  0  0  0  0  0  0  0  0
    9.9650   -3.4033   -5.0608 H   0  0  0  0  0  0  0  0  0  0  0  0
   11.4604   -3.8650   -5.8568 H   0  0  0  0  0  0  0  0  0  0  0  0
   11.3849   -6.9282   -5.2482 H   0  0  0  0  0  0  0  0  0  0  0  0
   11.7525   -6.2037   -6.8304 H   0  0  0  0  0  0  0  0  0  0  0  0
   10.4553   -7.3777   -6.6914 H   0  0  0  0  0  0  0  0  0  0  0  0
    8.7178   -4.3309   -6.9498 H   0  0  0  0  0  0  0  0  0  0  0  0
    2.4719   -8.4965   -5.1555 H   0  0  0  0  0  0  0  0  0  0  0  0
    0.0180   -8.9144   -4.8536 H   0  0  0  0  0  0  0  0  0  0  0  0
   -0.8904   -4.9086   -5.1018 H   0  0  0  0  0  0  0  0  0  0  0  0
  1  2  1  0  0  0  0
  1 33  1  0  0  0  0
  1 34  1  0  0  0  0
  1 35  1  0  0  0  0
  2  3  1  0  0  0  0
  2 36  1  0  0  0  0
  2 37  1  0  0  0  0
  3  4  1  0  0  0  0
  3 38  1  0  0  0  0
  3 39  1  0  0  0  0
  4  5  1  0  0  0  0
  4 40  1  0  0  0  0
  4 41  1  0  0  0  0
  5 32  1  0  0  0  0
  5  6  1  0  0  0  0
  6  7  2  0  0  0  0
  6 26  1  0  0  0  0
  7  8  1  0  0  0  0
  8  9  2  0  0  0  0
  8 10  1  0  0  0  0
 10 15  2  0  0  0  0
 10 11  1  0  0  0  0
 11 12  2  0  0  0  0
 11 42  1  0  0  0  0
 12 13  1  0  0  0  0
 12 22  1  0  0  0  0
 13 14  2  0  0  0  0
 13 43  1  0  0  0  0
 14 15  1  0  0  0  0
 14 44  1  0  0  0  0
 15 16  1  0  0  0  0
 16 17  1  0  0  0  0
 17 18  1  0  0  0  0
 17 45  1  0  0  0  0
 17 46  1  0  0  0  0
 18 19  1  0  0  0  0
 18 20  1  0  0  0  0
 18 21  1  0  0  0  0
 19 47  1  0  0  0  0
 19 48  1  0  0  0  0
 19 49  1  0  0  0  0
 20 50  1  0  0  0  0
 20 51  1  0  0  0  0
 20 52  1  0  0  0  0
 21 53  1  0  0  0  0
 22 23  1  0  0  0  0
 22 24  1  0  0  0  0
 22 25  1  0  0  0  0
 26 27  1  0  0  0  0
 27 32  2  0  0  0  0
 27 28  1  0  0  0  0
 28 29  2  0  0  0  0
 28 54  1  0  0  0  0
 29 30  1  0  0  0  0
 29 55  1  0  0  0  0
 30 31  2  0  0  0  0
 31 32  1  0  0  0  0
 31 56  1  0  0  0  0
M  END
$$$$
CHEMBL3114527_5ZTY
 OpenBabel12022418123D

 49 52  0  0  0  0  0  0  0  0999 V2000
    1.1269   -0.0909   -0.1850 C   0  0  0  0  0  0  0  0  0  0  0  0
    0.6184   -1.2800    0.6576 C   0  0  0  0  0  0  0  0  0  0  0  0
    0.9036   -1.0759    2.1568 C   0  0  0  0  0  0  0  0  0  0  0  0
   -0.1531   -1.9013    2.8878 C   0  0  0  0  0  0  0  0  0  0  0  0
   -1.3441   -2.0065    1.9401 C   0  0  0  0  0  0  0  0  0  0  0  0
   -0.9249   -1.3144    0.6449 C   0  0  0  0  0  0  0  0  0  0  0  0
    1.1871   -2.6202    0.1349 C   0  0  0  0  0  0  0  0  0  0  0  0
    2.6087   -2.6662    0.1982 O   0  0  0  0  0  0  0  0  0  0  0  0
    2.5657    0.0510   -0.2062 N   0  0  0  0  0  0  0  0  0  0  0  0
    3.2074    0.9915   -0.9824 C   0  0  0  0  0  0  0  0  0  0  0  0
    2.6110    1.7712   -1.7228 O   0  0  0  0  0  0  0  0  0  0  0  0
    4.6493    0.9672   -0.8577 C   0  0  0  0  0  0  0  0  0  0  0  0
    5.3194    0.1006   -0.1240 N   0  0  0  0  0  0  0  0  0  0  0  0
    6.6593    0.4070   -0.2901 C   0  0  0  0  0  0  0  0  0  0  0  0
    7.8147   -0.2029    0.2653 C   0  0  0  0  0  0  0  0  0  0  0  0
    9.0587    0.3753   -0.0860 C   0  0  0  0  0  0  0  0  0  0  0  0
    9.1560    1.4837   -0.9332 C   0  0  0  0  0  0  0  0  0  0  0  0
    8.0186    2.0691   -1.4885 C   0  0  0  0  0  0  0  0  0  0  0  0
    6.7914    1.5024   -1.1429 C   0  0  0  0  0  0  0  0  0  0  0  0
    5.5052    1.8247   -1.4976 N   0  0  0  0  0  0  0  0  0  0  0  0
    7.7035   -1.3751    1.1629 C   0  0  0  0  0  0  0  0  0  0  0  0
    8.6378   -1.6028    2.1908 C   0  0  0  0  0  0  0  0  0  0  0  0
    8.5450   -2.7183    3.0315 C   0  0  0  0  0  0  0  0  0  0  0  0
    7.5016   -3.6247    2.8766 C   0  0  0  0  0  0  0  0  0  0  0  0
    6.5575   -3.4222    1.8784 C   0  0  0  0  0  0  0  0  0  0  0  0
    6.6669   -2.3194    1.0288 C   0  0  0  0  0  0  0  0  0  0  0  0
    0.7153    0.8556    0.1872 H   0  0  0  0  0  0  0  0  0  0  0  0
    0.7876   -0.1928   -1.2237 H   0  0  0  0  0  0  0  0  0  0  0  0
    0.7766   -0.0207    2.4310 H   0  0  0  0  0  0  0  0  0  0  0  0
    1.9154   -1.3708    2.4511 H   0  0  0  0  0  0  0  0  0  0  0  0
   -0.4342   -1.4359    3.8385 H   0  0  0  0  0  0  0  0  0  0  0  0
    0.2294   -2.9022    3.1175 H   0  0  0  0  0  0  0  0  0  0  0  0
   -2.2367   -1.5328    2.3639 H   0  0  0  0  0  0  0  0  0  0  0  0
   -1.5931   -3.0584    1.7601 H   0  0  0  0  0  0  0  0  0  0  0  0
   -1.3342   -1.8251   -0.2336 H   0  0  0  0  0  0  0  0  0  0  0  0
   -1.3345   -0.2961    0.6456 H   0  0  0  0  0  0  0  0  0  0  0  0
    0.8900   -2.7922   -0.9061 H   0  0  0  0  0  0  0  0  0  0  0  0
    0.8184   -3.4680    0.7202 H   0  0  0  0  0  0  0  0  0  0  0  0
    2.9456   -2.1595   -0.5651 H   0  0  0  0  0  0  0  0  0  0  0  0
    3.1456   -0.4408    0.4760 H   0  0  0  0  0  0  0  0  0  0  0  0
    9.9834   -0.0508    0.2988 H   0  0  0  0  0  0  0  0  0  0  0  0
   10.1382    1.8924   -1.1643 H   0  0  0  0  0  0  0  0  0  0  0  0
    8.0943    2.9250   -2.1506 H   0  0  0  0  0  0  0  0  0  0  0  0
    5.2147    2.5700   -2.1149 H   0  0  0  0  0  0  0  0  0  0  0  0
    9.4529   -0.9050    2.3630 H   0  0  0  0  0  0  0  0  0  0  0  0
    9.2837   -2.8687    3.8131 H   0  0  0  0  0  0  0  0  0  0  0  0
    7.4247   -4.4846    3.5393 H   0  0  0  0  0  0  0  0  0  0  0  0
    5.7279   -4.1141    1.7534 H   0  0  0  0  0  0  0  0  0  0  0  0
    5.9146   -2.2079    0.2520 H   0  0  0  0  0  0  0  0  0  0  0  0
  1  2  1  0  0  0  0
  1  9  1  0  0  0  0
  1 27  1  0  0  0  0
  1 28  1  0  0  0  0
  2  6  1  0  0  0  0
  2  3  1  0  0  0  0
  2  7  1  0  0  0  0
  3  4  1  0  0  0  0
  3 29  1  0  0  0  0
  3 30  1  0  0  0  0
  4  5  1  0  0  0  0
  4 31  1  0  0  0  0
  4 32  1  0  0  0  0
  5  6  1  0  0  0  0
  5 33  1  0  0  0  0
  5 34  1  0  0  0  0
  6 35  1  0  0  0  0
  6 36  1  0  0  0  0
  7  8  1  0  0  0  0
  7 37  1  0  0  0  0
  7 38  1  0  0  0  0
  8 39  1  0  0  0  0
  9 10  1  0  0  0  0
  9 40  1  0  0  0  0
 10 11  2  0  0  0  0
 10 12  1  0  0  0  0
 12 20  1  0  0  0  0
 12 13  2  0  0  0  0
 13 14  1  0  0  0  0
 14 19  2  0  0  0  0
 14 15  1  0  0  0  0
 15 16  2  0  0  0  0
 15 21  1  0  0  0  0
 16 17  1  0  0  0  0
 16 41  1  0  0  0  0
 17 18  2  0  0  0  0
 17 42  1  0  0  0  0
 18 19  1  0  0  0  0
 18 43  1  0  0  0  0
 19 20  1  0  0  0  0
 20 44  1  0  0  0  0
 21 26  2  0  0  0  0
 21 22  1  0  0  0  0
 22 23  2  0  0  0  0
 22 45  1  0  0  0  0
 23 24  1  0  0  0  0
 23 46  1  0  0  0  0
 24 25  2  0  0  0  0
 24 47  1  0  0  0  0
 25 26  1  0  0  0  0
 25 48  1  0  0  0  0
 26 49  1  0  0  0  0
M  END
$$$$
CHEMBL2316279_5ZTY
 OpenBabel12022418123D

 52 54  0  0  0  0  0  0  0  0999 V2000
    0.8240   -3.7517    3.9870 C   0  0  0  0  0  0  0  0  0  0  0  0
    2.3439   -3.7811    3.9879 C   0  0  0  0  0  0  0  0  0  0  0  0
    2.9219   -2.6132    3.1884 C   0  0  0  0  0  0  0  0  0  0  0  0
    4.4497   -2.6433    3.1947 C   0  0  0  0  0  0  0  0  0  0  0  0
    5.0413   -1.4825    2.3860 C   0  0  0  0  0  0  0  0  0  0  0  0
    6.5058   -1.5622    2.3591 N   0  0  0  0  0  0  0  0  0  0  0  0
    7.2106   -2.6266    1.7799 C   0  0  0  0  0  0  0  0  0  0  0  0
    8.5581   -2.7360    1.7388 C   0  0  0  0  0  0  0  0  0  0  0  0
    9.1650   -3.9391    1.1012 C   0  0  0  0  0  0  0  0  0  0  0  0
    8.4783   -4.8515    0.6587 O   0  0  0  0  0  0  0  0  0  0  0  0
   10.5361   -3.9315    1.0465 N   0  0  0  0  0  0  0  0  0  0  0  0
   11.3297   -5.0208    0.5138 C   0  0  0  0  0  0  0  0  0  0  0  0
   12.6199   -4.4610   -0.0963 C   0  0  0  0  0  0  0  0  0  0  0  0
   13.5268   -5.5717   -0.6156 C   0  0  0  0  0  0  0  0  0  0  0  0
   13.8261   -6.5993    0.4726 C   0  0  0  0  0  0  0  0  0  0  0  0
   12.5420   -7.1624    1.0754 C   0  0  0  0  0  0  0  0  0  0  0  0
   11.6403   -6.0503    1.6063 C   0  0  0  0  0  0  0  0  0  0  0  0
    9.3880   -1.6378    2.3330 C   0  0  0  0  0  0  0  0  0  0  0  0
   10.6163   -1.6757    2.3559 O   0  0  0  0  0  0  0  0  0  0  0  0
    8.6324   -0.5417    2.8670 C   0  0  0  0  0  0  0  0  0  0  0  0
    8.9797    0.6831    3.4598 C   0  0  0  0  0  0  0  0  0  0  0  0
   10.3369    1.2196    3.7165 C   0  0  0  0  0  0  0  0  0  0  0  0
    7.8805    1.3808    3.7969 N   0  0  0  0  0  0  0  0  0  0  0  0
    6.7936    0.5869    3.4138 O   0  0  0  0  0  0  0  0  0  0  0  0
    7.2661   -0.5543    2.8603 C   0  0  0  0  0  0  0  0  0  0  0  0
    0.4275   -4.5908    4.5669 H   0  0  0  0  0  0  0  0  0  0  0  0
    0.4324   -3.8275    2.9673 H   0  0  0  0  0  0  0  0  0  0  0  0
    0.4512   -2.8240    4.4307 H   0  0  0  0  0  0  0  0  0  0  0  0
    2.6860   -4.7317    3.5623 H   0  0  0  0  0  0  0  0  0  0  0  0
    2.7052   -3.7405    5.0220 H   0  0  0  0  0  0  0  0  0  0  0  0
    2.5691   -1.6650    3.6104 H   0  0  0  0  0  0  0  0  0  0  0  0
    2.5587   -2.6640    2.1544 H   0  0  0  0  0  0  0  0  0  0  0  0
    4.7829   -3.6030    2.7824 H   0  0  0  0  0  0  0  0  0  0  0  0
    4.8216   -2.5993    4.2261 H   0  0  0  0  0  0  0  0  0  0  0  0
    4.6934   -0.5343    2.8145 H   0  0  0  0  0  0  0  0  0  0  0  0
    4.6640   -1.5129    1.3561 H   0  0  0  0  0  0  0  0  0  0  0  0
    6.5709   -3.3952    1.3503 H   0  0  0  0  0  0  0  0  0  0  0  0
   11.0364   -3.1789    1.5211 H   0  0  0  0  0  0  0  0  0  0  0  0
   10.7461   -5.5101   -0.2754 H   0  0  0  0  0  0  0  0  0  0  0  0
   13.1636   -3.8697    0.6540 H   0  0  0  0  0  0  0  0  0  0  0  0
   12.3775   -3.7710   -0.9143 H   0  0  0  0  0  0  0  0  0  0  0  0
   14.4639   -5.1397   -0.9850 H   0  0  0  0  0  0  0  0  0  0  0  0
   13.0442   -6.0664   -1.4636 H   0  0  0  0  0  0  0  0  0  0  0  0
   14.4262   -6.1312    1.2627 H   0  0  0  0  0  0  0  0  0  0  0  0
   14.4268   -7.4137    0.0534 H   0  0  0  0  0  0  0  0  0  0  0  0
   12.7876   -7.8593    1.8843 H   0  0  0  0  0  0  0  0  0  0  0  0
   12.0009   -7.7345    0.3117 H   0  0  0  0  0  0  0  0  0  0  0  0
   10.7103   -6.4845    1.9942 H   0  0  0  0  0  0  0  0  0  0  0  0
   12.1290   -5.5581    2.4572 H   0  0  0  0  0  0  0  0  0  0  0  0
   11.1152    0.5286    3.3746 H   0  0  0  0  0  0  0  0  0  0  0  0
   10.4951    1.3805    4.7869 H   0  0  0  0  0  0  0  0  0  0  0  0
   10.4897    2.1646    3.1870 H   0  0  0  0  0  0  0  0  0  0  0  0
  1  2  1  0  0  0  0
  1 26  1  0  0  0  0
  1 27  1  0  0  0  0
  1 28  1  0  0  0  0
  2  3  1  0  0  0  0
  2 29  1  0  0  0  0
  2 30  1  0  0  0  0
  3  4  1  0  0  0  0
  3 31  1  0  0  0  0
  3 32  1  0  0  0  0
  4  5  1  0  0  0  0
  4 33  1  0  0  0  0
  4 34  1  0  0  0  0
  5  6  1  0  0  0  0
  5 35  1  0  0  0  0
  5 36  1  0  0  0  0
  6 25  1  0  0  0  0
  6  7  1  0  0  0  0
  7  8  2  0  0  0  0
  7 37  1  0  0  0  0
  8  9  1  0  0  0  0
  8 18  1  0  0  0  0
  9 10  2  0  0  0  0
  9 11  1  0  0  0  0
 11 12  1  0  0  0  0
 11 38  1  0  0  0  0
 12 17  1  0  0  0  0
 12 13  1  0  0  0  0
 12 39  1  0  0  0  0
 13 14  1  0  0  0  0
 13 40  1  0  0  0  0
 13 41  1  0  0  0  0
 14 15  1  0  0  0  0
 14 42  1  0  0  0  0
 14 43  1  0  0  0  0
 15 16  1  0  0  0  0
 15 44  1  0  0  0  0
 15 45  1  0  0  0  0
 16 17  1  0  0  0  0
 16 46  1  0  0  0  0
 16 47  1  0  0  0  0
 17 48  1  0  0  0  0
 17 49  1  0  0  0  0
 18 19  2  0  0  0  0
 18 20  1  0  0  0  0
 20 25  2  0  0  0  0
 20 21  1  0  0  0  0
 21 22  1  0  0  0  0
 21 23  2  0  0  0  0
 22 50  1  0  0  0  0
 22 51  1  0  0  0  0
 22 52  1  0  0  0  0
 23 24  1  0  0  0  0
 24 25  1  0  0  0  0
M  END
$$$$
CHEMBL3890458_8GUT
 OpenBabel12022418123D

 47 48  0  0  1  0  0  0  0  0999 V2000
    1.0214    0.1666    0.2127 C   0  0  0  0  0  0  0  0  0  0  0  0
    2.5453    0.0666    0.0106 C   0  0  0  0  0  0  0  0  0  0  0  0
    3.0718    1.4878   -0.2581 C   0  0  0  0  0  0  0  0  0  0  0  0
    2.9963   -0.9880   -1.0881 C   0  0  2  0  0  0  0  0  0  0  0  0
    2.4120   -0.6168   -2.4705 C   0  0  0  0  0  0  0  0  0  0  0  0
    2.4976   -2.4203   -0.7199 C   0  0  0  0  0  0  0  0  0  0  0  0
    3.0420   -2.8833    0.5177 O   0  0  0  0  0  0  0  0  0  0  0  0
    4.4773   -1.0013   -1.1807 N   0  0  0  0  0  0  0  0  0  0  0  0
    5.1918   -1.7928   -2.0564 C   0  0  0  0  0  0  0  0  0  0  0  0
    4.6933   -2.6411   -2.7971 O   0  0  0  0  0  0  0  0  0  0  0  0
    6.6616   -1.5374   -2.1086 C   0  0  0  0  0  0  0  0  0  0  0  0
    7.4251   -2.1789   -3.0834 C   0  0  0  0  0  0  0  0  0  0  0  0
    8.7889   -1.8750   -3.2046 C   0  0  0  0  0  0  0  0  0  0  0  0
    9.3046   -0.9035   -2.3399 C   0  0  0  0  0  0  0  0  0  0  0  0
    8.4763   -0.3586   -1.3556 C   0  0  0  0  0  0  0  0  0  0  0  0
    7.1615   -0.6489   -1.2132 N   0  0  0  0  0  0  0  0  0  0  0  0
   10.9214   -0.3186   -2.4383 Cl  0  0  0  0  0  0  0  0  0  0  0  0
    9.6073   -2.6473   -4.2129 C   0  0  0  0  0  0  0  0  0  0  0  0
    9.6841   -2.0886   -5.6188 C   0  0  0  0  0  0  0  0  0  0  0  0
    8.7848   -2.5051   -6.6150 C   0  0  0  0  0  0  0  0  0  0  0  0
    8.9868   -2.1330   -7.9514 C   0  0  0  0  0  0  0  0  0  0  0  0
   10.0658   -1.3245   -8.2809 C   0  0  0  0  0  0  0  0  0  0  0  0
   10.9289   -0.8520   -7.3016 C   0  0  0  0  0  0  0  0  0  0  0  0
   10.7366   -1.2317   -5.9735 C   0  0  0  0  0  0  0  0  0  0  0  0
   10.2935   -1.0173   -9.5642 F   0  0  0  0  0  0  0  0  0  0  0  0
    0.7752    0.9789    0.9088 H   0  0  0  0  0  0  0  0  0  0  0  0
    0.6088   -0.7499    0.6411 H   0  0  0  0  0  0  0  0  0  0  0  0
    0.4916    0.3805   -0.7206 H   0  0  0  0  0  0  0  0  0  0  0  0
    2.9730   -0.2472    0.9724 H   0  0  0  0  0  0  0  0  0  0  0  0
    2.6373    1.9171   -1.1660 H   0  0  0  0  0  0  0  0  0  0  0  0
    4.1599    1.5145   -0.3515 H   0  0  0  0  0  0  0  0  0  0  0  0
    2.8123    2.1533    0.5736 H   0  0  0  0  0  0  0  0  0  0  0  0
    2.7070   -1.3361   -3.2407 H   0  0  0  0  0  0  0  0  0  0  0  0
    2.7687    0.3605   -2.8104 H   0  0  0  0  0  0  0  0  0  0  0  0
    1.3185   -0.6093   -2.4673 H   0  0  0  0  0  0  0  0  0  0  0  0
    2.7582   -3.1511   -1.4929 H   0  0  0  0  0  0  0  0  0  0  0  0
    1.4094   -2.4501   -0.6301 H   0  0  0  0  0  0  0  0  0  0  0  0
    3.7247   -3.5388    0.2841 H   0  0  0  0  0  0  0  0  0  0  0  0
    5.0264   -0.3328   -0.6497 H   0  0  0  0  0  0  0  0  0  0  0  0
    6.9535   -2.9025   -3.7374 H   0  0  0  0  0  0  0  0  0  0  0  0
    8.8587    0.3610   -0.6356 H   0  0  0  0  0  0  0  0  0  0  0  0
    9.2081   -3.6717   -4.2770 H   0  0  0  0  0  0  0  0  0  0  0  0
   10.6251   -2.8060   -3.8335 H   0  0  0  0  0  0  0  0  0  0  0  0
    7.9565   -3.1690   -6.3773 H   0  0  0  0  0  0  0  0  0  0  0  0
    8.3282   -2.4944   -8.7328 H   0  0  0  0  0  0  0  0  0  0  0  0
   11.7657   -0.2202   -7.5806 H   0  0  0  0  0  0  0  0  0  0  0  0
   11.4468   -0.8898   -5.2261 H   0  0  0  0  0  0  0  0  0  0  0  0
  1  2  1  0  0  0  0
  1 26  1  0  0  0  0
  1 27  1  0  0  0  0
  1 28  1  0  0  0  0
  2  3  1  0  0  0  0
  2 29  1  0  0  0  0
  3 30  1  0  0  0  0
  3 31  1  0  0  0  0
  3 32  1  0  0  0  0
  4  6  1  1  0  0  0
  4  8  1  0  0  0  0
  4  5  1  0  0  0  0
  4  2  1  0  0  0  0
  5 33  1  0  0  0  0
  5 34  1  0  0  0  0
  5 35  1  0  0  0  0
  6  7  1  0  0  0  0
  6 36  1  0  0  0  0
  6 37  1  0  0  0  0
  7 38  1  0  0  0  0
  8  9  1  0  0  0  0
  8 39  1  0  0  0  0
  9 10  2  0  0  0  0
  9 11  1  0  0  0  0
 11 16  2  0  0  0  0
 11 12  1  0  0  0  0
 12 13  2  0  0  0  0
 12 40  1  0  0  0  0
 13 14  1  0  0  0  0
 13 18  1  0  0  0  0
 14 15  2  0  0  0  0
 14 17  1  0  0  0  0
 15 16  1  0  0  0  0
 15 41  1  0  0  0  0
 18 19  1  0  0  0  0
 18 42  1  0  0  0  0
 18 43  1  0  0  0  0
 19 24  2  0  0  0  0
 19 20  1  0  0  0  0
 20 21  2  0  0  0  0
 20 44  1  0  0  0  0
 21 22  1  0  0  0  0
 21 45  1  0  0  0  0
 22 23  2  0  0  0  0
 22 25  1  0  0  0  0
 23 24  1  0  0  0  0
 23 46  1  0  0  0  0
 24 47  1  0  0  0  0
M  END
$$$$
CHEMBL497681_5ZTY
 OpenBabel12022418123D

 60 62  0  0  1  0  0  0  0  0999 V2000
    0.8632    2.8027    4.0814 C   0  0  0  0  0  0  0  0  0  0  0  0
    2.3812    2.8653    4.1040 C   0  0  0  0  0  0  0  0  0  0  0  0
    2.9729    2.6906    2.7043 C   0  0  0  0  0  0  0  0  0  0  0  0
    4.5024    2.7305    2.7513 C   0  0  0  0  0  0  0  0  0  0  0  0
    5.1222    2.5426    1.3563 C   0  0  0  0  0  0  0  0  0  0  0  0
    6.6063    2.5818    1.3623 N   0  0  0  0  0  0  0  0  0  0  0  0
    7.3553    1.9331    2.3441 C   0  0  0  0  0  0  0  0  0  0  0  0
    8.6909    1.8495    2.4306 C   0  0  0  0  0  0  0  0  0  0  0  0
    9.3021    1.1113    3.5747 C   0  0  0  0  0  0  0  0  0  0  0  0
    8.6126    0.5689    4.4341 O   0  0  0  0  0  0  0  0  0  0  0  0
   10.6715    1.0780    3.5740 N   0  0  0  0  0  0  0  0  0  0  0  0
   11.4636    0.4311    4.6022 C   0  0  1  0  0  0  0  0  0  0  0  0
   12.3214   -0.6781    3.9909 C   0  0  0  0  0  0  0  0  0  0  0  0
   12.3132    1.4505    5.3394 C   0  0  0  0  0  0  0  0  0  0  0  0
   13.2916    2.2135    4.6802 C   0  0  0  0  0  0  0  0  0  0  0  0
   14.0758    3.1291    5.3851 C   0  0  0  0  0  0  0  0  0  0  0  0
   13.8911    3.2972    6.7555 C   0  0  0  0  0  0  0  0  0  0  0  0
   12.9172    2.5566    7.4212 C   0  0  0  0  0  0  0  0  0  0  0  0
   12.1313    1.6417    6.7179 C   0  0  0  0  0  0  0  0  0  0  0  0
    9.4591    2.4915    1.3458 C   0  0  0  0  0  0  0  0  0  0  0  0
   10.6880    2.5636    1.3791 O   0  0  0  0  0  0  0  0  0  0  0  0
    8.7049    3.0080    0.1817 C   0  0  0  0  0  0  0  0  0  0  0  0
    9.4422    3.4253   -0.9351 C   0  0  0  0  0  0  0  0  0  0  0  0
    8.7882    3.8942   -2.0670 C   0  0  0  0  0  0  0  0  0  0  0  0
    7.3985    3.9588   -2.0818 C   0  0  0  0  0  0  0  0  0  0  0  0
    6.6660    3.5351   -0.9560 C   0  0  0  0  0  0  0  0  0  0  0  0
    7.2925    3.0415    0.2048 C   0  0  0  0  0  0  0  0  0  0  0  0
    6.6421    4.4113   -3.1328 O   0  0  0  0  0  0  0  0  0  0  0  0
    7.3567    4.8210   -4.3013 C   0  0  0  0  0  0  0  0  0  0  0  0
    6.3611    5.3011   -5.3404 C   0  0  0  0  0  0  0  0  0  0  0  0
    0.4635    2.9386    5.0913 H   0  0  0  0  0  0  0  0  0  0  0  0
    0.5172    1.8341    3.7069 H   0  0  0  0  0  0  0  0  0  0  0  0
    0.4481    3.5881    3.4422 H   0  0  0  0  0  0  0  0  0  0  0  0
    2.7612    2.0820    4.7706 H   0  0  0  0  0  0  0  0  0  0  0  0
    2.6969    3.8276    4.5236 H   0  0  0  0  0  0  0  0  0  0  0  0
    2.5979    3.4790    2.0416 H   0  0  0  0  0  0  0  0  0  0  0  0
    2.6456    1.7304    2.2864 H   0  0  0  0  0  0  0  0  0  0  0  0
    4.8288    1.9440    3.4382 H   0  0  0  0  0  0  0  0  0  0  0  0
    4.8375    3.6863    3.1731 H   0  0  0  0  0  0  0  0  0  0  0  0
    4.7066    3.3479    0.7438 H   0  0  0  0  0  0  0  0  0  0  0  0
    4.7945    1.5897    0.9230 H   0  0  0  0  0  0  0  0  0  0  0  0
    6.7599    1.4459    3.1096 H   0  0  0  0  0  0  0  0  0  0  0  0
   11.1618    1.6056    2.8527 H   0  0  0  0  0  0  0  0  0  0  0  0
   10.7817   -0.0455    5.3165 H   0  0  0  0  0  0  0  0  0  0  0  0
   13.0098   -0.2936    3.2298 H   0  0  0  0  0  0  0  0  0  0  0  0
   11.6902   -1.4304    3.5051 H   0  0  0  0  0  0  0  0  0  0  0  0
   12.9185   -1.1803    4.7601 H   0  0  0  0  0  0  0  0  0  0  0  0
   13.4506    2.1017    3.6100 H   0  0  0  0  0  0  0  0  0  0  0  0
   14.8301    3.7117    4.8628 H   0  0  0  0  0  0  0  0  0  0  0  0
   14.5022    4.0089    7.3036 H   0  0  0  0  0  0  0  0  0  0  0  0
   12.7667    2.6910    8.4891 H   0  0  0  0  0  0  0  0  0  0  0  0
   11.3727    1.0754    7.2548 H   0  0  0  0  0  0  0  0  0  0  0  0
   10.5291    3.3745   -0.9287 H   0  0  0  0  0  0  0  0  0  0  0  0
    9.3942    4.1952   -2.9144 H   0  0  0  0  0  0  0  0  0  0  0  0
    5.5861    3.6002   -1.0376 H   0  0  0  0  0  0  0  0  0  0  0  0
    7.9187    3.9747   -4.7138 H   0  0  0  0  0  0  0  0  0  0  0  0
    8.0387    5.6455   -4.0615 H   0  0  0  0  0  0  0  0  0  0  0  0
    5.6355    4.5157   -5.5744 H   0  0  0  0  0  0  0  0  0  0  0  0
    6.8757    5.5942   -6.2605 H   0  0  0  0  0  0  0  0  0  0  0  0
    5.7967    6.1603   -4.9645 H   0  0  0  0  0  0  0  0  0  0  0  0
  1  2  1  0  0  0  0
  1 31  1  0  0  0  0
  1 32  1  0  0  0  0
  1 33  1  0  0  0  0
  2  3  1  0  0  0  0
  2 34  1  0  0  0  0
  2 35  1  0  0  0  0
  3  4  1  0  0  0  0
  3 36  1  0  0  0  0
  3 37  1  0  0  0  0
  4  5  1  0  0  0  0
  4 38  1  0  0  0  0
  4 39  1  0  0  0  0
  5  6  1  0  0  0  0
  5 40  1  0  0  0  0
  5 41  1  0  0  0  0
  6 27  1  0  0  0  0
  6  7  1  0  0  0  0
  7  8  2  0  0  0  0
  7 42  1  0  0  0  0
  8  9  1  0  0  0  0
  8 20  1  0  0  0  0
  9 10  2  0  0  0  0
  9 11  1  0  0  0  0
 11 12  1  0  0  0  0
 11 43  1  0  0  0  0
 12 13  1  0  0  0  0
 12 14  1  0  0  0  0
 12 44  1  1  0  0  0
 13 45  1  0  0  0  0
 13 46  1  0  0  0  0
 13 47  1  0  0  0  0
 14 19  2  0  0  0  0
 14 15  1  0  0  0  0
 15 16  2  0  0  0  0
 15 48  1  0  0  0  0
 16 17  1  0  0  0  0
 16 49  1  0  0  0  0
 17 18  2  0  0  0  0
 17 50  1  0  0  0  0
 18 19  1  0  0  0  0
 18 51  1  0  0  0  0
 19 52  1  0  0  0  0
 20 21  2  0  0  0  0
 20 22  1  0  0  0  0
 22 27  2  0  0  0  0
 22 23  1  0  0  0  0
 23 24  2  0  0  0  0
 23 53  1  0  0  0  0
 24 25  1  0  0  0  0
 24 54  1  0  0  0  0
 25 26  2  0  0  0  0
 25 28  1  0  0  0  0
 26 27  1  0  0  0  0
 26 55  1  0  0  0  0
 28 29  1  0  0  0  0
 29 30  1  0  0  0  0
 29 56  1  0  0  0  0
 29 57  1  0  0  0  0
 30 58  1  0  0  0  0
 30 59  1  0  0  0  0
 30 60  1  0  0  0  0
M  END
$$$$
CHEMBL3114521_5ZTY
 OpenBabel12022418123D

 48 51  0  0  0  0  0  0  0  0999 V2000
   -0.8462   -1.4485   -0.0254 C   0  0  0  0  0  0  0  0  0  0  0  0
   -2.0422   -0.7417    0.0181 C   0  0  0  0  0  0  0  0  0  0  0  0
   -2.0429    0.6512    0.0566 C   0  0  0  0  0  0  0  0  0  0  0  0
   -0.8474    1.4149    0.0388 C   0  0  0  0  0  0  0  0  0  0  0  0
   -0.8769    2.8933    0.0439 C   0  0  0  0  0  0  0  0  0  0  0  0
   -1.9132    3.5985   -0.6022 C   0  0  0  0  0  0  0  0  0  0  0  0
   -1.9558    4.9959   -0.6173 C   0  0  0  0  0  0  0  0  0  0  0  0
   -0.9549    5.7266    0.0104 C   0  0  0  0  0  0  0  0  0  0  0  0
    0.0752    5.0603    0.6665 C   0  0  0  0  0  0  0  0  0  0  0  0
    0.1068    3.6613    0.6895 C   0  0  0  0  0  0  0  0  0  0  0  0
    0.3757    0.6873   -0.0030 C   0  0  0  0  0  0  0  0  0  0  0  0
    0.3418   -0.7064   -0.0285 C   0  0  0  0  0  0  0  0  0  0  0  0
    1.6655   -1.0959   -0.0428 N   0  0  0  0  0  0  0  0  0  0  0  0
    2.4528    0.0367   -0.0668 C   0  0  0  0  0  0  0  0  0  0  0  0
    3.9135    0.0784   -0.1228 C   0  0  0  0  0  0  0  0  0  0  0  0
    4.6130   -0.9340   -0.1840 O   0  0  0  0  0  0  0  0  0  0  0  0
    4.4786    1.3393   -0.1119 N   0  0  0  0  0  0  0  0  0  0  0  0
    5.9163    1.5122   -0.0481 C   0  0  0  0  0  0  0  0  0  0  0  0
    6.4043    2.7726   -0.7110 C   0  0  0  0  0  0  0  0  0  0  0  0
    7.2472    3.6602   -0.0343 C   0  0  0  0  0  0  0  0  0  0  0  0
    7.7573    4.7997   -0.6553 C   0  0  0  0  0  0  0  0  0  0  0  0
    7.4375    5.0638   -1.9852 C   0  0  0  0  0  0  0  0  0  0  0  0
    6.6208    4.1787   -2.6873 C   0  0  0  0  0  0  0  0  0  0  0  0
    6.1102    3.0384   -2.0572 C   0  0  0  0  0  0  0  0  0  0  0  0
    7.5996    3.4144    1.2359 F   0  0  0  0  0  0  0  0  0  0  0  0
    1.6935    1.1236   -0.0314 N   0  0  0  0  0  0  0  0  0  0  0  0
    2.1028   -2.4770    0.0674 C   0  0  0  0  0  0  0  0  0  0  0  0
    2.2256   -3.2012   -1.2651 C   0  0  0  0  0  0  0  0  0  0  0  0
   -0.8480   -2.5332   -0.0540 H   0  0  0  0  0  0  0  0  0  0  0  0
   -2.9872   -1.2813    0.0246 H   0  0  0  0  0  0  0  0  0  0  0  0
   -3.0077    1.1534    0.1075 H   0  0  0  0  0  0  0  0  0  0  0  0
   -2.7037    3.0633   -1.1237 H   0  0  0  0  0  0  0  0  0  0  0  0
   -2.7670    5.5065   -1.1292 H   0  0  0  0  0  0  0  0  0  0  0  0
   -0.9753    6.8124   -0.0139 H   0  0  0  0  0  0  0  0  0  0  0  0
    0.8609    5.6250    1.1605 H   0  0  0  0  0  0  0  0  0  0  0  0
    0.9200    3.1744    1.2230 H   0  0  0  0  0  0  0  0  0  0  0  0
    3.8549    2.1172    0.0850 H   0  0  0  0  0  0  0  0  0  0  0  0
    6.4124    0.6615   -0.5299 H   0  0  0  0  0  0  0  0  0  0  0  0
    6.1953    1.4857    1.0115 H   0  0  0  0  0  0  0  0  0  0  0  0
    8.4087    5.4681   -0.1007 H   0  0  0  0  0  0  0  0  0  0  0  0
    7.8321    5.9497   -2.4766 H   0  0  0  0  0  0  0  0  0  0  0  0
    6.3867    4.3695   -3.7323 H   0  0  0  0  0  0  0  0  0  0  0  0
    5.4936    2.3457   -2.6272 H   0  0  0  0  0  0  0  0  0  0  0  0
    1.3700   -2.9995    0.6929 H   0  0  0  0  0  0  0  0  0  0  0  0
    3.0408   -2.5110    0.6237 H   0  0  0  0  0  0  0  0  0  0  0  0
    1.2874   -3.1704   -1.8292 H   0  0  0  0  0  0  0  0  0  0  0  0
    2.4769   -4.2520   -1.0928 H   0  0  0  0  0  0  0  0  0  0  0  0
    3.0093   -2.7621   -1.8899 H   0  0  0  0  0  0  0  0  0  0  0  0
  1 12  2  0  0  0  0
  1  2  1  0  0  0  0
  1 29  1  0  0  0  0
  2  3  2  0  0  0  0
  2 30  1  0  0  0  0
  3  4  1  0  0  0  0
  3 31  1  0  0  0  0
  4  5  1  0  0  0  0
  4 11  2  0  0  0  0
  5 10  2  0  0  0  0
  5  6  1  0  0  0  0
  6  7  2  0  0  0  0
  6 32  1  0  0  0  0
  7  8  1  0  0  0  0
  7 33  1  0  0  0  0
  8  9  2  0  0  0  0
  8 34  1  0  0  0  0
  9 10  1  0  0  0  0
  9 35  1  0  0  0  0
 10 36  1  0  0  0  0
 11 26  1  0  0  0  0
 11 12  1  0  0  0  0
 12 13  1  0  0  0  0
 13 14  1  0  0  0  0
 13 27  1  0  0  0  0
 14 15  1  0  0  0  0
 14 26  2  0  0  0  0
 15 16  2  0  0  0  0
 15 17  1  0  0  0  0
 17 18  1  0  0  0  0
 17 37  1  0  0  0  0
 18 19  1  0  0  0  0
 18 38  1  0  0  0  0
 18 39  1  0  0  0  0
 19 24  2  0  0  0  0
 19 20  1  0  0  0  0
 20 21  2  0  0  0  0
 20 25  1  0  0  0  0
 21 22  1  0  0  0  0
 21 40  1  0  0  0  0
 22 23  2  0  0  0  0
 22 41  1  0  0  0  0
 23 24  1  0  0  0  0
 23 42  1  0  0  0  0
 24 43  1  0  0  0  0
 27 28  1  0  0  0  0
 27 44  1  0  0  0  0
 27 45  1  0  0  0  0
 28 46  1  0  0  0  0
 28 47  1  0  0  0  0
 28 48  1  0  0  0  0
M  END
$$$$
CHEMBL200143_5ZTY
 OpenBabel12022418123D

 53 55  0  0  1  0  0  0  0  0999 V2000
    0.9475    1.3032   -0.1085 C   0  0  0  0  0  0  0  0  0  0  0  0
    2.4657    1.2543   -0.0828 C   0  0  0  0  0  0  0  0  0  0  0  0
    2.9869    0.8875    1.3057 C   0  0  0  0  0  0  0  0  0  0  0  0
    4.5151    0.8466    1.3222 C   0  0  0  0  0  0  0  0  0  0  0  0
    5.0508    0.5181    2.7201 C   0  0  0  0  0  0  0  0  0  0  0  0
    6.5276    0.4409    2.7070 N   0  0  0  0  0  0  0  0  0  0  0  0
    7.2891    1.5911    2.4880 C   0  0  0  0  0  0  0  0  0  0  0  0
    8.6320    1.6819    2.4587 C   0  0  0  0  0  0  0  0  0  0  0  0
    9.2830    3.0121    2.2318 C   0  0  0  0  0  0  0  0  0  0  0  0
    8.6175    4.0380    2.0958 O   0  0  0  0  0  0  0  0  0  0  0  0
   10.6574    2.9873    2.2165 N   0  0  0  0  0  0  0  0  0  0  0  0
   11.4717    4.1725    2.0165 C   0  0  1  0  0  0  0  0  0  0  0  0
   12.7862    4.0822    2.7978 C   0  0  0  0  0  0  0  0  0  0  0  0
   11.7581    4.4166    0.5463 C   0  0  0  0  0  0  0  0  0  0  0  0
   12.5259    3.5220   -0.2175 C   0  0  0  0  0  0  0  0  0  0  0  0
   12.8622    3.8207   -1.5382 C   0  0  0  0  0  0  0  0  0  0  0  0
   12.4241    5.0106   -2.1162 C   0  0  0  0  0  0  0  0  0  0  0  0
   11.6367    5.8936   -1.3809 C   0  0  0  0  0  0  0  0  0  0  0  0
   11.3015    5.5954   -0.0590 C   0  0  0  0  0  0  0  0  0  0  0  0
    9.3752    0.4265    2.7050 C   0  0  0  0  0  0  0  0  0  0  0  0
   10.6008    0.3765    2.6040 O   0  0  0  0  0  0  0  0  0  0  0  0
    8.6064   -0.7732    3.1040 C   0  0  0  0  0  0  0  0  0  0  0  0
    9.3273   -1.9026    3.5259 C   0  0  0  0  0  0  0  0  0  0  0  0
    8.6536   -3.0498    3.9192 C   0  0  0  0  0  0  0  0  0  0  0  0
    7.2671   -3.0803    3.8490 C   0  0  0  0  0  0  0  0  0  0  0  0
    6.5502   -1.9546    3.4144 C   0  0  0  0  0  0  0  0  0  0  0  0
    7.1943   -0.7545    3.0657 C   0  0  0  0  0  0  0  0  0  0  0  0
    0.5938    1.5660   -1.1100 H   0  0  0  0  0  0  0  0  0  0  0  0
    0.5686    2.0522    0.5943 H   0  0  0  0  0  0  0  0  0  0  0  0
    0.5205    0.3319    0.1604 H   0  0  0  0  0  0  0  0  0  0  0  0
    2.8629    2.2309   -0.3834 H   0  0  0  0  0  0  0  0  0  0  0  0
    2.8169    0.5211   -0.8182 H   0  0  0  0  0  0  0  0  0  0  0  0
    2.5868   -0.0890    1.6046 H   0  0  0  0  0  0  0  0  0  0  0  0
    2.6302    1.6215    2.0384 H   0  0  0  0  0  0  0  0  0  0  0  0
    4.9006    1.8175    0.9906 H   0  0  0  0  0  0  0  0  0  0  0  0
    4.8745    0.0997    0.6038 H   0  0  0  0  0  0  0  0  0  0  0  0
    4.5614   -0.3914    3.0679 H   0  0  0  0  0  0  0  0  0  0  0  0
    4.7413    1.2957    3.4321 H   0  0  0  0  0  0  0  0  0  0  0  0
    6.6861    2.4819    2.3269 H   0  0  0  0  0  0  0  0  0  0  0  0
   11.1198    2.0804    2.2398 H   0  0  0  0  0  0  0  0  0  0  0  0
   10.9116    5.0256    2.4196 H   0  0  0  0  0  0  0  0  0  0  0  0
   13.4045    3.2371    2.4731 H   0  0  0  0  0  0  0  0  0  0  0  0
   12.5998    3.9542    3.8689 H   0  0  0  0  0  0  0  0  0  0  0  0
   13.3789    4.9948    2.6624 H   0  0  0  0  0  0  0  0  0  0  0  0
   12.8863    2.5917    0.2197 H   0  0  0  0  0  0  0  0  0  0  0  0
   13.4748    3.1308   -2.1121 H   0  0  0  0  0  0  0  0  0  0  0  0
   12.6970    5.2505   -3.1400 H   0  0  0  0  0  0  0  0  0  0  0  0
   11.2900    6.8195   -1.8300 H   0  0  0  0  0  0  0  0  0  0  0  0
   10.6901    6.2985    0.5041 H   0  0  0  0  0  0  0  0  0  0  0  0
   10.4137   -1.8779    3.5597 H   0  0  0  0  0  0  0  0  0  0  0  0
    9.2081   -3.9156    4.2720 H   0  0  0  0  0  0  0  0  0  0  0  0
    6.7319   -3.9817    4.1393 H   0  0  0  0  0  0  0  0  0  0  0  0
    5.4734   -2.0710    3.3742 H   0  0  0  0  0  0  0  0  0  0  0  0
  1  2  1  0  0  0  0
  1 28  1  0  0  0  0
  1 29  1  0  0  0  0
  1 30  1  0  0  0  0
  2  3  1  0  0  0  0
  2 31  1  0  0  0  0
  2 32  1  0  0  0  0
  3  4  1  0  0  0  0
  3 33  1  0  0  0  0
  3 34  1  0  0  0  0
  4  5  1  0  0  0  0
  4 35  1  0  0  0  0
  4 36  1  0  0  0  0
  5  6  1  0  0  0  0
  5 37  1  0  0  0  0
  5 38  1  0  0  0  0
  6 27  1  0  0  0  0
  6  7  1  0  0  0  0
  7  8  2  0  0  0  0
  7 39  1  0  0  0  0
  8  9  1  0  0  0  0
  8 20  1  0  0  0  0
  9 10  2  0  0  0  0
  9 11  1  0  0  0  0
 11 12  1  0  0  0  0
 11 40  1  0  0  0  0
 12 13  1  0  0  0  0
 12 14  1  0  0  0  0
 12 41  1  1  0  0  0
 13 42  1  0  0  0  0
 13 43  1  0  0  0  0
 13 44  1  0  0  0  0
 14 19  2  0  0  0  0
 14 15  1  0  0  0  0
 15 16  2  0  0  0  0
 15 45  1  0  0  0  0
 16 17  1  0  0  0  0
 16 46  1  0  0  0  0
 17 18  2  0  0  0  0
 17 47  1  0  0  0  0
 18 19  1  0  0  0  0
 18 48  1  0  0  0  0
 19 49  1  0  0  0  0
 20 21  2  0  0  0  0
 20 22  1  0  0  0  0
 22 27  2  0  0  0  0
 22 23  1  0  0  0  0
 23 24  2  0  0  0  0
 23 50  1  0  0  0  0
 24 25  1  0  0  0  0
 24 51  1  0  0  0  0
 25 26  2  0  0  0  0
 25 52  1  0  0  0  0
 26 27  1  0  0  0  0
 26 53  1  0  0  0  0
M  END
$$$$
CHEMBL264521_5ZTY
 OpenBabel12022418123D

 61 65  0  0  1  0  0  0  0  0999 V2000
    0.7352   -0.6020    5.6565 C   0  0  0  0  0  0  0  0  0  0  0  0
    2.2558   -0.5946    5.7305 C   0  0  0  0  0  0  0  0  0  0  0  0
    2.8618   -0.5044    4.3329 C   0  0  0  0  0  0  0  0  0  0  0  0
    4.3890   -0.5096    4.3685 C   0  0  0  0  0  0  0  0  0  0  0  0
    4.9403   -0.4509    2.9420 C   0  0  0  0  0  0  0  0  0  0  0  0
    6.4118   -0.4227    2.9361 N   0  0  0  0  0  0  0  0  0  0  0  0
    7.0840    0.7610    2.6821 C   0  0  0  0  0  0  0  0  0  0  0  0
    8.4056    0.9301    2.5434 C   0  0  0  0  0  0  0  0  0  0  0  0
    8.8543    2.2716    2.0831 C   0  0  0  0  0  0  0  0  0  0  0  0
    8.0496    3.0501    1.5600 O   0  0  0  0  0  0  0  0  0  0  0  0
   10.1769    2.5795    2.2337 N   0  0  0  0  0  0  0  0  0  0  0  0
   10.7841    3.7901    1.6634 C   0  0  2  0  0  0  0  0  0  0  0  0
   12.2962    3.8292    1.9866 C   0  0  1  0  0  0  0  0  0  0  0  0
   12.9470    5.0232    1.2571 C   0  0  0  0  0  0  0  0  0  0  0  0
   12.3250    6.3431    1.7374 C   0  0  2  0  0  0  0  0  0  0  0  0
   12.5453    6.4716    3.2550 C   0  0  0  0  0  0  0  0  0  0  0  0
   11.8510    5.3111    3.9863 C   0  0  2  0  0  0  0  0  0  0  0  0
   12.4788    3.9899    3.5112 C   0  0  0  0  0  0  0  0  0  0  0  0
   10.3503    5.3240    3.6539 C   0  0  0  0  0  0  0  0  0  0  0  0
   10.1435    5.1308    2.1421 C   0  0  1  0  0  0  0  0  0  0  0  0
   10.8203    6.3172    1.4222 C   0  0  0  0  0  0  0  0  0  0  0  0
    9.2579   -0.2571    2.7900 C   0  0  0  0  0  0  0  0  0  0  0  0
   10.4821   -0.1679    2.8258 O   0  0  0  0  0  0  0  0  0  0  0  0
    8.5645   -1.5756    2.9592 C   0  0  0  0  0  0  0  0  0  0  0  0
    9.3314   -2.7506    3.0395 C   0  0  0  0  0  0  0  0  0  0  0  0
    8.7036   -3.9912    3.1269 C   0  0  0  0  0  0  0  0  0  0  0  0
    7.3143   -4.0638    3.1237 C   0  0  0  0  0  0  0  0  0  0  0  0
    6.5515   -2.8942    3.0676 C   0  0  0  0  0  0  0  0  0  0  0  0
    7.1521   -1.6235    2.9918 C   0  0  0  0  0  0  0  0  0  0  0  0
    0.3050   -0.6633    6.6607 H   0  0  0  0  0  0  0  0  0  0  0  0
    0.3775   -1.4598    5.0790 H   0  0  0  0  0  0  0  0  0  0  0  0
    0.3631    0.3104    5.1802 H   0  0  0  0  0  0  0  0  0  0  0  0
    2.5973   -1.5072    6.2300 H   0  0  0  0  0  0  0  0  0  0  0  0
    2.5852    0.2553    6.3389 H   0  0  0  0  0  0  0  0  0  0  0  0
    2.5113    0.4108    3.8413 H   0  0  0  0  0  0  0  0  0  0  0  0
    2.5088   -1.3495    3.7297 H   0  0  0  0  0  0  0  0  0  0  0  0
    4.7467   -1.4077    4.8849 H   0  0  0  0  0  0  0  0  0  0  0  0
    4.7518    0.3513    4.9435 H   0  0  0  0  0  0  0  0  0  0  0  0
    4.5533    0.4575    2.4603 H   0  0  0  0  0  0  0  0  0  0  0  0
    4.5517   -1.2689    2.3266 H   0  0  0  0  0  0  0  0  0  0  0  0
    6.4148    1.6098    2.5469 H   0  0  0  0  0  0  0  0  0  0  0  0
   10.7883    1.8082    2.5047 H   0  0  0  0  0  0  0  0  0  0  0  0
   10.6474    3.7063    0.5771 H   0  0  0  0  0  0  0  0  0  0  0  0
   12.7778    2.9017    1.6559 H   0  0  0  0  0  0  0  0  0  0  0  0
   12.8111    4.9232    0.1729 H   0  0  0  0  0  0  0  0  0  0  0  0
   14.0279    5.0332    1.4415 H   0  0  0  0  0  0  0  0  0  0  0  0
   12.7969    7.1892    1.2249 H   0  0  0  0  0  0  0  0  0  0  0  0
   12.1598    7.4324    3.6160 H   0  0  0  0  0  0  0  0  0  0  0  0
   13.6201    6.4573    3.4767 H   0  0  0  0  0  0  0  0  0  0  0  0
   11.9885    5.4191    5.0683 H   0  0  0  0  0  0  0  0  0  0  0  0
   13.5437    3.9662    3.7635 H   0  0  0  0  0  0  0  0  0  0  0  0
   12.0132    3.1503    4.0421 H   0  0  0  0  0  0  0  0  0  0  0  0
    9.9109    6.2820    3.9650 H   0  0  0  0  0  0  0  0  0  0  0  0
    9.8246    4.5432    4.2147 H   0  0  0  0  0  0  0  0  0  0  0  0
    9.0736    5.1619    1.9175 H   0  0  0  0  0  0  0  0  0  0  0  0
   10.6635    6.2386    0.3393 H   0  0  0  0  0  0  0  0  0  0  0  0
   10.3577    7.2605    1.7395 H   0  0  0  0  0  0  0  0  0  0  0  0
   10.4184   -2.6998    3.0282 H   0  0  0  0  0  0  0  0  0  0  0  0
    9.2929   -4.9036    3.1811 H   0  0  0  0  0  0  0  0  0  0  0  0
    6.8167   -5.0304    3.1671 H   0  0  0  0  0  0  0  0  0  0  0  0
    5.4726   -3.0151    3.0698 H   0  0  0  0  0  0  0  0  0  0  0  0
  1  2  1  0  0  0  0
  1 30  1  0  0  0  0
  1 31  1  0  0  0  0
  1 32  1  0  0  0  0
  2  3  1  0  0  0  0
  2 33  1  0  0  0  0
  2 34  1  0  0  0  0
  3  4  1  0  0  0  0
  3 35  1  0  0  0  0
  3 36  1  0  0  0  0
  4  5  1  0  0  0  0
  4 37  1  0  0  0  0
  4 38  1  0  0  0  0
  5  6  1  0  0  0  0
  5 39  1  0  0  0  0
  5 40  1  0  0  0  0
  6 29  1  0  0  0  0
  6  7  1  0  0  0  0
  7  8  2  0  0  0  0
  7 41  1  0  0  0  0
  8  9  1  0  0  0  0
  8 22  1  0  0  0  0
  9 10  2  0  0  0  0
  9 11  1  0  0  0  0
 11 42  1  0  0  0  0
 12 11  1  0  0  0  0
 12 13  1  0  0  0  0
 12 20  1  0  0  0  0
 12 43  1  6  0  0  0
 13 14  1  0  0  0  0
 13 18  1  0  0  0  0
 13 44  1  6  0  0  0
 14 45  1  0  0  0  0
 14 46  1  0  0  0  0
 15 14  1  0  0  0  0
 15 16  1  0  0  0  0
 15 21  1  0  0  0  0
 15 47  1  6  0  0  0
 16 48  1  0  0  0  0
 16 49  1  0  0  0  0
 17 16  1  0  0  0  0
 17 18  1  0  0  0  0
 17 19  1  0  0  0  0
 17 50  1  1  0  0  0
 18 51  1  0  0  0  0
 18 52  1  0  0  0  0
 19 53  1  0  0  0  0
 19 54  1  0  0  0  0
 20 19  1  0  0  0  0
 20 21  1  0  0  0  0
 20 55  1  6  0  0  0
 21 56  1  0  0  0  0
 21 57  1  0  0  0  0
 22 23  2  0  0  0  0
 22 24  1  0  0  0  0
 24 29  2  0  0  0  0
 24 25  1  0  0  0  0
 25 26  2  0  0  0  0
 25 58  1  0  0  0  0
 26 27  1  0  0  0  0
 26 59  1  0  0  0  0
 27 28  2  0  0  0  0
 27 60  1  0  0  0  0
 28 29  1  0  0  0  0
 28 61  1  0  0  0  0
M  END
$$$$
CHEMBL3114524_5ZTY
 OpenBabel12022418123D

 53 58  0  0  1  0  0  0  0  0999 V2000
    1.1036   -0.5413    0.6863 C   0  0  0  0  0  0  0  0  0  0  0  0
    0.7589    0.8260    0.0692 C   0  0  1  0  0  0  0  0  0  0  0  0
    1.1809    0.7460   -1.4075 C   0  0  0  0  0  0  0  0  0  0  0  0
    0.3404   -0.3196   -2.1325 C   0  0  1  0  0  0  0  0  0  0  0  0
    0.5460   -1.7044   -1.4988 C   0  0  0  0  0  0  0  0  0  0  0  0
    0.2748   -1.6464    0.0075 C   0  0  2  0  0  0  0  0  0  0  0  0
   -1.2002   -1.3160    0.2086 C   0  0  0  0  0  0  0  0  0  0  0  0
   -1.5873    0.0131   -0.5074 C   0  0  1  0  0  0  0  0  0  0  0  0
   -0.7619    1.1260    0.1938 C   0  0  0  0  0  0  0  0  0  0  0  0
   -1.1388    0.0651   -1.9962 C   0  0  0  0  0  0  0  0  0  0  0  0
   -3.0363    0.2179   -0.4341 N   0  0  0  0  0  0  0  0  0  0  0  0
   -3.7389    0.1199    0.7465 C   0  0  0  0  0  0  0  0  0  0  0  0
   -3.2039    0.0225    1.8442 O   0  0  0  0  0  0  0  0  0  0  0  0
   -5.1730    0.1540    0.6395 C   0  0  0  0  0  0  0  0  0  0  0  0
   -5.8781    0.3110   -0.4632 N   0  0  0  0  0  0  0  0  0  0  0  0
   -7.1721    0.5489   -0.0256 C   0  0  0  0  0  0  0  0  0  0  0  0
   -8.3092    0.9607   -0.7571 C   0  0  0  0  0  0  0  0  0  0  0  0
   -9.4973    1.1567   -0.0129 C   0  0  0  0  0  0  0  0  0  0  0  0
   -9.5492    0.9789    1.3750 C   0  0  0  0  0  0  0  0  0  0  0  0
   -8.4184    0.6008    2.0946 C   0  0  0  0  0  0  0  0  0  0  0  0
   -7.2593    0.4006    1.3555 C   0  0  0  0  0  0  0  0  0  0  0  0
   -5.9829    0.0926    1.7340 N   0  0  0  0  0  0  0  0  0  0  0  0
   -8.2070    1.2363   -2.2058 C   0  0  0  0  0  0  0  0  0  0  0  0
   -7.0230    1.7406   -2.7778 C   0  0  0  0  0  0  0  0  0  0  0  0
   -6.9209    2.0206   -4.1436 C   0  0  0  0  0  0  0  0  0  0  0  0
   -8.0197    1.8239   -4.9688 C   0  0  0  0  0  0  0  0  0  0  0  0
   -9.2060    1.3339   -4.4318 C   0  0  0  0  0  0  0  0  0  0  0  0
   -9.2965    1.0376   -3.0690 C   0  0  0  0  0  0  0  0  0  0  0  0
    2.1730   -0.7536    0.5598 H   0  0  0  0  0  0  0  0  0  0  0  0
    0.9123   -0.5242    1.7660 H   0  0  0  0  0  0  0  0  0  0  0  0
    1.3233    1.6155    0.5766 H   0  0  0  0  0  0  0  0  0  0  0  0
    2.2465    0.4905   -1.4788 H   0  0  0  0  0  0  0  0  0  0  0  0
    1.0580    1.7234   -1.8873 H   0  0  0  0  0  0  0  0  0  0  0  0
    0.6254   -0.3524   -3.1906 H   0  0  0  0  0  0  0  0  0  0  0  0
    1.5617   -2.0674   -1.6851 H   0  0  0  0  0  0  0  0  0  0  0  0
   -0.1415   -2.4248   -1.9639 H   0  0  0  0  0  0  0  0  0  0  0  0
    0.5030   -2.6129    0.4717 H   0  0  0  0  0  0  0  0  0  0  0  0
   -1.3495   -1.2196    1.2928 H   0  0  0  0  0  0  0  0  0  0  0  0
   -1.8399   -2.1487   -0.1064 H   0  0  0  0  0  0  0  0  0  0  0  0
   -0.9955    2.1022   -0.2505 H   0  0  0  0  0  0  0  0  0  0  0  0
   -1.0357    1.2020    1.2535 H   0  0  0  0  0  0  0  0  0  0  0  0
   -1.7588   -0.5758   -2.6351 H   0  0  0  0  0  0  0  0  0  0  0  0
   -1.2736    1.0851   -2.3816 H   0  0  0  0  0  0  0  0  0  0  0  0
   -3.5987    0.2524   -1.2849 H   0  0  0  0  0  0  0  0  0  0  0  0
  -10.4006    1.4959   -0.5146 H   0  0  0  0  0  0  0  0  0  0  0  0
  -10.4812    1.1697    1.9043 H   0  0  0  0  0  0  0  0  0  0  0  0
   -8.4435    0.5004    3.1763 H   0  0  0  0  0  0  0  0  0  0  0  0
   -5.6364   -0.0290    2.6853 H   0  0  0  0  0  0  0  0  0  0  0  0
   -6.1476    1.9332   -2.1627 H   0  0  0  0  0  0  0  0  0  0  0  0
   -5.9859    2.3954   -4.5472 H   0  0  0  0  0  0  0  0  0  0  0  0
   -7.9498    2.0574   -6.0275 H   0  0  0  0  0  0  0  0  0  0  0  0
  -10.0698    1.1819   -5.0737 H   0  0  0  0  0  0  0  0  0  0  0  0
  -10.2357    0.6413   -2.6884 H   0  0  0  0  0  0  0  0  0  0  0  0
  1  6  1  0  0  0  0
  1 29  1  0  0  0  0
  1 30  1  0  0  0  0
  2  1  1  0  0  0  0
  2  3  1  0  0  0  0
  2  9  1  0  0  0  0
  2 31  1  1  0  0  0
  3 32  1  0  0  0  0
  3 33  1  0  0  0  0
  4  3  1  0  0  0  0
  4  5  1  0  0  0  0
  4 10  1  0  0  0  0
  4 34  1  6  0  0  0
  5 35  1  0  0  0  0
  5 36  1  0  0  0  0
  6  5  1  0  0  0  0
  6  7  1  0  0  0  0
  6 37  1  1  0  0  0
  7  8  1  0  0  0  0
  7 38  1  0  0  0  0
  7 39  1  0  0  0  0
  8  9  1  0  0  0  0
  8 10  1  0  0  0  0
  8 11  1  1  0  0  0
  9 40  1  0  0  0  0
  9 41  1  0  0  0  0
 10 42  1  0  0  0  0
 10 43  1  0  0  0  0
 11 12  1  0  0  0  0
 11 44  1  0  0  0  0
 12 13  2  0  0  0  0
 12 14  1  0  0  0  0
 14 22  1  0  0  0  0
 14 15  2  0  0  0  0
 15 16  1  0  0  0  0
 16 21  2  0  0  0  0
 16 17  1  0  0  0  0
 17 18  2  0  0  0  0
 17 23  1  0  0  0  0
 18 19  1  0  0  0  0
 18 45  1  0  0  0  0
 19 20  2  0  0  0  0
 19 46  1  0  0  0  0
 20 21  1  0  0  0  0
 20 47  1  0  0  0  0
 21 22  1  0  0  0  0
 22 48  1  0  0  0  0
 23 28  2  0  0  0  0
 23 24  1  0  0  0  0
 24 25  2  0  0  0  0
 24 49  1  0  0  0  0
 25 26  1  0  0  0  0
 25 50  1  0  0  0  0
 26 27  2  0  0  0  0
 26 51  1  0  0  0  0
 27 28  1  0  0  0  0
 27 52  1  0  0  0  0
 28 53  1  0  0  0  0
M  END
$$$$
CHEMBL2381808_5ZTY
 OpenBabel12022418123D

 59 61  0  0  0  0  0  0  0  0999 V2000
    1.1096    0.0232   -0.0540 C   0  0  0  0  0  0  0  0  0  0  0  0
    0.5445    0.0009    1.3678 C   0  0  0  0  0  0  0  0  0  0  0  0
   -0.9845   -0.0260    1.3814 C   0  0  0  0  0  0  0  0  0  0  0  0
   -1.4962   -0.0339    2.8220 C   0  0  0  0  0  0  0  0  0  0  0  0
   -3.0125   -0.0536    2.8761 C   0  0  0  0  0  0  0  0  0  0  0  0
    2.5900    0.0054   -0.0396 N   0  0  0  0  0  0  0  0  0  0  0  0
    3.3751    1.1608   -0.0430 C   0  0  0  0  0  0  0  0  0  0  0  0
    4.7315    1.1946   -0.0520 C   0  0  0  0  0  0  0  0  0  0  0  0
    5.4455   -0.1051   -0.0468 C   0  0  0  0  0  0  0  0  0  0  0  0
    6.6702   -0.2175   -0.0817 O   0  0  0  0  0  0  0  0  0  0  0  0
    4.6024   -1.2400   -0.0237 N   0  0  0  0  0  0  0  0  0  0  0  0
    3.2197   -1.2048   -0.0198 C   0  0  0  0  0  0  0  0  0  0  0  0
    2.7939   -2.5115   -0.0111 C   0  0  0  0  0  0  0  0  0  0  0  0
    3.9753   -3.2846   -0.0121 C   0  0  0  0  0  0  0  0  0  0  0  0
    4.0635   -4.7790   -0.0538 C   0  0  0  0  0  0  0  0  0  0  0  0
    4.0843   -5.4260    1.3232 C   0  0  0  0  0  0  0  0  0  0  0  0
    5.0782   -2.5232   -0.0195 N   0  0  0  0  0  0  0  0  0  0  0  0
    5.4218    2.5333   -0.0459 C   0  0  0  0  0  0  0  0  0  0  0  0
    4.7460    3.5658   -0.0357 O   0  0  0  0  0  0  0  0  0  0  0  0
    6.8058    2.5697   -0.0405 N   0  0  0  0  0  0  0  0  0  0  0  0
    7.5413    3.8533   -0.0160 C   0  0  0  0  0  0  0  0  0  0  0  0
    8.7706    3.8411    0.9197 C   0  0  0  0  0  0  0  0  0  0  0  0
   10.1620    3.9557    0.2796 C   0  0  0  0  0  0  0  0  0  0  0  0
   10.5419    5.3804   -0.1378 C   0  0  0  0  0  0  0  0  0  0  0  0
    9.8657    5.9083   -1.3992 C   0  0  0  0  0  0  0  0  0  0  0  0
    8.3444    5.8098   -1.4171 C   0  0  0  0  0  0  0  0  0  0  0  0
    7.8238    4.3682   -1.4328 C   0  0  0  0  0  0  0  0  0  0  0  0
    0.7448    0.9040   -0.5933 H   0  0  0  0  0  0  0  0  0  0  0  0
    0.7229   -0.8427   -0.6097 H   0  0  0  0  0  0  0  0  0  0  0  0
    0.8957    0.8837    1.9154 H   0  0  0  0  0  0  0  0  0  0  0  0
    0.9177   -0.8775    1.9089 H   0  0  0  0  0  0  0  0  0  0  0  0
   -1.3525   -0.9160    0.8539 H   0  0  0  0  0  0  0  0  0  0  0  0
   -1.3809    0.8488    0.8512 H   0  0  0  0  0  0  0  0  0  0  0  0
   -1.1272    0.8534    3.3502 H   0  0  0  0  0  0  0  0  0  0  0  0
   -1.1041   -0.9106    3.3507 H   0  0  0  0  0  0  0  0  0  0  0  0
   -3.4310    0.8284    2.3816 H   0  0  0  0  0  0  0  0  0  0  0  0
   -3.3537   -0.0568    3.9160 H   0  0  0  0  0  0  0  0  0  0  0  0
   -3.4082   -0.9471    2.3835 H   0  0  0  0  0  0  0  0  0  0  0  0
    2.7878    2.0787   -0.0373 H   0  0  0  0  0  0  0  0  0  0  0  0
    1.7770   -2.8736   -0.0217 H   0  0  0  0  0  0  0  0  0  0  0  0
    4.9529   -5.0846   -0.6131 H   0  0  0  0  0  0  0  0  0  0  0  0
    3.1979   -5.1689   -0.6069 H   0  0  0  0  0  0  0  0  0  0  0  0
    4.9559   -5.1030    1.9015 H   0  0  0  0  0  0  0  0  0  0  0  0
    4.1300   -6.5155    1.2221 H   0  0  0  0  0  0  0  0  0  0  0  0
    3.1852   -5.1805    1.8988 H   0  0  0  0  0  0  0  0  0  0  0  0
    7.3286    1.6993   -0.1505 H   0  0  0  0  0  0  0  0  0  0  0  0
    6.8435    4.5666    0.4411 H   0  0  0  0  0  0  0  0  0  0  0  0
    8.7470    2.9464    1.5535 H   0  0  0  0  0  0  0  0  0  0  0  0
    8.6660    4.6876    1.6140 H   0  0  0  0  0  0  0  0  0  0  0  0
   10.2814    3.2552   -0.5534 H   0  0  0  0  0  0  0  0  0  0  0  0
   10.8940    3.6492    1.0394 H   0  0  0  0  0  0  0  0  0  0  0  0
   11.6269    5.4122   -0.3104 H   0  0  0  0  0  0  0  0  0  0  0  0
   10.3545    6.0723    0.6930 H   0  0  0  0  0  0  0  0  0  0  0  0
   10.2754    5.3932   -2.2763 H   0  0  0  0  0  0  0  0  0  0  0  0
   10.1417    6.9654   -1.5134 H   0  0  0  0  0  0  0  0  0  0  0  0
    7.9886    6.3149   -2.3230 H   0  0  0  0  0  0  0  0  0  0  0  0
    7.9243    6.3673   -0.5708 H   0  0  0  0  0  0  0  0  0  0  0  0
    6.8884    4.3493   -2.0054 H   0  0  0  0  0  0  0  0  0  0  0  0
    8.5106    3.7048   -1.9720 H   0  0  0  0  0  0  0  0  0  0  0  0
  1  2  1  0  0  0  0
  1  6  1  0  0  0  0
  1 28  1  0  0  0  0
  1 29  1  0  0  0  0
  2  3  1  0  0  0  0
  2 30  1  0  0  0  0
  2 31  1  0  0  0  0
  3  4  1  0  0  0  0
  3 32  1  0  0  0  0
  3 33  1  0  0  0  0
  4  5  1  0  0  0  0
  4 34  1  0  0  0  0
  4 35  1  0  0  0  0
  5 36  1  0  0  0  0
  5 37  1  0  0  0  0
  5 38  1  0  0  0  0
  6 12  1  0  0  0  0
  6  7  1  0  0  0  0
  7  8  2  0  0  0  0
  7 39  1  0  0  0  0
  8  9  1  0  0  0  0
  8 18  1  0  0  0  0
  9 10  2  0  0  0  0
  9 11  1  0  0  0  0
 11 17  1  0  0  0  0
 11 12  1  0  0  0  0
 12 13  2  0  0  0  0
 13 14  1  0  0  0  0
 13 40  1  0  0  0  0
 14 15  1  0  0  0  0
 14 17  2  0  0  0  0
 15 16  1  0  0  0  0
 15 41  1  0  0  0  0
 15 42  1  0  0  0  0
 16 43  1  0  0  0  0
 16 44  1  0  0  0  0
 16 45  1  0  0  0  0
 18 19  2  0  0  0  0
 18 20  1  0  0  0  0
 20 21  1  0  0  0  0
 20 46  1  0  0  0  0
 21 27  1  0  0  0  0
 21 22  1  0  0  0  0
 21 47  1  0  0  0  0
 22 23  1  0  0  0  0
 22 48  1  0  0  0  0
 22 49  1  0  0  0  0
 23 24  1  0  0  0  0
 23 50  1  0  0  0  0
 23 51  1  0  0  0  0
 24 25  1  0  0  0  0
 24 52  1  0  0  0  0
 24 53  1  0  0  0  0
 25 26  1  0  0  0  0
 25 54  1  0  0  0  0
 25 55  1  0  0  0  0
 26 27  1  0  0  0  0
 26 56  1  0  0  0  0
 26 57  1  0  0  0  0
 27 58  1  0  0  0  0
 27 59  1  0  0  0  0
M  END
$$$$
CHEMBL604307_5ZTY
 OpenBabel12022418123D

 53 57  0  0  1  0  0  0  0  0999 V2000
    3.3386   -2.6638    0.2979 C   0  0  0  0  0  0  0  0  0  0  0  0
    3.7871   -1.2443    0.2372 C   0  0  0  0  0  0  0  0  0  0  0  0
    5.0644   -0.9200    0.1706 N   0  0  0  0  0  0  0  0  0  0  0  0
    5.1225    0.4515    0.0252 C   0  0  0  0  0  0  0  0  0  0  0  0
    6.4145    1.1619   -0.0681 C   0  0  0  0  0  0  0  0  0  0  0  0
    6.5247    2.3731   -0.2290 O   0  0  0  0  0  0  0  0  0  0  0  0
    7.4810    0.3031    0.0379 N   0  0  0  0  0  0  0  0  0  0  0  0
    8.8874    0.6931    0.0571 C   0  0  2  0  0  0  0  0  0  0  0  0
    9.7736   -0.4345   -0.5304 C   0  0  2  0  0  0  0  0  0  0  0  0
    9.7080   -1.6898    0.3647 C   0  0  0  0  0  0  0  0  0  0  0  0
   10.1793   -1.3505    1.7891 C   0  0  1  0  0  0  0  0  0  0  0  0
   11.6401   -0.8767    1.7216 C   0  0  0  0  0  0  0  0  0  0  0  0
   11.7438    0.3736    0.8302 C   0  0  1  0  0  0  0  0  0  0  0  0
   11.2405    0.0386   -0.5849 C   0  0  0  0  0  0  0  0  0  0  0  0
   10.8617    1.4904    1.4172 C   0  0  0  0  0  0  0  0  0  0  0  0
    9.3872    1.0314    1.4850 C   0  0  2  0  0  0  0  0  0  0  0  0
    9.3128   -0.2223    2.3786 C   0  0  0  0  0  0  0  0  0  0  0  0
    3.8392    0.9773    0.0276 C   0  0  0  0  0  0  0  0  0  0  0  0
    3.4293    2.4103    0.0411 C   0  0  0  0  0  0  0  0  0  0  0  0
    2.9686   -0.1107    0.1363 N   0  0  0  0  0  0  0  0  0  0  0  0
    1.5354   -0.0465    0.1964 C   0  0  0  0  0  0  0  0  0  0  0  0
    0.8442    0.9345   -0.5329 C   0  0  0  0  0  0  0  0  0  0  0  0
   -0.5290    1.1245   -0.3607 C   0  0  0  0  0  0  0  0  0  0  0  0
   -1.2413    0.2984    0.5008 C   0  0  0  0  0  0  0  0  0  0  0  0
   -0.5821   -0.7280    1.1740 C   0  0  0  0  0  0  0  0  0  0  0  0
    0.8016   -0.8965    1.0336 C   0  0  0  0  0  0  0  0  0  0  0  0
    2.2941   -2.8210    0.0263 H   0  0  0  0  0  0  0  0  0  0  0  0
    3.5115   -3.0603    1.3033 H   0  0  0  0  0  0  0  0  0  0  0  0
    3.9334   -3.2660   -0.3998 H   0  0  0  0  0  0  0  0  0  0  0  0
    7.2100   -0.6524    0.2558 H   0  0  0  0  0  0  0  0  0  0  0  0
    8.9812    1.5907   -0.5685 H   0  0  0  0  0  0  0  0  0  0  0  0
    9.4344   -0.6877   -1.5419 H   0  0  0  0  0  0  0  0  0  0  0  0
   10.3412   -2.4783   -0.0601 H   0  0  0  0  0  0  0  0  0  0  0  0
    8.6922   -2.0983    0.3923 H   0  0  0  0  0  0  0  0  0  0  0  0
   10.1074   -2.2407    2.4237 H   0  0  0  0  0  0  0  0  0  0  0  0
   12.2752   -1.6770    1.3229 H   0  0  0  0  0  0  0  0  0  0  0  0
   12.0083   -0.6513    2.7300 H   0  0  0  0  0  0  0  0  0  0  0  0
   12.7865    0.7052    0.7850 H   0  0  0  0  0  0  0  0  0  0  0  0
   11.3292    0.9198   -1.2322 H   0  0  0  0  0  0  0  0  0  0  0  0
   11.8697   -0.7442   -1.0270 H   0  0  0  0  0  0  0  0  0  0  0  0
   10.9492    2.3946    0.8028 H   0  0  0  0  0  0  0  0  0  0  0  0
   11.2196    1.7539    2.4209 H   0  0  0  0  0  0  0  0  0  0  0  0
    8.7781    1.8314    1.9221 H   0  0  0  0  0  0  0  0  0  0  0  0
    9.6604    0.0230    3.3899 H   0  0  0  0  0  0  0  0  0  0  0  0
    8.2735   -0.5571    2.4795 H   0  0  0  0  0  0  0  0  0  0  0  0
    4.2361    3.0577    0.3883 H   0  0  0  0  0  0  0  0  0  0  0  0
    2.5925    2.5826    0.7251 H   0  0  0  0  0  0  0  0  0  0  0  0
    3.1545    2.7413   -0.9653 H   0  0  0  0  0  0  0  0  0  0  0  0
    1.3494    1.5650   -1.2584 H   0  0  0  0  0  0  0  0  0  0  0  0
   -1.0373    1.9242   -0.8949 H   0  0  0  0  0  0  0  0  0  0  0  0
   -2.3070    0.4555    0.6479 H   0  0  0  0  0  0  0  0  0  0  0  0
   -1.1442   -1.3813    1.8379 H   0  0  0  0  0  0  0  0  0  0  0  0
    1.2777   -1.6583    1.6426 H   0  0  0  0  0  0  0  0  0  0  0  0
  1  2  1  0  0  0  0
  1 27  1  0  0  0  0
  1 28  1  0  0  0  0
  1 29  1  0  0  0  0
  2 20  1  0  0  0  0
  2  3  2  0  0  0  0
  3  4  1  0  0  0  0
  4  5  1  0  0  0  0
  4 18  2  0  0  0  0
  5  6  2  0  0  0  0
  5  7  1  0  0  0  0
  7 30  1  0  0  0  0
  8  7  1  0  0  0  0
  8  9  1  0  0  0  0
  8 16  1  0  0  0  0
  8 31  1  6  0  0  0
  9 10  1  0  0  0  0
  9 14  1  0  0  0  0
  9 32  1  6  0  0  0
 10 33  1  0  0  0  0
 10 34  1  0  0  0  0
 11 10  1  0  0  0  0
 11 12  1  0  0  0  0
 11 17  1  0  0  0  0
 11 35  1  1  0  0  0
 12 36  1  0  0  0  0
 12 37  1  0  0  0  0
 13 12  1  0  0  0  0
 13 14  1  0  0  0  0
 13 15  1  0  0  0  0
 13 38  1  6  0  0  0
 14 39  1  0  0  0  0
 14 40  1  0  0  0  0
 15 41  1  0  0  0  0
 15 42  1  0  0  0  0
 16 15  1  0  0  0  0
 16 17  1  0  0  0  0
 16 43  1  1  0  0  0
 17 44  1  0  0  0  0
 17 45  1  0  0  0  0
 18 19  1  0  0  0  0
 18 20  1  0  0  0  0
 19 46  1  0  0  0  0
 19 47  1  0  0  0  0
 19 48  1  0  0  0  0
 20 21  1  0  0  0  0
 21 26  2  0  0  0  0
 21 22  1  0  0  0  0
 22 23  2  0  0  0  0
 22 49  1  0  0  0  0
 23 24  1  0  0  0  0
 23 50  1  0  0  0  0
 24 25  2  0  0  0  0
 24 51  1  0  0  0  0
 25 26  1  0  0  0  0
 25 52  1  0  0  0  0
 26 53  1  0  0  0  0
M  END
$$$$
CHEMBL2163941_6PT0
 OpenBabel12022418123D

 50 54  0  0  1  0  0  0  0  0999 V2000
    2.4347    0.8654   -1.3539 O   0  0  0  0  0  0  0  0  0  0  0  0
    2.2833    0.3360   -0.2607 C   0  0  0  0  0  0  0  0  0  0  0  0
    3.0134    0.8245    0.9722 C   0  0  0  0  0  0  0  0  0  0  0  0
    4.0486    1.6883    0.8865 C   0  0  0  0  0  0  0  0  0  0  0  0
    4.8474    2.1424    1.9440 N   0  0  0  0  0  0  0  0  0  0  0  0
    4.5114    1.7652    3.2602 C   0  0  0  0  0  0  0  0  0  0  0  0
    5.2179    2.2086    4.3815 C   0  0  0  0  0  0  0  0  0  0  0  0
    6.3425    2.9698    4.3297 O   0  0  0  0  0  0  0  0  0  0  0  0
    6.6051    3.6027    3.0854 C   0  0  0  0  0  0  0  0  0  0  0  0
    6.0789    2.9553    1.7799 C   0  0  1  0  0  0  0  0  0  0  0  0
    7.1687    2.1442    1.0884 C   0  0  0  0  0  0  0  0  0  0  0  0
    7.6288    2.5187   -0.3093 C   0  0  0  0  0  0  0  0  0  0  0  0
    8.5584    2.7123    0.8463 C   0  0  0  0  0  0  0  0  0  0  0  0
    4.8214    1.8545    5.6792 C   0  0  0  0  0  0  0  0  0  0  0  0
    3.7243    1.0234    5.8869 C   0  0  0  0  0  0  0  0  0  0  0  0
    3.0317    0.5324    4.7882 C   0  0  0  0  0  0  0  0  0  0  0  0
    3.4238    0.9054    3.4922 C   0  0  0  0  0  0  0  0  0  0  0  0
    2.6876    0.3375    2.3396 C   0  0  0  0  0  0  0  0  0  0  0  0
    1.8308   -0.5253    2.5299 O   0  0  0  0  0  0  0  0  0  0  0  0
    1.4790   -0.7641   -0.0469 N   0  0  0  0  0  0  0  0  0  0  0  0
    0.7579   -1.5616   -1.0500 C   0  0  0  0  0  0  0  0  0  0  0  0
    0.9081   -3.0508   -0.6728 C   0  0  0  0  0  0  0  0  0  0  0  0
   -0.0347   -4.0168   -1.3892 C   0  0  0  0  0  0  0  0  0  0  0  0
   -1.4765   -3.5297   -1.4106 C   0  0  0  0  0  0  0  0  0  0  0  0
   -1.5578   -2.1151   -1.9678 C   0  0  0  0  0  0  0  0  0  0  0  0
   -0.7196   -1.1456   -1.1313 C   0  0  0  0  0  0  0  0  0  0  0  0
    4.3529    2.0867   -0.0790 H   0  0  0  0  0  0  0  0  0  0  0  0
    7.6966    3.6870    3.0559 H   0  0  0  0  0  0  0  0  0  0  0  0
    6.2436    4.6352    3.1556 H   0  0  0  0  0  0  0  0  0  0  0  0
    5.8332    3.7943    1.1141 H   0  0  0  0  0  0  0  0  0  0  0  0
    7.1221    1.0913    1.3454 H   0  0  0  0  0  0  0  0  0  0  0  0
    7.2441    3.4171   -0.7816 H   0  0  0  0  0  0  0  0  0  0  0  0
    7.8681    1.7277   -1.0110 H   0  0  0  0  0  0  0  0  0  0  0  0
    9.4030    2.0375    0.9423 H   0  0  0  0  0  0  0  0  0  0  0  0
    8.7924    3.7346    1.1229 H   0  0  0  0  0  0  0  0  0  0  0  0
    5.3767    2.2303    6.5350 H   0  0  0  0  0  0  0  0  0  0  0  0
    3.4227    0.7512    6.8949 H   0  0  0  0  0  0  0  0  0  0  0  0
    2.1846   -0.1350    4.9395 H   0  0  0  0  0  0  0  0  0  0  0  0
    1.3633   -1.0580    0.9239 H   0  0  0  0  0  0  0  0  0  0  0  0
    1.2226   -1.3881   -2.0282 H   0  0  0  0  0  0  0  0  0  0  0  0
    0.7486   -3.1685    0.4073 H   0  0  0  0  0  0  0  0  0  0  0  0
    1.9437   -3.3640   -0.8573 H   0  0  0  0  0  0  0  0  0  0  0  0
    0.0064   -4.9939   -0.8912 H   0  0  0  0  0  0  0  0  0  0  0  0
    0.3102   -4.1758   -2.4174 H   0  0  0  0  0  0  0  0  0  0  0  0
   -1.8951   -3.5544   -0.3966 H   0  0  0  0  0  0  0  0  0  0  0  0
   -2.0858   -4.2089   -2.0193 H   0  0  0  0  0  0  0  0  0  0  0  0
   -2.6042   -1.7889   -1.9800 H   0  0  0  0  0  0  0  0  0  0  0  0
   -1.2099   -2.1107   -3.0083 H   0  0  0  0  0  0  0  0  0  0  0  0
   -0.8006   -0.1383   -1.5564 H   0  0  0  0  0  0  0  0  0  0  0  0
   -1.1478   -1.0909   -0.1219 H   0  0  0  0  0  0  0  0  0  0  0  0
  1  2  2  0  0  0  0
  2  3  1  0  0  0  0
  2 20  1  0  0  0  0
  3 18  1  0  0  0  0
  3  4  2  0  0  0  0
  4  5  1  0  0  0  0
  4 27  1  0  0  0  0
  5 10  1  0  0  0  0
  5  6  1  0  0  0  0
  6 17  2  0  0  0  0
  6  7  1  0  0  0  0
  7  8  1  0  0  0  0
  7 14  2  0  0  0  0
  8  9  1  0  0  0  0
  9 10  1  0  0  0  0
  9 28  1  0  0  0  0
  9 29  1  0  0  0  0
 10 11  1  0  0  0  0
 10 30  1  6  0  0  0
 11 13  1  0  0  0  0
 11 12  1  0  0  0  0
 11 31  1  0  0  0  0
 12 13  1  0  0  0  0
 12 32  1  0  0  0  0
 12 33  1  0  0  0  0
 13 34  1  0  0  0  0
 13 35  1  0  0  0  0
 14 15  1  0  0  0  0
 14 36  1  0  0  0  0
 15 16  2  0  0  0  0
 15 37  1  0  0  0  0
 16 17  1  0  0  0  0
 16 38  1  0  0  0  0
 17 18  1  0  0  0  0
 18 19  2  0  0  0  0
 20 21  1  0  0  0  0
 20 39  1  0  0  0  0
 21 26  1  0  0  0  0
 21 22  1  0  0  0  0
 21 40  1  0  0  0  0
 22 23  1  0  0  0  0
 22 41  1  0  0  0  0
 22 42  1  0  0  0  0
 23 24  1  0  0  0  0
 23 43  1  0  0  0  0
 23 44  1  0  0  0  0
 24 25  1  0  0  0  0
 24 45  1  0  0  0  0
 24 46  1  0  0  0  0
 25 26  1  0  0  0  0
 25 47  1  0  0  0  0
 25 48  1  0  0  0  0
 26 49  1  0  0  0  0
 26 50  1  0  0  0  0
M  END
$$$$
CHEMBL599882_5ZTY
 OpenBabel12022418123D

 56 60  0  0  1  0  0  0  0  0999 V2000
    3.7030   -4.2841    3.2319 C   0  0  0  0  0  0  0  0  0  0  0  0
    3.2008   -3.2255    2.2613 C   0  0  0  0  0  0  0  0  0  0  0  0
    3.3882   -1.8122    2.7438 C   0  0  0  0  0  0  0  0  0  0  0  0
    3.9884   -1.4892    3.8802 N   0  0  0  0  0  0  0  0  0  0  0  0
    4.1117   -0.1159    3.8950 C   0  0  0  0  0  0  0  0  0  0  0  0
    4.7233    0.6288    5.0352 C   0  0  0  0  0  0  0  0  0  0  0  0
    4.8592    1.8467    5.0291 O   0  0  0  0  0  0  0  0  0  0  0  0
    5.1136   -0.1741    6.0950 N   0  0  0  0  0  0  0  0  0  0  0  0
    5.6555    0.3214    7.3836 C   0  0  1  0  0  0  0  0  0  0  0  0
    6.9599    1.1384    7.1857 C   0  0  0  0  0  0  0  0  0  0  0  0
    7.5071    1.6488    8.5334 C   0  0  2  0  0  0  0  0  0  0  0  0
    7.8320    0.4525    9.4404 C   0  0  0  0  0  0  0  0  0  0  0  0
    6.5613   -0.3793    9.6758 C   0  0  1  0  0  0  0  0  0  0  0  0
    5.5165    0.5073   10.3715 C   0  0  0  0  0  0  0  0  0  0  0  0
    5.1700    1.7043    9.4719 C   0  0  1  0  0  0  0  0  0  0  0  0
    6.4425    2.5271    9.2123 C   0  0  0  0  0  0  0  0  0  0  0  0
    4.6108    1.1930    8.1294 C   0  0  0  0  0  0  0  0  0  0  0  0
    6.0052   -0.8733    8.3184 C   0  0  0  0  0  0  0  0  0  0  0  0
    3.5622    0.4166    2.7297 C   0  0  0  0  0  0  0  0  0  0  0  0
    3.3850    1.8481    2.3489 C   0  0  0  0  0  0  0  0  0  0  0  0
    3.0631   -0.6680    1.9955 N   0  0  0  0  0  0  0  0  0  0  0  0
    2.3181   -0.6060    0.7578 C   0  0  0  0  0  0  0  0  0  0  0  0
    2.5804    0.3822   -0.2069 C   0  0  0  0  0  0  0  0  0  0  0  0
    1.7780    0.5098   -1.3490 C   0  0  0  0  0  0  0  0  0  0  0  0
    0.7323   -0.3764   -1.5767 C   0  0  0  0  0  0  0  0  0  0  0  0
    0.4885   -1.3907   -0.6592 C   0  0  0  0  0  0  0  0  0  0  0  0
    1.2618   -1.4905    0.5049 C   0  0  0  0  0  0  0  0  0  0  0  0
    3.5718   -5.2797    2.7931 H   0  0  0  0  0  0  0  0  0  0  0  0
    3.1309   -4.2567    4.1658 H   0  0  0  0  0  0  0  0  0  0  0  0
    4.7621   -4.1516    3.4700 H   0  0  0  0  0  0  0  0  0  0  0  0
    2.1438   -3.4493    2.1218 H   0  0  0  0  0  0  0  0  0  0  0  0
    3.7086   -3.3504    1.2976 H   0  0  0  0  0  0  0  0  0  0  0  0
    4.9060   -1.1634    5.9812 H   0  0  0  0  0  0  0  0  0  0  0  0
    6.7923    1.9990    6.5303 H   0  0  0  0  0  0  0  0  0  0  0  0
    7.7198    0.5180    6.6918 H   0  0  0  0  0  0  0  0  0  0  0  0
    8.4161    2.2383    8.3648 H   0  0  0  0  0  0  0  0  0  0  0  0
    8.2317    0.8084   10.3996 H   0  0  0  0  0  0  0  0  0  0  0  0
    8.6118   -0.1685    8.9846 H   0  0  0  0  0  0  0  0  0  0  0  0
    6.7988   -1.2368   10.3164 H   0  0  0  0  0  0  0  0  0  0  0  0
    5.9061    0.8638   11.3358 H   0  0  0  0  0  0  0  0  0  0  0  0
    4.6140   -0.0745   10.5923 H   0  0  0  0  0  0  0  0  0  0  0  0
    4.4216    2.3315    9.9692 H   0  0  0  0  0  0  0  0  0  0  0  0
    6.2082    3.3911    8.5785 H   0  0  0  0  0  0  0  0  0  0  0  0
    6.8315    2.9242   10.1582 H   0  0  0  0  0  0  0  0  0  0  0  0
    3.6979    0.6101    8.3109 H   0  0  0  0  0  0  0  0  0  0  0  0
    4.3124    2.0519    7.5192 H   0  0  0  0  0  0  0  0  0  0  0  0
    6.7454   -1.5269    7.8388 H   0  0  0  0  0  0  0  0  0  0  0  0
    5.1152   -1.4915    8.4953 H   0  0  0  0  0  0  0  0  0  0  0  0
    3.5902    2.5320    3.1735 H   0  0  0  0  0  0  0  0  0  0  0  0
    2.3535    2.0465    2.0405 H   0  0  0  0  0  0  0  0  0  0  0  0
    4.0701    2.1260    1.5430 H   0  0  0  0  0  0  0  0  0  0  0  0
    3.4208    1.0606   -0.1204 H   0  0  0  0  0  0  0  0  0  0  0  0
    1.9705    1.3086   -2.0627 H   0  0  0  0  0  0  0  0  0  0  0  0
    0.1036   -0.2730   -2.4585 H   0  0  0  0  0  0  0  0  0  0  0  0
   -0.3264   -2.0907   -0.8307 H   0  0  0  0  0  0  0  0  0  0  0  0
    0.9414   -2.2328    1.2258 H   0  0  0  0  0  0  0  0  0  0  0  0
  1  2  1  0  0  0  0
  1 28  1  0  0  0  0
  1 29  1  0  0  0  0
  1 30  1  0  0  0  0
  2  3  1  0  0  0  0
  2 31  1  0  0  0  0
  2 32  1  0  0  0  0
  3 21  1  0  0  0  0
  3  4  2  0  0  0  0
  4  5  1  0  0  0  0
  5  6  1  0  0  0  0
  5 19  2  0  0  0  0
  6  7  2  0  0  0  0
  6  8  1  0  0  0  0
  8 33  1  0  0  0  0
  9  8  1  6  0  0  0
  9 17  1  0  0  0  0
  9 18  1  0  0  0  0
  9 10  1  0  0  0  0
 10 34  1  0  0  0  0
 10 35  1  0  0  0  0
 11 10  1  0  0  0  0
 11 12  1  0  0  0  0
 11 16  1  0  0  0  0
 11 36  1  6  0  0  0
 12 37  1  0  0  0  0
 12 38  1  0  0  0  0
 13 12  1  0  0  0  0
 13 14  1  0  0  0  0
 13 18  1  0  0  0  0
 13 39  1  1  0  0  0
 14 40  1  0  0  0  0
 14 41  1  0  0  0  0
 15 14  1  0  0  0  0
 15 16  1  0  0  0  0
 15 17  1  0  0  0  0
 15 42  1  1  0  0  0
 16 43  1  0  0  0  0
 16 44  1  0  0  0  0
 17 45  1  0  0  0  0
 17 46  1  0  0  0  0
 18 47  1  0  0  0  0
 18 48  1  0  0  0  0
 19 20  1  0  0  0  0
 19 21  1  0  0  0  0
 20 49  1  0  0  0  0
 20 50  1  0  0  0  0
 20 51  1  0  0  0  0
 21 22  1  0  0  0  0
 22 27  2  0  0  0  0
 22 23  1  0  0  0  0
 23 24  2  0  0  0  0
 23 52  1  0  0  0  0
 24 25  1  0  0  0  0
 24 53  1  0  0  0  0
 25 26  2  0  0  0  0
 25 54  1  0  0  0  0
 26 27  1  0  0  0  0
 26 55  1  0  0  0  0
 27 56  1  0  0  0  0
M  END
$$$$
CHEMBL2022365_5ZTY
 OpenBabel12022418123D

 51 54  0  0  0  0  0  0  0  0999 V2000
   -0.4652    1.6176    1.4918 C   0  0  0  0  0  0  0  0  0  0  0  0
    0.0834    0.4789    2.3488 C   0  0  0  0  0  0  0  0  0  0  0  0
    1.4509    0.0069    1.8591 C   0  0  0  0  0  0  0  0  0  0  0  0
    1.4197   -0.3563    0.3716 C   0  0  0  0  0  0  0  0  0  0  0  0
    0.8825    0.8040   -0.4722 C   0  0  0  0  0  0  0  0  0  0  0  0
   -0.4942    1.2448    0.0129 C   0  0  0  0  0  0  0  0  0  0  0  0
    2.7437   -0.7334   -0.0938 N   0  0  0  0  0  0  0  0  0  0  0  0
    3.1907   -2.0290   -0.1053 C   0  0  0  0  0  0  0  0  0  0  0  0
    2.4983   -2.9802    0.2579 O   0  0  0  0  0  0  0  0  0  0  0  0
    4.5606   -2.2425   -0.6577 C   0  0  0  0  0  0  0  0  0  0  0  0
    4.8758   -3.4789   -1.0881 C   0  0  0  0  0  0  0  0  0  0  0  0
    6.1700   -3.7343   -1.7160 C   0  0  0  0  0  0  0  0  0  0  0  0
    7.1670   -2.7541   -1.6951 C   0  0  0  0  0  0  0  0  0  0  0  0
    8.3882   -2.9473   -2.2405 N   0  0  0  0  0  0  0  0  0  0  0  0
    8.6318   -4.1219   -2.8557 C   0  0  0  0  0  0  0  0  0  0  0  0
    7.6949   -5.1356   -2.9572 C   0  0  0  0  0  0  0  0  0  0  0  0
    6.4568   -4.9442   -2.3639 C   0  0  0  0  0  0  0  0  0  0  0  0
    6.8557   -1.4777   -1.1615 N   0  0  0  0  0  0  0  0  0  0  0  0
    5.5706   -1.1442   -0.7731 C   0  0  0  0  0  0  0  0  0  0  0  0
    5.2375    0.0133   -0.4962 O   0  0  0  0  0  0  0  0  0  0  0  0
    7.9349   -0.4988   -1.0108 C   0  0  0  0  0  0  0  0  0  0  0  0
    8.6497   -0.6839    0.3157 C   0  0  0  0  0  0  0  0  0  0  0  0
    8.1071   -0.1578    1.4982 C   0  0  0  0  0  0  0  0  0  0  0  0
    8.6615   -0.4850    2.7364 C   0  0  0  0  0  0  0  0  0  0  0  0
    9.7685   -1.3284    2.8061 C   0  0  0  0  0  0  0  0  0  0  0  0
   10.3521   -1.8076    1.6357 C   0  0  0  0  0  0  0  0  0  0  0  0
    9.8009   -1.4827    0.3961 C   0  0  0  0  0  0  0  0  0  0  0  0
    4.0346   -4.5803   -1.0062 O   0  0  0  0  0  0  0  0  0  0  0  0
   -1.4752    1.8778    1.8264 H   0  0  0  0  0  0  0  0  0  0  0  0
    0.1585    2.5096    1.6295 H   0  0  0  0  0  0  0  0  0  0  0  0
   -0.6198   -0.3628    2.3276 H   0  0  0  0  0  0  0  0  0  0  0  0
    0.1583    0.8061    3.3919 H   0  0  0  0  0  0  0  0  0  0  0  0
    1.7739   -0.8572    2.4522 H   0  0  0  0  0  0  0  0  0  0  0  0
    2.1927    0.7973    2.0341 H   0  0  0  0  0  0  0  0  0  0  0  0
    0.7548   -1.2188    0.2383 H   0  0  0  0  0  0  0  0  0  0  0  0
    0.8244    0.5049   -1.5257 H   0  0  0  0  0  0  0  0  0  0  0  0
    1.5764    1.6533   -0.4281 H   0  0  0  0  0  0  0  0  0  0  0  0
   -0.8380    2.1002   -0.5796 H   0  0  0  0  0  0  0  0  0  0  0  0
   -1.2149    0.4335   -0.1473 H   0  0  0  0  0  0  0  0  0  0  0  0
    3.4185    0.0107   -0.2948 H   0  0  0  0  0  0  0  0  0  0  0  0
    9.6164   -4.2262   -3.2963 H   0  0  0  0  0  0  0  0  0  0  0  0
    7.9277   -6.0613   -3.4883 H   0  0  0  0  0  0  0  0  0  0  0  0
    5.7067   -5.7269   -2.4257 H   0  0  0  0  0  0  0  0  0  0  0  0
    7.5226    0.5166   -1.0516 H   0  0  0  0  0  0  0  0  0  0  0  0
    8.6359   -0.5587   -1.8519 H   0  0  0  0  0  0  0  0  0  0  0  0
    7.2296    0.4844    1.4604 H   0  0  0  0  0  0  0  0  0  0  0  0
    8.2134   -0.1022    3.6492 H   0  0  0  0  0  0  0  0  0  0  0  0
   10.1729   -1.6183    3.7730 H   0  0  0  0  0  0  0  0  0  0  0  0
   11.2202   -2.4584    1.6869 H   0  0  0  0  0  0  0  0  0  0  0  0
   10.2481   -1.8878   -0.5078 H   0  0  0  0  0  0  0  0  0  0  0  0
    3.2373   -4.3286   -0.4867 H   0  0  0  0  0  0  0  0  0  0  0  0
  1  6  1  0  0  0  0
  1  2  1  0  0  0  0
  1 29  1  0  0  0  0
  1 30  1  0  0  0  0
  2  3  1  0  0  0  0
  2 31  1  0  0  0  0
  2 32  1  0  0  0  0
  3  4  1  0  0  0  0
  3 33  1  0  0  0  0
  3 34  1  0  0  0  0
  4  5  1  0  0  0  0
  4  7  1  0  0  0  0
  4 35  1  0  0  0  0
  5  6  1  0  0  0  0
  5 36  1  0  0  0  0
  5 37  1  0  0  0  0
  6 38  1  0  0  0  0
  6 39  1  0  0  0  0
  7  8  1  0  0  0  0
  7 40  1  0  0  0  0
  8  9  2  0  0  0  0
  8 10  1  0  0  0  0
 10 19  1  0  0  0  0
 10 11  2  0  0  0  0
 11 12  1  0  0  0  0
 11 28  1  0  0  0  0
 12 17  2  0  0  0  0
 12 13  1  0  0  0  0
 13 14  2  0  0  0  0
 13 18  1  0  0  0  0
 14 15  1  0  0  0  0
 15 16  2  0  0  0  0
 15 41  1  0  0  0  0
 16 17  1  0  0  0  0
 16 42  1  0  0  0  0
 17 43  1  0  0  0  0
 18 19  1  0  0  0  0
 18 21  1  0  0  0  0
 19 20  2  0  0  0  0
 21 22  1  0  0  0  0
 21 44  1  0  0  0  0
 21 45  1  0  0  0  0
 22 27  2  0  0  0  0
 22 23  1  0  0  0  0
 23 24  2  0  0  0  0
 23 46  1  0  0  0  0
 24 25  1  0  0  0  0
 24 47  1  0  0  0  0
 25 26  2  0  0  0  0
 25 48  1  0  0  0  0
 26 27  1  0  0  0  0
 26 49  1  0  0  0  0
 27 50  1  0  0  0  0
 28 51  1  0  0  0  0
M  END
$$$$
CHEMBL3114526_5ZTY
 OpenBabel12022418123D

 44 46  0  0  0  0  0  0  0  0999 V2000
    1.2311    2.4176    0.6363 C   0  0  0  0  0  0  0  0  0  0  0  0
    0.7421    2.9945    1.9870 C   0  0  0  0  0  0  0  0  0  0  0  0
    1.3485    4.3829    2.2504 C   0  0  0  0  0  0  0  0  0  0  0  0
   -0.7918    3.1330    1.9355 C   0  0  0  0  0  0  0  0  0  0  0  0
    1.1074    2.0485    3.1433 C   0  0  0  0  0  0  0  0  0  0  0  0
    2.6602    2.1813    0.5793 N   0  0  0  0  0  0  0  0  0  0  0  0
    3.2215    1.1679   -0.1673 C   0  0  0  0  0  0  0  0  0  0  0  0
    2.5626    0.3493   -0.8024 O   0  0  0  0  0  0  0  0  0  0  0  0
    4.6691    1.1581   -0.1438 C   0  0  0  0  0  0  0  0  0  0  0  0
    5.4241    2.0125    0.5237 N   0  0  0  0  0  0  0  0  0  0  0  0
    6.7371    1.6562    0.2570 C   0  0  0  0  0  0  0  0  0  0  0  0
    7.9554    2.2430    0.6923 C   0  0  0  0  0  0  0  0  0  0  0  0
    9.1464    1.6355    0.2253 C   0  0  0  0  0  0  0  0  0  0  0  0
    9.1377    0.5186   -0.6155 C   0  0  0  0  0  0  0  0  0  0  0  0
    7.9402   -0.0527   -1.0414 C   0  0  0  0  0  0  0  0  0  0  0  0
    6.7637    0.5455   -0.5862 C   0  0  0  0  0  0  0  0  0  0  0  0
    5.4455    0.2530   -0.8192 N   0  0  0  0  0  0  0  0  0  0  0  0
    7.9632    3.4393    1.5631 C   0  0  0  0  0  0  0  0  0  0  0  0
    6.9609    4.4235    1.4756 C   0  0  0  0  0  0  0  0  0  0  0  0
    6.9756    5.5673    2.2794 C   0  0  0  0  0  0  0  0  0  0  0  0
    8.0088    5.7642    3.1862 C   0  0  0  0  0  0  0  0  0  0  0  0
    9.0177    4.8135    3.2977 C   0  0  0  0  0  0  0  0  0  0  0  0
    8.9891    3.6622    2.5015 C   0  0  0  0  0  0  0  0  0  0  0  0
    0.9901    3.1041   -0.1844 H   0  0  0  0  0  0  0  0  0  0  0  0
    0.7130    1.4744    0.4255 H   0  0  0  0  0  0  0  0  0  0  0  0
    1.0973    5.0827    1.4456 H   0  0  0  0  0  0  0  0  0  0  0  0
    2.4394    4.3424    2.3330 H   0  0  0  0  0  0  0  0  0  0  0  0
    0.9680    4.8058    3.1875 H   0  0  0  0  0  0  0  0  0  0  0  0
   -1.1033    3.8050    1.1280 H   0  0  0  0  0  0  0  0  0  0  0  0
   -1.1854    3.5373    2.8752 H   0  0  0  0  0  0  0  0  0  0  0  0
   -1.2723    2.1626    1.7665 H   0  0  0  0  0  0  0  0  0  0  0  0
    2.1917    1.9300    3.2415 H   0  0  0  0  0  0  0  0  0  0  0  0
    0.6729    1.0541    2.9908 H   0  0  0  0  0  0  0  0  0  0  0  0
    0.7316    2.4316    4.0990 H   0  0  0  0  0  0  0  0  0  0  0  0
    3.3169    2.8689    0.9384 H   0  0  0  0  0  0  0  0  0  0  0  0
   10.1128    2.0542    0.5027 H   0  0  0  0  0  0  0  0  0  0  0  0
   10.0823    0.0954   -0.9506 H   0  0  0  0  0  0  0  0  0  0  0  0
    7.9299   -0.9139   -1.7015 H   0  0  0  0  0  0  0  0  0  0  0  0
    5.0825   -0.4918   -1.3972 H   0  0  0  0  0  0  0  0  0  0  0  0
    6.1470    4.3163    0.7628 H   0  0  0  0  0  0  0  0  0  0  0  0
    6.1774    6.2980    2.1879 H   0  0  0  0  0  0  0  0  0  0  0  0
    8.0274    6.6575    3.8044 H   0  0  0  0  0  0  0  0  0  0  0  0
    9.8291    4.9629    4.0051 H   0  0  0  0  0  0  0  0  0  0  0  0
    9.7857    2.9329    2.6336 H   0  0  0  0  0  0  0  0  0  0  0  0
  1  2  1  0  0  0  0
  1  6  1  0  0  0  0
  1 24  1  0  0  0  0
  1 25  1  0  0  0  0
  2  3  1  0  0  0  0
  2  4  1  0  0  0  0
  2  5  1  0  0  0  0
  3 26  1  0  0  0  0
  3 27  1  0  0  0  0
  3 28  1  0  0  0  0
  4 29  1  0  0  0  0
  4 30  1  0  0  0  0
  4 31  1  0  0  0  0
  5 32  1  0  0  0  0
  5 33  1  0  0  0  0
  5 34  1  0  0  0  0
  6  7  1  0  0  0  0
  6 35  1  0  0  0  0
  7  8  2  0  0  0  0
  7  9  1  0  0  0  0
  9 17  1  0  0  0  0
  9 10  2  0  0  0  0
 10 11  1  0  0  0  0
 11 16  2  0  0  0  0
 11 12  1  0  0  0  0
 12 13  2  0  0  0  0
 12 18  1  0  0  0  0
 13 14  1  0  0  0  0
 13 36  1  0  0  0  0
 14 15  2  0  0  0  0
 14 37  1  0  0  0  0
 15 16  1  0  0  0  0
 15 38  1  0  0  0  0
 16 17  1  0  0  0  0
 17 39  1  0  0  0  0
 18 23  2  0  0  0  0
 18 19  1  0  0  0  0
 19 20  2  0  0  0  0
 19 40  1  0  0  0  0
 20 21  1  0  0  0  0
 20 41  1  0  0  0  0
 21 22  2  0  0  0  0
 21 42  1  0  0  0  0
 22 23  1  0  0  0  0
 22 43  1  0  0  0  0
 23 44  1  0  0  0  0
M  END
$$$$
CHEMBL3353439_8GUT
 OpenBabel12022418123D

 53 56  0  0  1  0  0  0  0  0999 V2000
    2.4317   -0.8895    0.1161 C   0  0  0  0  0  0  0  0  0  0  0  0
    2.4001    0.4894    0.2315 C   0  0  0  0  0  0  0  0  0  0  0  0
    1.2574    1.2241    0.2217 N   0  0  0  0  0  0  0  0  0  0  0  0
    0.0858    0.5543    0.1087 C   0  0  0  0  0  0  0  0  0  0  0  0
    0.0317   -0.8457    0.0633 C   0  0  0  0  0  0  0  0  0  0  0  0
    1.2265   -1.5728    0.0471 C   0  0  0  0  0  0  0  0  0  0  0  0
   -1.2490   -1.5429    0.0085 C   0  0  0  0  0  0  0  0  0  0  0  0
   -2.3981   -0.8528    0.0019 C   0  0  0  0  0  0  0  0  0  0  0  0
   -2.3580    0.6468    0.0456 C   0  0  0  0  0  0  0  0  0  0  0  0
   -3.4151    1.2810    0.1077 O   0  0  0  0  0  0  0  0  0  0  0  0
   -1.1278    1.2811    0.0265 N   0  0  0  0  0  0  0  0  0  0  0  0
   -1.0982    2.7392    0.0270 C   0  0  0  0  0  0  0  0  0  0  0  0
   -1.1053    3.4243   -1.3337 C   0  0  0  0  0  0  0  0  0  0  0  0
    0.0820    3.9757   -1.8424 C   0  0  0  0  0  0  0  0  0  0  0  0
    0.0461    4.8770   -2.9115 C   0  0  0  0  0  0  0  0  0  0  0  0
   -1.1638    5.1943   -3.5053 C   0  0  0  0  0  0  0  0  0  0  0  0
   -2.3429    4.5792   -3.0914 C   0  0  0  0  0  0  0  0  0  0  0  0
   -2.3121    3.6905   -2.0142 C   0  0  0  0  0  0  0  0  0  0  0  0
   -1.2083    6.1330   -4.4646 F   0  0  0  0  0  0  0  0  0  0  0  0
   -3.6880   -1.6415   -0.0630 C   0  0  0  0  0  0  0  0  0  0  0  0
   -3.7129   -2.8621   -0.0595 O   0  0  0  0  0  0  0  0  0  0  0  0
   -4.8023   -0.8445   -0.1224 N   0  0  0  0  0  0  0  0  0  0  0  0
   -6.1883   -1.2818   -0.0129 C   0  0  2  0  0  0  0  0  0  0  0  0
   -7.1160   -0.2451   -0.6682 C   0  0  0  0  0  0  0  0  0  0  0  0
   -7.0978    1.1094    0.0514 C   0  0  0  0  0  0  0  0  0  0  0  0
   -7.3325    0.9898    1.5649 C   0  0  1  0  0  0  0  0  0  0  0  0
   -6.4854   -0.1171    2.2118 C   0  0  0  0  0  0  0  0  0  0  0  0
   -6.5852   -1.4454    1.4574 C   0  0  0  0  0  0  0  0  0  0  0  0
   -7.0512    2.3310    2.2465 C   0  0  0  0  0  0  0  0  0  0  0  0
    4.0672   -1.8200    0.0119 Br  0  0  0  0  0  0  0  0  0  0  0  0
    3.3158    1.0679    0.3207 H   0  0  0  0  0  0  0  0  0  0  0  0
    1.2141   -2.6562   -0.0388 H   0  0  0  0  0  0  0  0  0  0  0  0
   -1.2421   -2.6293   -0.0237 H   0  0  0  0  0  0  0  0  0  0  0  0
   -0.2597    3.1124    0.6250 H   0  0  0  0  0  0  0  0  0  0  0  0
   -1.9845    3.1113    0.5600 H   0  0  0  0  0  0  0  0  0  0  0  0
    1.0350    3.7608   -1.3596 H   0  0  0  0  0  0  0  0  0  0  0  0
    0.9541    5.3645   -3.2518 H   0  0  0  0  0  0  0  0  0  0  0  0
   -3.2795    4.8365   -3.5798 H   0  0  0  0  0  0  0  0  0  0  0  0
   -3.2500    3.2646   -1.6618 H   0  0  0  0  0  0  0  0  0  0  0  0
   -4.6461    0.1459    0.0280 H   0  0  0  0  0  0  0  0  0  0  0  0
   -6.2808   -2.2426   -0.5285 H   0  0  0  0  0  0  0  0  0  0  0  0
   -8.1428   -0.6301   -0.6648 H   0  0  0  0  0  0  0  0  0  0  0  0
   -6.8349   -0.0952   -1.7177 H   0  0  0  0  0  0  0  0  0  0  0  0
   -7.8650    1.7599   -0.3876 H   0  0  0  0  0  0  0  0  0  0  0  0
   -6.1424    1.6122   -0.1409 H   0  0  0  0  0  0  0  0  0  0  0  0
   -8.3898    0.7407    1.7250 H   0  0  0  0  0  0  0  0  0  0  0  0
   -6.8054   -0.2678    3.2495 H   0  0  0  0  0  0  0  0  0  0  0  0
   -5.4354    0.1977    2.2583 H   0  0  0  0  0  0  0  0  0  0  0  0
   -5.9484   -2.1911    1.9457 H   0  0  0  0  0  0  0  0  0  0  0  0
   -7.6163   -1.8183    1.5155 H   0  0  0  0  0  0  0  0  0  0  0  0
   -6.0260    2.6665    2.0504 H   0  0  0  0  0  0  0  0  0  0  0  0
   -7.1768    2.2554    3.3315 H   0  0  0  0  0  0  0  0  0  0  0  0
   -7.7334    3.1049    1.8798 H   0  0  0  0  0  0  0  0  0  0  0  0
  1  6  2  0  0  0  0
  1  2  1  0  0  0  0
  1 30  1  0  0  0  0
  2  3  2  0  0  0  0
  2 31  1  0  0  0  0
  3  4  1  0  0  0  0
  4 11  1  0  0  0  0
  4  5  2  0  0  0  0
  5  6  1  0  0  0  0
  5  7  1  0  0  0  0
  6 32  1  0  0  0  0
  7  8  2  0  0  0  0
  7 33  1  0  0  0  0
  8  9  1  0  0  0  0
  8 20  1  0  0  0  0
  9 10  2  0  0  0  0
  9 11  1  0  0  0  0
 11 12  1  0  0  0  0
 12 13  1  0  0  0  0
 12 34  1  0  0  0  0
 12 35  1  0  0  0  0
 13 18  2  0  0  0  0
 13 14  1  0  0  0  0
 14 15  2  0  0  0  0
 14 36  1  0  0  0  0
 15 16  1  0  0  0  0
 15 37  1  0  0  0  0
 16 17  2  0  0  0  0
 16 19  1  0  0  0  0
 17 18  1  0  0  0  0
 17 38  1  0  0  0  0
 18 39  1  0  0  0  0
 20 21  2  0  0  0  0
 20 22  1  0  0  0  0
 22 40  1  0  0  0  0
 23 22  1  0  0  0  0
 23 24  1  0  0  0  0
 23 28  1  0  0  0  0
 23 41  1  6  0  0  0
 24 25  1  0  0  0  0
 24 42  1  0  0  0  0
 24 43  1  0  0  0  0
 25 26  1  0  0  0  0
 25 44  1  0  0  0  0
 25 45  1  0  0  0  0
 26 27  1  0  0  0  0
 26 29  1  0  0  0  0
 26 46  1  1  0  0  0
 27 28  1  0  0  0  0
 27 47  1  0  0  0  0
 27 48  1  0  0  0  0
 28 49  1  0  0  0  0
 28 50  1  0  0  0  0
 29 51  1  0  0  0  0
 29 52  1  0  0  0  0
 29 53  1  0  0  0  0
M  END
$$$$
CHEMBL3938697_8GUQ
 OpenBabel12022418123D

 50 53  0  0  1  0  0  0  0  0999 V2000
    0.5018    0.7756   -0.5771 C   0  0  0  0  0  0  0  0  0  0  0  0
   -0.6814    0.4381    0.2714 C   0  0  0  0  0  0  0  0  0  0  0  0
    0.4387   -0.5700    0.1073 C   0  0  0  0  0  0  0  0  0  0  0  0
    1.3554   -0.9150    1.2662 C   0  0  0  0  0  0  0  0  0  0  0  0
    2.7532   -1.0733    1.1531 C   0  0  0  0  0  0  0  0  0  0  0  0
    3.5024   -0.7222   -0.1180 C   0  0  0  0  0  0  0  0  0  0  0  0
    3.8274   -1.8321   -1.0976 C   0  0  0  0  0  0  0  0  0  0  0  0
    4.1217   -3.1408   -0.6848 C   0  0  0  0  0  0  0  0  0  0  0  0
    4.6105   -4.0801   -1.5969 C   0  0  0  0  0  0  0  0  0  0  0  0
    4.8129   -3.7142   -2.9216 C   0  0  0  0  0  0  0  0  0  0  0  0
    4.5078   -2.4339   -3.3613 C   0  0  0  0  0  0  0  0  0  0  0  0
    4.0143   -1.4960   -2.4529 C   0  0  0  0  0  0  0  0  0  0  0  0
    5.3324   -4.6007   -3.7811 F   0  0  0  0  0  0  0  0  0  0  0  0
    3.5501   -1.4997    2.1797 N   0  0  0  0  0  0  0  0  0  0  0  0
    2.9612   -1.7515    3.3766 C   0  0  0  0  0  0  0  0  0  0  0  0
    1.6106   -1.5763    3.6079 C   0  0  0  0  0  0  0  0  0  0  0  0
    0.8112   -1.1683    2.5416 C   0  0  0  0  0  0  0  0  0  0  0  0
    3.8453   -2.2859    4.4646 C   0  0  0  0  0  0  0  0  0  0  0  0
    3.4366   -2.4533    5.6087 O   0  0  0  0  0  0  0  0  0  0  0  0
    5.1263   -2.6047    4.0818 N   0  0  0  0  0  0  0  0  0  0  0  0
    6.1352   -3.0809    5.0404 C   0  0  1  0  0  0  0  0  0  0  0  0
    7.2255   -3.8560    4.3190 C   0  0  0  0  0  0  0  0  0  0  0  0
    7.8718   -4.9177    4.9541 C   0  0  0  0  0  0  0  0  0  0  0  0
    8.8984   -5.5803    4.2865 C   0  0  0  0  0  0  0  0  0  0  0  0
    9.2523   -5.1715    3.0065 C   0  0  0  0  0  0  0  0  0  0  0  0
    8.5577   -4.1159    2.4416 C   0  0  0  0  0  0  0  0  0  0  0  0
    7.5564   -3.4524    3.0621 N   0  0  0  0  0  0  0  0  0  0  0  0
    6.7555   -1.9818    5.9373 C   0  0  0  0  0  0  0  0  0  0  0  0
    6.3030   -0.7411    5.6347 F   0  0  0  0  0  0  0  0  0  0  0  0
    6.4596   -2.2069    7.2441 F   0  0  0  0  0  0  0  0  0  0  0  0
    8.1089   -1.9281    5.8645 F   0  0  0  0  0  0  0  0  0  0  0  0
    0.3724    0.7915   -1.6542 H   0  0  0  0  0  0  0  0  0  0  0  0
    1.1770    1.5358   -0.2022 H   0  0  0  0  0  0  0  0  0  0  0  0
   -1.6219    0.2430   -0.2326 H   0  0  0  0  0  0  0  0  0  0  0  0
   -0.7896    0.9834    1.2021 H   0  0  0  0  0  0  0  0  0  0  0  0
    0.1963   -1.4198   -0.5310 H   0  0  0  0  0  0  0  0  0  0  0  0
    4.4647   -0.2854    0.1842 H   0  0  0  0  0  0  0  0  0  0  0  0
    2.9852    0.0863   -0.6413 H   0  0  0  0  0  0  0  0  0  0  0  0
    4.0146   -3.4344    0.3574 H   0  0  0  0  0  0  0  0  0  0  0  0
    4.8641   -5.0842   -1.2727 H   0  0  0  0  0  0  0  0  0  0  0  0
    4.6836   -2.1646   -4.3979 H   0  0  0  0  0  0  0  0  0  0  0  0
    3.8144   -0.4844   -2.8014 H   0  0  0  0  0  0  0  0  0  0  0  0
    1.1794   -1.7768    4.5837 H   0  0  0  0  0  0  0  0  0  0  0  0
   -0.2587   -1.0560    2.7035 H   0  0  0  0  0  0  0  0  0  0  0  0
    5.4304   -2.3664    3.1384 H   0  0  0  0  0  0  0  0  0  0  0  0
    5.6077   -3.7856    5.6975 H   0  0  0  0  0  0  0  0  0  0  0  0
    7.5943   -5.2268    5.9586 H   0  0  0  0  0  0  0  0  0  0  0  0
    9.4230   -6.4035    4.7636 H   0  0  0  0  0  0  0  0  0  0  0  0
   10.0528   -5.6617    2.4634 H   0  0  0  0  0  0  0  0  0  0  0  0
    8.7994   -3.7597    1.4442 H   0  0  0  0  0  0  0  0  0  0  0  0
  1  3  1  0  0  0  0
  1  2  1  0  0  0  0
  1 32  1  0  0  0  0
  1 33  1  0  0  0  0
  2  3  1  0  0  0  0
  2 34  1  0  0  0  0
  2 35  1  0  0  0  0
  3  4  1  0  0  0  0
  3 36  1  0  0  0  0
  4 17  2  0  0  0  0
  4  5  1  0  0  0  0
  5  6  1  0  0  0  0
  5 14  2  0  0  0  0
  6  7  1  0  0  0  0
  6 37  1  0  0  0  0
  6 38  1  0  0  0  0
  7 12  2  0  0  0  0
  7  8  1  0  0  0  0
  8  9  2  0  0  0  0
  8 39  1  0  0  0  0
  9 10  1  0  0  0  0
  9 40  1  0  0  0  0
 10 11  2  0  0  0  0
 10 13  1  0  0  0  0
 11 12  1  0  0  0  0
 11 41  1  0  0  0  0
 12 42  1  0  0  0  0
 14 15  1  0  0  0  0
 15 16  2  0  0  0  0
 15 18  1  0  0  0  0
 16 17  1  0  0  0  0
 16 43  1  0  0  0  0
 17 44  1  0  0  0  0
 18 19  2  0  0  0  0
 18 20  1  0  0  0  0
 20 45  1  0  0  0  0
 21 20  1  0  0  0  0
 21 22  1  0  0  0  0
 21 28  1  0  0  0  0
 21 46  1  1  0  0  0
 22 27  2  0  0  0  0
 22 23  1  0  0  0  0
 23 24  2  0  0  0  0
 23 47  1  0  0  0  0
 24 25  1  0  0  0  0
 24 48  1  0  0  0  0
 25 26  2  0  0  0  0
 25 49  1  0  0  0  0
 26 27  1  0  0  0  0
 26 50  1  0  0  0  0
 28 29  1  0  0  0  0
 28 30  1  0  0  0  0
 28 31  1  0  0  0  0
M  END
$$$$
CHEMBL1631297_5ZTY
 OpenBabel12022418123D

 52 54  0  0  0  0  0  0  0  0999 V2000
   -0.2450   -2.2035    0.6309 C   0  0  0  0  0  0  0  0  0  0  0  0
    0.9835   -1.5300    0.6258 C   0  0  0  0  0  0  0  0  0  0  0  0
    1.0937   -0.2841    0.0204 C   0  0  0  0  0  0  0  0  0  0  0  0
   -0.0166    0.3013   -0.5746 C   0  0  0  0  0  0  0  0  0  0  0  0
   -1.2605   -0.3493   -0.5489 C   0  0  0  0  0  0  0  0  0  0  0  0
   -1.3913   -1.6155    0.0689 C   0  0  0  0  0  0  0  0  0  0  0  0
   -2.6568   -2.2977    0.1353 N   0  0  0  0  0  0  0  0  0  0  0  0
   -3.1518   -3.2523    1.0368 C   0  0  0  0  0  0  0  0  0  0  0  0
   -4.4054   -3.6214    0.5602 C   0  0  0  0  0  0  0  0  0  0  0  0
   -4.5635   -2.9275   -0.6699 C   0  0  0  0  0  0  0  0  0  0  0  0
   -5.7238   -3.0324   -1.5778 C   0  0  0  0  0  0  0  0  0  0  0  0
   -6.6515   -3.8069   -1.3356 O   0  0  0  0  0  0  0  0  0  0  0  0
   -5.7052   -2.2307   -2.7017 N   0  0  0  0  0  0  0  0  0  0  0  0
   -6.7812   -2.2397   -3.7094 C   0  0  0  0  0  0  0  0  0  0  0  0
   -8.1241   -1.8051   -3.0904 C   0  0  0  0  0  0  0  0  0  0  0  0
   -6.4367   -1.2499   -4.8342 C   0  0  0  0  0  0  0  0  0  0  0  0
   -6.9291   -3.6384   -4.3402 C   0  0  0  0  0  0  0  0  0  0  0  0
   -3.5099   -2.1381   -0.9230 N   0  0  0  0  0  0  0  0  0  0  0  0
   -5.4593   -4.4895    1.1644 C   0  0  0  0  0  0  0  0  0  0  0  0
   -2.5721   -3.6922    2.2433 N   0  0  0  0  0  0  0  0  0  0  0  0
   -1.9780   -2.9216    3.2531 C   0  0  0  0  0  0  0  0  0  0  0  0
   -1.5932   -3.7573    4.2861 C   0  0  0  0  0  0  0  0  0  0  0  0
   -1.9770   -5.0587    3.9559 C   0  0  0  0  0  0  0  0  0  0  0  0
   -2.5450   -5.0223    2.6985 C   0  0  0  0  0  0  0  0  0  0  0  0
   -2.9999   -6.2290    1.9409 C   0  0  0  0  0  0  0  0  0  0  0  0
   -1.8509   -1.4362    3.2851 C   0  0  0  0  0  0  0  0  0  0  0  0
   -2.5706    0.5905   -1.1926 Cl  0  0  0  0  0  0  0  0  0  0  0  0
    2.6018    0.5422    0.0180 Cl  0  0  0  0  0  0  0  0  0  0  0  0
   -0.2683   -3.1911    1.0835 H   0  0  0  0  0  0  0  0  0  0  0  0
    1.8502   -1.9850    1.1017 H   0  0  0  0  0  0  0  0  0  0  0  0
    0.0774    1.2818   -1.0380 H   0  0  0  0  0  0  0  0  0  0  0  0
   -4.8968   -1.6246   -2.8003 H   0  0  0  0  0  0  0  0  0  0  0  0
   -8.0516   -0.8008   -2.6572 H   0  0  0  0  0  0  0  0  0  0  0  0
   -8.4551   -2.4776   -2.2926 H   0  0  0  0  0  0  0  0  0  0  0  0
   -8.9203   -1.7898   -3.8434 H   0  0  0  0  0  0  0  0  0  0  0  0
   -6.3402   -0.2287   -4.4506 H   0  0  0  0  0  0  0  0  0  0  0  0
   -7.2171   -1.2446   -5.6052 H   0  0  0  0  0  0  0  0  0  0  0  0
   -5.4906   -1.5134   -5.3190 H   0  0  0  0  0  0  0  0  0  0  0  0
   -7.2152   -4.3997   -3.6076 H   0  0  0  0  0  0  0  0  0  0  0  0
   -5.9863   -3.9646   -4.7942 H   0  0  0  0  0  0  0  0  0  0  0  0
   -7.6996   -3.6428   -5.1191 H   0  0  0  0  0  0  0  0  0  0  0  0
   -5.2403   -4.7756    2.1933 H   0  0  0  0  0  0  0  0  0  0  0  0
   -5.5866   -5.3977    0.5646 H   0  0  0  0  0  0  0  0  0  0  0  0
   -6.4176   -3.9611    1.1951 H   0  0  0  0  0  0  0  0  0  0  0  0
   -1.1162   -3.4409    5.2061 H   0  0  0  0  0  0  0  0  0  0  0  0
   -1.8430   -5.9491    4.5588 H   0  0  0  0  0  0  0  0  0  0  0  0
   -3.2149   -6.0389    0.8893 H   0  0  0  0  0  0  0  0  0  0  0  0
   -3.8923   -6.6530    2.4176 H   0  0  0  0  0  0  0  0  0  0  0  0
   -2.2245   -7.0019    1.9701 H   0  0  0  0  0  0  0  0  0  0  0  0
   -2.3683   -0.9261    2.4742 H   0  0  0  0  0  0  0  0  0  0  0  0
   -0.7910   -1.1564    3.2678 H   0  0  0  0  0  0  0  0  0  0  0  0
   -2.2685   -1.0496    4.2209 H   0  0  0  0  0  0  0  0  0  0  0  0
  1  6  2  0  0  0  0
  1  2  1  0  0  0  0
  1 29  1  0  0  0  0
  2  3  2  0  0  0  0
  2 30  1  0  0  0  0
  3  4  1  0  0  0  0
  3 28  1  0  0  0  0
  4  5  2  0  0  0  0
  4 31  1  0  0  0  0
  5  6  1  0  0  0  0
  5 27  1  0  0  0  0
  6  7  1  0  0  0  0
  7 18  1  0  0  0  0
  7  8  1  0  0  0  0
  8  9  2  0  0  0  0
  8 20  1  0  0  0  0
  9 10  1  0  0  0  0
  9 19  1  0  0  0  0
 10 11  1  0  0  0  0
 10 18  2  0  0  0  0
 11 12  2  0  0  0  0
 11 13  1  0  0  0  0
 13 14  1  0  0  0  0
 13 32  1  0  0  0  0
 14 15  1  0  0  0  0
 14 16  1  0  0  0  0
 14 17  1  0  0  0  0
 15 33  1  0  0  0  0
 15 34  1  0  0  0  0
 15 35  1  0  0  0  0
 16 36  1  0  0  0  0
 16 37  1  0  0  0  0
 16 38  1  0  0  0  0
 17 39  1  0  0  0  0
 17 40  1  0  0  0  0
 17 41  1  0  0  0  0
 19 42  1  0  0  0  0
 19 43  1  0  0  0  0
 19 44  1  0  0  0  0
 20 24  1  0  0  0  0
 20 21  1  0  0  0  0
 21 22  2  0  0  0  0
 21 26  1  0  0  0  0
 22 23  1  0  0  0  0
 22 45  1  0  0  0  0
 23 24  2  0  0  0  0
 23 46  1  0  0  0  0
 24 25  1  0  0  0  0
 25 47  1  0  0  0  0
 25 48  1  0  0  0  0
 25 49  1  0  0  0  0
 26 50  1  0  0  0  0
 26 51  1  0  0  0  0
 26 52  1  0  0  0  0
M  END
$$$$
CHEMBL524884_5ZTY
 OpenBabel12022418123D

 64 68  0  0  1  0  0  0  0  0999 V2000
    4.9809   -0.3763   -2.0581 C   0  0  0  0  0  0  0  0  0  0  0  0
    4.4501    0.3831   -0.8563 C   0  0  0  0  0  0  0  0  0  0  0  0
    4.9148   -0.2865    0.4300 C   0  0  0  0  0  0  0  0  0  0  0  0
    4.3970    0.4512    1.6584 C   0  0  0  0  0  0  0  0  0  0  0  0
    4.9338   -0.1661    2.9574 C   0  0  0  0  0  0  0  0  0  0  0  0
    6.4108   -0.1827    3.0189 N   0  0  0  0  0  0  0  0  0  0  0  0
    7.1422   -1.3634    2.8508 C   0  0  0  0  0  0  0  0  0  0  0  0
    8.4773   -1.4921    2.7236 C   0  0  0  0  0  0  0  0  0  0  0  0
    9.0996   -2.8401    2.4996 C   0  0  0  0  0  0  0  0  0  0  0  0
    8.3783   -3.8341    2.4606 O   0  0  0  0  0  0  0  0  0  0  0  0
   10.4836   -2.8964    2.3278 N   0  0  0  0  0  0  0  0  0  0  0  0
   11.2271   -4.1519    2.0609 C   0  0  1  0  0  0  0  0  0  0  0  0
   11.0143   -5.1565    3.2283 C   0  0  0  0  0  0  0  0  0  0  0  0
   11.6922   -6.5031    2.9386 C   0  0  2  0  0  0  0  0  0  0  0  0
   13.2041   -6.2734    2.8153 C   0  0  0  0  0  0  0  0  0  0  0  0
   13.4871   -5.3041    1.6556 C   0  0  1  0  0  0  0  0  0  0  0  0
   12.9516   -5.9343    0.3577 C   0  0  0  0  0  0  0  0  0  0  0  0
   11.4323   -6.1209    0.4603 C   0  0  1  0  0  0  0  0  0  0  0  0
   11.1218   -7.0703    1.6279 C   0  0  0  0  0  0  0  0  0  0  0  0
   10.7597   -4.7650    0.7159 C   0  0  0  0  0  0  0  0  0  0  0  0
   12.7729   -3.9474    1.9199 C   0  0  0  0  0  0  0  0  0  0  0  0
    9.2372   -0.2292    2.7828 C   0  0  0  0  0  0  0  0  0  0  0  0
   10.4747   -0.2334    2.6965 O   0  0  0  0  0  0  0  0  0  0  0  0
    8.5090    1.0446    2.9144 C   0  0  0  0  0  0  0  0  0  0  0  0
    9.2530    2.2348    2.8869 C   0  0  0  0  0  0  0  0  0  0  0  0
    8.6211    3.4780    2.9715 C   0  0  0  0  0  0  0  0  0  0  0  0
    9.4188    4.7553    2.9457 C   0  0  0  0  0  0  0  0  0  0  0  0
   10.7607    4.5565    2.8318 F   0  0  0  0  0  0  0  0  0  0  0  0
    9.0715    5.5671    1.9094 F   0  0  0  0  0  0  0  0  0  0  0  0
    9.2451    5.4938    4.0762 F   0  0  0  0  0  0  0  0  0  0  0  0
    7.2314    3.5027    3.0998 C   0  0  0  0  0  0  0  0  0  0  0  0
    6.4958    2.3107    3.1595 C   0  0  0  0  0  0  0  0  0  0  0  0
    7.1114    1.0516    3.0400 C   0  0  0  0  0  0  0  0  0  0  0  0
    4.6457    0.0956   -2.9850 H   0  0  0  0  0  0  0  0  0  0  0  0
    4.6259   -1.4117   -2.0473 H   0  0  0  0  0  0  0  0  0  0  0  0
    6.0762   -0.3914   -2.0560 H   0  0  0  0  0  0  0  0  0  0  0  0
    3.3559    0.4169   -0.8888 H   0  0  0  0  0  0  0  0  0  0  0  0
    4.8116    1.4183   -0.8914 H   0  0  0  0  0  0  0  0  0  0  0  0
    6.0104   -0.2968    0.4310 H   0  0  0  0  0  0  0  0  0  0  0  0
    4.5770   -1.3283    0.4640 H   0  0  0  0  0  0  0  0  0  0  0  0
    3.3012    0.4395    1.6762 H   0  0  0  0  0  0  0  0  0  0  0  0
    4.6728    1.5041    1.5615 H   0  0  0  0  0  0  0  0  0  0  0  0
    4.5428   -1.1934    3.0323 H   0  0  0  0  0  0  0  0  0  0  0  0
    4.5222    0.3561    3.8327 H   0  0  0  0  0  0  0  0  0  0  0  0
    6.5105   -2.2517    2.8027 H   0  0  0  0  0  0  0  0  0  0  0  0
   10.9902   -2.0091    2.3272 H   0  0  0  0  0  0  0  0  0  0  0  0
    9.9535   -5.3401    3.4103 H   0  0  0  0  0  0  0  0  0  0  0  0
   11.4160   -4.7346    4.1622 H   0  0  0  0  0  0  0  0  0  0  0  0
   11.4910   -7.2009    3.7589 H   0  0  0  0  0  0  0  0  0  0  0  0
   13.7170   -7.2299    2.6520 H   0  0  0  0  0  0  0  0  0  0  0  0
   13.5997   -5.8602    3.7514 H   0  0  0  0  0  0  0  0  0  0  0  0
   14.5693   -5.1537    1.5649 H   0  0  0  0  0  0  0  0  0  0  0  0
   13.4304   -6.9072    0.1825 H   0  0  0  0  0  0  0  0  0  0  0  0
   13.2005   -5.3011   -0.5018 H   0  0  0  0  0  0  0  0  0  0  0  0
   11.0463   -6.5436   -0.4745 H   0  0  0  0  0  0  0  0  0  0  0  0
   10.0363   -7.2031    1.7200 H   0  0  0  0  0  0  0  0  0  0  0  0
   11.5472   -8.0609    1.4285 H   0  0  0  0  0  0  0  0  0  0  0  0
   10.9957   -4.0715   -0.1008 H   0  0  0  0  0  0  0  0  0  0  0  0
    9.6770   -4.8989    0.7001 H   0  0  0  0  0  0  0  0  0  0  0  0
   13.1931   -3.4862    2.8273 H   0  0  0  0  0  0  0  0  0  0  0  0
   12.9973   -3.2585    1.0952 H   0  0  0  0  0  0  0  0  0  0  0  0
   10.3389    2.1858    2.7885 H   0  0  0  0  0  0  0  0  0  0  0  0
    6.7031    4.4558    3.1578 H   0  0  0  0  0  0  0  0  0  0  0  0
    5.4228    2.4120    3.2839 H   0  0  0  0  0  0  0  0  0  0  0  0
  1  2  1  0  0  0  0
  1 34  1  0  0  0  0
  1 35  1  0  0  0  0
  1 36  1  0  0  0  0
  2  3  1  0  0  0  0
  2 37  1  0  0  0  0
  2 38  1  0  0  0  0
  3  4  1  0  0  0  0
  3 39  1  0  0  0  0
  3 40  1  0  0  0  0
  4  5  1  0  0  0  0
  4 41  1  0  0  0  0
  4 42  1  0  0  0  0
  5  6  1  0  0  0  0
  5 43  1  0  0  0  0
  5 44  1  0  0  0  0
  6 33  1  0  0  0  0
  6  7  1  0  0  0  0
  7  8  2  0  0  0  0
  7 45  1  0  0  0  0
  8  9  1  0  0  0  0
  8 22  1  0  0  0  0
  9 10  2  0  0  0  0
  9 11  1  0  0  0  0
 11 46  1  0  0  0  0
 12 11  1  1  0  0  0
 12 20  1  0  0  0  0
 12 21  1  0  0  0  0
 12 13  1  0  0  0  0
 13 47  1  0  0  0  0
 13 48  1  0  0  0  0
 14 13  1  0  0  0  0
 14 15  1  0  0  0  0
 14 19  1  0  0  0  0
 14 49  1  1  0  0  0
 15 50  1  0  0  0  0
 15 51  1  0  0  0  0
 16 15  1  0  0  0  0
 16 17  1  0  0  0  0
 16 21  1  0  0  0  0
 16 52  1  6  0  0  0
 17 53  1  0  0  0  0
 17 54  1  0  0  0  0
 18 17  1  0  0  0  0
 18 19  1  0  0  0  0
 18 20  1  0  0  0  0
 18 55  1  6  0  0  0
 19 56  1  0  0  0  0
 19 57  1  0  0  0  0
 20 58  1  0  0  0  0
 20 59  1  0  0  0  0
 21 60  1  0  0  0  0
 21 61  1  0  0  0  0
 22 23  2  0  0  0  0
 22 24  1  0  0  0  0
 24 33  2  0  0  0  0
 24 25  1  0  0  0  0
 25 26  2  0  0  0  0
 25 62  1  0  0  0  0
 26 27  1  0  0  0  0
 26 31  1  0  0  0  0
 27 28  1  0  0  0  0
 27 29  1  0  0  0  0
 27 30  1  0  0  0  0
 31 32  2  0  0  0  0
 31 63  1  0  0  0  0
 32 33  1  0  0  0  0
 32 64  1  0  0  0  0
M  END
$$$$
CHEMBL2179754_5ZTY
 OpenBabel12022418123D

 61 64  0  0  0  0  0  0  0  0999 V2000
    2.8876   -0.8106   -1.0513 O   0  0  0  0  0  0  0  0  0  0  0  0
    2.3447   -0.6223    0.0361 C   0  0  0  0  0  0  0  0  0  0  0  0
    0.8362   -0.7137    0.2047 C   0  0  0  0  0  0  0  0  0  0  0  0
    0.1063    0.5834   -0.0385 C   0  0  0  0  0  0  0  0  0  0  0  0
   -0.7147    1.1375    0.9530 C   0  0  0  0  0  0  0  0  0  0  0  0
   -1.4319    2.3116    0.7091 C   0  0  0  0  0  0  0  0  0  0  0  0
   -1.3396    2.9413   -0.5296 C   0  0  0  0  0  0  0  0  0  0  0  0
   -0.5354    2.3968   -1.5268 C   0  0  0  0  0  0  0  0  0  0  0  0
    0.1825    1.2235   -1.2846 C   0  0  0  0  0  0  0  0  0  0  0  0
    3.0338   -0.3637    1.2006 N   0  0  0  0  0  0  0  0  0  0  0  0
    4.4707   -0.2453    1.2081 C   0  0  0  0  0  0  0  0  0  0  0  0
    4.9021    1.1852    0.9323 C   0  0  0  0  0  0  0  0  0  0  0  0
    5.1695    1.5752   -0.3834 C   0  0  0  0  0  0  0  0  0  0  0  0
    5.5796    2.8811   -0.6808 C   0  0  0  0  0  0  0  0  0  0  0  0
    5.7313    3.8666    0.3077 C   0  0  0  0  0  0  0  0  0  0  0  0
    5.4727    3.4559    1.6221 C   0  0  0  0  0  0  0  0  0  0  0  0
    5.0475    2.1523    1.9331 C   0  0  0  0  0  0  0  0  0  0  0  0
    6.1270    5.1490   -0.0230 N   0  0  0  0  0  0  0  0  0  0  0  0
    6.3515    6.2336    0.9299 C   0  0  0  0  0  0  0  0  0  0  0  0
    5.6875    7.4352    0.2682 C   0  0  0  0  0  0  0  0  0  0  0  0
    5.9493    7.2014   -1.2083 C   0  0  0  0  0  0  0  0  0  0  0  0
    5.8307    5.6860   -1.3575 C   0  0  0  0  0  0  0  0  0  0  0  0
    4.9522   -0.7266    2.4781 N   0  0  0  0  0  0  0  0  0  0  0  0
    6.2243   -1.2468    2.5932 C   0  0  0  0  0  0  0  0  0  0  0  0
    6.9845   -1.4071    1.6435 O   0  0  0  0  0  0  0  0  0  0  0  0
    6.6097   -1.6409    4.0094 C   0  0  0  0  0  0  0  0  0  0  0  0
    7.2528   -0.5236    4.7935 C   0  0  0  0  0  0  0  0  0  0  0  0
    8.4327    0.0803    4.3355 C   0  0  0  0  0  0  0  0  0  0  0  0
    9.0424    1.0972    5.0721 C   0  0  0  0  0  0  0  0  0  0  0  0
    8.4841    1.5173    6.2771 C   0  0  0  0  0  0  0  0  0  0  0  0
    7.3196    0.9157    6.7500 C   0  0  0  0  0  0  0  0  0  0  0  0
    6.7080   -0.1022    6.0148 C   0  0  0  0  0  0  0  0  0  0  0  0
    0.6181   -1.0957    1.2099 H   0  0  0  0  0  0  0  0  0  0  0  0
    0.4597   -1.4749   -0.4883 H   0  0  0  0  0  0  0  0  0  0  0  0
   -0.8165    0.6531    1.9220 H   0  0  0  0  0  0  0  0  0  0  0  0
   -2.0705    2.7296    1.4833 H   0  0  0  0  0  0  0  0  0  0  0  0
   -1.9029    3.8529   -0.7208 H   0  0  0  0  0  0  0  0  0  0  0  0
   -0.4688    2.8804   -2.4983 H   0  0  0  0  0  0  0  0  0  0  0  0
    0.7978    0.8058   -2.0805 H   0  0  0  0  0  0  0  0  0  0  0  0
    2.5266    0.0350    1.9740 H   0  0  0  0  0  0  0  0  0  0  0  0
    4.8831   -0.8971    0.4271 H   0  0  0  0  0  0  0  0  0  0  0  0
    5.0714    0.8581   -1.1978 H   0  0  0  0  0  0  0  0  0  0  0  0
    5.7993    3.1058   -1.7210 H   0  0  0  0  0  0  0  0  0  0  0  0
    5.5819    4.1434    2.4539 H   0  0  0  0  0  0  0  0  0  0  0  0
    4.8563    1.9139    2.9751 H   0  0  0  0  0  0  0  0  0  0  0  0
    7.4309    6.3996    1.0318 H   0  0  0  0  0  0  0  0  0  0  0  0
    5.9326    6.0854    1.9257 H   0  0  0  0  0  0  0  0  0  0  0  0
    6.0899    8.3872    0.6248 H   0  0  0  0  0  0  0  0  0  0  0  0
    4.6087    7.4197    0.4664 H   0  0  0  0  0  0  0  0  0  0  0  0
    6.9583    7.5315   -1.4719 H   0  0  0  0  0  0  0  0  0  0  0  0
    5.2377    7.7324   -1.8484 H   0  0  0  0  0  0  0  0  0  0  0  0
    4.8132    5.4266   -1.6680 H   0  0  0  0  0  0  0  0  0  0  0  0
    6.5420    5.3186   -2.1074 H   0  0  0  0  0  0  0  0  0  0  0  0
    4.5048   -0.3838    3.3114 H   0  0  0  0  0  0  0  0  0  0  0  0
    7.3001   -2.4914    3.9546 H   0  0  0  0  0  0  0  0  0  0  0  0
    5.7155   -2.0115    4.5255 H   0  0  0  0  0  0  0  0  0  0  0  0
    8.8886   -0.2401    3.3990 H   0  0  0  0  0  0  0  0  0  0  0  0
    9.9558    1.5582    4.7043 H   0  0  0  0  0  0  0  0  0  0  0  0
    8.9615    2.3080    6.8500 H   0  0  0  0  0  0  0  0  0  0  0  0
    6.8926    1.2353    7.6972 H   0  0  0  0  0  0  0  0  0  0  0  0
    5.8105   -0.5698    6.4126 H   0  0  0  0  0  0  0  0  0  0  0  0
  1  2  2  0  0  0  0
  2  3  1  0  0  0  0
  2 10  1  0  0  0  0
  3  4  1  0  0  0  0
  3 33  1  0  0  0  0
  3 34  1  0  0  0  0
  4  9  2  0  0  0  0
  4  5  1  0  0  0  0
  5  6  2  0  0  0  0
  5 35  1  0  0  0  0
  6  7  1  0  0  0  0
  6 36  1  0  0  0  0
  7  8  2  0  0  0  0
  7 37  1  0  0  0  0
  8  9  1  0  0  0  0
  8 38  1  0  0  0  0
  9 39  1  0  0  0  0
 10 11  1  0  0  0  0
 10 40  1  0  0  0  0
 11 12  1  0  0  0  0
 11 23  1  0  0  0  0
 11 41  1  0  0  0  0
 12 17  2  0  0  0  0
 12 13  1  0  0  0  0
 13 14  2  0  0  0  0
 13 42  1  0  0  0  0
 14 15  1  0  0  0  0
 14 43  1  0  0  0  0
 15 16  2  0  0  0  0
 15 18  1  0  0  0  0
 16 17  1  0  0  0  0
 16 44  1  0  0  0  0
 17 45  1  0  0  0  0
 18 22  1  0  0  0  0
 18 19  1  0  0  0  0
 19 20  1  0  0  0  0
 19 46  1  0  0  0  0
 19 47  1  0  0  0  0
 20 21  1  0  0  0  0
 20 48  1  0  0  0  0
 20 49  1  0  0  0  0
 21 22  1  0  0  0  0
 21 50  1  0  0  0  0
 21 51  1  0  0  0  0
 22 52  1  0  0  0  0
 22 53  1  0  0  0  0
 23 24  1  0  0  0  0
 23 54  1  0  0  0  0
 24 25  2  0  0  0  0
 24 26  1  0  0  0  0
 26 27  1  0  0  0  0
 26 55  1  0  0  0  0
 26 56  1  0  0  0  0
 27 32  2  0  0  0  0
 27 28  1  0  0  0  0
 28 29  2  0  0  0  0
 28 57  1  0  0  0  0
 29 30  1  0  0  0  0
 29 58  1  0  0  0  0
 30 31  2  0  0  0  0
 30 59  1  0  0  0  0
 31 32  1  0  0  0  0
 31 60  1  0  0  0  0
 32 61  1  0  0  0  0
M  END
$$$$
CHEMBL3949331_6KPF
 OpenBabel12022418123D

 56 59  0  0  1  0  0  0  0  0999 V2000
   -1.4136   -1.0547   -1.4768 C   0  0  0  0  0  0  0  0  0  0  0  0
   -0.3687   -0.3129   -0.7495 C   0  0  0  0  0  0  0  0  0  0  0  0
    0.6050    0.4287   -1.2218 N   0  0  0  0  0  0  0  0  0  0  0  0
    1.2769    0.8054   -0.0767 C   0  0  0  0  0  0  0  0  0  0  0  0
    2.5661    1.6296   -0.1194 C   0  0  2  0  0  0  0  0  0  0  0  0
    3.2775    1.3724   -1.4681 C   0  0  0  0  0  0  0  0  0  0  0  0
    3.5166    1.2763    1.0672 C   0  0  0  0  0  0  0  0  0  0  0  0
    3.9633   -0.1683    1.1420 C   0  0  0  0  0  0  0  0  0  0  0  0
    5.3506   -0.5940    0.7292 C   0  0  0  0  0  0  0  0  0  0  0  0
    4.9872   -0.5435    2.1852 C   0  0  0  0  0  0  0  0  0  0  0  0
    2.1651    3.0600   -0.0389 N   0  0  0  0  0  0  0  0  0  0  0  0
    3.0379    4.1268   -0.1476 C   0  0  0  0  0  0  0  0  0  0  0  0
    4.2501    4.0188   -0.2513 O   0  0  0  0  0  0  0  0  0  0  0  0
    2.3983    5.4842   -0.1573 C   0  0  0  0  0  0  0  0  0  0  0  0
    3.1780    6.6066   -0.4079 C   0  0  0  0  0  0  0  0  0  0  0  0
    2.5582    7.8563   -0.4769 C   0  0  0  0  0  0  0  0  0  0  0  0
    1.1842    7.9737   -0.1868 C   0  0  0  0  0  0  0  0  0  0  0  0
    0.5113    6.7645    0.0484 C   0  0  0  0  0  0  0  0  0  0  0  0
    1.0617    5.5277    0.0499 N   0  0  0  0  0  0  0  0  0  0  0  0
    0.4227    9.2746   -0.0330 C   0  0  0  0  0  0  0  0  0  0  0  0
    0.4390   10.4030   -1.0301 C   0  0  0  0  0  0  0  0  0  0  0  0
   -0.7673    9.5211   -0.9404 C   0  0  0  0  0  0  0  0  0  0  0  0
    3.2303    9.0121   -0.8061 O   0  0  0  0  0  0  0  0  0  0  0  0
    4.4042    8.9057   -1.6401 C   0  0  1  0  0  0  0  0  0  0  0  0
    4.0748    8.3465   -3.0283 C   0  0  0  0  0  0  0  0  0  0  0  0
    4.9937   10.3096   -1.8046 C   0  0  0  0  0  0  0  0  0  0  0  0
    6.1086   10.2522   -2.5836 F   0  0  0  0  0  0  0  0  0  0  0  0
    0.7016    0.3745    1.0597 N   0  0  0  0  0  0  0  0  0  0  0  0
   -0.3751   -0.3937    0.6111 O   0  0  0  0  0  0  0  0  0  0  0  0
   -2.0097   -1.6769   -0.8028 H   0  0  0  0  0  0  0  0  0  0  0  0
   -0.9608   -1.7078   -2.2296 H   0  0  0  0  0  0  0  0  0  0  0  0
   -2.0859   -0.3592   -1.9876 H   0  0  0  0  0  0  0  0  0  0  0  0
    4.2204    1.9204   -1.5504 H   0  0  0  0  0  0  0  0  0  0  0  0
    2.6505    1.6896   -2.3109 H   0  0  0  0  0  0  0  0  0  0  0  0
    3.5002    0.3096   -1.6087 H   0  0  0  0  0  0  0  0  0  0  0  0
    3.0170    1.5210    2.0151 H   0  0  0  0  0  0  0  0  0  0  0  0
    4.4081    1.9152    1.0358 H   0  0  0  0  0  0  0  0  0  0  0  0
    3.1538   -0.8761    1.0023 H   0  0  0  0  0  0  0  0  0  0  0  0
    6.0432    0.1521    0.3567 H   0  0  0  0  0  0  0  0  0  0  0  0
    5.4717   -1.5728    0.2775 H   0  0  0  0  0  0  0  0  0  0  0  0
    4.8463   -1.4791    2.7148 H   0  0  0  0  0  0  0  0  0  0  0  0
    5.4297    0.2418    2.7888 H   0  0  0  0  0  0  0  0  0  0  0  0
    1.1777    3.2940    0.0321 H   0  0  0  0  0  0  0  0  0  0  0  0
    4.2434    6.4780   -0.5553 H   0  0  0  0  0  0  0  0  0  0  0  0
   -0.5561    6.7773    0.2631 H   0  0  0  0  0  0  0  0  0  0  0  0
    0.2981    9.5862    1.0044 H   0  0  0  0  0  0  0  0  0  0  0  0
    1.0619   10.3267   -1.9116 H   0  0  0  0  0  0  0  0  0  0  0  0
    0.3437   11.4137   -0.6447 H   0  0  0  0  0  0  0  0  0  0  0  0
   -1.6698    9.9149   -0.4854 H   0  0  0  0  0  0  0  0  0  0  0  0
   -0.9503    8.8541   -1.7759 H   0  0  0  0  0  0  0  0  0  0  0  0
    5.1710    8.2921   -1.1534 H   0  0  0  0  0  0  0  0  0  0  0  0
    3.3145    8.9592   -3.5239 H   0  0  0  0  0  0  0  0  0  0  0  0
    3.6742    7.3303   -2.9762 H   0  0  0  0  0  0  0  0  0  0  0  0
    4.9671    8.3133   -3.6617 H   0  0  0  0  0  0  0  0  0  0  0  0
    5.2791   10.7366   -0.8386 H   0  0  0  0  0  0  0  0  0  0  0  0
    4.2811   10.9958   -2.2745 H   0  0  0  0  0  0  0  0  0  0  0  0
  1  2  1  0  0  0  0
  1 30  1  0  0  0  0
  1 31  1  0  0  0  0
  1 32  1  0  0  0  0
  2 29  1  0  0  0  0
  2  3  2  0  0  0  0
  3  4  1  0  0  0  0
  4 28  2  0  0  0  0
  5  7  1  1  0  0  0
  5 11  1  0  0  0  0
  5  6  1  0  0  0  0
  5  4  1  0  0  0  0
  6 33  1  0  0  0  0
  6 34  1  0  0  0  0
  6 35  1  0  0  0  0
  7  8  1  0  0  0  0
  7 36  1  0  0  0  0
  7 37  1  0  0  0  0
  8 10  1  0  0  0  0
  8  9  1  0  0  0  0
  8 38  1  0  0  0  0
  9 10  1  0  0  0  0
  9 39  1  0  0  0  0
  9 40  1  0  0  0  0
 10 41  1  0  0  0  0
 10 42  1  0  0  0  0
 11 12  1  0  0  0  0
 11 43  1  0  0  0  0
 12 13  2  0  0  0  0
 12 14  1  0  0  0  0
 14 19  2  0  0  0  0
 14 15  1  0  0  0  0
 15 16  2  0  0  0  0
 15 44  1  0  0  0  0
 16 17  1  0  0  0  0
 16 23  1  0  0  0  0
 17 18  2  0  0  0  0
 17 20  1  0  0  0  0
 18 19  1  0  0  0  0
 18 45  1  0  0  0  0
 20 22  1  0  0  0  0
 20 21  1  0  0  0  0
 20 46  1  0  0  0  0
 21 22  1  0  0  0  0
 21 47  1  0  0  0  0
 21 48  1  0  0  0  0
 22 49  1  0  0  0  0
 22 50  1  0  0  0  0
 23 24  1  0  0  0  0
 24 25  1  0  0  0  0
 24 26  1  0  0  0  0
 24 51  1  1  0  0  0
 25 52  1  0  0  0  0
 25 53  1  0  0  0  0
 25 54  1  0  0  0  0
 26 27  1  0  0  0  0
 26 55  1  0  0  0  0
 26 56  1  0  0  0  0
 28 29  1  0  0  0  0
M  END
$$$$
CHEMBL3354954_8GUQ
 OpenBabel12022418123D

 45 49  0  0  1  0  0  0  0  0999 V2000
    0.5235    1.5180   -0.5635 C   0  0  0  0  0  0  0  0  0  0  0  0
   -0.3586    1.9029   -1.7970 C   0  0  0  0  0  0  0  0  0  0  0  0
    0.4502    0.8992   -2.6348 C   0  0  0  0  0  0  0  0  0  0  0  0
    1.5862    1.0403   -1.6023 C   0  0  0  0  0  0  0  0  0  0  0  0
   -0.0739    0.4206    0.3290 C   0  0  0  0  0  0  0  0  0  0  0  0
    0.9501   -0.1866    1.1176 O   0  0  0  0  0  0  0  0  0  0  0  0
    0.9557    2.7009    0.2447 N   0  0  0  0  0  0  0  0  0  0  0  0
    0.0336    3.5874    0.7737 C   0  0  0  0  0  0  0  0  0  0  0  0
   -1.1761    3.4568    0.5775 O   0  0  0  0  0  0  0  0  0  0  0  0
    0.5581    4.7143    1.5696 C   0  0  0  0  0  0  0  0  0  0  0  0
   -0.2431    5.7619    2.0585 C   0  0  0  0  0  0  0  0  0  0  0  0
    0.6053    6.6151    2.6844 C   0  0  0  0  0  0  0  0  0  0  0  0
   -0.0549    7.9401    2.9788 C   0  0  1  0  0  0  0  0  0  0  0  0
   -1.4646    7.7500    2.3735 C   0  0  1  0  0  0  0  0  0  0  0  0
   -1.6180    6.2946    1.8850 C   0  0  0  0  0  0  0  0  0  0  0  0
   -1.2938    8.0460    3.8281 C   0  0  0  0  0  0  0  0  0  0  0  0
    1.8654    6.1161    2.6042 N   0  0  0  0  0  0  0  0  0  0  0  0
    3.0186    6.7459    3.1278 C   0  0  0  0  0  0  0  0  0  0  0  0
    4.2476    6.6512    2.4686 C   0  0  0  0  0  0  0  0  0  0  0  0
    5.3200    7.4337    2.9146 C   0  0  0  0  0  0  0  0  0  0  0  0
    5.1729    8.2597    4.0306 C   0  0  0  0  0  0  0  0  0  0  0  0
    3.9796    8.3107    4.7287 C   0  0  0  0  0  0  0  0  0  0  0  0
    2.9087    7.5529    4.2727 C   0  0  0  0  0  0  0  0  0  0  0  0
    1.7852    7.5907    4.9971 F   0  0  0  0  0  0  0  0  0  0  0  0
    6.2005    9.0183    4.4340 F   0  0  0  0  0  0  0  0  0  0  0  0
    1.8742    4.9523    1.8523 N   0  0  0  0  0  0  0  0  0  0  0  0
   -0.2390    2.9377   -2.1398 H   0  0  0  0  0  0  0  0  0  0  0  0
   -1.4284    1.6856   -1.7167 H   0  0  0  0  0  0  0  0  0  0  0  0
    0.6900    1.2187   -3.6522 H   0  0  0  0  0  0  0  0  0  0  0  0
    0.0046   -0.1014   -2.6769 H   0  0  0  0  0  0  0  0  0  0  0  0
    2.1124    0.1072   -1.3807 H   0  0  0  0  0  0  0  0  0  0  0  0
    2.3283    1.7984   -1.8779 H   0  0  0  0  0  0  0  0  0  0  0  0
   -0.5641   -0.3657   -0.2569 H   0  0  0  0  0  0  0  0  0  0  0  0
   -0.8265    0.8260    1.0123 H   0  0  0  0  0  0  0  0  0  0  0  0
    1.3706   -0.8681    0.5656 H   0  0  0  0  0  0  0  0  0  0  0  0
    1.9194    2.8422    0.5296 H   0  0  0  0  0  0  0  0  0  0  0  0
    0.5328    8.8435    2.8956 H   0  0  0  0  0  0  0  0  0  0  0  0
   -1.8354    8.5003    1.6920 H   0  0  0  0  0  0  0  0  0  0  0  0
   -2.3448    5.7546    2.4988 H   0  0  0  0  0  0  0  0  0  0  0  0
   -1.9246    6.2781    0.8356 H   0  0  0  0  0  0  0  0  0  0  0  0
   -1.5617    9.0372    4.1797 H   0  0  0  0  0  0  0  0  0  0  0  0
   -1.4732    7.2676    4.5604 H   0  0  0  0  0  0  0  0  0  0  0  0
    4.3602    6.0374    1.5758 H   0  0  0  0  0  0  0  0  0  0  0  0
    6.2682    7.4284    2.3858 H   0  0  0  0  0  0  0  0  0  0  0  0
    3.8742    8.9346    5.6094 H   0  0  0  0  0  0  0  0  0  0  0  0
  1  4  1  0  0  0  0
  1  2  1  0  0  0  0
  1  5  1  0  0  0  0
  1  7  1  0  0  0  0
  2  3  1  0  0  0  0
  2 27  1  0  0  0  0
  2 28  1  0  0  0  0
  3  4  1  0  0  0  0
  3 29  1  0  0  0  0
  3 30  1  0  0  0  0
  4 31  1  0  0  0  0
  4 32  1  0  0  0  0
  5  6  1  0  0  0  0
  5 33  1  0  0  0  0
  5 34  1  0  0  0  0
  6 35  1  0  0  0  0
  7  8  1  0  0  0  0
  7 36  1  0  0  0  0
  8  9  2  0  0  0  0
  8 10  1  0  0  0  0
 10 26  2  0  0  0  0
 10 11  1  0  0  0  0
 11 15  1  0  0  0  0
 11 12  2  0  0  0  0
 12 13  1  0  0  0  0
 12 17  1  0  0  0  0
 13 14  1  0  0  0  0
 13 16  1  0  0  0  0
 13 37  1  6  0  0  0
 14 15  1  0  0  0  0
 14 16  1  0  0  0  0
 14 38  1  6  0  0  0
 15 39  1  0  0  0  0
 15 40  1  0  0  0  0
 16 41  1  0  0  0  0
 16 42  1  0  0  0  0
 17 18  1  0  0  0  0
 17 26  1  0  0  0  0
 18 23  2  0  0  0  0
 18 19  1  0  0  0  0
 19 20  2  0  0  0  0
 19 43  1  0  0  0  0
 20 21  1  0  0  0  0
 20 44  1  0  0  0  0
 21 22  2  0  0  0  0
 21 25  1  0  0  0  0
 22 23  1  0  0  0  0
 22 45  1  0  0  0  0
 23 24  1  0  0  0  0
M  END
$$$$
CHEMBL3354953_8GUQ
 OpenBabel12022418123D

 42 46  0  0  1  0  0  0  0  0999 V2000
    4.0993    1.3507   -0.9056 C   0  0  0  0  0  0  0  0  0  0  0  0
    2.7087    1.6915   -0.4305 C   0  0  0  0  0  0  0  0  0  0  0  0
    3.2838    2.3275   -1.6877 C   0  0  0  0  0  0  0  0  0  0  0  0
    2.5780    2.5843    0.8057 C   0  0  0  0  0  0  0  0  0  0  0  0
    3.1385    1.9383    1.9312 O   0  0  0  0  0  0  0  0  0  0  0  0
    1.6760    0.7068   -0.5936 N   0  0  0  0  0  0  0  0  0  0  0  0
    1.3090   -0.2621    0.3241 C   0  0  0  0  0  0  0  0  0  0  0  0
    1.8344   -0.4330    1.4212 O   0  0  0  0  0  0  0  0  0  0  0  0
    0.1747   -1.0579   -0.1663 C   0  0  0  0  0  0  0  0  0  0  0  0
   -0.5959   -2.1330    0.3524 C   0  0  0  0  0  0  0  0  0  0  0  0
   -1.2724   -2.6160   -0.7636 C   0  0  0  0  0  0  0  0  0  0  0  0
   -1.8818   -3.9610   -0.4095 C   0  0  1  0  0  0  0  0  0  0  0  0
   -1.9187   -3.9960    1.1267 C   0  0  1  0  0  0  0  0  0  0  0  0
   -1.0467   -2.7962    1.6017 C   0  0  0  0  0  0  0  0  0  0  0  0
   -3.1834   -4.1563    0.2344 C   0  0  0  0  0  0  0  0  0  0  0  0
   -1.6156   -1.3418   -1.2132 N   0  0  0  0  0  0  0  0  0  0  0  0
   -2.7912   -0.5625   -0.9784 C   0  0  0  0  0  0  0  0  0  0  0  0
   -3.7692   -0.9660   -0.0590 C   0  0  0  0  0  0  0  0  0  0  0  0
   -4.9657   -0.2667    0.0960 C   0  0  0  0  0  0  0  0  0  0  0  0
   -5.1354    0.9177   -0.5958 C   0  0  0  0  0  0  0  0  0  0  0  0
   -4.1063    1.4322   -1.3679 C   0  0  0  0  0  0  0  0  0  0  0  0
   -2.9315    0.6995   -1.5466 C   0  0  0  0  0  0  0  0  0  0  0  0
   -1.9394    1.2768   -2.2441 F   0  0  0  0  0  0  0  0  0  0  0  0
   -6.2891    1.5834   -0.4824 F   0  0  0  0  0  0  0  0  0  0  0  0
   -0.4106   -0.7077   -1.3529 N   0  0  0  0  0  0  0  0  0  0  0  0
    4.2915    0.3772   -1.3405 H   0  0  0  0  0  0  0  0  0  0  0  0
    4.9472    1.7328   -0.3328 H   0  0  0  0  0  0  0  0  0  0  0  0
    2.9301    2.0081   -2.6629 H   0  0  0  0  0  0  0  0  0  0  0  0
    3.5922    3.3692   -1.6651 H   0  0  0  0  0  0  0  0  0  0  0  0
    3.1114    3.5293    0.6577 H   0  0  0  0  0  0  0  0  0  0  0  0
    1.5273    2.8179    0.9942 H   0  0  0  0  0  0  0  0  0  0  0  0
    2.8124    1.0144    1.9111 H   0  0  0  0  0  0  0  0  0  0  0  0
    1.0948    0.7286   -1.4331 H   0  0  0  0  0  0  0  0  0  0  0  0
   -1.3745   -4.8160   -0.8528 H   0  0  0  0  0  0  0  0  0  0  0  0
   -1.6834   -4.8882    1.6924 H   0  0  0  0  0  0  0  0  0  0  0  0
   -0.2211   -3.1339    2.2302 H   0  0  0  0  0  0  0  0  0  0  0  0
   -1.6758   -2.1015    2.1729 H   0  0  0  0  0  0  0  0  0  0  0  0
   -3.9460   -3.4554   -0.0544 H   0  0  0  0  0  0  0  0  0  0  0  0
   -3.6169   -5.1548    0.1613 H   0  0  0  0  0  0  0  0  0  0  0  0
   -3.5983   -1.7730    0.6357 H   0  0  0  0  0  0  0  0  0  0  0  0
   -5.7386   -0.6291    0.7667 H   0  0  0  0  0  0  0  0  0  0  0  0
   -4.2178    2.4024   -1.8329 H   0  0  0  0  0  0  0  0  0  0  0  0
  1  3  1  0  0  0  0
  1  2  1  0  0  0  0
  1 26  1  0  0  0  0
  1 27  1  0  0  0  0
  2  3  1  0  0  0  0
  2  4  1  0  0  0  0
  2  6  1  0  0  0  0
  3 28  1  0  0  0  0
  3 29  1  0  0  0  0
  4  5  1  0  0  0  0
  4 30  1  0  0  0  0
  4 31  1  0  0  0  0
  5 32  1  0  0  0  0
  6  7  1  0  0  0  0
  6 33  1  0  0  0  0
  7  8  2  0  0  0  0
  7  9  1  0  0  0  0
  9 25  2  0  0  0  0
  9 10  1  0  0  0  0
 10 14  1  0  0  0  0
 10 11  2  0  0  0  0
 11 12  1  0  0  0  0
 11 16  1  0  0  0  0
 12 13  1  0  0  0  0
 12 15  1  0  0  0  0
 12 34  1  6  0  0  0
 13 14  1  0  0  0  0
 13 15  1  0  0  0  0
 13 35  1  1  0  0  0
 14 36  1  0  0  0  0
 14 37  1  0  0  0  0
 15 38  1  0  0  0  0
 15 39  1  0  0  0  0
 16 17  1  0  0  0  0
 16 25  1  0  0  0  0
 17 22  2  0  0  0  0
 17 18  1  0  0  0  0
 18 19  2  0  0  0  0
 18 40  1  0  0  0  0
 19 20  1  0  0  0  0
 19 41  1  0  0  0  0
 20 21  2  0  0  0  0
 20 24  1  0  0  0  0
 21 22  1  0  0  0  0
 21 42  1  0  0  0  0
 22 23  1  0  0  0  0
M  END
$$$$
CHEMBL3889602_5ZTY
 OpenBabel12022418123D

 67 73  0  0  1  0  0  0  0  0999 V2000
   -0.6989    2.5917    0.0865 C   0  0  0  0  0  0  0  0  0  0  0  0
    0.5542    2.0092    0.7730 C   0  0  0  0  0  0  0  0  0  0  0  0
    1.2312    0.7578    0.2479 C   0  0  0  0  0  0  0  0  0  0  0  0
    0.5453   -0.4412   -0.0582 C   0  0  0  0  0  0  0  0  0  0  0  0
   -0.9290   -0.5177    0.0262 C   0  0  0  0  0  0  0  0  0  0  0  0
   -1.8199    0.4428   -0.4262 C   0  0  0  0  0  0  0  0  0  0  0  0
   -1.3796    1.7472   -0.9867 C   0  0  0  0  0  0  0  0  0  0  0  0
   -3.1247   -0.0934   -0.2258 C   0  0  0  0  0  0  0  0  0  0  0  0
   -4.4453    0.5312   -0.5337 C   0  0  0  0  0  0  0  0  0  0  0  0
   -4.5600    1.6482   -1.0271 O   0  0  0  0  0  0  0  0  0  0  0  0
   -5.5304   -0.2583   -0.2055 N   0  0  0  0  0  0  0  0  0  0  0  0
   -6.9319    0.1333   -0.3532 C   0  0  0  0  0  0  0  0  0  0  0  0
   -7.8697   -1.0653   -0.6709 C   0  0  2  0  0  0  0  0  0  0  0  0
   -9.3630   -0.6372   -0.8058 C   0  0  0  0  0  0  0  0  0  0  0  0
  -10.2569   -1.8608   -1.1335 C   0  0  2  0  0  0  0  0  0  0  0  0
  -10.1342   -2.9113   -0.0175 C   0  0  0  0  0  0  0  0  0  0  0  0
   -8.6692   -3.3459    0.1278 C   0  0  2  0  0  0  0  0  0  0  0  0
   -7.8086   -2.1201    0.4649 C   0  0  0  0  0  0  0  0  0  0  0  0
   -8.1732   -3.9524   -1.1952 C   0  0  0  0  0  0  0  0  0  0  0  0
   -8.3247   -2.9331   -2.3356 C   0  0  1  0  0  0  0  0  0  0  0  0
   -9.7951   -2.5024   -2.4521 C   0  0  0  0  0  0  0  0  0  0  0  0
   -7.4586   -1.7046   -2.0218 C   0  0  0  0  0  0  0  0  0  0  0  0
   -3.0438   -1.3239    0.3199 N   0  0  0  0  0  0  0  0  0  0  0  0
   -1.7131   -1.5685    0.4990 N   0  0  0  0  0  0  0  0  0  0  0  0
   -1.2786   -2.7391    1.1823 C   0  0  0  0  0  0  0  0  0  0  0  0
   -1.8341   -4.0039    0.9319 C   0  0  0  0  0  0  0  0  0  0  0  0
   -1.2826   -5.1370    1.5462 C   0  0  0  0  0  0  0  0  0  0  0  0
   -0.1966   -5.0150    2.4108 C   0  0  0  0  0  0  0  0  0  0  0  0
    0.3410   -3.7643    2.6909 C   0  0  0  0  0  0  0  0  0  0  0  0
   -0.2036   -2.6295    2.0909 C   0  0  0  0  0  0  0  0  0  0  0  0
    0.4991   -6.4188    3.1209 Cl  0  0  0  0  0  0  0  0  0  0  0  0
   -3.0858   -4.3031   -0.2254 Cl  0  0  0  0  0  0  0  0  0  0  0  0
    1.2872   -1.5581   -0.4918 C   0  0  0  0  0  0  0  0  0  0  0  0
    2.6838   -1.5326   -0.5371 C   0  0  0  0  0  0  0  0  0  0  0  0
    3.3580   -0.3698   -0.1942 C   0  0  0  0  0  0  0  0  0  0  0  0
    2.6445    0.7655    0.1852 C   0  0  0  0  0  0  0  0  0  0  0  0
    5.0775   -0.3325   -0.2290 Cl  0  0  0  0  0  0  0  0  0  0  0  0
   -1.4292    2.8242    0.8744 H   0  0  0  0  0  0  0  0  0  0  0  0
   -0.4342    3.5601   -0.3566 H   0  0  0  0  0  0  0  0  0  0  0  0
    0.3258    1.8254    1.8317 H   0  0  0  0  0  0  0  0  0  0  0  0
    1.2929    2.8233    0.7882 H   0  0  0  0  0  0  0  0  0  0  0  0
   -0.6843    1.5775   -1.8195 H   0  0  0  0  0  0  0  0  0  0  0  0
   -2.2192    2.3058   -1.4095 H   0  0  0  0  0  0  0  0  0  0  0  0
   -5.2814   -1.1018    0.3023 H   0  0  0  0  0  0  0  0  0  0  0  0
   -7.0078    0.8964   -1.1383 H   0  0  0  0  0  0  0  0  0  0  0  0
   -7.2305    0.6106    0.5888 H   0  0  0  0  0  0  0  0  0  0  0  0
   -9.4773    0.1155   -1.5966 H   0  0  0  0  0  0  0  0  0  0  0  0
   -9.7139   -0.1720    0.1245 H   0  0  0  0  0  0  0  0  0  0  0  0
  -11.3033   -1.5471   -1.2255 H   0  0  0  0  0  0  0  0  0  0  0  0
  -10.7585   -3.7842   -0.2500 H   0  0  0  0  0  0  0  0  0  0  0  0
  -10.5047   -2.5011    0.9293 H   0  0  0  0  0  0  0  0  0  0  0  0
   -8.5817   -4.0868    0.9301 H   0  0  0  0  0  0  0  0  0  0  0  0
   -8.1565   -1.6728    1.4059 H   0  0  0  0  0  0  0  0  0  0  0  0
   -6.7817   -2.4565    0.6385 H   0  0  0  0  0  0  0  0  0  0  0  0
   -8.7394   -4.8619   -1.4267 H   0  0  0  0  0  0  0  0  0  0  0  0
   -7.1205   -4.2474   -1.0980 H   0  0  0  0  0  0  0  0  0  0  0  0
   -7.9967   -3.3815   -3.2799 H   0  0  0  0  0  0  0  0  0  0  0  0
   -9.9195   -1.7934   -3.2792 H   0  0  0  0  0  0  0  0  0  0  0  0
  -10.4199   -3.3742   -2.6860 H   0  0  0  0  0  0  0  0  0  0  0  0
   -6.4041   -2.0022   -2.0044 H   0  0  0  0  0  0  0  0  0  0  0  0
   -7.5641   -0.9670   -2.8294 H   0  0  0  0  0  0  0  0  0  0  0  0
   -1.6826   -6.1247    1.3271 H   0  0  0  0  0  0  0  0  0  0  0  0
    1.1875   -3.6642    3.3669 H   0  0  0  0  0  0  0  0  0  0  0  0
    0.2270   -1.6625    2.3422 H   0  0  0  0  0  0  0  0  0  0  0  0
    0.7881   -2.4796   -0.7882 H   0  0  0  0  0  0  0  0  0  0  0  0
    3.2342   -2.4217   -0.8357 H   0  0  0  0  0  0  0  0  0  0  0  0
    3.1971    1.6654    0.4528 H   0  0  0  0  0  0  0  0  0  0  0  0
  1  7  1  0  0  0  0
  1  2  1  0  0  0  0
  1 38  1  0  0  0  0
  1 39  1  0  0  0  0
  2  3  1  0  0  0  0
  2 40  1  0  0  0  0
  2 41  1  0  0  0  0
  3 36  2  0  0  0  0
  3  4  1  0  0  0  0
  4  5  1  0  0  0  0
  4 33  2  0  0  0  0
  5 24  1  0  0  0  0
  5  6  2  0  0  0  0
  6  7  1  0  0  0  0
  6  8  1  0  0  0  0
  7 42  1  0  0  0  0
  7 43  1  0  0  0  0
  8  9  1  0  0  0  0
  8 23  2  0  0  0  0
  9 10  2  0  0  0  0
  9 11  1  0  0  0  0
 11 12  1  0  0  0  0
 11 44  1  0  0  0  0
 12 45  1  0  0  0  0
 12 46  1  0  0  0  0
 13 12  1  1  0  0  0
 13 18  1  0  0  0  0
 13 22  1  0  0  0  0
 13 14  1  0  0  0  0
 14 47  1  0  0  0  0
 14 48  1  0  0  0  0
 15 14  1  0  0  0  0
 15 16  1  0  0  0  0
 15 21  1  0  0  0  0
 15 49  1  6  0  0  0
 16 50  1  0  0  0  0
 16 51  1  0  0  0  0
 17 16  1  0  0  0  0
 17 18  1  0  0  0  0
 17 19  1  0  0  0  0
 17 52  1  1  0  0  0
 18 53  1  0  0  0  0
 18 54  1  0  0  0  0
 19 55  1  0  0  0  0
 19 56  1  0  0  0  0
 20 19  1  0  0  0  0
 20 21  1  0  0  0  0
 20 22  1  0  0  0  0
 20 57  1  6  0  0  0
 21 58  1  0  0  0  0
 21 59  1  0  0  0  0
 22 60  1  0  0  0  0
 22 61  1  0  0  0  0
 23 24  1  0  0  0  0
 24 25  1  0  0  0  0
 25 30  2  0  0  0  0
 25 26  1  0  0  0  0
 26 27  2  0  0  0  0
 26 32  1  0  0  0  0
 27 28  1  0  0  0  0
 27 62  1  0  0  0  0
 28 29  2  0  0  0  0
 28 31  1  0  0  0  0
 29 30  1  0  0  0  0
 29 63  1  0  0  0  0
 30 64  1  0  0  0  0
 33 34  1  0  0  0  0
 33 65  1  0  0  0  0
 34 35  2  0  0  0  0
 34 66  1  0  0  0  0
 35 36  1  0  0  0  0
 35 37  1  0  0  0  0
 36 67  1  0  0  0  0
M  END
$$$$
CHEMBL375791_6PT0
 OpenBabel12022418123D

 56 59  0  0  0  0  0  0  0  0999 V2000
    0.9180   -1.0467   -1.4727 C   0  0  0  0  0  0  0  0  0  0  0  0
    2.1487   -0.5277   -1.0927 C   0  0  0  0  0  0  0  0  0  0  0  0
    2.2213    0.7558   -0.5665 C   0  0  0  0  0  0  0  0  0  0  0  0
    1.0712    1.5613   -0.4517 C   0  0  0  0  0  0  0  0  0  0  0  0
   -0.2010    1.0435   -0.8560 C   0  0  0  0  0  0  0  0  0  0  0  0
   -0.2561   -0.2881   -1.3492 C   0  0  0  0  0  0  0  0  0  0  0  0
   -1.4835   -0.8688   -1.7063 C   0  0  0  0  0  0  0  0  0  0  0  0
   -2.6744   -0.1518   -1.6048 C   0  0  0  0  0  0  0  0  0  0  0  0
   -2.6465    1.1617   -1.1626 C   0  0  0  0  0  0  0  0  0  0  0  0
   -1.4314    1.7526   -0.8007 C   0  0  0  0  0  0  0  0  0  0  0  0
    1.2050    2.8994    0.2295 C   0  0  0  0  0  0  0  0  0  0  0  0
    0.2823    3.3257    0.9180 O   0  0  0  0  0  0  0  0  0  0  0  0
    2.4684    3.6381    0.1724 C   0  0  0  0  0  0  0  0  0  0  0  0
    3.4108    3.6766   -0.8349 C   0  0  0  0  0  0  0  0  0  0  0  0
    4.4817    4.4412   -0.4262 N   0  0  0  0  0  0  0  0  0  0  0  0
    4.2272    4.9611    0.8422 C   0  0  0  0  0  0  0  0  0  0  0  0
    2.9592    4.5080    1.1828 C   0  0  0  0  0  0  0  0  0  0  0  0
    5.1089    5.8285    1.6518 C   0  0  0  0  0  0  0  0  0  0  0  0
    6.4962    5.6569    1.7048 C   0  0  0  0  0  0  0  0  0  0  0  0
    7.3095    6.4827    2.4879 C   0  0  0  0  0  0  0  0  0  0  0  0
    6.7482    7.4712    3.2978 C   0  0  0  0  0  0  0  0  0  0  0  0
    5.3560    7.6279    3.2911 C   0  0  0  0  0  0  0  0  0  0  0  0
    4.5513    6.8241    2.4705 C   0  0  0  0  0  0  0  0  0  0  0  0
    7.6186    8.3232    4.1874 C   0  0  0  0  0  0  0  0  0  0  0  0
    8.9504    8.0654    4.0466 F   0  0  0  0  0  0  0  0  0  0  0  0
    7.4714    9.6546    3.9471 F   0  0  0  0  0  0  0  0  0  0  0  0
    7.3454    8.1451    5.5092 F   0  0  0  0  0  0  0  0  0  0  0  0
    5.6818    4.6821   -1.2177 C   0  0  0  0  0  0  0  0  0  0  0  0
    5.7900    3.9601   -2.5593 C   0  0  0  0  0  0  0  0  0  0  0  0
    7.1437    4.2394   -3.2128 C   0  0  0  0  0  0  0  0  0  0  0  0
    7.2740    3.4752   -4.5271 C   0  0  0  0  0  0  0  0  0  0  0  0
    8.6016    3.7544   -5.2085 C   0  0  0  0  0  0  0  0  0  0  0  0
    0.8771   -2.0653   -1.8546 H   0  0  0  0  0  0  0  0  0  0  0  0
    3.0461   -1.1345   -1.1787 H   0  0  0  0  0  0  0  0  0  0  0  0
    3.1896    1.1029   -0.2159 H   0  0  0  0  0  0  0  0  0  0  0  0
   -1.5273   -1.8971   -2.0593 H   0  0  0  0  0  0  0  0  0  0  0  0
   -3.6184   -0.6214   -1.8666 H   0  0  0  0  0  0  0  0  0  0  0  0
   -3.5672    1.7337   -1.0856 H   0  0  0  0  0  0  0  0  0  0  0  0
   -1.4669    2.7830   -0.4625 H   0  0  0  0  0  0  0  0  0  0  0  0
    3.4035    3.1987   -1.8047 H   0  0  0  0  0  0  0  0  0  0  0  0
    2.4405    4.7317    2.1081 H   0  0  0  0  0  0  0  0  0  0  0  0
    6.9899    4.8504    1.1789 H   0  0  0  0  0  0  0  0  0  0  0  0
    8.3876    6.3247    2.4746 H   0  0  0  0  0  0  0  0  0  0  0  0
    4.8857    8.3713    3.9327 H   0  0  0  0  0  0  0  0  0  0  0  0
    3.4736    6.9771    2.4925 H   0  0  0  0  0  0  0  0  0  0  0  0
    6.5210    4.3241   -0.6228 H   0  0  0  0  0  0  0  0  0  0  0  0
    5.7635    5.7663   -1.3535 H   0  0  0  0  0  0  0  0  0  0  0  0
    4.9805    4.2750   -3.2280 H   0  0  0  0  0  0  0  0  0  0  0  0
    5.6866    2.8784   -2.4034 H   0  0  0  0  0  0  0  0  0  0  0  0
    7.9536    3.9419   -2.5353 H   0  0  0  0  0  0  0  0  0  0  0  0
    7.2518    5.3166   -3.3924 H   0  0  0  0  0  0  0  0  0  0  0  0
    6.4551    3.7558   -5.2008 H   0  0  0  0  0  0  0  0  0  0  0  0
    7.1844    2.3986   -4.3388 H   0  0  0  0  0  0  0  0  0  0  0  0
    8.7104    4.8203   -5.4317 H   0  0  0  0  0  0  0  0  0  0  0  0
    8.6647    3.2002   -6.1496 H   0  0  0  0  0  0  0  0  0  0  0  0
    9.4397    3.4475   -4.5747 H   0  0  0  0  0  0  0  0  0  0  0  0
  1  6  2  0  0  0  0
  1  2  1  0  0  0  0
  1 33  1  0  0  0  0
  2  3  2  0  0  0  0
  2 34  1  0  0  0  0
  3  4  1  0  0  0  0
  3 35  1  0  0  0  0
  4  5  2  0  0  0  0
  4 11  1  0  0  0  0
  5 10  1  0  0  0  0
  5  6  1  0  0  0  0
  6  7  1  0  0  0  0
  7  8  2  0  0  0  0
  7 36  1  0  0  0  0
  8  9  1  0  0  0  0
  8 37  1  0  0  0  0
  9 10  2  0  0  0  0
  9 38  1  0  0  0  0
 10 39  1  0  0  0  0
 11 12  2  0  0  0  0
 11 13  1  0  0  0  0
 13 17  1  0  0  0  0
 13 14  2  0  0  0  0
 14 15  1  0  0  0  0
 14 40  1  0  0  0  0
 15 16  1  0  0  0  0
 15 28  1  0  0  0  0
 16 17  2  0  0  0  0
 16 18  1  0  0  0  0
 17 41  1  0  0  0  0
 18 23  2  0  0  0  0
 18 19  1  0  0  0  0
 19 20  2  0  0  0  0
 19 42  1  0  0  0  0
 20 21  1  0  0  0  0
 20 43  1  0  0  0  0
 21 22  2  0  0  0  0
 21 24  1  0  0  0  0
 22 23  1  0  0  0  0
 22 44  1  0  0  0  0
 23 45  1  0  0  0  0
 24 25  1  0  0  0  0
 24 26  1  0  0  0  0
 24 27  1  0  0  0  0
 28 29  1  0  0  0  0
 28 46  1  0  0  0  0
 28 47  1  0  0  0  0
 29 30  1  0  0  0  0
 29 48  1  0  0  0  0
 29 49  1  0  0  0  0
 30 31  1  0  0  0  0
 30 50  1  0  0  0  0
 30 51  1  0  0  0  0
 31 32  1  0  0  0  0
 31 52  1  0  0  0  0
 31 53  1  0  0  0  0
 32 54  1  0  0  0  0
 32 55  1  0  0  0  0
 32 56  1  0  0  0  0
M  END
$$$$
CHEMBL2163951_5ZTY
 OpenBabel12022418123D

 61 67  0  0  1  0  0  0  0  0999 V2000
    2.3480    0.7955    0.8526 O   0  0  0  0  0  0  0  0  0  0  0  0
    2.3168   -0.0454   -0.0422 C   0  0  0  0  0  0  0  0  0  0  0  0
    3.0267   -1.3582    0.1305 C   0  0  0  0  0  0  0  0  0  0  0  0
    3.9909   -1.4860    1.0660 C   0  0  0  0  0  0  0  0  0  0  0  0
    4.7642   -2.6226    1.3098 N   0  0  0  0  0  0  0  0  0  0  0  0
    4.4699   -3.8097    0.6074 C   0  0  0  0  0  0  0  0  0  0  0  0
    5.1642   -5.0079    0.8276 C   0  0  0  0  0  0  0  0  0  0  0  0
    6.2445   -5.1077    1.6616 O   0  0  0  0  0  0  0  0  0  0  0  0
    6.2206   -4.1484    2.7201 C   0  0  0  0  0  0  0  0  0  0  0  0
    5.8520   -2.7030    2.3153 C   0  0  1  0  0  0  0  0  0  0  0  0
    7.1069   -1.9372    1.9049 C   0  0  0  0  0  0  0  0  0  0  0  0
    7.7963   -2.2236    0.7176 C   0  0  0  0  0  0  0  0  0  0  0  0
    9.0103   -1.5921    0.4298 C   0  0  0  0  0  0  0  0  0  0  0  0
    9.5502   -0.6665    1.3201 C   0  0  0  0  0  0  0  0  0  0  0  0
    8.8762   -0.3653    2.5000 C   0  0  0  0  0  0  0  0  0  0  0  0
    7.6643   -0.9947    2.7911 C   0  0  0  0  0  0  0  0  0  0  0  0
    4.8239   -6.1785    0.1402 C   0  0  0  0  0  0  0  0  0  0  0  0
    3.7816   -6.1750   -0.7834 C   0  0  0  0  0  0  0  0  0  0  0  0
    3.1039   -4.9879   -1.0503 C   0  0  0  0  0  0  0  0  0  0  0  0
    3.4535   -3.8171   -0.3643 C   0  0  0  0  0  0  0  0  0  0  0  0
    2.7472   -2.5519   -0.7031 C   0  0  0  0  0  0  0  0  0  0  0  0
    1.9669   -2.5063   -1.6475 O   0  0  0  0  0  0  0  0  0  0  0  0
    1.6882    0.1557   -1.2628 N   0  0  0  0  0  0  0  0  0  0  0  0
    1.1000    1.4385   -1.7170 C   0  0  1  0  0  0  0  0  0  0  0  0
   -0.1678    1.8223   -0.9122 C   0  0  0  0  0  0  0  0  0  0  0  0
   -0.7241    3.1861   -1.3754 C   0  0  2  0  0  0  0  0  0  0  0  0
   -1.1237    3.1131   -2.8580 C   0  0  0  0  0  0  0  0  0  0  0  0
    0.0941    2.7111   -3.7053 C   0  0  1  0  0  0  0  0  0  0  0  0
    1.1658    3.8019   -3.5534 C   0  0  0  0  0  0  0  0  0  0  0  0
    1.5831    3.9156   -2.0812 C   0  0  1  0  0  0  0  0  0  0  0  0
    0.3639    4.2589   -1.2082 C   0  0  0  0  0  0  0  0  0  0  0  0
    2.1571    2.5696   -1.6228 C   0  0  0  0  0  0  0  0  0  0  0  0
    0.6543    1.3536   -3.2108 C   0  0  0  0  0  0  0  0  0  0  0  0
    4.2479   -0.6493    1.7155 H   0  0  0  0  0  0  0  0  0  0  0  0
    7.2200   -4.1719    3.1761 H   0  0  0  0  0  0  0  0  0  0  0  0
    5.5308   -4.5184    3.4886 H   0  0  0  0  0  0  0  0  0  0  0  0
    5.4754   -2.2292    3.2334 H   0  0  0  0  0  0  0  0  0  0  0  0
    7.4079   -2.9619    0.0196 H   0  0  0  0  0  0  0  0  0  0  0  0
    9.5431   -1.8364   -0.4856 H   0  0  0  0  0  0  0  0  0  0  0  0
   10.5000   -0.1862    1.0981 H   0  0  0  0  0  0  0  0  0  0  0  0
    9.3011    0.3499    3.2005 H   0  0  0  0  0  0  0  0  0  0  0  0
    7.1714   -0.7586    3.7323 H   0  0  0  0  0  0  0  0  0  0  0  0
    5.3724   -7.0979    0.3318 H   0  0  0  0  0  0  0  0  0  0  0  0
    3.5097   -7.0876   -1.3080 H   0  0  0  0  0  0  0  0  0  0  0  0
    2.3064   -4.9761   -1.7880 H   0  0  0  0  0  0  0  0  0  0  0  0
    1.6363   -0.6463   -1.8934 H   0  0  0  0  0  0  0  0  0  0  0  0
    0.0475    1.8653    0.1613 H   0  0  0  0  0  0  0  0  0  0  0  0
   -0.9414    1.0519   -1.0389 H   0  0  0  0  0  0  0  0  0  0  0  0
   -1.6015    3.4522   -0.7735 H   0  0  0  0  0  0  0  0  0  0  0  0
   -1.5073    4.0870   -3.1917 H   0  0  0  0  0  0  0  0  0  0  0  0
   -1.9378    2.3931   -2.9998 H   0  0  0  0  0  0  0  0  0  0  0  0
   -0.2011    2.6329   -4.7584 H   0  0  0  0  0  0  0  0  0  0  0  0
    0.7785    4.7665   -3.9066 H   0  0  0  0  0  0  0  0  0  0  0  0
    2.0361    3.5629   -4.1768 H   0  0  0  0  0  0  0  0  0  0  0  0
    2.3446    4.6957   -1.9734 H   0  0  0  0  0  0  0  0  0  0  0  0
    0.6626    4.3234   -0.1547 H   0  0  0  0  0  0  0  0  0  0  0  0
   -0.0308    5.2431   -1.4882 H   0  0  0  0  0  0  0  0  0  0  0  0
    3.0312    2.3090   -2.2345 H   0  0  0  0  0  0  0  0  0  0  0  0
    2.5242    2.6850   -0.5986 H   0  0  0  0  0  0  0  0  0  0  0  0
   -0.1124    0.5775   -3.3364 H   0  0  0  0  0  0  0  0  0  0  0  0
    1.5002    1.0558   -3.8430 H   0  0  0  0  0  0  0  0  0  0  0  0
  1  2  2  0  0  0  0
  2  3  1  0  0  0  0
  2 23  1  0  0  0  0
  3 21  1  0  0  0  0
  3  4  2  0  0  0  0
  4  5  1  0  0  0  0
  4 34  1  0  0  0  0
  5 10  1  0  0  0  0
  5  6  1  0  0  0  0
  6 20  2  0  0  0  0
  6  7  1  0  0  0  0
  7  8  1  0  0  0  0
  7 17  2  0  0  0  0
  8  9  1  0  0  0  0
  9 10  1  0  0  0  0
  9 35  1  0  0  0  0
  9 36  1  0  0  0  0
 10 11  1  0  0  0  0
 10 37  1  1  0  0  0
 11 16  2  0  0  0  0
 11 12  1  0  0  0  0
 12 13  2  0  0  0  0
 12 38  1  0  0  0  0
 13 14  1  0  0  0  0
 13 39  1  0  0  0  0
 14 15  2  0  0  0  0
 14 40  1  0  0  0  0
 15 16  1  0  0  0  0
 15 41  1  0  0  0  0
 16 42  1  0  0  0  0
 17 18  1  0  0  0  0
 17 43  1  0  0  0  0
 18 19  2  0  0  0  0
 18 44  1  0  0  0  0
 19 20  1  0  0  0  0
 19 45  1  0  0  0  0
 20 21  1  0  0  0  0
 21 22  2  0  0  0  0
 23 46  1  0  0  0  0
 24 23  1  1  0  0  0
 24 32  1  0  0  0  0
 24 33  1  0  0  0  0
 24 25  1  0  0  0  0
 25 47  1  0  0  0  0
 25 48  1  0  0  0  0
 26 25  1  0  0  0  0
 26 27  1  0  0  0  0
 26 31  1  0  0  0  0
 26 49  1  1  0  0  0
 27 50  1  0  0  0  0
 27 51  1  0  0  0  0
 28 27  1  0  0  0  0
 28 29  1  0  0  0  0
 28 33  1  0  0  0  0
 28 52  1  6  0  0  0
 29 53  1  0  0  0  0
 29 54  1  0  0  0  0
 30 29  1  0  0  0  0
 30 31  1  0  0  0  0
 30 32  1  0  0  0  0
 30 55  1  1  0  0  0
 31 56  1  0  0  0  0
 31 57  1  0  0  0  0
 32 58  1  0  0  0  0
 32 59  1  0  0  0  0
 33 60  1  0  0  0  0
 33 61  1  0  0  0  0
M  END
$$$$
CHEMBL216735_8GUQ
 OpenBabel12022418123D

 53 57  0  0  0  0  0  0  0  0999 V2000
    1.0418   -0.3861   -0.0478 C   0  0  0  0  0  0  0  0  0  0  0  0
    2.5431   -0.3163   -0.1007 C   0  0  0  0  0  0  0  0  0  0  0  0
    3.3260   -1.4892   -0.0475 C   0  0  0  0  0  0  0  0  0  0  0  0
    4.7155   -1.3784   -0.0838 C   0  0  0  0  0  0  0  0  0  0  0  0
    5.3096   -0.0898   -0.1655 C   0  0  0  0  0  0  0  0  0  0  0  0
    6.7191   -0.3221   -0.1357 C   0  0  0  0  0  0  0  0  0  0  0  0
    6.9927   -1.6642   -0.1233 C   0  0  0  0  0  0  0  0  0  0  0  0
    5.7621   -2.5204   -0.0713 C   0  0  0  0  0  0  0  0  0  0  0  0
    8.4006   -1.7598   -0.1953 C   0  0  0  0  0  0  0  0  0  0  0  0
    9.2502   -2.9736   -0.2406 C   0  0  0  0  0  0  0  0  0  0  0  0
    8.7706   -4.1032   -0.2220 O   0  0  0  0  0  0  0  0  0  0  0  0
   10.6160   -2.7241   -0.2921 N   0  0  0  0  0  0  0  0  0  0  0  0
   11.6327   -3.7733   -0.3887 C   0  0  0  0  0  0  0  0  0  0  0  0
   11.8439   -4.2311   -1.8411 C   0  0  0  0  0  0  0  0  0  0  0  0
   12.9079   -5.3274   -1.9445 C   0  0  0  0  0  0  0  0  0  0  0  0
   14.2344   -4.8959   -1.3269 C   0  0  0  0  0  0  0  0  0  0  0  0
   14.0486   -4.4159    0.1093 C   0  0  0  0  0  0  0  0  0  0  0  0
   12.9763   -3.3261    0.2175 C   0  0  0  0  0  0  0  0  0  0  0  0
    8.9472   -0.5165   -0.2182 N   0  0  0  0  0  0  0  0  0  0  0  0
    7.8997    0.3612   -0.1217 N   0  0  0  0  0  0  0  0  0  0  0  0
    8.1101    1.7478    0.0990 C   0  0  0  0  0  0  0  0  0  0  0  0
    7.2333    2.4394    0.9583 C   0  0  0  0  0  0  0  0  0  0  0  0
    7.3934    3.8054    1.1970 C   0  0  0  0  0  0  0  0  0  0  0  0
    8.4555    4.4831    0.6121 C   0  0  0  0  0  0  0  0  0  0  0  0
    9.3463    3.8115   -0.2212 C   0  0  0  0  0  0  0  0  0  0  0  0
    9.1786    2.4445   -0.4870 C   0  0  0  0  0  0  0  0  0  0  0  0
   10.2632    1.7642   -1.6506 Cl  0  0  0  0  0  0  0  0  0  0  0  0
    8.6681    6.1618    0.9207 Cl  0  0  0  0  0  0  0  0  0  0  0  0
    4.5538    1.0550   -0.2888 C   0  0  0  0  0  0  0  0  0  0  0  0
    3.1653    0.9408   -0.2347 C   0  0  0  0  0  0  0  0  0  0  0  0
    0.5978    0.6162   -0.0151 H   0  0  0  0  0  0  0  0  0  0  0  0
    0.7136   -0.9152    0.8522 H   0  0  0  0  0  0  0  0  0  0  0  0
    0.6525   -0.8925   -0.9360 H   0  0  0  0  0  0  0  0  0  0  0  0
    2.8508   -2.4635    0.0199 H   0  0  0  0  0  0  0  0  0  0  0  0
    5.6574   -3.1469   -0.9604 H   0  0  0  0  0  0  0  0  0  0  0  0
    5.6955   -3.0952    0.8552 H   0  0  0  0  0  0  0  0  0  0  0  0
   10.8699   -1.7435   -0.3941 H   0  0  0  0  0  0  0  0  0  0  0  0
   11.2657   -4.6308    0.1894 H   0  0  0  0  0  0  0  0  0  0  0  0
   12.1467   -3.3765   -2.4604 H   0  0  0  0  0  0  0  0  0  0  0  0
   10.9024   -4.6033   -2.2607 H   0  0  0  0  0  0  0  0  0  0  0  0
   13.0650   -5.5955   -2.9958 H   0  0  0  0  0  0  0  0  0  0  0  0
   12.5510   -6.2320   -1.4364 H   0  0  0  0  0  0  0  0  0  0  0  0
   14.6773   -4.0930   -1.9289 H   0  0  0  0  0  0  0  0  0  0  0  0
   14.9428   -5.7334   -1.3491 H   0  0  0  0  0  0  0  0  0  0  0  0
   15.0044   -4.0396    0.4937 H   0  0  0  0  0  0  0  0  0  0  0  0
   13.7692   -5.2686    0.7408 H   0  0  0  0  0  0  0  0  0  0  0  0
   12.8422   -3.0593    1.2725 H   0  0  0  0  0  0  0  0  0  0  0  0
   13.3349   -2.4209   -0.2897 H   0  0  0  0  0  0  0  0  0  0  0  0
    6.4315    1.9254    1.4863 H   0  0  0  0  0  0  0  0  0  0  0  0
    6.6933    4.3268    1.8464 H   0  0  0  0  0  0  0  0  0  0  0  0
   10.1650    4.3579   -0.6849 H   0  0  0  0  0  0  0  0  0  0  0  0
    4.9977    2.0316   -0.4314 H   0  0  0  0  0  0  0  0  0  0  0  0
    2.5618    1.8453   -0.3013 H   0  0  0  0  0  0  0  0  0  0  0  0
  1  2  1  0  0  0  0
  1 31  1  0  0  0  0
  1 32  1  0  0  0  0
  1 33  1  0  0  0  0
  2 30  2  0  0  0  0
  2  3  1  0  0  0  0
  3  4  2  0  0  0  0
  3 34  1  0  0  0  0
  4  8  1  0  0  0  0
  4  5  1  0  0  0  0
  5  6  1  0  0  0  0
  5 29  2  0  0  0  0
  6 20  1  0  0  0  0
  6  7  2  0  0  0  0
  7  8  1  0  0  0  0
  7  9  1  0  0  0  0
  8 35  1  0  0  0  0
  8 36  1  0  0  0  0
  9 10  1  0  0  0  0
  9 19  2  0  0  0  0
 10 11  2  0  0  0  0
 10 12  1  0  0  0  0
 12 13  1  0  0  0  0
 12 37  1  0  0  0  0
 13 18  1  0  0  0  0
 13 14  1  0  0  0  0
 13 38  1  0  0  0  0
 14 15  1  0  0  0  0
 14 39  1  0  0  0  0
 14 40  1  0  0  0  0
 15 16  1  0  0  0  0
 15 41  1  0  0  0  0
 15 42  1  0  0  0  0
 16 17  1  0  0  0  0
 16 43  1  0  0  0  0
 16 44  1  0  0  0  0
 17 18  1  0  0  0  0
 17 45  1  0  0  0  0
 17 46  1  0  0  0  0
 18 47  1  0  0  0  0
 18 48  1  0  0  0  0
 19 20  1  0  0  0  0
 20 21  1  0  0  0  0
 21 26  2  0  0  0  0
 21 22  1  0  0  0  0
 22 23  2  0  0  0  0
 22 49  1  0  0  0  0
 23 24  1  0  0  0  0
 23 50  1  0  0  0  0
 24 25  2  0  0  0  0
 24 28  1  0  0  0  0
 25 26  1  0  0  0  0
 25 51  1  0  0  0  0
 26 27  1  0  0  0  0
 29 30  1  0  0  0  0
 29 52  1  0  0  0  0
 30 53  1  0  0  0  0
M  END
$$$$
CHEMBL1215943_5ZTY
 OpenBabel12022418123D

 74 79  0  0  1  0  0  0  0  0999 V2000
    0.6952   -2.2840    4.6373 C   0  0  0  0  0  0  0  0  0  0  0  0
    2.2163   -2.2603    4.6547 C   0  0  0  0  0  0  0  0  0  0  0  0
    2.8034   -2.2216    3.2419 C   0  0  0  0  0  0  0  0  0  0  0  0
    4.3370   -2.1998    3.2726 C   0  0  0  0  0  0  0  0  0  0  0  0
    4.9299   -2.1302    1.8599 C   0  0  0  0  0  0  0  0  0  0  0  0
    6.4108   -2.1515    1.8893 N   0  0  0  0  0  0  0  0  0  0  0  0
    7.1399   -0.9794    1.7339 C   0  0  0  0  0  0  0  0  0  0  0  0
    8.4778   -0.8474    1.6917 C   0  0  0  0  0  0  0  0  0  0  0  0
    9.0179    0.5010    1.3678 C   0  0  0  0  0  0  0  0  0  0  0  0
    8.2568    1.3346    0.8766 O   0  0  0  0  0  0  0  0  0  0  0  0
   10.3563    0.7535    1.6083 N   0  0  0  0  0  0  0  0  0  0  0  0
   10.9752    2.0571    1.2682 C   0  0  2  0  0  0  0  0  0  0  0  0
   12.4657    2.1663    1.7162 C   0  0  0  0  0  0  0  0  0  0  0  0
   13.0487    3.5606    1.3466 C   0  0  1  0  0  0  0  0  0  0  0  0
   12.9669    3.7844   -0.1739 C   0  0  0  0  0  0  0  0  0  0  0  0
   11.5098    3.6570   -0.6397 C   0  0  2  0  0  0  0  0  0  0  0  0
   10.6545    4.7240    0.0610 C   0  0  0  0  0  0  0  0  0  0  0  0
   10.7668    4.5788    1.5886 C   0  0  2  0  0  0  0  0  0  0  0  0
   12.2313    4.6684    2.0321 C   0  0  0  0  0  0  0  0  0  0  0  0
   10.2176    3.2094    1.9908 C   0  0  0  0  0  0  0  0  0  0  0  0
   10.9789    2.2639   -0.2702 C   0  0  0  0  0  0  0  0  0  0  0  0
    9.2706   -2.0739    1.8890 C   0  0  0  0  0  0  0  0  0  0  0  0
   10.4937   -2.0375    1.9978 O   0  0  0  0  0  0  0  0  0  0  0  0
    8.5293   -3.3697    1.9107 C   0  0  0  0  0  0  0  0  0  0  0  0
    9.2706   -4.5603    1.8964 C   0  0  0  0  0  0  0  0  0  0  0  0
    8.6023   -5.7815    1.8496 C   0  0  0  0  0  0  0  0  0  0  0  0
    7.2079   -5.8235    1.8718 C   0  0  0  0  0  0  0  0  0  0  0  0
    6.4751   -4.6318    1.9116 C   0  0  0  0  0  0  0  0  0  0  0  0
    7.1125   -3.3762    1.9094 C   0  0  0  0  0  0  0  0  0  0  0  0
    9.5360   -7.2961    1.8574 S   0  0  0  0  0  0  0  0  0  0  0  0
   10.7513   -7.0410    2.6085 O   0  0  0  0  0  0  0  0  0  0  0  0
    8.6308   -8.3522    2.2727 O   0  0  0  0  0  0  0  0  0  0  0  0
   10.0100   -7.6345    0.1742 C   0  0  0  0  0  0  0  0  0  0  0  0
    9.2388   -8.5090   -0.5981 C   0  0  0  0  0  0  0  0  0  0  0  0
    9.6738   -8.8632   -1.8758 C   0  0  0  0  0  0  0  0  0  0  0  0
   10.8716   -8.3486   -2.3745 C   0  0  0  0  0  0  0  0  0  0  0  0
   11.6335   -7.4689   -1.6038 C   0  0  0  0  0  0  0  0  0  0  0  0
   11.2079   -7.1117   -0.3234 C   0  0  0  0  0  0  0  0  0  0  0  0
    0.3057   -2.3069    5.6604 H   0  0  0  0  0  0  0  0  0  0  0  0
    0.3207   -3.1692    4.1134 H   0  0  0  0  0  0  0  0  0  0  0  0
    0.2924   -1.3947    4.1422 H   0  0  0  0  0  0  0  0  0  0  0  0
    2.5809   -3.1479    5.1846 H   0  0  0  0  0  0  0  0  0  0  0  0
    2.5529   -1.3838    5.2203 H   0  0  0  0  0  0  0  0  0  0  0  0
    2.4309   -1.3342    2.7155 H   0  0  0  0  0  0  0  0  0  0  0  0
    2.4595   -3.0982    2.6790 H   0  0  0  0  0  0  0  0  0  0  0  0
    4.7004   -3.0925    3.7946 H   0  0  0  0  0  0  0  0  0  0  0  0
    4.6789   -1.3347    3.8543 H   0  0  0  0  0  0  0  0  0  0  0  0
    4.5833   -1.2021    1.3844 H   0  0  0  0  0  0  0  0  0  0  0  0
    4.5311   -2.9267    1.2215 H   0  0  0  0  0  0  0  0  0  0  0  0
    6.5052   -0.1033    1.5991 H   0  0  0  0  0  0  0  0  0  0  0  0
   10.9456   -0.0232    1.9036 H   0  0  0  0  0  0  0  0  0  0  0  0
   13.0699    1.3835    1.2392 H   0  0  0  0  0  0  0  0  0  0  0  0
   12.5550    2.0091    2.7986 H   0  0  0  0  0  0  0  0  0  0  0  0
   14.0944    3.6284    1.6691 H   0  0  0  0  0  0  0  0  0  0  0  0
   13.6002    3.0594   -0.6981 H   0  0  0  0  0  0  0  0  0  0  0  0
   13.3497    4.7818   -0.4301 H   0  0  0  0  0  0  0  0  0  0  0  0
   11.4565    3.7943   -1.7254 H   0  0  0  0  0  0  0  0  0  0  0  0
    9.6056    4.6196   -0.2472 H   0  0  0  0  0  0  0  0  0  0  0  0
   10.9769    5.7259   -0.2442 H   0  0  0  0  0  0  0  0  0  0  0  0
   10.1820    5.3656    2.0781 H   0  0  0  0  0  0  0  0  0  0  0  0
   12.6355    5.6563    1.7764 H   0  0  0  0  0  0  0  0  0  0  0  0
   12.3034    4.5681    3.1212 H   0  0  0  0  0  0  0  0  0  0  0  0
   10.2955    3.0745    3.0783 H   0  0  0  0  0  0  0  0  0  0  0  0
    9.1486    3.2048    1.7679 H   0  0  0  0  0  0  0  0  0  0  0  0
    9.9778    2.1389   -0.6951 H   0  0  0  0  0  0  0  0  0  0  0  0
   11.6041    1.4935   -0.7442 H   0  0  0  0  0  0  0  0  0  0  0  0
   10.3583   -4.5238    1.9203 H   0  0  0  0  0  0  0  0  0  0  0  0
    6.6780   -6.7748    1.8664 H   0  0  0  0  0  0  0  0  0  0  0  0
    5.3932   -4.7220    1.9329 H   0  0  0  0  0  0  0  0  0  0  0  0
    8.3193   -8.9389   -0.2079 H   0  0  0  0  0  0  0  0  0  0  0  0
    9.0918   -9.5590   -2.4756 H   0  0  0  0  0  0  0  0  0  0  0  0
   11.2198   -8.6457   -3.3616 H   0  0  0  0  0  0  0  0  0  0  0  0
   12.5725   -7.0820   -1.9933 H   0  0  0  0  0  0  0  0  0  0  0  0
   11.8263   -6.4519    0.2813 H   0  0  0  0  0  0  0  0  0  0  0  0
  1  2  1  0  0  0  0
  1 39  1  0  0  0  0
  1 40  1  0  0  0  0
  1 41  1  0  0  0  0
  2  3  1  0  0  0  0
  2 42  1  0  0  0  0
  2 43  1  0  0  0  0
  3  4  1  0  0  0  0
  3 44  1  0  0  0  0
  3 45  1  0  0  0  0
  4  5  1  0  0  0  0
  4 46  1  0  0  0  0
  4 47  1  0  0  0  0
  5  6  1  0  0  0  0
  5 48  1  0  0  0  0
  5 49  1  0  0  0  0
  6 29  1  0  0  0  0
  6  7  1  0  0  0  0
  7  8  2  0  0  0  0
  7 50  1  0  0  0  0
  8  9  1  0  0  0  0
  8 22  1  0  0  0  0
  9 10  2  0  0  0  0
  9 11  1  0  0  0  0
 11 51  1  0  0  0  0
 12 11  1  1  0  0  0
 12 20  1  0  0  0  0
 12 21  1  0  0  0  0
 12 13  1  0  0  0  0
 13 52  1  0  0  0  0
 13 53  1  0  0  0  0
 14 13  1  0  0  0  0
 14 15  1  0  0  0  0
 14 19  1  0  0  0  0
 14 54  1  1  0  0  0
 15 55  1  0  0  0  0
 15 56  1  0  0  0  0
 16 15  1  0  0  0  0
 16 17  1  0  0  0  0
 16 21  1  0  0  0  0
 16 57  1  6  0  0  0
 17 58  1  0  0  0  0
 17 59  1  0  0  0  0
 18 17  1  0  0  0  0
 18 19  1  0  0  0  0
 18 20  1  0  0  0  0
 18 60  1  1  0  0  0
 19 61  1  0  0  0  0
 19 62  1  0  0  0  0
 20 63  1  0  0  0  0
 20 64  1  0  0  0  0
 21 65  1  0  0  0  0
 21 66  1  0  0  0  0
 22 23  2  0  0  0  0
 22 24  1  0  0  0  0
 24 29  2  0  0  0  0
 24 25  1  0  0  0  0
 25 26  2  0  0  0  0
 25 67  1  0  0  0  0
 26 27  1  0  0  0  0
 26 30  1  0  0  0  0
 27 28  2  0  0  0  0
 27 68  1  0  0  0  0
 28 29  1  0  0  0  0
 28 69  1  0  0  0  0
 30 31  2  0  0  0  0
 30 32  2  0  0  0  0
 30 33  1  0  0  0  0
 33 38  2  0  0  0  0
 33 34  1  0  0  0  0
 34 35  2  0  0  0  0
 34 70  1  0  0  0  0
 35 36  1  0  0  0  0
 35 71  1  0  0  0  0
 36 37  2  0  0  0  0
 36 72  1  0  0  0  0
 37 38  1  0  0  0  0
 37 73  1  0  0  0  0
 38 74  1  0  0  0  0
M  END
$$$$
CHEMBL2163960_6PT0
 OpenBabel12022418123D

 46 49  0  0  1  0  0  0  0  0999 V2000
    0.9763    0.0161   -0.0062 C   0  0  0  0  0  0  0  0  0  0  0  0
    2.5130   -0.0072   -0.0691 C   0  0  2  0  0  0  0  0  0  0  0  0
    2.9858    1.3062   -0.7277 C   0  0  0  0  0  0  0  0  0  0  0  0
    3.9865    1.2837   -1.7341 O   0  0  0  0  0  0  0  0  0  0  0  0
    4.2214    0.0887   -2.3382 C   0  0  0  0  0  0  0  0  0  0  0  0
    5.0261    0.1627   -3.4834 C   0  0  0  0  0  0  0  0  0  0  0  0
    5.4240   -0.9925   -4.1499 C   0  0  0  0  0  0  0  0  0  0  0  0
    5.0245   -2.2295   -3.6621 C   0  0  0  0  0  0  0  0  0  0  0  0
    4.2137   -2.2973   -2.5199 C   0  0  0  0  0  0  0  0  0  0  0  0
    3.8346   -3.6307   -1.9955 C   0  0  0  0  0  0  0  0  0  0  0  0
    4.1362   -4.6520   -2.6126 O   0  0  0  0  0  0  0  0  0  0  0  0
    3.1070   -3.6951   -0.7022 C   0  0  0  0  0  0  0  0  0  0  0  0
    2.8005   -4.9653    0.0277 C   0  0  0  0  0  0  0  0  0  0  0  0
    2.2085   -4.9606    1.1032 O   0  0  0  0  0  0  0  0  0  0  0  0
    3.2527   -6.1139   -0.5779 N   0  0  0  0  0  0  0  0  0  0  0  0
    3.0887   -7.4482   -0.0131 C   0  0  0  0  0  0  0  0  0  0  0  0
    1.7139   -8.0367   -0.3594 C   0  0  0  0  0  0  0  0  0  0  0  0
    1.5651   -9.4688    0.1552 C   0  0  0  0  0  0  0  0  0  0  0  0
    2.6873  -10.3676   -0.3549 C   0  0  0  0  0  0  0  0  0  0  0  0
    4.0545   -9.7991    0.0098 C   0  0  0  0  0  0  0  0  0  0  0  0
    4.2188   -8.3684   -0.4984 C   0  0  0  0  0  0  0  0  0  0  0  0
    2.7409   -2.5193   -0.1674 C   0  0  0  0  0  0  0  0  0  0  0  0
    2.9725   -1.2552   -0.7038 N   0  0  0  0  0  0  0  0  0  0  0  0
    3.7816   -1.1388   -1.8446 C   0  0  0  0  0  0  0  0  0  0  0  0
    0.6183    0.9402    0.4616 H   0  0  0  0  0  0  0  0  0  0  0  0
    0.5797   -0.8199    0.5775 H   0  0  0  0  0  0  0  0  0  0  0  0
    0.5430   -0.0462   -1.0114 H   0  0  0  0  0  0  0  0  0  0  0  0
    2.8823   -0.0037    0.9652 H   0  0  0  0  0  0  0  0  0  0  0  0
    3.3821    1.9504    0.0686 H   0  0  0  0  0  0  0  0  0  0  0  0
    2.1390    1.8679   -1.1418 H   0  0  0  0  0  0  0  0  0  0  0  0
    5.3524    1.1340   -3.8487 H   0  0  0  0  0  0  0  0  0  0  0  0
    6.0557   -0.9277   -5.0316 H   0  0  0  0  0  0  0  0  0  0  0  0
    5.3530   -3.1390   -4.1611 H   0  0  0  0  0  0  0  0  0  0  0  0
    3.6569   -6.0284   -1.5122 H   0  0  0  0  0  0  0  0  0  0  0  0
    3.1586   -7.3551    1.0783 H   0  0  0  0  0  0  0  0  0  0  0  0
    1.5670   -8.0267   -1.4474 H   0  0  0  0  0  0  0  0  0  0  0  0
    0.9182   -7.4142    0.0667 H   0  0  0  0  0  0  0  0  0  0  0  0
    0.5967   -9.8766   -0.1556 H   0  0  0  0  0  0  0  0  0  0  0  0
    1.5729   -9.4657    1.2524 H   0  0  0  0  0  0  0  0  0  0  0  0
    2.6103  -10.4688   -1.4446 H   0  0  0  0  0  0  0  0  0  0  0  0
    2.5796  -11.3732    0.0674 H   0  0  0  0  0  0  0  0  0  0  0  0
    4.8423  -10.4345   -0.4107 H   0  0  0  0  0  0  0  0  0  0  0  0
    4.1783   -9.8168    1.0996 H   0  0  0  0  0  0  0  0  0  0  0  0
    5.1875   -7.9739   -0.1682 H   0  0  0  0  0  0  0  0  0  0  0  0
    4.2475   -8.3784   -1.5962 H   0  0  0  0  0  0  0  0  0  0  0  0
    2.2098   -2.4936    0.7826 H   0  0  0  0  0  0  0  0  0  0  0  0
  1 25  1  0  0  0  0
  1 26  1  0  0  0  0
  1 27  1  0  0  0  0
  2  1  1  0  0  0  0
  2  3  1  0  0  0  0
  2 23  1  0  0  0  0
  2 28  1  1  0  0  0
  3  4  1  0  0  0  0
  3 29  1  0  0  0  0
  3 30  1  0  0  0  0
  4  5  1  0  0  0  0
  5 24  2  0  0  0  0
  5  6  1  0  0  0  0
  6  7  2  0  0  0  0
  6 31  1  0  0  0  0
  7  8  1  0  0  0  0
  7 32  1  0  0  0  0
  8  9  2  0  0  0  0
  8 33  1  0  0  0  0
  9 24  1  0  0  0  0
  9 10  1  0  0  0  0
 10 11  2  0  0  0  0
 10 12  1  0  0  0  0
 12 13  1  0  0  0  0
 12 22  2  0  0  0  0
 13 14  2  0  0  0  0
 13 15  1  0  0  0  0
 15 16  1  0  0  0  0
 15 34  1  0  0  0  0
 16 21  1  0  0  0  0
 16 17  1  0  0  0  0
 16 35  1  0  0  0  0
 17 18  1  0  0  0  0
 17 36  1  0  0  0  0
 17 37  1  0  0  0  0
 18 19  1  0  0  0  0
 18 38  1  0  0  0  0
 18 39  1  0  0  0  0
 19 20  1  0  0  0  0
 19 40  1  0  0  0  0
 19 41  1  0  0  0  0
 20 21  1  0  0  0  0
 20 42  1  0  0  0  0
 20 43  1  0  0  0  0
 21 44  1  0  0  0  0
 21 45  1  0  0  0  0
 22 23  1  0  0  0  0
 22 46  1  0  0  0  0
 23 24  1  0  0  0  0
M  END
$$$$
CHEMBL2087091_5ZTY
 OpenBabel12022418123D

 60 65  0  0  1  0  0  0  0  0999 V2000
    1.4461    1.2504    1.8354 C   0  0  0  0  0  0  0  0  0  0  0  0
    1.1061    0.2382    0.8583 N   0  0  0  0  0  0  0  0  0  0  0  0
    1.1692   -1.1025    1.1084 C   0  0  0  0  0  0  0  0  0  0  0  0
    0.9798   -1.8014   -0.0673 C   0  0  0  0  0  0  0  0  0  0  0  0
    1.1166   -3.2955   -0.2296 C   0  0  0  0  0  0  0  0  0  0  0  0
    2.5610   -3.7891   -0.5850 C   0  0  0  0  0  0  0  0  0  0  0  0
    2.9244   -4.9248   -0.2243 O   0  0  0  0  0  0  0  0  0  0  0  0
    3.3469   -2.9607   -1.3797 N   0  0  0  0  0  0  0  0  0  0  0  0
    4.7212   -3.3439   -1.8278 C   0  0  2  0  0  0  0  0  0  0  0  0
    5.4605   -2.2781   -2.7059 C   0  0  0  0  0  0  0  0  0  0  0  0
    6.8796   -2.7958   -3.1028 C   0  0  1  0  0  0  0  0  0  0  0  0
    7.7005   -3.0837   -1.8328 C   0  0  0  0  0  0  0  0  0  0  0  0
    6.9972   -4.1594   -0.9943 C   0  0  2  0  0  0  0  0  0  0  0  0
    6.8183   -5.4481   -1.8058 C   0  0  0  0  0  0  0  0  0  0  0  0
    6.0114   -5.1560   -3.0786 C   0  0  2  0  0  0  0  0  0  0  0  0
    6.7522   -4.1009   -3.9098 C   0  0  0  0  0  0  0  0  0  0  0  0
    4.6242   -4.6201   -2.6993 C   0  0  0  0  0  0  0  0  0  0  0  0
    5.6240   -3.6201   -0.5930 C   0  0  0  0  0  0  0  0  0  0  0  0
    0.6284   -0.7979   -1.0512 C   0  0  0  0  0  0  0  0  0  0  0  0
    0.2638   -0.8275   -2.4179 C   0  0  0  0  0  0  0  0  0  0  0  0
    0.0147    0.3695   -3.1395 C   0  0  0  0  0  0  0  0  0  0  0  0
   -0.3356    0.3451   -4.5684 C   0  0  0  0  0  0  0  0  0  0  0  0
    0.1428   -0.6616   -5.4210 C   0  0  0  0  0  0  0  0  0  0  0  0
   -0.1434   -0.6437   -6.7852 C   0  0  0  0  0  0  0  0  0  0  0  0
   -0.9200    0.3645   -7.3184 C   0  0  0  0  0  0  0  0  0  0  0  0
   -1.4342    1.3711   -6.4924 C   0  0  0  0  0  0  0  0  0  0  0  0
   -1.1428    1.3530   -5.1315 C   0  0  0  0  0  0  0  0  0  0  0  0
    0.1321    1.5940   -2.4704 C   0  0  0  0  0  0  0  0  0  0  0  0
    0.4926    1.6604   -1.1302 C   0  0  0  0  0  0  0  0  0  0  0  0
    0.7309    0.4589   -0.4457 C   0  0  0  0  0  0  0  0  0  0  0  0
    1.2873    2.2520    1.4357 H   0  0  0  0  0  0  0  0  0  0  0  0
    2.5014    1.1228    2.0932 H   0  0  0  0  0  0  0  0  0  0  0  0
    0.8163    1.1010    2.7166 H   0  0  0  0  0  0  0  0  0  0  0  0
    1.4062   -1.4457    2.1111 H   0  0  0  0  0  0  0  0  0  0  0  0
    0.4353   -3.6698   -1.0124 H   0  0  0  0  0  0  0  0  0  0  0  0
    0.8128   -3.7954    0.7005 H   0  0  0  0  0  0  0  0  0  0  0  0
    2.9575   -2.0731   -1.6592 H   0  0  0  0  0  0  0  0  0  0  0  0
    5.5610   -1.3209   -2.1755 H   0  0  0  0  0  0  0  0  0  0  0  0
    4.8945   -2.0621   -3.6235 H   0  0  0  0  0  0  0  0  0  0  0  0
    7.4058   -2.0478   -3.7087 H   0  0  0  0  0  0  0  0  0  0  0  0
    7.8080   -2.1620   -1.2467 H   0  0  0  0  0  0  0  0  0  0  0  0
    8.7158   -3.4121   -2.0887 H   0  0  0  0  0  0  0  0  0  0  0  0
    7.5831   -4.3689   -0.0922 H   0  0  0  0  0  0  0  0  0  0  0  0
    6.3027   -6.2033   -1.1993 H   0  0  0  0  0  0  0  0  0  0  0  0
    7.7991   -5.8639   -2.0667 H   0  0  0  0  0  0  0  0  0  0  0  0
    5.8977   -6.0765   -3.6596 H   0  0  0  0  0  0  0  0  0  0  0  0
    7.7462   -4.4791   -4.1834 H   0  0  0  0  0  0  0  0  0  0  0  0
    6.2172   -3.9140   -4.8480 H   0  0  0  0  0  0  0  0  0  0  0  0
    4.0437   -4.4067   -3.6070 H   0  0  0  0  0  0  0  0  0  0  0  0
    4.0760   -5.4017   -2.1706 H   0  0  0  0  0  0  0  0  0  0  0  0
    5.1458   -4.3329    0.0814 H   0  0  0  0  0  0  0  0  0  0  0  0
    5.7825   -2.7006   -0.0135 H   0  0  0  0  0  0  0  0  0  0  0  0
    0.1662   -1.7855   -2.9180 H   0  0  0  0  0  0  0  0  0  0  0  0
    0.7595   -1.4661   -5.0311 H   0  0  0  0  0  0  0  0  0  0  0  0
    0.2467   -1.4269   -7.4323 H   0  0  0  0  0  0  0  0  0  0  0  0
   -1.1385    0.3965   -8.3857 H   0  0  0  0  0  0  0  0  0  0  0  0
   -2.0516    2.1656   -6.9040 H   0  0  0  0  0  0  0  0  0  0  0  0
   -1.5544    2.1391   -4.5053 H   0  0  0  0  0  0  0  0  0  0  0  0
   -0.0469    2.5303   -2.9955 H   0  0  0  0  0  0  0  0  0  0  0  0
    0.5820    2.6298   -0.6460 H   0  0  0  0  0  0  0  0  0  0  0  0
  1  2  1  0  0  0  0
  1 31  1  0  0  0  0
  1 32  1  0  0  0  0
  1 33  1  0  0  0  0
  2 30  1  0  0  0  0
  2  3  1  0  0  0  0
  3  4  2  0  0  0  0
  3 34  1  0  0  0  0
  4  5  1  0  0  0  0
  4 19  1  0  0  0  0
  5  6  1  0  0  0  0
  5 35  1  0  0  0  0
  5 36  1  0  0  0  0
  6  7  2  0  0  0  0
  6  8  1  0  0  0  0
  8 37  1  0  0  0  0
  9  8  1  1  0  0  0
  9 17  1  0  0  0  0
  9 18  1  0  0  0  0
  9 10  1  0  0  0  0
 10 38  1  0  0  0  0
 10 39  1  0  0  0  0
 11 10  1  0  0  0  0
 11 12  1  0  0  0  0
 11 16  1  0  0  0  0
 11 40  1  6  0  0  0
 12 41  1  0  0  0  0
 12 42  1  0  0  0  0
 13 12  1  0  0  0  0
 13 14  1  0  0  0  0
 13 18  1  0  0  0  0
 13 43  1  1  0  0  0
 14 44  1  0  0  0  0
 14 45  1  0  0  0  0
 15 14  1  0  0  0  0
 15 16  1  0  0  0  0
 15 17  1  0  0  0  0
 15 46  1  6  0  0  0
 16 47  1  0  0  0  0
 16 48  1  0  0  0  0
 17 49  1  0  0  0  0
 17 50  1  0  0  0  0
 18 51  1  0  0  0  0
 18 52  1  0  0  0  0
 19 30  2  0  0  0  0
 19 20  1  0  0  0  0
 20 21  2  0  0  0  0
 20 53  1  0  0  0  0
 21 22  1  0  0  0  0
 21 28  1  0  0  0  0
 22 27  2  0  0  0  0
 22 23  1  0  0  0  0
 23 24  2  0  0  0  0
 23 54  1  0  0  0  0
 24 25  1  0  0  0  0
 24 55  1  0  0  0  0
 25 26  2  0  0  0  0
 25 56  1  0  0  0  0
 26 27  1  0  0  0  0
 26 57  1  0  0  0  0
 27 58  1  0  0  0  0
 28 29  2  0  0  0  0
 28 59  1  0  0  0  0
 29 30  1  0  0  0  0
 29 60  1  0  0  0  0
M  END
$$$$
CHEMBL2163958_6PT0
 OpenBabel12022418123D

 56 60  0  0  1  0  0  0  0  0999 V2000
    0.8824   -0.1518    0.0679 C   0  0  0  0  0  0  0  0  0  0  0  0
    2.3808   -0.1189    0.0778 C   0  0  0  0  0  0  0  0  0  0  0  0
    3.1241   -1.3027    0.0831 C   0  0  0  0  0  0  0  0  0  0  0  0
    4.5287   -1.2807    0.0848 C   0  0  0  0  0  0  0  0  0  0  0  0
    5.2281   -0.0750    0.0951 C   0  0  0  0  0  0  0  0  0  0  0  0
    4.4674    1.1085    0.0808 C   0  0  0  0  0  0  0  0  0  0  0  0
    3.0657    1.0924    0.0706 C   0  0  0  0  0  0  0  0  0  0  0  0
    5.1525    2.4194    0.0504 C   0  0  0  0  0  0  0  0  0  0  0  0
    4.4935    3.4572    0.0095 O   0  0  0  0  0  0  0  0  0  0  0  0
    6.6396    2.4432    0.0723 C   0  0  0  0  0  0  0  0  0  0  0  0
    7.4419    3.7104    0.0621 C   0  0  0  0  0  0  0  0  0  0  0  0
    8.6689    3.6913    0.0982 O   0  0  0  0  0  0  0  0  0  0  0  0
    6.7033    4.8689    0.0245 N   0  0  0  0  0  0  0  0  0  0  0  0
    7.2681    6.2125    0.0546 C   0  0  0  0  0  0  0  0  0  0  0  0
    7.6346    6.7053   -1.3530 C   0  0  0  0  0  0  0  0  0  0  0  0
    8.1609    8.1421   -1.3267 C   0  0  0  0  0  0  0  0  0  0  0  0
    7.1723    9.0922   -0.6586 C   0  0  0  0  0  0  0  0  0  0  0  0
    6.7995    8.6133    0.7398 C   0  0  0  0  0  0  0  0  0  0  0  0
    6.2754    7.1792    0.7189 C   0  0  0  0  0  0  0  0  0  0  0  0
    7.2482    1.2481    0.1102 C   0  0  0  0  0  0  0  0  0  0  0  0
    6.6285   -0.0031    0.1071 N   0  0  0  0  0  0  0  0  0  0  0  0
    7.3719   -1.2782    0.0469 C   0  0  2  0  0  0  0  0  0  0  0  0
    8.2502   -1.3259   -1.2006 C   0  0  0  0  0  0  0  0  0  0  0  0
    7.6968   -1.1808   -2.4821 C   0  0  0  0  0  0  0  0  0  0  0  0
    8.5188   -1.1646   -3.6086 C   0  0  0  0  0  0  0  0  0  0  0  0
    9.8983   -1.3058   -3.4700 C   0  0  0  0  0  0  0  0  0  0  0  0
   10.4586   -1.4788   -2.2061 C   0  0  0  0  0  0  0  0  0  0  0  0
    9.6404   -1.4916   -1.0766 C   0  0  0  0  0  0  0  0  0  0  0  0
    6.5281   -2.5664    0.1720 C   0  0  0  0  0  0  0  0  0  0  0  0
    5.1117   -2.5085    0.0378 O   0  0  0  0  0  0  0  0  0  0  0  0
    0.4608    0.8599    0.0653 H   0  0  0  0  0  0  0  0  0  0  0  0
    0.5098   -0.6654    0.9590 H   0  0  0  0  0  0  0  0  0  0  0  0
    0.5205   -0.6663   -0.8272 H   0  0  0  0  0  0  0  0  0  0  0  0
    2.6121   -2.2636    0.0818 H   0  0  0  0  0  0  0  0  0  0  0  0
    2.5146    2.0313    0.0537 H   0  0  0  0  0  0  0  0  0  0  0  0
    5.6880    4.7799   -0.0545 H   0  0  0  0  0  0  0  0  0  0  0  0
    8.1829    6.1734    0.6587 H   0  0  0  0  0  0  0  0  0  0  0  0
    6.7545    6.6554   -2.0077 H   0  0  0  0  0  0  0  0  0  0  0  0
    8.3910    6.0492   -1.7990 H   0  0  0  0  0  0  0  0  0  0  0  0
    8.3641    8.4827   -2.3478 H   0  0  0  0  0  0  0  0  0  0  0  0
    9.1136    8.1714   -0.7840 H   0  0  0  0  0  0  0  0  0  0  0  0
    6.2663    9.1718   -1.2721 H   0  0  0  0  0  0  0  0  0  0  0  0
    7.6047   10.1001   -0.6000 H   0  0  0  0  0  0  0  0  0  0  0  0
    6.0403    9.2774    1.1687 H   0  0  0  0  0  0  0  0  0  0  0  0
    7.6788    8.6703    1.3933 H   0  0  0  0  0  0  0  0  0  0  0  0
    6.0645    6.8514    1.7441 H   0  0  0  0  0  0  0  0  0  0  0  0
    5.3162    7.1555    0.1841 H   0  0  0  0  0  0  0  0  0  0  0  0
    8.3353    1.1917    0.1228 H   0  0  0  0  0  0  0  0  0  0  0  0
    8.0499   -1.2847    0.9134 H   0  0  0  0  0  0  0  0  0  0  0  0
    6.6227   -1.0563   -2.6052 H   0  0  0  0  0  0  0  0  0  0  0  0
    8.0831   -1.0276   -4.5948 H   0  0  0  0  0  0  0  0  0  0  0  0
   10.5385   -1.2740   -4.3476 H   0  0  0  0  0  0  0  0  0  0  0  0
   11.5349   -1.5892   -2.0998 H   0  0  0  0  0  0  0  0  0  0  0  0
   10.1013   -1.6144   -0.0986 H   0  0  0  0  0  0  0  0  0  0  0  0
    6.7304   -3.0275    1.1472 H   0  0  0  0  0  0  0  0  0  0  0  0
    6.8613   -3.3139   -0.5603 H   0  0  0  0  0  0  0  0  0  0  0  0
  1  2  1  0  0  0  0
  1 31  1  0  0  0  0
  1 32  1  0  0  0  0
  1 33  1  0  0  0  0
  2  7  2  0  0  0  0
  2  3  1  0  0  0  0
  3  4  2  0  0  0  0
  3 34  1  0  0  0  0
  4 30  1  0  0  0  0
  4  5  1  0  0  0  0
  5 21  1  0  0  0  0
  5  6  2  0  0  0  0
  6  7  1  0  0  0  0
  6  8  1  0  0  0  0
  7 35  1  0  0  0  0
  8  9  2  0  0  0  0
  8 10  1  0  0  0  0
 10 11  1  0  0  0  0
 10 20  2  0  0  0  0
 11 12  2  0  0  0  0
 11 13  1  0  0  0  0
 13 14  1  0  0  0  0
 13 36  1  0  0  0  0
 14 19  1  0  0  0  0
 14 15  1  0  0  0  0
 14 37  1  0  0  0  0
 15 16  1  0  0  0  0
 15 38  1  0  0  0  0
 15 39  1  0  0  0  0
 16 17  1  0  0  0  0
 16 40  1  0  0  0  0
 16 41  1  0  0  0  0
 17 18  1  0  0  0  0
 17 42  1  0  0  0  0
 17 43  1  0  0  0  0
 18 19  1  0  0  0  0
 18 44  1  0  0  0  0
 18 45  1  0  0  0  0
 19 46  1  0  0  0  0
 19 47  1  0  0  0  0
 20 21  1  0  0  0  0
 20 48  1  0  0  0  0
 21 22  1  0  0  0  0
 22 23  1  0  0  0  0
 22 29  1  0  0  0  0
 22 49  1  1  0  0  0
 23 28  2  0  0  0  0
 23 24  1  0  0  0  0
 24 25  2  0  0  0  0
 24 50  1  0  0  0  0
 25 26  1  0  0  0  0
 25 51  1  0  0  0  0
 26 27  2  0  0  0  0
 26 52  1  0  0  0  0
 27 28  1  0  0  0  0
 27 53  1  0  0  0  0
 28 54  1  0  0  0  0
 29 30  1  0  0  0  0
 29 55  1  0  0  0  0
 29 56  1  0  0  0  0
M  END
$$$$
CHEMBL2163577_6PT0
 OpenBabel12022418123D

 52 55  0  0  1  0  0  0  0  0999 V2000
    1.4722   -0.0583   -1.2451 C   0  0  0  0  0  0  0  0  0  0  0  0
    2.2303    0.0444    0.0768 C   0  0  0  0  0  0  0  0  0  0  0  0
    3.2145    1.2435    0.1848 C   0  0  2  0  0  0  0  0  0  0  0  0
    2.4465    2.5810    0.2148 C   0  0  0  0  0  0  0  0  0  0  0  0
    3.0014    3.7166   -0.4407 O   0  0  0  0  0  0  0  0  0  0  0  0
    3.8106    3.4531   -1.5052 C   0  0  0  0  0  0  0  0  0  0  0  0
    4.0367    4.5300   -2.3715 C   0  0  0  0  0  0  0  0  0  0  0  0
    4.9155    4.4044   -3.4461 C   0  0  0  0  0  0  0  0  0  0  0  0
    5.5786    3.1995   -3.6539 C   0  0  0  0  0  0  0  0  0  0  0  0
    5.3506    2.1226   -2.7875 C   0  0  0  0  0  0  0  0  0  0  0  0
    6.0760    0.8424   -3.0180 C   0  0  0  0  0  0  0  0  0  0  0  0
    6.8246    0.7055   -3.9777 O   0  0  0  0  0  0  0  0  0  0  0  0
    5.8655   -0.2504   -2.0494 C   0  0  0  0  0  0  0  0  0  0  0  0
    6.4215   -1.6253   -2.1411 C   0  0  0  0  0  0  0  0  0  0  0  0
    5.9710   -2.5321   -1.4437 O   0  0  0  0  0  0  0  0  0  0  0  0
    7.4167   -1.8316   -3.0666 N   0  0  0  0  0  0  0  0  0  0  0  0
    7.8481   -3.1913   -3.3714 C   0  0  0  0  0  0  0  0  0  0  0  0
    6.8931   -3.8498   -4.3814 C   0  0  0  0  0  0  0  0  0  0  0  0
    7.3800   -3.8774   -5.8285 C   0  0  0  0  0  0  0  0  0  0  0  0
    8.2565   -5.0963   -6.1147 C   0  0  0  0  0  0  0  0  0  0  0  0
    9.6684   -5.0499   -5.5348 C   0  0  0  0  0  0  0  0  0  0  0  0
    9.7863   -4.6864   -4.0562 C   0  0  0  0  0  0  0  0  0  0  0  0
    9.3337   -3.2586   -3.7370 C   0  0  0  0  0  0  0  0  0  0  0  0
    5.0257   -0.0050   -1.0296 C   0  0  0  0  0  0  0  0  0  0  0  0
    4.2707    1.1405   -0.8378 N   0  0  0  0  0  0  0  0  0  0  0  0
    4.4554    2.2299   -1.7009 C   0  0  0  0  0  0  0  0  0  0  0  0
    0.8811   -0.9805   -1.2592 H   0  0  0  0  0  0  0  0  0  0  0  0
    2.1478   -0.0896   -2.1053 H   0  0  0  0  0  0  0  0  0  0  0  0
    0.7790    0.7755   -1.3827 H   0  0  0  0  0  0  0  0  0  0  0  0
    2.7719   -0.8979    0.2202 H   0  0  0  0  0  0  0  0  0  0  0  0
    1.5065    0.0933    0.8991 H   0  0  0  0  0  0  0  0  0  0  0  0
    3.7140    1.1484    1.1594 H   0  0  0  0  0  0  0  0  0  0  0  0
    2.3483    2.8741    1.2686 H   0  0  0  0  0  0  0  0  0  0  0  0
    1.4136    2.4724   -0.1334 H   0  0  0  0  0  0  0  0  0  0  0  0
    3.5271    5.4755   -2.1999 H   0  0  0  0  0  0  0  0  0  0  0  0
    5.0914    5.2471   -4.1111 H   0  0  0  0  0  0  0  0  0  0  0  0
    6.2760    3.1011   -4.4828 H   0  0  0  0  0  0  0  0  0  0  0  0
    7.6180   -1.0796   -3.7268 H   0  0  0  0  0  0  0  0  0  0  0  0
    7.7396   -3.7608   -2.4344 H   0  0  0  0  0  0  0  0  0  0  0  0
    5.9142   -3.3437   -4.3537 H   0  0  0  0  0  0  0  0  0  0  0  0
    6.6905   -4.8790   -4.0533 H   0  0  0  0  0  0  0  0  0  0  0  0
    7.8866   -2.9471   -6.1053 H   0  0  0  0  0  0  0  0  0  0  0  0
    6.4982   -3.9495   -6.4780 H   0  0  0  0  0  0  0  0  0  0  0  0
    8.3451   -5.2107   -7.2026 H   0  0  0  0  0  0  0  0  0  0  0  0
    7.7486   -6.0022   -5.7604 H   0  0  0  0  0  0  0  0  0  0  0  0
   10.2748   -4.3522   -6.1244 H   0  0  0  0  0  0  0  0  0  0  0  0
   10.1202   -6.0404   -5.6789 H   0  0  0  0  0  0  0  0  0  0  0  0
   10.8436   -4.7785   -3.7788 H   0  0  0  0  0  0  0  0  0  0  0  0
    9.2441   -5.4140   -3.4407 H   0  0  0  0  0  0  0  0  0  0  0  0
    9.9080   -2.8975   -2.8732 H   0  0  0  0  0  0  0  0  0  0  0  0
    9.5788   -2.5745   -4.5566 H   0  0  0  0  0  0  0  0  0  0  0  0
    4.8546   -0.7655   -0.2706 H   0  0  0  0  0  0  0  0  0  0  0  0
  1  2  1  0  0  0  0
  1 27  1  0  0  0  0
  1 28  1  0  0  0  0
  1 29  1  0  0  0  0
  2 30  1  0  0  0  0
  2 31  1  0  0  0  0
  3  2  1  0  0  0  0
  3  4  1  0  0  0  0
  3 25  1  0  0  0  0
  3 32  1  1  0  0  0
  4  5  1  0  0  0  0
  4 33  1  0  0  0  0
  4 34  1  0  0  0  0
  5  6  1  0  0  0  0
  6 26  2  0  0  0  0
  6  7  1  0  0  0  0
  7  8  2  0  0  0  0
  7 35  1  0  0  0  0
  8  9  1  0  0  0  0
  8 36  1  0  0  0  0
  9 10  2  0  0  0  0
  9 37  1  0  0  0  0
 10 26  1  0  0  0  0
 10 11  1  0  0  0  0
 11 12  2  0  0  0  0
 11 13  1  0  0  0  0
 13 14  1  0  0  0  0
 13 24  2  0  0  0  0
 14 15  2  0  0  0  0
 14 16  1  0  0  0  0
 16 17  1  0  0  0  0
 16 38  1  0  0  0  0
 17 23  1  0  0  0  0
 17 18  1  0  0  0  0
 17 39  1  0  0  0  0
 18 19  1  0  0  0  0
 18 40  1  0  0  0  0
 18 41  1  0  0  0  0
 19 20  1  0  0  0  0
 19 42  1  0  0  0  0
 19 43  1  0  0  0  0
 20 21  1  0  0  0  0
 20 44  1  0  0  0  0
 20 45  1  0  0  0  0
 21 22  1  0  0  0  0
 21 46  1  0  0  0  0
 21 47  1  0  0  0  0
 22 23  1  0  0  0  0
 22 48  1  0  0  0  0
 22 49  1  0  0  0  0
 23 50  1  0  0  0  0
 23 51  1  0  0  0  0
 24 25  1  0  0  0  0
 24 52  1  0  0  0  0
 25 26  1  0  0  0  0
M  END
$$$$
CHEMBL4164954_8GUT
 OpenBabel12022418123D

 51 53  0  0  0  0  0  0  0  0999 V2000
   -0.6554    1.2041   -0.1080 C   0  0  0  0  0  0  0  0  0  0  0  0
    0.6785    1.1229   -0.1525 C   0  0  0  0  0  0  0  0  0  0  0  0
    1.3440   -0.0778   -0.0222 N   0  0  0  0  0  0  0  0  0  0  0  0
    0.6586   -1.2648    0.2094 C   0  0  0  0  0  0  0  0  0  0  0  0
    1.2365   -2.3093    0.5157 O   0  0  0  0  0  0  0  0  0  0  0  0
   -0.8434   -1.2303    0.0723 C   0  0  0  0  0  0  0  0  0  0  0  0
   -1.4667   -0.0211   -0.0375 C   0  0  0  0  0  0  0  0  0  0  0  0
   -2.9745    0.1005   -0.1150 C   0  0  0  0  0  0  0  0  0  0  0  0
   -1.6191   -2.5373    0.0436 C   0  0  0  0  0  0  0  0  0  0  0  0
   -2.7629   -2.6099   -0.3977 O   0  0  0  0  0  0  0  0  0  0  0  0
   -0.9614   -3.6474    0.5226 N   0  0  0  0  0  0  0  0  0  0  0  0
   -1.5470   -4.9907    0.5368 C   0  0  0  0  0  0  0  0  0  0  0  0
   -1.3209   -5.7224   -0.8012 C   0  0  0  0  0  0  0  0  0  0  0  0
   -0.2962   -6.8614   -0.8135 C   0  0  0  0  0  0  0  0  0  0  0  0
   -0.8249   -8.1699   -0.2223 C   0  0  0  0  0  0  0  0  0  0  0  0
   -0.8806   -8.2227    1.2999 C   0  0  0  0  0  0  0  0  0  0  0  0
   -1.6885   -7.1109    1.9587 C   0  0  0  0  0  0  0  0  0  0  0  0
   -1.0643   -5.7288    1.7892 C   0  0  0  0  0  0  0  0  0  0  0  0
    2.8071   -0.0793    0.0417 C   0  0  0  0  0  0  0  0  0  0  0  0
    3.4953   -0.2084   -1.2996 C   0  0  0  0  0  0  0  0  0  0  0  0
    3.4170   -1.4037   -2.0365 C   0  0  0  0  0  0  0  0  0  0  0  0
    4.1782   -1.5732   -3.1950 C   0  0  0  0  0  0  0  0  0  0  0  0
    5.0151   -0.5503   -3.6230 C   0  0  0  0  0  0  0  0  0  0  0  0
    5.0792    0.6529   -2.9322 C   0  0  0  0  0  0  0  0  0  0  0  0
    4.3184    0.8282   -1.7746 C   0  0  0  0  0  0  0  0  0  0  0  0
    5.7872   -0.7370   -4.7019 F   0  0  0  0  0  0  0  0  0  0  0  0
   -1.4242    2.9213   -0.1191 Br  0  0  0  0  0  0  0  0  0  0  0  0
    1.3016    2.0110   -0.2390 H   0  0  0  0  0  0  0  0  0  0  0  0
   -3.3567    1.1220   -0.1233 H   0  0  0  0  0  0  0  0  0  0  0  0
   -3.4418   -0.3754    0.7546 H   0  0  0  0  0  0  0  0  0  0  0  0
   -3.3520   -0.3564   -1.0353 H   0  0  0  0  0  0  0  0  0  0  0  0
    0.0270   -3.5526    0.7585 H   0  0  0  0  0  0  0  0  0  0  0  0
   -2.6307   -4.8449    0.6365 H   0  0  0  0  0  0  0  0  0  0  0  0
   -1.0325   -4.9975   -1.5735 H   0  0  0  0  0  0  0  0  0  0  0  0
   -2.2844   -6.1307   -1.1353 H   0  0  0  0  0  0  0  0  0  0  0  0
    0.6428   -6.5614   -0.3359 H   0  0  0  0  0  0  0  0  0  0  0  0
   -0.0506   -7.0658   -1.8643 H   0  0  0  0  0  0  0  0  0  0  0  0
   -0.1706   -8.9864   -0.5554 H   0  0  0  0  0  0  0  0  0  0  0  0
   -1.8170   -8.3927   -0.6341 H   0  0  0  0  0  0  0  0  0  0  0  0
    0.1401   -8.2218    1.7020 H   0  0  0  0  0  0  0  0  0  0  0  0
   -1.3201   -9.1857    1.5912 H   0  0  0  0  0  0  0  0  0  0  0  0
   -1.7339   -7.3318    3.0326 H   0  0  0  0  0  0  0  0  0  0  0  0
   -2.7231   -7.1207    1.5962 H   0  0  0  0  0  0  0  0  0  0  0  0
   -1.3382   -5.1216    2.6625 H   0  0  0  0  0  0  0  0  0  0  0  0
    0.0316   -5.7898    1.8123 H   0  0  0  0  0  0  0  0  0  0  0  0
    3.1534   -0.9039    0.6776 H   0  0  0  0  0  0  0  0  0  0  0  0
    3.1329    0.8359    0.5511 H   0  0  0  0  0  0  0  0  0  0  0  0
    2.7876   -2.2242   -1.6952 H   0  0  0  0  0  0  0  0  0  0  0  0
    4.1404   -2.5046   -3.7502 H   0  0  0  0  0  0  0  0  0  0  0  0
    5.7409    1.4348   -3.2877 H   0  0  0  0  0  0  0  0  0  0  0  0
    4.3965    1.7680   -1.2316 H   0  0  0  0  0  0  0  0  0  0  0  0
  1  7  1  0  0  0  0
  1  2  2  0  0  0  0
  1 27  1  0  0  0  0
  2  3  1  0  0  0  0
  2 28  1  0  0  0  0
  3  4  1  0  0  0  0
  3 19  1  0  0  0  0
  4  5  2  0  0  0  0
  4  6  1  0  0  0  0
  6  7  2  0  0  0  0
  6  9  1  0  0  0  0
  7  8  1  0  0  0  0
  8 29  1  0  0  0  0
  8 30  1  0  0  0  0
  8 31  1  0  0  0  0
  9 10  2  0  0  0  0
  9 11  1  0  0  0  0
 11 12  1  0  0  0  0
 11 32  1  0  0  0  0
 12 18  1  0  0  0  0
 12 13  1  0  0  0  0
 12 33  1  0  0  0  0
 13 14  1  0  0  0  0
 13 34  1  0  0  0  0
 13 35  1  0  0  0  0
 14 15  1  0  0  0  0
 14 36  1  0  0  0  0
 14 37  1  0  0  0  0
 15 16  1  0  0  0  0
 15 38  1  0  0  0  0
 15 39  1  0  0  0  0
 16 17  1  0  0  0  0
 16 40  1  0  0  0  0
 16 41  1  0  0  0  0
 17 18  1  0  0  0  0
 17 42  1  0  0  0  0
 17 43  1  0  0  0  0
 18 44  1  0  0  0  0
 18 45  1  0  0  0  0
 19 20  1  0  0  0  0
 19 46  1  0  0  0  0
 19 47  1  0  0  0  0
 20 25  2  0  0  0  0
 20 21  1  0  0  0  0
 21 22  2  0  0  0  0
 21 48  1  0  0  0  0
 22 23  1  0  0  0  0
 22 49  1  0  0  0  0
 23 24  2  0  0  0  0
 23 26  1  0  0  0  0
 24 25  1  0  0  0  0
 24 50  1  0  0  0  0
 25 51  1  0  0  0  0
M  END
$$$$
CHEMBL3917142_8GUQ
 OpenBabel12022418123D

 59 63  0  0  0  0  0  0  0  0999 V2000
    5.1442    3.1004    2.4266 C   0  0  0  0  0  0  0  0  0  0  0  0
    5.4254    1.6943    2.9445 C   0  0  0  0  0  0  0  0  0  0  0  0
    5.9137    0.7676    1.8324 C   0  0  0  0  0  0  0  0  0  0  0  0
    4.9377    0.7290    0.6454 C   0  0  0  0  0  0  0  0  0  0  0  0
    4.6621    2.1553    0.1357 C   0  0  0  0  0  0  0  0  0  0  0  0
    4.1733    3.0770    1.2518 C   0  0  0  0  0  0  0  0  0  0  0  0
    5.4779   -0.1494   -0.4975 C   0  0  0  0  0  0  0  0  0  0  0  0
    5.6239   -1.5408   -0.1252 N   0  0  0  0  0  0  0  0  0  0  0  0
    4.5965   -2.4562   -0.2134 C   0  0  0  0  0  0  0  0  0  0  0  0
    3.4802   -2.1652   -0.6312 O   0  0  0  0  0  0  0  0  0  0  0  0
    4.9668   -3.8193    0.2317 C   0  0  0  0  0  0  0  0  0  0  0  0
    4.1706   -4.9947    0.2157 C   0  0  0  0  0  0  0  0  0  0  0  0
    4.9579   -5.9991    0.7545 C   0  0  0  0  0  0  0  0  0  0  0  0
    4.5092   -7.3686    1.0603 C   0  0  0  0  0  0  0  0  0  0  0  0
    3.6791   -8.0803    0.1621 C   0  0  0  0  0  0  0  0  0  0  0  0
    3.3041   -7.5706   -1.2180 C   0  0  0  0  0  0  0  0  0  0  0  0
    2.7008   -6.1664   -1.4126 C   0  0  0  0  0  0  0  0  0  0  0  0
    2.7702   -5.1931   -0.2416 C   0  0  0  0  0  0  0  0  0  0  0  0
    3.2803   -9.3915    0.5008 C   0  0  0  0  0  0  0  0  0  0  0  0
    3.6834   -9.9798    1.6984 C   0  0  0  0  0  0  0  0  0  0  0  0
    4.4716   -9.2718    2.5939 C   0  0  0  0  0  0  0  0  0  0  0  0
    4.8579   -7.9657    2.2877 C   0  0  0  0  0  0  0  0  0  0  0  0
    3.2139  -11.5940    2.0628 Cl  0  0  0  0  0  0  0  0  0  0  0  0
    6.1929   -5.4105    1.0253 N   0  0  0  0  0  0  0  0  0  0  0  0
    7.3992   -6.0396    1.4532 C   0  0  0  0  0  0  0  0  0  0  0  0
    8.2962   -5.4110    2.3344 C   0  0  0  0  0  0  0  0  0  0  0  0
    9.4431   -6.0945    2.7661 C   0  0  0  0  0  0  0  0  0  0  0  0
    9.6995   -7.3890    2.3222 C   0  0  0  0  0  0  0  0  0  0  0  0
    8.8311   -8.0129    1.4340 C   0  0  0  0  0  0  0  0  0  0  0  0
    7.6890   -7.3386    0.9923 C   0  0  0  0  0  0  0  0  0  0  0  0
   11.0897   -8.2290    2.8872 Cl  0  0  0  0  0  0  0  0  0  0  0  0
    8.0270   -3.8676    3.0729 Cl  0  0  0  0  0  0  0  0  0  0  0  0
    6.1880   -4.0834    0.7311 N   0  0  0  0  0  0  0  0  0  0  0  0
    4.7321    3.7161    3.2352 H   0  0  0  0  0  0  0  0  0  0  0  0
    6.0847    3.5712    2.1156 H   0  0  0  0  0  0  0  0  0  0  0  0
    4.5124    1.2799    3.3893 H   0  0  0  0  0  0  0  0  0  0  0  0
    6.1765    1.7394    3.7411 H   0  0  0  0  0  0  0  0  0  0  0  0
    6.0477   -0.2389    2.2465 H   0  0  0  0  0  0  0  0  0  0  0  0
    6.9008    1.1046    1.4912 H   0  0  0  0  0  0  0  0  0  0  0  0
    3.9878    0.3027    0.9966 H   0  0  0  0  0  0  0  0  0  0  0  0
    3.9103    2.1298   -0.6623 H   0  0  0  0  0  0  0  0  0  0  0  0
    5.5756    2.5771   -0.3027 H   0  0  0  0  0  0  0  0  0  0  0  0
    4.0450    4.0944    0.8614 H   0  0  0  0  0  0  0  0  0  0  0  0
    3.1881    2.7427    1.5976 H   0  0  0  0  0  0  0  0  0  0  0  0
    6.4612    0.2033   -0.8271 H   0  0  0  0  0  0  0  0  0  0  0  0
    4.8003   -0.0936   -1.3578 H   0  0  0  0  0  0  0  0  0  0  0  0
    6.4912   -1.8877    0.2776 H   0  0  0  0  0  0  0  0  0  0  0  0
    2.5870   -8.2713   -1.6690 H   0  0  0  0  0  0  0  0  0  0  0  0
    4.2033   -7.6589   -1.8419 H   0  0  0  0  0  0  0  0  0  0  0  0
    1.6481   -6.2730   -1.7038 H   0  0  0  0  0  0  0  0  0  0  0  0
    3.1955   -5.7126   -2.2839 H   0  0  0  0  0  0  0  0  0  0  0  0
    2.3087   -4.2500   -0.5449 H   0  0  0  0  0  0  0  0  0  0  0  0
    2.1595   -5.5677    0.5912 H   0  0  0  0  0  0  0  0  0  0  0  0
    2.6641   -9.9692   -0.1860 H   0  0  0  0  0  0  0  0  0  0  0  0
    4.7905   -9.7249    3.5290 H   0  0  0  0  0  0  0  0  0  0  0  0
    5.4500   -7.4247    3.0230 H   0  0  0  0  0  0  0  0  0  0  0  0
   10.1246   -5.6242    3.4721 H   0  0  0  0  0  0  0  0  0  0  0  0
    9.0306   -9.0227    1.0833 H   0  0  0  0  0  0  0  0  0  0  0  0
    7.0498   -7.8424    0.2701 H   0  0  0  0  0  0  0  0  0  0  0  0
  1  6  1  0  0  0  0
  1  2  1  0  0  0  0
  1 34  1  0  0  0  0
  1 35  1  0  0  0  0
  2  3  1  0  0  0  0
  2 36  1  0  0  0  0
  2 37  1  0  0  0  0
  3  4  1  0  0  0  0
  3 38  1  0  0  0  0
  3 39  1  0  0  0  0
  4  5  1  0  0  0  0
  4  7  1  0  0  0  0
  4 40  1  0  0  0  0
  5  6  1  0  0  0  0
  5 41  1  0  0  0  0
  5 42  1  0  0  0  0
  6 43  1  0  0  0  0
  6 44  1  0  0  0  0
  7  8  1  0  0  0  0
  7 45  1  0  0  0  0
  7 46  1  0  0  0  0
  8  9  1  0  0  0  0
  8 47  1  0  0  0  0
  9 10  2  0  0  0  0
  9 11  1  0  0  0  0
 11 33  2  0  0  0  0
 11 12  1  0  0  0  0
 12 18  1  0  0  0  0
 12 13  2  0  0  0  0
 13 14  1  0  0  0  0
 13 24  1  0  0  0  0
 14 22  2  0  0  0  0
 14 15  1  0  0  0  0
 15 16  1  0  0  0  0
 15 19  2  0  0  0  0
 16 17  1  0  0  0  0
 16 48  1  0  0  0  0
 16 49  1  0  0  0  0
 17 18  1  0  0  0  0
 17 50  1  0  0  0  0
 17 51  1  0  0  0  0
 18 52  1  0  0  0  0
 18 53  1  0  0  0  0
 19 20  1  0  0  0  0
 19 54  1  0  0  0  0
 20 21  2  0  0  0  0
 20 23  1  0  0  0  0
 21 22  1  0  0  0  0
 21 55  1  0  0  0  0
 22 56  1  0  0  0  0
 24 25  1  0  0  0  0
 24 33  1  0  0  0  0
 25 30  2  0  0  0  0
 25 26  1  0  0  0  0
 26 27  2  0  0  0  0
 26 32  1  0  0  0  0
 27 28  1  0  0  0  0
 27 57  1  0  0  0  0
 28 29  2  0  0  0  0
 28 31  1  0  0  0  0
 29 30  1  0  0  0  0
 29 58  1  0  0  0  0
 30 59  1  0  0  0  0
M  END
$$$$
CHEMBL1224631_5ZTY
 OpenBabel12022418123D

 66 69  0  0  1  0  0  0  0  0999 V2000
   14.3214    6.6313  -10.0901 C   0  0  0  0  0  0  0  0  0  0  0  0
   15.6165    5.8422  -10.1983 C   0  0  0  0  0  0  0  0  0  0  0  0
   16.2997    5.7036   -8.8398 C   0  0  0  0  0  0  0  0  0  0  0  0
   17.6018    4.9039   -8.9442 C   0  0  0  0  0  0  0  0  0  0  0  0
   18.2929    4.7671   -7.5876 C   0  0  0  0  0  0  0  0  0  0  0  0
   17.4337    4.0470   -6.5866 C   0  0  0  0  0  0  0  0  0  0  0  0
   17.0190    2.8252   -6.7616 N   0  0  0  0  0  0  0  0  0  0  0  0
   16.2477    2.4943   -5.6676 N   0  0  0  0  0  0  0  0  0  0  0  0
   15.7290    1.2084   -5.5591 C   0  0  0  0  0  0  0  0  0  0  0  0
   15.9243    0.3268   -6.3987 O   0  0  0  0  0  0  0  0  0  0  0  0
   14.9517    0.9841   -4.4419 N   0  0  0  0  0  0  0  0  0  0  0  0
   14.3795   -0.3278   -4.1947 C   0  0  0  0  0  0  0  0  0  0  0  0
   12.8422   -0.3062   -4.0920 C   0  0  2  0  0  0  0  0  0  0  0  0
   12.3024    0.5874   -2.9454 C   0  0  0  0  0  0  0  0  0  0  0  0
   11.1979   -0.0244   -2.0586 C   0  0  0  0  0  0  0  0  0  0  0  0
   10.9663   -1.5068   -2.3550 C   0  0  1  0  0  0  0  0  0  0  0  0
   10.7465   -1.6992   -3.8780 C   0  0  0  0  0  0  0  0  0  0  0  0
   12.3050   -1.7454   -3.9599 C   0  0  2  0  0  0  0  0  0  0  0  0
   12.2608   -2.3953   -2.5106 C   0  0  0  0  0  0  0  0  0  0  0  0
   12.0089   -3.9154   -2.5062 C   0  0  0  0  0  0  0  0  0  0  0  0
   13.4000   -2.1172   -1.5272 C   0  0  0  0  0  0  0  0  0  0  0  0
   16.0699    3.6204   -4.7566 C   0  0  0  0  0  0  0  0  0  0  0  0
   17.0072    4.7006   -5.2999 C   0  0  1  0  0  0  0  0  0  0  0  0
   18.1810    4.9871   -4.3910 C   0  0  0  0  0  0  0  0  0  0  0  0
   18.9673    3.9384   -3.8874 C   0  0  0  0  0  0  0  0  0  0  0  0
   19.9809    4.1899   -2.9778 C   0  0  0  0  0  0  0  0  0  0  0  0
   20.2540    5.4952   -2.5681 C   0  0  0  0  0  0  0  0  0  0  0  0
   19.5134    6.5553   -3.0939 C   0  0  0  0  0  0  0  0  0  0  0  0
   18.4836    6.3035   -4.0044 C   0  0  0  0  0  0  0  0  0  0  0  0
   13.8465    6.7167  -11.0721 H   0  0  0  0  0  0  0  0  0  0  0  0
   14.5079    7.6423   -9.7141 H   0  0  0  0  0  0  0  0  0  0  0  0
   13.6164    6.1375   -9.4137 H   0  0  0  0  0  0  0  0  0  0  0  0
   16.2875    6.3469  -10.9028 H   0  0  0  0  0  0  0  0  0  0  0  0
   15.4001    4.8497  -10.6097 H   0  0  0  0  0  0  0  0  0  0  0  0
   15.6165    5.2080   -8.1406 H   0  0  0  0  0  0  0  0  0  0  0  0
   16.5148    6.6982   -8.4308 H   0  0  0  0  0  0  0  0  0  0  0  0
   18.2770    5.4087   -9.6474 H   0  0  0  0  0  0  0  0  0  0  0  0
   17.3969    3.9120   -9.3608 H   0  0  0  0  0  0  0  0  0  0  0  0
   18.5422    5.7564   -7.1910 H   0  0  0  0  0  0  0  0  0  0  0  0
   19.2325    4.2118   -7.6973 H   0  0  0  0  0  0  0  0  0  0  0  0
   15.0294    1.6199   -3.6623 H   0  0  0  0  0  0  0  0  0  0  0  0
   14.8441   -0.7229   -3.2867 H   0  0  0  0  0  0  0  0  0  0  0  0
   14.6731   -1.0081   -5.0025 H   0  0  0  0  0  0  0  0  0  0  0  0
   12.4668    0.1084   -5.0386 H   0  0  0  0  0  0  0  0  0  0  0  0
   11.9158    1.5187   -3.3845 H   0  0  0  0  0  0  0  0  0  0  0  0
   13.1191    0.9147   -2.2938 H   0  0  0  0  0  0  0  0  0  0  0  0
   10.2613    0.5291   -2.2005 H   0  0  0  0  0  0  0  0  0  0  0  0
   11.4684    0.1032   -1.0035 H   0  0  0  0  0  0  0  0  0  0  0  0
   10.1838   -1.9353   -1.7203 H   0  0  0  0  0  0  0  0  0  0  0  0
   10.2441   -0.8821   -4.4073 H   0  0  0  0  0  0  0  0  0  0  0  0
   10.2282   -2.6225   -4.1594 H   0  0  0  0  0  0  0  0  0  0  0  0
   12.6752   -2.4045   -4.7540 H   0  0  0  0  0  0  0  0  0  0  0  0
   11.1899   -4.2233   -3.1612 H   0  0  0  0  0  0  0  0  0  0  0  0
   11.7615   -4.2597   -1.4957 H   0  0  0  0  0  0  0  0  0  0  0  0
   12.9061   -4.4516   -2.8353 H   0  0  0  0  0  0  0  0  0  0  0  0
   13.6519   -1.0611   -1.4309 H   0  0  0  0  0  0  0  0  0  0  0  0
   14.3115   -2.6408   -1.8350 H   0  0  0  0  0  0  0  0  0  0  0  0
   13.1368   -2.4627   -0.5216 H   0  0  0  0  0  0  0  0  0  0  0  0
   16.2897    3.3092   -3.7317 H   0  0  0  0  0  0  0  0  0  0  0  0
   15.0218    3.9303   -4.8004 H   0  0  0  0  0  0  0  0  0  0  0  0
   16.4418    5.6164   -5.5167 H   0  0  0  0  0  0  0  0  0  0  0  0
   18.7658    2.9079   -4.1859 H   0  0  0  0  0  0  0  0  0  0  0  0
   20.5598    3.3616   -2.5665 H   0  0  0  0  0  0  0  0  0  0  0  0
   21.0321    5.6854   -1.8375 H   0  0  0  0  0  0  0  0  0  0  0  0
   19.7203    7.5701   -2.7722 H   0  0  0  0  0  0  0  0  0  0  0  0
   17.9064    7.1447   -4.3786 H   0  0  0  0  0  0  0  0  0  0  0  0
  1  2  1  0  0  0  0
  1 30  1  0  0  0  0
  1 31  1  0  0  0  0
  1 32  1  0  0  0  0
  2  3  1  0  0  0  0
  2 33  1  0  0  0  0
  2 34  1  0  0  0  0
  3  4  1  0  0  0  0
  3 35  1  0  0  0  0
  3 36  1  0  0  0  0
  4  5  1  0  0  0  0
  4 37  1  0  0  0  0
  4 38  1  0  0  0  0
  5  6  1  0  0  0  0
  5 39  1  0  0  0  0
  5 40  1  0  0  0  0
  6 23  1  0  0  0  0
  6  7  2  0  0  0  0
  7  8  1  0  0  0  0
  8  9  1  0  0  0  0
  8 22  1  0  0  0  0
  9 10  2  0  0  0  0
  9 11  1  0  0  0  0
 11 12  1  0  0  0  0
 11 41  1  0  0  0  0
 12 42  1  0  0  0  0
 12 43  1  0  0  0  0
 13 14  1  0  0  0  0
 13 18  1  0  0  0  0
 13 12  1  0  0  0  0
 13 44  1  6  0  0  0
 14 15  1  0  0  0  0
 14 45  1  0  0  0  0
 14 46  1  0  0  0  0
 15 47  1  0  0  0  0
 15 48  1  0  0  0  0
 16 15  1  0  0  0  0
 16 17  1  0  0  0  0
 16 19  1  0  0  0  0
 16 49  1  1  0  0  0
 17 50  1  0  0  0  0
 17 51  1  0  0  0  0
 18 17  1  0  0  0  0
 18 19  1  0  0  0  0
 18 52  1  6  0  0  0
 19 20  1  0  0  0  0
 19 21  1  0  0  0  0
 20 53  1  0  0  0  0
 20 54  1  0  0  0  0
 20 55  1  0  0  0  0
 21 56  1  0  0  0  0
 21 57  1  0  0  0  0
 21 58  1  0  0  0  0
 22 23  1  0  0  0  0
 22 59  1  0  0  0  0
 22 60  1  0  0  0  0
 23 24  1  0  0  0  0
 23 61  1  6  0  0  0
 24 29  2  0  0  0  0
 24 25  1  0  0  0  0
 25 26  2  0  0  0  0
 25 62  1  0  0  0  0
 26 27  1  0  0  0  0
 26 63  1  0  0  0  0
 27 28  2  0  0  0  0
 27 64  1  0  0  0  0
 28 29  1  0  0  0  0
 28 65  1  0  0  0  0
 29 66  1  0  0  0  0
M  END
$$$$
CHEMBL2087102_5ZTY
 OpenBabel12022418123D

 63 68  0  0  1  0  0  0  0  0999 V2000
    1.4851   -0.4765   -1.4768 C   0  0  0  0  0  0  0  0  0  0  0  0
    2.5074   -1.2470   -1.0779 C   0  0  0  0  0  0  0  0  0  0  0  0
    3.1609   -1.1579    0.2723 C   0  0  0  0  0  0  0  0  0  0  0  0
    4.5958   -0.9091    0.1602 N   0  0  0  0  0  0  0  0  0  0  0  0
    5.1620    0.3383    0.0971 C   0  0  0  0  0  0  0  0  0  0  0  0
    6.5314    0.2035   -0.0685 C   0  0  0  0  0  0  0  0  0  0  0  0
    7.4857    1.3010   -0.2699 C   0  0  0  0  0  0  0  0  0  0  0  0
    8.7069    1.1536   -0.2485 O   0  0  0  0  0  0  0  0  0  0  0  0
    6.9576    2.6993   -0.6135 C   0  0  0  0  0  0  0  0  0  0  0  0
    6.1118    3.2078    0.1109 O   0  0  0  0  0  0  0  0  0  0  0  0
    7.4619    3.2653   -1.7838 N   0  0  0  0  0  0  0  0  0  0  0  0
    6.8921    4.4894   -2.3650 C   0  0  2  0  0  0  0  0  0  0  0  0
    7.5929    4.9031   -3.6936 C   0  0  0  0  0  0  0  0  0  0  0  0
    6.9429    6.1866   -4.2755 C   0  0  1  0  0  0  0  0  0  0  0  0
    5.4510    5.9353   -4.5503 C   0  0  0  0  0  0  0  0  0  0  0  0
    4.7442    5.5280   -3.2502 C   0  0  2  0  0  0  0  0  0  0  0  0
    4.8914    6.6364   -2.1949 C   0  0  0  0  0  0  0  0  0  0  0  0
    6.3777    6.9409   -1.9444 C   0  0  2  0  0  0  0  0  0  0  0  0
    7.0530    7.3399   -3.2635 C   0  0  0  0  0  0  0  0  0  0  0  0
    7.0609    5.6837   -1.3926 C   0  0  0  0  0  0  0  0  0  0  0  0
    5.3954    4.2513   -2.7101 C   0  0  0  0  0  0  0  0  0  0  0  0
    6.8029   -1.2025   -0.0086 C   0  0  0  0  0  0  0  0  0  0  0  0
    7.9837   -1.9868   -0.0731 C   0  0  0  0  0  0  0  0  0  0  0  0
    7.9434   -3.3978   -0.0045 C   0  0  0  0  0  0  0  0  0  0  0  0
    9.1822   -4.2127   -0.0320 C   0  0  0  0  0  0  0  0  0  0  0  0
    9.2101   -5.4857   -0.6339 C   0  0  0  0  0  0  0  0  0  0  0  0
   10.3643   -6.2755   -0.6280 C   0  0  0  0  0  0  0  0  0  0  0  0
   11.5282   -5.8019   -0.0332 C   0  0  0  0  0  0  0  0  0  0  0  0
   11.5358   -4.5422    0.5567 C   0  0  0  0  0  0  0  0  0  0  0  0
   10.3751   -3.7607    0.5613 C   0  0  0  0  0  0  0  0  0  0  0  0
    6.6832   -4.0043    0.1061 C   0  0  0  0  0  0  0  0  0  0  0  0
    5.4943   -3.2685    0.1535 C   0  0  0  0  0  0  0  0  0  0  0  0
    5.5791   -1.8716    0.1118 C   0  0  0  0  0  0  0  0  0  0  0  0
    1.0547   -0.5943   -2.4672 H   0  0  0  0  0  0  0  0  0  0  0  0
    1.0557    0.2857   -0.8331 H   0  0  0  0  0  0  0  0  0  0  0  0
    2.9005   -1.9954   -1.7634 H   0  0  0  0  0  0  0  0  0  0  0  0
    3.0178   -2.0946    0.8209 H   0  0  0  0  0  0  0  0  0  0  0  0
    2.7361   -0.3533    0.8828 H   0  0  0  0  0  0  0  0  0  0  0  0
    4.5389    1.2213    0.1606 H   0  0  0  0  0  0  0  0  0  0  0  0
    8.2533    2.8066   -2.2249 H   0  0  0  0  0  0  0  0  0  0  0  0
    7.5280    4.0930   -4.4319 H   0  0  0  0  0  0  0  0  0  0  0  0
    8.6632    5.0796   -3.5241 H   0  0  0  0  0  0  0  0  0  0  0  0
    7.4437    6.4702   -5.2082 H   0  0  0  0  0  0  0  0  0  0  0  0
    5.3359    5.1491   -5.3062 H   0  0  0  0  0  0  0  0  0  0  0  0
    4.9824    6.8395   -4.9593 H   0  0  0  0  0  0  0  0  0  0  0  0
    3.6827    5.3435   -3.4489 H   0  0  0  0  0  0  0  0  0  0  0  0
    4.4136    6.3222   -1.2578 H   0  0  0  0  0  0  0  0  0  0  0  0
    4.3734    7.5427   -2.5283 H   0  0  0  0  0  0  0  0  0  0  0  0
    6.4713    7.7555   -1.2180 H   0  0  0  0  0  0  0  0  0  0  0  0
    6.5736    8.2424   -3.6647 H   0  0  0  0  0  0  0  0  0  0  0  0
    8.1059    7.5909   -3.0901 H   0  0  0  0  0  0  0  0  0  0  0  0
    8.1304    5.8790   -1.2313 H   0  0  0  0  0  0  0  0  0  0  0  0
    6.6453    5.4646   -0.4050 H   0  0  0  0  0  0  0  0  0  0  0  0
    4.8287    3.9148   -1.8359 H   0  0  0  0  0  0  0  0  0  0  0  0
    5.3087    3.4448   -3.4521 H   0  0  0  0  0  0  0  0  0  0  0  0
    8.9348   -1.4701   -0.1764 H   0  0  0  0  0  0  0  0  0  0  0  0
    8.3248   -5.8830   -1.1253 H   0  0  0  0  0  0  0  0  0  0  0  0
   10.3492   -7.2594   -1.0894 H   0  0  0  0  0  0  0  0  0  0  0  0
   12.4267   -6.4125   -0.0290 H   0  0  0  0  0  0  0  0  0  0  0  0
   12.4426   -4.1650    1.0223 H   0  0  0  0  0  0  0  0  0  0  0  0
   10.4134   -2.7917    1.0548 H   0  0  0  0  0  0  0  0  0  0  0  0
    6.6015   -5.0876    0.1758 H   0  0  0  0  0  0  0  0  0  0  0  0
    4.5413   -3.7825    0.2251 H   0  0  0  0  0  0  0  0  0  0  0  0
  1  2  2  0  0  0  0
  1 34  1  0  0  0  0
  1 35  1  0  0  0  0
  2  3  1  0  0  0  0
  2 36  1  0  0  0  0
  3  4  1  0  0  0  0
  3 37  1  0  0  0  0
  3 38  1  0  0  0  0
  4 33  1  0  0  0  0
  4  5  1  0  0  0  0
  5  6  2  0  0  0  0
  5 39  1  0  0  0  0
  6  7  1  0  0  0  0
  6 22  1  0  0  0  0
  7  8  2  0  0  0  0
  7  9  1  0  0  0  0
  9 10  2  0  0  0  0
  9 11  1  0  0  0  0
 11 40  1  0  0  0  0
 12 11  1  1  0  0  0
 12 20  1  0  0  0  0
 12 21  1  0  0  0  0
 12 13  1  0  0  0  0
 13 41  1  0  0  0  0
 13 42  1  0  0  0  0
 14 13  1  0  0  0  0
 14 15  1  0  0  0  0
 14 19  1  0  0  0  0
 14 43  1  6  0  0  0
 15 44  1  0  0  0  0
 15 45  1  0  0  0  0
 16 15  1  0  0  0  0
 16 17  1  0  0  0  0
 16 21  1  0  0  0  0
 16 46  1  6  0  0  0
 17 47  1  0  0  0  0
 17 48  1  0  0  0  0
 18 17  1  0  0  0  0
 18 19  1  0  0  0  0
 18 20  1  0  0  0  0
 18 49  1  1  0  0  0
 19 50  1  0  0  0  0
 19 51  1  0  0  0  0
 20 52  1  0  0  0  0
 20 53  1  0  0  0  0
 21 54  1  0  0  0  0
 21 55  1  0  0  0  0
 22 33  2  0  0  0  0
 22 23  1  0  0  0  0
 23 24  2  0  0  0  0
 23 56  1  0  0  0  0
 24 25  1  0  0  0  0
 24 31  1  0  0  0  0
 25 30  2  0  0  0  0
 25 26  1  0  0  0  0
 26 27  2  0  0  0  0
 26 57  1  0  0  0  0
 27 28  1  0  0  0  0
 27 58  1  0  0  0  0
 28 29  2  0  0  0  0
 28 59  1  0  0  0  0
 29 30  1  0  0  0  0
 29 60  1  0  0  0  0
 30 61  1  0  0  0  0
 31 32  2  0  0  0  0
 31 62  1  0  0  0  0
 32 33  1  0  0  0  0
 32 63  1  0  0  0  0
M  END
$$$$
CHEMBL2019086_8GUT
 OpenBabel12022418123D

 64 67  0  0  0  0  0  0  0  0999 V2000
   -1.4925    0.3024   -0.4156 C   0  0  0  0  0  0  0  0  0  0  0  0
   -0.6682    1.6115   -0.3074 C   0  0  0  0  0  0  0  0  0  0  0  0
    0.8278    1.4245   -0.5783 C   0  0  0  0  0  0  0  0  0  0  0  0
    1.4399    0.3496    0.3078 C   0  0  0  0  0  0  0  0  0  0  0  0
    0.6782   -0.9615    0.2074 C   0  0  0  0  0  0  0  0  0  0  0  0
   -0.8153   -0.7856    0.4566 C   0  0  0  0  0  0  0  0  0  0  0  0
   -1.5894   -0.1293   -1.9132 C   0  0  0  0  0  0  0  0  0  0  0  0
   -1.0913    0.4860   -2.8476 O   0  0  0  0  0  0  0  0  0  0  0  0
   -2.2858   -1.2706   -2.1346 O   0  0  0  0  0  0  0  0  0  0  0  0
   -2.8666    0.5857    0.0826 N   0  0  0  0  0  0  0  0  0  0  0  0
   -3.8070   -0.3710    0.3306 C   0  0  0  0  0  0  0  0  0  0  0  0
   -3.5958   -1.5574    0.0657 O   0  0  0  0  0  0  0  0  0  0  0  0
   -5.1192    0.0720    0.8740 C   0  0  0  0  0  0  0  0  0  0  0  0
   -5.6081    1.4747    0.8765 C   0  0  0  0  0  0  0  0  0  0  0  0
   -4.8405    2.3785    0.5437 O   0  0  0  0  0  0  0  0  0  0  0  0
   -6.9480    1.6771    1.2491 N   0  0  0  0  0  0  0  0  0  0  0  0
   -7.4067    3.0747    1.2592 C   0  0  0  0  0  0  0  0  0  0  0  0
   -8.2183    3.5159    0.0540 C   0  0  0  0  0  0  0  0  0  0  0  0
   -8.8865    4.7535    0.1136 C   0  0  0  0  0  0  0  0  0  0  0  0
   -9.7623    5.1386   -0.9026 C   0  0  0  0  0  0  0  0  0  0  0  0
   -9.9600    4.2971   -1.9889 C   0  0  0  0  0  0  0  0  0  0  0  0
   -9.2565    3.1057   -2.1052 C   0  0  0  0  0  0  0  0  0  0  0  0
   -8.3727    2.7239   -1.0946 C   0  0  0  0  0  0  0  0  0  0  0  0
  -10.8492    4.6340   -2.9319 F   0  0  0  0  0  0  0  0  0  0  0  0
   -7.7787    0.6190    1.6801 C   0  0  0  0  0  0  0  0  0  0  0  0
   -7.2544   -0.6198    1.8245 C   0  0  0  0  0  0  0  0  0  0  0  0
   -5.9102   -0.8876    1.3746 C   0  0  0  0  0  0  0  0  0  0  0  0
   -7.9903   -1.7927    2.4246 C   0  0  0  0  0  0  0  0  0  0  0  0
   -8.5467   -2.8252    1.4437 C   0  0  0  0  0  0  0  0  0  0  0  0
   -9.3673   -2.3823    0.2231 C   0  0  0  0  0  0  0  0  0  0  0  0
   -9.6716   -0.9019   -0.0214 C   0  0  0  0  0  0  0  0  0  0  0  0
  -10.2326   -0.1575    1.1956 C   0  0  0  0  0  0  0  0  0  0  0  0
   -9.2721    0.8454    1.8901 C   0  0  0  0  0  0  0  0  0  0  0  0
   -0.7835    2.0281    0.7030 H   0  0  0  0  0  0  0  0  0  0  0  0
   -1.0626    2.3724   -0.9932 H   0  0  0  0  0  0  0  0  0  0  0  0
    1.3497    2.3733   -0.4102 H   0  0  0  0  0  0  0  0  0  0  0  0
    0.9954    1.1634   -1.6291 H   0  0  0  0  0  0  0  0  0  0  0  0
    1.4446    0.6927    1.3493 H   0  0  0  0  0  0  0  0  0  0  0  0
    2.4853    0.1855    0.0223 H   0  0  0  0  0  0  0  0  0  0  0  0
    1.0805   -1.6701    0.9418 H   0  0  0  0  0  0  0  0  0  0  0  0
    0.8354   -1.4101   -0.7803 H   0  0  0  0  0  0  0  0  0  0  0  0
   -1.2767   -1.7678    0.3143 H   0  0  0  0  0  0  0  0  0  0  0  0
   -0.9656   -0.5334    1.5155 H   0  0  0  0  0  0  0  0  0  0  0  0
   -2.7106   -1.6306   -1.3188 H   0  0  0  0  0  0  0  0  0  0  0  0
   -3.1637    1.5614    0.1507 H   0  0  0  0  0  0  0  0  0  0  0  0
   -6.5487    3.7507    1.3568 H   0  0  0  0  0  0  0  0  0  0  0  0
   -8.0022    3.2235    2.1703 H   0  0  0  0  0  0  0  0  0  0  0  0
   -8.7479    5.4137    0.9681 H   0  0  0  0  0  0  0  0  0  0  0  0
  -10.3049    6.0767   -0.8441 H   0  0  0  0  0  0  0  0  0  0  0  0
   -9.4120    2.4713   -2.9719 H   0  0  0  0  0  0  0  0  0  0  0  0
   -7.8353    1.7853   -1.2019 H   0  0  0  0  0  0  0  0  0  0  0  0
   -5.5805   -1.9248    1.3851 H   0  0  0  0  0  0  0  0  0  0  0  0
   -8.7917   -1.4506    3.0890 H   0  0  0  0  0  0  0  0  0  0  0  0
   -7.3064   -2.3145    3.1104 H   0  0  0  0  0  0  0  0  0  0  0  0
   -9.1746   -3.5114    2.0297 H   0  0  0  0  0  0  0  0  0  0  0  0
   -7.7196   -3.4533    1.0871 H   0  0  0  0  0  0  0  0  0  0  0  0
  -10.3252   -2.9194    0.2571 H   0  0  0  0  0  0  0  0  0  0  0  0
   -8.8675   -2.7702   -0.6753 H   0  0  0  0  0  0  0  0  0  0  0  0
  -10.4230   -0.8626   -0.8217 H   0  0  0  0  0  0  0  0  0  0  0  0
   -8.7959   -0.4052   -0.4505 H   0  0  0  0  0  0  0  0  0  0  0  0
  -10.6276   -0.8693    1.9303 H   0  0  0  0  0  0  0  0  0  0  0  0
  -11.1124    0.4123    0.8673 H   0  0  0  0  0  0  0  0  0  0  0  0
   -9.5814    1.8288    1.5317 H   0  0  0  0  0  0  0  0  0  0  0  0
   -9.4851    0.8642    2.9666 H   0  0  0  0  0  0  0  0  0  0  0  0
  1  6  1  0  0  0  0
  1  2  1  0  0  0  0
  1  7  1  0  0  0  0
  1 10  1  0  0  0  0
  2  3  1  0  0  0  0
  2 34  1  0  0  0  0
  2 35  1  0  0  0  0
  3  4  1  0  0  0  0
  3 36  1  0  0  0  0
  3 37  1  0  0  0  0
  4  5  1  0  0  0  0
  4 38  1  0  0  0  0
  4 39  1  0  0  0  0
  5  6  1  0  0  0  0
  5 40  1  0  0  0  0
  5 41  1  0  0  0  0
  6 42  1  0  0  0  0
  6 43  1  0  0  0  0
  7  8  2  0  0  0  0
  7  9  1  0  0  0  0
  9 44  1  0  0  0  0
 10 11  1  0  0  0  0
 10 45  1  0  0  0  0
 11 12  2  0  0  0  0
 11 13  1  0  0  0  0
 13 27  2  0  0  0  0
 13 14  1  0  0  0  0
 14 15  2  0  0  0  0
 14 16  1  0  0  0  0
 16 17  1  0  0  0  0
 16 25  1  0  0  0  0
 17 18  1  0  0  0  0
 17 46  1  0  0  0  0
 17 47  1  0  0  0  0
 18 23  2  0  0  0  0
 18 19  1  0  0  0  0
 19 20  2  0  0  0  0
 19 48  1  0  0  0  0
 20 21  1  0  0  0  0
 20 49  1  0  0  0  0
 21 22  2  0  0  0  0
 21 24  1  0  0  0  0
 22 23  1  0  0  0  0
 22 50  1  0  0  0  0
 23 51  1  0  0  0  0
 25 33  1  0  0  0  0
 25 26  2  0  0  0  0
 26 27  1  0  0  0  0
 26 28  1  0  0  0  0
 27 52  1  0  0  0  0
 28 29  1  0  0  0  0
 28 53  1  0  0  0  0
 28 54  1  0  0  0  0
 29 30  1  0  0  0  0
 29 55  1  0  0  0  0
 29 56  1  0  0  0  0
 30 31  1  0  0  0  0
 30 57  1  0  0  0  0
 30 58  1  0  0  0  0
 31 32  1  0  0  0  0
 31 59  1  0  0  0  0
 31 60  1  0  0  0  0
 32 33  1  0  0  0  0
 32 61  1  0  0  0  0
 32 62  1  0  0  0  0
 33 63  1  0  0  0  0
 33 64  1  0  0  0  0
M  END
$$$$
CHEMBL1909846_5ZTY
 OpenBabel12022418123D

 50 53  0  0  0  0  0  0  0  0999 V2000
    1.1702    0.3679    0.1038 C   0  0  0  0  0  0  0  0  0  0  0  0
    2.6317    0.1051   -0.0176 C   0  0  0  0  0  0  0  0  0  0  0  0
    3.6364    1.1281   -0.0033 C   0  0  0  0  0  0  0  0  0  0  0  0
    3.4553    2.6098    0.0387 C   0  0  0  0  0  0  0  0  0  0  0  0
    2.3541    3.1468   -0.0240 O   0  0  0  0  0  0  0  0  0  0  0  0
    4.6417    3.3092    0.1521 N   0  0  0  0  0  0  0  0  0  0  0  0
    4.8083    4.7631    0.1906 C   0  0  0  0  0  0  0  0  0  0  0  0
    4.4368    5.4551   -1.1295 C   0  0  0  0  0  0  0  0  0  0  0  0
    4.7329    6.9580   -1.0780 C   0  0  0  0  0  0  0  0  0  0  0  0
    4.0553    7.6356    0.1101 C   0  0  0  0  0  0  0  0  0  0  0  0
    4.3982    6.9404    1.4250 C   0  0  0  0  0  0  0  0  0  0  0  0
    4.0994    5.4382    1.3749 C   0  0  0  0  0  0  0  0  0  0  0  0
    4.8641    0.5863   -0.0042 N   0  0  0  0  0  0  0  0  0  0  0  0
    4.6860   -0.7579   -0.0697 N   0  0  0  0  0  0  0  0  0  0  0  0
    5.8325   -1.5574   -0.3517 C   0  0  0  0  0  0  0  0  0  0  0  0
    5.7498   -2.5752   -1.3167 C   0  0  0  0  0  0  0  0  0  0  0  0
    6.8681   -3.3673   -1.6009 C   0  0  0  0  0  0  0  0  0  0  0  0
    8.0694   -3.1389   -0.9334 C   0  0  0  0  0  0  0  0  0  0  0  0
    8.1642   -2.1359    0.0261 C   0  0  0  0  0  0  0  0  0  0  0  0
    7.0501   -1.3418    0.3248 C   0  0  0  0  0  0  0  0  0  0  0  0
    7.2382   -0.2449    1.6523 Cl  0  0  0  0  0  0  0  0  0  0  0  0
    9.4425   -4.1122   -1.2881 Cl  0  0  0  0  0  0  0  0  0  0  0  0
    3.3371   -1.0985   -0.0593 C   0  0  0  0  0  0  0  0  0  0  0  0
    2.8242   -2.4188    0.0018 N   0  0  0  0  0  0  0  0  0  0  0  0
    3.2905   -3.5019    0.7525 C   0  0  0  0  0  0  0  0  0  0  0  0
    2.5109   -4.6185    0.5621 C   0  0  0  0  0  0  0  0  0  0  0  0
    1.4660   -4.2393   -0.2964 C   0  0  0  0  0  0  0  0  0  0  0  0
    1.7123   -2.9382   -0.6636 C   0  0  0  0  0  0  0  0  0  0  0  0
    0.9064   -2.0936   -1.9175 Cl  0  0  0  0  0  0  0  0  0  0  0  0
    4.5639   -3.3786    1.8906 Cl  0  0  0  0  0  0  0  0  0  0  0  0
    0.6111   -0.5196    0.4089 H   0  0  0  0  0  0  0  0  0  0  0  0
    0.7690    0.7355   -0.8464 H   0  0  0  0  0  0  0  0  0  0  0  0
    0.9768    1.1245    0.8705 H   0  0  0  0  0  0  0  0  0  0  0  0
    5.4695    2.7199    0.1646 H   0  0  0  0  0  0  0  0  0  0  0  0
    5.8883    4.9018    0.3378 H   0  0  0  0  0  0  0  0  0  0  0  0
    3.3734    5.3069   -1.3524 H   0  0  0  0  0  0  0  0  0  0  0  0
    4.9976    5.0078   -1.9585 H   0  0  0  0  0  0  0  0  0  0  0  0
    4.4026    7.4347   -2.0083 H   0  0  0  0  0  0  0  0  0  0  0  0
    5.8170    7.1148   -1.0110 H   0  0  0  0  0  0  0  0  0  0  0  0
    2.9683    7.6295   -0.0355 H   0  0  0  0  0  0  0  0  0  0  0  0
    4.3615    8.6879    0.1586 H   0  0  0  0  0  0  0  0  0  0  0  0
    3.8340    7.4050    2.2421 H   0  0  0  0  0  0  0  0  0  0  0  0
    5.4616    7.0946    1.6480 H   0  0  0  0  0  0  0  0  0  0  0  0
    4.4172    4.9758    2.3165 H   0  0  0  0  0  0  0  0  0  0  0  0
    3.0144    5.2964    1.3049 H   0  0  0  0  0  0  0  0  0  0  0  0
    4.8366   -2.7554   -1.8818 H   0  0  0  0  0  0  0  0  0  0  0  0
    6.7979   -4.1572   -2.3450 H   0  0  0  0  0  0  0  0  0  0  0  0
    9.0985   -1.9871    0.5630 H   0  0  0  0  0  0  0  0  0  0  0  0
    2.6592   -5.5870    1.0249 H   0  0  0  0  0  0  0  0  0  0  0  0
    0.6541   -4.8622   -0.6528 H   0  0  0  0  0  0  0  0  0  0  0  0
  1  2  1  0  0  0  0
  1 31  1  0  0  0  0
  1 32  1  0  0  0  0
  1 33  1  0  0  0  0
  2 23  2  0  0  0  0
  2  3  1  0  0  0  0
  3  4  1  0  0  0  0
  3 13  2  0  0  0  0
  4  5  2  0  0  0  0
  4  6  1  0  0  0  0
  6  7  1  0  0  0  0
  6 34  1  0  0  0  0
  7 12  1  0  0  0  0
  7  8  1  0  0  0  0
  7 35  1  0  0  0  0
  8  9  1  0  0  0  0
  8 36  1  0  0  0  0
  8 37  1  0  0  0  0
  9 10  1  0  0  0  0
  9 38  1  0  0  0  0
  9 39  1  0  0  0  0
 10 11  1  0  0  0  0
 10 40  1  0  0  0  0
 10 41  1  0  0  0  0
 11 12  1  0  0  0  0
 11 42  1  0  0  0  0
 11 43  1  0  0  0  0
 12 44  1  0  0  0  0
 12 45  1  0  0  0  0
 13 14  1  0  0  0  0
 14 15  1  0  0  0  0
 14 23  1  0  0  0  0
 15 20  2  0  0  0  0
 15 16  1  0  0  0  0
 16 17  2  0  0  0  0
 16 46  1  0  0  0  0
 17 18  1  0  0  0  0
 17 47  1  0  0  0  0
 18 19  2  0  0  0  0
 18 22  1  0  0  0  0
 19 20  1  0  0  0  0
 19 48  1  0  0  0  0
 20 21  1  0  0  0  0
 23 24  1  0  0  0  0
 24 28  1  0  0  0  0
 24 25  1  0  0  0  0
 25 26  2  0  0  0  0
 25 30  1  0  0  0  0
 26 27  1  0  0  0  0
 26 49  1  0  0  0  0
 27 28  2  0  0  0  0
 27 50  1  0  0  0  0
 28 29  1  0  0  0  0
M  END
$$$$
CHEMBL514706_8GUT
 OpenBabel12022418123D

 49 52  0  0  0  0  0  0  0  0999 V2000
    1.0891   -0.1273    0.2059 C   0  0  0  0  0  0  0  0  0  0  0  0
    2.6227   -0.0064    0.0366 C   0  0  0  0  0  0  0  0  0  0  0  0
    3.0335   -1.1192   -0.9468 C   0  0  0  0  0  0  0  0  0  0  0  0
    2.9449    1.3995   -0.5279 C   0  0  0  0  0  0  0  0  0  0  0  0
    2.5808    2.5743    0.3905 C   0  0  0  0  0  0  0  0  0  0  0  0
    3.0443    3.8452   -0.2166 C   0  0  0  0  0  0  0  0  0  0  0  0
    2.4787    4.5769   -1.1476 N   0  0  0  0  0  0  0  0  0  0  0  0
    3.4261    5.5567   -1.3735 C   0  0  0  0  0  0  0  0  0  0  0  0
    3.2000    6.6136   -2.3529 C   0  0  0  0  0  0  0  0  0  0  0  0
    1.8711    7.0387   -2.5585 C   0  0  0  0  0  0  0  0  0  0  0  0
    1.5703    8.0451   -3.4766 C   0  0  0  0  0  0  0  0  0  0  0  0
    2.5958    8.6343   -4.1994 C   0  0  0  0  0  0  0  0  0  0  0  0
    3.9137    8.2308   -4.0276 C   0  0  0  0  0  0  0  0  0  0  0  0
    4.2194    7.2181   -3.1106 C   0  0  0  0  0  0  0  0  0  0  0  0
    5.8824    6.7434   -3.0277 Cl  0  0  0  0  0  0  0  0  0  0  0  0
    2.3105    9.6011   -5.0801 F   0  0  0  0  0  0  0  0  0  0  0  0
    4.5014    5.4608   -0.5763 N   0  0  0  0  0  0  0  0  0  0  0  0
    4.2603    4.3144    0.1767 O   0  0  0  0  0  0  0  0  0  0  0  0
    3.2373   -0.2210    1.3648 N   0  0  0  0  0  0  0  0  0  0  0  0
    4.6059   -0.2844    1.6397 C   0  0  0  0  0  0  0  0  0  0  0  0
    5.6310   -0.0273    0.7390 C   0  0  0  0  0  0  0  0  0  0  0  0
    6.9603   -0.0565    1.0059 N   0  0  0  0  0  0  0  0  0  0  0  0
    7.3289   -0.3139    2.2588 C   0  0  0  0  0  0  0  0  0  0  0  0
    8.6832   -0.3486    2.5462 C   0  0  0  0  0  0  0  0  0  0  0  0
    9.1505   -0.5907    3.8341 C   0  0  0  0  0  0  0  0  0  0  0  0
    8.2420   -0.7927    4.8662 C   0  0  0  0  0  0  0  0  0  0  0  0
    6.8681   -0.7714    4.5990 C   0  0  0  0  0  0  0  0  0  0  0  0
    6.3971   -0.5372    3.2896 C   0  0  0  0  0  0  0  0  0  0  0  0
    5.0256   -0.5169    2.9555 C   0  0  0  0  0  0  0  0  0  0  0  0
    0.5765    0.0641   -0.7448 H   0  0  0  0  0  0  0  0  0  0  0  0
    0.6974    0.5739    0.9493 H   0  0  0  0  0  0  0  0  0  0  0  0
    0.8034   -1.1326    0.5373 H   0  0  0  0  0  0  0  0  0  0  0  0
    2.5391   -0.9873   -1.9156 H   0  0  0  0  0  0  0  0  0  0  0  0
    2.7580   -2.1072   -0.5592 H   0  0  0  0  0  0  0  0  0  0  0  0
    4.1059   -1.1509   -1.1468 H   0  0  0  0  0  0  0  0  0  0  0  0
    2.4208    1.5264   -1.4856 H   0  0  0  0  0  0  0  0  0  0  0  0
    4.0029    1.4871   -0.7873 H   0  0  0  0  0  0  0  0  0  0  0  0
    3.0277    2.4589    1.3837 H   0  0  0  0  0  0  0  0  0  0  0  0
    1.4958    2.6340    0.5268 H   0  0  0  0  0  0  0  0  0  0  0  0
    1.0570    6.5804   -1.9958 H   0  0  0  0  0  0  0  0  0  0  0  0
    0.5453    8.3699   -3.6304 H   0  0  0  0  0  0  0  0  0  0  0  0
    4.6906    8.7030   -4.6214 H   0  0  0  0  0  0  0  0  0  0  0  0
    2.7290   -0.9038    1.9274 H   0  0  0  0  0  0  0  0  0  0  0  0
    5.4504    0.2052   -0.2989 H   0  0  0  0  0  0  0  0  0  0  0  0
    9.3921   -0.1864    1.7332 H   0  0  0  0  0  0  0  0  0  0  0  0
   10.2203   -0.6106    4.0244 H   0  0  0  0  0  0  0  0  0  0  0  0
    8.6011   -0.9697    5.8764 H   0  0  0  0  0  0  0  0  0  0  0  0
    6.1712   -0.9340    5.4162 H   0  0  0  0  0  0  0  0  0  0  0  0
    4.2883   -0.6758    3.7365 H   0  0  0  0  0  0  0  0  0  0  0  0
  1  2  1  0  0  0  0
  1 30  1  0  0  0  0
  1 31  1  0  0  0  0
  1 32  1  0  0  0  0
  2  3  1  0  0  0  0
  2  4  1  0  0  0  0
  2 19  1  0  0  0  0
  3 33  1  0  0  0  0
  3 34  1  0  0  0  0
  3 35  1  0  0  0  0
  4  5  1  0  0  0  0
  4 36  1  0  0  0  0
  4 37  1  0  0  0  0
  5  6  1  0  0  0  0
  5 38  1  0  0  0  0
  5 39  1  0  0  0  0
  6 18  1  0  0  0  0
  6  7  2  0  0  0  0
  7  8  1  0  0  0  0
  8  9  1  0  0  0  0
  8 17  2  0  0  0  0
  9 14  2  0  0  0  0
  9 10  1  0  0  0  0
 10 11  2  0  0  0  0
 10 40  1  0  0  0  0
 11 12  1  0  0  0  0
 11 41  1  0  0  0  0
 12 13  2  0  0  0  0
 12 16  1  0  0  0  0
 13 14  1  0  0  0  0
 13 42  1  0  0  0  0
 14 15  1  0  0  0  0
 17 18  1  0  0  0  0
 19 20  1  0  0  0  0
 19 43  1  0  0  0  0
 20 29  2  0  0  0  0
 20 21  1  0  0  0  0
 21 22  2  0  0  0  0
 21 44  1  0  0  0  0
 22 23  1  0  0  0  0
 23 28  2  0  0  0  0
 23 24  1  0  0  0  0
 24 25  2  0  0  0  0
 24 45  1  0  0  0  0
 25 26  1  0  0  0  0
 25 46  1  0  0  0  0
 26 27  2  0  0  0  0
 26 47  1  0  0  0  0
 27 28  1  0  0  0  0
 27 48  1  0  0  0  0
 28 29  1  0  0  0  0
 29 49  1  0  0  0  0
M  END
$$$$
CHEMBL2163961_6PT0
 OpenBabel12022418123D

 49 52  0  0  1  0  0  0  0  0999 V2000
    3.3549    0.0601    1.4862 C   0  0  0  0  0  0  0  0  0  0  0  0
    2.5966   -0.0178    0.1576 C   0  0  1  0  0  0  0  0  0  0  0  0
    2.8015    1.2545   -0.6848 C   0  0  0  0  0  0  0  0  0  0  0  0
    3.9616    1.2899   -1.5132 O   0  0  0  0  0  0  0  0  0  0  0  0
    4.2078    0.1096   -2.1653 C   0  0  0  0  0  0  0  0  0  0  0  0
    5.0051    0.2051   -3.3124 C   0  0  0  0  0  0  0  0  0  0  0  0
    5.3967   -0.9457   -3.9983 C   0  0  0  0  0  0  0  0  0  0  0  0
    5.0091   -2.1933   -3.5244 C   0  0  0  0  0  0  0  0  0  0  0  0
    4.2080   -2.2847   -2.3792 C   0  0  0  0  0  0  0  0  0  0  0  0
    3.8483   -3.6226   -1.8524 C   0  0  0  0  0  0  0  0  0  0  0  0
    4.2534   -4.6410   -2.4199 O   0  0  0  0  0  0  0  0  0  0  0  0
    3.0190   -3.6990   -0.6255 C   0  0  0  0  0  0  0  0  0  0  0  0
    2.6240   -4.9726    0.0512 C   0  0  0  0  0  0  0  0  0  0  0  0
    1.9183   -4.9741    1.0543 O   0  0  0  0  0  0  0  0  0  0  0  0
    3.1072   -6.1274   -0.5300 N   0  0  0  0  0  0  0  0  0  0  0  0
    2.8104   -7.4681   -0.0336 C   0  0  0  0  0  0  0  0  0  0  0  0
    2.4623   -8.3993   -1.2050 C   0  0  0  0  0  0  0  0  0  0  0  0
    3.6143   -9.2188   -1.7887 C   0  0  0  0  0  0  0  0  0  0  0  0
    3.8624  -10.5237   -1.0310 C   0  0  0  0  0  0  0  0  0  0  0  0
    4.5219  -10.3709    0.3351 C   0  0  0  0  0  0  0  0  0  0  0  0
    3.8128   -9.4233    1.3008 C   0  0  0  0  0  0  0  0  0  0  0  0
    3.9325   -7.9532    0.8942 C   0  0  0  0  0  0  0  0  0  0  0  0
    2.6235   -2.5274   -0.0916 C   0  0  0  0  0  0  0  0  0  0  0  0
    2.9450   -1.2598   -0.5584 N   0  0  0  0  0  0  0  0  0  0  0  0
    3.7711   -1.1315   -1.6888 C   0  0  0  0  0  0  0  0  0  0  0  0
    3.0908    0.9729    2.0313 H   0  0  0  0  0  0  0  0  0  0  0  0
    4.4383    0.0426    1.3375 H   0  0  0  0  0  0  0  0  0  0  0  0
    3.0909   -0.7842    2.1333 H   0  0  0  0  0  0  0  0  0  0  0  0
    1.5274   -0.0522    0.4081 H   0  0  0  0  0  0  0  0  0  0  0  0
    2.8784    2.1248   -0.0192 H   0  0  0  0  0  0  0  0  0  0  0  0
    1.9259    1.4396   -1.3190 H   0  0  0  0  0  0  0  0  0  0  0  0
    5.3254    1.1795   -3.6683 H   0  0  0  0  0  0  0  0  0  0  0  0
    6.0214   -0.8668   -4.8870 H   0  0  0  0  0  0  0  0  0  0  0  0
    5.3384   -3.0913   -4.0364 H   0  0  0  0  0  0  0  0  0  0  0  0
    3.7259   -6.0287   -1.3363 H   0  0  0  0  0  0  0  0  0  0  0  0
    1.9002   -7.3835    0.5749 H   0  0  0  0  0  0  0  0  0  0  0  0
    2.0168   -7.8040   -2.0142 H   0  0  0  0  0  0  0  0  0  0  0  0
    1.6709   -9.0883   -0.8814 H   0  0  0  0  0  0  0  0  0  0  0  0
    4.5319   -8.6260   -1.8676 H   0  0  0  0  0  0  0  0  0  0  0  0
    3.3353   -9.4949   -2.8141 H   0  0  0  0  0  0  0  0  0  0  0  0
    4.5089  -11.1633   -1.6459 H   0  0  0  0  0  0  0  0  0  0  0  0
    2.9180  -11.0713   -0.9193 H   0  0  0  0  0  0  0  0  0  0  0  0
    5.5622  -10.0497    0.2023 H   0  0  0  0  0  0  0  0  0  0  0  0
    4.5691  -11.3648    0.7990 H   0  0  0  0  0  0  0  0  0  0  0  0
    4.2899   -9.5427    2.2815 H   0  0  0  0  0  0  0  0  0  0  0  0
    2.7638   -9.7138    1.4297 H   0  0  0  0  0  0  0  0  0  0  0  0
    3.9055   -7.3407    1.8041 H   0  0  0  0  0  0  0  0  0  0  0  0
    4.9168   -7.7645    0.4460 H   0  0  0  0  0  0  0  0  0  0  0  0
    2.0112   -2.5137    0.8053 H   0  0  0  0  0  0  0  0  0  0  0  0
  1 26  1  0  0  0  0
  1 27  1  0  0  0  0
  1 28  1  0  0  0  0
  2  3  1  0  0  0  0
  2 24  1  0  0  0  0
  2  1  1  0  0  0  0
  2 29  1  1  0  0  0
  3  4  1  0  0  0  0
  3 30  1  0  0  0  0
  3 31  1  0  0  0  0
  4  5  1  0  0  0  0
  5 25  2  0  0  0  0
  5  6  1  0  0  0  0
  6  7  2  0  0  0  0
  6 32  1  0  0  0  0
  7  8  1  0  0  0  0
  7 33  1  0  0  0  0
  8  9  2  0  0  0  0
  8 34  1  0  0  0  0
  9 25  1  0  0  0  0
  9 10  1  0  0  0  0
 10 11  2  0  0  0  0
 10 12  1  0  0  0  0
 12 13  1  0  0  0  0
 12 23  2  0  0  0  0
 13 14  2  0  0  0  0
 13 15  1  0  0  0  0
 15 16  1  0  0  0  0
 15 35  1  0  0  0  0
 16 22  1  0  0  0  0
 16 17  1  0  0  0  0
 16 36  1  0  0  0  0
 17 18  1  0  0  0  0
 17 37  1  0  0  0  0
 17 38  1  0  0  0  0
 18 19  1  0  0  0  0
 18 39  1  0  0  0  0
 18 40  1  0  0  0  0
 19 20  1  0  0  0  0
 19 41  1  0  0  0  0
 19 42  1  0  0  0  0
 20 21  1  0  0  0  0
 20 43  1  0  0  0  0
 20 44  1  0  0  0  0
 21 22  1  0  0  0  0
 21 45  1  0  0  0  0
 21 46  1  0  0  0  0
 22 47  1  0  0  0  0
 22 48  1  0  0  0  0
 23 24  1  0  0  0  0
 23 49  1  0  0  0  0
 24 25  1  0  0  0  0
M  END
$$$$
CHEMBL3422786_6PT0
 OpenBabel12022418123D

 50 52  0  0  1  0  0  0  0  0999 V2000
    8.8704   -5.8681   -4.5105 C   0  0  0  0  0  0  0  0  0  0  0  0
    9.0094   -7.2539   -4.4752 C   0  0  0  0  0  0  0  0  0  0  0  0
    8.6963   -7.9433   -3.3094 C   0  0  0  0  0  0  0  0  0  0  0  0
    8.2720   -7.2410   -2.1771 C   0  0  0  0  0  0  0  0  0  0  0  0
    8.1805   -5.8355   -2.1767 C   0  0  0  0  0  0  0  0  0  0  0  0
    8.4588   -5.1601   -3.3715 C   0  0  0  0  0  0  0  0  0  0  0  0
    8.2727   -3.7171   -3.4384 C   0  0  0  0  0  0  0  0  0  0  0  0
    8.0877   -2.9877   -2.3258 C   0  0  0  0  0  0  0  0  0  0  0  0
    8.0776   -3.6785   -0.9870 C   0  0  0  0  0  0  0  0  0  0  0  0
    8.2233   -3.0034    0.0307 O   0  0  0  0  0  0  0  0  0  0  0  0
    7.8761   -5.0711   -0.9860 N   0  0  0  0  0  0  0  0  0  0  0  0
    7.5773   -5.8635    0.2253 C   0  0  0  0  0  0  0  0  0  0  0  0
    7.2614   -5.2485    1.5890 C   0  0  0  0  0  0  0  0  0  0  0  0
    5.9504   -4.4899    1.6943 C   0  0  0  0  0  0  0  0  0  0  0  0
    7.8610   -1.5098   -2.5482 C   0  0  0  0  0  0  0  0  0  0  0  0
    7.4126   -1.0922   -3.6114 O   0  0  0  0  0  0  0  0  0  0  0  0
    8.1834   -0.6747   -1.5093 N   0  0  0  0  0  0  0  0  0  0  0  0
    7.8683    0.7721   -1.4559 C   0  0  1  0  0  0  0  0  0  0  0  0
    7.6083    1.1365    0.0191 C   0  0  0  0  0  0  0  0  0  0  0  0
    7.8696    2.5752    0.4486 C   0  0  0  0  0  0  0  0  0  0  0  0
    9.1178    3.1994   -0.1698 C   0  0  2  0  0  0  0  0  0  0  0  0
    9.0082    3.0897   -1.6907 C   0  0  0  0  0  0  0  0  0  0  0  0
    8.9265    1.6357   -2.1750 C   0  0  0  0  0  0  0  0  0  0  0  0
   10.4275    2.6038    0.3576 C   0  0  0  0  0  0  0  0  0  0  0  0
    9.0962   -5.3422   -5.4373 H   0  0  0  0  0  0  0  0  0  0  0  0
    9.3588   -7.7947   -5.3506 H   0  0  0  0  0  0  0  0  0  0  0  0
    8.7939   -9.0256   -3.2725 H   0  0  0  0  0  0  0  0  0  0  0  0
    8.0517   -7.8363   -1.2956 H   0  0  0  0  0  0  0  0  0  0  0  0
    8.2584   -3.2593   -4.4228 H   0  0  0  0  0  0  0  0  0  0  0  0
    8.4474   -6.5105    0.3925 H   0  0  0  0  0  0  0  0  0  0  0  0
    6.7243   -6.5082   -0.0330 H   0  0  0  0  0  0  0  0  0  0  0  0
    8.0936   -4.6387    1.9517 H   0  0  0  0  0  0  0  0  0  0  0  0
    7.1859   -6.0948    2.2885 H   0  0  0  0  0  0  0  0  0  0  0  0
    6.0408   -3.4736    1.3060 H   0  0  0  0  0  0  0  0  0  0  0  0
    5.6600   -4.4125    2.7492 H   0  0  0  0  0  0  0  0  0  0  0  0
    5.1388   -4.9991    1.1657 H   0  0  0  0  0  0  0  0  0  0  0  0
    8.5855   -1.1070   -0.6820 H   0  0  0  0  0  0  0  0  0  0  0  0
    6.9278    0.9166   -2.0054 H   0  0  0  0  0  0  0  0  0  0  0  0
    8.1984    0.4834    0.6733 H   0  0  0  0  0  0  0  0  0  0  0  0
    6.5592    0.8950    0.2445 H   0  0  0  0  0  0  0  0  0  0  0  0
    7.9293    2.6149    1.5440 H   0  0  0  0  0  0  0  0  0  0  0  0
    7.0004    3.1870    0.1735 H   0  0  0  0  0  0  0  0  0  0  0  0
    9.1183    4.2620    0.1070 H   0  0  0  0  0  0  0  0  0  0  0  0
    9.8618    3.5945   -2.1602 H   0  0  0  0  0  0  0  0  0  0  0  0
    8.1129    3.6353   -2.0199 H   0  0  0  0  0  0  0  0  0  0  0  0
    8.7070    1.6518   -3.2506 H   0  0  0  0  0  0  0  0  0  0  0  0
    9.9157    1.1730   -2.0927 H   0  0  0  0  0  0  0  0  0  0  0  0
   10.6790    1.6448   -0.1027 H   0  0  0  0  0  0  0  0  0  0  0  0
   10.3916    2.4506    1.4402 H   0  0  0  0  0  0  0  0  0  0  0  0
   11.2569    3.2904    0.1494 H   0  0  0  0  0  0  0  0  0  0  0  0
  1  6  2  0  0  0  0
  1  2  1  0  0  0  0
  1 25  1  0  0  0  0
  2  3  2  0  0  0  0
  2 26  1  0  0  0  0
  3  4  1  0  0  0  0
  3 27  1  0  0  0  0
  4  5  2  0  0  0  0
  4 28  1  0  0  0  0
  5 11  1  0  0  0  0
  5  6  1  0  0  0  0
  6  7  1  0  0  0  0
  7  8  2  0  0  0  0
  7 29  1  0  0  0  0
  8  9  1  0  0  0  0
  8 15  1  0  0  0  0
  9 10  2  0  0  0  0
  9 11  1  0  0  0  0
 11 12  1  0  0  0  0
 12 13  1  0  0  0  0
 12 30  1  0  0  0  0
 12 31  1  0  0  0  0
 13 14  1  0  0  0  0
 13 32  1  0  0  0  0
 13 33  1  0  0  0  0
 14 34  1  0  0  0  0
 14 35  1  0  0  0  0
 14 36  1  0  0  0  0
 15 16  2  0  0  0  0
 15 17  1  0  0  0  0
 17 37  1  0  0  0  0
 18 19  1  0  0  0  0
 18 23  1  0  0  0  0
 18 17  1  0  0  0  0
 18 38  1  6  0  0  0
 19 20  1  0  0  0  0
 19 39  1  0  0  0  0
 19 40  1  0  0  0  0
 20 21  1  0  0  0  0
 20 41  1  0  0  0  0
 20 42  1  0  0  0  0
 21 22  1  0  0  0  0
 21 24  1  0  0  0  0
 21 43  1  1  0  0  0
 22 23  1  0  0  0  0
 22 44  1  0  0  0  0
 22 45  1  0  0  0  0
 23 46  1  0  0  0  0
 23 47  1  0  0  0  0
 24 48  1  0  0  0  0
 24 49  1  0  0  0  0
 24 50  1  0  0  0  0
M  END
$$$$
CHEMBL3400947_8GUQ
 OpenBabel12022418123D

 48 49  0  0  0  0  0  0  0  0999 V2000
    4.6473    0.3501   -2.3275 C   0  0  0  0  0  0  0  0  0  0  0  0
    3.6308   -0.5874   -3.0023 C   0  0  0  0  0  0  0  0  0  0  0  0
    2.3342    0.1872   -3.3002 C   0  0  0  0  0  0  0  0  0  0  0  0
    4.2240   -1.0856   -4.3320 C   0  0  0  0  0  0  0  0  0  0  0  0
    3.3274   -1.7477   -2.1005 C   0  0  0  0  0  0  0  0  0  0  0  0
    3.4397   -3.1151   -2.2032 C   0  0  0  0  0  0  0  0  0  0  0  0
    2.9195   -3.6151   -0.9882 C   0  0  0  0  0  0  0  0  0  0  0  0
    2.5552   -2.6095   -0.1892 N   0  0  0  0  0  0  0  0  0  0  0  0
    2.7992   -1.4480   -0.8837 O   0  0  0  0  0  0  0  0  0  0  0  0
    2.7970   -4.9632   -0.7029 N   0  0  0  0  0  0  0  0  0  0  0  0
    2.1836   -5.4434    0.4391 C   0  0  0  0  0  0  0  0  0  0  0  0
    1.8245   -4.7479    1.3855 O   0  0  0  0  0  0  0  0  0  0  0  0
    2.0239   -6.9580    0.5234 C   0  0  0  0  0  0  0  0  0  0  0  0
    3.4090   -7.6261    0.4799 C   0  0  0  0  0  0  0  0  0  0  0  0
    1.3421   -7.3362    1.8507 C   0  0  0  0  0  0  0  0  0  0  0  0
    1.0321   -7.5195   -0.8603 S   0  0  0  0  0  0  0  0  0  0  0  0
    1.7443   -7.1891   -2.0872 O   0  0  0  0  0  0  0  0  0  0  0  0
    0.6632   -8.9050   -0.6125 O   0  0  0  0  0  0  0  0  0  0  0  0
   -0.4790   -6.5663   -0.8353 C   0  0  0  0  0  0  0  0  0  0  0  0
   -1.7092   -7.1713   -0.6426 C   0  0  0  0  0  0  0  0  0  0  0  0
   -2.8379   -6.3550   -0.6819 C   0  0  0  0  0  0  0  0  0  0  0  0
   -2.7018   -4.9781   -0.9140 C   0  0  0  0  0  0  0  0  0  0  0  0
   -1.4174   -4.4790   -1.0947 C   0  0  0  0  0  0  0  0  0  0  0  0
   -0.3020   -5.2456   -1.0751 N   0  0  0  0  0  0  0  0  0  0  0  0
   -3.8800   -4.0542   -0.9872 C   0  0  0  0  0  0  0  0  0  0  0  0
   -5.0728   -4.6879   -0.8083 F   0  0  0  0  0  0  0  0  0  0  0  0
   -3.8376   -3.0691   -0.0505 F   0  0  0  0  0  0  0  0  0  0  0  0
   -3.9720   -3.4254   -2.1910 F   0  0  0  0  0  0  0  0  0  0  0  0
    4.8906    1.2004   -2.9745 H   0  0  0  0  0  0  0  0  0  0  0  0
    5.5823   -0.1757   -2.1001 H   0  0  0  0  0  0  0  0  0  0  0  0
    4.2622    0.7535   -1.3834 H   0  0  0  0  0  0  0  0  0  0  0  0
    2.5245    1.0398   -3.9617 H   0  0  0  0  0  0  0  0  0  0  0  0
    1.8749    0.5760   -2.3835 H   0  0  0  0  0  0  0  0  0  0  0  0
    1.5919   -0.4561   -3.7878 H   0  0  0  0  0  0  0  0  0  0  0  0
    4.4522   -0.2516   -5.0041 H   0  0  0  0  0  0  0  0  0  0  0  0
    3.5263   -1.7517   -4.8541 H   0  0  0  0  0  0  0  0  0  0  0  0
    5.1527   -1.6457   -4.1688 H   0  0  0  0  0  0  0  0  0  0  0  0
    3.8206   -3.6721   -3.0460 H   0  0  0  0  0  0  0  0  0  0  0  0
    3.0014   -5.5929   -1.4736 H   0  0  0  0  0  0  0  0  0  0  0  0
    4.0511   -7.2476    1.2839 H   0  0  0  0  0  0  0  0  0  0  0  0
    3.9321   -7.4383   -0.4641 H   0  0  0  0  0  0  0  0  0  0  0  0
    3.3311   -8.7132    0.5925 H   0  0  0  0  0  0  0  0  0  0  0  0
    1.9449   -7.0120    2.7084 H   0  0  0  0  0  0  0  0  0  0  0  0
    1.1946   -8.4173    1.9415 H   0  0  0  0  0  0  0  0  0  0  0  0
    0.3596   -6.8596    1.9487 H   0  0  0  0  0  0  0  0  0  0  0  0
   -1.8011   -8.2406   -0.4804 H   0  0  0  0  0  0  0  0  0  0  0  0
   -3.8247   -6.7945   -0.5411 H   0  0  0  0  0  0  0  0  0  0  0  0
   -1.2394   -3.4191   -1.2731 H   0  0  0  0  0  0  0  0  0  0  0  0
  1  2  1  0  0  0  0
  1 29  1  0  0  0  0
  1 30  1  0  0  0  0
  1 31  1  0  0  0  0
  2  3  1  0  0  0  0
  2  4  1  0  0  0  0
  2  5  1  0  0  0  0
  3 32  1  0  0  0  0
  3 33  1  0  0  0  0
  3 34  1  0  0  0  0
  4 35  1  0  0  0  0
  4 36  1  0  0  0  0
  4 37  1  0  0  0  0
  5  9  1  0  0  0  0
  5  6  2  0  0  0  0
  6  7  1  0  0  0  0
  6 38  1  0  0  0  0
  7  8  2  0  0  0  0
  7 10  1  0  0  0  0
  8  9  1  0  0  0  0
 10 11  1  0  0  0  0
 10 39  1  0  0  0  0
 11 12  2  0  0  0  0
 11 13  1  0  0  0  0
 13 14  1  0  0  0  0
 13 15  1  0  0  0  0
 13 16  1  0  0  0  0
 14 40  1  0  0  0  0
 14 41  1  0  0  0  0
 14 42  1  0  0  0  0
 15 43  1  0  0  0  0
 15 44  1  0  0  0  0
 15 45  1  0  0  0  0
 16 17  2  0  0  0  0
 16 18  2  0  0  0  0
 16 19  1  0  0  0  0
 19 24  2  0  0  0  0
 19 20  1  0  0  0  0
 20 21  2  0  0  0  0
 20 46  1  0  0  0  0
 21 22  1  0  0  0  0
 21 47  1  0  0  0  0
 22 23  2  0  0  0  0
 22 25  1  0  0  0  0
 23 24  1  0  0  0  0
 23 48  1  0  0  0  0
 25 26  1  0  0  0  0
 25 27  1  0  0  0  0
 25 28  1  0  0  0  0
M  END
$$$$
CHEMBL3400945_8GUQ
 OpenBabel12022418123D

 49 51  0  0  1  0  0  0  0  0999 V2000
    1.7742   -0.0748   -1.1672 C   0  0  0  0  0  0  0  0  0  0  0  0
    0.3800    0.0938   -1.2080 C   0  0  0  0  0  0  0  0  0  0  0  0
   -0.3221    0.3886   -0.0478 C   0  0  0  0  0  0  0  0  0  0  0  0
    0.3622    0.5231    1.1494 C   0  0  0  0  0  0  0  0  0  0  0  0
    1.7514    0.3417    1.1751 C   0  0  0  0  0  0  0  0  0  0  0  0
    2.5064    0.0273    0.0231 C   0  0  0  0  0  0  0  0  0  0  0  0
    3.8632   -0.2242    0.1093 N   0  0  0  0  0  0  0  0  0  0  0  0
    4.8176   -0.5846   -0.9811 C   0  0  1  0  0  0  0  0  0  0  0  0
    5.9896   -1.1225   -0.1325 C   0  0  0  0  0  0  0  0  0  0  0  0
    6.0699   -0.1553    1.0421 C   0  0  0  0  0  0  0  0  0  0  0  0
    4.6426    0.3749    1.2133 C   0  0  0  0  0  0  0  0  0  0  0  0
    4.3504   -1.6709   -1.9853 C   0  0  0  0  0  0  0  0  0  0  0  0
    4.4819   -1.4731   -3.1985 O   0  0  0  0  0  0  0  0  0  0  0  0
    3.8240   -2.8144   -1.4338 N   0  0  0  0  0  0  0  0  0  0  0  0
    3.4569   -3.9103   -2.2045 C   0  0  0  0  0  0  0  0  0  0  0  0
    2.7396   -5.0277   -1.7324 C   0  0  0  0  0  0  0  0  0  0  0  0
    2.5726   -5.8431   -2.8301 C   0  0  0  0  0  0  0  0  0  0  0  0
    1.8802   -7.1558   -3.0717 C   0  0  0  0  0  0  0  0  0  0  0  0
    0.3722   -6.9778   -2.8228 C   0  0  0  0  0  0  0  0  0  0  0  0
    2.0803   -7.6632   -4.5134 C   0  0  0  0  0  0  0  0  0  0  0  0
    2.4459   -8.2061   -2.1038 C   0  0  0  0  0  0  0  0  0  0  0  0
    3.1882   -5.2560   -3.8930 O   0  0  0  0  0  0  0  0  0  0  0  0
    3.7456   -4.0670   -3.5015 N   0  0  0  0  0  0  0  0  0  0  0  0
    5.2602    0.6632   -1.7724 C   0  0  0  0  0  0  0  0  0  0  0  0
   -2.0283    0.5777   -0.0886 Cl  0  0  0  0  0  0  0  0  0  0  0  0
    2.2625   -0.2809   -2.1153 H   0  0  0  0  0  0  0  0  0  0  0  0
   -0.1435   -0.0112   -2.1554 H   0  0  0  0  0  0  0  0  0  0  0  0
   -0.1686    0.7550    2.0690 H   0  0  0  0  0  0  0  0  0  0  0  0
    2.2240    0.4326    2.1481 H   0  0  0  0  0  0  0  0  0  0  0  0
    6.9339   -1.1872   -0.6837 H   0  0  0  0  0  0  0  0  0  0  0  0
    5.7704   -2.1261    0.2564 H   0  0  0  0  0  0  0  0  0  0  0  0
    6.7613    0.6669    0.8313 H   0  0  0  0  0  0  0  0  0  0  0  0
    6.4220   -0.6500    1.9525 H   0  0  0  0  0  0  0  0  0  0  0  0
    4.2728    0.0942    2.2030 H   0  0  0  0  0  0  0  0  0  0  0  0
    4.6374    1.4704    1.1326 H   0  0  0  0  0  0  0  0  0  0  0  0
    3.5615   -2.7946   -0.4580 H   0  0  0  0  0  0  0  0  0  0  0  0
    2.3636   -5.2117   -0.7408 H   0  0  0  0  0  0  0  0  0  0  0  0
   -0.0646   -6.2658   -3.5348 H   0  0  0  0  0  0  0  0  0  0  0  0
    0.1713   -6.5935   -1.8155 H   0  0  0  0  0  0  0  0  0  0  0  0
   -0.1632   -7.9272   -2.9296 H   0  0  0  0  0  0  0  0  0  0  0  0
    1.6565   -6.9676   -5.2487 H   0  0  0  0  0  0  0  0  0  0  0  0
    1.5921   -8.6344   -4.6616 H   0  0  0  0  0  0  0  0  0  0  0  0
    3.1427   -7.7884   -4.7531 H   0  0  0  0  0  0  0  0  0  0  0  0
    2.3228   -7.9005   -1.0573 H   0  0  0  0  0  0  0  0  0  0  0  0
    3.5178   -8.3639   -2.2739 H   0  0  0  0  0  0  0  0  0  0  0  0
    1.9425   -9.1722   -2.2264 H   0  0  0  0  0  0  0  0  0  0  0  0
    5.6543    1.4581   -1.1358 H   0  0  0  0  0  0  0  0  0  0  0  0
    4.4246    1.0877   -2.3403 H   0  0  0  0  0  0  0  0  0  0  0  0
    6.0459    0.4041   -2.4907 H   0  0  0  0  0  0  0  0  0  0  0  0
  1  6  2  0  0  0  0
  1  2  1  0  0  0  0
  1 26  1  0  0  0  0
  2  3  2  0  0  0  0
  2 27  1  0  0  0  0
  3  4  1  0  0  0  0
  3 25  1  0  0  0  0
  4  5  2  0  0  0  0
  4 28  1  0  0  0  0
  5  6  1  0  0  0  0
  5 29  1  0  0  0  0
  6  7  1  0  0  0  0
  7 11  1  0  0  0  0
  7  8  1  0  0  0  0
  8  9  1  0  0  0  0
  8 12  1  6  0  0  0
  8 24  1  0  0  0  0
  9 10  1  0  0  0  0
  9 30  1  0  0  0  0
  9 31  1  0  0  0  0
 10 11  1  0  0  0  0
 10 32  1  0  0  0  0
 10 33  1  0  0  0  0
 11 34  1  0  0  0  0
 11 35  1  0  0  0  0
 12 13  2  0  0  0  0
 12 14  1  0  0  0  0
 14 15  1  0  0  0  0
 14 36  1  0  0  0  0
 15 23  2  0  0  0  0
 15 16  1  0  0  0  0
 16 17  2  0  0  0  0
 16 37  1  0  0  0  0
 17 18  1  0  0  0  0
 17 22  1  0  0  0  0
 18 19  1  0  0  0  0
 18 20  1  0  0  0  0
 18 21  1  0  0  0  0
 19 38  1  0  0  0  0
 19 39  1  0  0  0  0
 19 40  1  0  0  0  0
 20 41  1  0  0  0  0
 20 42  1  0  0  0  0
 20 43  1  0  0  0  0
 21 44  1  0  0  0  0
 21 45  1  0  0  0  0
 21 46  1  0  0  0  0
 22 23  1  0  0  0  0
 24 47  1  0  0  0  0
 24 48  1  0  0  0  0
 24 49  1  0  0  0  0
M  END
$$$$
CHEMBL2022703_8GUT
 OpenBabel12022418123D

 48 50  0  0  0  0  0  0  0  0999 V2000
    1.2239   -0.2171    0.4733 O   0  0  0  0  0  0  0  0  0  0  0  0
    2.4278   -0.0459    0.3349 C   0  0  0  0  0  0  0  0  0  0  0  0
    3.0157    0.4532   -0.9482 C   0  0  0  0  0  0  0  0  0  0  0  0
    4.3199    0.0599   -1.3021 C   0  0  0  0  0  0  0  0  0  0  0  0
    4.8873    0.4765   -2.5043 C   0  0  0  0  0  0  0  0  0  0  0  0
    4.1244    1.2569   -3.3419 C   0  0  0  0  0  0  0  0  0  0  0  0
    2.8633    1.6365   -3.0550 N   0  0  0  0  0  0  0  0  0  0  0  0
    2.3154    1.2341   -1.8718 C   0  0  0  0  0  0  0  0  0  0  0  0
    1.0538    1.7122   -1.5804 O   0  0  0  0  0  0  0  0  0  0  0  0
    0.3565    2.2105   -2.7341 C   0  0  0  0  0  0  0  0  0  0  0  0
   -0.8964    2.9875   -2.3678 C   0  0  0  0  0  0  0  0  0  0  0  0
   -1.5036    2.8800   -1.1089 C   0  0  0  0  0  0  0  0  0  0  0  0
   -2.6215    3.6587   -0.7948 C   0  0  0  0  0  0  0  0  0  0  0  0
   -3.1455    4.5301   -1.7422 C   0  0  0  0  0  0  0  0  0  0  0  0
   -2.5894    4.6214   -3.0106 C   0  0  0  0  0  0  0  0  0  0  0  0
   -1.4719    3.8460   -3.3263 C   0  0  0  0  0  0  0  0  0  0  0  0
   -4.2003    5.2953   -1.4274 F   0  0  0  0  0  0  0  0  0  0  0  0
    3.3509   -0.3518    1.3303 N   0  0  0  0  0  0  0  0  0  0  0  0
    3.0000   -0.9604    2.6176 C   0  0  0  0  0  0  0  0  0  0  0  0
    4.1288   -1.9098    3.0596 C   0  0  0  0  0  0  0  0  0  0  0  0
    5.3115   -1.2378    3.7614 C   0  0  0  0  0  0  0  0  0  0  0  0
    5.1214   -1.1161    5.2727 C   0  0  0  0  0  0  0  0  0  0  0  0
    4.0671   -0.1084    5.7183 C   0  0  0  0  0  0  0  0  0  0  0  0
    2.6834   -0.2930    5.0951 C   0  0  0  0  0  0  0  0  0  0  0  0
    2.6346    0.1344    3.6274 C   0  0  0  0  0  0  0  0  0  0  0  0
    4.9023   -0.6005   -0.6665 H   0  0  0  0  0  0  0  0  0  0  0  0
    5.8949    0.1841   -2.7801 H   0  0  0  0  0  0  0  0  0  0  0  0
    4.5102    1.6083   -4.2946 H   0  0  0  0  0  0  0  0  0  0  0  0
    0.0714    1.3673   -3.3757 H   0  0  0  0  0  0  0  0  0  0  0  0
    0.9851    2.9128   -3.2963 H   0  0  0  0  0  0  0  0  0  0  0  0
   -1.0986    2.2015   -0.3601 H   0  0  0  0  0  0  0  0  0  0  0  0
   -3.0773    3.5949    0.1872 H   0  0  0  0  0  0  0  0  0  0  0  0
   -3.0200    5.3000   -3.7411 H   0  0  0  0  0  0  0  0  0  0  0  0
   -1.0372    3.9278   -4.3211 H   0  0  0  0  0  0  0  0  0  0  0  0
    4.2840    0.0276    1.2533 H   0  0  0  0  0  0  0  0  0  0  0  0
    2.1095   -1.5791    2.4455 H   0  0  0  0  0  0  0  0  0  0  0  0
    4.5079   -2.4421    2.1766 H   0  0  0  0  0  0  0  0  0  0  0  0
    3.7145   -2.6869    3.7149 H   0  0  0  0  0  0  0  0  0  0  0  0
    5.5390   -0.2620    3.3182 H   0  0  0  0  0  0  0  0  0  0  0  0
    6.1981   -1.8649    3.5985 H   0  0  0  0  0  0  0  0  0  0  0  0
    6.0800   -0.8221    5.7197 H   0  0  0  0  0  0  0  0  0  0  0  0
    4.8828   -2.1009    5.6937 H   0  0  0  0  0  0  0  0  0  0  0  0
    4.4291    0.9078    5.5179 H   0  0  0  0  0  0  0  0  0  0  0  0
    3.9695   -0.1836    6.8090 H   0  0  0  0  0  0  0  0  0  0  0  0
    1.9891    0.3483    5.6526 H   0  0  0  0  0  0  0  0  0  0  0  0
    2.3268   -1.3209    5.2267 H   0  0  0  0  0  0  0  0  0  0  0  0
    1.6176    0.4768    3.3962 H   0  0  0  0  0  0  0  0  0  0  0  0
    3.2758    1.0137    3.4815 H   0  0  0  0  0  0  0  0  0  0  0  0
  1  2  2  0  0  0  0
  2  3  1  0  0  0  0
  2 18  1  0  0  0  0
  3  8  2  0  0  0  0
  3  4  1  0  0  0  0
  4  5  2  0  0  0  0
  4 26  1  0  0  0  0
  5  6  1  0  0  0  0
  5 27  1  0  0  0  0
  6  7  2  0  0  0  0
  6 28  1  0  0  0  0
  7  8  1  0  0  0  0
  8  9  1  0  0  0  0
  9 10  1  0  0  0  0
 10 11  1  0  0  0  0
 10 29  1  0  0  0  0
 10 30  1  0  0  0  0
 11 16  2  0  0  0  0
 11 12  1  0  0  0  0
 12 13  2  0  0  0  0
 12 31  1  0  0  0  0
 13 14  1  0  0  0  0
 13 32  1  0  0  0  0
 14 15  2  0  0  0  0
 14 17  1  0  0  0  0
 15 16  1  0  0  0  0
 15 33  1  0  0  0  0
 16 34  1  0  0  0  0
 18 19  1  0  0  0  0
 18 35  1  0  0  0  0
 19 25  1  0  0  0  0
 19 20  1  0  0  0  0
 19 36  1  0  0  0  0
 20 21  1  0  0  0  0
 20 37  1  0  0  0  0
 20 38  1  0  0  0  0
 21 22  1  0  0  0  0
 21 39  1  0  0  0  0
 21 40  1  0  0  0  0
 22 23  1  0  0  0  0
 22 41  1  0  0  0  0
 22 42  1  0  0  0  0
 23 24  1  0  0  0  0
 23 43  1  0  0  0  0
 23 44  1  0  0  0  0
 24 25  1  0  0  0  0
 24 45  1  0  0  0  0
 24 46  1  0  0  0  0
 25 47  1  0  0  0  0
 25 48  1  0  0  0  0
M  END
$$$$
CHEMBL3967292_8GUT
 OpenBabel12022418123D

 62 64  0  0  0  0  0  0  0  0999 V2000
    3.0006    1.4501   -0.0388 C   0  0  0  0  0  0  0  0  0  0  0  0
    2.5508   -0.0068   -0.0869 C   0  0  0  0  0  0  0  0  0  0  0  0
    2.9966   -0.9296    1.1035 C   0  0  0  0  0  0  0  0  0  0  0  0
    2.4395   -0.3761    2.4481 C   0  0  0  0  0  0  0  0  0  0  0  0
    0.9182   -0.2921    2.5163 C   0  0  0  0  0  0  0  0  0  0  0  0
    2.4401   -2.3632    0.7828 C   0  0  0  0  0  0  0  0  0  0  0  0
    1.9355   -2.6356   -0.3130 O   0  0  0  0  0  0  0  0  0  0  0  0
    2.5707   -3.3188    1.7553 N   0  0  0  0  0  0  0  0  0  0  0  0
    2.0104   -4.6483    1.6140 C   0  0  0  0  0  0  0  0  0  0  0  0
    2.9754   -5.6507    0.9777 C   0  0  0  0  0  0  0  0  0  0  0  0
    4.1350   -5.7885    1.8066 O   0  0  0  0  0  0  0  0  0  0  0  0
    5.0602   -6.7158    1.2581 C   0  0  0  0  0  0  0  0  0  0  0  0
    4.4768   -1.0105    1.1386 N   0  0  0  0  0  0  0  0  0  0  0  0
    5.1937   -1.6680    2.1185 C   0  0  0  0  0  0  0  0  0  0  0  0
    4.6583   -2.3445    3.0147 O   0  0  0  0  0  0  0  0  0  0  0  0
    6.6785   -1.6258    2.0491 C   0  0  0  0  0  0  0  0  0  0  0  0
    7.4306   -2.3918    2.9164 C   0  0  0  0  0  0  0  0  0  0  0  0
    8.8150   -2.2977    2.8460 C   0  0  0  0  0  0  0  0  0  0  0  0
    9.4546   -1.4521    1.9080 C   0  0  0  0  0  0  0  0  0  0  0  0
    8.5762   -0.7565    1.0250 C   0  0  0  0  0  0  0  0  0  0  0  0
    9.0648    0.0605   -0.0037 O   0  0  0  0  0  0  0  0  0  0  0  0
    8.1091    0.1537   -1.0969 C   0  0  0  0  0  0  0  0  0  0  0  0
    8.5395    1.0038   -2.2707 C   0  0  0  0  0  0  0  0  0  0  0  0
    9.6630    2.0131   -2.3351 C   0  0  0  0  0  0  0  0  0  0  0  0
    9.8543    0.6402   -2.9176 C   0  0  0  0  0  0  0  0  0  0  0  0
    7.2167   -0.8254    1.0955 N   0  0  0  0  0  0  0  0  0  0  0  0
   10.9781   -1.3278    1.9814 C   0  0  0  0  0  0  0  0  0  0  0  0
   11.9386   -2.5046    2.0813 C   0  0  0  0  0  0  0  0  0  0  0  0
   11.8074   -1.7526    0.7939 C   0  0  0  0  0  0  0  0  0  0  0  0
    2.7655    1.9409   -0.9912 H   0  0  0  0  0  0  0  0  0  0  0  0
    4.0778    1.5419    0.1212 H   0  0  0  0  0  0  0  0  0  0  0  0
    2.4787    2.0077    0.7447 H   0  0  0  0  0  0  0  0  0  0  0  0
    2.9054   -0.4368   -1.0336 H   0  0  0  0  0  0  0  0  0  0  0  0
    1.4560   -0.0157   -0.1697 H   0  0  0  0  0  0  0  0  0  0  0  0
    2.8545    0.6216    2.6416 H   0  0  0  0  0  0  0  0  0  0  0  0
    2.7672   -0.9825    3.2975 H   0  0  0  0  0  0  0  0  0  0  0  0
    0.5047    0.3179    1.7103 H   0  0  0  0  0  0  0  0  0  0  0  0
    0.6088    0.1693    3.4602 H   0  0  0  0  0  0  0  0  0  0  0  0
    0.4634   -1.2857    2.4678 H   0  0  0  0  0  0  0  0  0  0  0  0
    3.2551   -3.1638    2.5037 H   0  0  0  0  0  0  0  0  0  0  0  0
    1.1044   -4.5659    1.0047 H   0  0  0  0  0  0  0  0  0  0  0  0
    1.7148   -4.9806    2.6139 H   0  0  0  0  0  0  0  0  0  0  0  0
    3.2700   -5.3146   -0.0205 H   0  0  0  0  0  0  0  0  0  0  0  0
    2.4779   -6.6240    0.8969 H   0  0  0  0  0  0  0  0  0  0  0  0
    5.9271   -6.7704    1.9221 H   0  0  0  0  0  0  0  0  0  0  0  0
    5.3972   -6.3887    0.2698 H   0  0  0  0  0  0  0  0  0  0  0  0
    4.6077   -7.7101    1.1927 H   0  0  0  0  0  0  0  0  0  0  0  0
    5.0059   -0.7281    0.3142 H   0  0  0  0  0  0  0  0  0  0  0  0
    6.9498   -3.0496    3.6427 H   0  0  0  0  0  0  0  0  0  0  0  0
    9.4039   -2.9085    3.5310 H   0  0  0  0  0  0  0  0  0  0  0  0
    7.1452    0.5657   -0.7675 H   0  0  0  0  0  0  0  0  0  0  0  0
    7.9522   -0.8550   -1.5068 H   0  0  0  0  0  0  0  0  0  0  0  0
    7.6953    1.2199   -2.9158 H   0  0  0  0  0  0  0  0  0  0  0  0
   10.1839    2.2722   -1.4245 H   0  0  0  0  0  0  0  0  0  0  0  0
    9.5954    2.8235   -3.0561 H   0  0  0  0  0  0  0  0  0  0  0  0
    9.8393    0.4963   -3.9895 H   0  0  0  0  0  0  0  0  0  0  0  0
   10.5277   -0.0171   -2.3838 H   0  0  0  0  0  0  0  0  0  0  0  0
   11.3292   -0.5237    2.6313 H   0  0  0  0  0  0  0  0  0  0  0  0
   11.5854   -3.5279    2.1219 H   0  0  0  0  0  0  0  0  0  0  0  0
   12.8572   -2.3534    2.6496 H   0  0  0  0  0  0  0  0  0  0  0  0
   12.6078   -1.0910    0.4883 H   0  0  0  0  0  0  0  0  0  0  0  0
   11.3215   -2.2686   -0.0261 H   0  0  0  0  0  0  0  0  0  0  0  0
  1  2  1  0  0  0  0
  1 30  1  0  0  0  0
  1 31  1  0  0  0  0
  1 32  1  0  0  0  0
  2  3  1  0  0  0  0
  2 33  1  0  0  0  0
  2 34  1  0  0  0  0
  3  4  1  0  0  0  0
  3  6  1  0  0  0  0
  3 13  1  0  0  0  0
  4  5  1  0  0  0  0
  4 35  1  0  0  0  0
  4 36  1  0  0  0  0
  5 37  1  0  0  0  0
  5 38  1  0  0  0  0
  5 39  1  0  0  0  0
  6  7  2  0  0  0  0
  6  8  1  0  0  0  0
  8  9  1  0  0  0  0
  8 40  1  0  0  0  0
  9 10  1  0  0  0  0
  9 41  1  0  0  0  0
  9 42  1  0  0  0  0
 10 11  1  0  0  0  0
 10 43  1  0  0  0  0
 10 44  1  0  0  0  0
 11 12  1  0  0  0  0
 12 45  1  0  0  0  0
 12 46  1  0  0  0  0
 12 47  1  0  0  0  0
 13 14  1  0  0  0  0
 13 48  1  0  0  0  0
 14 15  2  0  0  0  0
 14 16  1  0  0  0  0
 16 26  2  0  0  0  0
 16 17  1  0  0  0  0
 17 18  2  0  0  0  0
 17 49  1  0  0  0  0
 18 19  1  0  0  0  0
 18 50  1  0  0  0  0
 19 20  2  0  0  0  0
 19 27  1  0  0  0  0
 20 21  1  0  0  0  0
 20 26  1  0  0  0  0
 21 22  1  0  0  0  0
 22 23  1  0  0  0  0
 22 51  1  0  0  0  0
 22 52  1  0  0  0  0
 23 25  1  0  0  0  0
 23 24  1  0  0  0  0
 23 53  1  0  0  0  0
 24 25  1  0  0  0  0
 24 54  1  0  0  0  0
 24 55  1  0  0  0  0
 25 56  1  0  0  0  0
 25 57  1  0  0  0  0
 27 29  1  0  0  0  0
 27 28  1  0  0  0  0
 27 58  1  0  0  0  0
 28 29  1  0  0  0  0
 28 59  1  0  0  0  0
 28 60  1  0  0  0  0
 29 61  1  0  0  0  0
 29 62  1  0  0  0  0
M  END
$$$$
CHEMBL3353833_6PT0
 OpenBabel12022418123D

 47 51  0  0  0  0  0  0  0  0999 V2000
   -3.8510    3.2933    3.7437 C   0  0  0  0  0  0  0  0  0  0  0  0
   -4.1494    1.9355    3.8293 C   0  0  0  0  0  0  0  0  0  0  0  0
   -3.8859    1.0929    2.7454 C   0  0  0  0  0  0  0  0  0  0  0  0
   -3.3176    1.5967    1.5660 C   0  0  0  0  0  0  0  0  0  0  0  0
   -3.0528    2.9723    1.4823 C   0  0  0  0  0  0  0  0  0  0  0  0
   -3.3119    3.8141    2.5686 C   0  0  0  0  0  0  0  0  0  0  0  0
   -2.9388    0.6505    0.4527 C   0  0  0  0  0  0  0  0  0  0  0  0
   -3.9301    0.5571   -0.6080 N   0  0  0  0  0  0  0  0  0  0  0  0
   -5.0611   -0.2460   -0.6405 C   0  0  0  0  0  0  0  0  0  0  0  0
   -5.5927   -1.1579    0.2864 C   0  0  0  0  0  0  0  0  0  0  0  0
   -6.8624   -1.6909    0.0327 C   0  0  0  0  0  0  0  0  0  0  0  0
   -7.5713   -1.3516   -1.1158 C   0  0  0  0  0  0  0  0  0  0  0  0
   -6.9919   -0.5312   -2.0860 C   0  0  0  0  0  0  0  0  0  0  0  0
   -5.7142    0.0188   -1.8565 C   0  0  0  0  0  0  0  0  0  0  0  0
   -4.8618    0.8636   -2.6078 C   0  0  0  0  0  0  0  0  0  0  0  0
   -3.8270    1.2573   -1.7809 C   0  0  0  0  0  0  0  0  0  0  0  0
   -2.9070    2.1916   -2.0739 N   0  0  0  0  0  0  0  0  0  0  0  0
   -3.1148    2.7076   -3.2995 C   0  0  0  0  0  0  0  0  0  0  0  0
   -4.0479    2.2880   -4.1958 N   0  0  0  0  0  0  0  0  0  0  0  0
   -4.9445    1.3562   -3.8679 N   0  0  0  0  0  0  0  0  0  0  0  0
   -2.2094    4.2012   -3.6342 S   0  0  0  0  0  0  0  0  0  0  0  0
   -2.3397    4.2453   -5.4389 C   0  0  0  0  0  0  0  0  0  0  0  0
   -1.8086    5.5505   -5.9900 C   0  0  0  0  0  0  0  0  0  0  0  0
   -2.6970    6.6304   -6.1523 C   0  0  0  0  0  0  0  0  0  0  0  0
   -2.2569    7.8447   -6.6796 C   0  0  0  0  0  0  0  0  0  0  0  0
   -0.9239    8.0038   -7.0423 C   0  0  0  0  0  0  0  0  0  0  0  0
   -0.0202    6.9633   -6.8573 C   0  0  0  0  0  0  0  0  0  0  0  0
   -0.4506    5.7313   -6.3179 C   0  0  0  0  0  0  0  0  0  0  0  0
    0.5260    4.6954   -6.1140 C   0  0  0  0  0  0  0  0  0  0  0  0
    1.3091    3.8522   -5.9490 N   0  0  0  0  0  0  0  0  0  0  0  0
   -4.0366    3.9441    4.5952 H   0  0  0  0  0  0  0  0  0  0  0  0
   -4.5725    1.5271    4.7409 H   0  0  0  0  0  0  0  0  0  0  0  0
   -4.1072    0.0362    2.8432 H   0  0  0  0  0  0  0  0  0  0  0  0
   -2.6166    3.4016    0.5788 H   0  0  0  0  0  0  0  0  0  0  0  0
   -3.0805    4.8761    2.5047 H   0  0  0  0  0  0  0  0  0  0  0  0
   -2.7640   -0.3627    0.8367 H   0  0  0  0  0  0  0  0  0  0  0  0
   -1.9850    0.9669    0.0083 H   0  0  0  0  0  0  0  0  0  0  0  0
   -5.0635   -1.4280    1.1932 H   0  0  0  0  0  0  0  0  0  0  0  0
   -7.3140   -2.3665    0.7566 H   0  0  0  0  0  0  0  0  0  0  0  0
   -8.5806   -1.7288   -1.2638 H   0  0  0  0  0  0  0  0  0  0  0  0
   -7.5394   -0.2805   -2.9912 H   0  0  0  0  0  0  0  0  0  0  0  0
   -3.3828    4.1378   -5.7589 H   0  0  0  0  0  0  0  0  0  0  0  0
   -1.7968    3.3934   -5.8617 H   0  0  0  0  0  0  0  0  0  0  0  0
   -3.7424    6.5285   -5.8677 H   0  0  0  0  0  0  0  0  0  0  0  0
   -2.9581    8.6668   -6.8060 H   0  0  0  0  0  0  0  0  0  0  0  0
   -0.5830    8.9474   -7.4631 H   0  0  0  0  0  0  0  0  0  0  0  0
    1.0234    7.1019   -7.1264 H   0  0  0  0  0  0  0  0  0  0  0  0
  1  6  2  0  0  0  0
  1  2  1  0  0  0  0
  1 31  1  0  0  0  0
  2  3  2  0  0  0  0
  2 32  1  0  0  0  0
  3  4  1  0  0  0  0
  3 33  1  0  0  0  0
  4  5  2  0  0  0  0
  4  7  1  0  0  0  0
  5  6  1  0  0  0  0
  5 34  1  0  0  0  0
  6 35  1  0  0  0  0
  7  8  1  0  0  0  0
  7 36  1  0  0  0  0
  7 37  1  0  0  0  0
  8 16  1  0  0  0  0
  8  9  1  0  0  0  0
  9 14  2  0  0  0  0
  9 10  1  0  0  0  0
 10 11  2  0  0  0  0
 10 38  1  0  0  0  0
 11 12  1  0  0  0  0
 11 39  1  0  0  0  0
 12 13  2  0  0  0  0
 12 40  1  0  0  0  0
 13 14  1  0  0  0  0
 13 41  1  0  0  0  0
 14 15  1  0  0  0  0
 15 20  2  0  0  0  0
 15 16  1  0  0  0  0
 16 17  2  0  0  0  0
 17 18  1  0  0  0  0
 18 19  2  0  0  0  0
 18 21  1  0  0  0  0
 19 20  1  0  0  0  0
 21 22  1  0  0  0  0
 22 23  1  0  0  0  0
 22 42  1  0  0  0  0
 22 43  1  0  0  0  0
 23 28  2  0  0  0  0
 23 24  1  0  0  0  0
 24 25  2  0  0  0  0
 24 44  1  0  0  0  0
 25 26  1  0  0  0  0
 25 45  1  0  0  0  0
 26 27  2  0  0  0  0
 26 46  1  0  0  0  0
 27 28  1  0  0  0  0
 27 47  1  0  0  0  0
 28 29  1  0  0  0  0
 29 30  3  0  0  0  0
M  END
$$$$
CHEMBL467681_8GUT
 OpenBabel12022418123D

 53 56  0  0  1  0  0  0  0  0999 V2000
   -2.8138   -3.0203    1.8651 C   0  0  0  0  0  0  0  0  0  0  0  0
   -2.8878   -2.8539    0.3443 C   0  0  2  0  0  0  0  0  0  0  0  0
   -1.5203   -2.4703   -0.2333 C   0  0  0  0  0  0  0  0  0  0  0  0
   -1.1164   -1.0434    0.1448 C   0  0  0  0  0  0  0  0  0  0  0  0
   -2.1680   -0.0160   -0.2923 C   0  0  2  0  0  0  0  0  0  0  0  0
   -3.5549   -0.3822    0.2550 C   0  0  0  0  0  0  0  0  0  0  0  0
   -3.9545   -1.8259   -0.0659 C   0  0  0  0  0  0  0  0  0  0  0  0
   -2.1977    0.1043   -1.7344 N   0  0  0  0  0  0  0  0  0  0  0  0
   -2.5132    1.2534   -2.4024 C   0  0  0  0  0  0  0  0  0  0  0  0
   -2.7989    2.3079   -1.8327 O   0  0  0  0  0  0  0  0  0  0  0  0
   -2.4651    1.1536   -3.8898 C   0  0  0  0  0  0  0  0  0  0  0  0
   -2.3382    2.2978   -4.5820 C   0  0  0  0  0  0  0  0  0  0  0  0
   -2.2406    2.2448   -6.0295 C   0  0  0  0  0  0  0  0  0  0  0  0
   -1.8116    3.3521   -6.7605 C   0  0  0  0  0  0  0  0  0  0  0  0
   -1.6791    3.2454   -8.1396 C   0  0  0  0  0  0  0  0  0  0  0  0
   -2.0353    2.0516   -8.7378 C   0  0  0  0  0  0  0  0  0  0  0  0
   -2.4909    0.9759   -8.0631 N   0  0  0  0  0  0  0  0  0  0  0  0
   -2.5604    1.0686   -6.7140 C   0  0  0  0  0  0  0  0  0  0  0  0
   -2.8412   -0.1002   -5.9629 N   0  0  0  0  0  0  0  0  0  0  0  0
   -3.1737   -1.3216   -6.6845 C   0  0  0  0  0  0  0  0  0  0  0  0
   -4.6561   -1.5313   -6.9553 C   0  0  0  0  0  0  0  0  0  0  0  0
   -5.5503   -1.8161   -5.9126 C   0  0  0  0  0  0  0  0  0  0  0  0
   -6.8364   -2.2909   -6.1932 C   0  0  0  0  0  0  0  0  0  0  0  0
   -7.2624   -2.4345   -7.5132 C   0  0  0  0  0  0  0  0  0  0  0  0
   -6.4170   -2.0652   -8.5564 C   0  0  0  0  0  0  0  0  0  0  0  0
   -5.1210   -1.6204   -8.2792 C   0  0  0  0  0  0  0  0  0  0  0  0
   -2.5116   -0.1507   -4.6199 C   0  0  0  0  0  0  0  0  0  0  0  0
   -2.2781   -1.2020   -4.0118 O   0  0  0  0  0  0  0  0  0  0  0  0
   -2.0581   -3.7673    2.1316 H   0  0  0  0  0  0  0  0  0  0  0  0
   -3.7751   -3.3563    2.2657 H   0  0  0  0  0  0  0  0  0  0  0  0
   -2.5513   -2.0894    2.3760 H   0  0  0  0  0  0  0  0  0  0  0  0
   -3.1745   -3.8270   -0.0744 H   0  0  0  0  0  0  0  0  0  0  0  0
   -1.5559   -2.5633   -1.3264 H   0  0  0  0  0  0  0  0  0  0  0  0
   -0.7523   -3.1747    0.1042 H   0  0  0  0  0  0  0  0  0  0  0  0
   -0.1388   -0.8152   -0.2966 H   0  0  0  0  0  0  0  0  0  0  0  0
   -0.9830   -0.9747    1.2312 H   0  0  0  0  0  0  0  0  0  0  0  0
   -1.8832    0.9671    0.1013 H   0  0  0  0  0  0  0  0  0  0  0  0
   -4.3156    0.2992   -0.1444 H   0  0  0  0  0  0  0  0  0  0  0  0
   -3.5512   -0.2436    1.3417 H   0  0  0  0  0  0  0  0  0  0  0  0
   -4.9077   -2.0576    0.4234 H   0  0  0  0  0  0  0  0  0  0  0  0
   -4.1339   -1.9150   -1.1454 H   0  0  0  0  0  0  0  0  0  0  0  0
   -2.1343   -0.7563   -2.2997 H   0  0  0  0  0  0  0  0  0  0  0  0
   -2.2813    3.2659   -4.0874 H   0  0  0  0  0  0  0  0  0  0  0  0
   -1.5485    4.2806   -6.2631 H   0  0  0  0  0  0  0  0  0  0  0  0
   -1.3030    4.0724   -8.7296 H   0  0  0  0  0  0  0  0  0  0  0  0
   -1.9492    1.9169   -9.8138 H   0  0  0  0  0  0  0  0  0  0  0  0
   -2.8239   -2.1941   -6.1181 H   0  0  0  0  0  0  0  0  0  0  0  0
   -2.6204   -1.3611   -7.6280 H   0  0  0  0  0  0  0  0  0  0  0  0
   -5.2300   -1.7393   -4.8759 H   0  0  0  0  0  0  0  0  0  0  0  0
   -7.4901   -2.5970   -5.3806 H   0  0  0  0  0  0  0  0  0  0  0  0
   -8.2418   -2.8533   -7.7287 H   0  0  0  0  0  0  0  0  0  0  0  0
   -6.7486   -2.1705   -9.5869 H   0  0  0  0  0  0  0  0  0  0  0  0
   -4.4558   -1.3959   -9.1110 H   0  0  0  0  0  0  0  0  0  0  0  0
  1 29  1  0  0  0  0
  1 30  1  0  0  0  0
  1 31  1  0  0  0  0
  2  3  1  0  0  0  0
  2  7  1  0  0  0  0
  2  1  1  0  0  0  0
  2 32  1  6  0  0  0
  3  4  1  0  0  0  0
  3 33  1  0  0  0  0
  3 34  1  0  0  0  0
  4  5  1  0  0  0  0
  4 35  1  0  0  0  0
  4 36  1  0  0  0  0
  5  6  1  0  0  0  0
  5  8  1  0  0  0  0
  5 37  1  1  0  0  0
  6  7  1  0  0  0  0
  6 38  1  0  0  0  0
  6 39  1  0  0  0  0
  7 40  1  0  0  0  0
  7 41  1  0  0  0  0
  8  9  1  0  0  0  0
  8 42  1  0  0  0  0
  9 10  2  0  0  0  0
  9 11  1  0  0  0  0
 11 27  1  0  0  0  0
 11 12  2  0  0  0  0
 12 13  1  0  0  0  0
 12 43  1  0  0  0  0
 13 18  2  0  0  0  0
 13 14  1  0  0  0  0
 14 15  2  0  0  0  0
 14 44  1  0  0  0  0
 15 16  1  0  0  0  0
 15 45  1  0  0  0  0
 16 17  2  0  0  0  0
 16 46  1  0  0  0  0
 17 18  1  0  0  0  0
 18 19  1  0  0  0  0
 19 20  1  0  0  0  0
 19 27  1  0  0  0  0
 20 21  1  0  0  0  0
 20 47  1  0  0  0  0
 20 48  1  0  0  0  0
 21 26  2  0  0  0  0
 21 22  1  0  0  0  0
 22 23  2  0  0  0  0
 22 49  1  0  0  0  0
 23 24  1  0  0  0  0
 23 50  1  0  0  0  0
 24 25  2  0  0  0  0
 24 51  1  0  0  0  0
 25 26  1  0  0  0  0
 25 52  1  0  0  0  0
 26 53  1  0  0  0  0
 27 28  2  0  0  0  0
M  END
$$$$
CHEMBL2152805_5ZTY
 OpenBabel12022418123D

 62 65  0  0  1  0  0  0  0  0999 V2000
    1.6037    0.2054   -5.9441 C   0  0  0  0  0  0  0  0  0  0  0  0
    1.5007   -1.2523   -6.1178 N   0  0  0  0  0  0  0  0  0  0  0  0
    2.6162   -1.7104   -6.9510 C   0  0  0  0  0  0  0  0  0  0  0  0
    1.4605   -1.9195   -4.7966 C   0  0  0  0  0  0  0  0  0  0  0  0
    1.2177   -3.4490   -4.8562 C   0  0  0  0  0  0  0  0  0  0  0  0
    1.0534   -4.0736   -3.5152 N   0  0  0  0  0  0  0  0  0  0  0  0
    2.0503   -4.8837   -2.9655 C   0  0  0  0  0  0  0  0  0  0  0  0
    1.9345   -5.7092   -1.9085 C   0  0  0  0  0  0  0  0  0  0  0  0
    3.0764   -6.6098   -1.5284 C   0  0  0  0  0  0  0  0  0  0  0  0
    4.2246   -6.3684   -1.8906 O   0  0  0  0  0  0  0  0  0  0  0  0
    2.7313   -7.7194   -0.7842 N   0  0  0  0  0  0  0  0  0  0  0  0
    3.6828   -8.7017   -0.2443 C   0  0  2  0  0  0  0  0  0  0  0  0
    3.1359  -10.1860   -0.2291 C   0  0  0  0  0  0  0  0  0  0  0  0
    1.7341  -10.3830   -0.8345 C   0  0  0  0  0  0  0  0  0  0  0  0
    4.0884  -11.1207   -1.0019 C   0  0  0  0  0  0  0  0  0  0  0  0
    3.0713  -10.5057    1.3067 C   0  0  1  0  0  0  0  0  0  0  0  0
    4.4646  -10.7619    1.8946 C   0  0  0  0  0  0  0  0  0  0  0  0
    5.1397   -9.3965    1.7353 C   0  0  0  0  0  0  0  0  0  0  0  0
    3.9804   -8.4637    1.2759 C   0  0  1  0  0  0  0  0  0  0  0  0
    4.2307   -7.0247    1.6827 C   0  0  0  0  0  0  0  0  0  0  0  0
    2.7675   -9.1369    1.9313 C   0  0  0  0  0  0  0  0  0  0  0  0
    0.6204   -5.7057   -1.2195 C   0  0  0  0  0  0  0  0  0  0  0  0
    0.3815   -6.4820   -0.2941 O   0  0  0  0  0  0  0  0  0  0  0  0
   -0.4179   -4.7492   -1.6864 C   0  0  0  0  0  0  0  0  0  0  0  0
   -1.6071   -4.6362   -0.9467 C   0  0  0  0  0  0  0  0  0  0  0  0
   -2.6237   -3.7971   -1.3911 C   0  0  0  0  0  0  0  0  0  0  0  0
   -2.4588   -3.1191   -2.5878 C   0  0  0  0  0  0  0  0  0  0  0  0
   -1.2790   -3.2236   -3.3230 C   0  0  0  0  0  0  0  0  0  0  0  0
   -0.2072   -4.0096   -2.8707 C   0  0  0  0  0  0  0  0  0  0  0  0
   -3.4478   -2.3374   -3.0398 F   0  0  0  0  0  0  0  0  0  0  0  0
    1.6111    0.7157   -6.9137 H   0  0  0  0  0  0  0  0  0  0  0  0
    2.5123    0.4897   -5.4006 H   0  0  0  0  0  0  0  0  0  0  0  0
    0.7369    0.5915   -5.3970 H   0  0  0  0  0  0  0  0  0  0  0  0
    2.6209   -1.1850   -7.9123 H   0  0  0  0  0  0  0  0  0  0  0  0
    2.5192   -2.7727   -7.1940 H   0  0  0  0  0  0  0  0  0  0  0  0
    3.5850   -1.5466   -6.4670 H   0  0  0  0  0  0  0  0  0  0  0  0
    0.6459   -1.4597   -4.2254 H   0  0  0  0  0  0  0  0  0  0  0  0
    2.3792   -1.7155   -4.2327 H   0  0  0  0  0  0  0  0  0  0  0  0
    2.0723   -3.9221   -5.3558 H   0  0  0  0  0  0  0  0  0  0  0  0
    0.3527   -3.6812   -5.4914 H   0  0  0  0  0  0  0  0  0  0  0  0
    2.9916   -4.8322   -3.5086 H   0  0  0  0  0  0  0  0  0  0  0  0
    1.7813   -7.7278   -0.4136 H   0  0  0  0  0  0  0  0  0  0  0  0
    4.6117   -8.6240   -0.8221 H   0  0  0  0  0  0  0  0  0  0  0  0
    1.7344  -10.1952   -1.9139 H   0  0  0  0  0  0  0  0  0  0  0  0
    0.9818   -9.7315   -0.3757 H   0  0  0  0  0  0  0  0  0  0  0  0
    1.3933  -11.4123   -0.6798 H   0  0  0  0  0  0  0  0  0  0  0  0
    4.0475  -10.9180   -2.0778 H   0  0  0  0  0  0  0  0  0  0  0  0
    3.8207  -12.1720   -0.8457 H   0  0  0  0  0  0  0  0  0  0  0  0
    5.1345  -10.9951   -0.7054 H   0  0  0  0  0  0  0  0  0  0  0  0
    2.3555  -11.2890    1.5702 H   0  0  0  0  0  0  0  0  0  0  0  0
    5.0153  -11.5772    1.4198 H   0  0  0  0  0  0  0  0  0  0  0  0
    4.3805  -11.0159    2.9592 H   0  0  0  0  0  0  0  0  0  0  0  0
    5.9556   -9.4288    1.0062 H   0  0  0  0  0  0  0  0  0  0  0  0
    5.5642   -9.0862    2.6976 H   0  0  0  0  0  0  0  0  0  0  0  0
    5.0913   -6.6156    1.1436 H   0  0  0  0  0  0  0  0  0  0  0  0
    4.4461   -6.9543    2.7559 H   0  0  0  0  0  0  0  0  0  0  0  0
    3.3628   -6.3903    1.4852 H   0  0  0  0  0  0  0  0  0  0  0  0
    2.8164   -9.1428    3.0257 H   0  0  0  0  0  0  0  0  0  0  0  0
    1.8046   -8.7185    1.6254 H   0  0  0  0  0  0  0  0  0  0  0  0
   -1.7357   -5.1954   -0.0205 H   0  0  0  0  0  0  0  0  0  0  0  0
   -3.5419   -3.6840   -0.8255 H   0  0  0  0  0  0  0  0  0  0  0  0
   -1.2379   -2.6595   -4.2523 H   0  0  0  0  0  0  0  0  0  0  0  0
  1  2  1  0  0  0  0
  1 31  1  0  0  0  0
  1 32  1  0  0  0  0
  1 33  1  0  0  0  0
  2  3  1  0  0  0  0
  2  4  1  0  0  0  0
  3 34  1  0  0  0  0
  3 35  1  0  0  0  0
  3 36  1  0  0  0  0
  4  5  1  0  0  0  0
  4 37  1  0  0  0  0
  4 38  1  0  0  0  0
  5  6  1  0  0  0  0
  5 39  1  0  0  0  0
  5 40  1  0  0  0  0
  6 29  1  0  0  0  0
  6  7  1  0  0  0  0
  7  8  2  0  0  0  0
  7 41  1  0  0  0  0
  8  9  1  0  0  0  0
  8 22  1  0  0  0  0
  9 10  2  0  0  0  0
  9 11  1  0  0  0  0
 11 42  1  0  0  0  0
 12 13  1  0  0  0  0
 12 19  1  0  0  0  0
 12 11  1  0  0  0  0
 12 43  1  6  0  0  0
 13 14  1  0  0  0  0
 13 15  1  0  0  0  0
 13 16  1  0  0  0  0
 14 44  1  0  0  0  0
 14 45  1  0  0  0  0
 14 46  1  0  0  0  0
 15 47  1  0  0  0  0
 15 48  1  0  0  0  0
 15 49  1  0  0  0  0
 16 17  1  0  0  0  0
 16 21  1  0  0  0  0
 16 50  1  1  0  0  0
 17 18  1  0  0  0  0
 17 51  1  0  0  0  0
 17 52  1  0  0  0  0
 18 19  1  0  0  0  0
 18 53  1  0  0  0  0
 18 54  1  0  0  0  0
 19 20  1  1  0  0  0
 19 21  1  0  0  0  0
 20 55  1  0  0  0  0
 20 56  1  0  0  0  0
 20 57  1  0  0  0  0
 21 58  1  0  0  0  0
 21 59  1  0  0  0  0
 22 23  2  0  0  0  0
 22 24  1  0  0  0  0
 24 29  2  0  0  0  0
 24 25  1  0  0  0  0
 25 26  2  0  0  0  0
 25 60  1  0  0  0  0
 26 27  1  0  0  0  0
 26 61  1  0  0  0  0
 27 28  2  0  0  0  0
 27 30  1  0  0  0  0
 28 29  1  0  0  0  0
 28 62  1  0  0  0  0
M  END
$$$$
CHEMBL579249_5ZTY
 OpenBabel12022418123D

 59 62  0  0  0  0  0  0  0  0999 V2000
   -0.1322   -0.9373   -0.0391 N   0  0  0  0  0  0  0  0  0  0  0  0
   -0.9797    0.1082   -0.2863 N   0  0  0  0  0  0  0  0  0  0  0  0
   -0.1949    1.2054   -0.2511 C   0  0  0  0  0  0  0  0  0  0  0  0
    1.1895    0.8362   -0.2052 C   0  0  0  0  0  0  0  0  0  0  0  0
    1.1959   -0.5413   -0.0335 C   0  0  0  0  0  0  0  0  0  0  0  0
    2.3304   -1.3767    0.0198 N   0  0  0  0  0  0  0  0  0  0  0  0
    2.5654   -2.5506   -0.7090 C   0  0  0  0  0  0  0  0  0  0  0  0
    3.8530   -2.9848   -0.4506 C   0  0  0  0  0  0  0  0  0  0  0  0
    4.4398   -2.0890    0.4473 C   0  0  0  0  0  0  0  0  0  0  0  0
    3.4908   -1.1404    0.7712 C   0  0  0  0  0  0  0  0  0  0  0  0
    3.6585   -0.0798    1.8070 C   0  0  0  0  0  0  0  0  0  0  0  0
    1.6412   -3.1877   -1.6899 C   0  0  0  0  0  0  0  0  0  0  0  0
    2.3471    1.7567   -0.4029 C   0  0  0  0  0  0  0  0  0  0  0  0
   -0.7226    2.5936   -0.2826 C   0  0  0  0  0  0  0  0  0  0  0  0
    0.0239    3.5641   -0.1571 O   0  0  0  0  0  0  0  0  0  0  0  0
   -2.0936    2.7544   -0.4487 N   0  0  0  0  0  0  0  0  0  0  0  0
   -2.6582    4.1017   -0.6192 C   0  0  0  0  0  0  0  0  0  0  0  0
   -2.4748    4.5910   -2.0685 C   0  0  0  0  0  0  0  0  0  0  0  0
   -3.7430    4.7656   -2.9042 C   0  0  0  0  0  0  0  0  0  0  0  0
   -4.4688    6.0783   -2.6173 C   0  0  0  0  0  0  0  0  0  0  0  0
   -5.3088    6.0905   -1.3454 C   0  0  0  0  0  0  0  0  0  0  0  0
   -4.5947    5.6717   -0.0623 C   0  0  0  0  0  0  0  0  0  0  0  0
   -4.0803    4.2244   -0.0543 C   0  0  0  0  0  0  0  0  0  0  0  0
   -0.7004   -2.2182    0.2412 C   0  0  0  0  0  0  0  0  0  0  0  0
   -0.1255   -3.0761    1.1877 C   0  0  0  0  0  0  0  0  0  0  0  0
   -0.6776   -4.3469    1.4091 C   0  0  0  0  0  0  0  0  0  0  0  0
   -1.7915   -4.7664    0.6727 C   0  0  0  0  0  0  0  0  0  0  0  0
   -2.3601   -3.9100   -0.2743 C   0  0  0  0  0  0  0  0  0  0  0  0
   -1.8338   -2.6290   -0.4747 C   0  0  0  0  0  0  0  0  0  0  0  0
   -2.5116   -6.3233    0.8833 Cl  0  0  0  0  0  0  0  0  0  0  0  0
    0.0648   -5.3466    2.6082 Cl  0  0  0  0  0  0  0  0  0  0  0  0
    4.3234   -3.8544   -0.8937 H   0  0  0  0  0  0  0  0  0  0  0  0
    5.4435   -2.1393    0.8524 H   0  0  0  0  0  0  0  0  0  0  0  0
    2.7178    0.3802    2.1145 H   0  0  0  0  0  0  0  0  0  0  0  0
    4.3420    0.6953    1.4430 H   0  0  0  0  0  0  0  0  0  0  0  0
    4.1088   -0.5092    2.7092 H   0  0  0  0  0  0  0  0  0  0  0  0
    0.8071   -2.5537   -1.9875 H   0  0  0  0  0  0  0  0  0  0  0  0
    1.2551   -4.1280   -1.2806 H   0  0  0  0  0  0  0  0  0  0  0  0
    2.1867   -3.4337   -2.6074 H   0  0  0  0  0  0  0  0  0  0  0  0
    2.0826    2.6149   -1.0246 H   0  0  0  0  0  0  0  0  0  0  0  0
    3.1655    1.2476   -0.9231 H   0  0  0  0  0  0  0  0  0  0  0  0
    2.7117    2.1387    0.5536 H   0  0  0  0  0  0  0  0  0  0  0  0
   -2.6260    1.9195   -0.6721 H   0  0  0  0  0  0  0  0  0  0  0  0
   -2.0345    4.7560    0.0060 H   0  0  0  0  0  0  0  0  0  0  0  0
   -1.8076    3.9066   -2.6080 H   0  0  0  0  0  0  0  0  0  0  0  0
   -1.9400    5.5502   -2.0421 H   0  0  0  0  0  0  0  0  0  0  0  0
   -4.4161    3.9075   -2.8018 H   0  0  0  0  0  0  0  0  0  0  0  0
   -3.4390    4.7874   -3.9584 H   0  0  0  0  0  0  0  0  0  0  0  0
   -5.1406    6.2908   -3.4597 H   0  0  0  0  0  0  0  0  0  0  0  0
   -3.7496    6.9064   -2.5934 H   0  0  0  0  0  0  0  0  0  0  0  0
   -6.1920    5.4569   -1.4905 H   0  0  0  0  0  0  0  0  0  0  0  0
   -5.6906    7.1115   -1.2075 H   0  0  0  0  0  0  0  0  0  0  0  0
   -5.3178    5.7801    0.7566 H   0  0  0  0  0  0  0  0  0  0  0  0
   -3.7805    6.3732    0.1579 H   0  0  0  0  0  0  0  0  0  0  0  0
   -4.0597    3.8838    0.9895 H   0  0  0  0  0  0  0  0  0  0  0  0
   -4.7803    3.5554   -0.5679 H   0  0  0  0  0  0  0  0  0  0  0  0
    0.7364   -2.7696    1.7769 H   0  0  0  0  0  0  0  0  0  0  0  0
   -3.2112   -4.2375   -0.8686 H   0  0  0  0  0  0  0  0  0  0  0  0
   -2.2770   -1.9872   -1.2333 H   0  0  0  0  0  0  0  0  0  0  0  0
  1  5  1  0  0  0  0
  1  2  1  0  0  0  0
  1 24  1  0  0  0  0
  2  3  2  0  0  0  0
  3  4  1  0  0  0  0
  3 14  1  0  0  0  0
  4  5  2  0  0  0  0
  4 13  1  0  0  0  0
  5  6  1  0  0  0  0
  6 10  1  0  0  0  0
  6  7  1  0  0  0  0
  7  8  2  0  0  0  0
  7 12  1  0  0  0  0
  8  9  1  0  0  0  0
  8 32  1  0  0  0  0
  9 10  2  0  0  0  0
  9 33  1  0  0  0  0
 10 11  1  0  0  0  0
 11 34  1  0  0  0  0
 11 35  1  0  0  0  0
 11 36  1  0  0  0  0
 12 37  1  0  0  0  0
 12 38  1  0  0  0  0
 12 39  1  0  0  0  0
 13 40  1  0  0  0  0
 13 41  1  0  0  0  0
 13 42  1  0  0  0  0
 14 15  2  0  0  0  0
 14 16  1  0  0  0  0
 16 17  1  0  0  0  0
 16 43  1  0  0  0  0
 17 23  1  0  0  0  0
 17 18  1  0  0  0  0
 17 44  1  0  0  0  0
 18 19  1  0  0  0  0
 18 45  1  0  0  0  0
 18 46  1  0  0  0  0
 19 20  1  0  0  0  0
 19 47  1  0  0  0  0
 19 48  1  0  0  0  0
 20 21  1  0  0  0  0
 20 49  1  0  0  0  0
 20 50  1  0  0  0  0
 21 22  1  0  0  0  0
 21 51  1  0  0  0  0
 21 52  1  0  0  0  0
 22 23  1  0  0  0  0
 22 53  1  0  0  0  0
 22 54  1  0  0  0  0
 23 55  1  0  0  0  0
 23 56  1  0  0  0  0
 24 29  2  0  0  0  0
 24 25  1  0  0  0  0
 25 26  2  0  0  0  0
 25 57  1  0  0  0  0
 26 27  1  0  0  0  0
 26 31  1  0  0  0  0
 27 28  2  0  0  0  0
 27 30  1  0  0  0  0
 28 29  1  0  0  0  0
 28 58  1  0  0  0  0
 29 59  1  0  0  0  0
M  END
$$$$
CHEMBL218956_6PT0
 OpenBabel12022418123D

 52 55  0  0  0  0  0  0  0  0999 V2000
    0.9279   -0.9787   -1.6450 C   0  0  0  0  0  0  0  0  0  0  0  0
    2.1543   -0.4906   -1.2143 C   0  0  0  0  0  0  0  0  0  0  0  0
    2.2299    0.7732   -0.6392 C   0  0  0  0  0  0  0  0  0  0  0  0
    1.0862    1.5879   -0.5255 C   0  0  0  0  0  0  0  0  0  0  0  0
   -0.1808    1.1008   -0.9793 C   0  0  0  0  0  0  0  0  0  0  0  0
   -0.2382   -0.2106   -1.5246 C   0  0  0  0  0  0  0  0  0  0  0  0
   -1.4646   -0.7598   -1.9361 C   0  0  0  0  0  0  0  0  0  0  0  0
   -2.6489   -0.0353   -1.8358 C   0  0  0  0  0  0  0  0  0  0  0  0
   -2.6175    1.2584   -1.3395 C   0  0  0  0  0  0  0  0  0  0  0  0
   -1.4041    1.8182   -0.9260 C   0  0  0  0  0  0  0  0  0  0  0  0
    1.2146    2.8979    0.2041 C   0  0  0  0  0  0  0  0  0  0  0  0
    0.2917    3.2874    0.9146 O   0  0  0  0  0  0  0  0  0  0  0  0
    2.4680    3.6578    0.1630 C   0  0  0  0  0  0  0  0  0  0  0  0
    3.4276    3.7014   -0.8265 C   0  0  0  0  0  0  0  0  0  0  0  0
    4.4761    4.4955   -0.4135 N   0  0  0  0  0  0  0  0  0  0  0  0
    4.1861    5.0392    0.8335 C   0  0  0  0  0  0  0  0  0  0  0  0
    2.9327    4.5454    1.1718 C   0  0  0  0  0  0  0  0  0  0  0  0
    5.0535    5.8987    1.6675 C   0  0  0  0  0  0  0  0  0  0  0  0
    5.9253    6.8595    1.1607 C   0  0  0  0  0  0  0  0  0  0  0  0
    6.7504    7.6426    1.9032 N   0  0  0  0  0  0  0  0  0  0  0  0
    6.6755    7.4996    3.2398 C   0  0  0  0  0  0  0  0  0  0  0  0
    5.8147    6.6158    3.8629 C   0  0  0  0  0  0  0  0  0  0  0  0
    5.0038    5.8069    3.0654 C   0  0  0  0  0  0  0  0  0  0  0  0
    5.7099    4.6948   -1.1666 C   0  0  0  0  0  0  0  0  0  0  0  0
    5.8469    3.9202   -2.4780 C   0  0  0  0  0  0  0  0  0  0  0  0
    7.1663    4.2462   -3.1772 C   0  0  0  0  0  0  0  0  0  0  0  0
    7.2565    3.5116   -4.5130 C   0  0  0  0  0  0  0  0  0  0  0  0
    8.5615    3.8090   -5.2293 C   0  0  0  0  0  0  0  0  0  0  0  0
    0.8845   -1.9816   -2.0666 H   0  0  0  0  0  0  0  0  0  0  0  0
    3.0466   -1.1060   -1.3020 H   0  0  0  0  0  0  0  0  0  0  0  0
    3.1932    1.0962   -0.2529 H   0  0  0  0  0  0  0  0  0  0  0  0
   -1.5099   -1.7732   -2.3306 H   0  0  0  0  0  0  0  0  0  0  0  0
   -3.5909   -0.4811   -2.1436 H   0  0  0  0  0  0  0  0  0  0  0  0
   -3.5344    1.8374   -1.2604 H   0  0  0  0  0  0  0  0  0  0  0  0
   -1.4366    2.8367   -0.5453 H   0  0  0  0  0  0  0  0  0  0  0  0
    3.4475    3.2032   -1.7869 H   0  0  0  0  0  0  0  0  0  0  0  0
    2.3922    4.7687    2.0882 H   0  0  0  0  0  0  0  0  0  0  0  0
    5.9918    7.0761    0.1029 H   0  0  0  0  0  0  0  0  0  0  0  0
    7.3388    8.1397    3.8138 H   0  0  0  0  0  0  0  0  0  0  0  0
    5.7726    6.5547    4.9444 H   0  0  0  0  0  0  0  0  0  0  0  0
    4.3310    5.1053    3.5526 H   0  0  0  0  0  0  0  0  0  0  0  0
    6.5371    4.4402   -0.4938 H   0  0  0  0  0  0  0  0  0  0  0  0
    5.7476    5.7583   -1.4130 H   0  0  0  0  0  0  0  0  0  0  0  0
    5.0184    4.1855   -3.1468 H   0  0  0  0  0  0  0  0  0  0  0  0
    5.7854    2.8419   -2.2896 H   0  0  0  0  0  0  0  0  0  0  0  0
    8.0072    3.9606   -2.5338 H   0  0  0  0  0  0  0  0  0  0  0  0
    7.2403    5.3279   -3.3454 H   0  0  0  0  0  0  0  0  0  0  0  0
    6.4183    3.8075   -5.1551 H   0  0  0  0  0  0  0  0  0  0  0  0
    7.1723    2.4313   -4.3478 H   0  0  0  0  0  0  0  0  0  0  0  0
    8.6568    4.8783   -5.4427 H   0  0  0  0  0  0  0  0  0  0  0  0
    8.6010    3.2669   -6.1790 H   0  0  0  0  0  0  0  0  0  0  0  0
    9.4193    3.5000   -4.6239 H   0  0  0  0  0  0  0  0  0  0  0  0
  1  6  2  0  0  0  0
  1  2  1  0  0  0  0
  1 29  1  0  0  0  0
  2  3  2  0  0  0  0
  2 30  1  0  0  0  0
  3  4  1  0  0  0  0
  3 31  1  0  0  0  0
  4  5  2  0  0  0  0
  4 11  1  0  0  0  0
  5 10  1  0  0  0  0
  5  6  1  0  0  0  0
  6  7  1  0  0  0  0
  7  8  2  0  0  0  0
  7 32  1  0  0  0  0
  8  9  1  0  0  0  0
  8 33  1  0  0  0  0
  9 10  2  0  0  0  0
  9 34  1  0  0  0  0
 10 35  1  0  0  0  0
 11 12  2  0  0  0  0
 11 13  1  0  0  0  0
 13 17  1  0  0  0  0
 13 14  2  0  0  0  0
 14 15  1  0  0  0  0
 14 36  1  0  0  0  0
 15 16  1  0  0  0  0
 15 24  1  0  0  0  0
 16 17  2  0  0  0  0
 16 18  1  0  0  0  0
 17 37  1  0  0  0  0
 18 23  2  0  0  0  0
 18 19  1  0  0  0  0
 19 20  2  0  0  0  0
 19 38  1  0  0  0  0
 20 21  1  0  0  0  0
 21 22  2  0  0  0  0
 21 39  1  0  0  0  0
 22 23  1  0  0  0  0
 22 40  1  0  0  0  0
 23 41  1  0  0  0  0
 24 25  1  0  0  0  0
 24 42  1  0  0  0  0
 24 43  1  0  0  0  0
 25 26  1  0  0  0  0
 25 44  1  0  0  0  0
 25 45  1  0  0  0  0
 26 27  1  0  0  0  0
 26 46  1  0  0  0  0
 26 47  1  0  0  0  0
 27 28  1  0  0  0  0
 27 48  1  0  0  0  0
 27 49  1  0  0  0  0
 28 50  1  0  0  0  0
 28 51  1  0  0  0  0
 28 52  1  0  0  0  0
M  END
$$$$
CHEMBL2152808_5ZTY
 OpenBabel12022418123D

 61 64  0  0  1  0  0  0  0  0999 V2000
   -2.2192    1.6009    1.8150 C   0  0  0  0  0  0  0  0  0  0  0  0
   -1.2105    0.5014    1.4281 C   0  0  0  0  0  0  0  0  0  0  0  0
   -2.0075   -0.5991    0.7036 C   0  0  0  0  0  0  0  0  0  0  0  0
   -0.4648   -0.0199    2.7087 C   0  0  1  0  0  0  0  0  0  0  0  0
    0.2392   -1.3608    2.4507 C   0  0  0  0  0  0  0  0  0  0  0  0
    1.3154   -0.9763    1.4325 C   0  0  0  0  0  0  0  0  0  0  0  0
    1.2294    0.5743    1.3741 C   0  0  2  0  0  0  0  0  0  0  0  0
    2.5455    1.1540    0.8890 C   0  0  0  0  0  0  0  0  0  0  0  0
    0.7651    0.9036    2.7991 C   0  0  0  0  0  0  0  0  0  0  0  0
   -0.0158    0.9937    0.5300 C   0  0  2  0  0  0  0  0  0  0  0  0
   -0.0321    2.4277    0.2469 N   0  0  0  0  0  0  0  0  0  0  0  0
   -0.6353    2.9798   -0.8545 C   0  0  0  0  0  0  0  0  0  0  0  0
   -1.1481    2.2994   -1.7460 O   0  0  0  0  0  0  0  0  0  0  0  0
   -0.6545    4.4724   -0.9159 C   0  0  0  0  0  0  0  0  0  0  0  0
   -1.1336    5.0898   -2.0112 C   0  0  0  0  0  0  0  0  0  0  0  0
   -1.2718    6.4630   -2.2108 N   0  0  0  0  0  0  0  0  0  0  0  0
   -1.8624    7.0027   -3.4584 C   0  0  0  0  0  0  0  0  0  0  0  0
   -0.7779    7.3450   -4.4869 C   0  0  0  0  0  0  0  0  0  0  0  0
   -1.3614    7.9323   -5.7742 C   0  0  0  0  0  0  0  0  0  0  0  0
   -0.2596    8.2591   -6.7772 C   0  0  0  0  0  0  0  0  0  0  0  0
   -0.8247    8.8175   -7.9548 O   0  0  0  0  0  0  0  0  0  0  0  0
   -0.8930    7.3410   -1.1684 C   0  0  0  0  0  0  0  0  0  0  0  0
   -1.0160    8.7363   -1.2371 C   0  0  0  0  0  0  0  0  0  0  0  0
   -0.6152    9.5480   -0.1734 C   0  0  0  0  0  0  0  0  0  0  0  0
   -0.0910    9.0119    0.9921 C   0  0  0  0  0  0  0  0  0  0  0  0
    0.0330    7.6343    1.1009 C   0  0  0  0  0  0  0  0  0  0  0  0
   -0.3568    6.8105    0.0309 C   0  0  0  0  0  0  0  0  0  0  0  0
   -0.1932    5.3464    0.1854 C   0  0  0  0  0  0  0  0  0  0  0  0
    0.3116    4.8818    1.2065 O   0  0  0  0  0  0  0  0  0  0  0  0
   -0.7396   10.8772   -0.2849 F   0  0  0  0  0  0  0  0  0  0  0  0
   -2.7452    1.9817    0.9321 H   0  0  0  0  0  0  0  0  0  0  0  0
   -1.7464    2.4485    2.3196 H   0  0  0  0  0  0  0  0  0  0  0  0
   -2.9821    1.2018    2.4943 H   0  0  0  0  0  0  0  0  0  0  0  0
   -2.5629   -0.1842   -0.1450 H   0  0  0  0  0  0  0  0  0  0  0  0
   -2.7264   -1.0732    1.3810 H   0  0  0  0  0  0  0  0  0  0  0  0
   -1.3631   -1.3833    0.2939 H   0  0  0  0  0  0  0  0  0  0  0  0
   -1.0866   -0.0413    3.6080 H   0  0  0  0  0  0  0  0  0  0  0  0
   -0.4142   -2.1632    2.1014 H   0  0  0  0  0  0  0  0  0  0  0  0
    0.7148   -1.7201    3.3726 H   0  0  0  0  0  0  0  0  0  0  0  0
    1.1373   -1.4310    0.4527 H   0  0  0  0  0  0  0  0  0  0  0  0
    2.2952   -1.3171    1.7878 H   0  0  0  0  0  0  0  0  0  0  0  0
    3.3780    0.8396    1.5278 H   0  0  0  0  0  0  0  0  0  0  0  0
    2.5445    2.2470    0.8608 H   0  0  0  0  0  0  0  0  0  0  0  0
    2.7571    0.7924   -0.1251 H   0  0  0  0  0  0  0  0  0  0  0  0
    1.4770    0.5870    3.5713 H   0  0  0  0  0  0  0  0  0  0  0  0
    0.5062    1.9525    2.9692 H   0  0  0  0  0  0  0  0  0  0  0  0
   -0.0045    0.4719   -0.4336 H   0  0  0  0  0  0  0  0  0  0  0  0
    0.3146    3.0721    0.9639 H   0  0  0  0  0  0  0  0  0  0  0  0
   -1.4769    4.4980   -2.8588 H   0  0  0  0  0  0  0  0  0  0  0  0
   -2.5012    7.8710   -3.2607 H   0  0  0  0  0  0  0  0  0  0  0  0
   -2.5429    6.2576   -3.8927 H   0  0  0  0  0  0  0  0  0  0  0  0
   -0.2078    6.4394   -4.7298 H   0  0  0  0  0  0  0  0  0  0  0  0
   -0.0654    8.0591   -4.0582 H   0  0  0  0  0  0  0  0  0  0  0  0
   -1.9321    8.8441   -5.5569 H   0  0  0  0  0  0  0  0  0  0  0  0
   -2.0746    7.2341   -6.2298 H   0  0  0  0  0  0  0  0  0  0  0  0
    0.3098    7.3648   -7.0518 H   0  0  0  0  0  0  0  0  0  0  0  0
    0.4370    8.9929   -6.3599 H   0  0  0  0  0  0  0  0  0  0  0  0
   -1.3657    8.1301   -8.3797 H   0  0  0  0  0  0  0  0  0  0  0  0
   -1.4181    9.2443   -2.1057 H   0  0  0  0  0  0  0  0  0  0  0  0
    0.2168    9.6663    1.8026 H   0  0  0  0  0  0  0  0  0  0  0  0
    0.4323    7.1988    2.0147 H   0  0  0  0  0  0  0  0  0  0  0  0
  1  2  1  0  0  0  0
  1 31  1  0  0  0  0
  1 32  1  0  0  0  0
  1 33  1  0  0  0  0
  2 10  1  0  0  0  0
  2  3  1  0  0  0  0
  2  4  1  0  0  0  0
  3 34  1  0  0  0  0
  3 35  1  0  0  0  0
  3 36  1  0  0  0  0
  4  5  1  0  0  0  0
  4  9  1  0  0  0  0
  4 37  1  1  0  0  0
  5  6  1  0  0  0  0
  5 38  1  0  0  0  0
  5 39  1  0  0  0  0
  6  7  1  0  0  0  0
  6 40  1  0  0  0  0
  6 41  1  0  0  0  0
  7  8  1  6  0  0  0
  7  9  1  0  0  0  0
  7 10  1  0  0  0  0
  8 42  1  0  0  0  0
  8 43  1  0  0  0  0
  8 44  1  0  0  0  0
  9 45  1  0  0  0  0
  9 46  1  0  0  0  0
 10 11  1  0  0  0  0
 10 47  1  6  0  0  0
 11 12  1  0  0  0  0
 11 48  1  0  0  0  0
 12 13  2  0  0  0  0
 12 14  1  0  0  0  0
 14 28  1  0  0  0  0
 14 15  2  0  0  0  0
 15 16  1  0  0  0  0
 15 49  1  0  0  0  0
 16 17  1  0  0  0  0
 16 22  1  0  0  0  0
 17 18  1  0  0  0  0
 17 50  1  0  0  0  0
 17 51  1  0  0  0  0
 18 19  1  0  0  0  0
 18 52  1  0  0  0  0
 18 53  1  0  0  0  0
 19 20  1  0  0  0  0
 19 54  1  0  0  0  0
 19 55  1  0  0  0  0
 20 21  1  0  0  0  0
 20 56  1  0  0  0  0
 20 57  1  0  0  0  0
 21 58  1  0  0  0  0
 22 27  2  0  0  0  0
 22 23  1  0  0  0  0
 23 24  2  0  0  0  0
 23 59  1  0  0  0  0
 24 25  1  0  0  0  0
 24 30  1  0  0  0  0
 25 26  2  0  0  0  0
 25 60  1  0  0  0  0
 26 27  1  0  0  0  0
 26 61  1  0  0  0  0
 27 28  1  0  0  0  0
 28 29  2  0  0  0  0
M  END
$$$$
CHEMBL574270_5ZTY
 OpenBabel12022418123D

 56 59  0  0  1  0  0  0  0  0999 V2000
   -1.3253    0.5710    1.0479 N   0  0  0  0  0  0  0  0  0  0  0  0
   -1.8233    1.6191    1.7697 N   0  0  0  0  0  0  0  0  0  0  0  0
   -1.5514    2.7228    1.0471 C   0  0  0  0  0  0  0  0  0  0  0  0
   -1.0332    2.3626   -0.2329 C   0  0  0  0  0  0  0  0  0  0  0  0
   -0.7986    0.9966   -0.1572 C   0  0  0  0  0  0  0  0  0  0  0  0
   -0.2657    0.1999   -1.1896 N   0  0  0  0  0  0  0  0  0  0  0  0
   -0.8132   -0.9522   -1.7675 C   0  0  0  0  0  0  0  0  0  0  0  0
   -0.0472   -1.3020   -2.8653 C   0  0  0  0  0  0  0  0  0  0  0  0
    1.0057   -0.3878   -2.9697 C   0  0  0  0  0  0  0  0  0  0  0  0
    0.9045    0.4864   -1.9067 C   0  0  0  0  0  0  0  0  0  0  0  0
    1.9161    1.5236   -1.5432 C   0  0  0  0  0  0  0  0  0  0  0  0
   -2.0673   -1.6449   -1.3568 C   0  0  0  0  0  0  0  0  0  0  0  0
   -0.8866    3.2573   -1.4191 C   0  0  0  0  0  0  0  0  0  0  0  0
   -1.8112    4.0895    1.5734 C   0  0  0  0  0  0  0  0  0  0  0  0
   -1.5345    5.1160    0.9548 O   0  0  0  0  0  0  0  0  0  0  0  0
   -2.3515    4.1161    2.8415 N   0  0  0  0  0  0  0  0  0  0  0  0
   -2.5955    5.3382    3.6045 C   0  0  2  0  0  0  0  0  0  0  0  0
   -2.5097    5.0990    5.1060 C   0  0  0  0  0  0  0  0  0  0  0  0
   -1.9497    6.0754    5.9487 C   0  0  0  0  0  0  0  0  0  0  0  0
   -1.8471    5.8594    7.3269 C   0  0  0  0  0  0  0  0  0  0  0  0
   -2.3041    4.6672    7.8836 C   0  0  0  0  0  0  0  0  0  0  0  0
   -2.9007    3.7083    7.0710 C   0  0  0  0  0  0  0  0  0  0  0  0
   -3.0215    3.9300    5.6985 C   0  0  0  0  0  0  0  0  0  0  0  0
   -3.9464    5.9661    3.2577 C   0  0  0  0  0  0  0  0  0  0  0  0
   -1.3835   -0.7292    1.6322 C   0  0  0  0  0  0  0  0  0  0  0  0
   -0.3738   -1.6768    1.4309 C   0  0  0  0  0  0  0  0  0  0  0  0
   -0.5198   -2.9766    1.9416 C   0  0  0  0  0  0  0  0  0  0  0  0
   -1.6762   -3.3302    2.6495 C   0  0  0  0  0  0  0  0  0  0  0  0
   -2.6775   -2.3798    2.8617 C   0  0  0  0  0  0  0  0  0  0  0  0
   -2.5227   -1.0778    2.3767 C   0  0  0  0  0  0  0  0  0  0  0  0
   -1.9322   -4.9188    3.2792 Cl  0  0  0  0  0  0  0  0  0  0  0  0
    0.7515   -4.1063    1.6360 Cl  0  0  0  0  0  0  0  0  0  0  0  0
   -0.2485   -2.1321   -3.5314 H   0  0  0  0  0  0  0  0  0  0  0  0
    1.7896   -0.3820   -3.7174 H   0  0  0  0  0  0  0  0  0  0  0  0
    1.7091    2.0337   -0.6008 H   0  0  0  0  0  0  0  0  0  0  0  0
    1.9899    2.2702   -2.3420 H   0  0  0  0  0  0  0  0  0  0  0  0
    2.9024    1.0569   -1.4426 H   0  0  0  0  0  0  0  0  0  0  0  0
   -2.7017   -1.0531   -0.6982 H   0  0  0  0  0  0  0  0  0  0  0  0
   -1.8242   -2.5968   -0.8708 H   0  0  0  0  0  0  0  0  0  0  0  0
   -2.6679   -1.8836   -2.2408 H   0  0  0  0  0  0  0  0  0  0  0  0
   -1.4168    4.2028   -1.2907 H   0  0  0  0  0  0  0  0  0  0  0  0
   -1.3208    2.7734   -2.3000 H   0  0  0  0  0  0  0  0  0  0  0  0
    0.1591    3.4927   -1.6254 H   0  0  0  0  0  0  0  0  0  0  0  0
   -2.4824    3.2042    3.2612 H   0  0  0  0  0  0  0  0  0  0  0  0
   -1.8090    6.0508    3.3204 H   0  0  0  0  0  0  0  0  0  0  0  0
   -1.5877    7.0169    5.5392 H   0  0  0  0  0  0  0  0  0  0  0  0
   -1.4063    6.6196    7.9673 H   0  0  0  0  0  0  0  0  0  0  0  0
   -2.2044    4.4880    8.9508 H   0  0  0  0  0  0  0  0  0  0  0  0
   -3.2734    2.7834    7.5022 H   0  0  0  0  0  0  0  0  0  0  0  0
   -3.5216    3.1767    5.0969 H   0  0  0  0  0  0  0  0  0  0  0  0
   -4.7818    5.3354    3.5849 H   0  0  0  0  0  0  0  0  0  0  0  0
   -4.0520    6.1308    2.1825 H   0  0  0  0  0  0  0  0  0  0  0  0
   -4.0653    6.9425    3.7610 H   0  0  0  0  0  0  0  0  0  0  0  0
    0.5339   -1.4263    0.8843 H   0  0  0  0  0  0  0  0  0  0  0  0
   -3.5901   -2.6506    3.3894 H   0  0  0  0  0  0  0  0  0  0  0  0
   -3.3328   -0.3637    2.5218 H   0  0  0  0  0  0  0  0  0  0  0  0
  1  5  1  0  0  0  0
  1  2  1  0  0  0  0
  1 25  1  0  0  0  0
  2  3  2  0  0  0  0
  3  4  1  0  0  0  0
  3 14  1  0  0  0  0
  4  5  2  0  0  0  0
  4 13  1  0  0  0  0
  5  6  1  0  0  0  0
  6 10  1  0  0  0  0
  6  7  1  0  0  0  0
  7  8  2  0  0  0  0
  7 12  1  0  0  0  0
  8  9  1  0  0  0  0
  8 33  1  0  0  0  0
  9 10  2  0  0  0  0
  9 34  1  0  0  0  0
 10 11  1  0  0  0  0
 11 35  1  0  0  0  0
 11 36  1  0  0  0  0
 11 37  1  0  0  0  0
 12 38  1  0  0  0  0
 12 39  1  0  0  0  0
 12 40  1  0  0  0  0
 13 41  1  0  0  0  0
 13 42  1  0  0  0  0
 13 43  1  0  0  0  0
 14 15  2  0  0  0  0
 14 16  1  0  0  0  0
 16 44  1  0  0  0  0
 17 24  1  0  0  0  0
 17 18  1  0  0  0  0
 17 16  1  0  0  0  0
 17 45  1  6  0  0  0
 18 23  2  0  0  0  0
 18 19  1  0  0  0  0
 19 20  2  0  0  0  0
 19 46  1  0  0  0  0
 20 21  1  0  0  0  0
 20 47  1  0  0  0  0
 21 22  2  0  0  0  0
 21 48  1  0  0  0  0
 22 23  1  0  0  0  0
 22 49  1  0  0  0  0
 23 50  1  0  0  0  0
 24 51  1  0  0  0  0
 24 52  1  0  0  0  0
 24 53  1  0  0  0  0
 25 30  2  0  0  0  0
 25 26  1  0  0  0  0
 26 27  2  0  0  0  0
 26 54  1  0  0  0  0
 27 28  1  0  0  0  0
 27 32  1  0  0  0  0
 28 29  2  0  0  0  0
 28 31  1  0  0  0  0
 29 30  1  0  0  0  0
 29 55  1  0  0  0  0
 30 56  1  0  0  0  0
M  END
$$$$
CHEMBL574480_8GUQ
 OpenBabel12022418123D

 56 59  0  0  1  0  0  0  0  0999 V2000
    2.2037    2.1809    0.6023 C   0  0  0  0  0  0  0  0  0  0  0  0
    2.7975    1.7473   -0.6945 C   0  0  0  0  0  0  0  0  0  0  0  0
    3.1237    2.5751   -1.8294 C   0  0  0  0  0  0  0  0  0  0  0  0
    2.9588    4.0568   -1.9939 C   0  0  0  0  0  0  0  0  0  0  0  0
    2.3426    4.7474   -1.1831 O   0  0  0  0  0  0  0  0  0  0  0  0
    3.5566    4.5810   -3.1362 N   0  0  0  0  0  0  0  0  0  0  0  0
    3.4536    5.9769   -3.6329 C   0  0  2  0  0  0  0  0  0  0  0  0
    3.3509    5.9334   -5.1659 C   0  0  0  0  0  0  0  0  0  0  0  0
    4.6512    6.8885   -3.1872 C   0  0  0  0  0  0  0  0  0  0  0  0
    4.6006    8.3297   -3.7721 C   0  0  0  0  0  0  0  0  0  0  0  0
    5.7241    9.2375   -3.2532 C   0  0  0  0  0  0  0  0  0  0  0  0
    5.7970    9.2537   -1.7329 C   0  0  0  0  0  0  0  0  0  0  0  0
    5.8959    7.8404   -1.1831 C   0  0  0  0  0  0  0  0  0  0  0  0
    4.7298    6.9745   -1.6540 C   0  0  0  0  0  0  0  0  0  0  0  0
    3.5807    1.8228   -2.8564 N   0  0  0  0  0  0  0  0  0  0  0  0
    3.6155    0.5377   -2.3808 N   0  0  0  0  0  0  0  0  0  0  0  0
    4.3333   -0.4518   -3.1318 C   0  0  0  0  0  0  0  0  0  0  0  0
    4.6051   -0.2278   -4.4894 C   0  0  0  0  0  0  0  0  0  0  0  0
    5.3385   -1.1657   -5.2288 C   0  0  0  0  0  0  0  0  0  0  0  0
    5.8093   -2.3342   -4.6246 C   0  0  0  0  0  0  0  0  0  0  0  0
    5.5469   -2.5661   -3.2729 C   0  0  0  0  0  0  0  0  0  0  0  0
    4.8326   -1.6183   -2.5317 C   0  0  0  0  0  0  0  0  0  0  0  0
    6.0643   -3.9954   -2.4521 Cl  0  0  0  0  0  0  0  0  0  0  0  0
    6.7290   -3.4352   -5.5863 Cl  0  0  0  0  0  0  0  0  0  0  0  0
    3.0417    0.4495   -1.1257 C   0  0  0  0  0  0  0  0  0  0  0  0
    2.7319   -0.7374   -0.4577 N   0  0  0  0  0  0  0  0  0  0  0  0
    2.1018   -1.8528   -0.9782 C   0  0  0  0  0  0  0  0  0  0  0  0
    1.9632   -2.8106    0.0070 C   0  0  0  0  0  0  0  0  0  0  0  0
    2.5562   -2.2884    1.1750 C   0  0  0  0  0  0  0  0  0  0  0  0
    3.0247   -1.0302    0.8658 C   0  0  0  0  0  0  0  0  0  0  0  0
    2.1045    1.3543    1.3123 H   0  0  0  0  0  0  0  0  0  0  0  0
    1.1971    2.5808    0.4556 H   0  0  0  0  0  0  0  0  0  0  0  0
    2.8312    2.9345    1.0845 H   0  0  0  0  0  0  0  0  0  0  0  0
    4.0517    3.8940   -3.7007 H   0  0  0  0  0  0  0  0  0  0  0  0
    2.5216    6.4038   -3.2386 H   0  0  0  0  0  0  0  0  0  0  0  0
    4.2692    5.5282   -5.6075 H   0  0  0  0  0  0  0  0  0  0  0  0
    3.1761    6.9236   -5.5986 H   0  0  0  0  0  0  0  0  0  0  0  0
    2.5219    5.2940   -5.4858 H   0  0  0  0  0  0  0  0  0  0  0  0
    5.5787    6.4239   -3.5497 H   0  0  0  0  0  0  0  0  0  0  0  0
    3.6344    8.7938   -3.5337 H   0  0  0  0  0  0  0  0  0  0  0  0
    4.6819    8.3097   -4.8650 H   0  0  0  0  0  0  0  0  0  0  0  0
    5.5773   10.2609   -3.6202 H   0  0  0  0  0  0  0  0  0  0  0  0
    6.6849    8.8957   -3.6582 H   0  0  0  0  0  0  0  0  0  0  0  0
    4.9073    9.7492   -1.3254 H   0  0  0  0  0  0  0  0  0  0  0  0
    6.6649    9.8385   -1.4065 H   0  0  0  0  0  0  0  0  0  0  0  0
    5.9088    7.8680   -0.0885 H   0  0  0  0  0  0  0  0  0  0  0  0
    6.8402    7.3842   -1.5050 H   0  0  0  0  0  0  0  0  0  0  0  0
    4.8535    5.9766   -1.2265 H   0  0  0  0  0  0  0  0  0  0  0  0
    3.7910    7.3861   -1.2620 H   0  0  0  0  0  0  0  0  0  0  0  0
    4.2478    0.6700   -4.9931 H   0  0  0  0  0  0  0  0  0  0  0  0
    5.5425   -0.9738   -6.2790 H   0  0  0  0  0  0  0  0  0  0  0  0
    4.7211   -1.8116   -1.4700 H   0  0  0  0  0  0  0  0  0  0  0  0
    1.7721   -1.8726   -2.0097 H   0  0  0  0  0  0  0  0  0  0  0  0
    1.4937   -3.7820   -0.1089 H   0  0  0  0  0  0  0  0  0  0  0  0
    2.6447   -2.7779    2.1401 H   0  0  0  0  0  0  0  0  0  0  0  0
    3.5902   -0.3335    1.4684 H   0  0  0  0  0  0  0  0  0  0  0  0
  1  2  1  0  0  0  0
  1 31  1  0  0  0  0
  1 32  1  0  0  0  0
  1 33  1  0  0  0  0
  2 25  2  0  0  0  0
  2  3  1  0  0  0  0
  3  4  1  0  0  0  0
  3 15  2  0  0  0  0
  4  5  2  0  0  0  0
  4  6  1  0  0  0  0
  6 34  1  0  0  0  0
  7  9  1  0  0  0  0
  7  8  1  0  0  0  0
  7  6  1  0  0  0  0
  7 35  1  1  0  0  0
  8 36  1  0  0  0  0
  8 37  1  0  0  0  0
  8 38  1  0  0  0  0
  9 14  1  0  0  0  0
  9 10  1  0  0  0  0
  9 39  1  0  0  0  0
 10 11  1  0  0  0  0
 10 40  1  0  0  0  0
 10 41  1  0  0  0  0
 11 12  1  0  0  0  0
 11 42  1  0  0  0  0
 11 43  1  0  0  0  0
 12 13  1  0  0  0  0
 12 44  1  0  0  0  0
 12 45  1  0  0  0  0
 13 14  1  0  0  0  0
 13 46  1  0  0  0  0
 13 47  1  0  0  0  0
 14 48  1  0  0  0  0
 14 49  1  0  0  0  0
 15 16  1  0  0  0  0
 16 17  1  0  0  0  0
 16 25  1  0  0  0  0
 17 22  2  0  0  0  0
 17 18  1  0  0  0  0
 18 19  2  0  0  0  0
 18 50  1  0  0  0  0
 19 20  1  0  0  0  0
 19 51  1  0  0  0  0
 20 21  2  0  0  0  0
 20 24  1  0  0  0  0
 21 22  1  0  0  0  0
 21 23  1  0  0  0  0
 22 52  1  0  0  0  0
 25 26  1  0  0  0  0
 26 30  1  0  0  0  0
 26 27  1  0  0  0  0
 27 28  2  0  0  0  0
 27 53  1  0  0  0  0
 28 29  1  0  0  0  0
 28 54  1  0  0  0  0
 29 30  2  0  0  0  0
 29 55  1  0  0  0  0
 30 56  1  0  0  0  0
M  END
$$$$
CHEMBL3353423_5ZTY
 OpenBabel12022418123D

 52 54  0  0  1  0  0  0  0  0999 V2000
   -2.4117    0.6093   -0.0639 C   0  0  0  0  0  0  0  0  0  0  0  0
   -2.3036   -0.7673   -0.0757 C   0  0  0  0  0  0  0  0  0  0  0  0
   -1.1269   -1.4232   -0.0188 N   0  0  0  0  0  0  0  0  0  0  0  0
    0.0105   -0.6895    0.0315 C   0  0  0  0  0  0  0  0  0  0  0  0
   -0.0042    0.7072    0.0415 C   0  0  0  0  0  0  0  0  0  0  0  0
   -1.2412    1.3583    0.0055 C   0  0  0  0  0  0  0  0  0  0  0  0
    1.2463    1.4636    0.0470 C   0  0  0  0  0  0  0  0  0  0  0  0
    2.4280    0.8251   -0.0049 C   0  0  0  0  0  0  0  0  0  0  0  0
    2.4591   -0.6757   -0.0271 C   0  0  0  0  0  0  0  0  0  0  0  0
    3.5447   -1.2532   -0.1142 O   0  0  0  0  0  0  0  0  0  0  0  0
    1.2576   -1.3635    0.0496 N   0  0  0  0  0  0  0  0  0  0  0  0
    1.2592   -2.8267   -0.0208 C   0  0  0  0  0  0  0  0  0  0  0  0
    1.9936   -3.5319    1.1245 C   0  0  0  0  0  0  0  0  0  0  0  0
    1.4445   -3.2538    2.5225 C   0  0  0  0  0  0  0  0  0  0  0  0
    2.2656   -4.0294    3.5465 C   0  0  0  0  0  0  0  0  0  0  0  0
    3.6829    1.6627   -0.0917 C   0  0  0  0  0  0  0  0  0  0  0  0
    3.6320    2.8884   -0.1182 O   0  0  0  0  0  0  0  0  0  0  0  0
    4.8549    0.9531   -0.1618 N   0  0  0  0  0  0  0  0  0  0  0  0
    6.1743    1.5378   -0.3590 C   0  0  2  0  0  0  0  0  0  0  0  0
    7.0867    0.5598   -1.1200 C   0  0  0  0  0  0  0  0  0  0  0  0
    7.6995   -0.5408   -0.2507 C   0  0  0  0  0  0  0  0  0  0  0  0
    8.3767   -0.0024    1.0141 C   0  0  2  0  0  0  0  0  0  0  0  0
    7.4129    0.8905    1.8039 C   0  0  0  0  0  0  0  0  0  0  0  0
    6.7904    2.0085    0.9648 C   0  0  0  0  0  0  0  0  0  0  0  0
    9.6833    0.7260    0.6845 C   0  0  0  0  0  0  0  0  0  0  0  0
   -3.3838    1.0872   -0.1167 H   0  0  0  0  0  0  0  0  0  0  0  0
   -3.1831   -1.4023   -0.1385 H   0  0  0  0  0  0  0  0  0  0  0  0
   -1.3027    2.4434    0.0149 H   0  0  0  0  0  0  0  0  0  0  0  0
    1.1822    2.5477    0.0586 H   0  0  0  0  0  0  0  0  0  0  0  0
    1.7569   -3.0998   -0.9604 H   0  0  0  0  0  0  0  0  0  0  0  0
    0.2471   -3.2373   -0.0843 H   0  0  0  0  0  0  0  0  0  0  0  0
    3.0574   -3.2749    1.1069 H   0  0  0  0  0  0  0  0  0  0  0  0
    1.9401   -4.6118    0.9371 H   0  0  0  0  0  0  0  0  0  0  0  0
    0.3929   -3.5559    2.5906 H   0  0  0  0  0  0  0  0  0  0  0  0
    1.4959   -2.1841    2.7551 H   0  0  0  0  0  0  0  0  0  0  0  0
    2.2071   -5.1065    3.3543 H   0  0  0  0  0  0  0  0  0  0  0  0
    1.9082   -3.8431    4.5623 H   0  0  0  0  0  0  0  0  0  0  0  0
    3.3206   -3.7370    3.4965 H   0  0  0  0  0  0  0  0  0  0  0  0
    4.7919   -0.0631   -0.1029 H   0  0  0  0  0  0  0  0  0  0  0  0
    6.0284    2.4219   -0.9928 H   0  0  0  0  0  0  0  0  0  0  0  0
    7.9007    1.1291   -1.5833 H   0  0  0  0  0  0  0  0  0  0  0  0
    6.5347    0.0905   -1.9448 H   0  0  0  0  0  0  0  0  0  0  0  0
    8.4276   -1.1058   -0.8474 H   0  0  0  0  0  0  0  0  0  0  0  0
    6.9201   -1.2578    0.0359 H   0  0  0  0  0  0  0  0  0  0  0  0
    8.6423   -0.8589    1.6482 H   0  0  0  0  0  0  0  0  0  0  0  0
    7.9406    1.3370    2.6563 H   0  0  0  0  0  0  0  0  0  0  0  0
    6.6149    0.2687    2.2288 H   0  0  0  0  0  0  0  0  0  0  0  0
    6.0405    2.5312    1.5710 H   0  0  0  0  0  0  0  0  0  0  0  0
    7.5706    2.7457    0.7398 H   0  0  0  0  0  0  0  0  0  0  0  0
    9.5224    1.6003    0.0473 H   0  0  0  0  0  0  0  0  0  0  0  0
   10.3766    0.0568    0.1635 H   0  0  0  0  0  0  0  0  0  0  0  0
   10.1769    1.0666    1.6008 H   0  0  0  0  0  0  0  0  0  0  0  0
  1  6  2  0  0  0  0
  1  2  1  0  0  0  0
  1 26  1  0  0  0  0
  2  3  2  0  0  0  0
  2 27  1  0  0  0  0
  3  4  1  0  0  0  0
  4 11  1  0  0  0  0
  4  5  2  0  0  0  0
  5  6  1  0  0  0  0
  5  7  1  0  0  0  0
  6 28  1  0  0  0  0
  7  8  2  0  0  0  0
  7 29  1  0  0  0  0
  8  9  1  0  0  0  0
  8 16  1  0  0  0  0
  9 10  2  0  0  0  0
  9 11  1  0  0  0  0
 11 12  1  0  0  0  0
 12 13  1  0  0  0  0
 12 30  1  0  0  0  0
 12 31  1  0  0  0  0
 13 14  1  0  0  0  0
 13 32  1  0  0  0  0
 13 33  1  0  0  0  0
 14 15  1  0  0  0  0
 14 34  1  0  0  0  0
 14 35  1  0  0  0  0
 15 36  1  0  0  0  0
 15 37  1  0  0  0  0
 15 38  1  0  0  0  0
 16 17  2  0  0  0  0
 16 18  1  0  0  0  0
 18 39  1  0  0  0  0
 19 18  1  0  0  0  0
 19 20  1  0  0  0  0
 19 24  1  0  0  0  0
 19 40  1  6  0  0  0
 20 21  1  0  0  0  0
 20 41  1  0  0  0  0
 20 42  1  0  0  0  0
 21 22  1  0  0  0  0
 21 43  1  0  0  0  0
 21 44  1  0  0  0  0
 22 23  1  0  0  0  0
 22 25  1  0  0  0  0
 22 45  1  1  0  0  0
 23 24  1  0  0  0  0
 23 46  1  0  0  0  0
 23 47  1  0  0  0  0
 24 48  1  0  0  0  0
 24 49  1  0  0  0  0
 25 50  1  0  0  0  0
 25 51  1  0  0  0  0
 25 52  1  0  0  0  0
M  END
$$$$
CHEMBL1765248_5ZTY
 OpenBabel12022418123D

 55 58  0  0  1  0  0  0  0  0999 V2000
    3.8819    2.0535   -2.4245 C   0  0  0  0  0  0  0  0  0  0  0  0
    3.7318    0.6521   -2.0715 N   0  0  0  0  0  0  0  0  0  0  0  0
    4.9595    0.0709   -1.5285 C   0  0  0  0  0  0  0  0  0  0  0  0
    4.4680   -1.2229   -0.8949 C   0  0  0  0  0  0  0  0  0  0  0  0
    2.9596   -1.0219   -0.6924 C   0  0  1  0  0  0  0  0  0  0  0  0
    2.4939   -1.4271    0.7023 C   0  0  0  0  0  0  0  0  0  0  0  0
    2.1150   -0.5657    1.4914 O   0  0  0  0  0  0  0  0  0  0  0  0
    2.5587   -2.7892    1.0083 N   0  0  0  0  0  0  0  0  0  0  0  0
    2.7233   -3.8021   -0.0389 C   0  0  0  0  0  0  0  0  0  0  0  0
    3.8415   -4.7504    0.3395 C   0  0  0  0  0  0  0  0  0  0  0  0
    3.4608   -5.5154    1.6239 C   0  0  2  0  0  0  0  0  0  0  0  0
    2.3162   -6.5219    1.3754 C   0  0  0  0  0  0  0  0  0  0  0  0
    1.4322   -6.9061    2.3978 C   0  0  0  0  0  0  0  0  0  0  0  0
    0.3929   -7.8142    2.1570 C   0  0  0  0  0  0  0  0  0  0  0  0
    0.2229   -8.3769    0.9006 C   0  0  0  0  0  0  0  0  0  0  0  0
    1.0992   -8.0523   -0.1226 C   0  0  0  0  0  0  0  0  0  0  0  0
    2.1426   -7.1482    0.1200 C   0  0  0  0  0  0  0  0  0  0  0  0
    3.2175   -4.4449    2.7550 C   0  0  1  0  0  0  0  0  0  0  0  0
    4.5398   -3.8211    3.2645 C   0  0  0  0  0  0  0  0  0  0  0  0
    4.4937   -2.4409    3.9174 C   0  0  0  0  0  0  0  0  0  0  0  0
    3.1612   -1.7216    4.0534 C   0  0  0  0  0  0  0  0  0  0  0  0
    1.9367   -2.4474    3.5216 C   0  0  0  0  0  0  0  0  0  0  0  0
    2.1886   -3.3697    2.3227 C   0  0  1  0  0  0  0  0  0  0  0  0
    4.6020   -6.3046    1.9916 O   0  0  0  0  0  0  0  0  0  0  0  0
    2.7359    0.4484   -1.0128 C   0  0  0  0  0  0  0  0  0  0  0  0
    2.9433    2.4383   -2.8373 H   0  0  0  0  0  0  0  0  0  0  0  0
    4.6444    2.1679   -3.2022 H   0  0  0  0  0  0  0  0  0  0  0  0
    4.1639    2.6737   -1.5673 H   0  0  0  0  0  0  0  0  0  0  0  0
    5.4110    0.7116   -0.7608 H   0  0  0  0  0  0  0  0  0  0  0  0
    5.7053   -0.1205   -2.3066 H   0  0  0  0  0  0  0  0  0  0  0  0
    5.0053   -1.4308    0.0386 H   0  0  0  0  0  0  0  0  0  0  0  0
    4.6505   -2.0641   -1.5748 H   0  0  0  0  0  0  0  0  0  0  0  0
    2.3820   -1.5842   -1.4362 H   0  0  0  0  0  0  0  0  0  0  0  0
    2.9503   -3.3961   -1.0195 H   0  0  0  0  0  0  0  0  0  0  0  0
    1.7569   -4.3079   -0.1588 H   0  0  0  0  0  0  0  0  0  0  0  0
    4.7666   -4.1794    0.4839 H   0  0  0  0  0  0  0  0  0  0  0  0
    4.0890   -5.4157   -0.4924 H   0  0  0  0  0  0  0  0  0  0  0  0
    1.5287   -6.5192    3.4057 H   0  0  0  0  0  0  0  0  0  0  0  0
   -0.2793   -8.0857    2.9702 H   0  0  0  0  0  0  0  0  0  0  0  0
   -0.5865   -9.0834    0.7223 H   0  0  0  0  0  0  0  0  0  0  0  0
    0.9892   -8.5008   -1.1034 H   0  0  0  0  0  0  0  0  0  0  0  0
    2.8066   -6.9518   -0.7157 H   0  0  0  0  0  0  0  0  0  0  0  0
    2.8168   -4.9519    3.6404 H   0  0  0  0  0  0  0  0  0  0  0  0
    5.2834   -3.7682    2.4628 H   0  0  0  0  0  0  0  0  0  0  0  0
    4.9780   -4.5206    3.9903 H   0  0  0  0  0  0  0  0  0  0  0  0
    5.1689   -1.7837    3.3515 H   0  0  0  0  0  0  0  0  0  0  0  0
    4.9572   -2.5072    4.9111 H   0  0  0  0  0  0  0  0  0  0  0  0
    3.2549   -0.7429    3.5699 H   0  0  0  0  0  0  0  0  0  0  0  0
    2.9898   -1.4770    5.1101 H   0  0  0  0  0  0  0  0  0  0  0  0
    1.1296   -1.7355    3.3166 H   0  0  0  0  0  0  0  0  0  0  0  0
    1.5486   -3.0692    4.3420 H   0  0  0  0  0  0  0  0  0  0  0  0
    1.2278   -3.8711    2.1379 H   0  0  0  0  0  0  0  0  0  0  0  0
    4.5918   -7.1127    1.4507 H   0  0  0  0  0  0  0  0  0  0  0  0
    1.7170    0.6183   -1.3772 H   0  0  0  0  0  0  0  0  0  0  0  0
    2.9143    1.1017   -0.1509 H   0  0  0  0  0  0  0  0  0  0  0  0
  1  2  1  0  0  0  0
  1 26  1  0  0  0  0
  1 27  1  0  0  0  0
  1 28  1  0  0  0  0
  2 25  1  0  0  0  0
  2  3  1  0  0  0  0
  3  4  1  0  0  0  0
  3 29  1  0  0  0  0
  3 30  1  0  0  0  0
  4  5  1  0  0  0  0
  4 31  1  0  0  0  0
  4 32  1  0  0  0  0
  5 25  1  0  0  0  0
  5  6  1  0  0  0  0
  5 33  1  6  0  0  0
  6  7  2  0  0  0  0
  6  8  1  0  0  0  0
  8 23  1  0  0  0  0
  8  9  1  0  0  0  0
  9 10  1  0  0  0  0
  9 34  1  0  0  0  0
  9 35  1  0  0  0  0
 10 11  1  0  0  0  0
 10 36  1  0  0  0  0
 10 37  1  0  0  0  0
 11 12  1  0  0  0  0
 11 18  1  0  0  0  0
 11 24  1  1  0  0  0
 12 17  2  0  0  0  0
 12 13  1  0  0  0  0
 13 14  2  0  0  0  0
 13 38  1  0  0  0  0
 14 15  1  0  0  0  0
 14 39  1  0  0  0  0
 15 16  2  0  0  0  0
 15 40  1  0  0  0  0
 16 17  1  0  0  0  0
 16 41  1  0  0  0  0
 17 42  1  0  0  0  0
 18 19  1  0  0  0  0
 18 23  1  0  0  0  0
 18 43  1  1  0  0  0
 19 20  1  0  0  0  0
 19 44  1  0  0  0  0
 19 45  1  0  0  0  0
 20 21  1  0  0  0  0
 20 46  1  0  0  0  0
 20 47  1  0  0  0  0
 21 22  1  0  0  0  0
 21 48  1  0  0  0  0
 21 49  1  0  0  0  0
 22 50  1  0  0  0  0
 22 51  1  0  0  0  0
 23 22  1  0  0  0  0
 23 52  1  6  0  0  0
 24 53  1  0  0  0  0
 25 54  1  0  0  0  0
 25 55  1  0  0  0  0
M  END
$$$$
CHEMBL576549_5ZTY
 OpenBabel12022418123D

 53 56  0  0  0  0  0  0  0  0999 V2000
    1.1431    0.4239   -0.1374 C   0  0  0  0  0  0  0  0  0  0  0  0
    2.6111    0.1731   -0.1181 C   0  0  0  0  0  0  0  0  0  0  0  0
    3.6244    1.1892    0.0094 C   0  0  0  0  0  0  0  0  0  0  0  0
    3.4572    2.6845    0.0345 C   0  0  0  0  0  0  0  0  0  0  0  0
    2.3686    3.2382   -0.0865 O   0  0  0  0  0  0  0  0  0  0  0  0
    4.6465    3.3688    0.1839 N   0  0  0  0  0  0  0  0  0  0  0  0
    4.8939    4.8204    0.1632 C   0  0  0  0  0  0  0  0  0  0  0  0
    4.7181    5.4517   -1.2305 C   0  0  0  0  0  0  0  0  0  0  0  0
    3.6171    6.5054   -1.3950 C   0  0  0  0  0  0  0  0  0  0  0  0
    4.0044    7.8932   -0.8788 C   0  0  0  0  0  0  0  0  0  0  0  0
    3.9655    8.0605    0.6357 C   0  0  0  0  0  0  0  0  0  0  0  0
    4.7637    7.0339    1.4355 C   0  0  0  0  0  0  0  0  0  0  0  0
    4.2425    5.5910    1.3220 C   0  0  0  0  0  0  0  0  0  0  0  0
    4.8441    0.6253    0.1535 N   0  0  0  0  0  0  0  0  0  0  0  0
    4.6517   -0.7119   -0.0369 N   0  0  0  0  0  0  0  0  0  0  0  0
    5.7956   -1.5368   -0.2739 C   0  0  0  0  0  0  0  0  0  0  0  0
    5.7449   -2.6171   -1.1678 C   0  0  0  0  0  0  0  0  0  0  0  0
    6.8757   -3.4149   -1.3726 C   0  0  0  0  0  0  0  0  0  0  0  0
    8.0654   -3.1377   -0.6957 C   0  0  0  0  0  0  0  0  0  0  0  0
    8.1237   -2.0543    0.1900 C   0  0  0  0  0  0  0  0  0  0  0  0
    6.9969   -1.2454    0.3875 C   0  0  0  0  0  0  0  0  0  0  0  0
    9.5521   -1.6741    1.0855 Cl  0  0  0  0  0  0  0  0  0  0  0  0
    9.4228   -4.1608   -1.0054 Cl  0  0  0  0  0  0  0  0  0  0  0  0
    3.3062   -1.0324   -0.0904 C   0  0  0  0  0  0  0  0  0  0  0  0
    2.7976   -2.3415   -0.0374 N   0  0  0  0  0  0  0  0  0  0  0  0
    3.3463   -3.4208    0.6406 C   0  0  0  0  0  0  0  0  0  0  0  0
    2.5652   -4.5391    0.4526 C   0  0  0  0  0  0  0  0  0  0  0  0
    1.4778   -4.1498   -0.3562 C   0  0  0  0  0  0  0  0  0  0  0  0
    1.6443   -2.8114   -0.6393 C   0  0  0  0  0  0  0  0  0  0  0  0
    0.5560   -0.4825    0.0213 H   0  0  0  0  0  0  0  0  0  0  0  0
    0.8421    0.8635   -1.0925 H   0  0  0  0  0  0  0  0  0  0  0  0
    0.8635    1.1068    0.6708 H   0  0  0  0  0  0  0  0  0  0  0  0
    5.4561    2.7519    0.2097 H   0  0  0  0  0  0  0  0  0  0  0  0
    5.9746    4.8559    0.3629 H   0  0  0  0  0  0  0  0  0  0  0  0
    4.5645    4.6638   -1.9784 H   0  0  0  0  0  0  0  0  0  0  0  0
    5.6719    5.9240   -1.5059 H   0  0  0  0  0  0  0  0  0  0  0  0
    2.6733    6.1708   -0.9526 H   0  0  0  0  0  0  0  0  0  0  0  0
    3.4292    6.6115   -2.4713 H   0  0  0  0  0  0  0  0  0  0  0  0
    3.3075    8.6263   -1.3082 H   0  0  0  0  0  0  0  0  0  0  0  0
    4.9963    8.1723   -1.2559 H   0  0  0  0  0  0  0  0  0  0  0  0
    2.9228    8.0572    0.9754 H   0  0  0  0  0  0  0  0  0  0  0  0
    4.3540    9.0610    0.8733 H   0  0  0  0  0  0  0  0  0  0  0  0
    4.7090    7.3353    2.4896 H   0  0  0  0  0  0  0  0  0  0  0  0
    5.8240    7.0893    1.1589 H   0  0  0  0  0  0  0  0  0  0  0  0
    4.4915    5.0729    2.2573 H   0  0  0  0  0  0  0  0  0  0  0  0
    3.1489    5.5774    1.2562 H   0  0  0  0  0  0  0  0  0  0  0  0
    4.8482   -2.8484   -1.7398 H   0  0  0  0  0  0  0  0  0  0  0  0
    6.8217   -4.2512   -2.0676 H   0  0  0  0  0  0  0  0  0  0  0  0
    7.0498   -0.4156    1.0900 H   0  0  0  0  0  0  0  0  0  0  0  0
    4.2426   -3.3080    1.2348 H   0  0  0  0  0  0  0  0  0  0  0  0
    2.7552   -5.5231    0.8651 H   0  0  0  0  0  0  0  0  0  0  0  0
    0.6712   -4.7799   -0.7051 H   0  0  0  0  0  0  0  0  0  0  0  0
    1.0465   -2.1699   -1.2687 H   0  0  0  0  0  0  0  0  0  0  0  0
  1  2  1  0  0  0  0
  1 30  1  0  0  0  0
  1 31  1  0  0  0  0
  1 32  1  0  0  0  0
  2 24  2  0  0  0  0
  2  3  1  0  0  0  0
  3  4  1  0  0  0  0
  3 14  2  0  0  0  0
  4  5  2  0  0  0  0
  4  6  1  0  0  0  0
  6  7  1  0  0  0  0
  6 33  1  0  0  0  0
  7 13  1  0  0  0  0
  7  8  1  0  0  0  0
  7 34  1  0  0  0  0
  8  9  1  0  0  0  0
  8 35  1  0  0  0  0
  8 36  1  0  0  0  0
  9 10  1  0  0  0  0
  9 37  1  0  0  0  0
  9 38  1  0  0  0  0
 10 11  1  0  0  0  0
 10 39  1  0  0  0  0
 10 40  1  0  0  0  0
 11 12  1  0  0  0  0
 11 41  1  0  0  0  0
 11 42  1  0  0  0  0
 12 13  1  0  0  0  0
 12 43  1  0  0  0  0
 12 44  1  0  0  0  0
 13 45  1  0  0  0  0
 13 46  1  0  0  0  0
 14 15  1  0  0  0  0
 15 16  1  0  0  0  0
 15 24  1  0  0  0  0
 16 21  2  0  0  0  0
 16 17  1  0  0  0  0
 17 18  2  0  0  0  0
 17 47  1  0  0  0  0
 18 19  1  0  0  0  0
 18 48  1  0  0  0  0
 19 20  2  0  0  0  0
 19 23  1  0  0  0  0
 20 21  1  0  0  0  0
 20 22  1  0  0  0  0
 21 49  1  0  0  0  0
 24 25  1  0  0  0  0
 25 29  1  0  0  0  0
 25 26  1  0  0  0  0
 26 27  2  0  0  0  0
 26 50  1  0  0  0  0
 27 28  1  0  0  0  0
 27 51  1  0  0  0  0
 28 29  2  0  0  0  0
 28 52  1  0  0  0  0
 29 53  1  0  0  0  0
M  END
$$$$
CHEMBL2152801_5ZTY
 OpenBabel12022418123D

 57 60  0  0  1  0  0  0  0  0999 V2000
   12.2489   10.2650    1.1833 C   0  0  0  0  0  0  0  0  0  0  0  0
   11.7817   11.0100   -0.0533 C   0  0  0  0  0  0  0  0  0  0  0  0
   11.1959   10.1175   -1.1609 C   0  0  0  0  0  0  0  0  0  0  0  0
    9.8413    9.5785   -0.8865 N   0  0  0  0  0  0  0  0  0  0  0  0
    9.6051    8.1989   -0.7802 C   0  0  0  0  0  0  0  0  0  0  0  0
    8.4149    7.5646   -0.7498 C   0  0  0  0  0  0  0  0  0  0  0  0
    8.3529    6.0491   -0.6914 C   0  0  0  0  0  0  0  0  0  0  0  0
    9.3770    5.3802   -0.5606 O   0  0  0  0  0  0  0  0  0  0  0  0
    7.1028    5.4826   -0.8050 N   0  0  0  0  0  0  0  0  0  0  0  0
    6.7792    4.0290   -0.7697 C   0  0  2  0  0  0  0  0  0  0  0  0
    6.0368    3.5136   -2.0729 C   0  0  0  0  0  0  0  0  0  0  0  0
    5.9808    4.5397   -3.2172 C   0  0  0  0  0  0  0  0  0  0  0  0
    6.7077    2.2522   -2.6607 C   0  0  0  0  0  0  0  0  0  0  0  0
    4.5878    3.2045   -1.5353 C   0  0  1  0  0  0  0  0  0  0  0  0
    4.5485    1.8761   -0.7663 C   0  0  0  0  0  0  0  0  0  0  0  0
    5.4433    2.1799    0.4423 C   0  0  0  0  0  0  0  0  0  0  0  0
    5.7041    3.7138    0.3344 C   0  0  1  0  0  0  0  0  0  0  0  0
    5.9717    4.3153    1.7014 C   0  0  0  0  0  0  0  0  0  0  0  0
    4.4177    4.1783   -0.3620 C   0  0  0  0  0  0  0  0  0  0  0  0
    7.2207    8.4452   -0.8092 C   0  0  0  0  0  0  0  0  0  0  0  0
    6.0861    7.9778   -0.8702 O   0  0  0  0  0  0  0  0  0  0  0  0
    7.4230    9.9218   -0.8211 C   0  0  0  0  0  0  0  0  0  0  0  0
    6.2986   10.7637   -0.7393 C   0  0  0  0  0  0  0  0  0  0  0  0
    6.4462   12.1436   -0.7999 C   0  0  0  0  0  0  0  0  0  0  0  0
    7.7126   12.6746   -1.0028 C   0  0  0  0  0  0  0  0  0  0  0  0
    8.8319   11.8429   -1.1013 C   0  0  0  0  0  0  0  0  0  0  0  0
    8.7266   10.4548   -0.9464 C   0  0  0  0  0  0  0  0  0  0  0  0
    7.8662   14.0020   -1.0983 F   0  0  0  0  0  0  0  0  0  0  0  0
   12.7098   10.9727    1.8826 H   0  0  0  0  0  0  0  0  0  0  0  0
   12.9985    9.5097    0.9317 H   0  0  0  0  0  0  0  0  0  0  0  0
   11.4125    9.7835    1.6966 H   0  0  0  0  0  0  0  0  0  0  0  0
   12.6486   11.5382   -0.4739 H   0  0  0  0  0  0  0  0  0  0  0  0
   11.0862   11.7869    0.2722 H   0  0  0  0  0  0  0  0  0  0  0  0
   11.8983    9.2960   -1.3526 H   0  0  0  0  0  0  0  0  0  0  0  0
   11.1678   10.6863   -2.1004 H   0  0  0  0  0  0  0  0  0  0  0  0
   10.5263    7.6182   -0.7376 H   0  0  0  0  0  0  0  0  0  0  0  0
    6.3219    6.1338   -0.8915 H   0  0  0  0  0  0  0  0  0  0  0  0
    7.7024    3.4688   -0.5848 H   0  0  0  0  0  0  0  0  0  0  0  0
    6.9726    4.6742   -3.6666 H   0  0  0  0  0  0  0  0  0  0  0  0
    5.6188    5.5198   -2.8979 H   0  0  0  0  0  0  0  0  0  0  0  0
    5.3095    4.1929   -4.0117 H   0  0  0  0  0  0  0  0  0  0  0  0
    7.6748    2.4926   -3.1192 H   0  0  0  0  0  0  0  0  0  0  0  0
    6.0727    1.8040   -3.4395 H   0  0  0  0  0  0  0  0  0  0  0  0
    6.9088    1.4817   -1.9117 H   0  0  0  0  0  0  0  0  0  0  0  0
    3.8050    3.2736   -2.2965 H   0  0  0  0  0  0  0  0  0  0  0  0
    4.8717    1.0019   -1.3366 H   0  0  0  0  0  0  0  0  0  0  0  0
    3.5248    1.6642   -0.4308 H   0  0  0  0  0  0  0  0  0  0  0  0
    6.3707    1.5984    0.4264 H   0  0  0  0  0  0  0  0  0  0  0  0
    4.9033    1.9183    1.3611 H   0  0  0  0  0  0  0  0  0  0  0  0
    6.8639    3.8664    2.1518 H   0  0  0  0  0  0  0  0  0  0  0  0
    5.1306    4.1292    2.3793 H   0  0  0  0  0  0  0  0  0  0  0  0
    6.1173    5.3978    1.6554 H   0  0  0  0  0  0  0  0  0  0  0  0
    3.5160    3.9825    0.2307 H   0  0  0  0  0  0  0  0  0  0  0  0
    4.4144    5.2295   -0.6610 H   0  0  0  0  0  0  0  0  0  0  0  0
    5.3028   10.3373   -0.6195 H   0  0  0  0  0  0  0  0  0  0  0  0
    5.5957   12.8090   -0.7054 H   0  0  0  0  0  0  0  0  0  0  0  0
    9.7755   12.3503   -1.2812 H   0  0  0  0  0  0  0  0  0  0  0  0
  1  2  1  0  0  0  0
  1 29  1  0  0  0  0
  1 30  1  0  0  0  0
  1 31  1  0  0  0  0
  2  3  1  0  0  0  0
  2 32  1  0  0  0  0
  2 33  1  0  0  0  0
  3  4  1  0  0  0  0
  3 34  1  0  0  0  0
  3 35  1  0  0  0  0
  4 27  1  0  0  0  0
  4  5  1  0  0  0  0
  5  6  2  0  0  0  0
  5 36  1  0  0  0  0
  6  7  1  0  0  0  0
  6 20  1  0  0  0  0
  7  8  2  0  0  0  0
  7  9  1  0  0  0  0
  9 37  1  0  0  0  0
 10 11  1  0  0  0  0
 10 17  1  0  0  0  0
 10  9  1  0  0  0  0
 10 38  1  1  0  0  0
 11 12  1  0  0  0  0
 11 13  1  0  0  0  0
 11 14  1  0  0  0  0
 12 39  1  0  0  0  0
 12 40  1  0  0  0  0
 12 41  1  0  0  0  0
 13 42  1  0  0  0  0
 13 43  1  0  0  0  0
 13 44  1  0  0  0  0
 14 15  1  0  0  0  0
 14 19  1  0  0  0  0
 14 45  1  6  0  0  0
 15 16  1  0  0  0  0
 15 46  1  0  0  0  0
 15 47  1  0  0  0  0
 16 17  1  0  0  0  0
 16 48  1  0  0  0  0
 16 49  1  0  0  0  0
 17 18  1  1  0  0  0
 17 19  1  0  0  0  0
 18 50  1  0  0  0  0
 18 51  1  0  0  0  0
 18 52  1  0  0  0  0
 19 53  1  0  0  0  0
 19 54  1  0  0  0  0
 20 21  2  0  0  0  0
 20 22  1  0  0  0  0
 22 27  2  0  0  0  0
 22 23  1  0  0  0  0
 23 24  2  0  0  0  0
 23 55  1  0  0  0  0
 24 25  1  0  0  0  0
 24 56  1  0  0  0  0
 25 26  2  0  0  0  0
 25 28  1  0  0  0  0
 26 27  1  0  0  0  0
 26 57  1  0  0  0  0
M  END
$$$$
CHEMBL1765258_5ZTY
 OpenBabel12022418123D

 55 59  0  0  1  0  0  0  0  0999 V2000
    1.6671    0.0862   -0.7807 O   0  0  0  0  0  0  0  0  0  0  0  0
    2.4182   -0.0897    0.1792 C   0  0  0  0  0  0  0  0  0  0  0  0
    2.6619    1.0900    1.0330 C   0  0  0  0  0  0  0  0  0  0  0  0
    2.5997    1.0109    2.4107 C   0  0  0  0  0  0  0  0  0  0  0  0
    2.8953    2.0139    3.2684 N   0  0  0  0  0  0  0  0  0  0  0  0
    3.1080    3.2218    2.7427 C   0  0  0  0  0  0  0  0  0  0  0  0
    3.3734    4.2706    3.6050 C   0  0  0  0  0  0  0  0  0  0  0  0
    3.4749    5.5793    3.1390 C   0  0  0  0  0  0  0  0  0  0  0  0
    3.3176    5.8445    1.7828 C   0  0  0  0  0  0  0  0  0  0  0  0
    3.1066    4.7927    0.8877 C   0  0  0  0  0  0  0  0  0  0  0  0
    3.0170    3.4700    1.3552 C   0  0  0  0  0  0  0  0  0  0  0  0
    2.8151    2.3680    0.4973 C   0  0  0  0  0  0  0  0  0  0  0  0
    3.0053   -1.3398    0.4525 N   0  0  0  0  0  0  0  0  0  0  0  0
    2.5361   -2.4913   -0.3232 C   0  0  0  0  0  0  0  0  0  0  0  0
    3.6809   -3.3157   -0.9150 C   0  0  0  0  0  0  0  0  0  0  0  0
    4.6774   -3.7485    0.1852 C   0  0  1  0  0  0  0  0  0  0  0  0
    3.9279   -4.5988    1.0620 O   0  0  0  0  0  0  0  0  0  0  0  0
    5.8631   -4.5412   -0.3869 C   0  0  0  0  0  0  0  0  0  0  0  0
    6.2492   -5.7841    0.1538 C   0  0  0  0  0  0  0  0  0  0  0  0
    7.3821   -6.4577   -0.3094 C   0  0  0  0  0  0  0  0  0  0  0  0
    8.1618   -5.8970   -1.3154 C   0  0  0  0  0  0  0  0  0  0  0  0
    7.8053   -4.6679   -1.8618 C   0  0  0  0  0  0  0  0  0  0  0  0
    6.6668   -3.9982   -1.4050 C   0  0  0  0  0  0  0  0  0  0  0  0
    5.1772   -2.4773    0.9341 C   0  0  2  0  0  0  0  0  0  0  0  0
    6.1902   -2.7119    2.0651 C   0  0  0  0  0  0  0  0  0  0  0  0
    5.6449   -3.5461    3.2066 C   0  0  0  0  0  0  0  0  0  0  0  0
    4.2479   -3.1632    3.6706 C   0  0  0  0  0  0  0  0  0  0  0  0
    3.3908   -2.2686    2.7730 C   0  0  0  0  0  0  0  0  0  0  0  0
    4.0190   -1.6426    1.5080 C   0  0  2  0  0  0  0  0  0  0  0  0
    2.2452    0.1193    2.8980 H   0  0  0  0  0  0  0  0  0  0  0  0
    3.4824    4.0638    4.6674 H   0  0  0  0  0  0  0  0  0  0  0  0
    3.6504    6.3895    3.8436 H   0  0  0  0  0  0  0  0  0  0  0  0
    3.3538    6.8695    1.4236 H   0  0  0  0  0  0  0  0  0  0  0  0
    2.9850    5.0146   -0.1699 H   0  0  0  0  0  0  0  0  0  0  0  0
    2.7473    2.5101   -0.5798 H   0  0  0  0  0  0  0  0  0  0  0  0
    1.8785   -2.1753   -1.1394 H   0  0  0  0  0  0  0  0  0  0  0  0
    1.9183   -3.1037    0.3419 H   0  0  0  0  0  0  0  0  0  0  0  0
    4.1796   -2.7226   -1.6873 H   0  0  0  0  0  0  0  0  0  0  0  0
    3.2540   -4.1973   -1.4042 H   0  0  0  0  0  0  0  0  0  0  0  0
    3.6618   -5.3802    0.5453 H   0  0  0  0  0  0  0  0  0  0  0  0
    5.6929   -6.2351    0.9735 H   0  0  0  0  0  0  0  0  0  0  0  0
    7.6649   -7.4093    0.1327 H   0  0  0  0  0  0  0  0  0  0  0  0
    9.0543   -6.4108   -1.6619 H   0  0  0  0  0  0  0  0  0  0  0  0
    8.4240   -4.2191   -2.6346 H   0  0  0  0  0  0  0  0  0  0  0  0
    6.4368   -3.0262   -1.8357 H   0  0  0  0  0  0  0  0  0  0  0  0
    5.6877   -1.8437    0.1926 H   0  0  0  0  0  0  0  0  0  0  0  0
    6.5012   -1.7366    2.4641 H   0  0  0  0  0  0  0  0  0  0  0  0
    7.1066   -3.1732    1.6811 H   0  0  0  0  0  0  0  0  0  0  0  0
    6.3327   -3.4807    4.0593 H   0  0  0  0  0  0  0  0  0  0  0  0
    5.6500   -4.6036    2.9241 H   0  0  0  0  0  0  0  0  0  0  0  0
    4.3340   -2.6774    4.6519 H   0  0  0  0  0  0  0  0  0  0  0  0
    3.6824   -4.0834    3.8729 H   0  0  0  0  0  0  0  0  0  0  0  0
    3.0569   -1.4719    3.4375 H   0  0  0  0  0  0  0  0  0  0  0  0
    2.4677   -2.8008    2.5174 H   0  0  0  0  0  0  0  0  0  0  0  0
    4.4673   -0.6867    1.8040 H   0  0  0  0  0  0  0  0  0  0  0  0
  1  2  2  0  0  0  0
  2  3  1  0  0  0  0
  2 13  1  0  0  0  0
  3 12  2  0  0  0  0
  3  4  1  0  0  0  0
  4  5  2  0  0  0  0
  4 30  1  0  0  0  0
  5  6  1  0  0  0  0
  6 11  2  0  0  0  0
  6  7  1  0  0  0  0
  7  8  2  0  0  0  0
  7 31  1  0  0  0  0
  8  9  1  0  0  0  0
  8 32  1  0  0  0  0
  9 10  2  0  0  0  0
  9 33  1  0  0  0  0
 10 11  1  0  0  0  0
 10 34  1  0  0  0  0
 11 12  1  0  0  0  0
 12 35  1  0  0  0  0
 13 29  1  0  0  0  0
 13 14  1  0  0  0  0
 14 15  1  0  0  0  0
 14 36  1  0  0  0  0
 14 37  1  0  0  0  0
 15 16  1  0  0  0  0
 15 38  1  0  0  0  0
 15 39  1  0  0  0  0
 16 17  1  1  0  0  0
 16 18  1  0  0  0  0
 16 24  1  0  0  0  0
 17 40  1  0  0  0  0
 18 23  2  0  0  0  0
 18 19  1  0  0  0  0
 19 20  2  0  0  0  0
 19 41  1  0  0  0  0
 20 21  1  0  0  0  0
 20 42  1  0  0  0  0
 21 22  2  0  0  0  0
 21 43  1  0  0  0  0
 22 23  1  0  0  0  0
 22 44  1  0  0  0  0
 23 45  1  0  0  0  0
 24 25  1  0  0  0  0
 24 29  1  0  0  0  0
 24 46  1  6  0  0  0
 25 26  1  0  0  0  0
 25 47  1  0  0  0  0
 25 48  1  0  0  0  0
 26 27  1  0  0  0  0
 26 49  1  0  0  0  0
 26 50  1  0  0  0  0
 27 28  1  0  0  0  0
 27 51  1  0  0  0  0
 27 52  1  0  0  0  0
 28 53  1  0  0  0  0
 28 54  1  0  0  0  0
 29 28  1  0  0  0  0
 29 55  1  1  0  0  0
M  END
$$$$
CHEMBL2163963_6PT0
 OpenBabel12022418123D

 49 52  0  0  1  0  0  0  0  0999 V2000
    1.1607   -0.4013    0.5952 C   0  0  0  0  0  0  0  0  0  0  0  0
    2.5155    0.0822    0.1065 C   0  0  0  0  0  0  0  0  0  0  0  0
    3.1077   -0.6694   -1.1051 C   0  0  2  0  0  0  0  0  0  0  0  0
    2.2195   -0.5940   -2.3629 C   0  0  0  0  0  0  0  0  0  0  0  0
    1.3626   -1.6980   -2.6426 O   0  0  0  0  0  0  0  0  0  0  0  0
    1.8755   -2.9205   -2.3139 C   0  0  0  0  0  0  0  0  0  0  0  0
    1.2694   -4.0162   -2.9476 C   0  0  0  0  0  0  0  0  0  0  0  0
    1.6413   -5.3202   -2.6224 C   0  0  0  0  0  0  0  0  0  0  0  0
    2.6161   -5.5308   -1.6557 C   0  0  0  0  0  0  0  0  0  0  0  0
    3.2335   -4.4306   -1.0415 C   0  0  0  0  0  0  0  0  0  0  0  0
    4.2710   -4.6835   -0.0107 C   0  0  0  0  0  0  0  0  0  0  0  0
    4.4954   -5.8253    0.3727 O   0  0  0  0  0  0  0  0  0  0  0  0
    5.0145   -3.5186    0.5296 C   0  0  0  0  0  0  0  0  0  0  0  0
    6.1770   -3.6325    1.4675 C   0  0  0  0  0  0  0  0  0  0  0  0
    6.7705   -2.6399    1.8754 O   0  0  0  0  0  0  0  0  0  0  0  0
    6.5306   -4.9175    1.8145 N   0  0  0  0  0  0  0  0  0  0  0  0
    7.6079   -5.2421    2.7442 C   0  0  0  0  0  0  0  0  0  0  0  0
    7.0998   -5.2128    4.1927 C   0  0  0  0  0  0  0  0  0  0  0  0
    8.1665   -5.6595    5.1916 C   0  0  0  0  0  0  0  0  0  0  0  0
    8.7348   -7.0289    4.8355 C   0  0  0  0  0  0  0  0  0  0  0  0
    9.2841   -7.0386    3.4134 C   0  0  0  0  0  0  0  0  0  0  0  0
    8.2219   -6.6103    2.4009 C   0  0  0  0  0  0  0  0  0  0  0  0
    4.5938   -2.3043    0.1327 C   0  0  0  0  0  0  0  0  0  0  0  0
    3.5432   -2.0360   -0.7386 N   0  0  0  0  0  0  0  0  0  0  0  0
    2.8845   -3.1061   -1.3678 C   0  0  0  0  0  0  0  0  0  0  0  0
    0.9384    0.0596    1.5645 H   0  0  0  0  0  0  0  0  0  0  0  0
    1.1359   -1.4857    0.7270 H   0  0  0  0  0  0  0  0  0  0  0  0
    0.3636   -0.1097   -0.0951 H   0  0  0  0  0  0  0  0  0  0  0  0
    3.2219    0.0371    0.9437 H   0  0  0  0  0  0  0  0  0  0  0  0
    2.4264    1.1470   -0.1492 H   0  0  0  0  0  0  0  0  0  0  0  0
    4.0156   -0.1053   -1.3650 H   0  0  0  0  0  0  0  0  0  0  0  0
    2.8461   -0.4298   -3.2486 H   0  0  0  0  0  0  0  0  0  0  0  0
    1.5677    0.2873   -2.3030 H   0  0  0  0  0  0  0  0  0  0  0  0
    0.4993   -3.8513   -3.6972 H   0  0  0  0  0  0  0  0  0  0  0  0
    1.1639   -6.1673   -3.1079 H   0  0  0  0  0  0  0  0  0  0  0  0
    2.8962   -6.5447   -1.3789 H   0  0  0  0  0  0  0  0  0  0  0  0
    5.9048   -5.6699    1.5215 H   0  0  0  0  0  0  0  0  0  0  0  0
    8.3853   -4.4764    2.6333 H   0  0  0  0  0  0  0  0  0  0  0  0
    6.2217   -5.8642    4.2906 H   0  0  0  0  0  0  0  0  0  0  0  0
    6.7649   -4.2009    4.4500 H   0  0  0  0  0  0  0  0  0  0  0  0
    7.7376   -5.6908    6.1994 H   0  0  0  0  0  0  0  0  0  0  0  0
    8.9795   -4.9233    5.2131 H   0  0  0  0  0  0  0  0  0  0  0  0
    7.9510   -7.7905    4.9327 H   0  0  0  0  0  0  0  0  0  0  0  0
    9.5284   -7.2968    5.5426 H   0  0  0  0  0  0  0  0  0  0  0  0
    9.6495   -8.0424    3.1673 H   0  0  0  0  0  0  0  0  0  0  0  0
   10.1458   -6.3625    3.3508 H   0  0  0  0  0  0  0  0  0  0  0  0
    8.6691   -6.5768    1.3998 H   0  0  0  0  0  0  0  0  0  0  0  0
    7.4361   -7.3762    2.3619 H   0  0  0  0  0  0  0  0  0  0  0  0
    5.0947   -1.4061    0.4915 H   0  0  0  0  0  0  0  0  0  0  0  0
  1  2  1  0  0  0  0
  1 26  1  0  0  0  0
  1 27  1  0  0  0  0
  1 28  1  0  0  0  0
  2 29  1  0  0  0  0
  2 30  1  0  0  0  0
  3  2  1  0  0  0  0
  3  4  1  0  0  0  0
  3 24  1  0  0  0  0
  3 31  1  6  0  0  0
  4  5  1  0  0  0  0
  4 32  1  0  0  0  0
  4 33  1  0  0  0  0
  5  6  1  0  0  0  0
  6 25  2  0  0  0  0
  6  7  1  0  0  0  0
  7  8  2  0  0  0  0
  7 34  1  0  0  0  0
  8  9  1  0  0  0  0
  8 35  1  0  0  0  0
  9 10  2  0  0  0  0
  9 36  1  0  0  0  0
 10 25  1  0  0  0  0
 10 11  1  0  0  0  0
 11 12  2  0  0  0  0
 11 13  1  0  0  0  0
 13 14  1  0  0  0  0
 13 23  2  0  0  0  0
 14 15  2  0  0  0  0
 14 16  1  0  0  0  0
 16 17  1  0  0  0  0
 16 37  1  0  0  0  0
 17 22  1  0  0  0  0
 17 18  1  0  0  0  0
 17 38  1  0  0  0  0
 18 19  1  0  0  0  0
 18 39  1  0  0  0  0
 18 40  1  0  0  0  0
 19 20  1  0  0  0  0
 19 41  1  0  0  0  0
 19 42  1  0  0  0  0
 20 21  1  0  0  0  0
 20 43  1  0  0  0  0
 20 44  1  0  0  0  0
 21 22  1  0  0  0  0
 21 45  1  0  0  0  0
 21 46  1  0  0  0  0
 22 47  1  0  0  0  0
 22 48  1  0  0  0  0
 23 24  1  0  0  0  0
 23 49  1  0  0  0  0
 24 25  1  0  0  0  0
M  END
$$$$
CHEMBL2381811_8GUR
 OpenBabel12022418123D

 65 67  0  0  0  0  0  0  0  0999 V2000
    1.1159    0.1399    0.0576 C   0  0  0  0  0  0  0  0  0  0  0  0
    0.5502    0.0927    1.4810 C   0  0  0  0  0  0  0  0  0  0  0  0
   -0.9831    0.0597    1.4896 C   0  0  0  0  0  0  0  0  0  0  0  0
   -1.5240    0.0434    2.9215 C   0  0  0  0  0  0  0  0  0  0  0  0
   -3.0446    0.0225    2.9618 C   0  0  0  0  0  0  0  0  0  0  0  0
    2.5907    0.0829    0.0675 N   0  0  0  0  0  0  0  0  0  0  0  0
    3.3893    1.2281    0.0764 C   0  0  0  0  0  0  0  0  0  0  0  0
    4.7425    1.2454    0.0582 C   0  0  0  0  0  0  0  0  0  0  0  0
    5.4510   -0.0645    0.0346 C   0  0  0  0  0  0  0  0  0  0  0  0
    6.6722   -0.1851    0.0044 O   0  0  0  0  0  0  0  0  0  0  0  0
    4.5941   -1.1848    0.0524 N   0  0  0  0  0  0  0  0  0  0  0  0
    3.2089   -1.1323    0.0705 C   0  0  0  0  0  0  0  0  0  0  0  0
    2.7712   -2.4324    0.0865 C   0  0  0  0  0  0  0  0  0  0  0  0
    3.9422   -3.2296    0.0840 C   0  0  0  0  0  0  0  0  0  0  0  0
    4.0297   -4.7518    0.0718 C   0  0  0  0  0  0  0  0  0  0  0  0
    4.0276   -5.2600   -1.3832 C   0  0  0  0  0  0  0  0  0  0  0  0
    5.3115   -5.2485    0.7721 C   0  0  0  0  0  0  0  0  0  0  0  0
    2.8278   -5.3898    0.8057 C   0  0  0  0  0  0  0  0  0  0  0  0
    5.0511   -2.4697    0.0456 N   0  0  0  0  0  0  0  0  0  0  0  0
    5.4270    2.5766    0.0763 C   0  0  0  0  0  0  0  0  0  0  0  0
    4.7664    3.6145    0.0894 O   0  0  0  0  0  0  0  0  0  0  0  0
    6.8068    2.5824    0.0866 N   0  0  0  0  0  0  0  0  0  0  0  0
    7.5777    3.8375    0.1123 C   0  0  0  0  0  0  0  0  0  0  0  0
    8.8259    3.7221    1.0101 C   0  0  0  0  0  0  0  0  0  0  0  0
   10.2013    3.8191    0.3419 C   0  0  0  0  0  0  0  0  0  0  0  0
   10.6065    5.2419   -0.0491 C   0  0  0  0  0  0  0  0  0  0  0  0
    9.9561    5.7817   -1.3173 C   0  0  0  0  0  0  0  0  0  0  0  0
    8.4321    5.7606   -1.3287 C   0  0  0  0  0  0  0  0  0  0  0  0
    7.8338    4.3519   -1.3105 C   0  0  0  0  0  0  0  0  0  0  0  0
    0.7807    1.0554   -0.4454 H   0  0  0  0  0  0  0  0  0  0  0  0
    0.7070   -0.6876   -0.5363 H   0  0  0  0  0  0  0  0  0  0  0  0
    0.9019    0.9674    2.0412 H   0  0  0  0  0  0  0  0  0  0  0  0
    0.9297   -0.7916    2.0076 H   0  0  0  0  0  0  0  0  0  0  0  0
   -1.3370   -0.8303    0.9545 H   0  0  0  0  0  0  0  0  0  0  0  0
   -1.3763    0.9342    0.9572 H   0  0  0  0  0  0  0  0  0  0  0  0
   -1.1666    0.9276    3.4617 H   0  0  0  0  0  0  0  0  0  0  0  0
   -1.1420   -0.8366    3.4521 H   0  0  0  0  0  0  0  0  0  0  0  0
   -3.4644    0.9052    2.4691 H   0  0  0  0  0  0  0  0  0  0  0  0
   -3.3938    0.0172    3.9995 H   0  0  0  0  0  0  0  0  0  0  0  0
   -3.4407   -0.8702    2.4677 H   0  0  0  0  0  0  0  0  0  0  0  0
    2.8156    2.1536    0.0962 H   0  0  0  0  0  0  0  0  0  0  0  0
    1.7458   -2.7719    0.0986 H   0  0  0  0  0  0  0  0  0  0  0  0
    4.8785   -4.8614   -1.9467 H   0  0  0  0  0  0  0  0  0  0  0  0
    3.1145   -4.9568   -1.9093 H   0  0  0  0  0  0  0  0  0  0  0  0
    4.0839   -6.3543   -1.4219 H   0  0  0  0  0  0  0  0  0  0  0  0
    6.2146   -4.8837    0.2697 H   0  0  0  0  0  0  0  0  0  0  0  0
    5.3620   -6.3434    0.7783 H   0  0  0  0  0  0  0  0  0  0  0  0
    5.3498   -4.9066    1.8132 H   0  0  0  0  0  0  0  0  0  0  0  0
    1.8755   -5.1377    0.3249 H   0  0  0  0  0  0  0  0  0  0  0  0
    2.7727   -5.0528    1.8475 H   0  0  0  0  0  0  0  0  0  0  0  0
    2.9023   -6.4837    0.8126 H   0  0  0  0  0  0  0  0  0  0  0  0
    7.3046    1.6961   -0.0041 H   0  0  0  0  0  0  0  0  0  0  0  0
    6.9235    4.5713    0.6014 H   0  0  0  0  0  0  0  0  0  0  0  0
    8.7864    2.7821    1.5753 H   0  0  0  0  0  0  0  0  0  0  0  0
    8.7685    4.5138    1.7702 H   0  0  0  0  0  0  0  0  0  0  0  0
   10.2815    3.1369   -0.5109 H   0  0  0  0  0  0  0  0  0  0  0  0
   10.9405    3.4729    1.0769 H   0  0  0  0  0  0  0  0  0  0  0  0
   11.6933    5.2568   -0.2078 H   0  0  0  0  0  0  0  0  0  0  0  0
   10.4163    5.9289    0.7847 H   0  0  0  0  0  0  0  0  0  0  0  0
   10.3362    5.2302   -2.1858 H   0  0  0  0  0  0  0  0  0  0  0  0
   10.2862    6.8208   -1.4511 H   0  0  0  0  0  0  0  0  0  0  0  0
    8.1052    6.2585   -2.2504 H   0  0  0  0  0  0  0  0  0  0  0  0
    8.0398    6.3621   -0.4999 H   0  0  0  0  0  0  0  0  0  0  0  0
    6.8750    4.3878   -1.8438 H   0  0  0  0  0  0  0  0  0  0  0  0
    8.4576    3.6513   -1.8795 H   0  0  0  0  0  0  0  0  0  0  0  0
  1  2  1  0  0  0  0
  1  6  1  0  0  0  0
  1 30  1  0  0  0  0
  1 31  1  0  0  0  0
  2  3  1  0  0  0  0
  2 32  1  0  0  0  0
  2 33  1  0  0  0  0
  3  4  1  0  0  0  0
  3 34  1  0  0  0  0
  3 35  1  0  0  0  0
  4  5  1  0  0  0  0
  4 36  1  0  0  0  0
  4 37  1  0  0  0  0
  5 38  1  0  0  0  0
  5 39  1  0  0  0  0
  5 40  1  0  0  0  0
  6 12  1  0  0  0  0
  6  7  1  0  0  0  0
  7  8  2  0  0  0  0
  7 41  1  0  0  0  0
  8  9  1  0  0  0  0
  8 20  1  0  0  0  0
  9 10  2  0  0  0  0
  9 11  1  0  0  0  0
 11 19  1  0  0  0  0
 11 12  1  0  0  0  0
 12 13  2  0  0  0  0
 13 14  1  0  0  0  0
 13 42  1  0  0  0  0
 14 15  1  0  0  0  0
 14 19  2  0  0  0  0
 15 16  1  0  0  0  0
 15 17  1  0  0  0  0
 15 18  1  0  0  0  0
 16 43  1  0  0  0  0
 16 44  1  0  0  0  0
 16 45  1  0  0  0  0
 17 46  1  0  0  0  0
 17 47  1  0  0  0  0
 17 48  1  0  0  0  0
 18 49  1  0  0  0  0
 18 50  1  0  0  0  0
 18 51  1  0  0  0  0
 20 21  2  0  0  0  0
 20 22  1  0  0  0  0
 22 23  1  0  0  0  0
 22 52  1  0  0  0  0
 23 29  1  0  0  0  0
 23 24  1  0  0  0  0
 23 53  1  0  0  0  0
 24 25  1  0  0  0  0
 24 54  1  0  0  0  0
 24 55  1  0  0  0  0
 25 26  1  0  0  0  0
 25 56  1  0  0  0  0
 25 57  1  0  0  0  0
 26 27  1  0  0  0  0
 26 58  1  0  0  0  0
 26 59  1  0  0  0  0
 27 28  1  0  0  0  0
 27 60  1  0  0  0  0
 27 61  1  0  0  0  0
 28 29  1  0  0  0  0
 28 62  1  0  0  0  0
 28 63  1  0  0  0  0
 29 64  1  0  0  0  0
 29 65  1  0  0  0  0
M  END
$$$$
CHEMBL4112675_8GUQ
 OpenBabel12022418123D

 57 59  0  0  1  0  0  0  0  0999 V2000
    1.1555   -4.6724    2.3191 C   0  0  0  0  0  0  0  0  0  0  0  0
    2.6856   -4.4730    2.3127 C   0  0  0  0  0  0  0  0  0  0  0  0
    3.3097   -5.5189    3.2581 C   0  0  0  0  0  0  0  0  0  0  0  0
    3.1734   -4.7581    0.8752 C   0  0  0  0  0  0  0  0  0  0  0  0
    3.0787   -3.0110    2.7202 C   0  0  1  0  0  0  0  0  0  0  0  0
    2.6093   -2.6476    4.1510 C   0  0  0  0  0  0  0  0  0  0  0  0
    3.3181   -2.8106    5.1477 O   0  0  0  0  0  0  0  0  0  0  0  0
    1.3014   -2.2015    4.2282 N   0  0  0  0  0  0  0  0  0  0  0  0
    0.6336   -1.9774    5.4858 C   0  0  0  0  0  0  0  0  0  0  0  0
    4.5242   -2.7926    2.6223 N   0  0  0  0  0  0  0  0  0  0  0  0
    5.0681   -1.5694    2.2927 C   0  0  0  0  0  0  0  0  0  0  0  0
    4.3938   -0.5856    2.0088 O   0  0  0  0  0  0  0  0  0  0  0  0
    6.5707   -1.5190    2.2757 C   0  0  0  0  0  0  0  0  0  0  0  0
    7.2084   -0.3154    2.0363 C   0  0  0  0  0  0  0  0  0  0  0  0
    8.5983   -0.3186    1.9557 C   0  0  0  0  0  0  0  0  0  0  0  0
    9.3428   -1.5042    2.0962 C   0  0  0  0  0  0  0  0  0  0  0  0
    8.5887   -2.6634    2.3461 C   0  0  0  0  0  0  0  0  0  0  0  0
    9.2745   -3.8556    2.5360 O   0  0  0  0  0  0  0  0  0  0  0  0
    8.4286   -4.9940    2.3075 C   0  0  0  0  0  0  0  0  0  0  0  0
    9.1159   -6.3236    2.5527 C   0  0  0  0  0  0  0  0  0  0  0  0
   10.4858   -6.4943    2.3772 C   0  0  0  0  0  0  0  0  0  0  0  0
   11.0341   -7.7635    2.5471 C   0  0  0  0  0  0  0  0  0  0  0  0
   10.2104   -8.8310    2.8809 C   0  0  0  0  0  0  0  0  0  0  0  0
    8.8587   -8.5855    3.0338 C   0  0  0  0  0  0  0  0  0  0  0  0
    8.2978   -7.3650    2.8704 N   0  0  0  0  0  0  0  0  0  0  0  0
    7.2324   -2.6931    2.4438 N   0  0  0  0  0  0  0  0  0  0  0  0
   10.8535   -1.4242    1.9939 C   0  0  0  0  0  0  0  0  0  0  0  0
   11.6950   -2.3271    1.1270 C   0  0  0  0  0  0  0  0  0  0  0  0
   11.4342   -0.9232    0.6803 C   0  0  0  0  0  0  0  0  0  0  0  0
    0.8843   -5.6514    1.9059 H   0  0  0  0  0  0  0  0  0  0  0  0
    0.6523   -3.9107    1.7136 H   0  0  0  0  0  0  0  0  0  0  0  0
    0.7418   -4.6366    3.3320 H   0  0  0  0  0  0  0  0  0  0  0  0
    3.0198   -6.5346    2.9649 H   0  0  0  0  0  0  0  0  0  0  0  0
    2.9784   -5.3757    4.2920 H   0  0  0  0  0  0  0  0  0  0  0  0
    4.4035   -5.4790    3.2454 H   0  0  0  0  0  0  0  0  0  0  0  0
    2.8900   -5.7679    0.5560 H   0  0  0  0  0  0  0  0  0  0  0  0
    4.2628   -4.6872    0.7918 H   0  0  0  0  0  0  0  0  0  0  0  0
    2.7327   -4.0507    0.1637 H   0  0  0  0  0  0  0  0  0  0  0  0
    2.5963   -2.3085    2.0271 H   0  0  0  0  0  0  0  0  0  0  0  0
    0.7624   -2.1045    3.3776 H   0  0  0  0  0  0  0  0  0  0  0  0
    1.3485   -1.7949    6.2906 H   0  0  0  0  0  0  0  0  0  0  0  0
    0.0412   -2.8661    5.7173 H   0  0  0  0  0  0  0  0  0  0  0  0
   -0.0336   -1.1188    5.3757 H   0  0  0  0  0  0  0  0  0  0  0  0
    5.1562   -3.4373    3.0907 H   0  0  0  0  0  0  0  0  0  0  0  0
    6.6433    0.6018    1.9048 H   0  0  0  0  0  0  0  0  0  0  0  0
    9.1165    0.6214    1.7692 H   0  0  0  0  0  0  0  0  0  0  0  0
    8.0979   -4.9889    1.2599 H   0  0  0  0  0  0  0  0  0  0  0  0
    7.5559   -4.9655    2.9723 H   0  0  0  0  0  0  0  0  0  0  0  0
   11.1210   -5.6563    2.1076 H   0  0  0  0  0  0  0  0  0  0  0  0
   12.1029   -7.9219    2.4135 H   0  0  0  0  0  0  0  0  0  0  0  0
   10.6073   -9.8297    3.0160 H   0  0  0  0  0  0  0  0  0  0  0  0
    8.1649   -9.3817    3.2914 H   0  0  0  0  0  0  0  0  0  0  0  0
   11.3457   -1.0635    2.8969 H   0  0  0  0  0  0  0  0  0  0  0  0
   11.2214   -3.1314    0.5794 H   0  0  0  0  0  0  0  0  0  0  0  0
   12.7031   -2.5549    1.4598 H   0  0  0  0  0  0  0  0  0  0  0  0
   12.2431   -0.2022    0.7259 H   0  0  0  0  0  0  0  0  0  0  0  0
   10.7815   -0.7936   -0.1773 H   0  0  0  0  0  0  0  0  0  0  0  0
  1  2  1  0  0  0  0
  1 30  1  0  0  0  0
  1 31  1  0  0  0  0
  1 32  1  0  0  0  0
  2  3  1  0  0  0  0
  2  4  1  0  0  0  0
  2  5  1  0  0  0  0
  3 33  1  0  0  0  0
  3 34  1  0  0  0  0
  3 35  1  0  0  0  0
  4 36  1  0  0  0  0
  4 37  1  0  0  0  0
  4 38  1  0  0  0  0
  5  6  1  0  0  0  0
  5 10  1  0  0  0  0
  5 39  1  6  0  0  0
  6  7  2  0  0  0  0
  6  8  1  0  0  0  0
  8  9  1  0  0  0  0
  8 40  1  0  0  0  0
  9 41  1  0  0  0  0
  9 42  1  0  0  0  0
  9 43  1  0  0  0  0
 10 11  1  0  0  0  0
 10 44  1  0  0  0  0
 11 12  2  0  0  0  0
 11 13  1  0  0  0  0
 13 26  2  0  0  0  0
 13 14  1  0  0  0  0
 14 15  2  0  0  0  0
 14 45  1  0  0  0  0
 15 16  1  0  0  0  0
 15 46  1  0  0  0  0
 16 17  2  0  0  0  0
 16 27  1  0  0  0  0
 17 18  1  0  0  0  0
 17 26  1  0  0  0  0
 18 19  1  0  0  0  0
 19 20  1  0  0  0  0
 19 47  1  0  0  0  0
 19 48  1  0  0  0  0
 20 25  2  0  0  0  0
 20 21  1  0  0  0  0
 21 22  2  0  0  0  0
 21 49  1  0  0  0  0
 22 23  1  0  0  0  0
 22 50  1  0  0  0  0
 23 24  2  0  0  0  0
 23 51  1  0  0  0  0
 24 25  1  0  0  0  0
 24 52  1  0  0  0  0
 27 29  1  0  0  0  0
 27 28  1  0  0  0  0
 27 53  1  0  0  0  0
 28 29  1  0  0  0  0
 28 54  1  0  0  0  0
 28 55  1  0  0  0  0
 29 56  1  0  0  0  0
 29 57  1  0  0  0  0
M  END
$$$$
CHEMBL1215888_5ZTY
 OpenBabel12022418123D

 63 67  0  0  1  0  0  0  0  0999 V2000
    1.1031    0.0408   -0.0682 C   0  0  0  0  0  0  0  0  0  0  0  0
    2.3052    0.0222    0.0138 C   0  0  0  0  0  0  0  0  0  0  0  0
    3.7298   -0.0059    0.1125 C   0  0  0  0  0  0  0  0  0  0  0  0
    4.4516    1.1814    0.1376 C   0  0  0  0  0  0  0  0  0  0  0  0
    5.8486    1.1535    0.2366 C   0  0  0  0  0  0  0  0  0  0  0  0
    6.5593   -0.0586    0.2782 C   0  0  0  0  0  0  0  0  0  0  0  0
    5.7944   -1.2436    0.2436 C   0  0  0  0  0  0  0  0  0  0  0  0
    4.3957   -1.2215    0.1766 C   0  0  0  0  0  0  0  0  0  0  0  0
    6.4684   -2.5660    0.2509 C   0  0  0  0  0  0  0  0  0  0  0  0
    5.8095   -3.6027    0.3013 O   0  0  0  0  0  0  0  0  0  0  0  0
    7.9426   -2.5976    0.1716 C   0  0  0  0  0  0  0  0  0  0  0  0
    8.7366   -3.8622    0.0202 C   0  0  0  0  0  0  0  0  0  0  0  0
    9.9245   -3.8052   -0.2895 O   0  0  0  0  0  0  0  0  0  0  0  0
    8.0587   -5.0538    0.2291 N   0  0  0  0  0  0  0  0  0  0  0  0
    8.6474   -6.3972    0.0426 C   0  0  2  0  0  0  0  0  0  0  0  0
    7.6246   -7.5333    0.3690 C   0  0  0  0  0  0  0  0  0  0  0  0
    8.2593   -8.9303    0.1441 C   0  0  1  0  0  0  0  0  0  0  0  0
    8.7115   -9.0594   -1.3202 C   0  0  0  0  0  0  0  0  0  0  0  0
    9.7313   -7.9600   -1.6476 C   0  0  2  0  0  0  0  0  0  0  0  0
   10.9482   -8.0908   -0.7168 C   0  0  0  0  0  0  0  0  0  0  0  0
   10.5072   -7.9863    0.7526 C   0  0  2  0  0  0  0  0  0  0  0  0
    9.4856   -9.0909    1.0577 C   0  0  0  0  0  0  0  0  0  0  0  0
    9.8580   -6.6123    0.9883 C   0  0  0  0  0  0  0  0  0  0  0  0
    9.0782   -6.5879   -1.4326 C   0  0  0  0  0  0  0  0  0  0  0  0
    8.5659   -1.4070    0.2211 C   0  0  0  0  0  0  0  0  0  0  0  0
    7.9704   -0.1440    0.3250 N   0  0  0  0  0  0  0  0  0  0  0  0
    8.7743    1.0959    0.4002 C   0  0  0  0  0  0  0  0  0  0  0  0
    8.9245    1.6210    1.8353 C   0  0  0  0  0  0  0  0  0  0  0  0
    9.7569    0.7009    2.7312 C   0  0  0  0  0  0  0  0  0  0  0  0
    9.9262    1.3025    4.1270 C   0  0  0  0  0  0  0  0  0  0  0  0
   10.7349    0.3905    5.0347 C   0  0  0  0  0  0  0  0  0  0  0  0
    0.0446    0.0498   -0.1430 H   0  0  0  0  0  0  0  0  0  0  0  0
    3.9384    2.1388    0.0738 H   0  0  0  0  0  0  0  0  0  0  0  0
    6.3480    2.1163    0.2635 H   0  0  0  0  0  0  0  0  0  0  0  0
    3.8354   -2.1543    0.1565 H   0  0  0  0  0  0  0  0  0  0  0  0
    7.0464   -4.9877    0.3540 H   0  0  0  0  0  0  0  0  0  0  0  0
    6.7292   -7.4375   -0.2590 H   0  0  0  0  0  0  0  0  0  0  0  0
    7.2805   -7.4552    1.4090 H   0  0  0  0  0  0  0  0  0  0  0  0
    7.5313   -9.7182    0.3705 H   0  0  0  0  0  0  0  0  0  0  0  0
    7.8452   -8.9817   -1.9882 H   0  0  0  0  0  0  0  0  0  0  0  0
    9.1591  -10.0461   -1.4959 H   0  0  0  0  0  0  0  0  0  0  0  0
   10.0521   -8.0518   -2.6911 H   0  0  0  0  0  0  0  0  0  0  0  0
   11.6787   -7.3044   -0.9436 H   0  0  0  0  0  0  0  0  0  0  0  0
   11.4490   -9.0509   -0.8899 H   0  0  0  0  0  0  0  0  0  0  0  0
   11.3778   -8.0984    1.4087 H   0  0  0  0  0  0  0  0  0  0  0  0
    9.9461  -10.0762    0.9066 H   0  0  0  0  0  0  0  0  0  0  0  0
    9.1799   -9.0439    2.1098 H   0  0  0  0  0  0  0  0  0  0  0  0
    9.5326   -6.5303    2.0346 H   0  0  0  0  0  0  0  0  0  0  0  0
   10.6164   -5.8369    0.8445 H   0  0  0  0  0  0  0  0  0  0  0  0
    9.7845   -5.8099   -1.7392 H   0  0  0  0  0  0  0  0  0  0  0  0
    8.2038   -6.4841   -2.0895 H   0  0  0  0  0  0  0  0  0  0  0  0
    9.6533   -1.3590    0.1762 H   0  0  0  0  0  0  0  0  0  0  0  0
    8.3377    1.8860   -0.2251 H   0  0  0  0  0  0  0  0  0  0  0  0
    9.7670    0.9340   -0.0334 H   0  0  0  0  0  0  0  0  0  0  0  0
    7.9423    1.7860    2.2939 H   0  0  0  0  0  0  0  0  0  0  0  0
    9.4157    2.6017    1.7905 H   0  0  0  0  0  0  0  0  0  0  0  0
   10.7418    0.5380    2.2774 H   0  0  0  0  0  0  0  0  0  0  0  0
    9.2705   -0.2767    2.8188 H   0  0  0  0  0  0  0  0  0  0  0  0
    8.9420    1.4752    4.5780 H   0  0  0  0  0  0  0  0  0  0  0  0
   10.4260    2.2756    4.0566 H   0  0  0  0  0  0  0  0  0  0  0  0
   10.2449   -0.5814    5.1509 H   0  0  0  0  0  0  0  0  0  0  0  0
   10.8372    0.8401    6.0274 H   0  0  0  0  0  0  0  0  0  0  0  0
   11.7386    0.2244    4.6310 H   0  0  0  0  0  0  0  0  0  0  0  0
  1  2  3  0  0  0  0
  1 32  1  0  0  0  0
  2  3  1  0  0  0  0
  3  8  2  0  0  0  0
  3  4  1  0  0  0  0
  4  5  2  0  0  0  0
  4 33  1  0  0  0  0
  5  6  1  0  0  0  0
  5 34  1  0  0  0  0
  6 26  1  0  0  0  0
  6  7  2  0  0  0  0
  7  8  1  0  0  0  0
  7  9  1  0  0  0  0
  8 35  1  0  0  0  0
  9 10  2  0  0  0  0
  9 11  1  0  0  0  0
 11 12  1  0  0  0  0
 11 25  2  0  0  0  0
 12 13  2  0  0  0  0
 12 14  1  0  0  0  0
 14 36  1  0  0  0  0
 15 14  1  1  0  0  0
 15 23  1  0  0  0  0
 15 24  1  0  0  0  0
 15 16  1  0  0  0  0
 16 37  1  0  0  0  0
 16 38  1  0  0  0  0
 17 16  1  0  0  0  0
 17 18  1  0  0  0  0
 17 22  1  0  0  0  0
 17 39  1  1  0  0  0
 18 40  1  0  0  0  0
 18 41  1  0  0  0  0
 19 18  1  0  0  0  0
 19 20  1  0  0  0  0
 19 24  1  0  0  0  0
 19 42  1  6  0  0  0
 20 43  1  0  0  0  0
 20 44  1  0  0  0  0
 21 20  1  0  0  0  0
 21 22  1  0  0  0  0
 21 23  1  0  0  0  0
 21 45  1  1  0  0  0
 22 46  1  0  0  0  0
 22 47  1  0  0  0  0
 23 48  1  0  0  0  0
 23 49  1  0  0  0  0
 24 50  1  0  0  0  0
 24 51  1  0  0  0  0
 25 26  1  0  0  0  0
 25 52  1  0  0  0  0
 26 27  1  0  0  0  0
 27 28  1  0  0  0  0
 27 53  1  0  0  0  0
 27 54  1  0  0  0  0
 28 29  1  0  0  0  0
 28 55  1  0  0  0  0
 28 56  1  0  0  0  0
 29 30  1  0  0  0  0
 29 57  1  0  0  0  0
 29 58  1  0  0  0  0
 30 31  1  0  0  0  0
 30 59  1  0  0  0  0
 30 60  1  0  0  0  0
 31 61  1  0  0  0  0
 31 62  1  0  0  0  0
 31 63  1  0  0  0  0
M  END
$$$$
CHEMBL577165_5ZTY
 OpenBabel12022418123D

 47 50  0  0  0  0  0  0  0  0999 V2000
    1.1848    0.4563   -0.1184 C   0  0  0  0  0  0  0  0  0  0  0  0
    2.6510    0.1967   -0.1025 C   0  0  0  0  0  0  0  0  0  0  0  0
    3.6649    1.2085   -0.0113 C   0  0  0  0  0  0  0  0  0  0  0  0
    3.4836    2.6888   -0.0487 C   0  0  0  0  0  0  0  0  0  0  0  0
    2.3883    3.2212   -0.1919 O   0  0  0  0  0  0  0  0  0  0  0  0
    4.6641    3.3904    0.0785 N   0  0  0  0  0  0  0  0  0  0  0  0
    4.8415    4.8300    0.1028 C   0  0  0  0  0  0  0  0  0  0  0  0
    4.4208    5.5923   -1.1538 C   0  0  0  0  0  0  0  0  0  0  0  0
    4.4870    7.0539   -0.7100 C   0  0  0  0  0  0  0  0  0  0  0  0
    4.1681    7.0497    0.7875 C   0  0  0  0  0  0  0  0  0  0  0  0
    4.0897    5.5790    1.2048 C   0  0  0  0  0  0  0  0  0  0  0  0
    4.8827    0.6559    0.1664 N   0  0  0  0  0  0  0  0  0  0  0  0
    4.6934   -0.6822    0.0021 N   0  0  0  0  0  0  0  0  0  0  0  0
    5.8384   -1.5019   -0.2313 C   0  0  0  0  0  0  0  0  0  0  0  0
    5.7861   -2.5849   -1.1208 C   0  0  0  0  0  0  0  0  0  0  0  0
    6.9210   -3.3719   -1.3357 C   0  0  0  0  0  0  0  0  0  0  0  0
    8.1156   -3.0811   -0.6728 C   0  0  0  0  0  0  0  0  0  0  0  0
    8.1752   -1.9943    0.2080 C   0  0  0  0  0  0  0  0  0  0  0  0
    7.0437   -1.1959    0.4168 C   0  0  0  0  0  0  0  0  0  0  0  0
    9.6120   -1.5947    1.0814 Cl  0  0  0  0  0  0  0  0  0  0  0  0
    9.4787   -4.0916   -0.9975 Cl  0  0  0  0  0  0  0  0  0  0  0  0
    3.3491   -1.0026   -0.0503 C   0  0  0  0  0  0  0  0  0  0  0  0
    2.8395   -2.3095    0.0144 N   0  0  0  0  0  0  0  0  0  0  0  0
    3.3901   -3.3822    0.7004 C   0  0  0  0  0  0  0  0  0  0  0  0
    2.6147   -4.5048    0.5107 C   0  0  0  0  0  0  0  0  0  0  0  0
    1.5309   -4.1213   -0.3021 C   0  0  0  0  0  0  0  0  0  0  0  0
    1.6886   -2.7822   -0.5935 C   0  0  0  0  0  0  0  0  0  0  0  0
    0.5875   -0.4469    0.0166 H   0  0  0  0  0  0  0  0  0  0  0  0
    0.8885    0.9248   -1.0613 H   0  0  0  0  0  0  0  0  0  0  0  0
    0.9114    1.1227    0.7066 H   0  0  0  0  0  0  0  0  0  0  0  0
    5.4836    2.8010    0.1900 H   0  0  0  0  0  0  0  0  0  0  0  0
    5.9166    4.9883    0.2532 H   0  0  0  0  0  0  0  0  0  0  0  0
    3.3976    5.3438   -1.4568 H   0  0  0  0  0  0  0  0  0  0  0  0
    5.0798    5.3971   -2.0055 H   0  0  0  0  0  0  0  0  0  0  0  0
    3.7988    7.6899   -1.2764 H   0  0  0  0  0  0  0  0  0  0  0  0
    5.4985    7.4499   -0.8662 H   0  0  0  0  0  0  0  0  0  0  0  0
    3.2278    7.5699    0.9992 H   0  0  0  0  0  0  0  0  0  0  0  0
    4.9583    7.5706    1.3412 H   0  0  0  0  0  0  0  0  0  0  0  0
    4.5273    5.4112    2.1928 H   0  0  0  0  0  0  0  0  0  0  0  0
    3.0384    5.2737    1.2552 H   0  0  0  0  0  0  0  0  0  0  0  0
    4.8858   -2.8220   -1.6842 H   0  0  0  0  0  0  0  0  0  0  0  0
    6.8661   -4.2094   -2.0286 H   0  0  0  0  0  0  0  0  0  0  0  0
    7.0969   -0.3609    1.1132 H   0  0  0  0  0  0  0  0  0  0  0  0
    4.2840   -3.2631    1.2980 H   0  0  0  0  0  0  0  0  0  0  0  0
    2.8082   -5.4866    0.9261 H   0  0  0  0  0  0  0  0  0  0  0  0
    0.7244   -4.7541   -0.6513 H   0  0  0  0  0  0  0  0  0  0  0  0
    1.0918   -2.1446   -1.2274 H   0  0  0  0  0  0  0  0  0  0  0  0
  1  2  1  0  0  0  0
  1 28  1  0  0  0  0
  1 29  1  0  0  0  0
  1 30  1  0  0  0  0
  2 22  2  0  0  0  0
  2  3  1  0  0  0  0
  3  4  1  0  0  0  0
  3 12  2  0  0  0  0
  4  5  2  0  0  0  0
  4  6  1  0  0  0  0
  6  7  1  0  0  0  0
  6 31  1  0  0  0  0
  7 11  1  0  0  0  0
  7  8  1  0  0  0  0
  7 32  1  0  0  0  0
  8  9  1  0  0  0  0
  8 33  1  0  0  0  0
  8 34  1  0  0  0  0
  9 10  1  0  0  0  0
  9 35  1  0  0  0  0
  9 36  1  0  0  0  0
 10 11  1  0  0  0  0
 10 37  1  0  0  0  0
 10 38  1  0  0  0  0
 11 39  1  0  0  0  0
 11 40  1  0  0  0  0
 12 13  1  0  0  0  0
 13 14  1  0  0  0  0
 13 22  1  0  0  0  0
 14 19  2  0  0  0  0
 14 15  1  0  0  0  0
 15 16  2  0  0  0  0
 15 41  1  0  0  0  0
 16 17  1  0  0  0  0
 16 42  1  0  0  0  0
 17 18  2  0  0  0  0
 17 21  1  0  0  0  0
 18 19  1  0  0  0  0
 18 20  1  0  0  0  0
 19 43  1  0  0  0  0
 22 23  1  0  0  0  0
 23 27  1  0  0  0  0
 23 24  1  0  0  0  0
 24 25  2  0  0  0  0
 24 44  1  0  0  0  0
 25 26  1  0  0  0  0
 25 45  1  0  0  0  0
 26 27  2  0  0  0  0
 26 46  1  0  0  0  0
 27 47  1  0  0  0  0
M  END
$$$$
CHEMBL2152804_5ZTY
 OpenBabel12022418123D

 64 68  0  0  1  0  0  0  0  0999 V2000
   -1.5133    1.2656   -2.0578 C   0  0  0  0  0  0  0  0  0  0  0  0
   -1.7815    2.6847   -1.6502 C   0  0  0  0  0  0  0  0  0  0  0  0
   -2.9753    3.0137   -1.0026 C   0  0  0  0  0  0  0  0  0  0  0  0
   -3.2368    4.3345   -0.6412 C   0  0  0  0  0  0  0  0  0  0  0  0
   -2.3065    5.3395   -0.9238 C   0  0  0  0  0  0  0  0  0  0  0  0
   -1.0952    5.0338   -1.5623 C   0  0  0  0  0  0  0  0  0  0  0  0
   -0.1234    6.1317   -1.9557 C   0  0  0  0  0  0  0  0  0  0  0  0
    1.2162    5.9754   -1.3442 N   0  0  0  0  0  0  0  0  0  0  0  0
    2.2308    5.2931   -2.0146 C   0  0  0  0  0  0  0  0  0  0  0  0
    3.4752    5.0376   -1.5797 C   0  0  0  0  0  0  0  0  0  0  0  0
    4.3912    4.2550   -2.4707 C   0  0  0  0  0  0  0  0  0  0  0  0
    4.0328    3.9068   -3.5943 O   0  0  0  0  0  0  0  0  0  0  0  0
    5.6364    3.9569   -1.9654 N   0  0  0  0  0  0  0  0  0  0  0  0
    6.6548    3.2389   -2.7361 C   0  0  2  0  0  0  0  0  0  0  0  0
    7.6221    2.3408   -1.8695 C   0  0  0  0  0  0  0  0  0  0  0  0
    7.3915    2.4222   -0.3478 C   0  0  0  0  0  0  0  0  0  0  0  0
    7.4978    0.8558   -2.2597 C   0  0  0  0  0  0  0  0  0  0  0  0
    9.0273    2.9417   -2.2135 C   0  0  1  0  0  0  0  0  0  0  0  0
    9.4739    2.5837   -3.6396 C   0  0  0  0  0  0  0  0  0  0  0  0
    8.4627    3.3388   -4.5077 C   0  0  0  0  0  0  0  0  0  0  0  0
    7.6599    4.1857   -3.4776 C   0  0  1  0  0  0  0  0  0  0  0  0
    7.0962    5.4422   -4.1087 C   0  0  0  0  0  0  0  0  0  0  0  0
    8.7184    4.4330   -2.3949 C   0  0  0  0  0  0  0  0  0  0  0  0
    3.8171    5.5603   -0.2372 C   0  0  0  0  0  0  0  0  0  0  0  0
    4.9084    5.3293    0.2804 O   0  0  0  0  0  0  0  0  0  0  0  0
    2.8027    6.4030    0.4615 C   0  0  0  0  0  0  0  0  0  0  0  0
    3.1691    7.0302    1.6689 C   0  0  0  0  0  0  0  0  0  0  0  0
    2.2589    7.8441    2.3342 C   0  0  0  0  0  0  0  0  0  0  0  0
    0.9884    8.0051    1.8055 C   0  0  0  0  0  0  0  0  0  0  0  0
    0.6112    7.3764    0.6183 C   0  0  0  0  0  0  0  0  0  0  0  0
    1.5142    6.5730   -0.0981 C   0  0  0  0  0  0  0  0  0  0  0  0
    0.1063    8.7866    2.4412 F   0  0  0  0  0  0  0  0  0  0  0  0
   -0.8461    3.6958   -1.9135 C   0  0  0  0  0  0  0  0  0  0  0  0
   -0.6059    1.1879   -2.6657 H   0  0  0  0  0  0  0  0  0  0  0  0
   -2.3447    0.8820   -2.6587 H   0  0  0  0  0  0  0  0  0  0  0  0
   -1.3867    0.6341   -1.1732 H   0  0  0  0  0  0  0  0  0  0  0  0
   -3.7127    2.2430   -0.7876 H   0  0  0  0  0  0  0  0  0  0  0  0
   -4.1754    4.5830   -0.1518 H   0  0  0  0  0  0  0  0  0  0  0  0
   -2.5511    6.3638   -0.6546 H   0  0  0  0  0  0  0  0  0  0  0  0
   -0.5476    7.1228   -1.7575 H   0  0  0  0  0  0  0  0  0  0  0  0
   -0.0340    6.1076   -3.0510 H   0  0  0  0  0  0  0  0  0  0  0  0
    1.9226    4.9435   -2.9989 H   0  0  0  0  0  0  0  0  0  0  0  0
    5.8807    4.3668   -1.0637 H   0  0  0  0  0  0  0  0  0  0  0  0
    6.1262    2.6266   -3.4766 H   0  0  0  0  0  0  0  0  0  0  0  0
    6.3950    2.0543   -0.0784 H   0  0  0  0  0  0  0  0  0  0  0  0
    7.4958    3.4389    0.0404 H   0  0  0  0  0  0  0  0  0  0  0  0
    8.1236    1.8028    0.1844 H   0  0  0  0  0  0  0  0  0  0  0  0
    6.5442    0.4389   -1.9158 H   0  0  0  0  0  0  0  0  0  0  0  0
    8.3045    0.2658   -1.8106 H   0  0  0  0  0  0  0  0  0  0  0  0
    7.5325    0.7010   -3.3423 H   0  0  0  0  0  0  0  0  0  0  0  0
    9.7970    2.7278   -1.4673 H   0  0  0  0  0  0  0  0  0  0  0  0
    9.5053    1.5122   -3.8508 H   0  0  0  0  0  0  0  0  0  0  0  0
   10.4830    2.9726   -3.8272 H   0  0  0  0  0  0  0  0  0  0  0  0
    7.8175    2.6526   -5.0675 H   0  0  0  0  0  0  0  0  0  0  0  0
    8.9918    3.9647   -5.2354 H   0  0  0  0  0  0  0  0  0  0  0  0
    6.4468    5.1969   -4.9555 H   0  0  0  0  0  0  0  0  0  0  0  0
    7.9046    6.0799   -4.4862 H   0  0  0  0  0  0  0  0  0  0  0  0
    6.5250    6.0417   -3.3949 H   0  0  0  0  0  0  0  0  0  0  0  0
    9.5800    5.0063   -2.7569 H   0  0  0  0  0  0  0  0  0  0  0  0
    8.3229    4.9190   -1.4991 H   0  0  0  0  0  0  0  0  0  0  0  0
    4.1683    6.8959    2.0771 H   0  0  0  0  0  0  0  0  0  0  0  0
    2.5311    8.3546    3.2520 H   0  0  0  0  0  0  0  0  0  0  0  0
   -0.4050    7.5509    0.2858 H   0  0  0  0  0  0  0  0  0  0  0  0
    0.0805    3.4353   -2.4202 H   0  0  0  0  0  0  0  0  0  0  0  0
  1  2  1  0  0  0  0
  1 34  1  0  0  0  0
  1 35  1  0  0  0  0
  1 36  1  0  0  0  0
  2 33  2  0  0  0  0
  2  3  1  0  0  0  0
  3  4  2  0  0  0  0
  3 37  1  0  0  0  0
  4  5  1  0  0  0  0
  4 38  1  0  0  0  0
  5  6  2  0  0  0  0
  5 39  1  0  0  0  0
  6  7  1  0  0  0  0
  6 33  1  0  0  0  0
  7  8  1  0  0  0  0
  7 40  1  0  0  0  0
  7 41  1  0  0  0  0
  8 31  1  0  0  0  0
  8  9  1  0  0  0  0
  9 10  2  0  0  0  0
  9 42  1  0  0  0  0
 10 11  1  0  0  0  0
 10 24  1  0  0  0  0
 11 12  2  0  0  0  0
 11 13  1  0  0  0  0
 13 43  1  0  0  0  0
 14 15  1  0  0  0  0
 14 21  1  0  0  0  0
 14 13  1  0  0  0  0
 14 44  1  6  0  0  0
 15 16  1  0  0  0  0
 15 17  1  0  0  0  0
 15 18  1  0  0  0  0
 16 45  1  0  0  0  0
 16 46  1  0  0  0  0
 16 47  1  0  0  0  0
 17 48  1  0  0  0  0
 17 49  1  0  0  0  0
 17 50  1  0  0  0  0
 18 19  1  0  0  0  0
 18 23  1  0  0  0  0
 18 51  1  1  0  0  0
 19 20  1  0  0  0  0
 19 52  1  0  0  0  0
 19 53  1  0  0  0  0
 20 21  1  0  0  0  0
 20 54  1  0  0  0  0
 20 55  1  0  0  0  0
 21 22  1  6  0  0  0
 21 23  1  0  0  0  0
 22 56  1  0  0  0  0
 22 57  1  0  0  0  0
 22 58  1  0  0  0  0
 23 59  1  0  0  0  0
 23 60  1  0  0  0  0
 24 25  2  0  0  0  0
 24 26  1  0  0  0  0
 26 31  2  0  0  0  0
 26 27  1  0  0  0  0
 27 28  2  0  0  0  0
 27 61  1  0  0  0  0
 28 29  1  0  0  0  0
 28 62  1  0  0  0  0
 29 30  2  0  0  0  0
 29 32  1  0  0  0  0
 30 31  1  0  0  0  0
 30 63  1  0  0  0  0
 33 64  1  0  0  0  0
M  END
$$$$
CHEMBL2152799_5ZTY
 OpenBabel12022418123D

 51 54  0  0  1  0  0  0  0  0999 V2000
    6.1253   -9.1020    6.4465 C   0  0  0  0  0  0  0  0  0  0  0  0
    5.6648   -9.1200    5.0515 N   0  0  0  0  0  0  0  0  0  0  0  0
    5.7664   -7.9829    4.2500 C   0  0  0  0  0  0  0  0  0  0  0  0
    5.3598   -7.7825    2.9743 C   0  0  0  0  0  0  0  0  0  0  0  0
    5.6545   -6.4310    2.2643 C   0  0  0  0  0  0  0  0  0  0  0  0
    6.5568   -5.7124    2.6849 O   0  0  0  0  0  0  0  0  0  0  0  0
    4.8456   -6.0321    1.2082 N   0  0  0  0  0  0  0  0  0  0  0  0
    5.0075   -5.1206   -0.0036 C   0  0  2  0  0  0  0  0  0  0  0  0
    5.5231   -5.9942   -1.2010 C   0  0  0  0  0  0  0  0  0  0  0  0
    6.4598   -7.1334   -0.7492 C   0  0  0  0  0  0  0  0  0  0  0  0
    4.2592   -6.5214   -1.8992 C   0  0  0  0  0  0  0  0  0  0  0  0
    6.4285   -5.0380   -2.0432 C   0  0  1  0  0  0  0  0  0  0  0  0
    5.6166   -4.0209   -2.8302 C   0  0  0  0  0  0  0  0  0  0  0  0
    5.0616   -3.1513   -1.7008 C   0  0  0  0  0  0  0  0  0  0  0  0
    5.7303   -3.7299   -0.3563 C   0  0  1  0  0  0  0  0  0  0  0  0
    5.7748   -2.5856    0.6320 C   0  0  0  0  0  0  0  0  0  0  0  0
    7.0726   -4.1440   -0.9663 C   0  0  0  0  0  0  0  0  0  0  0  0
    4.7124   -9.0362    2.3699 C   0  0  0  0  0  0  0  0  0  0  0  0
    4.1973   -8.9925    1.2528 O   0  0  0  0  0  0  0  0  0  0  0  0
    4.6904  -10.3280    3.1718 C   0  0  0  0  0  0  0  0  0  0  0  0
    4.2294  -11.5397    2.5965 C   0  0  0  0  0  0  0  0  0  0  0  0
    4.1749  -12.7236    3.3466 C   0  0  0  0  0  0  0  0  0  0  0  0
    4.5454  -12.6991    4.6812 C   0  0  0  0  0  0  0  0  0  0  0  0
    5.0063  -11.5221    5.2655 C   0  0  0  0  0  0  0  0  0  0  0  0
    5.1209  -10.3158    4.5234 C   0  0  0  0  0  0  0  0  0  0  0  0
    4.4732  -13.8219    5.4125 F   0  0  0  0  0  0  0  0  0  0  0  0
    6.4205  -10.0769    6.8502 H   0  0  0  0  0  0  0  0  0  0  0  0
    5.3471   -8.6847    7.0957 H   0  0  0  0  0  0  0  0  0  0  0  0
    7.0228   -8.4817    6.5375 H   0  0  0  0  0  0  0  0  0  0  0  0
    6.2336   -7.1489    4.7762 H   0  0  0  0  0  0  0  0  0  0  0  0
    4.1644   -6.7579    1.0010 H   0  0  0  0  0  0  0  0  0  0  0  0
    3.9509   -4.8533   -0.1444 H   0  0  0  0  0  0  0  0  0  0  0  0
    5.9206   -7.9505   -0.2719 H   0  0  0  0  0  0  0  0  0  0  0  0
    7.2117   -6.7679   -0.0379 H   0  0  0  0  0  0  0  0  0  0  0  0
    7.0097   -7.5535   -1.5960 H   0  0  0  0  0  0  0  0  0  0  0  0
    3.6035   -7.0263   -1.1773 H   0  0  0  0  0  0  0  0  0  0  0  0
    4.4770   -7.2134   -2.7116 H   0  0  0  0  0  0  0  0  0  0  0  0
    3.6458   -5.7028   -2.2977 H   0  0  0  0  0  0  0  0  0  0  0  0
    7.1520   -5.5539   -2.6819 H   0  0  0  0  0  0  0  0  0  0  0  0
    4.8512   -4.4533   -3.4801 H   0  0  0  0  0  0  0  0  0  0  0  0
    6.2750   -3.4344   -3.4862 H   0  0  0  0  0  0  0  0  0  0  0  0
    3.9681   -3.1746   -1.6735 H   0  0  0  0  0  0  0  0  0  0  0  0
    5.3627   -2.1125   -1.8976 H   0  0  0  0  0  0  0  0  0  0  0  0
    4.7757   -2.1576    0.7771 H   0  0  0  0  0  0  0  0  0  0  0  0
    6.3963   -1.7678    0.2329 H   0  0  0  0  0  0  0  0  0  0  0  0
    6.1922   -2.8736    1.5950 H   0  0  0  0  0  0  0  0  0  0  0  0
    7.6279   -3.3061   -1.4148 H   0  0  0  0  0  0  0  0  0  0  0  0
    7.7337   -4.6578   -0.2677 H   0  0  0  0  0  0  0  0  0  0  0  0
    3.9100  -11.5659    1.5563 H   0  0  0  0  0  0  0  0  0  0  0  0
    3.8313  -13.6652    2.9108 H   0  0  0  0  0  0  0  0  0  0  0  0
    5.2793  -11.5959    6.3094 H   0  0  0  0  0  0  0  0  0  0  0  0
  1  2  1  0  0  0  0
  1 27  1  0  0  0  0
  1 28  1  0  0  0  0
  1 29  1  0  0  0  0
  2 25  1  0  0  0  0
  2  3  1  0  0  0  0
  3  4  2  0  0  0  0
  3 30  1  0  0  0  0
  4  5  1  0  0  0  0
  4 18  1  0  0  0  0
  5  6  2  0  0  0  0
  5  7  1  0  0  0  0
  7 31  1  0  0  0  0
  8  9  1  0  0  0  0
  8 15  1  0  0  0  0
  8  7  1  0  0  0  0
  8 32  1  6  0  0  0
  9 10  1  0  0  0  0
  9 11  1  0  0  0  0
  9 12  1  0  0  0  0
 10 33  1  0  0  0  0
 10 34  1  0  0  0  0
 10 35  1  0  0  0  0
 11 36  1  0  0  0  0
 11 37  1  0  0  0  0
 11 38  1  0  0  0  0
 12 13  1  0  0  0  0
 12 17  1  0  0  0  0
 12 39  1  6  0  0  0
 13 14  1  0  0  0  0
 13 40  1  0  0  0  0
 13 41  1  0  0  0  0
 14 15  1  0  0  0  0
 14 42  1  0  0  0  0
 14 43  1  0  0  0  0
 15 16  1  1  0  0  0
 15 17  1  0  0  0  0
 16 44  1  0  0  0  0
 16 45  1  0  0  0  0
 16 46  1  0  0  0  0
 17 47  1  0  0  0  0
 17 48  1  0  0  0  0
 18 19  2  0  0  0  0
 18 20  1  0  0  0  0
 20 25  2  0  0  0  0
 20 21  1  0  0  0  0
 21 22  2  0  0  0  0
 21 49  1  0  0  0  0
 22 23  1  0  0  0  0
 22 50  1  0  0  0  0
 23 24  2  0  0  0  0
 23 26  1  0  0  0  0
 24 25  1  0  0  0  0
 24 51  1  0  0  0  0
M  END
$$$$
CHEMBL2381803_5ZTY
 OpenBabel12022418123D

 56 58  0  0  0  0  0  0  0  0999 V2000
    1.0834    0.0535   -0.0897 C   0  0  0  0  0  0  0  0  0  0  0  0
    0.5188    0.0099    1.3344 C   0  0  0  0  0  0  0  0  0  0  0  0
   -1.0143   -0.0221    1.3447 C   0  0  0  0  0  0  0  0  0  0  0  0
   -1.5543   -0.0415    2.7770 C   0  0  0  0  0  0  0  0  0  0  0  0
   -3.0746   -0.0635    2.8175 C   0  0  0  0  0  0  0  0  0  0  0  0
    2.5599    0.0039   -0.0788 N   0  0  0  0  0  0  0  0  0  0  0  0
    3.3506    1.1532   -0.0752 C   0  0  0  0  0  0  0  0  0  0  0  0
    4.7012    1.1779   -0.0897 C   0  0  0  0  0  0  0  0  0  0  0  0
    5.4173   -0.1231   -0.1063 C   0  0  0  0  0  0  0  0  0  0  0  0
    6.6410   -0.2341   -0.1333 O   0  0  0  0  0  0  0  0  0  0  0  0
    4.5712   -1.2495   -0.0876 N   0  0  0  0  0  0  0  0  0  0  0  0
    3.1853   -1.2108   -0.0717 C   0  0  0  0  0  0  0  0  0  0  0  0
    2.7588   -2.5165   -0.0576 C   0  0  0  0  0  0  0  0  0  0  0  0
    3.9406   -3.2899   -0.0715 C   0  0  0  0  0  0  0  0  0  0  0  0
    4.0477   -4.7700   -0.0715 C   0  0  0  0  0  0  0  0  0  0  0  0
    5.0427   -2.5292   -0.0889 N   0  0  0  0  0  0  0  0  0  0  0  0
    5.3839    2.5091   -0.0829 C   0  0  0  0  0  0  0  0  0  0  0  0
    4.7205    3.5442   -0.0873 O   0  0  0  0  0  0  0  0  0  0  0  0
    6.7614    2.5170   -0.0593 N   0  0  0  0  0  0  0  0  0  0  0  0
    7.5300    3.7730   -0.0514 C   0  0  0  0  0  0  0  0  0  0  0  0
    8.7766    3.6688    0.8489 C   0  0  0  0  0  0  0  0  0  0  0  0
   10.1522    3.7573    0.1807 C   0  0  0  0  0  0  0  0  0  0  0  0
   10.5549    5.1744   -0.2313 C   0  0  0  0  0  0  0  0  0  0  0  0
    9.9075    5.6917   -1.5104 C   0  0  0  0  0  0  0  0  0  0  0  0
    8.3836    5.6715   -1.5241 C   0  0  0  0  0  0  0  0  0  0  0  0
    7.7852    4.2641   -1.4821 C   0  0  0  0  0  0  0  0  0  0  0  0
    0.7452    0.9673   -0.5946 H   0  0  0  0  0  0  0  0  0  0  0  0
    0.6764   -0.7769   -0.6816 H   0  0  0  0  0  0  0  0  0  0  0  0
    0.8719    0.8854    1.8925 H   0  0  0  0  0  0  0  0  0  0  0  0
    0.8990   -0.8736    1.8615 H   0  0  0  0  0  0  0  0  0  0  0  0
   -1.3691   -0.9106    0.8078 H   0  0  0  0  0  0  0  0  0  0  0  0
   -1.4071    0.8539    0.8146 H   0  0  0  0  0  0  0  0  0  0  0  0
   -1.1969    0.8419    3.3187 H   0  0  0  0  0  0  0  0  0  0  0  0
   -1.1712   -0.9222    3.3056 H   0  0  0  0  0  0  0  0  0  0  0  0
   -3.4952    0.8198    2.3267 H   0  0  0  0  0  0  0  0  0  0  0  0
   -3.4237   -0.0714    3.8555 H   0  0  0  0  0  0  0  0  0  0  0  0
   -3.4701   -0.9556    2.3216 H   0  0  0  0  0  0  0  0  0  0  0  0
    2.7715    2.0759   -0.0604 H   0  0  0  0  0  0  0  0  0  0  0  0
    1.7401   -2.8768   -0.0423 H   0  0  0  0  0  0  0  0  0  0  0  0
    3.0559   -5.2350   -0.0666 H   0  0  0  0  0  0  0  0  0  0  0  0
    4.5868   -5.1184    0.8149 H   0  0  0  0  0  0  0  0  0  0  0  0
    4.5772   -5.1182   -0.9639 H   0  0  0  0  0  0  0  0  0  0  0  0
    7.2622    1.6307   -0.1401 H   0  0  0  0  0  0  0  0  0  0  0  0
    6.8745    4.5131    0.4263 H   0  0  0  0  0  0  0  0  0  0  0  0
    8.7366    2.7358    1.4255 H   0  0  0  0  0  0  0  0  0  0  0  0
    8.7180    4.4695    1.5995 H   0  0  0  0  0  0  0  0  0  0  0  0
   10.2335    3.0621   -0.6617 H   0  0  0  0  0  0  0  0  0  0  0  0
   10.8909    3.4228    0.9215 H   0  0  0  0  0  0  0  0  0  0  0  0
   11.6421    5.1893   -0.3866 H   0  0  0  0  0  0  0  0  0  0  0  0
   10.3599    5.8742    0.5906 H   0  0  0  0  0  0  0  0  0  0  0  0
   10.2886    5.1240   -2.3680 H   0  0  0  0  0  0  0  0  0  0  0  0
   10.2383    6.7278   -1.6624 H   0  0  0  0  0  0  0  0  0  0  0  0
    8.0583    6.1531   -2.4549 H   0  0  0  0  0  0  0  0  0  0  0  0
    7.9898    6.2873   -0.7065 H   0  0  0  0  0  0  0  0  0  0  0  0
    6.8261    4.2915   -2.0156 H   0  0  0  0  0  0  0  0  0  0  0  0
    8.4080    3.5537   -2.0401 H   0  0  0  0  0  0  0  0  0  0  0  0
  1  2  1  0  0  0  0
  1  6  1  0  0  0  0
  1 27  1  0  0  0  0
  1 28  1  0  0  0  0
  2  3  1  0  0  0  0
  2 29  1  0  0  0  0
  2 30  1  0  0  0  0
  3  4  1  0  0  0  0
  3 31  1  0  0  0  0
  3 32  1  0  0  0  0
  4  5  1  0  0  0  0
  4 33  1  0  0  0  0
  4 34  1  0  0  0  0
  5 35  1  0  0  0  0
  5 36  1  0  0  0  0
  5 37  1  0  0  0  0
  6 12  1  0  0  0  0
  6  7  1  0  0  0  0
  7  8  2  0  0  0  0
  7 38  1  0  0  0  0
  8  9  1  0  0  0  0
  8 17  1  0  0  0  0
  9 10  2  0  0  0  0
  9 11  1  0  0  0  0
 11 16  1  0  0  0  0
 11 12  1  0  0  0  0
 12 13  2  0  0  0  0
 13 14  1  0  0  0  0
 13 39  1  0  0  0  0
 14 15  1  0  0  0  0
 14 16  2  0  0  0  0
 15 40  1  0  0  0  0
 15 41  1  0  0  0  0
 15 42  1  0  0  0  0
 17 18  2  0  0  0  0
 17 19  1  0  0  0  0
 19 20  1  0  0  0  0
 19 43  1  0  0  0  0
 20 26  1  0  0  0  0
 20 21  1  0  0  0  0
 20 44  1  0  0  0  0
 21 22  1  0  0  0  0
 21 45  1  0  0  0  0
 21 46  1  0  0  0  0
 22 23  1  0  0  0  0
 22 47  1  0  0  0  0
 22 48  1  0  0  0  0
 23 24  1  0  0  0  0
 23 49  1  0  0  0  0
 23 50  1  0  0  0  0
 24 25  1  0  0  0  0
 24 51  1  0  0  0  0
 24 52  1  0  0  0  0
 25 26  1  0  0  0  0
 25 53  1  0  0  0  0
 25 54  1  0  0  0  0
 26 55  1  0  0  0  0
 26 56  1  0  0  0  0
M  END
$$$$
CHEMBL374982_6PT0
 OpenBabel12022418123D

 56 59  0  0  0  0  0  0  0  0999 V2000
    9.0497   -0.1610    3.1788 C   0  0  0  0  0  0  0  0  0  0  0  0
    7.9104   -0.0843    2.1750 C   0  0  0  0  0  0  0  0  0  0  0  0
    8.3300    0.6930    0.9291 C   0  0  0  0  0  0  0  0  0  0  0  0
    7.1963    0.7871   -0.0882 C   0  0  0  0  0  0  0  0  0  0  0  0
    7.6399    1.5722   -1.3239 C   0  0  0  0  0  0  0  0  0  0  0  0
    6.4924    1.7135   -2.3156 C   0  0  0  0  0  0  0  0  0  0  0  0
    6.8828    2.3797   -3.5484 N   0  0  0  0  0  0  0  0  0  0  0  0
    6.6987    3.7390   -3.6984 C   0  0  0  0  0  0  0  0  0  0  0  0
    7.2060    4.1371   -4.9166 C   0  0  0  0  0  0  0  0  0  0  0  0
    7.2575    5.4863   -5.4854 C   0  0  0  0  0  0  0  0  0  0  0  0
    7.3550    5.6525   -6.6976 O   0  0  0  0  0  0  0  0  0  0  0  0
    7.2473    6.6654   -4.5600 C   0  0  0  0  0  0  0  0  0  0  0  0
    7.9777    6.5543   -3.3592 C   0  0  0  0  0  0  0  0  0  0  0  0
    7.9752    7.5795   -2.4265 C   0  0  0  0  0  0  0  0  0  0  0  0
    7.2632    8.7427   -2.7000 C   0  0  0  0  0  0  0  0  0  0  0  0
    6.5793    8.9160   -3.9141 C   0  0  0  0  0  0  0  0  0  0  0  0
    5.9194   10.1226   -4.1638 C   0  0  0  0  0  0  0  0  0  0  0  0
    5.2408   10.3396   -5.3660 C   0  0  0  0  0  0  0  0  0  0  0  0
    5.2093    9.3370   -6.3239 C   0  0  0  0  0  0  0  0  0  0  0  0
    5.8467    8.1202   -6.0764 C   0  0  0  0  0  0  0  0  0  0  0  0
    6.5596    7.8688   -4.8754 C   0  0  0  0  0  0  0  0  0  0  0  0
    7.6699    2.9484   -5.5353 C   0  0  0  0  0  0  0  0  0  0  0  0
    7.4794    1.8586   -4.6879 C   0  0  0  0  0  0  0  0  0  0  0  0
    7.8580    0.4575   -4.9695 C   0  0  0  0  0  0  0  0  0  0  0  0
    8.9523    0.1906   -5.8143 C   0  0  0  0  0  0  0  0  0  0  0  0
    9.2933   -1.1180   -6.1735 C   0  0  0  0  0  0  0  0  0  0  0  0
    8.5700   -2.1911   -5.6658 C   0  0  0  0  0  0  0  0  0  0  0  0
    7.4923   -1.9511   -4.8219 C   0  0  0  0  0  0  0  0  0  0  0  0
    7.1240   -0.6400   -4.5088 C   0  0  0  0  0  0  0  0  0  0  0  0
    8.7392   -0.7187    4.0671 H   0  0  0  0  0  0  0  0  0  0  0  0
    9.3587    0.8409    3.4960 H   0  0  0  0  0  0  0  0  0  0  0  0
    9.9191   -0.6665    2.7457 H   0  0  0  0  0  0  0  0  0  0  0  0
    7.0465    0.4016    2.6449 H   0  0  0  0  0  0  0  0  0  0  0  0
    7.6028   -1.0990    1.8972 H   0  0  0  0  0  0  0  0  0  0  0  0
    9.1965    0.2041    0.4662 H   0  0  0  0  0  0  0  0  0  0  0  0
    8.6458    1.7032    1.2174 H   0  0  0  0  0  0  0  0  0  0  0  0
    6.3265    1.2752    0.3697 H   0  0  0  0  0  0  0  0  0  0  0  0
    6.8801   -0.2205   -0.3859 H   0  0  0  0  0  0  0  0  0  0  0  0
    8.4911    1.0663   -1.7955 H   0  0  0  0  0  0  0  0  0  0  0  0
    7.9890    2.5687   -1.0245 H   0  0  0  0  0  0  0  0  0  0  0  0
    5.6840    2.3057   -1.8678 H   0  0  0  0  0  0  0  0  0  0  0  0
    6.0386    0.7544   -2.5420 H   0  0  0  0  0  0  0  0  0  0  0  0
    6.2308    4.3117   -2.9072 H   0  0  0  0  0  0  0  0  0  0  0  0
    8.5624    5.6639   -3.1419 H   0  0  0  0  0  0  0  0  0  0  0  0
    8.5087    7.4710   -1.4881 H   0  0  0  0  0  0  0  0  0  0  0  0
    7.2691    9.5385   -1.9557 H   0  0  0  0  0  0  0  0  0  0  0  0
    5.9280   10.9265   -3.4292 H   0  0  0  0  0  0  0  0  0  0  0  0
    4.7444   11.2881   -5.5528 H   0  0  0  0  0  0  0  0  0  0  0  0
    4.6951    9.4965   -7.2690 H   0  0  0  0  0  0  0  0  0  0  0  0
    5.7968    7.3659   -6.8619 H   0  0  0  0  0  0  0  0  0  0  0  0
    8.1168    2.9051   -6.5222 H   0  0  0  0  0  0  0  0  0  0  0  0
    9.5448    1.0044   -6.2264 H   0  0  0  0  0  0  0  0  0  0  0  0
   10.1178   -1.2947   -6.8593 H   0  0  0  0  0  0  0  0  0  0  0  0
    8.8283   -3.2087   -5.9418 H   0  0  0  0  0  0  0  0  0  0  0  0
    6.9096   -2.7801   -4.4290 H   0  0  0  0  0  0  0  0  0  0  0  0
    6.2148   -0.5175   -3.9392 H   0  0  0  0  0  0  0  0  0  0  0  0
  1  2  1  0  0  0  0
  1 30  1  0  0  0  0
  1 31  1  0  0  0  0
  1 32  1  0  0  0  0
  2  3  1  0  0  0  0
  2 33  1  0  0  0  0
  2 34  1  0  0  0  0
  3  4  1  0  0  0  0
  3 35  1  0  0  0  0
  3 36  1  0  0  0  0
  4  5  1  0  0  0  0
  4 37  1  0  0  0  0
  4 38  1  0  0  0  0
  5  6  1  0  0  0  0
  5 39  1  0  0  0  0
  5 40  1  0  0  0  0
  6  7  1  0  0  0  0
  6 41  1  0  0  0  0
  6 42  1  0  0  0  0
  7 23  1  0  0  0  0
  7  8  1  0  0  0  0
  8  9  2  0  0  0  0
  8 43  1  0  0  0  0
  9 10  1  0  0  0  0
  9 22  1  0  0  0  0
 10 11  2  0  0  0  0
 10 12  1  0  0  0  0
 12 21  2  0  0  0  0
 12 13  1  0  0  0  0
 13 14  2  0  0  0  0
 13 44  1  0  0  0  0
 14 15  1  0  0  0  0
 14 45  1  0  0  0  0
 15 16  2  0  0  0  0
 15 46  1  0  0  0  0
 16 21  1  0  0  0  0
 16 17  1  0  0  0  0
 17 18  2  0  0  0  0
 17 47  1  0  0  0  0
 18 19  1  0  0  0  0
 18 48  1  0  0  0  0
 19 20  2  0  0  0  0
 19 49  1  0  0  0  0
 20 21  1  0  0  0  0
 20 50  1  0  0  0  0
 22 23  2  0  0  0  0
 22 51  1  0  0  0  0
 23 24  1  0  0  0  0
 24 29  2  0  0  0  0
 24 25  1  0  0  0  0
 25 26  2  0  0  0  0
 25 52  1  0  0  0  0
 26 27  1  0  0  0  0
 26 53  1  0  0  0  0
 27 28  2  0  0  0  0
 27 54  1  0  0  0  0
 28 29  1  0  0  0  0
 28 55  1  0  0  0  0
 29 56  1  0  0  0  0
M  END
$$$$
CHEMBL3421688_8GUR
 OpenBabel12022418123D

 49 52  0  0  0  0  0  0  0  0999 V2000
   -0.3667   -1.9453    0.0902 N   0  0  0  0  0  0  0  0  0  0  0  0
    1.0128   -1.8898   -0.0516 C   0  0  0  0  0  0  0  0  0  0  0  0
    1.7195   -0.7718   -0.0429 C   0  0  0  0  0  0  0  0  0  0  0  0
    1.0634    0.5119    0.0935 C   0  0  0  0  0  0  0  0  0  0  0  0
    1.9310    1.4908    0.1360 N   0  0  0  0  0  0  0  0  0  0  0  0
    3.2014    0.8686   -0.0091 N   0  0  0  0  0  0  0  0  0  0  0  0
    3.1489   -0.5316   -0.1375 C   0  0  0  0  0  0  0  0  0  0  0  0
    3.9976   -1.3875   -0.2830 O   0  0  0  0  0  0  0  0  0  0  0  0
    4.3601    1.6677   -0.1264 C   0  0  0  0  0  0  0  0  0  0  0  0
    4.3368    3.0162    0.2513 C   0  0  0  0  0  0  0  0  0  0  0  0
    5.4689    3.8339    0.0921 C   0  0  0  0  0  0  0  0  0  0  0  0
    6.6350    3.2858   -0.4656 C   0  0  0  0  0  0  0  0  0  0  0  0
    6.6760    1.9450   -0.8292 C   0  0  0  0  0  0  0  0  0  0  0  0
    5.5497    1.1412   -0.6503 C   0  0  0  0  0  0  0  0  0  0  0  0
    5.4445    5.2834    0.4999 C   0  0  0  0  0  0  0  0  0  0  0  0
    4.2604    5.6845    1.0389 F   0  0  0  0  0  0  0  0  0  0  0  0
    6.3951    5.5781    1.4307 F   0  0  0  0  0  0  0  0  0  0  0  0
    5.6795    6.1213   -0.5483 F   0  0  0  0  0  0  0  0  0  0  0  0
   -0.4039    0.5301    0.1118 C   0  0  0  0  0  0  0  0  0  0  0  0
   -1.0996   -0.7218    0.0954 C   0  0  0  0  0  0  0  0  0  0  0  0
   -2.5008   -0.6445    0.0544 C   0  0  0  0  0  0  0  0  0  0  0  0
   -3.1713    0.5896    0.0339 C   0  0  0  0  0  0  0  0  0  0  0  0
   -2.4600    1.7875    0.0496 C   0  0  0  0  0  0  0  0  0  0  0  0
   -1.0701    1.7629    0.0887 C   0  0  0  0  0  0  0  0  0  0  0  0
   -1.0413   -3.2581    0.0464 C   0  0  0  0  0  0  0  0  0  0  0  0
   -0.5113   -4.2335    1.1113 C   0  0  0  0  0  0  0  0  0  0  0  0
   -0.8043   -3.8509    2.5657 C   0  0  0  0  0  0  0  0  0  0  0  0
   -0.2275   -4.9324    3.4888 C   0  0  0  0  0  0  0  0  0  0  0  0
   -0.4757   -4.6660    4.9623 C   0  0  0  0  0  0  0  0  0  0  0  0
    1.5228   -2.8430   -0.1745 H   0  0  0  0  0  0  0  0  0  0  0  0
    3.4317    3.4329    0.6915 H   0  0  0  0  0  0  0  0  0  0  0  0
    7.5156    3.9073   -0.6192 H   0  0  0  0  0  0  0  0  0  0  0  0
    7.5768    1.5189   -1.2669 H   0  0  0  0  0  0  0  0  0  0  0  0
    5.6227    0.1033   -0.9647 H   0  0  0  0  0  0  0  0  0  0  0  0
   -3.1278   -1.5280    0.0263 H   0  0  0  0  0  0  0  0  0  0  0  0
   -4.2584    0.6098   -0.0008 H   0  0  0  0  0  0  0  0  0  0  0  0
   -2.9912    2.7359    0.0254 H   0  0  0  0  0  0  0  0  0  0  0  0
   -0.5119    2.6960    0.0824 H   0  0  0  0  0  0  0  0  0  0  0  0
   -0.8369   -3.7000   -0.9392 H   0  0  0  0  0  0  0  0  0  0  0  0
   -2.1268   -3.2155    0.1340 H   0  0  0  0  0  0  0  0  0  0  0  0
    0.5694   -4.3757    0.9987 H   0  0  0  0  0  0  0  0  0  0  0  0
   -0.9609   -5.2152    0.9132 H   0  0  0  0  0  0  0  0  0  0  0  0
   -1.8860   -3.7617    2.7207 H   0  0  0  0  0  0  0  0  0  0  0  0
   -0.3565   -2.8796    2.8083 H   0  0  0  0  0  0  0  0  0  0  0  0
    0.8538   -5.0144    3.3239 H   0  0  0  0  0  0  0  0  0  0  0  0
   -0.6639   -5.9045    3.2290 H   0  0  0  0  0  0  0  0  0  0  0  0
   -0.0114   -3.7275    5.2790 H   0  0  0  0  0  0  0  0  0  0  0  0
   -0.0436   -5.4750    5.5618 H   0  0  0  0  0  0  0  0  0  0  0  0
   -1.5465   -4.6198    5.1812 H   0  0  0  0  0  0  0  0  0  0  0  0
  1 20  1  0  0  0  0
  1  2  1  0  0  0  0
  1 25  1  0  0  0  0
  2  3  2  0  0  0  0
  2 30  1  0  0  0  0
  3  7  1  0  0  0  0
  3  4  1  0  0  0  0
  4  5  2  0  0  0  0
  4 19  1  0  0  0  0
  5  6  1  0  0  0  0
  6  7  1  0  0  0  0
  6  9  1  0  0  0  0
  7  8  2  0  0  0  0
  9 14  2  0  0  0  0
  9 10  1  0  0  0  0
 10 11  2  0  0  0  0
 10 31  1  0  0  0  0
 11 12  1  0  0  0  0
 11 15  1  0  0  0  0
 12 13  2  0  0  0  0
 12 32  1  0  0  0  0
 13 14  1  0  0  0  0
 13 33  1  0  0  0  0
 14 34  1  0  0  0  0
 15 16  1  0  0  0  0
 15 17  1  0  0  0  0
 15 18  1  0  0  0  0
 19 24  2  0  0  0  0
 19 20  1  0  0  0  0
 20 21  2  0  0  0  0
 21 22  1  0  0  0  0
 21 35  1  0  0  0  0
 22 23  2  0  0  0  0
 22 36  1  0  0  0  0
 23 24  1  0  0  0  0
 23 37  1  0  0  0  0
 24 38  1  0  0  0  0
 25 26  1  0  0  0  0
 25 39  1  0  0  0  0
 25 40  1  0  0  0  0
 26 27  1  0  0  0  0
 26 41  1  0  0  0  0
 26 42  1  0  0  0  0
 27 28  1  0  0  0  0
 27 43  1  0  0  0  0
 27 44  1  0  0  0  0
 28 29  1  0  0  0  0
 28 45  1  0  0  0  0
 28 46  1  0  0  0  0
 29 47  1  0  0  0  0
 29 48  1  0  0  0  0
 29 49  1  0  0  0  0
M  END
$$$$
CHEMBL3422790_8GUT
 OpenBabel12022418123D

 54 57  0  0  1  0  0  0  0  0999 V2000
   12.1263    2.2287   -3.2472 C   0  0  0  0  0  0  0  0  0  0  0  0
   12.7551    3.4085   -3.6312 C   0  0  0  0  0  0  0  0  0  0  0  0
   12.1159    4.5982   -3.3425 C   0  0  0  0  0  0  0  0  0  0  0  0
   10.9300    4.6726   -2.7013 N   0  0  0  0  0  0  0  0  0  0  0  0
   10.3394    3.5162   -2.3038 C   0  0  0  0  0  0  0  0  0  0  0  0
   10.9003    2.2585   -2.5649 C   0  0  0  0  0  0  0  0  0  0  0  0
   10.1711    1.0419   -2.1705 C   0  0  0  0  0  0  0  0  0  0  0  0
    9.1202    1.1076   -1.3216 C   0  0  0  0  0  0  0  0  0  0  0  0
    8.8473    2.4738   -0.7157 C   0  0  0  0  0  0  0  0  0  0  0  0
    8.4280    2.5895    0.4361 O   0  0  0  0  0  0  0  0  0  0  0  0
    9.1501    3.5907   -1.5123 N   0  0  0  0  0  0  0  0  0  0  0  0
    8.6951    4.9483   -1.1329 C   0  0  0  0  0  0  0  0  0  0  0  0
    7.1929    5.1076   -0.9372 C   0  0  0  0  0  0  0  0  0  0  0  0
    6.3157    5.1952   -2.0335 C   0  0  0  0  0  0  0  0  0  0  0  0
    4.9271    5.2290   -1.8522 C   0  0  0  0  0  0  0  0  0  0  0  0
    4.3953    5.1972   -0.5583 C   0  0  0  0  0  0  0  0  0  0  0  0
    5.2480    5.2026    0.5391 C   0  0  0  0  0  0  0  0  0  0  0  0
    6.6300    5.1673    0.3575 C   0  0  0  0  0  0  0  0  0  0  0  0
    3.0661    5.1704   -0.3843 F   0  0  0  0  0  0  0  0  0  0  0  0
    8.3269   -0.1448   -0.9099 C   0  0  0  0  0  0  0  0  0  0  0  0
    7.5859   -0.1454    0.0670 O   0  0  0  0  0  0  0  0  0  0  0  0
    8.4616   -1.2625   -1.7190 N   0  0  0  0  0  0  0  0  0  0  0  0
    7.8585   -2.6135   -1.5108 C   0  0  1  0  0  0  0  0  0  0  0  0
    7.6768   -3.3149   -2.8801 C   0  0  0  0  0  0  0  0  0  0  0  0
    7.5333   -4.8490   -2.8717 C   0  0  0  0  0  0  0  0  0  0  0  0
    8.6111   -5.5231   -2.0181 C   0  0  1  0  0  0  0  0  0  0  0  0
    8.4924   -4.9824   -0.5877 C   0  0  0  0  0  0  0  0  0  0  0  0
    8.7064   -3.4554   -0.5301 C   0  0  0  0  0  0  0  0  0  0  0  0
    8.5907   -7.0546   -2.1005 C   0  0  0  0  0  0  0  0  0  0  0  0
   10.5930   -0.1511   -2.7287 O   0  0  0  0  0  0  0  0  0  0  0  0
   12.6317    1.2970   -3.4907 H   0  0  0  0  0  0  0  0  0  0  0  0
   13.7099    3.3966   -4.1449 H   0  0  0  0  0  0  0  0  0  0  0  0
   12.5644    5.5505   -3.6215 H   0  0  0  0  0  0  0  0  0  0  0  0
    8.9638    5.6735   -1.9120 H   0  0  0  0  0  0  0  0  0  0  0  0
    9.2288    5.2501   -0.2200 H   0  0  0  0  0  0  0  0  0  0  0  0
    6.7145    5.2328   -3.0504 H   0  0  0  0  0  0  0  0  0  0  0  0
    4.2538    5.2595   -2.6984 H   0  0  0  0  0  0  0  0  0  0  0  0
    4.8232    5.2094    1.5401 H   0  0  0  0  0  0  0  0  0  0  0  0
    7.2840    5.1547    1.2319 H   0  0  0  0  0  0  0  0  0  0  0  0
    9.1618   -1.1882   -2.4510 H   0  0  0  0  0  0  0  0  0  0  0  0
    6.8692   -2.4597   -1.0628 H   0  0  0  0  0  0  0  0  0  0  0  0
    8.5330   -3.0706   -3.5247 H   0  0  0  0  0  0  0  0  0  0  0  0
    6.8004   -2.8828   -3.3807 H   0  0  0  0  0  0  0  0  0  0  0  0
    7.6061   -5.2098   -3.9060 H   0  0  0  0  0  0  0  0  0  0  0  0
    6.5332   -5.1279   -2.5161 H   0  0  0  0  0  0  0  0  0  0  0  0
    9.5942   -5.2249   -2.4162 H   0  0  0  0  0  0  0  0  0  0  0  0
    9.2415   -5.4636    0.0523 H   0  0  0  0  0  0  0  0  0  0  0  0
    7.5099   -5.2370   -0.1678 H   0  0  0  0  0  0  0  0  0  0  0  0
    8.5042   -3.1108    0.4913 H   0  0  0  0  0  0  0  0  0  0  0  0
    9.7680   -3.2561   -0.7131 H   0  0  0  0  0  0  0  0  0  0  0  0
    7.7097   -7.5156   -1.6360 H   0  0  0  0  0  0  0  0  0  0  0  0
    9.4776   -7.4831   -1.6092 H   0  0  0  0  0  0  0  0  0  0  0  0
    8.6278   -7.3981   -3.1459 H   0  0  0  0  0  0  0  0  0  0  0  0
   11.5634   -0.1916   -2.6807 H   0  0  0  0  0  0  0  0  0  0  0  0
  1  6  2  0  0  0  0
  1  2  1  0  0  0  0
  1 31  1  0  0  0  0
  2  3  2  0  0  0  0
  2 32  1  0  0  0  0
  3  4  1  0  0  0  0
  3 33  1  0  0  0  0
  4  5  2  0  0  0  0
  5 11  1  0  0  0  0
  5  6  1  0  0  0  0
  6  7  1  0  0  0  0
  7  8  2  0  0  0  0
  7 30  1  0  0  0  0
  8  9  1  0  0  0  0
  8 20  1  0  0  0  0
  9 10  2  0  0  0  0
  9 11  1  0  0  0  0
 11 12  1  0  0  0  0
 12 13  1  0  0  0  0
 12 34  1  0  0  0  0
 12 35  1  0  0  0  0
 13 18  2  0  0  0  0
 13 14  1  0  0  0  0
 14 15  2  0  0  0  0
 14 36  1  0  0  0  0
 15 16  1  0  0  0  0
 15 37  1  0  0  0  0
 16 17  2  0  0  0  0
 16 19  1  0  0  0  0
 17 18  1  0  0  0  0
 17 38  1  0  0  0  0
 18 39  1  0  0  0  0
 20 21  2  0  0  0  0
 20 22  1  0  0  0  0
 22 40  1  0  0  0  0
 23 24  1  0  0  0  0
 23 28  1  0  0  0  0
 23 22  1  0  0  0  0
 23 41  1  1  0  0  0
 24 25  1  0  0  0  0
 24 42  1  0  0  0  0
 24 43  1  0  0  0  0
 25 26  1  0  0  0  0
 25 44  1  0  0  0  0
 25 45  1  0  0  0  0
 26 27  1  0  0  0  0
 26 29  1  0  0  0  0
 26 46  1  6  0  0  0
 27 28  1  0  0  0  0
 27 47  1  0  0  0  0
 27 48  1  0  0  0  0
 28 49  1  0  0  0  0
 28 50  1  0  0  0  0
 29 51  1  0  0  0  0
 29 52  1  0  0  0  0
 29 53  1  0  0  0  0
 30 54  1  0  0  0  0
M  END
$$$$
CHEMBL2163950_6PT0
 OpenBabel12022418123D

 56 60  0  0  1  0  0  0  0  0999 V2000
    2.5073    0.9294   -1.0233 O   0  0  0  0  0  0  0  0  0  0  0  0
    2.2376    0.1785   -0.0892 C   0  0  0  0  0  0  0  0  0  0  0  0
    2.9486    0.2780    1.2235 C   0  0  0  0  0  0  0  0  0  0  0  0
    3.9854    1.1244    1.3503 C   0  0  0  0  0  0  0  0  0  0  0  0
    4.7695    1.3047    2.4843 N   0  0  0  0  0  0  0  0  0  0  0  0
    4.4680    0.5878    3.6537 C   0  0  0  0  0  0  0  0  0  0  0  0
    5.2225    0.7038    4.8257 C   0  0  0  0  0  0  0  0  0  0  0  0
    6.3835    1.4190    4.9094 O   0  0  0  0  0  0  0  0  0  0  0  0
    6.5253    2.4440    3.9263 C   0  0  0  0  0  0  0  0  0  0  0  0
    5.9719    2.1569    2.5128 C   0  0  1  0  0  0  0  0  0  0  0  0
    7.0526    1.6306    1.5719 C   0  0  0  0  0  0  0  0  0  0  0  0
    7.5689    0.3339    1.7021 C   0  0  0  0  0  0  0  0  0  0  0  0
    8.5390   -0.1302    0.8136 C   0  0  0  0  0  0  0  0  0  0  0  0
    9.0063    0.6955   -0.2085 C   0  0  0  0  0  0  0  0  0  0  0  0
    8.5103    1.9889   -0.3454 C   0  0  0  0  0  0  0  0  0  0  0  0
    7.5376    2.4537    0.5397 C   0  0  0  0  0  0  0  0  0  0  0  0
    4.8628    0.0085    5.9868 C   0  0  0  0  0  0  0  0  0  0  0  0
    3.7567   -0.8385    5.9912 C   0  0  0  0  0  0  0  0  0  0  0  0
    3.0222   -1.0113    4.8235 C   0  0  0  0  0  0  0  0  0  0  0  0
    3.3777   -0.3035    3.6667 C   0  0  0  0  0  0  0  0  0  0  0  0
    2.6043   -0.5304    2.4205 C   0  0  0  0  0  0  0  0  0  0  0  0
    1.7071   -1.3712    2.3922 O   0  0  0  0  0  0  0  0  0  0  0  0
    1.2816   -0.8091   -0.1698 N   0  0  0  0  0  0  0  0  0  0  0  0
    0.4585   -1.0449   -1.3552 C   0  0  0  0  0  0  0  0  0  0  0  0
    0.1535   -2.5462   -1.5083 C   0  0  0  0  0  0  0  0  0  0  0  0
   -1.2080   -3.0196   -0.9922 C   0  0  0  0  0  0  0  0  0  0  0  0
   -2.3365   -2.8214   -2.0064 C   0  0  0  0  0  0  0  0  0  0  0  0
   -2.8140   -1.3861   -2.1961 C   0  0  0  0  0  0  0  0  0  0  0  0
   -1.7253   -0.3594   -2.4988 C   0  0  0  0  0  0  0  0  0  0  0  0
   -0.7714   -0.1296   -1.3278 C   0  0  0  0  0  0  0  0  0  0  0  0
    4.3016    1.7381    0.5077 H   0  0  0  0  0  0  0  0  0  0  0  0
    7.5993    2.6670    3.8719 H   0  0  0  0  0  0  0  0  0  0  0  0
    6.0558    3.3485    4.3326 H   0  0  0  0  0  0  0  0  0  0  0  0
    5.6708    3.1437    2.1227 H   0  0  0  0  0  0  0  0  0  0  0  0
    7.2093   -0.3264    2.4889 H   0  0  0  0  0  0  0  0  0  0  0  0
    8.9246   -1.1416    0.9135 H   0  0  0  0  0  0  0  0  0  0  0  0
    9.7559    0.3290   -0.9036 H   0  0  0  0  0  0  0  0  0  0  0  0
    8.8725    2.6322   -1.1420 H   0  0  0  0  0  0  0  0  0  0  0  0
    7.1552    3.4663    0.4102 H   0  0  0  0  0  0  0  0  0  0  0  0
    5.4535    0.1271    6.8923 H   0  0  0  0  0  0  0  0  0  0  0  0
    3.4807   -1.3768    6.8947 H   0  0  0  0  0  0  0  0  0  0  0  0
    2.1782   -1.6980    4.8117 H   0  0  0  0  0  0  0  0  0  0  0  0
    1.0708   -1.3342    0.6801 H   0  0  0  0  0  0  0  0  0  0  0  0
    1.0724   -0.7546   -2.2183 H   0  0  0  0  0  0  0  0  0  0  0  0
    0.9364   -3.1279   -1.0040 H   0  0  0  0  0  0  0  0  0  0  0  0
    0.2338   -2.8122   -2.5706 H   0  0  0  0  0  0  0  0  0  0  0  0
   -1.4558   -2.5622   -0.0282 H   0  0  0  0  0  0  0  0  0  0  0  0
   -1.1324   -4.0993   -0.8071 H   0  0  0  0  0  0  0  0  0  0  0  0
   -3.1994   -3.4181   -1.6827 H   0  0  0  0  0  0  0  0  0  0  0  0
   -2.0352   -3.2342   -2.9773 H   0  0  0  0  0  0  0  0  0  0  0  0
   -3.3729   -1.0699   -1.3056 H   0  0  0  0  0  0  0  0  0  0  0  0
   -3.5353   -1.3755   -3.0233 H   0  0  0  0  0  0  0  0  0  0  0  0
   -2.2259    0.5920   -2.7185 H   0  0  0  0  0  0  0  0  0  0  0  0
   -1.1756   -0.6366   -3.4058 H   0  0  0  0  0  0  0  0  0  0  0  0
   -0.4250    0.9114   -1.3617 H   0  0  0  0  0  0  0  0  0  0  0  0
   -1.3048   -0.2251   -0.3729 H   0  0  0  0  0  0  0  0  0  0  0  0
  1  2  2  0  0  0  0
  2  3  1  0  0  0  0
  2 23  1  0  0  0  0
  3 21  1  0  0  0  0
  3  4  2  0  0  0  0
  4  5  1  0  0  0  0
  4 31  1  0  0  0  0
  5 10  1  0  0  0  0
  5  6  1  0  0  0  0
  6 20  2  0  0  0  0
  6  7  1  0  0  0  0
  7  8  1  0  0  0  0
  7 17  2  0  0  0  0
  8  9  1  0  0  0  0
  9 10  1  0  0  0  0
  9 32  1  0  0  0  0
  9 33  1  0  0  0  0
 10 11  1  0  0  0  0
 10 34  1  6  0  0  0
 11 16  2  0  0  0  0
 11 12  1  0  0  0  0
 12 13  2  0  0  0  0
 12 35  1  0  0  0  0
 13 14  1  0  0  0  0
 13 36  1  0  0  0  0
 14 15  2  0  0  0  0
 14 37  1  0  0  0  0
 15 16  1  0  0  0  0
 15 38  1  0  0  0  0
 16 39  1  0  0  0  0
 17 18  1  0  0  0  0
 17 40  1  0  0  0  0
 18 19  2  0  0  0  0
 18 41  1  0  0  0  0
 19 20  1  0  0  0  0
 19 42  1  0  0  0  0
 20 21  1  0  0  0  0
 21 22  2  0  0  0  0
 23 24  1  0  0  0  0
 23 43  1  0  0  0  0
 24 30  1  0  0  0  0
 24 25  1  0  0  0  0
 24 44  1  0  0  0  0
 25 26  1  0  0  0  0
 25 45  1  0  0  0  0
 25 46  1  0  0  0  0
 26 27  1  0  0  0  0
 26 47  1  0  0  0  0
 26 48  1  0  0  0  0
 27 28  1  0  0  0  0
 27 49  1  0  0  0  0
 27 50  1  0  0  0  0
 28 29  1  0  0  0  0
 28 51  1  0  0  0  0
 28 52  1  0  0  0  0
 29 30  1  0  0  0  0
 29 53  1  0  0  0  0
 29 54  1  0  0  0  0
 30 55  1  0  0  0  0
 30 56  1  0  0  0  0
M  END
$$$$
CHEMBL2152800_5ZTY
 OpenBabel12022418123D

 54 57  0  0  1  0  0  0  0  0999 V2000
    7.7779   -7.0978   -1.7665 C   0  0  0  0  0  0  0  0  0  0  0  0
    8.3156   -5.6754   -1.7326 C   0  0  0  0  0  0  0  0  0  0  0  0
    8.2956   -5.0395   -3.0663 N   0  0  0  0  0  0  0  0  0  0  0  0
    7.2939   -4.1343   -3.4101 C   0  0  0  0  0  0  0  0  0  0  0  0
    7.2770   -3.3037   -4.4658 C   0  0  0  0  0  0  0  0  0  0  0  0
    6.1277   -2.3530   -4.6322 C   0  0  0  0  0  0  0  0  0  0  0  0
    5.1820   -2.3404   -3.8508 O   0  0  0  0  0  0  0  0  0  0  0  0
    6.2255   -1.5010   -5.7040 N   0  0  0  0  0  0  0  0  0  0  0  0
    5.2232   -0.5010   -6.0761 C   0  0  2  0  0  0  0  0  0  0  0  0
    4.1425   -1.0286   -7.0939 C   0  0  0  0  0  0  0  0  0  0  0  0
    4.3111   -2.5101   -7.4834 C   0  0  0  0  0  0  0  0  0  0  0  0
    2.7162   -0.8689   -6.5350 C   0  0  0  0  0  0  0  0  0  0  0  0
    4.4043   -0.1230   -8.3478 C   0  0  1  0  0  0  0  0  0  0  0  0
    3.9031    1.3130   -8.1279 C   0  0  0  0  0  0  0  0  0  0  0  0
    4.8415    1.8305   -7.0331 C   0  0  0  0  0  0  0  0  0  0  0  0
    5.8739    0.6826   -6.8698 C   0  0  1  0  0  0  0  0  0  0  0  0
    7.1948    1.1942   -6.3217 C   0  0  0  0  0  0  0  0  0  0  0  0
    5.9203    0.1128   -8.2931 C   0  0  0  0  0  0  0  0  0  0  0  0
    8.4518   -3.3730   -5.3730 C   0  0  0  0  0  0  0  0  0  0  0  0
    8.5319   -2.6626   -6.3740 O   0  0  0  0  0  0  0  0  0  0  0  0
    9.5422   -4.3318   -5.0456 C   0  0  0  0  0  0  0  0  0  0  0  0
   10.6723   -4.3832   -5.8810 C   0  0  0  0  0  0  0  0  0  0  0  0
   11.7037   -5.2719   -5.6012 C   0  0  0  0  0  0  0  0  0  0  0  0
   11.5947   -6.1084   -4.5016 C   0  0  0  0  0  0  0  0  0  0  0  0
   10.4801   -6.0608   -3.6646 C   0  0  0  0  0  0  0  0  0  0  0  0
    9.4317   -5.1554   -3.9018 C   0  0  0  0  0  0  0  0  0  0  0  0
   12.5790   -6.9776   -4.2345 F   0  0  0  0  0  0  0  0  0  0  0  0
    7.7920   -7.5231   -0.7572 H   0  0  0  0  0  0  0  0  0  0  0  0
    8.3770   -7.7478   -2.4105 H   0  0  0  0  0  0  0  0  0  0  0  0
    6.7468   -7.1217   -2.1313 H   0  0  0  0  0  0  0  0  0  0  0  0
    9.3195   -5.6507   -1.2930 H   0  0  0  0  0  0  0  0  0  0  0  0
    7.6958   -5.0918   -1.0392 H   0  0  0  0  0  0  0  0  0  0  0  0
    6.4675   -4.1248   -2.7005 H   0  0  0  0  0  0  0  0  0  0  0  0
    7.0150   -1.6441   -6.3355 H   0  0  0  0  0  0  0  0  0  0  0  0
    4.7589   -0.1344   -5.1526 H   0  0  0  0  0  0  0  0  0  0  0  0
    4.1524   -3.1665   -6.6203 H   0  0  0  0  0  0  0  0  0  0  0  0
    5.3025   -2.7246   -7.8931 H   0  0  0  0  0  0  0  0  0  0  0  0
    3.5765   -2.7946   -8.2457 H   0  0  0  0  0  0  0  0  0  0  0  0
    2.5100   -1.6127   -5.7580 H   0  0  0  0  0  0  0  0  0  0  0  0
    1.9712   -0.9986   -7.3291 H   0  0  0  0  0  0  0  0  0  0  0  0
    2.5520    0.1125   -6.0785 H   0  0  0  0  0  0  0  0  0  0  0  0
    4.0479   -0.5532   -9.2874 H   0  0  0  0  0  0  0  0  0  0  0  0
    2.8476    1.3915   -7.8579 H   0  0  0  0  0  0  0  0  0  0  0  0
    4.0404    1.9033   -9.0432 H   0  0  0  0  0  0  0  0  0  0  0  0
    4.3075    2.0432   -6.1014 H   0  0  0  0  0  0  0  0  0  0  0  0
    5.3150    2.7614   -7.3680 H   0  0  0  0  0  0  0  0  0  0  0  0
    7.0646    1.5878   -5.3077 H   0  0  0  0  0  0  0  0  0  0  0  0
    7.5903    2.0038   -6.9449 H   0  0  0  0  0  0  0  0  0  0  0  0
    7.9600    0.4135   -6.2888 H   0  0  0  0  0  0  0  0  0  0  0  0
    6.2699    0.8372   -9.0374 H   0  0  0  0  0  0  0  0  0  0  0  0
    6.5131   -0.8014   -8.3888 H   0  0  0  0  0  0  0  0  0  0  0  0
   10.7475   -3.7273   -6.7465 H   0  0  0  0  0  0  0  0  0  0  0  0
   12.5878   -5.3199   -6.2317 H   0  0  0  0  0  0  0  0  0  0  0  0
   10.4678   -6.7571   -2.8337 H   0  0  0  0  0  0  0  0  0  0  0  0
  1  2  1  0  0  0  0
  1 28  1  0  0  0  0
  1 29  1  0  0  0  0
  1 30  1  0  0  0  0
  2  3  1  0  0  0  0
  2 31  1  0  0  0  0
  2 32  1  0  0  0  0
  3 26  1  0  0  0  0
  3  4  1  0  0  0  0
  4  5  2  0  0  0  0
  4 33  1  0  0  0  0
  5  6  1  0  0  0  0
  5 19  1  0  0  0  0
  6  7  2  0  0  0  0
  6  8  1  0  0  0  0
  8 34  1  0  0  0  0
  9 10  1  0  0  0  0
  9 16  1  0  0  0  0
  9  8  1  0  0  0  0
  9 35  1  1  0  0  0
 10 11  1  0  0  0  0
 10 12  1  0  0  0  0
 10 13  1  0  0  0  0
 11 36  1  0  0  0  0
 11 37  1  0  0  0  0
 11 38  1  0  0  0  0
 12 39  1  0  0  0  0
 12 40  1  0  0  0  0
 12 41  1  0  0  0  0
 13 14  1  0  0  0  0
 13 18  1  0  0  0  0
 13 42  1  6  0  0  0
 14 15  1  0  0  0  0
 14 43  1  0  0  0  0
 14 44  1  0  0  0  0
 15 16  1  0  0  0  0
 15 45  1  0  0  0  0
 15 46  1  0  0  0  0
 16 17  1  1  0  0  0
 16 18  1  0  0  0  0
 17 47  1  0  0  0  0
 17 48  1  0  0  0  0
 17 49  1  0  0  0  0
 18 50  1  0  0  0  0
 18 51  1  0  0  0  0
 19 20  2  0  0  0  0
 19 21  1  0  0  0  0
 21 26  2  0  0  0  0
 21 22  1  0  0  0  0
 22 23  2  0  0  0  0
 22 52  1  0  0  0  0
 23 24  1  0  0  0  0
 23 53  1  0  0  0  0
 24 25  2  0  0  0  0
 24 27  1  0  0  0  0
 25 26  1  0  0  0  0
 25 54  1  0  0  0  0
M  END
$$$$
CHEMBL575382_5ZTY
 OpenBabel12022418123D

 64 69  0  0  1  0  0  0  0  0999 V2000
    4.7830    3.0330   -2.5845 C   0  0  0  0  0  0  0  0  0  0  0  0
    5.1426    1.5968   -2.1804 C   0  0  2  0  0  0  0  0  0  0  0  0
    3.9567    0.6554   -2.5077 C   0  0  0  0  0  0  0  0  0  0  0  0
    2.6826    1.0942   -1.7361 C   0  0  2  0  0  0  0  0  0  0  0  0
    2.3701    2.5544   -2.1550 C   0  0  0  0  0  0  0  0  0  0  0  0
    3.5317    3.4941   -1.8198 C   0  0  1  0  0  0  0  0  0  0  0  0
    3.7665    3.4316   -0.3030 C   0  0  0  0  0  0  0  0  0  0  0  0
    4.1797    2.0081    0.1097 C   0  0  2  0  0  0  0  0  0  0  0  0
    5.4370    1.5943   -0.6701 C   0  0  0  0  0  0  0  0  0  0  0  0
    3.0366    1.0323   -0.2246 C   0  0  0  0  0  0  0  0  0  0  0  0
    1.4700    0.3120   -2.0186 N   0  0  0  0  0  0  0  0  0  0  0  0
    1.3771   -1.0586   -1.9570 C   0  0  0  0  0  0  0  0  0  0  0  0
    2.3472   -1.8120   -1.9733 O   0  0  0  0  0  0  0  0  0  0  0  0
   -0.0068   -1.5549   -1.7329 C   0  0  0  0  0  0  0  0  0  0  0  0
   -0.4048   -2.9140   -1.5073 C   0  0  0  0  0  0  0  0  0  0  0  0
   -1.5611   -2.7722   -0.7480 C   0  0  0  0  0  0  0  0  0  0  0  0
   -2.0764   -1.5886   -1.2531 N   0  0  0  0  0  0  0  0  0  0  0  0
   -3.4363   -1.2758   -1.5708 C   0  0  0  0  0  0  0  0  0  0  0  0
   -4.4130   -2.2675   -1.4619 C   0  0  0  0  0  0  0  0  0  0  0  0
   -5.7612   -1.9897   -1.6922 C   0  0  0  0  0  0  0  0  0  0  0  0
   -6.1353   -0.7119   -2.1151 C   0  0  0  0  0  0  0  0  0  0  0  0
   -5.1499    0.2563   -2.3290 C   0  0  0  0  0  0  0  0  0  0  0  0
   -3.8012   -0.0213   -2.0545 C   0  0  0  0  0  0  0  0  0  0  0  0
   -7.7828   -0.2821   -2.3907 Cl  0  0  0  0  0  0  0  0  0  0  0  0
   -6.8948   -3.2659   -1.4353 Cl  0  0  0  0  0  0  0  0  0  0  0  0
   -1.0606   -0.7296   -1.5725 N   0  0  0  0  0  0  0  0  0  0  0  0
   -1.6848   -3.0678    0.6360 N   0  0  0  0  0  0  0  0  0  0  0  0
   -2.7606   -3.6483    1.3104 C   0  0  0  0  0  0  0  0  0  0  0  0
   -2.7770   -3.1354    2.5937 C   0  0  0  0  0  0  0  0  0  0  0  0
   -1.4687   -2.6893    2.8423 C   0  0  0  0  0  0  0  0  0  0  0  0
   -0.7791   -2.7196    1.6444 C   0  0  0  0  0  0  0  0  0  0  0  0
    0.6514   -2.3643    1.4364 C   0  0  0  0  0  0  0  0  0  0  0  0
   -3.5454   -4.8209    0.8439 C   0  0  0  0  0  0  0  0  0  0  0  0
    0.3340   -4.1506   -1.8440 C   0  0  0  0  0  0  0  0  0  0  0  0
    5.6230    3.7057   -2.3691 H   0  0  0  0  0  0  0  0  0  0  0  0
    4.6069    3.0815   -3.6663 H   0  0  0  0  0  0  0  0  0  0  0  0
    6.0339    1.2682   -2.7274 H   0  0  0  0  0  0  0  0  0  0  0  0
    4.2485   -0.3667   -2.2414 H   0  0  0  0  0  0  0  0  0  0  0  0
    3.7646    0.6539   -3.5876 H   0  0  0  0  0  0  0  0  0  0  0  0
    2.1649    2.5929   -3.2334 H   0  0  0  0  0  0  0  0  0  0  0  0
    1.4579    2.9078   -1.6579 H   0  0  0  0  0  0  0  0  0  0  0  0
    3.2764    4.5166   -2.1149 H   0  0  0  0  0  0  0  0  0  0  0  0
    4.5404    4.1540   -0.0112 H   0  0  0  0  0  0  0  0  0  0  0  0
    2.8498    3.7176    0.2270 H   0  0  0  0  0  0  0  0  0  0  0  0
    4.3879    1.9845    1.1850 H   0  0  0  0  0  0  0  0  0  0  0  0
    6.2575    2.2914   -0.4486 H   0  0  0  0  0  0  0  0  0  0  0  0
    5.7746    0.6015   -0.3481 H   0  0  0  0  0  0  0  0  0  0  0  0
    3.3453    0.0134    0.0464 H   0  0  0  0  0  0  0  0  0  0  0  0
    2.1576    1.2583    0.3906 H   0  0  0  0  0  0  0  0  0  0  0  0
    0.5762    0.7648   -1.8372 H   0  0  0  0  0  0  0  0  0  0  0  0
   -4.1393   -3.2829   -1.2314 H   0  0  0  0  0  0  0  0  0  0  0  0
   -5.4277    1.2392   -2.7037 H   0  0  0  0  0  0  0  0  0  0  0  0
   -3.0573    0.7537   -2.2293 H   0  0  0  0  0  0  0  0  0  0  0  0
   -3.5442   -3.3055    3.3417 H   0  0  0  0  0  0  0  0  0  0  0  0
   -1.0483   -2.4292    3.8064 H   0  0  0  0  0  0  0  0  0  0  0  0
    1.1382   -3.0212    0.7144 H   0  0  0  0  0  0  0  0  0  0  0  0
    0.7441   -1.3225    1.1161 H   0  0  0  0  0  0  0  0  0  0  0  0
    1.2071   -2.4723    2.3743 H   0  0  0  0  0  0  0  0  0  0  0  0
   -3.7757   -4.8431   -0.2153 H   0  0  0  0  0  0  0  0  0  0  0  0
   -4.4797   -4.9076    1.4108 H   0  0  0  0  0  0  0  0  0  0  0  0
   -2.9570   -5.7221    1.0530 H   0  0  0  0  0  0  0  0  0  0  0  0
    0.1739   -4.3546   -2.9144 H   0  0  0  0  0  0  0  0  0  0  0  0
   -0.0427   -5.0104   -1.2886 H   0  0  0  0  0  0  0  0  0  0  0  0
    1.4080   -4.0658   -1.6800 H   0  0  0  0  0  0  0  0  0  0  0  0
  1  6  1  0  0  0  0
  1 35  1  0  0  0  0
  1 36  1  0  0  0  0
  2  1  1  0  0  0  0
  2  3  1  0  0  0  0
  2  9  1  0  0  0  0
  2 37  1  6  0  0  0
  3  4  1  0  0  0  0
  3 38  1  0  0  0  0
  3 39  1  0  0  0  0
  4 10  1  0  0  0  0
  4  5  1  0  0  0  0
  4 11  1  6  0  0  0
  5 40  1  0  0  0  0
  5 41  1  0  0  0  0
  6  5  1  0  0  0  0
  6  7  1  0  0  0  0
  6 42  1  6  0  0  0
  7 43  1  0  0  0  0
  7 44  1  0  0  0  0
  8  7  1  0  0  0  0
  8  9  1  0  0  0  0
  8 10  1  0  0  0  0
  8 45  1  1  0  0  0
  9 46  1  0  0  0  0
  9 47  1  0  0  0  0
 10 48  1  0  0  0  0
 10 49  1  0  0  0  0
 11 12  1  0  0  0  0
 11 50  1  0  0  0  0
 12 13  2  0  0  0  0
 12 14  1  0  0  0  0
 14 26  2  0  0  0  0
 14 15  1  0  0  0  0
 15 16  2  0  0  0  0
 15 34  1  0  0  0  0
 16 17  1  0  0  0  0
 16 27  1  0  0  0  0
 17 18  1  0  0  0  0
 17 26  1  0  0  0  0
 18 23  2  0  0  0  0
 18 19  1  0  0  0  0
 19 20  2  0  0  0  0
 19 51  1  0  0  0  0
 20 21  1  0  0  0  0
 20 25  1  0  0  0  0
 21 22  2  0  0  0  0
 21 24  1  0  0  0  0
 22 23  1  0  0  0  0
 22 52  1  0  0  0  0
 23 53  1  0  0  0  0
 27 31  1  0  0  0  0
 27 28  1  0  0  0  0
 28 29  2  0  0  0  0
 28 33  1  0  0  0  0
 29 30  1  0  0  0  0
 29 54  1  0  0  0  0
 30 31  2  0  0  0  0
 30 55  1  0  0  0  0
 31 32  1  0  0  0  0
 32 56  1  0  0  0  0
 32 57  1  0  0  0  0
 32 58  1  0  0  0  0
 33 59  1  0  0  0  0
 33 60  1  0  0  0  0
 33 61  1  0  0  0  0
 34 62  1  0  0  0  0
 34 63  1  0  0  0  0
 34 64  1  0  0  0  0
M  END
$$$$
CHEMBL573546_8GUQ
 OpenBabel12022418123D

 56 59  0  0  1  0  0  0  0  0999 V2000
    1.1532    0.4607   -0.0479 C   0  0  0  0  0  0  0  0  0  0  0  0
    2.6216    0.2066   -0.0289 C   0  0  0  0  0  0  0  0  0  0  0  0
    3.6332    1.2206    0.0889 C   0  0  0  0  0  0  0  0  0  0  0  0
    3.4470    2.6953    0.0876 C   0  0  0  0  0  0  0  0  0  0  0  0
    2.3393    3.2207    0.0230 O   0  0  0  0  0  0  0  0  0  0  0  0
    4.6262    3.4210    0.1444 N   0  0  0  0  0  0  0  0  0  0  0  0
    4.6628    4.8801    0.2224 C   0  0  1  0  0  0  0  0  0  0  0  0
    4.4698    5.3481    1.6683 C   0  0  0  0  0  0  0  0  0  0  0  0
    5.9370    5.5067   -0.4182 C   0  0  0  0  0  0  0  0  0  0  0  0
    7.2410    5.1725    0.3305 C   0  0  0  0  0  0  0  0  0  0  0  0
    8.4692    5.7850   -0.3431 C   0  0  0  0  0  0  0  0  0  0  0  0
    8.5641    5.3856   -1.8096 C   0  0  0  0  0  0  0  0  0  0  0  0
    7.2944    5.7642   -2.5622 C   0  0  0  0  0  0  0  0  0  0  0  0
    6.0512    5.1541   -1.9139 C   0  0  0  0  0  0  0  0  0  0  0  0
    4.8520    0.6694    0.2509 N   0  0  0  0  0  0  0  0  0  0  0  0
    4.6672   -0.6643    0.0552 N   0  0  0  0  0  0  0  0  0  0  0  0
    5.8171   -1.4711   -0.1903 C   0  0  0  0  0  0  0  0  0  0  0  0
    5.7754   -2.5417   -1.0943 C   0  0  0  0  0  0  0  0  0  0  0  0
    6.9156   -3.3211   -1.3088 C   0  0  0  0  0  0  0  0  0  0  0  0
    8.1037   -3.0333   -0.6317 C   0  0  0  0  0  0  0  0  0  0  0  0
    8.1525   -1.9555    0.2604 C   0  0  0  0  0  0  0  0  0  0  0  0
    7.0165   -1.1650    0.4683 C   0  0  0  0  0  0  0  0  0  0  0  0
    9.5792   -1.5594    1.1513 Cl  0  0  0  0  0  0  0  0  0  0  0  0
    9.4719   -4.0383   -0.9511 Cl  0  0  0  0  0  0  0  0  0  0  0  0
    3.3232   -0.9922   -0.0012 C   0  0  0  0  0  0  0  0  0  0  0  0
    2.8211   -2.3005    0.0447 N   0  0  0  0  0  0  0  0  0  0  0  0
    3.3795   -3.3785    0.7137 C   0  0  0  0  0  0  0  0  0  0  0  0
    2.6044   -4.5008    0.5207 C   0  0  0  0  0  0  0  0  0  0  0  0
    1.5088   -4.1130   -0.2773 C   0  0  0  0  0  0  0  0  0  0  0  0
    1.6648   -2.7710   -0.5515 C   0  0  0  0  0  0  0  0  0  0  0  0
    0.5615   -0.4439    0.1061 H   0  0  0  0  0  0  0  0  0  0  0  0
    0.8531    0.9080   -0.9998 H   0  0  0  0  0  0  0  0  0  0  0  0
    0.8738    1.1402    0.7638 H   0  0  0  0  0  0  0  0  0  0  0  0
    5.4646    2.8686    0.2965 H   0  0  0  0  0  0  0  0  0  0  0  0
    3.8002    5.2503   -0.3465 H   0  0  0  0  0  0  0  0  0  0  0  0
    5.2477    4.9532    2.3295 H   0  0  0  0  0  0  0  0  0  0  0  0
    3.5075    5.0096    2.0661 H   0  0  0  0  0  0  0  0  0  0  0  0
    4.4894    6.4421    1.7288 H   0  0  0  0  0  0  0  0  0  0  0  0
    5.8126    6.5992   -0.3625 H   0  0  0  0  0  0  0  0  0  0  0  0
    7.3730    4.0867    0.3925 H   0  0  0  0  0  0  0  0  0  0  0  0
    7.1974    5.5513    1.3576 H   0  0  0  0  0  0  0  0  0  0  0  0
    9.3749    5.4664    0.1854 H   0  0  0  0  0  0  0  0  0  0  0  0
    8.4239    6.8786   -0.2642 H   0  0  0  0  0  0  0  0  0  0  0  0
    8.7295    4.3040   -1.8861 H   0  0  0  0  0  0  0  0  0  0  0  0
    9.4294    5.8751   -2.2711 H   0  0  0  0  0  0  0  0  0  0  0  0
    7.3703    5.4278   -3.6025 H   0  0  0  0  0  0  0  0  0  0  0  0
    7.1977    6.8569   -2.5876 H   0  0  0  0  0  0  0  0  0  0  0  0
    5.1625    5.5130   -2.4471 H   0  0  0  0  0  0  0  0  0  0  0  0
    6.0841    4.0659   -2.0441 H   0  0  0  0  0  0  0  0  0  0  0  0
    4.8797   -2.7760   -1.6663 H   0  0  0  0  0  0  0  0  0  0  0  0
    6.8704   -4.1513   -2.0109 H   0  0  0  0  0  0  0  0  0  0  0  0
    7.0602   -0.3371    1.1740 H   0  0  0  0  0  0  0  0  0  0  0  0
    4.2789   -3.2621    1.3020 H   0  0  0  0  0  0  0  0  0  0  0  0
    2.8057   -5.4858    0.9227 H   0  0  0  0  0  0  0  0  0  0  0  0
    0.7019   -4.7426   -0.6241 H   0  0  0  0  0  0  0  0  0  0  0  0
    1.0583   -2.1259   -1.1710 H   0  0  0  0  0  0  0  0  0  0  0  0
  1  2  1  0  0  0  0
  1 31  1  0  0  0  0
  1 32  1  0  0  0  0
  1 33  1  0  0  0  0
  2 25  2  0  0  0  0
  2  3  1  0  0  0  0
  3  4  1  0  0  0  0
  3 15  2  0  0  0  0
  4  5  2  0  0  0  0
  4  6  1  0  0  0  0
  6  7  1  0  0  0  0
  6 34  1  0  0  0  0
  7  8  1  0  0  0  0
  7  9  1  0  0  0  0
  7 35  1  6  0  0  0
  8 36  1  0  0  0  0
  8 37  1  0  0  0  0
  8 38  1  0  0  0  0
  9 14  1  0  0  0  0
  9 10  1  0  0  0  0
  9 39  1  0  0  0  0
 10 11  1  0  0  0  0
 10 40  1  0  0  0  0
 10 41  1  0  0  0  0
 11 12  1  0  0  0  0
 11 42  1  0  0  0  0
 11 43  1  0  0  0  0
 12 13  1  0  0  0  0
 12 44  1  0  0  0  0
 12 45  1  0  0  0  0
 13 14  1  0  0  0  0
 13 46  1  0  0  0  0
 13 47  1  0  0  0  0
 14 48  1  0  0  0  0
 14 49  1  0  0  0  0
 15 16  1  0  0  0  0
 16 17  1  0  0  0  0
 16 25  1  0  0  0  0
 17 22  2  0  0  0  0
 17 18  1  0  0  0  0
 18 19  2  0  0  0  0
 18 50  1  0  0  0  0
 19 20  1  0  0  0  0
 19 51  1  0  0  0  0
 20 21  2  0  0  0  0
 20 24  1  0  0  0  0
 21 22  1  0  0  0  0
 21 23  1  0  0  0  0
 22 52  1  0  0  0  0
 25 26  1  0  0  0  0
 26 30  1  0  0  0  0
 26 27  1  0  0  0  0
 27 28  2  0  0  0  0
 27 53  1  0  0  0  0
 28 29  1  0  0  0  0
 28 54  1  0  0  0  0
 29 30  2  0  0  0  0
 29 55  1  0  0  0  0
 30 56  1  0  0  0  0
M  END
$$$$
CHEMBL3400946_8GUQ
 OpenBabel12022418123D

 51 53  0  0  1  0  0  0  0  0999 V2000
    1.0510   -0.1627    0.1341 C   0  0  0  0  0  0  0  0  0  0  0  0
    2.5787   -0.1446    0.0140 C   0  0  1  0  0  0  0  0  0  0  0  0
    3.1191    0.9911    0.9292 C   0  0  0  0  0  0  0  0  0  0  0  0
    4.4974    0.5017    1.3344 C   0  0  0  0  0  0  0  0  0  0  0  0
    4.2574   -0.9793    1.5686 C   0  0  0  0  0  0  0  0  0  0  0  0
    3.2625   -1.3607    0.5651 N   0  0  0  0  0  0  0  0  0  0  0  0
    2.7298   -2.6294    0.5435 C   0  0  0  0  0  0  0  0  0  0  0  0
    3.0663   -3.5910    1.4996 C   0  0  0  0  0  0  0  0  0  0  0  0
    2.4412   -4.8381    1.5114 C   0  0  0  0  0  0  0  0  0  0  0  0
    1.4901   -5.1360    0.5454 C   0  0  0  0  0  0  0  0  0  0  0  0
    1.2519   -4.1629   -0.4104 C   0  0  0  0  0  0  0  0  0  0  0  0
    1.8599   -2.9463   -0.4426 N   0  0  0  0  0  0  0  0  0  0  0  0
    0.7381   -6.4294    0.5263 C   0  0  0  0  0  0  0  0  0  0  0  0
    1.0918   -7.2747    1.5344 F   0  0  0  0  0  0  0  0  0  0  0  0
   -0.6066   -6.2536    0.6449 F   0  0  0  0  0  0  0  0  0  0  0  0
    0.9253   -7.1246   -0.6275 F   0  0  0  0  0  0  0  0  0  0  0  0
    2.9863    0.1508   -1.4569 C   0  0  0  0  0  0  0  0  0  0  0  0
    3.2271    1.3026   -1.8213 O   0  0  0  0  0  0  0  0  0  0  0  0
    2.9452   -0.9474   -2.2910 N   0  0  0  0  0  0  0  0  0  0  0  0
    3.3348   -0.9145   -3.6171 C   0  0  0  0  0  0  0  0  0  0  0  0
    3.2017   -1.9957   -4.5208 C   0  0  0  0  0  0  0  0  0  0  0  0
    3.7081   -1.5324   -5.7161 C   0  0  0  0  0  0  0  0  0  0  0  0
    3.8867   -2.0944   -7.0995 C   0  0  0  0  0  0  0  0  0  0  0  0
    3.2819   -3.5060   -7.1914 C   0  0  0  0  0  0  0  0  0  0  0  0
    3.1852   -1.1924   -8.1334 C   0  0  0  0  0  0  0  0  0  0  0  0
    5.3862   -2.1739   -7.4386 C   0  0  0  0  0  0  0  0  0  0  0  0
    4.1419   -0.2563   -5.5290 O   0  0  0  0  0  0  0  0  0  0  0  0
    3.9051    0.1269   -4.2311 N   0  0  0  0  0  0  0  0  0  0  0  0
    0.7336   -0.4061    1.1546 H   0  0  0  0  0  0  0  0  0  0  0  0
    0.5771   -0.8762   -0.5455 H   0  0  0  0  0  0  0  0  0  0  0  0
    0.6351    0.8189   -0.1224 H   0  0  0  0  0  0  0  0  0  0  0  0
    2.4990    1.0965    1.8290 H   0  0  0  0  0  0  0  0  0  0  0  0
    3.1694    1.9750    0.4539 H   0  0  0  0  0  0  0  0  0  0  0  0
    4.8755    1.0037    2.2293 H   0  0  0  0  0  0  0  0  0  0  0  0
    5.2181    0.6528    0.5231 H   0  0  0  0  0  0  0  0  0  0  0  0
    3.8600   -1.1230    2.5806 H   0  0  0  0  0  0  0  0  0  0  0  0
    5.1890   -1.5458    1.4610 H   0  0  0  0  0  0  0  0  0  0  0  0
    3.7900   -3.3837    2.2805 H   0  0  0  0  0  0  0  0  0  0  0  0
    2.6928   -5.5564    2.2892 H   0  0  0  0  0  0  0  0  0  0  0  0
    0.5213   -4.3238   -1.2038 H   0  0  0  0  0  0  0  0  0  0  0  0
    2.6296   -1.8269   -1.8885 H   0  0  0  0  0  0  0  0  0  0  0  0
    2.7764   -2.9691   -4.3303 H   0  0  0  0  0  0  0  0  0  0  0  0
    2.2036   -3.4904   -6.9922 H   0  0  0  0  0  0  0  0  0  0  0  0
    3.7421   -4.1862   -6.4651 H   0  0  0  0  0  0  0  0  0  0  0  0
    3.4286   -3.9375   -8.1879 H   0  0  0  0  0  0  0  0  0  0  0  0
    2.1101   -1.1164   -7.9324 H   0  0  0  0  0  0  0  0  0  0  0  0
    3.3084   -1.5853   -9.1495 H   0  0  0  0  0  0  0  0  0  0  0  0
    3.5914   -0.1738   -8.1254 H   0  0  0  0  0  0  0  0  0  0  0  0
    5.9272   -2.7892   -6.7102 H   0  0  0  0  0  0  0  0  0  0  0  0
    5.8524   -1.1812   -7.4393 H   0  0  0  0  0  0  0  0  0  0  0  0
    5.5455   -2.6119   -8.4308 H   0  0  0  0  0  0  0  0  0  0  0  0
  1 29  1  0  0  0  0
  1 30  1  0  0  0  0
  1 31  1  0  0  0  0
  2  1  1  0  0  0  0
  2  6  1  0  0  0  0
  2  3  1  0  0  0  0
  2 17  1  6  0  0  0
  3  4  1  0  0  0  0
  3 32  1  0  0  0  0
  3 33  1  0  0  0  0
  4  5  1  0  0  0  0
  4 34  1  0  0  0  0
  4 35  1  0  0  0  0
  5  6  1  0  0  0  0
  5 36  1  0  0  0  0
  5 37  1  0  0  0  0
  6  7  1  0  0  0  0
  7 12  2  0  0  0  0
  7  8  1  0  0  0  0
  8  9  2  0  0  0  0
  8 38  1  0  0  0  0
  9 10  1  0  0  0  0
  9 39  1  0  0  0  0
 10 11  2  0  0  0  0
 10 13  1  0  0  0  0
 11 12  1  0  0  0  0
 11 40  1  0  0  0  0
 13 14  1  0  0  0  0
 13 15  1  0  0  0  0
 13 16  1  0  0  0  0
 17 18  2  0  0  0  0
 17 19  1  0  0  0  0
 19 20  1  0  0  0  0
 19 41  1  0  0  0  0
 20 28  2  0  0  0  0
 20 21  1  0  0  0  0
 21 22  2  0  0  0  0
 21 42  1  0  0  0  0
 22 23  1  0  0  0  0
 22 27  1  0  0  0  0
 23 24  1  0  0  0  0
 23 25  1  0  0  0  0
 23 26  1  0  0  0  0
 24 43  1  0  0  0  0
 24 44  1  0  0  0  0
 24 45  1  0  0  0  0
 25 46  1  0  0  0  0
 25 47  1  0  0  0  0
 25 48  1  0  0  0  0
 26 49  1  0  0  0  0
 26 50  1  0  0  0  0
 26 51  1  0  0  0  0
 27 28  1  0  0  0  0
M  END
$$$$
CHEMBL2381802_5ZTY
 OpenBabel12022418123D

 53 55  0  0  0  0  0  0  0  0999 V2000
    1.1164    0.0503    0.0172 C   0  0  0  0  0  0  0  0  0  0  0  0
    0.5602    0.0127    1.4436 C   0  0  0  0  0  0  0  0  0  0  0  0
   -0.9734   -0.0110    1.4547 C   0  0  0  0  0  0  0  0  0  0  0  0
   -1.5179   -0.0319    2.8848 C   0  0  0  0  0  0  0  0  0  0  0  0
   -3.0387   -0.0470    2.9168 C   0  0  0  0  0  0  0  0  0  0  0  0
    2.5918   -0.0022    0.0176 N   0  0  0  0  0  0  0  0  0  0  0  0
    3.3790    1.1465   -0.0274 C   0  0  0  0  0  0  0  0  0  0  0  0
    4.7275    1.1706   -0.0662 C   0  0  0  0  0  0  0  0  0  0  0  0
    5.4473   -0.1308   -0.0474 C   0  0  0  0  0  0  0  0  0  0  0  0
    6.6693   -0.2421   -0.0809 O   0  0  0  0  0  0  0  0  0  0  0  0
    4.6020   -1.2555    0.0025 N   0  0  0  0  0  0  0  0  0  0  0  0
    3.2158   -1.2163    0.0321 C   0  0  0  0  0  0  0  0  0  0  0  0
    2.7934   -2.5235    0.0632 C   0  0  0  0  0  0  0  0  0  0  0  0
    3.9760   -3.2958    0.0416 C   0  0  0  0  0  0  0  0  0  0  0  0
    4.0886   -4.7749    0.0426 C   0  0  0  0  0  0  0  0  0  0  0  0
    5.0761   -2.5332    0.0116 N   0  0  0  0  0  0  0  0  0  0  0  0
    5.4080    2.4974   -0.1370 C   0  0  0  0  0  0  0  0  0  0  0  0
    4.7492    3.5350   -0.1906 O   0  0  0  0  0  0  0  0  0  0  0  0
    6.7835    2.4921   -0.1401 N   0  0  0  0  0  0  0  0  0  0  0  0
    7.5560    3.7226   -0.2855 C   0  0  0  0  0  0  0  0  0  0  0  0
    8.9043    3.6368    0.4409 C   0  0  0  0  0  0  0  0  0  0  0  0
    9.6932    4.9411    0.3006 C   0  0  0  0  0  0  0  0  0  0  0  0
    9.8733    5.3491   -1.1594 C   0  0  0  0  0  0  0  0  0  0  0  0
    8.5422    5.3889   -1.9069 C   0  0  0  0  0  0  0  0  0  0  0  0
    7.7741    4.0749   -1.7637 C   0  0  0  0  0  0  0  0  0  0  0  0
    0.7764    0.9663   -0.4863 H   0  0  0  0  0  0  0  0  0  0  0  0
    0.7041   -0.7792   -0.5724 H   0  0  0  0  0  0  0  0  0  0  0  0
    0.9189    0.8867    2.0003 H   0  0  0  0  0  0  0  0  0  0  0  0
    0.9365   -0.8728    1.9709 H   0  0  0  0  0  0  0  0  0  0  0  0
   -1.3325   -0.8958    0.9141 H   0  0  0  0  0  0  0  0  0  0  0  0
   -1.3605    0.8687    0.9264 H   0  0  0  0  0  0  0  0  0  0  0  0
   -1.1588    0.8483    3.4305 H   0  0  0  0  0  0  0  0  0  0  0  0
   -1.1415   -0.9161    3.4122 H   0  0  0  0  0  0  0  0  0  0  0  0
   -3.4523    0.8401    2.4267 H   0  0  0  0  0  0  0  0  0  0  0  0
   -3.3943   -0.0575    3.9524 H   0  0  0  0  0  0  0  0  0  0  0  0
   -3.4353   -0.9351    2.4145 H   0  0  0  0  0  0  0  0  0  0  0  0
    2.8003    2.0690   -0.0388 H   0  0  0  0  0  0  0  0  0  0  0  0
    1.7744   -2.8845    0.0895 H   0  0  0  0  0  0  0  0  0  0  0  0
    3.0990   -5.2445    0.0461 H   0  0  0  0  0  0  0  0  0  0  0  0
    4.6294   -5.1207    0.9290 H   0  0  0  0  0  0  0  0  0  0  0  0
    4.6210   -5.1208   -0.8492 H   0  0  0  0  0  0  0  0  0  0  0  0
    7.2722    1.5965   -0.1792 H   0  0  0  0  0  0  0  0  0  0  0  0
    6.9739    4.5309    0.1759 H   0  0  0  0  0  0  0  0  0  0  0  0
    9.4985    2.8061    0.0387 H   0  0  0  0  0  0  0  0  0  0  0  0
    8.7454    3.4216    1.5043 H   0  0  0  0  0  0  0  0  0  0  0  0
   10.6753    4.8344    0.7752 H   0  0  0  0  0  0  0  0  0  0  0  0
    9.1679    5.7419    0.8365 H   0  0  0  0  0  0  0  0  0  0  0  0
   10.5476    4.6413   -1.6555 H   0  0  0  0  0  0  0  0  0  0  0  0
   10.3528    6.3333   -1.2112 H   0  0  0  0  0  0  0  0  0  0  0  0
    8.7212    5.6022   -2.9667 H   0  0  0  0  0  0  0  0  0  0  0  0
    7.9307    6.2115   -1.5154 H   0  0  0  0  0  0  0  0  0  0  0  0
    6.8129    4.1569   -2.2838 H   0  0  0  0  0  0  0  0  0  0  0  0
    8.3312    3.2702   -2.2618 H   0  0  0  0  0  0  0  0  0  0  0  0
  1  2  1  0  0  0  0
  1  6  1  0  0  0  0
  1 26  1  0  0  0  0
  1 27  1  0  0  0  0
  2  3  1  0  0  0  0
  2 28  1  0  0  0  0
  2 29  1  0  0  0  0
  3  4  1  0  0  0  0
  3 30  1  0  0  0  0
  3 31  1  0  0  0  0
  4  5  1  0  0  0  0
  4 32  1  0  0  0  0
  4 33  1  0  0  0  0
  5 34  1  0  0  0  0
  5 35  1  0  0  0  0
  5 36  1  0  0  0  0
  6 12  1  0  0  0  0
  6  7  1  0  0  0  0
  7  8  2  0  0  0  0
  7 37  1  0  0  0  0
  8  9  1  0  0  0  0
  8 17  1  0  0  0  0
  9 10  2  0  0  0  0
  9 11  1  0  0  0  0
 11 16  1  0  0  0  0
 11 12  1  0  0  0  0
 12 13  2  0  0  0  0
 13 14  1  0  0  0  0
 13 38  1  0  0  0  0
 14 15  1  0  0  0  0
 14 16  2  0  0  0  0
 15 39  1  0  0  0  0
 15 40  1  0  0  0  0
 15 41  1  0  0  0  0
 17 18  2  0  0  0  0
 17 19  1  0  0  0  0
 19 20  1  0  0  0  0
 19 42  1  0  0  0  0
 20 25  1  0  0  0  0
 20 21  1  0  0  0  0
 20 43  1  0  0  0  0
 21 22  1  0  0  0  0
 21 44  1  0  0  0  0
 21 45  1  0  0  0  0
 22 23  1  0  0  0  0
 22 46  1  0  0  0  0
 22 47  1  0  0  0  0
 23 24  1  0  0  0  0
 23 48  1  0  0  0  0
 23 49  1  0  0  0  0
 24 25  1  0  0  0  0
 24 50  1  0  0  0  0
 24 51  1  0  0  0  0
 25 52  1  0  0  0  0
 25 53  1  0  0  0  0
M  END
$$$$
CHEMBL2381672_5ZTY
 OpenBabel12022418123D

 57 60  0  0  0  0  0  0  0  0999 V2000
    1.0782    0.0958   -0.1279 C   0  0  0  0  0  0  0  0  0  0  0  0
    0.5273    0.0889    1.3039 C   0  0  0  0  0  0  0  0  0  0  0  0
   -1.0065    0.0665    1.3368 C   0  0  0  0  0  0  0  0  0  0  0  0
   -1.5237    0.0792    2.7778 C   0  0  0  0  0  0  0  0  0  0  0  0
   -3.0437    0.0663    2.8455 C   0  0  0  0  0  0  0  0  0  0  0  0
    2.5575    0.0583   -0.1336 N   0  0  0  0  0  0  0  0  0  0  0  0
    3.3474    1.2096   -0.1695 C   0  0  0  0  0  0  0  0  0  0  0  0
    4.6986    1.2359   -0.1493 C   0  0  0  0  0  0  0  0  0  0  0  0
    5.4146   -0.0612   -0.0341 C   0  0  0  0  0  0  0  0  0  0  0  0
    6.6329   -0.1731    0.0179 O   0  0  0  0  0  0  0  0  0  0  0  0
    4.5673   -1.1914   -0.0094 N   0  0  0  0  0  0  0  0  0  0  0  0
    3.1861   -1.1533   -0.0971 C   0  0  0  0  0  0  0  0  0  0  0  0
    2.7693   -2.4585   -0.1629 C   0  0  0  0  0  0  0  0  0  0  0  0
    3.9461   -3.2242   -0.0289 C   0  0  0  0  0  0  0  0  0  0  0  0
    3.9686   -4.7149   -0.0241 C   0  0  0  0  0  0  0  0  0  0  0  0
    5.0675   -5.5217    0.1999 C   0  0  0  0  0  0  0  0  0  0  0  0
    4.6149   -6.8612    0.1169 C   0  0  0  0  0  0  0  0  0  0  0  0
    3.2732   -6.7934   -0.1715 C   0  0  0  0  0  0  0  0  0  0  0  0
    2.8679   -5.5004   -0.2453 O   0  0  0  0  0  0  0  0  0  0  0  0
    5.0421   -2.4640    0.0939 N   0  0  0  0  0  0  0  0  0  0  0  0
    5.3921    2.5583   -0.2498 C   0  0  0  0  0  0  0  0  0  0  0  0
    4.7388    3.5957   -0.3654 O   0  0  0  0  0  0  0  0  0  0  0  0
    6.7707    2.5590   -0.2159 N   0  0  0  0  0  0  0  0  0  0  0  0
    7.5464    3.7911   -0.3753 C   0  0  0  0  0  0  0  0  0  0  0  0
    8.8621    3.7610    0.4172 C   0  0  0  0  0  0  0  0  0  0  0  0
    9.6451    5.0693    0.2517 C   0  0  0  0  0  0  0  0  0  0  0  0
    9.8839    5.4159   -1.2163 C   0  0  0  0  0  0  0  0  0  0  0  0
    8.5832    5.4105   -2.0143 C   0  0  0  0  0  0  0  0  0  0  0  0
    7.8323    4.0877   -1.8546 C   0  0  0  0  0  0  0  0  0  0  0  0
    0.7249    0.9867   -0.6600 H   0  0  0  0  0  0  0  0  0  0  0  0
    0.6714   -0.7601   -0.6828 H   0  0  0  0  0  0  0  0  0  0  0  0
    0.8906    0.9752    1.8389 H   0  0  0  0  0  0  0  0  0  0  0  0
    0.9081   -0.7846    1.8481 H   0  0  0  0  0  0  0  0  0  0  0  0
   -1.3765   -0.8294    0.8228 H   0  0  0  0  0  0  0  0  0  0  0  0
   -1.4021    0.9351    0.7964 H   0  0  0  0  0  0  0  0  0  0  0  0
   -1.1533    0.9716    3.2956 H   0  0  0  0  0  0  0  0  0  0  0  0
   -1.1367   -0.7925    3.3186 H   0  0  0  0  0  0  0  0  0  0  0  0
   -3.4677    0.9427    2.3452 H   0  0  0  0  0  0  0  0  0  0  0  0
   -3.3745    0.0797    3.8888 H   0  0  0  0  0  0  0  0  0  0  0  0
   -3.4521   -0.8328    2.3729 H   0  0  0  0  0  0  0  0  0  0  0  0
    2.7675    2.1289   -0.2389 H   0  0  0  0  0  0  0  0  0  0  0  0
    1.7621   -2.8305   -0.2818 H   0  0  0  0  0  0  0  0  0  0  0  0
    6.0700   -5.1726    0.4082 H   0  0  0  0  0  0  0  0  0  0  0  0
    5.1963   -7.7627    0.2450 H   0  0  0  0  0  0  0  0  0  0  0  0
    2.5042   -7.5344   -0.3422 H   0  0  0  0  0  0  0  0  0  0  0  0
    7.2642    1.6645   -0.2147 H   0  0  0  0  0  0  0  0  0  0  0  0
    6.9358    4.6115    0.0242 H   0  0  0  0  0  0  0  0  0  0  0  0
    9.4860    2.9214    0.0848 H   0  0  0  0  0  0  0  0  0  0  0  0
    8.6571    3.5968    1.4816 H   0  0  0  0  0  0  0  0  0  0  0  0
   10.6074    4.9971    0.7715 H   0  0  0  0  0  0  0  0  0  0  0  0
    9.0900    5.8875    0.7277 H   0  0  0  0  0  0  0  0  0  0  0  0
   10.5835    4.6931   -1.6534 H   0  0  0  0  0  0  0  0  0  0  0  0
   10.3589    6.4017   -1.2917 H   0  0  0  0  0  0  0  0  0  0  0  0
    8.7994    5.5917   -3.0732 H   0  0  0  0  0  0  0  0  0  0  0  0
    7.9447    6.2356   -1.6741 H   0  0  0  0  0  0  0  0  0  0  0  0
    6.8974    4.1288   -2.4246 H   0  0  0  0  0  0  0  0  0  0  0  0
    8.4300    3.2757   -2.2898 H   0  0  0  0  0  0  0  0  0  0  0  0
  1  2  1  0  0  0  0
  1  6  1  0  0  0  0
  1 30  1  0  0  0  0
  1 31  1  0  0  0  0
  2  3  1  0  0  0  0
  2 32  1  0  0  0  0
  2 33  1  0  0  0  0
  3  4  1  0  0  0  0
  3 34  1  0  0  0  0
  3 35  1  0  0  0  0
  4  5  1  0  0  0  0
  4 36  1  0  0  0  0
  4 37  1  0  0  0  0
  5 38  1  0  0  0  0
  5 39  1  0  0  0  0
  5 40  1  0  0  0  0
  6 12  1  0  0  0  0
  6  7  1  0  0  0  0
  7  8  2  0  0  0  0
  7 41  1  0  0  0  0
  8  9  1  0  0  0  0
  8 21  1  0  0  0  0
  9 10  2  0  0  0  0
  9 11  1  0  0  0  0
 11 20  1  0  0  0  0
 11 12  1  0  0  0  0
 12 13  2  0  0  0  0
 13 14  1  0  0  0  0
 13 42  1  0  0  0  0
 14 15  1  0  0  0  0
 14 20  2  0  0  0  0
 15 19  1  0  0  0  0
 15 16  2  0  0  0  0
 16 17  1  0  0  0  0
 16 43  1  0  0  0  0
 17 18  2  0  0  0  0
 17 44  1  0  0  0  0
 18 19  1  0  0  0  0
 18 45  1  0  0  0  0
 21 22  2  0  0  0  0
 21 23  1  0  0  0  0
 23 24  1  0  0  0  0
 23 46  1  0  0  0  0
 24 29  1  0  0  0  0
 24 25  1  0  0  0  0
 24 47  1  0  0  0  0
 25 26  1  0  0  0  0
 25 48  1  0  0  0  0
 25 49  1  0  0  0  0
 26 27  1  0  0  0  0
 26 50  1  0  0  0  0
 26 51  1  0  0  0  0
 27 28  1  0  0  0  0
 27 52  1  0  0  0  0
 27 53  1  0  0  0  0
 28 29  1  0  0  0  0
 28 54  1  0  0  0  0
 28 55  1  0  0  0  0
 29 56  1  0  0  0  0
 29 57  1  0  0  0  0
M  END
$$$$
CHEMBL3235059_8GUQ
 OpenBabel12022418123D

 51 53  0  0  1  0  0  0  0  0999 V2000
    1.7920    2.2858    1.0131 C   0  0  0  0  0  0  0  0  0  0  0  0
    0.8711    1.7633   -0.1046 C   0  0  0  0  0  0  0  0  0  0  0  0
    0.2644    0.4163    0.3349 C   0  0  0  0  0  0  0  0  0  0  0  0
   -0.2774    2.7596   -0.3308 C   0  0  0  0  0  0  0  0  0  0  0  0
    1.6923    1.6175   -1.3550 C   0  0  0  0  0  0  0  0  0  0  0  0
    2.0645    2.4644   -2.3770 C   0  0  0  0  0  0  0  0  0  0  0  0
    3.0158    1.7292   -3.1281 C   0  0  0  0  0  0  0  0  0  0  0  0
    3.7231    2.2327   -4.2050 N   0  0  0  0  0  0  0  0  0  0  0  0
    4.9045    1.6632   -4.6392 C   0  0  0  0  0  0  0  0  0  0  0  0
    5.4391    0.6779   -4.1244 O   0  0  0  0  0  0  0  0  0  0  0  0
    5.4790    2.2767   -5.9354 C   0  0  2  0  0  0  0  0  0  0  0  0
    6.8313    1.6268   -6.2525 C   0  0  0  0  0  0  0  0  0  0  0  0
    7.3822    2.1007   -7.5861 C   0  0  0  0  0  0  0  0  0  0  0  0
    7.5009    3.6162   -7.5805 C   0  0  0  0  0  0  0  0  0  0  0  0
    6.1537    4.2817   -7.2887 C   0  0  0  0  0  0  0  0  0  0  0  0
    5.5314    3.7623   -6.0583 N   0  0  0  0  0  0  0  0  0  0  0  0
    5.5479    4.6023   -4.9572 C   0  0  0  0  0  0  0  0  0  0  0  0
    4.9000    5.8384   -5.0399 C   0  0  0  0  0  0  0  0  0  0  0  0
    4.6798    6.5973   -3.8909 C   0  0  0  0  0  0  0  0  0  0  0  0
    5.1380    6.1286   -2.6630 C   0  0  0  0  0  0  0  0  0  0  0  0
    4.8662    6.8399   -1.3738 C   0  0  0  0  0  0  0  0  0  0  0  0
    4.1044    7.9592   -1.5277 F   0  0  0  0  0  0  0  0  0  0  0  0
    4.1901    6.0581   -0.4864 F   0  0  0  0  0  0  0  0  0  0  0  0
    5.9984    7.2418   -0.7376 F   0  0  0  0  0  0  0  0  0  0  0  0
    5.8303    4.9291   -2.6707 C   0  0  0  0  0  0  0  0  0  0  0  0
    6.0177    4.1643   -3.7775 N   0  0  0  0  0  0  0  0  0  0  0  0
    3.1227    0.4890   -2.6462 N   0  0  0  0  0  0  0  0  0  0  0  0
    2.3167    0.4233   -1.5361 O   0  0  0  0  0  0  0  0  0  0  0  0
    1.2336    2.4597    1.9382 H   0  0  0  0  0  0  0  0  0  0  0  0
    2.2717    3.2309    0.7305 H   0  0  0  0  0  0  0  0  0  0  0  0
    2.5940    1.5706    1.2343 H   0  0  0  0  0  0  0  0  0  0  0  0
   -0.3516    0.5354    1.2341 H   0  0  0  0  0  0  0  0  0  0  0  0
    1.0399   -0.3226    0.5702 H   0  0  0  0  0  0  0  0  0  0  0  0
   -0.3693   -0.0121   -0.4503 H   0  0  0  0  0  0  0  0  0  0  0  0
   -0.8744    2.8884    0.5791 H   0  0  0  0  0  0  0  0  0  0  0  0
   -0.9500    2.4145   -1.1251 H   0  0  0  0  0  0  0  0  0  0  0  0
    0.0958    3.7484   -0.6208 H   0  0  0  0  0  0  0  0  0  0  0  0
    1.7626    3.4918   -2.5052 H   0  0  0  0  0  0  0  0  0  0  0  0
    3.5295    3.1761   -4.5099 H   0  0  0  0  0  0  0  0  0  0  0  0
    4.7722    1.9482   -6.7119 H   0  0  0  0  0  0  0  0  0  0  0  0
    6.7212    0.5353   -6.2890 H   0  0  0  0  0  0  0  0  0  0  0  0
    7.5517    1.8446   -5.4539 H   0  0  0  0  0  0  0  0  0  0  0  0
    6.7206    1.7783   -8.3998 H   0  0  0  0  0  0  0  0  0  0  0  0
    8.3605    1.6413   -7.7669 H   0  0  0  0  0  0  0  0  0  0  0  0
    7.8767    3.9534   -8.5534 H   0  0  0  0  0  0  0  0  0  0  0  0
    8.2400    3.9181   -6.8280 H   0  0  0  0  0  0  0  0  0  0  0  0
    5.4683    4.0937   -8.1235 H   0  0  0  0  0  0  0  0  0  0  0  0
    6.3140    5.3662   -7.2567 H   0  0  0  0  0  0  0  0  0  0  0  0
    4.4873    6.1784   -5.9854 H   0  0  0  0  0  0  0  0  0  0  0  0
    4.1194    7.5281   -3.9602 H   0  0  0  0  0  0  0  0  0  0  0  0
    6.2457    4.5081   -1.7565 H   0  0  0  0  0  0  0  0  0  0  0  0
  1  2  1  0  0  0  0
  1 29  1  0  0  0  0
  1 30  1  0  0  0  0
  1 31  1  0  0  0  0
  2  3  1  0  0  0  0
  2  4  1  0  0  0  0
  2  5  1  0  0  0  0
  3 32  1  0  0  0  0
  3 33  1  0  0  0  0
  3 34  1  0  0  0  0
  4 35  1  0  0  0  0
  4 36  1  0  0  0  0
  4 37  1  0  0  0  0
  5 28  1  0  0  0  0
  5  6  2  0  0  0  0
  6  7  1  0  0  0  0
  6 38  1  0  0  0  0
  7  8  1  0  0  0  0
  7 27  2  0  0  0  0
  8  9  1  0  0  0  0
  8 39  1  0  0  0  0
  9 10  2  0  0  0  0
 11  9  1  0  0  0  0
 11 12  1  0  0  0  0
 11 16  1  0  0  0  0
 11 40  1  6  0  0  0
 12 13  1  0  0  0  0
 12 41  1  0  0  0  0
 12 42  1  0  0  0  0
 13 14  1  0  0  0  0
 13 43  1  0  0  0  0
 13 44  1  0  0  0  0
 14 15  1  0  0  0  0
 14 45  1  0  0  0  0
 14 46  1  0  0  0  0
 15 16  1  0  0  0  0
 15 47  1  0  0  0  0
 15 48  1  0  0  0  0
 16 17  1  0  0  0  0
 17 26  2  0  0  0  0
 17 18  1  0  0  0  0
 18 19  2  0  0  0  0
 18 49  1  0  0  0  0
 19 20  1  0  0  0  0
 19 50  1  0  0  0  0
 20 21  1  0  0  0  0
 20 25  2  0  0  0  0
 21 22  1  0  0  0  0
 21 23  1  0  0  0  0
 21 24  1  0  0  0  0
 25 26  1  0  0  0  0
 25 51  1  0  0  0  0
 27 28  1  0  0  0  0
M  END
$$$$
CHEMBL3400944_8GUR
 OpenBabel12022418123D

 52 54  0  0  1  0  0  0  0  0999 V2000
    1.0211   -0.0970    0.0745 C   0  0  0  0  0  0  0  0  0  0  0  0
    2.5517   -0.1159   -0.0938 C   0  0  1  0  0  0  0  0  0  0  0  0
    3.1316    1.0319    0.7648 C   0  0  0  0  0  0  0  0  0  0  0  0
    4.4909    0.5331    1.2175 C   0  0  0  0  0  0  0  0  0  0  0  0
    4.2705   -0.9572    1.4326 C   0  0  0  0  0  0  0  0  0  0  0  0
    3.2362   -1.3313    0.4568 N   0  0  0  0  0  0  0  0  0  0  0  0
    2.7108   -2.6094    0.4099 C   0  0  0  0  0  0  0  0  0  0  0  0
    2.9675   -3.5714    1.4008 C   0  0  0  0  0  0  0  0  0  0  0  0
    2.4382   -4.8654    1.3372 C   0  0  0  0  0  0  0  0  0  0  0  0
    1.6229   -5.2527    0.2685 C   0  0  0  0  0  0  0  0  0  0  0  0
    1.3546   -4.3119   -0.7283 C   0  0  0  0  0  0  0  0  0  0  0  0
    1.9053   -3.0281   -0.6595 C   0  0  0  0  0  0  0  0  0  0  0  0
    1.0518   -6.6407    0.1717 C   0  0  0  0  0  0  0  0  0  0  0  0
    1.4033   -7.4473    1.2109 F   0  0  0  0  0  0  0  0  0  0  0  0
   -0.3095   -6.6453    0.1382 F   0  0  0  0  0  0  0  0  0  0  0  0
    1.4561   -7.2894   -0.9560 F   0  0  0  0  0  0  0  0  0  0  0  0
    2.8987    0.1267   -1.5886 C   0  0  0  0  0  0  0  0  0  0  0  0
    2.1742    0.8585   -2.2745 O   0  0  0  0  0  0  0  0  0  0  0  0
    4.0451   -0.4893   -2.0389 N   0  0  0  0  0  0  0  0  0  0  0  0
    4.5324   -0.3363   -3.3229 C   0  0  0  0  0  0  0  0  0  0  0  0
    5.5090   -1.1612   -3.9254 C   0  0  0  0  0  0  0  0  0  0  0  0
    5.7028   -0.6363   -5.1852 C   0  0  0  0  0  0  0  0  0  0  0  0
    6.6002   -0.9669   -6.3485 C   0  0  0  0  0  0  0  0  0  0  0  0
    7.4266   -2.2253   -6.0288 C   0  0  0  0  0  0  0  0  0  0  0  0
    5.7753   -1.2250   -7.6222 C   0  0  0  0  0  0  0  0  0  0  0  0
    7.5665    0.2035   -6.6089 C   0  0  0  0  0  0  0  0  0  0  0  0
    4.8872    0.4402   -5.3299 O   0  0  0  0  0  0  0  0  0  0  0  0
    4.1631    0.6279   -4.1745 N   0  0  0  0  0  0  0  0  0  0  0  0
    0.7193   -0.2707    1.1106 H   0  0  0  0  0  0  0  0  0  0  0  0
    0.5132   -0.8398   -0.5473 H   0  0  0  0  0  0  0  0  0  0  0  0
    0.6100    0.8690   -0.2420 H   0  0  0  0  0  0  0  0  0  0  0  0
    2.5079    1.2034    1.6521 H   0  0  0  0  0  0  0  0  0  0  0  0
    3.2066    1.9805    0.2246 H   0  0  0  0  0  0  0  0  0  0  0  0
    4.8299    1.0311    2.1322 H   0  0  0  0  0  0  0  0  0  0  0  0
    5.2410    0.7073    0.4400 H   0  0  0  0  0  0  0  0  0  0  0  0
    3.9417   -1.1365    2.4619 H   0  0  0  0  0  0  0  0  0  0  0  0
    5.1998   -1.5071    1.2498 H   0  0  0  0  0  0  0  0  0  0  0  0
    3.5736   -3.3289    2.2702 H   0  0  0  0  0  0  0  0  0  0  0  0
    2.6664   -5.5707    2.1358 H   0  0  0  0  0  0  0  0  0  0  0  0
    0.7190   -4.5689   -1.5734 H   0  0  0  0  0  0  0  0  0  0  0  0
    1.6837   -2.3591   -1.4863 H   0  0  0  0  0  0  0  0  0  0  0  0
    4.4355   -1.2183   -1.4425 H   0  0  0  0  0  0  0  0  0  0  0  0
    6.0004   -2.0290   -3.5067 H   0  0  0  0  0  0  0  0  0  0  0  0
    6.7790   -3.0987   -5.8799 H   0  0  0  0  0  0  0  0  0  0  0  0
    8.0137   -2.0922   -5.1118 H   0  0  0  0  0  0  0  0  0  0  0  0
    8.1263   -2.4625   -6.8373 H   0  0  0  0  0  0  0  0  0  0  0  0
    5.0951   -2.0744   -7.4965 H   0  0  0  0  0  0  0  0  0  0  0  0
    6.4293   -1.4459   -8.4749 H   0  0  0  0  0  0  0  0  0  0  0  0
    5.1666   -0.3545   -7.8961 H   0  0  0  0  0  0  0  0  0  0  0  0
    8.1655    0.4297   -5.7200 H   0  0  0  0  0  0  0  0  0  0  0  0
    7.0279    1.1175   -6.8831 H   0  0  0  0  0  0  0  0  0  0  0  0
    8.2566   -0.0299   -7.4272 H   0  0  0  0  0  0  0  0  0  0  0  0
  1 29  1  0  0  0  0
  1 30  1  0  0  0  0
  1 31  1  0  0  0  0
  2  1  1  0  0  0  0
  2  6  1  0  0  0  0
  2  3  1  0  0  0  0
  2 17  1  6  0  0  0
  3  4  1  0  0  0  0
  3 32  1  0  0  0  0
  3 33  1  0  0  0  0
  4  5  1  0  0  0  0
  4 34  1  0  0  0  0
  4 35  1  0  0  0  0
  5  6  1  0  0  0  0
  5 36  1  0  0  0  0
  5 37  1  0  0  0  0
  6  7  1  0  0  0  0
  7 12  2  0  0  0  0
  7  8  1  0  0  0  0
  8  9  2  0  0  0  0
  8 38  1  0  0  0  0
  9 10  1  0  0  0  0
  9 39  1  0  0  0  0
 10 11  2  0  0  0  0
 10 13  1  0  0  0  0
 11 12  1  0  0  0  0
 11 40  1  0  0  0  0
 12 41  1  0  0  0  0
 13 14  1  0  0  0  0
 13 15  1  0  0  0  0
 13 16  1  0  0  0  0
 17 18  2  0  0  0  0
 17 19  1  0  0  0  0
 19 20  1  0  0  0  0
 19 42  1  0  0  0  0
 20 28  2  0  0  0  0
 20 21  1  0  0  0  0
 21 22  2  0  0  0  0
 21 43  1  0  0  0  0
 22 23  1  0  0  0  0
 22 27  1  0  0  0  0
 23 24  1  0  0  0  0
 23 25  1  0  0  0  0
 23 26  1  0  0  0  0
 24 44  1  0  0  0  0
 24 45  1  0  0  0  0
 24 46  1  0  0  0  0
 25 47  1  0  0  0  0
 25 48  1  0  0  0  0
 25 49  1  0  0  0  0
 26 50  1  0  0  0  0
 26 51  1  0  0  0  0
 26 52  1  0  0  0  0
 27 28  1  0  0  0  0
M  END
$$$$
CHEMBL2163929_5ZTY
 OpenBabel12022418123D

 64 70  0  0  1  0  0  0  0  0999 V2000
    2.4881   -1.2022   -0.5785 O   0  0  0  0  0  0  0  0  0  0  0  0
    2.3881   -0.0825   -0.0656 C   0  0  0  0  0  0  0  0  0  0  0  0
    2.8427    1.1337   -0.8302 C   0  0  0  0  0  0  0  0  0  0  0  0
    3.6168    0.9903   -1.9292 C   0  0  0  0  0  0  0  0  0  0  0  0
    4.2334    2.0194   -2.6459 N   0  0  0  0  0  0  0  0  0  0  0  0
    3.8861    3.3510   -2.3550 C   0  0  0  0  0  0  0  0  0  0  0  0
    4.2998    4.4259   -3.1516 C   0  0  0  0  0  0  0  0  0  0  0  0
    4.9542    4.2391   -4.3396 O   0  0  0  0  0  0  0  0  0  0  0  0
    5.8675    3.1498   -4.2622 C   0  0  0  0  0  0  0  0  0  0  0  0
    5.3246    1.8359   -3.6413 C   0  0  1  0  0  0  0  0  0  0  0  0
    6.5386    1.0208   -3.0964 C   0  0  0  0  0  0  0  0  0  0  0  0
    7.3497    1.6144   -1.9547 C   0  0  0  0  0  0  0  0  0  0  0  0
    8.7268    1.8472   -2.1106 C   0  0  0  0  0  0  0  0  0  0  0  0
    9.4838    2.4087   -1.0742 C   0  0  0  0  0  0  0  0  0  0  0  0
    8.8804    2.7447    0.1343 C   0  0  0  0  0  0  0  0  0  0  0  0
    7.5281    2.4836    0.3197 C   0  0  0  0  0  0  0  0  0  0  0  0
    6.7788    1.9085   -0.7105 C   0  0  0  0  0  0  0  0  0  0  0  0
    3.9787    5.7448   -2.8243 C   0  0  0  0  0  0  0  0  0  0  0  0
    3.1864    6.0121   -1.7091 C   0  0  0  0  0  0  0  0  0  0  0  0
    2.7088    4.9549   -0.9354 C   0  0  0  0  0  0  0  0  0  0  0  0
    3.0613    3.6383   -1.2521 C   0  0  0  0  0  0  0  0  0  0  0  0
    2.5597    2.5271   -0.4025 C   0  0  0  0  0  0  0  0  0  0  0  0
    1.9196    2.7608    0.6201 O   0  0  0  0  0  0  0  0  0  0  0  0
    1.9055    0.1256    1.2149 N   0  0  0  0  0  0  0  0  0  0  0  0
    1.4256   -0.9370    2.1367 C   0  0  1  0  0  0  0  0  0  0  0  0
    0.1378   -1.5944    1.5852 C   0  0  0  0  0  0  0  0  0  0  0  0
   -0.3433   -2.7327    2.5037 C   0  0  2  0  0  0  0  0  0  0  0  0
   -0.6837   -2.1714    3.8923 C   0  0  0  0  0  0  0  0  0  0  0  0
    0.5510   -1.4778    4.4915 C   0  0  1  0  0  0  0  0  0  0  0  0
    1.6563   -2.5297    4.6667 C   0  0  0  0  0  0  0  0  0  0  0  0
    2.0150   -3.1331    3.3000 C   0  0  1  0  0  0  0  0  0  0  0  0
    0.7762   -3.7749    2.6513 C   0  0  0  0  0  0  0  0  0  0  0  0
    2.5220   -2.0150    2.3726 C   0  0  0  0  0  0  0  0  0  0  0  0
    1.0519   -0.3587    3.5400 C   0  0  0  0  0  0  0  0  0  0  0  0
    3.8648    0.0004   -2.3078 H   0  0  0  0  0  0  0  0  0  0  0  0
    6.7723    3.5136   -3.7625 H   0  0  0  0  0  0  0  0  0  0  0  0
    6.1769    2.9356   -5.2951 H   0  0  0  0  0  0  0  0  0  0  0  0
    4.8872    1.2589   -4.4690 H   0  0  0  0  0  0  0  0  0  0  0  0
    7.2198    0.8559   -3.9475 H   0  0  0  0  0  0  0  0  0  0  0  0
    6.2097    0.0129   -2.7894 H   0  0  0  0  0  0  0  0  0  0  0  0
    9.2320    1.5891   -3.0376 H   0  0  0  0  0  0  0  0  0  0  0  0
   10.5485    2.5827   -1.2106 H   0  0  0  0  0  0  0  0  0  0  0  0
    9.4631    3.1938    0.9339 H   0  0  0  0  0  0  0  0  0  0  0  0
    7.0524    2.7200    1.2685 H   0  0  0  0  0  0  0  0  0  0  0  0
    5.7377    1.6909   -0.5064 H   0  0  0  0  0  0  0  0  0  0  0  0
    4.3427    6.5627   -3.4396 H   0  0  0  0  0  0  0  0  0  0  0  0
    2.9263    7.0351   -1.4523 H   0  0  0  0  0  0  0  0  0  0  0  0
    2.0558    5.1586   -0.0874 H   0  0  0  0  0  0  0  0  0  0  0  0
    1.7306    1.0964    1.4812 H   0  0  0  0  0  0  0  0  0  0  0  0
    0.3031   -1.9863    0.5773 H   0  0  0  0  0  0  0  0  0  0  0  0
   -0.6525   -0.8357    1.4952 H   0  0  0  0  0  0  0  0  0  0  0  0
   -1.2319   -3.2012    2.0672 H   0  0  0  0  0  0  0  0  0  0  0  0
   -1.0063   -2.9935    4.5495 H   0  0  0  0  0  0  0  0  0  0  0  0
   -1.5229   -1.4725    3.8298 H   0  0  0  0  0  0  0  0  0  0  0  0
    0.2917   -1.0536    5.4687 H   0  0  0  0  0  0  0  0  0  0  0  0
    1.3251   -3.3194    5.3535 H   0  0  0  0  0  0  0  0  0  0  0  0
    2.5420   -2.0692    5.1217 H   0  0  0  0  0  0  0  0  0  0  0  0
    2.7953   -3.8914    3.4306 H   0  0  0  0  0  0  0  0  0  0  0  0
    1.0395   -4.1785    1.6653 H   0  0  0  0  0  0  0  0  0  0  0  0
    0.4258   -4.6191    3.2567 H   0  0  0  0  0  0  0  0  0  0  0  0
    3.4171   -1.5514    2.8089 H   0  0  0  0  0  0  0  0  0  0  0  0
    2.8393   -2.4708    1.4322 H   0  0  0  0  0  0  0  0  0  0  0  0
    0.2717    0.4075    3.4429 H   0  0  0  0  0  0  0  0  0  0  0  0
    1.9190    0.1405    3.9921 H   0  0  0  0  0  0  0  0  0  0  0  0
  1  2  2  0  0  0  0
  2  3  1  0  0  0  0
  2 24  1  0  0  0  0
  3 22  1  0  0  0  0
  3  4  2  0  0  0  0
  4  5  1  0  0  0  0
  4 35  1  0  0  0  0
  5 10  1  0  0  0  0
  5  6  1  0  0  0  0
  6 21  2  0  0  0  0
  6  7  1  0  0  0  0
  7  8  1  0  0  0  0
  7 18  2  0  0  0  0
  8  9  1  0  0  0  0
  9 10  1  0  0  0  0
  9 36  1  0  0  0  0
  9 37  1  0  0  0  0
 10 11  1  0  0  0  0
 10 38  1  6  0  0  0
 11 12  1  0  0  0  0
 11 39  1  0  0  0  0
 11 40  1  0  0  0  0
 12 17  2  0  0  0  0
 12 13  1  0  0  0  0
 13 14  2  0  0  0  0
 13 41  1  0  0  0  0
 14 15  1  0  0  0  0
 14 42  1  0  0  0  0
 15 16  2  0  0  0  0
 15 43  1  0  0  0  0
 16 17  1  0  0  0  0
 16 44  1  0  0  0  0
 17 45  1  0  0  0  0
 18 19  1  0  0  0  0
 18 46  1  0  0  0  0
 19 20  2  0  0  0  0
 19 47  1  0  0  0  0
 20 21  1  0  0  0  0
 20 48  1  0  0  0  0
 21 22  1  0  0  0  0
 22 23  2  0  0  0  0
 24 49  1  0  0  0  0
 25 24  1  6  0  0  0
 25 33  1  0  0  0  0
 25 34  1  0  0  0  0
 25 26  1  0  0  0  0
 26 50  1  0  0  0  0
 26 51  1  0  0  0  0
 27 26  1  0  0  0  0
 27 28  1  0  0  0  0
 27 32  1  0  0  0  0
 27 52  1  6  0  0  0
 28 53  1  0  0  0  0
 28 54  1  0  0  0  0
 29 28  1  0  0  0  0
 29 30  1  0  0  0  0
 29 34  1  0  0  0  0
 29 55  1  1  0  0  0
 30 56  1  0  0  0  0
 30 57  1  0  0  0  0
 31 30  1  0  0  0  0
 31 32  1  0  0  0  0
 31 33  1  0  0  0  0
 31 58  1  1  0  0  0
 32 59  1  0  0  0  0
 32 60  1  0  0  0  0
 33 61  1  0  0  0  0
 33 62  1  0  0  0  0
 34 63  1  0  0  0  0
 34 64  1  0  0  0  0
M  END
$$$$
CHEMBL3422787_6PT0
 OpenBabel12022418123D

 53 55  0  0  1  0  0  0  0  0999 V2000
    8.9832   -5.9584   -4.2836 C   0  0  0  0  0  0  0  0  0  0  0  0
    9.0501   -7.3437   -4.1984 C   0  0  0  0  0  0  0  0  0  0  0  0
    8.8116   -7.9636   -2.9765 C   0  0  0  0  0  0  0  0  0  0  0  0
    8.5421   -7.1956   -1.8331 C   0  0  0  0  0  0  0  0  0  0  0  0
    8.5023   -5.7922   -1.8934 C   0  0  0  0  0  0  0  0  0  0  0  0
    8.6934   -5.1947   -3.1495 C   0  0  0  0  0  0  0  0  0  0  0  0
    8.5019   -3.7630   -3.3034 C   0  0  0  0  0  0  0  0  0  0  0  0
    8.2567   -2.9594   -2.2599 C   0  0  0  0  0  0  0  0  0  0  0  0
    8.2526   -3.5409   -0.8743 C   0  0  0  0  0  0  0  0  0  0  0  0
    8.1825   -2.7829    0.0959 O   0  0  0  0  0  0  0  0  0  0  0  0
    8.2813   -4.9476   -0.7501 N   0  0  0  0  0  0  0  0  0  0  0  0
    7.9814   -5.5438    0.5627 C   0  0  0  0  0  0  0  0  0  0  0  0
    9.1698   -6.1131    1.3581 C   0  0  0  0  0  0  0  0  0  0  0  0
   10.1311   -5.1033    1.9888 C   0  0  0  0  0  0  0  0  0  0  0  0
    9.5216   -4.2364    3.0812 C   0  0  0  0  0  0  0  0  0  0  0  0
    7.9259   -1.5362   -2.6271 C   0  0  0  0  0  0  0  0  0  0  0  0
    7.7607   -1.2086   -3.8027 O   0  0  0  0  0  0  0  0  0  0  0  0
    7.7870   -0.6273   -1.6134 N   0  0  0  0  0  0  0  0  0  0  0  0
    7.3390    0.7592   -1.8354 C   0  0  1  0  0  0  0  0  0  0  0  0
    6.5536    1.2217   -0.6021 C   0  0  0  0  0  0  0  0  0  0  0  0
    6.3269    2.7259   -0.4985 C   0  0  0  0  0  0  0  0  0  0  0  0
    7.6221    3.5108   -0.7052 C   0  0  1  0  0  0  0  0  0  0  0  0
    8.2072    3.1772   -2.0795 C   0  0  0  0  0  0  0  0  0  0  0  0
    8.5116    1.6815   -2.2168 C   0  0  0  0  0  0  0  0  0  0  0  0
    7.3755    5.0120   -0.5514 C   0  0  0  0  0  0  0  0  0  0  0  0
    9.1306   -5.4834   -5.2533 H   0  0  0  0  0  0  0  0  0  0  0  0
    9.2669   -7.9366   -5.0851 H   0  0  0  0  0  0  0  0  0  0  0  0
    8.8319   -9.0506   -2.9104 H   0  0  0  0  0  0  0  0  0  0  0  0
    8.3564   -7.7369   -0.9116 H   0  0  0  0  0  0  0  0  0  0  0  0
    8.4790   -3.3789   -4.3206 H   0  0  0  0  0  0  0  0  0  0  0  0
    7.2538   -6.3497    0.3998 H   0  0  0  0  0  0  0  0  0  0  0  0
    7.4439   -4.8156    1.1777 H   0  0  0  0  0  0  0  0  0  0  0  0
    9.7587   -6.7859    0.7258 H   0  0  0  0  0  0  0  0  0  0  0  0
    8.7624   -6.7372    2.1662 H   0  0  0  0  0  0  0  0  0  0  0  0
   10.5731   -4.4691    1.2140 H   0  0  0  0  0  0  0  0  0  0  0  0
   10.9578   -5.6661    2.4431 H   0  0  0  0  0  0  0  0  0  0  0  0
    8.6820   -3.6424    2.7141 H   0  0  0  0  0  0  0  0  0  0  0  0
   10.2766   -3.5416    3.4667 H   0  0  0  0  0  0  0  0  0  0  0  0
    9.1743   -4.8445    3.9235 H   0  0  0  0  0  0  0  0  0  0  0  0
    8.0158   -0.9319   -0.6677 H   0  0  0  0  0  0  0  0  0  0  0  0
    6.6459    0.7527   -2.6888 H   0  0  0  0  0  0  0  0  0  0  0  0
    7.0711    0.8904    0.3065 H   0  0  0  0  0  0  0  0  0  0  0  0
    5.5789    0.7163   -0.5956 H   0  0  0  0  0  0  0  0  0  0  0  0
    5.9150    2.9470    0.4941 H   0  0  0  0  0  0  0  0  0  0  0  0
    5.5719    3.0423   -1.2291 H   0  0  0  0  0  0  0  0  0  0  0  0
    8.3423    3.2110    0.0675 H   0  0  0  0  0  0  0  0  0  0  0  0
    9.1302    3.7484   -2.2401 H   0  0  0  0  0  0  0  0  0  0  0  0
    7.5087    3.4871   -2.8682 H   0  0  0  0  0  0  0  0  0  0  0  0
    8.8083    1.4820   -3.2555 H   0  0  0  0  0  0  0  0  0  0  0  0
    9.3875    1.4440   -1.6018 H   0  0  0  0  0  0  0  0  0  0  0  0
    6.7524    5.4042   -1.3619 H   0  0  0  0  0  0  0  0  0  0  0  0
    8.3229    5.5615   -0.5557 H   0  0  0  0  0  0  0  0  0  0  0  0
    6.8717    5.2294    0.3971 H   0  0  0  0  0  0  0  0  0  0  0  0
  1  6  2  0  0  0  0
  1  2  1  0  0  0  0
  1 26  1  0  0  0  0
  2  3  2  0  0  0  0
  2 27  1  0  0  0  0
  3  4  1  0  0  0  0
  3 28  1  0  0  0  0
  4  5  2  0  0  0  0
  4 29  1  0  0  0  0
  5 11  1  0  0  0  0
  5  6  1  0  0  0  0
  6  7  1  0  0  0  0
  7  8  2  0  0  0  0
  7 30  1  0  0  0  0
  8  9  1  0  0  0  0
  8 16  1  0  0  0  0
  9 10  2  0  0  0  0
  9 11  1  0  0  0  0
 11 12  1  0  0  0  0
 12 13  1  0  0  0  0
 12 31  1  0  0  0  0
 12 32  1  0  0  0  0
 13 14  1  0  0  0  0
 13 33  1  0  0  0  0
 13 34  1  0  0  0  0
 14 15  1  0  0  0  0
 14 35  1  0  0  0  0
 14 36  1  0  0  0  0
 15 37  1  0  0  0  0
 15 38  1  0  0  0  0
 15 39  1  0  0  0  0
 16 17  2  0  0  0  0
 16 18  1  0  0  0  0
 18 40  1  0  0  0  0
 19 20  1  0  0  0  0
 19 24  1  0  0  0  0
 19 18  1  0  0  0  0
 19 41  1  6  0  0  0
 20 21  1  0  0  0  0
 20 42  1  0  0  0  0
 20 43  1  0  0  0  0
 21 22  1  0  0  0  0
 21 44  1  0  0  0  0
 21 45  1  0  0  0  0
 22 23  1  0  0  0  0
 22 25  1  0  0  0  0
 22 46  1  1  0  0  0
 23 24  1  0  0  0  0
 23 47  1  0  0  0  0
 23 48  1  0  0  0  0
 24 49  1  0  0  0  0
 24 50  1  0  0  0  0
 25 51  1  0  0  0  0
 25 52  1  0  0  0  0
 25 53  1  0  0  0  0
M  END
$$$$
CHEMBL3354945_8GUQ
 OpenBabel12022418123D

 49 53  0  0  1  0  0  0  0  0999 V2000
    4.3461    1.5632    0.6335 C   0  0  0  0  0  0  0  0  0  0  0  0
    3.2112    1.1165   -0.3223 C   0  0  0  0  0  0  0  0  0  0  0  0
    2.5216   -0.1103    0.3241 C   0  0  0  0  0  0  0  0  0  0  0  0
    2.2317    2.3026   -0.5013 C   0  0  0  0  0  0  0  0  0  0  0  0
    0.8627    2.2166   -0.1809 C   0  0  0  0  0  0  0  0  0  0  0  0
    0.0061    3.3144   -0.3238 C   0  0  0  0  0  0  0  0  0  0  0  0
    0.4980    4.5269   -0.7912 C   0  0  0  0  0  0  0  0  0  0  0  0
    1.8457    4.6422   -1.1180 C   0  0  0  0  0  0  0  0  0  0  0  0
    2.7004    3.5426   -0.9805 C   0  0  0  0  0  0  0  0  0  0  0  0
    3.7529    0.7434   -1.6434 N   0  0  0  0  0  0  0  0  0  0  0  0
    4.6875   -0.2576   -1.8309 C   0  0  0  0  0  0  0  0  0  0  0  0
    5.1830   -0.8979   -0.9111 O   0  0  0  0  0  0  0  0  0  0  0  0
    5.0710   -0.5423   -3.2280 C   0  0  0  0  0  0  0  0  0  0  0  0
    6.0228   -1.5020   -3.6094 C   0  0  0  0  0  0  0  0  0  0  0  0
    6.1157   -1.4204   -4.9652 C   0  0  0  0  0  0  0  0  0  0  0  0
    7.3058   -2.1991   -5.4808 C   0  0  1  0  0  0  0  0  0  0  0  0
    7.9490   -2.7233   -4.1678 C   0  0  1  0  0  0  0  0  0  0  0  0
    7.0433   -2.3691   -2.9733 C   0  0  0  0  0  0  0  0  0  0  0  0
    7.4738   -3.6759   -5.2174 C   0  0  0  0  0  0  0  0  0  0  0  0
    5.2494   -0.4617   -5.3916 N   0  0  0  0  0  0  0  0  0  0  0  0
    4.9717   -0.1146   -6.7325 C   0  0  0  0  0  0  0  0  0  0  0  0
    4.4064    1.1170   -7.0610 C   0  0  0  0  0  0  0  0  0  0  0  0
    4.1657    1.4093   -8.4049 C   0  0  0  0  0  0  0  0  0  0  0  0
    4.4640    0.4497   -9.3603 C   0  0  0  0  0  0  0  0  0  0  0  0
    4.9950   -0.7562   -9.0689 N   0  0  0  0  0  0  0  0  0  0  0  0
    5.2369   -1.0136   -7.7614 C   0  0  0  0  0  0  0  0  0  0  0  0
    4.6120    0.1291   -4.3203 N   0  0  0  0  0  0  0  0  0  0  0  0
    3.9414    1.9314    1.5844 H   0  0  0  0  0  0  0  0  0  0  0  0
    4.9614    2.3602    0.2011 H   0  0  0  0  0  0  0  0  0  0  0  0
    5.0285    0.7424    0.8760 H   0  0  0  0  0  0  0  0  0  0  0  0
    2.1001    0.1377    1.3053 H   0  0  0  0  0  0  0  0  0  0  0  0
    3.2144   -0.9411    0.4890 H   0  0  0  0  0  0  0  0  0  0  0  0
    1.7164   -0.4982   -0.3112 H   0  0  0  0  0  0  0  0  0  0  0  0
    0.4224    1.2980    0.1978 H   0  0  0  0  0  0  0  0  0  0  0  0
   -1.0450    3.2170   -0.0640 H   0  0  0  0  0  0  0  0  0  0  0  0
   -0.1669    5.3792   -0.8988 H   0  0  0  0  0  0  0  0  0  0  0  0
    2.2353    5.5908   -1.4782 H   0  0  0  0  0  0  0  0  0  0  0  0
    3.7483    3.6696   -1.2442 H   0  0  0  0  0  0  0  0  0  0  0  0
    3.3847    1.1758   -2.4841 H   0  0  0  0  0  0  0  0  0  0  0  0
    7.8669   -1.8037   -6.3144 H   0  0  0  0  0  0  0  0  0  0  0  0
    9.0015   -2.5612   -4.0048 H   0  0  0  0  0  0  0  0  0  0  0  0
    6.5979   -3.2711   -2.5415 H   0  0  0  0  0  0  0  0  0  0  0  0
    7.6123   -1.8319   -2.2109 H   0  0  0  0  0  0  0  0  0  0  0  0
    8.2292   -4.2027   -5.7916 H   0  0  0  0  0  0  0  0  0  0  0  0
    6.5882   -4.2718   -5.0318 H   0  0  0  0  0  0  0  0  0  0  0  0
    4.1893    1.8593   -6.2977 H   0  0  0  0  0  0  0  0  0  0  0  0
    3.7524    2.3676   -8.7017 H   0  0  0  0  0  0  0  0  0  0  0  0
    4.2801    0.6282  -10.4150 H   0  0  0  0  0  0  0  0  0  0  0  0
    5.6238   -2.0112   -7.5811 H   0  0  0  0  0  0  0  0  0  0  0  0
  1  2  1  0  0  0  0
  1 28  1  0  0  0  0
  1 29  1  0  0  0  0
  1 30  1  0  0  0  0
  2  3  1  0  0  0  0
  2  4  1  0  0  0  0
  2 10  1  0  0  0  0
  3 31  1  0  0  0  0
  3 32  1  0  0  0  0
  3 33  1  0  0  0  0
  4  9  2  0  0  0  0
  4  5  1  0  0  0  0
  5  6  2  0  0  0  0
  5 34  1  0  0  0  0
  6  7  1  0  0  0  0
  6 35  1  0  0  0  0
  7  8  2  0  0  0  0
  7 36  1  0  0  0  0
  8  9  1  0  0  0  0
  8 37  1  0  0  0  0
  9 38  1  0  0  0  0
 10 11  1  0  0  0  0
 10 39  1  0  0  0  0
 11 12  2  0  0  0  0
 11 13  1  0  0  0  0
 13 27  2  0  0  0  0
 13 14  1  0  0  0  0
 14 18  1  0  0  0  0
 14 15  2  0  0  0  0
 15 16  1  0  0  0  0
 15 20  1  0  0  0  0
 16 17  1  0  0  0  0
 16 19  1  0  0  0  0
 16 40  1  6  0  0  0
 17 18  1  0  0  0  0
 17 19  1  0  0  0  0
 17 41  1  1  0  0  0
 18 42  1  0  0  0  0
 18 43  1  0  0  0  0
 19 44  1  0  0  0  0
 19 45  1  0  0  0  0
 20 21  1  0  0  0  0
 20 27  1  0  0  0  0
 21 26  2  0  0  0  0
 21 22  1  0  0  0  0
 22 23  2  0  0  0  0
 22 46  1  0  0  0  0
 23 24  1  0  0  0  0
 23 47  1  0  0  0  0
 24 25  2  0  0  0  0
 24 48  1  0  0  0  0
 25 26  1  0  0  0  0
 26 49  1  0  0  0  0
M  END
$$$$
CHEMBL3354976_8GUQ
 OpenBabel12022418123D

 42 45  0  0  1  0  0  0  0  0999 V2000
    2.2372    1.3356   -1.8532 C   0  0  0  0  0  0  0  0  0  0  0  0
    3.1506    0.5435   -0.8973 C   0  0  0  0  0  0  0  0  0  0  0  0
    4.2946    1.4838   -0.4657 C   0  0  0  0  0  0  0  0  0  0  0  0
    2.3025    0.1277    0.3461 C   0  0  0  0  0  0  0  0  0  0  0  0
    1.7673    1.2519    1.0455 O   0  0  0  0  0  0  0  0  0  0  0  0
    3.6862   -0.6408   -1.6061 N   0  0  0  0  0  0  0  0  0  0  0  0
    4.5266   -1.5660   -1.0218 C   0  0  0  0  0  0  0  0  0  0  0  0
    4.9395   -1.4435    0.1338 O   0  0  0  0  0  0  0  0  0  0  0  0
    4.9191   -2.7330   -1.8415 C   0  0  0  0  0  0  0  0  0  0  0  0
    5.8268   -3.7207   -1.4365 C   0  0  0  0  0  0  0  0  0  0  0  0
    5.9495   -4.5809   -2.4867 C   0  0  0  0  0  0  0  0  0  0  0  0
    7.0415   -5.5927   -2.2595 C   0  0  1  0  0  0  0  0  0  0  0  0
    7.6288   -5.1358   -0.8986 C   0  0  1  0  0  0  0  0  0  0  0  0
    6.7737   -3.9918   -0.3243 C   0  0  0  0  0  0  0  0  0  0  0  0
    7.0541   -6.5045   -1.0562 C   0  0  0  0  0  0  0  0  0  0  0  0
    5.1506   -4.1429   -3.4911 N   0  0  0  0  0  0  0  0  0  0  0  0
    4.9279   -4.8104   -4.7268 C   0  0  0  0  0  0  0  0  0  0  0  0
    4.0242   -4.2677   -5.6249 C   0  0  0  0  0  0  0  0  0  0  0  0
    3.6592   -4.9004   -6.7702 N   0  0  0  0  0  0  0  0  0  0  0  0
    4.2322   -6.1053   -6.9776 C   0  0  0  0  0  0  0  0  0  0  0  0
    5.1492   -6.6524   -6.0995 C   0  0  0  0  0  0  0  0  0  0  0  0
    5.5335   -6.0153   -4.9652 N   0  0  0  0  0  0  0  0  0  0  0  0
    4.4797   -2.9849   -3.1065 N   0  0  0  0  0  0  0  0  0  0  0  0
    1.8384    2.2389   -1.3749 H   0  0  0  0  0  0  0  0  0  0  0  0
    1.3859    0.7282   -2.1780 H   0  0  0  0  0  0  0  0  0  0  0  0
    2.7795    1.6515   -2.7519 H   0  0  0  0  0  0  0  0  0  0  0  0
    3.9139    2.4012   -0.0006 H   0  0  0  0  0  0  0  0  0  0  0  0
    4.9043    1.7816   -1.3269 H   0  0  0  0  0  0  0  0  0  0  0  0
    4.9631    1.0112    0.2604 H   0  0  0  0  0  0  0  0  0  0  0  0
    2.8756   -0.4653    1.0650 H   0  0  0  0  0  0  0  0  0  0  0  0
    1.4550   -0.4892    0.0282 H   0  0  0  0  0  0  0  0  0  0  0  0
    2.4922    1.6344    1.5701 H   0  0  0  0  0  0  0  0  0  0  0  0
    3.4478   -0.8080   -2.5809 H   0  0  0  0  0  0  0  0  0  0  0  0
    7.6197   -5.9300   -3.1062 H   0  0  0  0  0  0  0  0  0  0  0  0
    8.6949   -4.9968   -0.8058 H   0  0  0  0  0  0  0  0  0  0  0  0
    6.2461   -4.3140    0.5794 H   0  0  0  0  0  0  0  0  0  0  0  0
    7.3924   -3.1179   -0.1078 H   0  0  0  0  0  0  0  0  0  0  0  0
    7.7466   -7.3403   -1.0784 H   0  0  0  0  0  0  0  0  0  0  0  0
    6.1083   -6.7457   -0.5853 H   0  0  0  0  0  0  0  0  0  0  0  0
    3.5341   -3.3166   -5.4457 H   0  0  0  0  0  0  0  0  0  0  0  0
    3.9207   -6.6303   -7.8759 H   0  0  0  0  0  0  0  0  0  0  0  0
    5.5853   -7.6297   -6.2721 H   0  0  0  0  0  0  0  0  0  0  0  0
  1  2  1  0  0  0  0
  1 24  1  0  0  0  0
  1 25  1  0  0  0  0
  1 26  1  0  0  0  0
  2  3  1  0  0  0  0
  2  4  1  0  0  0  0
  2  6  1  0  0  0  0
  3 27  1  0  0  0  0
  3 28  1  0  0  0  0
  3 29  1  0  0  0  0
  4  5  1  0  0  0  0
  4 30  1  0  0  0  0
  4 31  1  0  0  0  0
  5 32  1  0  0  0  0
  6  7  1  0  0  0  0
  6 33  1  0  0  0  0
  7  8  2  0  0  0  0
  7  9  1  0  0  0  0
  9 23  2  0  0  0  0
  9 10  1  0  0  0  0
 10 14  1  0  0  0  0
 10 11  2  0  0  0  0
 11 12  1  0  0  0  0
 11 16  1  0  0  0  0
 12 13  1  0  0  0  0
 12 15  1  0  0  0  0
 12 34  1  6  0  0  0
 13 14  1  0  0  0  0
 13 15  1  0  0  0  0
 13 35  1  1  0  0  0
 14 36  1  0  0  0  0
 14 37  1  0  0  0  0
 15 38  1  0  0  0  0
 15 39  1  0  0  0  0
 16 17  1  0  0  0  0
 16 23  1  0  0  0  0
 17 22  2  0  0  0  0
 17 18  1  0  0  0  0
 18 19  2  0  0  0  0
 18 40  1  0  0  0  0
 19 20  1  0  0  0  0
 20 21  2  0  0  0  0
 20 41  1  0  0  0  0
 21 22  1  0  0  0  0
 21 42  1  0  0  0  0
M  END
$$$$
CHEMBL225622_8GUQ
 OpenBabel12022418123D

 56 60  0  0  0  0  0  0  0  0999 V2000
   -1.2114   -4.3140    1.6942 C   0  0  0  0  0  0  0  0  0  0  0  0
   -1.2152   -3.9447    0.2134 C   0  0  0  0  0  0  0  0  0  0  0  0
    0.1948   -3.9254   -0.3746 C   0  0  0  0  0  0  0  0  0  0  0  0
    1.1417   -3.0296    0.4299 C   0  0  0  0  0  0  0  0  0  0  0  0
    1.1360   -3.4172    1.9155 C   0  0  0  0  0  0  0  0  0  0  0  0
   -0.2811   -3.4053    2.4899 C   0  0  0  0  0  0  0  0  0  0  0  0
    2.4882   -3.0664   -0.1250 N   0  0  0  0  0  0  0  0  0  0  0  0
    3.3565   -1.9987   -0.0212 C   0  0  0  0  0  0  0  0  0  0  0  0
    3.0399   -0.9407    0.5236 O   0  0  0  0  0  0  0  0  0  0  0  0
    4.6974   -2.2304   -0.6037 C   0  0  0  0  0  0  0  0  0  0  0  0
    5.8085   -1.3461   -0.6238 C   0  0  0  0  0  0  0  0  0  0  0  0
    6.8341   -2.0270   -1.2607 C   0  0  0  0  0  0  0  0  0  0  0  0
    8.1609   -1.4774   -1.5926 C   0  0  0  0  0  0  0  0  0  0  0  0
    8.8514   -0.6384   -0.6859 C   0  0  0  0  0  0  0  0  0  0  0  0
    8.3946   -0.3689    0.7382 C   0  0  0  0  0  0  0  0  0  0  0  0
    6.9505    0.0605    1.0591 C   0  0  0  0  0  0  0  0  0  0  0  0
    5.9390    0.0308   -0.0788 C   0  0  0  0  0  0  0  0  0  0  0  0
   10.1101   -0.1228   -1.0660 C   0  0  0  0  0  0  0  0  0  0  0  0
   10.6736   -0.4303   -2.3034 C   0  0  0  0  0  0  0  0  0  0  0  0
    9.9978   -1.2510   -3.1936 C   0  0  0  0  0  0  0  0  0  0  0  0
    8.7389   -1.7462   -2.8502 C   0  0  0  0  0  0  0  0  0  0  0  0
   12.2155    0.2035   -2.7265 Cl  0  0  0  0  0  0  0  0  0  0  0  0
    6.3136   -3.2789   -1.5741 N   0  0  0  0  0  0  0  0  0  0  0  0
    6.9980   -4.4218   -2.0789 C   0  0  0  0  0  0  0  0  0  0  0  0
    6.3793   -5.3297   -2.9542 C   0  0  0  0  0  0  0  0  0  0  0  0
    7.0977   -6.4408   -3.4201 C   0  0  0  0  0  0  0  0  0  0  0  0
    8.4124   -6.6495   -3.0157 C   0  0  0  0  0  0  0  0  0  0  0  0
    9.0358   -5.7566   -2.1513 C   0  0  0  0  0  0  0  0  0  0  0  0
    8.3307   -4.6505   -1.6784 C   0  0  0  0  0  0  0  0  0  0  0  0
    9.2793   -8.0167   -3.5963 Cl  0  0  0  0  0  0  0  0  0  0  0  0
    4.8060   -5.1106   -3.6420 Cl  0  0  0  0  0  0  0  0  0  0  0  0
    5.0100   -3.3912   -1.2054 N   0  0  0  0  0  0  0  0  0  0  0  0
   -2.2294   -4.2460    2.0947 H   0  0  0  0  0  0  0  0  0  0  0  0
   -0.8920   -5.3568    1.8097 H   0  0  0  0  0  0  0  0  0  0  0  0
   -1.6784   -2.9572    0.0870 H   0  0  0  0  0  0  0  0  0  0  0  0
   -1.8358   -4.6571   -0.3407 H   0  0  0  0  0  0  0  0  0  0  0  0
    0.1493   -3.5782   -1.4149 H   0  0  0  0  0  0  0  0  0  0  0  0
    0.5870   -4.9504   -0.4062 H   0  0  0  0  0  0  0  0  0  0  0  0
    0.7832   -1.9950    0.3492 H   0  0  0  0  0  0  0  0  0  0  0  0
    1.7658   -2.7295    2.4922 H   0  0  0  0  0  0  0  0  0  0  0  0
    1.5702   -4.4175    2.0416 H   0  0  0  0  0  0  0  0  0  0  0  0
   -0.2603   -3.7262    3.5377 H   0  0  0  0  0  0  0  0  0  0  0  0
   -0.6732   -2.3809    2.4779 H   0  0  0  0  0  0  0  0  0  0  0  0
    2.8839   -3.9241   -0.4982 H   0  0  0  0  0  0  0  0  0  0  0  0
    9.0406    0.4084    1.1700 H   0  0  0  0  0  0  0  0  0  0  0  0
    8.6270   -1.2723    1.3187 H   0  0  0  0  0  0  0  0  0  0  0  0
    6.9702    1.0751    1.4759 H   0  0  0  0  0  0  0  0  0  0  0  0
    6.5871   -0.5783    1.8768 H   0  0  0  0  0  0  0  0  0  0  0  0
    4.9828    0.4053    0.2944 H   0  0  0  0  0  0  0  0  0  0  0  0
    6.2402    0.7255   -0.8734 H   0  0  0  0  0  0  0  0  0  0  0  0
   10.6675    0.5135   -0.3806 H   0  0  0  0  0  0  0  0  0  0  0  0
   10.4367   -1.5074   -4.1544 H   0  0  0  0  0  0  0  0  0  0  0  0
    8.2214   -2.3620   -3.5833 H   0  0  0  0  0  0  0  0  0  0  0  0
    6.6334   -7.1318   -4.1185 H   0  0  0  0  0  0  0  0  0  0  0  0
   10.0653   -5.9152   -1.8366 H   0  0  0  0  0  0  0  0  0  0  0  0
    8.8365   -3.9897   -0.9778 H   0  0  0  0  0  0  0  0  0  0  0  0
  1  6  1  0  0  0  0
  1  2  1  0  0  0  0
  1 33  1  0  0  0  0
  1 34  1  0  0  0  0
  2  3  1  0  0  0  0
  2 35  1  0  0  0  0
  2 36  1  0  0  0  0
  3  4  1  0  0  0  0
  3 37  1  0  0  0  0
  3 38  1  0  0  0  0
  4  5  1  0  0  0  0
  4  7  1  0  0  0  0
  4 39  1  0  0  0  0
  5  6  1  0  0  0  0
  5 40  1  0  0  0  0
  5 41  1  0  0  0  0
  6 42  1  0  0  0  0
  6 43  1  0  0  0  0
  7  8  1  0  0  0  0
  7 44  1  0  0  0  0
  8  9  2  0  0  0  0
  8 10  1  0  0  0  0
 10 32  2  0  0  0  0
 10 11  1  0  0  0  0
 11 17  1  0  0  0  0
 11 12  2  0  0  0  0
 12 13  1  0  0  0  0
 12 23  1  0  0  0  0
 13 21  2  0  0  0  0
 13 14  1  0  0  0  0
 14 15  1  0  0  0  0
 14 18  2  0  0  0  0
 15 16  1  0  0  0  0
 15 45  1  0  0  0  0
 15 46  1  0  0  0  0
 16 17  1  0  0  0  0
 16 47  1  0  0  0  0
 16 48  1  0  0  0  0
 17 49  1  0  0  0  0
 17 50  1  0  0  0  0
 18 19  1  0  0  0  0
 18 51  1  0  0  0  0
 19 20  2  0  0  0  0
 19 22  1  0  0  0  0
 20 21  1  0  0  0  0
 20 52  1  0  0  0  0
 21 53  1  0  0  0  0
 23 24  1  0  0  0  0
 23 32  1  0  0  0  0
 24 29  2  0  0  0  0
 24 25  1  0  0  0  0
 25 26  2  0  0  0  0
 25 31  1  0  0  0  0
 26 27  1  0  0  0  0
 26 54  1  0  0  0  0
 27 28  2  0  0  0  0
 27 30  1  0  0  0  0
 28 29  1  0  0  0  0
 28 55  1  0  0  0  0
 29 56  1  0  0  0  0
M  END
$$$$
CHEMBL3353863_8GUT
 OpenBabel12022418123D

 46 48  0  0  1  0  0  0  0  0999 V2000
    2.4976   -0.1289    0.0788 C   0  0  0  0  0  0  0  0  0  0  0  0
    1.6943    0.7050    0.8728 C   0  0  0  0  0  0  0  0  0  0  0  0
    0.2987    0.7456    0.7323 C   0  0  0  0  0  0  0  0  0  0  0  0
   -0.3295   -0.0698   -0.1985 C   0  0  0  0  0  0  0  0  0  0  0  0
    0.4274   -0.9180   -0.9927 C   0  0  0  0  0  0  0  0  0  0  0  0
    1.8204   -0.9435   -0.8492 C   0  0  0  0  0  0  0  0  0  0  0  0
   -2.0407   -0.0416   -0.3558 Cl  0  0  0  0  0  0  0  0  0  0  0  0
    3.8748   -0.2184    0.2205 N   0  0  0  0  0  0  0  0  0  0  0  0
    4.6808    0.6157    1.1534 C   0  0  1  0  0  0  0  0  0  0  0  0
    5.2182   -0.2288    2.3327 C   0  0  0  0  0  0  0  0  0  0  0  0
    6.2271    0.1144    2.9458 O   0  0  0  0  0  0  0  0  0  0  0  0
    4.4165   -1.3199    2.6135 N   0  0  0  0  0  0  0  0  0  0  0  0
    4.6647   -2.2366    3.6151 C   0  0  0  0  0  0  0  0  0  0  0  0
    3.8464   -3.3592    3.8983 C   0  0  0  0  0  0  0  0  0  0  0  0
    4.4617   -3.9933    4.9568 C   0  0  0  0  0  0  0  0  0  0  0  0
    4.1835   -5.2130    5.7924 C   0  0  0  0  0  0  0  0  0  0  0  0
    2.8937   -5.9123    5.3304 C   0  0  0  0  0  0  0  0  0  0  0  0
    5.3531   -6.2081    5.6740 C   0  0  0  0  0  0  0  0  0  0  0  0
    4.0195   -4.8047    7.2680 C   0  0  0  0  0  0  0  0  0  0  0  0
    5.5828   -3.2918    5.2801 O   0  0  0  0  0  0  0  0  0  0  0  0
    5.7034   -2.2008    4.4532 N   0  0  0  0  0  0  0  0  0  0  0  0
    5.8244    1.1399    0.2817 C   0  0  0  0  0  0  0  0  0  0  0  0
    6.0871   -0.0167   -0.6672 C   0  0  0  0  0  0  0  0  0  0  0  0
    4.6942   -0.5656   -0.9587 C   0  0  0  0  0  0  0  0  0  0  0  0
    2.1208    1.3637    1.6223 H   0  0  0  0  0  0  0  0  0  0  0  0
   -0.2843    1.4162    1.3587 H   0  0  0  0  0  0  0  0  0  0  0  0
   -0.0503   -1.5680   -1.7204 H   0  0  0  0  0  0  0  0  0  0  0  0
    2.3717   -1.6384   -1.4780 H   0  0  0  0  0  0  0  0  0  0  0  0
    4.1458    1.4650    1.5846 H   0  0  0  0  0  0  0  0  0  0  0  0
    3.6414   -1.4799    1.9819 H   0  0  0  0  0  0  0  0  0  0  0  0
    2.9337   -3.6571    3.4069 H   0  0  0  0  0  0  0  0  0  0  0  0
    2.9743   -6.2554    4.2918 H   0  0  0  0  0  0  0  0  0  0  0  0
    2.0297   -5.2390    5.3894 H   0  0  0  0  0  0  0  0  0  0  0  0
    2.6723   -6.7883    5.9511 H   0  0  0  0  0  0  0  0  0  0  0  0
    5.4932   -6.5370    4.6377 H   0  0  0  0  0  0  0  0  0  0  0  0
    5.1786   -7.0996    6.2874 H   0  0  0  0  0  0  0  0  0  0  0  0
    6.2987   -5.7623    6.0058 H   0  0  0  0  0  0  0  0  0  0  0  0
    3.2037   -4.0833    7.3929 H   0  0  0  0  0  0  0  0  0  0  0  0
    4.9311   -4.3391    7.6621 H   0  0  0  0  0  0  0  0  0  0  0  0
    3.7971   -5.6741    7.8980 H   0  0  0  0  0  0  0  0  0  0  0  0
    6.7219    1.4228    0.8395 H   0  0  0  0  0  0  0  0  0  0  0  0
    5.4873    2.0157   -0.2867 H   0  0  0  0  0  0  0  0  0  0  0  0
    6.7029   -0.7798   -0.1773 H   0  0  0  0  0  0  0  0  0  0  0  0
    6.6042    0.3003   -1.5778 H   0  0  0  0  0  0  0  0  0  0  0  0
    4.3020   -0.0923   -1.8674 H   0  0  0  0  0  0  0  0  0  0  0  0
    4.7322   -1.6505   -1.1055 H   0  0  0  0  0  0  0  0  0  0  0  0
  1  6  2  0  0  0  0
  1  2  1  0  0  0  0
  1  8  1  0  0  0  0
  2  3  2  0  0  0  0
  2 25  1  0  0  0  0
  3  4  1  0  0  0  0
  3 26  1  0  0  0  0
  4  5  2  0  0  0  0
  4  7  1  0  0  0  0
  5  6  1  0  0  0  0
  5 27  1  0  0  0  0
  6 28  1  0  0  0  0
  8 24  1  0  0  0  0
  8  9  1  0  0  0  0
  9 22  1  0  0  0  0
  9 10  1  0  0  0  0
  9 29  1  1  0  0  0
 10 11  2  0  0  0  0
 10 12  1  0  0  0  0
 12 13  1  0  0  0  0
 12 30  1  0  0  0  0
 13 21  2  0  0  0  0
 13 14  1  0  0  0  0
 14 15  2  0  0  0  0
 14 31  1  0  0  0  0
 15 16  1  0  0  0  0
 15 20  1  0  0  0  0
 16 17  1  0  0  0  0
 16 18  1  0  0  0  0
 16 19  1  0  0  0  0
 17 32  1  0  0  0  0
 17 33  1  0  0  0  0
 17 34  1  0  0  0  0
 18 35  1  0  0  0  0
 18 36  1  0  0  0  0
 18 37  1  0  0  0  0
 19 38  1  0  0  0  0
 19 39  1  0  0  0  0
 19 40  1  0  0  0  0
 20 21  1  0  0  0  0
 22 23  1  0  0  0  0
 22 41  1  0  0  0  0
 22 42  1  0  0  0  0
 23 24  1  0  0  0  0
 23 43  1  0  0  0  0
 23 44  1  0  0  0  0
 24 45  1  0  0  0  0
 24 46  1  0  0  0  0
M  END
$$$$
CHEMBL374937_6PT0
 OpenBabel12022418123D

 53 56  0  0  0  0  0  0  0  0999 V2000
    0.9224   -0.9305   -1.7772 C   0  0  0  0  0  0  0  0  0  0  0  0
    2.1452   -0.4759   -1.3067 C   0  0  0  0  0  0  0  0  0  0  0  0
    2.2244    0.7634   -0.6806 C   0  0  0  0  0  0  0  0  0  0  0  0
    1.0888    1.5870   -0.5571 C   0  0  0  0  0  0  0  0  0  0  0  0
   -0.1755    1.1363   -1.0475 C   0  0  0  0  0  0  0  0  0  0  0  0
   -0.2361   -0.1524   -1.6468 C   0  0  0  0  0  0  0  0  0  0  0  0
   -1.4630   -0.6675   -2.0992 C   0  0  0  0  0  0  0  0  0  0  0  0
   -2.6394    0.0672   -1.9912 C   0  0  0  0  0  0  0  0  0  0  0  0
   -2.6004    1.3399   -1.4441 C   0  0  0  0  0  0  0  0  0  0  0  0
   -1.3891    1.8675   -0.9878 C   0  0  0  0  0  0  0  0  0  0  0  0
    1.2248    2.8718    0.2130 C   0  0  0  0  0  0  0  0  0  0  0  0
    0.3025    3.2537    0.9275 O   0  0  0  0  0  0  0  0  0  0  0  0
    2.4875    3.6155    0.1927 C   0  0  0  0  0  0  0  0  0  0  0  0
    3.4441    3.6728   -0.7989 C   0  0  0  0  0  0  0  0  0  0  0  0
    4.4990    4.4532   -0.3760 N   0  0  0  0  0  0  0  0  0  0  0  0
    4.2133    4.9756    0.8836 C   0  0  0  0  0  0  0  0  0  0  0  0
    2.9605    4.4744    1.2196 C   0  0  0  0  0  0  0  0  0  0  0  0
    5.0369    5.9023    1.6921 C   0  0  0  0  0  0  0  0  0  0  0  0
    6.4363    5.8438    1.7425 C   0  0  0  0  0  0  0  0  0  0  0  0
    7.1780    6.7330    2.5290 C   0  0  0  0  0  0  0  0  0  0  0  0
    6.5271    7.6698    3.3236 C   0  0  0  0  0  0  0  0  0  0  0  0
    5.1375    7.7158    3.3217 C   0  0  0  0  0  0  0  0  0  0  0  0
    4.3985    6.8525    2.5087 C   0  0  0  0  0  0  0  0  0  0  0  0
    4.3240    8.8364    4.3443 Cl  0  0  0  0  0  0  0  0  0  0  0  0
    5.7076    4.6967   -1.1557 C   0  0  0  0  0  0  0  0  0  0  0  0
    5.7927    4.0164   -2.5243 C   0  0  0  0  0  0  0  0  0  0  0  0
    7.1231    4.3197   -3.2134 C   0  0  0  0  0  0  0  0  0  0  0  0
    7.2106    3.5936   -4.5545 C   0  0  0  0  0  0  0  0  0  0  0  0
    8.5132    3.8972   -5.2732 C   0  0  0  0  0  0  0  0  0  0  0  0
    0.8743   -1.9149   -2.2436 H   0  0  0  0  0  0  0  0  0  0  0  0
    3.0327   -1.0964   -1.4034 H   0  0  0  0  0  0  0  0  0  0  0  0
    3.1842    1.0608   -0.2651 H   0  0  0  0  0  0  0  0  0  0  0  0
   -1.5139   -1.6641   -2.5339 H   0  0  0  0  0  0  0  0  0  0  0  0
   -3.5811   -0.3537   -2.3311 H   0  0  0  0  0  0  0  0  0  0  0  0
   -3.5116    1.9275   -1.3564 H   0  0  0  0  0  0  0  0  0  0  0  0
   -1.4142    2.8704   -0.5659 H   0  0  0  0  0  0  0  0  0  0  0  0
    3.4509    3.2022   -1.7726 H   0  0  0  0  0  0  0  0  0  0  0  0
    2.4282    4.6802    2.1417 H   0  0  0  0  0  0  0  0  0  0  0  0
    6.9921    5.0862    1.2055 H   0  0  0  0  0  0  0  0  0  0  0  0
    8.2637    6.6751    2.5335 H   0  0  0  0  0  0  0  0  0  0  0  0
    7.1037    8.3441    3.9503 H   0  0  0  0  0  0  0  0  0  0  0  0
    3.3129    6.9199    2.5253 H   0  0  0  0  0  0  0  0  0  0  0  0
    6.5376    4.3069   -0.5634 H   0  0  0  0  0  0  0  0  0  0  0  0
    5.8048    5.7831   -1.2623 H   0  0  0  0  0  0  0  0  0  0  0  0
    4.9655    4.3446   -3.1630 H   0  0  0  0  0  0  0  0  0  0  0  0
    5.7000    2.9289   -2.3976 H   0  0  0  0  0  0  0  0  0  0  0  0
    7.9550    4.0048   -2.5705 H   0  0  0  0  0  0  0  0  0  0  0  0
    7.2218    5.4011   -3.3654 H   0  0  0  0  0  0  0  0  0  0  0  0
    6.3692    3.8895   -5.1915 H   0  0  0  0  0  0  0  0  0  0  0  0
    7.1316    2.5116   -4.3950 H   0  0  0  0  0  0  0  0  0  0  0  0
    8.6105    4.9691   -5.4725 H   0  0  0  0  0  0  0  0  0  0  0  0
    8.5464    3.3684   -6.2309 H   0  0  0  0  0  0  0  0  0  0  0  0
    9.3742    3.5775   -4.6776 H   0  0  0  0  0  0  0  0  0  0  0  0
  1  6  2  0  0  0  0
  1  2  1  0  0  0  0
  1 30  1  0  0  0  0
  2  3  2  0  0  0  0
  2 31  1  0  0  0  0
  3  4  1  0  0  0  0
  3 32  1  0  0  0  0
  4  5  2  0  0  0  0
  4 11  1  0  0  0  0
  5 10  1  0  0  0  0
  5  6  1  0  0  0  0
  6  7  1  0  0  0  0
  7  8  2  0  0  0  0
  7 33  1  0  0  0  0
  8  9  1  0  0  0  0
  8 34  1  0  0  0  0
  9 10  2  0  0  0  0
  9 35  1  0  0  0  0
 10 36  1  0  0  0  0
 11 12  2  0  0  0  0
 11 13  1  0  0  0  0
 13 17  1  0  0  0  0
 13 14  2  0  0  0  0
 14 15  1  0  0  0  0
 14 37  1  0  0  0  0
 15 16  1  0  0  0  0
 15 25  1  0  0  0  0
 16 17  2  0  0  0  0
 16 18  1  0  0  0  0
 17 38  1  0  0  0  0
 18 23  2  0  0  0  0
 18 19  1  0  0  0  0
 19 20  2  0  0  0  0
 19 39  1  0  0  0  0
 20 21  1  0  0  0  0
 20 40  1  0  0  0  0
 21 22  2  0  0  0  0
 21 41  1  0  0  0  0
 22 23  1  0  0  0  0
 22 24  1  0  0  0  0
 23 42  1  0  0  0  0
 25 26  1  0  0  0  0
 25 43  1  0  0  0  0
 25 44  1  0  0  0  0
 26 27  1  0  0  0  0
 26 45  1  0  0  0  0
 26 46  1  0  0  0  0
 27 28  1  0  0  0  0
 27 47  1  0  0  0  0
 27 48  1  0  0  0  0
 28 29  1  0  0  0  0
 28 49  1  0  0  0  0
 28 50  1  0  0  0  0
 29 51  1  0  0  0  0
 29 52  1  0  0  0  0
 29 53  1  0  0  0  0
M  END
$$$$
CHEMBL219556_6PT0
 OpenBabel12022418123D

 56 59  0  0  0  0  0  0  0  0999 V2000
    0.9248   -1.0362   -1.4995 C   0  0  0  0  0  0  0  0  0  0  0  0
    2.1540   -0.5188   -1.1056 C   0  0  0  0  0  0  0  0  0  0  0  0
    2.2225    0.7667   -0.5777 C   0  0  0  0  0  0  0  0  0  0  0  0
    1.0724    1.5752   -0.4775 C   0  0  0  0  0  0  0  0  0  0  0  0
   -0.1962    1.0565   -0.8928 C   0  0  0  0  0  0  0  0  0  0  0  0
   -0.2457   -0.2762   -1.3908 C   0  0  0  0  0  0  0  0  0  0  0  0
   -1.4750   -0.8508   -1.7617 C   0  0  0  0  0  0  0  0  0  0  0  0
   -2.6639   -0.1359   -1.6646 C   0  0  0  0  0  0  0  0  0  0  0  0
   -2.6400    1.1758   -1.2167 C   0  0  0  0  0  0  0  0  0  0  0  0
   -1.4245    1.7631   -0.8470 C   0  0  0  0  0  0  0  0  0  0  0  0
    1.1916    2.9132    0.2005 C   0  0  0  0  0  0  0  0  0  0  0  0
    0.2657    3.3281    0.8920 O   0  0  0  0  0  0  0  0  0  0  0  0
    2.4426    3.6754    0.1396 C   0  0  0  0  0  0  0  0  0  0  0  0
    3.4028    3.6977   -0.8493 C   0  0  0  0  0  0  0  0  0  0  0  0
    4.4536    4.4931   -0.4458 N   0  0  0  0  0  0  0  0  0  0  0  0
    4.1703    5.0529    0.7985 C   0  0  0  0  0  0  0  0  0  0  0  0
    2.9026    4.5860    1.1306 C   0  0  0  0  0  0  0  0  0  0  0  0
    5.0681    5.8832    1.6356 C   0  0  0  0  0  0  0  0  0  0  0  0
    6.0269    6.7580    1.1110 C   0  0  0  0  0  0  0  0  0  0  0  0
    6.9205    7.4471    1.9359 C   0  0  0  0  0  0  0  0  0  0  0  0
    6.8305    7.3248    3.3169 C   0  0  0  0  0  0  0  0  0  0  0  0
    5.8378    6.5209    3.8837 C   0  0  0  0  0  0  0  0  0  0  0  0
    4.9740    5.8005    3.0365 C   0  0  0  0  0  0  0  0  0  0  0  0
    5.6806    6.4162    5.3804 C   0  0  0  0  0  0  0  0  0  0  0  0
    6.6164    7.1261    6.0741 F   0  0  0  0  0  0  0  0  0  0  0  0
    4.4726    6.8786    5.8106 F   0  0  0  0  0  0  0  0  0  0  0  0
    5.7759    5.1381    5.8288 F   0  0  0  0  0  0  0  0  0  0  0  0
    5.6871    4.6777   -1.1991 C   0  0  0  0  0  0  0  0  0  0  0  0
    5.8496    3.8680   -2.4817 C   0  0  0  0  0  0  0  0  0  0  0  0
    7.1858    4.1820   -3.1552 C   0  0  0  0  0  0  0  0  0  0  0  0
    7.3108    3.4109   -4.4663 C   0  0  0  0  0  0  0  0  0  0  0  0
    8.6303    3.6936   -5.1602 C   0  0  0  0  0  0  0  0  0  0  0  0
    0.8882   -2.0539   -1.8846 H   0  0  0  0  0  0  0  0  0  0  0  0
    3.0514   -1.1278   -1.1813 H   0  0  0  0  0  0  0  0  0  0  0  0
    3.1876    1.1128   -0.2164 H   0  0  0  0  0  0  0  0  0  0  0  0
   -1.5158   -1.8790   -2.1177 H   0  0  0  0  0  0  0  0  0  0  0  0
   -3.6065   -0.6014   -1.9391 H   0  0  0  0  0  0  0  0  0  0  0  0
   -3.5602    1.7473   -1.1415 H   0  0  0  0  0  0  0  0  0  0  0  0
   -1.4641    2.7931   -0.5032 H   0  0  0  0  0  0  0  0  0  0  0  0
    3.4252    3.1810   -1.7995 H   0  0  0  0  0  0  0  0  0  0  0  0
    2.3622    4.8231    2.0398 H   0  0  0  0  0  0  0  0  0  0  0  0
    6.1055    6.9457    0.0485 H   0  0  0  0  0  0  0  0  0  0  0  0
    7.6808    8.0860    1.4925 H   0  0  0  0  0  0  0  0  0  0  0  0
    7.5283    7.8736    3.9479 H   0  0  0  0  0  0  0  0  0  0  0  0
    4.2197    5.1597    3.4932 H   0  0  0  0  0  0  0  0  0  0  0  0
    6.5135    4.4517   -0.5147 H   0  0  0  0  0  0  0  0  0  0  0  0
    5.7120    5.7330   -1.4824 H   0  0  0  0  0  0  0  0  0  0  0  0
    5.0359    4.1137   -3.1753 H   0  0  0  0  0  0  0  0  0  0  0  0
    5.7864    2.7948   -2.2654 H   0  0  0  0  0  0  0  0  0  0  0  0
    8.0116    3.9184   -2.4832 H   0  0  0  0  0  0  0  0  0  0  0  0
    7.2605    5.2590   -3.3503 H   0  0  0  0  0  0  0  0  0  0  0  0
    6.4862    3.6852   -5.1346 H   0  0  0  0  0  0  0  0  0  0  0  0
    7.2268    2.3359   -4.2709 H   0  0  0  0  0  0  0  0  0  0  0  0
    8.7269    4.7568   -5.4020 H   0  0  0  0  0  0  0  0  0  0  0  0
    8.6919    3.1247   -6.0930 H   0  0  0  0  0  0  0  0  0  0  0  0
    9.4755    3.4050   -4.5276 H   0  0  0  0  0  0  0  0  0  0  0  0
  1  6  2  0  0  0  0
  1  2  1  0  0  0  0
  1 33  1  0  0  0  0
  2  3  2  0  0  0  0
  2 34  1  0  0  0  0
  3  4  1  0  0  0  0
  3 35  1  0  0  0  0
  4  5  2  0  0  0  0
  4 11  1  0  0  0  0
  5 10  1  0  0  0  0
  5  6  1  0  0  0  0
  6  7  1  0  0  0  0
  7  8  2  0  0  0  0
  7 36  1  0  0  0  0
  8  9  1  0  0  0  0
  8 37  1  0  0  0  0
  9 10  2  0  0  0  0
  9 38  1  0  0  0  0
 10 39  1  0  0  0  0
 11 12  2  0  0  0  0
 11 13  1  0  0  0  0
 13 17  1  0  0  0  0
 13 14  2  0  0  0  0
 14 15  1  0  0  0  0
 14 40  1  0  0  0  0
 15 16  1  0  0  0  0
 15 28  1  0  0  0  0
 16 17  2  0  0  0  0
 16 18  1  0  0  0  0
 17 41  1  0  0  0  0
 18 23  2  0  0  0  0
 18 19  1  0  0  0  0
 19 20  2  0  0  0  0
 19 42  1  0  0  0  0
 20 21  1  0  0  0  0
 20 43  1  0  0  0  0
 21 22  2  0  0  0  0
 21 44  1  0  0  0  0
 22 23  1  0  0  0  0
 22 24  1  0  0  0  0
 23 45  1  0  0  0  0
 24 25  1  0  0  0  0
 24 26  1  0  0  0  0
 24 27  1  0  0  0  0
 28 29  1  0  0  0  0
 28 46  1  0  0  0  0
 28 47  1  0  0  0  0
 29 30  1  0  0  0  0
 29 48  1  0  0  0  0
 29 49  1  0  0  0  0
 30 31  1  0  0  0  0
 30 50  1  0  0  0  0
 30 51  1  0  0  0  0
 31 32  1  0  0  0  0
 31 52  1  0  0  0  0
 31 53  1  0  0  0  0
 32 54  1  0  0  0  0
 32 55  1  0  0  0  0
 32 56  1  0  0  0  0
M  END
$$$$
CHEMBL3958336_8GUQ
 OpenBabel12022418123D

 51 52  0  0  1  0  0  0  0  0999 V2000
    3.9114    2.3831    4.8555 C   0  0  0  0  0  0  0  0  0  0  0  0
    3.7755    1.8834    3.4737 C   0  0  0  0  0  0  0  0  0  0  0  0
    3.3876    2.5294    2.3964 N   0  0  0  0  0  0  0  0  0  0  0  0
    3.1565    1.4983    1.5041 C   0  0  0  0  0  0  0  0  0  0  0  0
    2.4605    1.7220    0.1597 C   0  0  2  0  0  0  0  0  0  0  0  0
    1.1094    0.9561    0.1939 C   0  0  0  0  0  0  0  0  0  0  0  0
    3.3282    1.2300   -1.0669 C   0  0  0  0  0  0  0  0  0  0  0  0
    4.7005    1.9112   -1.4276 C   0  0  0  0  0  0  0  0  0  0  0  0
    5.7783    1.7107   -0.3509 C   0  0  0  0  0  0  0  0  0  0  0  0
    5.2565    1.3372   -2.7590 C   0  0  0  0  0  0  0  0  0  0  0  0
    4.5254    3.4199   -1.6362 C   0  0  0  0  0  0  0  0  0  0  0  0
    2.0986    3.1605    0.0474 N   0  0  0  0  0  0  0  0  0  0  0  0
    1.3547    3.7048   -0.9847 C   0  0  0  0  0  0  0  0  0  0  0  0
    0.9266    3.0847   -1.9390 O   0  0  0  0  0  0  0  0  0  0  0  0
    1.0688    5.1769   -0.8735 C   0  0  0  0  0  0  0  0  0  0  0  0
    0.3225    5.8518   -1.8410 C   0  0  0  0  0  0  0  0  0  0  0  0
    0.0901    7.2275   -1.6880 C   0  0  0  0  0  0  0  0  0  0  0  0
    0.5837    7.8693   -0.5505 C   0  0  0  0  0  0  0  0  0  0  0  0
    1.3097    7.0994    0.3583 C   0  0  0  0  0  0  0  0  0  0  0  0
    1.5825    5.7846    0.2294 N   0  0  0  0  0  0  0  0  0  0  0  0
    0.3406    9.5204   -0.1274 Cl  0  0  0  0  0  0  0  0  0  0  0  0
   -0.6767    7.7560   -2.7074 O   0  0  0  0  0  0  0  0  0  0  0  0
   -0.4955    9.1317   -3.0759 C   0  0  0  0  0  0  0  0  0  0  0  0
   -0.7601    9.3821   -4.5618 C   0  0  0  0  0  0  0  0  0  0  0  0
   -1.1120    8.2639   -5.2309 F   0  0  0  0  0  0  0  0  0  0  0  0
   -1.7472   10.2914   -4.7379 F   0  0  0  0  0  0  0  0  0  0  0  0
    0.3499    9.8801   -5.1604 F   0  0  0  0  0  0  0  0  0  0  0  0
    3.4953    0.2826    1.9716 N   0  0  0  0  0  0  0  0  0  0  0  0
    3.8991    0.5383    3.2837 O   0  0  0  0  0  0  0  0  0  0  0  0
    4.3914    1.6524    5.5133 H   0  0  0  0  0  0  0  0  0  0  0  0
    2.9122    2.5891    5.2542 H   0  0  0  0  0  0  0  0  0  0  0  0
    4.4862    3.3126    4.8857 H   0  0  0  0  0  0  0  0  0  0  0  0
    0.6064    0.9922   -0.7777 H   0  0  0  0  0  0  0  0  0  0  0  0
    0.4243    1.4155    0.9202 H   0  0  0  0  0  0  0  0  0  0  0  0
    1.2155   -0.0979    0.4664 H   0  0  0  0  0  0  0  0  0  0  0  0
    2.6996    1.3341   -1.9630 H   0  0  0  0  0  0  0  0  0  0  0  0
    3.4958    0.1495   -0.9584 H   0  0  0  0  0  0  0  0  0  0  0  0
    6.1391    0.6781   -0.3105 H   0  0  0  0  0  0  0  0  0  0  0  0
    5.4180    1.9875    0.6370 H   0  0  0  0  0  0  0  0  0  0  0  0
    6.6455    2.3536   -0.5423 H   0  0  0  0  0  0  0  0  0  0  0  0
    5.6053    0.3030   -2.6569 H   0  0  0  0  0  0  0  0  0  0  0  0
    6.1137    1.9270   -3.1106 H   0  0  0  0  0  0  0  0  0  0  0  0
    4.5039    1.3616   -3.5556 H   0  0  0  0  0  0  0  0  0  0  0  0
    4.2071    3.9086   -0.7155 H   0  0  0  0  0  0  0  0  0  0  0  0
    3.8015    3.6289   -2.4306 H   0  0  0  0  0  0  0  0  0  0  0  0
    5.4713    3.8997   -1.9118 H   0  0  0  0  0  0  0  0  0  0  0  0
    2.4396    3.7799    0.7781 H   0  0  0  0  0  0  0  0  0  0  0  0
   -0.0692    5.3193   -2.7106 H   0  0  0  0  0  0  0  0  0  0  0  0
    1.7026    7.5381    1.2744 H   0  0  0  0  0  0  0  0  0  0  0  0
    0.5308    9.4519   -2.8727 H   0  0  0  0  0  0  0  0  0  0  0  0
   -1.2011    9.7375   -2.4960 H   0  0  0  0  0  0  0  0  0  0  0  0
  1  2  1  0  0  0  0
  1 30  1  0  0  0  0
  1 31  1  0  0  0  0
  1 32  1  0  0  0  0
  2 29  1  0  0  0  0
  2  3  2  0  0  0  0
  3  4  1  0  0  0  0
  4 28  2  0  0  0  0
  5  7  1  6  0  0  0
  5 12  1  0  0  0  0
  5  6  1  0  0  0  0
  5  4  1  0  0  0  0
  6 33  1  0  0  0  0
  6 34  1  0  0  0  0
  6 35  1  0  0  0  0
  7  8  1  0  0  0  0
  7 36  1  0  0  0  0
  7 37  1  0  0  0  0
  8  9  1  0  0  0  0
  8 10  1  0  0  0  0
  8 11  1  0  0  0  0
  9 38  1  0  0  0  0
  9 39  1  0  0  0  0
  9 40  1  0  0  0  0
 10 41  1  0  0  0  0
 10 42  1  0  0  0  0
 10 43  1  0  0  0  0
 11 44  1  0  0  0  0
 11 45  1  0  0  0  0
 11 46  1  0  0  0  0
 12 13  1  0  0  0  0
 12 47  1  0  0  0  0
 13 14  2  0  0  0  0
 13 15  1  0  0  0  0
 15 20  2  0  0  0  0
 15 16  1  0  0  0  0
 16 17  2  0  0  0  0
 16 48  1  0  0  0  0
 17 18  1  0  0  0  0
 17 22  1  0  0  0  0
 18 19  2  0  0  0  0
 18 21  1  0  0  0  0
 19 20  1  0  0  0  0
 19 49  1  0  0  0  0
 22 23  1  0  0  0  0
 23 24  1  0  0  0  0
 23 50  1  0  0  0  0
 23 51  1  0  0  0  0
 24 25  1  0  0  0  0
 24 26  1  0  0  0  0
 24 27  1  0  0  0  0
 28 29  1  0  0  0  0
M  END
$$$$
CHEMBL3354961_8GUQ
 OpenBabel12022418123D

 57 62  0  0  1  0  0  0  0  0999 V2000
    0.1708    3.1387   -0.4833 C   0  0  0  0  0  0  0  0  0  0  0  0
    0.9674    2.0792    0.3122 C   0  0  0  0  0  0  0  0  0  0  0  0
    1.8663    2.8343    1.2999 C   0  0  0  0  0  0  0  0  0  0  0  0
    1.7789    1.1917   -0.6937 C   0  0  1  0  0  0  0  0  0  0  0  0
    2.7874    0.2826    0.0275 C   0  0  0  0  0  0  0  0  0  0  0  0
    1.8842   -0.7052    0.7759 C   0  0  0  0  0  0  0  0  0  0  0  0
    0.4636   -0.3129    0.3055 C   0  0  2  0  0  0  0  0  0  0  0  0
   -0.0031    1.0247    0.9648 C   0  0  1  0  0  0  0  0  0  0  0  0
   -0.0600    0.9976    2.4210 N   0  0  0  0  0  0  0  0  0  0  0  0
   -0.8996    1.8175    3.1508 C   0  0  0  0  0  0  0  0  0  0  0  0
   -1.6619    2.6230    2.6225 O   0  0  0  0  0  0  0  0  0  0  0  0
   -0.8235    1.6626    4.6226 C   0  0  0  0  0  0  0  0  0  0  0  0
   -1.5433    2.4221    5.5682 C   0  0  0  0  0  0  0  0  0  0  0  0
   -1.1207    1.9831    6.7867 C   0  0  0  0  0  0  0  0  0  0  0  0
   -1.5408    2.9182    7.8956 C   0  0  1  0  0  0  0  0  0  0  0  0
   -2.2806    4.0355    7.1245 C   0  0  1  0  0  0  0  0  0  0  0  0
   -2.3889    3.6400    5.6332 C   0  0  0  0  0  0  0  0  0  0  0  0
   -2.9839    3.2394    8.1773 C   0  0  0  0  0  0  0  0  0  0  0  0
   -0.2174    0.9886    6.6033 N   0  0  0  0  0  0  0  0  0  0  0  0
    0.4533    0.2830    7.6278 C   0  0  0  0  0  0  0  0  0  0  0  0
    1.7559   -0.1870    7.4260 C   0  0  0  0  0  0  0  0  0  0  0  0
    2.4536   -0.7434    8.5035 C   0  0  0  0  0  0  0  0  0  0  0  0
    1.8379   -0.8702    9.7499 C   0  0  0  0  0  0  0  0  0  0  0  0
    0.5269   -0.4680    9.9423 C   0  0  0  0  0  0  0  0  0  0  0  0
   -0.1583    0.1079    8.8800 C   0  0  0  0  0  0  0  0  0  0  0  0
   -1.4423    0.4355    9.0845 F   0  0  0  0  0  0  0  0  0  0  0  0
    2.5236   -1.3859   10.7780 F   0  0  0  0  0  0  0  0  0  0  0  0
    0.0278    0.8044    5.2560 N   0  0  0  0  0  0  0  0  0  0  0  0
   -0.5403   -1.4458    0.3882 C   0  0  0  0  0  0  0  0  0  0  0  0
    0.7472    0.1471   -1.1332 C   0  0  0  0  0  0  0  0  0  0  0  0
   -0.4336    3.7616    0.1843 H   0  0  0  0  0  0  0  0  0  0  0  0
   -0.5089    2.6911   -1.2152 H   0  0  0  0  0  0  0  0  0  0  0  0
    0.8493    3.7998   -1.0359 H   0  0  0  0  0  0  0  0  0  0  0  0
    1.2851    3.5425    1.9007 H   0  0  0  0  0  0  0  0  0  0  0  0
    2.6303    3.4093    0.7635 H   0  0  0  0  0  0  0  0  0  0  0  0
    2.3793    2.1667    1.9978 H   0  0  0  0  0  0  0  0  0  0  0  0
    2.2304    1.7546   -1.5149 H   0  0  0  0  0  0  0  0  0  0  0  0
    3.4802    0.8103    0.6862 H   0  0  0  0  0  0  0  0  0  0  0  0
    3.3962   -0.2603   -0.7069 H   0  0  0  0  0  0  0  0  0  0  0  0
    2.0171   -0.6343    1.8584 H   0  0  0  0  0  0  0  0  0  0  0  0
    2.1357   -1.7307    0.4804 H   0  0  0  0  0  0  0  0  0  0  0  0
   -1.0263    1.2304    0.6193 H   0  0  0  0  0  0  0  0  0  0  0  0
    0.5711    0.4241    2.9721 H   0  0  0  0  0  0  0  0  0  0  0  0
   -0.8579    3.0861    8.7172 H   0  0  0  0  0  0  0  0  0  0  0  0
   -1.9948    5.0607    7.3056 H   0  0  0  0  0  0  0  0  0  0  0  0
   -3.4277    3.4312    5.3684 H   0  0  0  0  0  0  0  0  0  0  0  0
   -1.9914    4.4399    5.0019 H   0  0  0  0  0  0  0  0  0  0  0  0
   -3.1986    3.7252    9.1246 H   0  0  0  0  0  0  0  0  0  0  0  0
   -3.7299    2.5064    7.8946 H   0  0  0  0  0  0  0  0  0  0  0  0
    2.2550   -0.0631    6.4685 H   0  0  0  0  0  0  0  0  0  0  0  0
    3.4854   -1.0608    8.3916 H   0  0  0  0  0  0  0  0  0  0  0  0
    0.0436   -0.5964   10.9043 H   0  0  0  0  0  0  0  0  0  0  0  0
   -0.6467   -1.8082    1.4146 H   0  0  0  0  0  0  0  0  0  0  0  0
   -0.2264   -2.2901   -0.2368 H   0  0  0  0  0  0  0  0  0  0  0  0
   -1.5259   -1.1272    0.0325 H   0  0  0  0  0  0  0  0  0  0  0  0
    1.1762   -0.6401   -1.7652 H   0  0  0  0  0  0  0  0  0  0  0  0
   -0.1272    0.5631   -1.6423 H   0  0  0  0  0  0  0  0  0  0  0  0
  1  2  1  0  0  0  0
  1 31  1  0  0  0  0
  1 32  1  0  0  0  0
  1 33  1  0  0  0  0
  2  8  1  0  0  0  0
  2  3  1  0  0  0  0
  2  4  1  0  0  0  0
  3 34  1  0  0  0  0
  3 35  1  0  0  0  0
  3 36  1  0  0  0  0
  4  5  1  0  0  0  0
  4 30  1  0  0  0  0
  4 37  1  6  0  0  0
  5  6  1  0  0  0  0
  5 38  1  0  0  0  0
  5 39  1  0  0  0  0
  6  7  1  0  0  0  0
  6 40  1  0  0  0  0
  6 41  1  0  0  0  0
  7  8  1  0  0  0  0
  7 29  1  1  0  0  0
  7 30  1  0  0  0  0
  8  9  1  0  0  0  0
  8 42  1  6  0  0  0
  9 10  1  0  0  0  0
  9 43  1  0  0  0  0
 10 11  2  0  0  0  0
 10 12  1  0  0  0  0
 12 28  2  0  0  0  0
 12 13  1  0  0  0  0
 13 17  1  0  0  0  0
 13 14  2  0  0  0  0
 14 15  1  0  0  0  0
 14 19  1  0  0  0  0
 15 16  1  0  0  0  0
 15 18  1  0  0  0  0
 15 44  1  1  0  0  0
 16 17  1  0  0  0  0
 16 18  1  0  0  0  0
 16 45  1  1  0  0  0
 17 46  1  0  0  0  0
 17 47  1  0  0  0  0
 18 48  1  0  0  0  0
 18 49  1  0  0  0  0
 19 20  1  0  0  0  0
 19 28  1  0  0  0  0
 20 25  2  0  0  0  0
 20 21  1  0  0  0  0
 21 22  2  0  0  0  0
 21 50  1  0  0  0  0
 22 23  1  0  0  0  0
 22 51  1  0  0  0  0
 23 24  2  0  0  0  0
 23 27  1  0  0  0  0
 24 25  1  0  0  0  0
 24 52  1  0  0  0  0
 25 26  1  0  0  0  0
 29 53  1  0  0  0  0
 29 54  1  0  0  0  0
 29 55  1  0  0  0  0
 30 56  1  0  0  0  0
 30 57  1  0  0  0  0
M  END
$$$$
CHEMBL4074423_8GUR
 OpenBabel12022418123D

 52 53  0  0  0  0  0  0  0  0999 V2000
   -2.4778    0.7499   -0.0369 C   0  0  0  0  0  0  0  0  0  0  0  0
   -2.4999   -0.6344    0.0743 C   0  0  0  0  0  0  0  0  0  0  0  0
   -1.3133   -1.3968    0.2193 C   0  0  0  0  0  0  0  0  0  0  0  0
   -0.0551   -0.7349    0.1667 C   0  0  0  0  0  0  0  0  0  0  0  0
   -0.0764    0.6755    0.1563 C   0  0  0  0  0  0  0  0  0  0  0  0
   -1.2653    1.4105    0.0476 C   0  0  0  0  0  0  0  0  0  0  0  0
    1.1871    1.4272    0.2668 C   0  0  0  0  0  0  0  0  0  0  0  0
    1.1595    2.6428    0.4631 O   0  0  0  0  0  0  0  0  0  0  0  0
    2.3497    0.7114    0.0986 N   0  0  0  0  0  0  0  0  0  0  0  0
    2.2974   -0.5594   -0.4410 C   0  0  0  0  0  0  0  0  0  0  0  0
    3.1513   -0.9422   -1.2395 O   0  0  0  0  0  0  0  0  0  0  0  0
    1.2415   -1.3623    0.0057 N   0  0  0  0  0  0  0  0  0  0  0  0
    1.3640   -2.8136   -0.1421 C   0  0  0  0  0  0  0  0  0  0  0  0
    2.7635   -3.4513   -0.2293 C   0  0  0  0  0  0  0  0  0  0  0  0
    3.6691   -3.1600    0.9679 C   0  0  0  0  0  0  0  0  0  0  0  0
    5.0519   -3.7545    0.7447 C   0  0  0  0  0  0  0  0  0  0  0  0
    3.6091    1.4374   -0.0326 C   0  0  0  0  0  0  0  0  0  0  0  0
    4.6677    1.0884    1.0265 C   0  0  0  0  0  0  0  0  0  0  0  0
    5.8613    1.2066    0.7572 O   0  0  0  0  0  0  0  0  0  0  0  0
    4.2192    0.7986    2.3015 N   0  0  0  0  0  0  0  0  0  0  0  0
    5.1174    0.5123    3.4454 C   0  0  0  0  0  0  0  0  0  0  0  0
    6.0091    1.7199    3.7893 C   0  0  0  0  0  0  0  0  0  0  0  0
    4.2674    0.1845    4.6897 C   0  0  0  0  0  0  0  0  0  0  0  0
    6.0029   -0.7119    3.1538 C   0  0  0  0  0  0  0  0  0  0  0  0
   -1.5440   -2.8720    0.4255 C   0  0  0  0  0  0  0  0  0  0  0  0
   -3.4021    1.3075   -0.1668 H   0  0  0  0  0  0  0  0  0  0  0  0
   -3.4697   -1.1308    0.0409 H   0  0  0  0  0  0  0  0  0  0  0  0
   -1.2427    2.4972    0.0010 H   0  0  0  0  0  0  0  0  0  0  0  0
    0.8181   -3.1019   -1.0462 H   0  0  0  0  0  0  0  0  0  0  0  0
    0.9043   -3.2669    0.7389 H   0  0  0  0  0  0  0  0  0  0  0  0
    3.2591   -3.1707   -1.1639 H   0  0  0  0  0  0  0  0  0  0  0  0
    2.6292   -4.5384   -0.3046 H   0  0  0  0  0  0  0  0  0  0  0  0
    3.2296   -3.5801    1.8789 H   0  0  0  0  0  0  0  0  0  0  0  0
    3.7767   -2.0839    1.1333 H   0  0  0  0  0  0  0  0  0  0  0  0
    4.9918   -4.8362    0.5907 H   0  0  0  0  0  0  0  0  0  0  0  0
    5.6962   -3.5692    1.6086 H   0  0  0  0  0  0  0  0  0  0  0  0
    5.5292   -3.3084   -0.1345 H   0  0  0  0  0  0  0  0  0  0  0  0
    3.4527    2.5183    0.0124 H   0  0  0  0  0  0  0  0  0  0  0  0
    4.0506    1.2119   -1.0108 H   0  0  0  0  0  0  0  0  0  0  0  0
    3.2254    0.8861    2.4803 H   0  0  0  0  0  0  0  0  0  0  0  0
    5.4096    2.5741    4.1232 H   0  0  0  0  0  0  0  0  0  0  0  0
    6.6073    2.0544    2.9372 H   0  0  0  0  0  0  0  0  0  0  0  0
    6.7112    1.4722    4.5951 H   0  0  0  0  0  0  0  0  0  0  0  0
    3.6110    1.0207    4.9564 H   0  0  0  0  0  0  0  0  0  0  0  0
    4.9001   -0.0318    5.5567 H   0  0  0  0  0  0  0  0  0  0  0  0
    3.6297   -0.6909    4.5157 H   0  0  0  0  0  0  0  0  0  0  0  0
    6.6482   -0.5617    2.2836 H   0  0  0  0  0  0  0  0  0  0  0  0
    5.3880   -1.5960    2.9602 H   0  0  0  0  0  0  0  0  0  0  0  0
    6.6553   -0.9424    4.0041 H   0  0  0  0  0  0  0  0  0  0  0  0
   -2.6103   -3.1019    0.5414 H   0  0  0  0  0  0  0  0  0  0  0  0
   -1.0753   -3.2044    1.3568 H   0  0  0  0  0  0  0  0  0  0  0  0
   -1.2008   -3.4592   -0.4277 H   0  0  0  0  0  0  0  0  0  0  0  0
  1  6  2  0  0  0  0
  1  2  1  0  0  0  0
  1 26  1  0  0  0  0
  2  3  2  0  0  0  0
  2 27  1  0  0  0  0
  3  4  1  0  0  0  0
  3 25  1  0  0  0  0
  4 12  1  0  0  0  0
  4  5  2  0  0  0  0
  5  6  1  0  0  0  0
  5  7  1  0  0  0  0
  6 28  1  0  0  0  0
  7  8  2  0  0  0  0
  7  9  1  0  0  0  0
  9 10  1  0  0  0  0
  9 17  1  0  0  0  0
 10 11  2  0  0  0  0
 10 12  1  0  0  0  0
 12 13  1  0  0  0  0
 13 14  1  0  0  0  0
 13 29  1  0  0  0  0
 13 30  1  0  0  0  0
 14 15  1  0  0  0  0
 14 31  1  0  0  0  0
 14 32  1  0  0  0  0
 15 16  1  0  0  0  0
 15 33  1  0  0  0  0
 15 34  1  0  0  0  0
 16 35  1  0  0  0  0
 16 36  1  0  0  0  0
 16 37  1  0  0  0  0
 17 18  1  0  0  0  0
 17 38  1  0  0  0  0
 17 39  1  0  0  0  0
 18 19  2  0  0  0  0
 18 20  1  0  0  0  0
 20 21  1  0  0  0  0
 20 40  1  0  0  0  0
 21 22  1  0  0  0  0
 21 23  1  0  0  0  0
 21 24  1  0  0  0  0
 22 41  1  0  0  0  0
 22 42  1  0  0  0  0
 22 43  1  0  0  0  0
 23 44  1  0  0  0  0
 23 45  1  0  0  0  0
 23 46  1  0  0  0  0
 24 47  1  0  0  0  0
 24 48  1  0  0  0  0
 24 49  1  0  0  0  0
 25 50  1  0  0  0  0
 25 51  1  0  0  0  0
 25 52  1  0  0  0  0
M  END
$$$$
CHEMBL3354968_8GUQ
 OpenBabel12022418123D

 44 47  0  0  1  0  0  0  0  0999 V2000
    2.1403    2.0803    1.1038 C   0  0  0  0  0  0  0  0  0  0  0  0
    3.0608    1.0056    0.4918 C   0  0  0  0  0  0  0  0  0  0  0  0
    4.2189    0.7730    1.4830 C   0  0  0  0  0  0  0  0  0  0  0  0
    2.2383   -0.3027    0.3031 C   0  0  0  0  0  0  0  0  0  0  0  0
    1.7141   -0.8035    1.5348 O   0  0  0  0  0  0  0  0  0  0  0  0
    3.5766    1.4994   -0.7999 N   0  0  0  0  0  0  0  0  0  0  0  0
    4.4363    0.7852   -1.6114 C   0  0  0  0  0  0  0  0  0  0  0  0
    4.8633   -0.3282   -1.3183 O   0  0  0  0  0  0  0  0  0  0  0  0
    4.8026    1.4355   -2.8790 C   0  0  0  0  0  0  0  0  0  0  0  0
    5.6985    0.9199   -3.8264 C   0  0  0  0  0  0  0  0  0  0  0  0
    5.7351    1.8333   -4.8384 C   0  0  0  0  0  0  0  0  0  0  0  0
    6.8316    1.5117   -5.8277 C   0  0  1  0  0  0  0  0  0  0  0  0
    7.4995    0.2667   -5.1861 C   0  0  1  0  0  0  0  0  0  0  0  0
    6.6907   -0.1741   -3.9504 C   0  0  0  0  0  0  0  0  0  0  0  0
    6.8956    0.1873   -6.5490 C   0  0  0  0  0  0  0  0  0  0  0  0
    4.9333    2.8789   -4.4985 N   0  0  0  0  0  0  0  0  0  0  0  0
    4.6084    3.9886   -5.3068 C   0  0  0  0  0  0  0  0  0  0  0  0
    4.5729    3.8475   -6.7052 C   0  0  0  0  0  0  0  0  0  0  0  0
    4.1967    4.9277   -7.5084 C   0  0  0  0  0  0  0  0  0  0  0  0
    3.8939    6.1580   -6.9268 C   0  0  0  0  0  0  0  0  0  0  0  0
    3.9609    6.3064   -5.5406 C   0  0  0  0  0  0  0  0  0  0  0  0
    4.2999    5.2200   -4.7335 C   0  0  0  0  0  0  0  0  0  0  0  0
    4.4011    5.4248   -3.4126 F   0  0  0  0  0  0  0  0  0  0  0  0
    4.3484    2.6542   -3.2722 N   0  0  0  0  0  0  0  0  0  0  0  0
    1.7545    1.7718    2.0827 H   0  0  0  0  0  0  0  0  0  0  0  0
    1.2807    2.2807    0.4547 H   0  0  0  0  0  0  0  0  0  0  0  0
    2.6745    3.0269    1.2430 H   0  0  0  0  0  0  0  0  0  0  0  0
    3.8509    0.4971    2.4778 H   0  0  0  0  0  0  0  0  0  0  0  0
    4.8269    1.6781    1.5951 H   0  0  0  0  0  0  0  0  0  0  0  0
    4.8859   -0.0295    1.1529 H   0  0  0  0  0  0  0  0  0  0  0  0
    2.8287   -1.1036   -0.1520 H   0  0  0  0  0  0  0  0  0  0  0  0
    1.3885   -0.1176   -0.3637 H   0  0  0  0  0  0  0  0  0  0  0  0
    2.4371   -1.2803    1.9780 H   0  0  0  0  0  0  0  0  0  0  0  0
    3.2981    2.4091   -1.1605 H   0  0  0  0  0  0  0  0  0  0  0  0
    7.3746    2.3261   -6.2870 H   0  0  0  0  0  0  0  0  0  0  0  0
    8.5709    0.2567   -5.0546 H   0  0  0  0  0  0  0  0  0  0  0  0
    6.2119   -1.1428   -4.1218 H   0  0  0  0  0  0  0  0  0  0  0  0
    7.3377   -0.2277   -3.0700 H   0  0  0  0  0  0  0  0  0  0  0  0
    7.5750    0.1093   -7.3918 H   0  0  0  0  0  0  0  0  0  0  0  0
    5.9744   -0.3668   -6.6884 H   0  0  0  0  0  0  0  0  0  0  0  0
    4.7747    2.8919   -7.1846 H   0  0  0  0  0  0  0  0  0  0  0  0
    4.1284    4.8056   -8.5875 H   0  0  0  0  0  0  0  0  0  0  0  0
    3.6065    7.0001   -7.5521 H   0  0  0  0  0  0  0  0  0  0  0  0
    3.7550    7.2682   -5.0803 H   0  0  0  0  0  0  0  0  0  0  0  0
  1  2  1  0  0  0  0
  1 25  1  0  0  0  0
  1 26  1  0  0  0  0
  1 27  1  0  0  0  0
  2  3  1  0  0  0  0
  2  4  1  0  0  0  0
  2  6  1  0  0  0  0
  3 28  1  0  0  0  0
  3 29  1  0  0  0  0
  3 30  1  0  0  0  0
  4  5  1  0  0  0  0
  4 31  1  0  0  0  0
  4 32  1  0  0  0  0
  5 33  1  0  0  0  0
  6  7  1  0  0  0  0
  6 34  1  0  0  0  0
  7  8  2  0  0  0  0
  7  9  1  0  0  0  0
  9 24  2  0  0  0  0
  9 10  1  0  0  0  0
 10 14  1  0  0  0  0
 10 11  2  0  0  0  0
 11 12  1  0  0  0  0
 11 16  1  0  0  0  0
 12 13  1  0  0  0  0
 12 15  1  0  0  0  0
 12 35  1  6  0  0  0
 13 14  1  0  0  0  0
 13 15  1  0  0  0  0
 13 36  1  1  0  0  0
 14 37  1  0  0  0  0
 14 38  1  0  0  0  0
 15 39  1  0  0  0  0
 15 40  1  0  0  0  0
 16 17  1  0  0  0  0
 16 24  1  0  0  0  0
 17 22  2  0  0  0  0
 17 18  1  0  0  0  0
 18 19  2  0  0  0  0
 18 41  1  0  0  0  0
 19 20  1  0  0  0  0
 19 42  1  0  0  0  0
 20 21  2  0  0  0  0
 20 43  1  0  0  0  0
 21 22  1  0  0  0  0
 21 44  1  0  0  0  0
 22 23  1  0  0  0  0
M  END
$$$$
CHEMBL3354529_8GUT
 OpenBabel12022418123D

 52 54  0  0  1  0  0  0  0  0999 V2000
    0.2165   -4.9674   -9.2994 C   0  0  0  0  0  0  0  0  0  0  0  0
    0.7707   -4.0381   -8.1998 C   0  0  0  0  0  0  0  0  0  0  0  0
    2.0754   -3.4058   -8.7097 C   0  0  0  0  0  0  0  0  0  0  0  0
   -0.2630   -2.9311   -7.9243 C   0  0  0  0  0  0  0  0  0  0  0  0
    1.0423   -4.7833   -6.9236 C   0  0  0  0  0  0  0  0  0  0  0  0
    1.5412   -4.4260   -5.6877 C   0  0  0  0  0  0  0  0  0  0  0  0
    1.5085   -5.6167   -4.9241 C   0  0  0  0  0  0  0  0  0  0  0  0
    1.0283   -6.6216   -5.6607 N   0  0  0  0  0  0  0  0  0  0  0  0
    0.7394   -6.1072   -6.8975 O   0  0  0  0  0  0  0  0  0  0  0  0
    1.9037   -5.7106   -3.5996 N   0  0  0  0  0  0  0  0  0  0  0  0
    1.8600   -6.8969   -2.8916 C   0  0  0  0  0  0  0  0  0  0  0  0
    1.5400   -7.9844   -3.3699 O   0  0  0  0  0  0  0  0  0  0  0  0
    2.2615   -6.7568   -1.3977 C   0  0  1  0  0  0  0  0  0  0  0  0
    1.0757   -7.1398   -0.4964 C   0  0  0  0  0  0  0  0  0  0  0  0
    0.7658   -8.6351   -0.5218 C   0  0  0  0  0  0  0  0  0  0  0  0
    2.0251   -9.4561   -0.2776 C   0  0  0  0  0  0  0  0  0  0  0  0
    3.2099   -9.0076   -1.1361 C   0  0  0  0  0  0  0  0  0  0  0  0
    3.4627   -7.5568   -1.0360 N   0  0  0  0  0  0  0  0  0  0  0  0
    4.6648   -7.2026   -1.8077 C   0  0  0  0  0  0  0  0  0  0  0  0
    5.1424   -5.7791   -1.5877 C   0  0  0  0  0  0  0  0  0  0  0  0
    5.2507   -4.8932   -2.6702 C   0  0  0  0  0  0  0  0  0  0  0  0
    5.7343   -3.5950   -2.4799 C   0  0  0  0  0  0  0  0  0  0  0  0
    6.1206   -3.1790   -1.2073 C   0  0  0  0  0  0  0  0  0  0  0  0
    6.0182   -4.0441   -0.1222 C   0  0  0  0  0  0  0  0  0  0  0  0
    5.5308   -5.3408   -0.3111 C   0  0  0  0  0  0  0  0  0  0  0  0
    6.7400   -1.5889   -0.9833 Cl  0  0  0  0  0  0  0  0  0  0  0  0
    0.0127   -4.4132  -10.2221 H   0  0  0  0  0  0  0  0  0  0  0  0
   -0.7207   -5.4454   -8.9883 H   0  0  0  0  0  0  0  0  0  0  0  0
    0.9272   -5.7661   -9.5443 H   0  0  0  0  0  0  0  0  0  0  0  0
    1.9073   -2.8333   -9.6306 H   0  0  0  0  0  0  0  0  0  0  0  0
    2.8306   -4.1720   -8.9267 H   0  0  0  0  0  0  0  0  0  0  0  0
    2.5092   -2.7206   -7.9702 H   0  0  0  0  0  0  0  0  0  0  0  0
   -0.4831   -2.3574   -8.8290 H   0  0  0  0  0  0  0  0  0  0  0  0
    0.0956   -2.2283   -7.1637 H   0  0  0  0  0  0  0  0  0  0  0  0
   -1.2070   -3.3547   -7.5566 H   0  0  0  0  0  0  0  0  0  0  0  0
    1.8668   -3.4428   -5.3879 H   0  0  0  0  0  0  0  0  0  0  0  0
    2.2434   -4.8697   -3.1557 H   0  0  0  0  0  0  0  0  0  0  0  0
    2.4685   -5.6999   -1.1900 H   0  0  0  0  0  0  0  0  0  0  0  0
    0.1795   -6.5797   -0.7876 H   0  0  0  0  0  0  0  0  0  0  0  0
    1.3077   -6.8505    0.5369 H   0  0  0  0  0  0  0  0  0  0  0  0
    0.3181   -8.9141   -1.4813 H   0  0  0  0  0  0  0  0  0  0  0  0
    0.0140   -8.8718    0.2400 H   0  0  0  0  0  0  0  0  0  0  0  0
    1.8118  -10.5138   -0.4748 H   0  0  0  0  0  0  0  0  0  0  0  0
    2.3003   -9.3810    0.7806 H   0  0  0  0  0  0  0  0  0  0  0  0
    3.0622   -9.3247   -2.1745 H   0  0  0  0  0  0  0  0  0  0  0  0
    4.0932   -9.5550   -0.7831 H   0  0  0  0  0  0  0  0  0  0  0  0
    4.5173   -7.3922   -2.8789 H   0  0  0  0  0  0  0  0  0  0  0  0
    5.4987   -7.8497   -1.5021 H   0  0  0  0  0  0  0  0  0  0  0  0
    4.9770   -5.2139   -3.6735 H   0  0  0  0  0  0  0  0  0  0  0  0
    5.8261   -2.9230   -3.3286 H   0  0  0  0  0  0  0  0  0  0  0  0
    6.3259   -3.7227    0.8702 H   0  0  0  0  0  0  0  0  0  0  0  0
    5.4624   -6.0167    0.5397 H   0  0  0  0  0  0  0  0  0  0  0  0
  1  2  1  0  0  0  0
  1 27  1  0  0  0  0
  1 28  1  0  0  0  0
  1 29  1  0  0  0  0
  2  3  1  0  0  0  0
  2  4  1  0  0  0  0
  2  5  1  0  0  0  0
  3 30  1  0  0  0  0
  3 31  1  0  0  0  0
  3 32  1  0  0  0  0
  4 33  1  0  0  0  0
  4 34  1  0  0  0  0
  4 35  1  0  0  0  0
  5  9  1  0  0  0  0
  5  6  2  0  0  0  0
  6  7  1  0  0  0  0
  6 36  1  0  0  0  0
  7  8  2  0  0  0  0
  7 10  1  0  0  0  0
  8  9  1  0  0  0  0
 10 11  1  0  0  0  0
 10 37  1  0  0  0  0
 11 12  2  0  0  0  0
 13 14  1  0  0  0  0
 13 18  1  0  0  0  0
 13 11  1  0  0  0  0
 13 38  1  1  0  0  0
 14 15  1  0  0  0  0
 14 39  1  0  0  0  0
 14 40  1  0  0  0  0
 15 16  1  0  0  0  0
 15 41  1  0  0  0  0
 15 42  1  0  0  0  0
 16 17  1  0  0  0  0
 16 43  1  0  0  0  0
 16 44  1  0  0  0  0
 17 18  1  0  0  0  0
 17 45  1  0  0  0  0
 17 46  1  0  0  0  0
 18 19  1  0  0  0  0
 19 20  1  0  0  0  0
 19 47  1  0  0  0  0
 19 48  1  0  0  0  0
 20 25  2  0  0  0  0
 20 21  1  0  0  0  0
 21 22  2  0  0  0  0
 21 49  1  0  0  0  0
 22 23  1  0  0  0  0
 22 50  1  0  0  0  0
 23 24  2  0  0  0  0
 23 26  1  0  0  0  0
 24 25  1  0  0  0  0
 24 51  1  0  0  0  0
 25 52  1  0  0  0  0
M  END
$$$$
CHEMBL3234681_8GUQ
 OpenBabel12022418123D

 46 49  0  0  1  0  0  0  0  0999 V2000
    4.1549    1.5379    0.1071 C   0  0  0  0  0  0  0  0  0  0  0  0
    3.1117    0.5599   -0.4646 C   0  0  0  0  0  0  0  0  0  0  0  0
    2.5752   -0.3383    0.6660 C   0  0  0  0  0  0  0  0  0  0  0  0
    1.9310    1.3980   -0.9933 C   0  0  0  0  0  0  0  0  0  0  0  0
    3.6860   -0.2474   -1.5618 N   0  0  0  0  0  0  0  0  0  0  0  0
    4.7533   -1.1165   -1.4084 C   0  0  0  0  0  0  0  0  0  0  0  0
    5.3226   -1.2936   -0.3312 O   0  0  0  0  0  0  0  0  0  0  0  0
    5.1930   -1.8409   -2.6208 C   0  0  0  0  0  0  0  0  0  0  0  0
    6.2750   -2.7236   -2.6863 C   0  0  0  0  0  0  0  0  0  0  0  0
    6.3451   -3.1484   -3.9767 C   0  0  0  0  0  0  0  0  0  0  0  0
    7.5572   -3.9985   -4.1628 C   0  0  2  0  0  0  0  0  0  0  0  0
    7.3007   -5.3225   -3.4044 C   0  0  0  0  0  0  0  0  0  0  0  0
    7.2272   -4.8765   -1.9066 C   0  0  0  0  0  0  0  0  0  0  0  0
    7.4314   -3.3352   -1.9637 C   0  0  1  0  0  0  0  0  0  0  0  0
    8.4892   -3.2891   -3.1218 C   0  0  0  0  0  0  0  0  0  0  0  0
    5.3126   -2.6176   -4.6702 N   0  0  0  0  0  0  0  0  0  0  0  0
    4.9381   -2.8830   -6.0077 C   0  0  0  0  0  0  0  0  0  0  0  0
    4.1762   -1.9434   -6.7213 C   0  0  0  0  0  0  0  0  0  0  0  0
    3.8197   -2.2102   -8.0495 C   0  0  0  0  0  0  0  0  0  0  0  0
    4.1925   -3.4088   -8.6453 C   0  0  0  0  0  0  0  0  0  0  0  0
    4.9318   -4.3493   -7.9538 C   0  0  0  0  0  0  0  0  0  0  0  0
    5.3019   -4.0808   -6.6423 C   0  0  0  0  0  0  0  0  0  0  0  0
    5.9540   -5.0553   -5.9945 F   0  0  0  0  0  0  0  0  0  0  0  0
    3.8207   -3.6663   -9.9066 F   0  0  0  0  0  0  0  0  0  0  0  0
    4.6245   -1.7211   -3.8581 N   0  0  0  0  0  0  0  0  0  0  0  0
    3.7245    2.1511    0.9082 H   0  0  0  0  0  0  0  0  0  0  0  0
    4.5256    2.2157   -0.6702 H   0  0  0  0  0  0  0  0  0  0  0  0
    5.0208    1.0198    0.5300 H   0  0  0  0  0  0  0  0  0  0  0  0
    2.1097    0.2591    1.4591 H   0  0  0  0  0  0  0  0  0  0  0  0
    3.3663   -0.9302    1.1362 H   0  0  0  0  0  0  0  0  0  0  0  0
    1.8213   -1.0388    0.2890 H   0  0  0  0  0  0  0  0  0  0  0  0
    1.4961    2.0129   -0.1931 H   0  0  0  0  0  0  0  0  0  0  0  0
    1.1327    0.7623   -1.3907 H   0  0  0  0  0  0  0  0  0  0  0  0
    2.2471    2.0759   -1.7936 H   0  0  0  0  0  0  0  0  0  0  0  0
    3.3151   -0.1747   -2.5043 H   0  0  0  0  0  0  0  0  0  0  0  0
    7.9674   -4.0736   -5.1692 H   0  0  0  0  0  0  0  0  0  0  0  0
    8.1294   -6.0239   -3.5521 H   0  0  0  0  0  0  0  0  0  0  0  0
    6.3723   -5.8162   -3.7119 H   0  0  0  0  0  0  0  0  0  0  0  0
    8.0367   -5.3567   -1.3456 H   0  0  0  0  0  0  0  0  0  0  0  0
    6.2713   -5.1607   -1.4553 H   0  0  0  0  0  0  0  0  0  0  0  0
    7.7309   -2.8584   -1.0309 H   0  0  0  0  0  0  0  0  0  0  0  0
    8.7451   -2.2634   -3.4177 H   0  0  0  0  0  0  0  0  0  0  0  0
    9.4042   -3.8519   -2.9064 H   0  0  0  0  0  0  0  0  0  0  0  0
    3.8919   -0.9971   -6.2692 H   0  0  0  0  0  0  0  0  0  0  0  0
    3.2458   -1.4858   -8.6217 H   0  0  0  0  0  0  0  0  0  0  0  0
    5.2062   -5.2926   -8.4167 H   0  0  0  0  0  0  0  0  0  0  0  0
  1  2  1  0  0  0  0
  1 26  1  0  0  0  0
  1 27  1  0  0  0  0
  1 28  1  0  0  0  0
  2  3  1  0  0  0  0
  2  4  1  0  0  0  0
  2  5  1  0  0  0  0
  3 29  1  0  0  0  0
  3 30  1  0  0  0  0
  3 31  1  0  0  0  0
  4 32  1  0  0  0  0
  4 33  1  0  0  0  0
  4 34  1  0  0  0  0
  5  6  1  0  0  0  0
  5 35  1  0  0  0  0
  6  7  2  0  0  0  0
  6  8  1  0  0  0  0
  8 25  2  0  0  0  0
  8  9  1  0  0  0  0
  9 14  1  0  0  0  0
  9 10  2  0  0  0  0
 10 11  1  0  0  0  0
 10 16  1  0  0  0  0
 11 12  1  0  0  0  0
 11 15  1  0  0  0  0
 11 36  1  6  0  0  0
 12 13  1  0  0  0  0
 12 37  1  0  0  0  0
 12 38  1  0  0  0  0
 13 39  1  0  0  0  0
 13 40  1  0  0  0  0
 14 13  1  0  0  0  0
 14 15  1  0  0  0  0
 14 41  1  1  0  0  0
 15 42  1  0  0  0  0
 15 43  1  0  0  0  0
 16 17  1  0  0  0  0
 16 25  1  0  0  0  0
 17 22  2  0  0  0  0
 17 18  1  0  0  0  0
 18 19  2  0  0  0  0
 18 44  1  0  0  0  0
 19 20  1  0  0  0  0
 19 45  1  0  0  0  0
 20 21  2  0  0  0  0
 20 24  1  0  0  0  0
 21 22  1  0  0  0  0
 21 46  1  0  0  0  0
 22 23  1  0  0  0  0
M  END
$$$$
CHEMBL1668515_5ZTY
 OpenBabel12022418123D

 50 54  0  0  1  0  0  0  0  0999 V2000
    1.5512   -0.7261    0.3038 C   0  0  0  0  0  0  0  0  0  0  0  0
    1.0717    0.5912    0.2808 C   0  0  0  0  0  0  0  0  0  0  0  0
   -0.1621    0.8784   -0.2954 C   0  0  0  0  0  0  0  0  0  0  0  0
   -0.9154   -0.1546   -0.8483 C   0  0  0  0  0  0  0  0  0  0  0  0
   -0.4524   -1.4768   -0.8037 C   0  0  0  0  0  0  0  0  0  0  0  0
    0.7874   -1.7853   -0.2200 C   0  0  0  0  0  0  0  0  0  0  0  0
    1.2344   -3.1535   -0.1216 N   0  0  0  0  0  0  0  0  0  0  0  0
    1.0685   -4.1862   -1.0524 C   0  0  0  0  0  0  0  0  0  0  0  0
    1.5862   -5.3483   -0.4746 C   0  0  0  0  0  0  0  0  0  0  0  0
    1.6082   -6.7178   -1.0773 C   0  0  0  0  0  0  0  0  0  0  0  0
    1.1037   -6.9550   -2.1740 O   0  0  0  0  0  0  0  0  0  0  0  0
    2.2522   -7.7014   -0.3383 N   0  0  0  0  0  0  0  0  0  0  0  0
    2.5574   -9.0592   -0.8062 C   0  0  1  0  0  0  0  0  0  0  0  0
    3.2384   -9.9046    0.3020 C   0  0  0  0  0  0  0  0  0  0  0  0
    2.9823  -11.3376   -0.1776 C   0  0  1  0  0  0  0  0  0  0  0  0
    1.4686  -11.2590   -0.3756 C   0  0  0  0  0  0  0  0  0  0  0  0
    1.3473   -9.9932   -1.2533 C   0  0  2  0  0  0  0  0  0  0  0  0
    1.7202  -10.4554   -2.6771 C   0  0  0  0  0  0  0  0  0  0  0  0
    3.2474  -10.5066   -2.5845 C   0  0  1  0  0  0  0  0  0  0  0  0
    3.5106   -9.1022   -2.0282 C   0  0  0  0  0  0  0  0  0  0  0  0
    3.6793  -11.5751   -1.5446 C   0  0  0  0  0  0  0  0  0  0  0  0
    2.1186   -5.0374    0.7624 N   0  0  0  0  0  0  0  0  0  0  0  0
    1.8937   -3.7443    0.9641 C   0  0  0  0  0  0  0  0  0  0  0  0
    2.2003   -3.0608    2.2567 C   0  0  0  0  0  0  0  0  0  0  0  0
    0.5374   -4.0294   -2.4358 C   0  0  0  0  0  0  0  0  0  0  0  0
    2.5404   -0.8913    0.7219 H   0  0  0  0  0  0  0  0  0  0  0  0
    1.6616    1.3973    0.7135 H   0  0  0  0  0  0  0  0  0  0  0  0
   -0.5356    1.8998   -0.3126 H   0  0  0  0  0  0  0  0  0  0  0  0
   -1.8791    0.0694   -1.3013 H   0  0  0  0  0  0  0  0  0  0  0  0
   -1.1052   -2.2538   -1.1912 H   0  0  0  0  0  0  0  0  0  0  0  0
    2.6953   -7.3541    0.5105 H   0  0  0  0  0  0  0  0  0  0  0  0
    2.7615   -9.7401    1.2776 H   0  0  0  0  0  0  0  0  0  0  0  0
    4.3057   -9.6866    0.4150 H   0  0  0  0  0  0  0  0  0  0  0  0
    3.2750  -12.0943    0.5556 H   0  0  0  0  0  0  0  0  0  0  0  0
    0.9522  -11.1262    0.5824 H   0  0  0  0  0  0  0  0  0  0  0  0
    1.0631  -12.1619   -0.8481 H   0  0  0  0  0  0  0  0  0  0  0  0
    0.3526   -9.5465   -1.2007 H   0  0  0  0  0  0  0  0  0  0  0  0
    1.3948   -9.7212   -3.4224 H   0  0  0  0  0  0  0  0  0  0  0  0
    1.2847  -11.4234   -2.9524 H   0  0  0  0  0  0  0  0  0  0  0  0
    3.7230  -10.6778   -3.5542 H   0  0  0  0  0  0  0  0  0  0  0  0
    4.5603   -8.9505   -1.7580 H   0  0  0  0  0  0  0  0  0  0  0  0
    3.2500   -8.3468   -2.7775 H   0  0  0  0  0  0  0  0  0  0  0  0
    3.4282  -12.5761   -1.9182 H   0  0  0  0  0  0  0  0  0  0  0  0
    4.7674  -11.5401   -1.4131 H   0  0  0  0  0  0  0  0  0  0  0  0
    1.6253   -2.1473    2.4237 H   0  0  0  0  0  0  0  0  0  0  0  0
    3.2667   -2.8189    2.3134 H   0  0  0  0  0  0  0  0  0  0  0  0
    1.9573   -3.7229    3.0938 H   0  0  0  0  0  0  0  0  0  0  0  0
    0.3288   -2.9989   -2.7227 H   0  0  0  0  0  0  0  0  0  0  0  0
   -0.3810   -4.6124   -2.5550 H   0  0  0  0  0  0  0  0  0  0  0  0
    1.2754   -4.3956   -3.1572 H   0  0  0  0  0  0  0  0  0  0  0  0
  1  6  2  0  0  0  0
  1  2  1  0  0  0  0
  1 26  1  0  0  0  0
  2  3  2  0  0  0  0
  2 27  1  0  0  0  0
  3  4  1  0  0  0  0
  3 28  1  0  0  0  0
  4  5  2  0  0  0  0
  4 29  1  0  0  0  0
  5  6  1  0  0  0  0
  5 30  1  0  0  0  0
  6  7  1  0  0  0  0
  7 23  1  0  0  0  0
  7  8  1  0  0  0  0
  8  9  2  0  0  0  0
  8 25  1  0  0  0  0
  9 10  1  0  0  0  0
  9 22  1  0  0  0  0
 10 11  2  0  0  0  0
 10 12  1  0  0  0  0
 12 31  1  0  0  0  0
 13 12  1  1  0  0  0
 13 17  1  0  0  0  0
 13 20  1  0  0  0  0
 13 14  1  0  0  0  0
 14 32  1  0  0  0  0
 14 33  1  0  0  0  0
 15 14  1  0  0  0  0
 15 16  1  0  0  0  0
 15 21  1  0  0  0  0
 15 34  1  1  0  0  0
 16 35  1  0  0  0  0
 16 36  1  0  0  0  0
 17 16  1  0  0  0  0
 17 18  1  0  0  0  0
 17 37  1  1  0  0  0
 18 38  1  0  0  0  0
 18 39  1  0  0  0  0
 19 18  1  0  0  0  0
 19 20  1  0  0  0  0
 19 21  1  0  0  0  0
 19 40  1  6  0  0  0
 20 41  1  0  0  0  0
 20 42  1  0  0  0  0
 21 43  1  0  0  0  0
 21 44  1  0  0  0  0
 22 23  2  0  0  0  0
 23 24  1  0  0  0  0
 24 45  1  0  0  0  0
 24 46  1  0  0  0  0
 24 47  1  0  0  0  0
 25 48  1  0  0  0  0
 25 49  1  0  0  0  0
 25 50  1  0  0  0  0
M  END
$$$$
CHEMBL1668517_5ZTY
 OpenBabel12022418123D

 70 74  0  0  1  0  0  0  0  0999 V2000
   13.9652    2.6789   -2.5528 C   0  0  0  0  0  0  0  0  0  0  0  0
   13.0283    3.5307   -3.3957 C   0  0  0  0  0  0  0  0  0  0  0  0
   11.6641    3.7396   -2.7092 C   0  0  0  0  0  0  0  0  0  0  0  0
   10.7418    4.5903   -3.5869 C   0  0  0  0  0  0  0  0  0  0  0  0
    9.3513    4.9086   -2.9795 C   0  0  0  0  0  0  0  0  0  0  0  0
    9.3492    5.6345   -1.6689 N   0  0  0  0  0  0  0  0  0  0  0  0
    8.7813    5.1036   -0.4789 C   0  0  0  0  0  0  0  0  0  0  0  0
    8.6235    5.6915    0.7430 C   0  0  0  0  0  0  0  0  0  0  0  0
    8.0462    4.8949    1.9679 C   0  0  0  0  0  0  0  0  0  0  0  0
    7.8147    3.6898    1.7958 O   0  0  0  0  0  0  0  0  0  0  0  0
    7.8296    5.4768    3.2534 N   0  0  0  0  0  0  0  0  0  0  0  0
    7.9966    4.6307    4.5226 C   0  0  1  0  0  0  0  0  0  0  0  0
    9.4964    4.6998    5.0090 C   0  0  0  0  0  0  0  0  0  0  0  0
   10.2406    3.5285    4.3672 C   0  0  0  0  0  0  0  0  0  0  0  0
   10.1642    6.0573    4.6834 C   0  0  0  0  0  0  0  0  0  0  0  0
    9.4280    4.6395    6.5729 C   0  0  2  0  0  0  0  0  0  0  0  0
    8.9397    3.2938    7.1029 C   0  0  0  0  0  0  0  0  0  0  0  0
    7.4690    3.3053    6.6779 C   0  0  0  0  0  0  0  0  0  0  0  0
    7.2675    4.7225    5.9754 C   0  0  2  0  0  0  0  0  0  0  0  0
    5.8146    5.1191    6.1325 C   0  0  0  0  0  0  0  0  0  0  0  0
    8.2175    5.5276    6.8789 C   0  0  0  0  0  0  0  0  0  0  0  0
    9.1325    7.0942    0.7865 C   0  0  0  0  0  0  0  0  0  0  0  0
    9.0986    7.7258    1.8397 O   0  0  0  0  0  0  0  0  0  0  0  0
    9.6436    7.7358   -0.4813 C   0  0  0  0  0  0  0  0  0  0  0  0
    9.9769    9.1102   -0.4693 C   0  0  0  0  0  0  0  0  0  0  0  0
   10.3786    9.7766   -1.6311 C   0  0  0  0  0  0  0  0  0  0  0  0
   10.5025   11.2297   -1.6770 C   0  0  0  0  0  0  0  0  0  0  0  0
    9.8727   12.2526   -1.0027 C   0  0  0  0  0  0  0  0  0  0  0  0
   10.3265   13.4615   -1.5790 C   0  0  0  0  0  0  0  0  0  0  0  0
   11.2571   13.1130   -2.5314 C   0  0  0  0  0  0  0  0  0  0  0  0
   11.3725   11.7574   -2.5967 O   0  0  0  0  0  0  0  0  0  0  0  0
   10.4635    9.0612   -2.8181 C   0  0  0  0  0  0  0  0  0  0  0  0
   10.1405    7.6935   -2.8414 C   0  0  0  0  0  0  0  0  0  0  0  0
    9.7182    7.0058   -1.6776 C   0  0  0  0  0  0  0  0  0  0  0  0
   14.9325    2.5675   -3.0548 H   0  0  0  0  0  0  0  0  0  0  0  0
   13.5506    1.6792   -2.3939 H   0  0  0  0  0  0  0  0  0  0  0  0
   14.1439    3.1398   -1.5764 H   0  0  0  0  0  0  0  0  0  0  0  0
   12.8941    3.0503   -4.3730 H   0  0  0  0  0  0  0  0  0  0  0  0
   13.5069    4.5007   -3.5823 H   0  0  0  0  0  0  0  0  0  0  0  0
   11.8192    4.2343   -1.7502 H   0  0  0  0  0  0  0  0  0  0  0  0
   11.1952    2.7708   -2.5246 H   0  0  0  0  0  0  0  0  0  0  0  0
   10.5760    4.0587   -4.5365 H   0  0  0  0  0  0  0  0  0  0  0  0
   11.2834    5.4991   -3.8690 H   0  0  0  0  0  0  0  0  0  0  0  0
    8.7912    3.9708   -2.8932 H   0  0  0  0  0  0  0  0  0  0  0  0
    8.7880    5.4963   -3.7221 H   0  0  0  0  0  0  0  0  0  0  0  0
    8.4430    4.0752   -0.6334 H   0  0  0  0  0  0  0  0  0  0  0  0
    8.0742    6.4643    3.3130 H   0  0  0  0  0  0  0  0  0  0  0  0
    7.7448    3.6192    4.1812 H   0  0  0  0  0  0  0  0  0  0  0  0
   10.1788    3.5863    3.2759 H   0  0  0  0  0  0  0  0  0  0  0  0
    9.7808    2.5702    4.6368 H   0  0  0  0  0  0  0  0  0  0  0  0
   11.2914    3.4974    4.6560 H   0  0  0  0  0  0  0  0  0  0  0  0
   10.4715    6.1269    3.6391 H   0  0  0  0  0  0  0  0  0  0  0  0
   11.0481    6.2250    5.3083 H   0  0  0  0  0  0  0  0  0  0  0  0
    9.4876    6.8985    4.8832 H   0  0  0  0  0  0  0  0  0  0  0  0
   10.3507    4.9549    7.0702 H   0  0  0  0  0  0  0  0  0  0  0  0
    9.0181    3.2695    8.1996 H   0  0  0  0  0  0  0  0  0  0  0  0
    9.4979    2.4291    6.7374 H   0  0  0  0  0  0  0  0  0  0  0  0
    6.8491    3.1988    7.5795 H   0  0  0  0  0  0  0  0  0  0  0  0
    7.2311    2.4664    6.0182 H   0  0  0  0  0  0  0  0  0  0  0  0
    5.1470    4.3804    5.6804 H   0  0  0  0  0  0  0  0  0  0  0  0
    5.6037    6.1101    5.7304 H   0  0  0  0  0  0  0  0  0  0  0  0
    5.5520    5.1506    7.2040 H   0  0  0  0  0  0  0  0  0  0  0  0
    8.3162    6.5778    6.6031 H   0  0  0  0  0  0  0  0  0  0  0  0
    7.9476    5.4890    7.9460 H   0  0  0  0  0  0  0  0  0  0  0  0
    9.9124    9.6543    0.4657 H   0  0  0  0  0  0  0  0  0  0  0  0
    9.1029   12.1250   -0.2584 H   0  0  0  0  0  0  0  0  0  0  0  0
    9.9958   14.4625   -1.3374 H   0  0  0  0  0  0  0  0  0  0  0  0
   11.8730   13.6834   -3.2135 H   0  0  0  0  0  0  0  0  0  0  0  0
   10.7688    9.5467   -3.7528 H   0  0  0  0  0  0  0  0  0  0  0  0
   10.1809    7.2280   -3.8223 H   0  0  0  0  0  0  0  0  0  0  0  0
  1  2  1  0  0  0  0
  1 35  1  0  0  0  0
  1 36  1  0  0  0  0
  1 37  1  0  0  0  0
  2  3  1  0  0  0  0
  2 38  1  0  0  0  0
  2 39  1  0  0  0  0
  3  4  1  0  0  0  0
  3 40  1  0  0  0  0
  3 41  1  0  0  0  0
  4  5  1  0  0  0  0
  4 42  1  0  0  0  0
  4 43  1  0  0  0  0
  5  6  1  0  0  0  0
  5 44  1  0  0  0  0
  5 45  1  0  0  0  0
  6 34  1  0  0  0  0
  6  7  1  0  0  0  0
  7  8  2  0  0  0  0
  7 46  1  0  0  0  0
  8  9  1  0  0  0  0
  8 22  1  0  0  0  0
  9 10  2  0  0  0  0
  9 11  1  0  0  0  0
 11 47  1  0  0  0  0
 12 13  1  0  0  0  0
 12 19  1  0  0  0  0
 12 11  1  0  0  0  0
 12 48  1  6  0  0  0
 13 14  1  0  0  0  0
 13 15  1  0  0  0  0
 13 16  1  0  0  0  0
 14 49  1  0  0  0  0
 14 50  1  0  0  0  0
 14 51  1  0  0  0  0
 15 52  1  0  0  0  0
 15 53  1  0  0  0  0
 15 54  1  0  0  0  0
 16 17  1  0  0  0  0
 16 21  1  0  0  0  0
 16 55  1  1  0  0  0
 17 18  1  0  0  0  0
 17 56  1  0  0  0  0
 17 57  1  0  0  0  0
 18 19  1  0  0  0  0
 18 58  1  0  0  0  0
 18 59  1  0  0  0  0
 19 20  1  6  0  0  0
 19 21  1  0  0  0  0
 20 60  1  0  0  0  0
 20 61  1  0  0  0  0
 20 62  1  0  0  0  0
 21 63  1  0  0  0  0
 21 64  1  0  0  0  0
 22 23  2  0  0  0  0
 22 24  1  0  0  0  0
 24 34  2  0  0  0  0
 24 25  1  0  0  0  0
 25 26  2  0  0  0  0
 25 65  1  0  0  0  0
 26 27  1  0  0  0  0
 26 32  1  0  0  0  0
 27 31  1  0  0  0  0
 27 28  2  0  0  0  0
 28 29  1  0  0  0  0
 28 66  1  0  0  0  0
 29 30  2  0  0  0  0
 29 67  1  0  0  0  0
 30 31  1  0  0  0  0
 30 68  1  0  0  0  0
 32 33  2  0  0  0  0
 32 69  1  0  0  0  0
 33 34  1  0  0  0  0
 33 70  1  0  0  0  0
M  END
$$$$
CHEMBL3353836_6PT0
 OpenBabel12022418123D

 47 51  0  0  0  0  0  0  0  0999 V2000
   -3.8532    5.1999    1.6858 C   0  0  0  0  0  0  0  0  0  0  0  0
   -2.6922    4.8302    1.0027 C   0  0  0  0  0  0  0  0  0  0  0  0
   -2.5024    3.5038    0.6162 C   0  0  0  0  0  0  0  0  0  0  0  0
   -3.4804    2.5474    0.9056 C   0  0  0  0  0  0  0  0  0  0  0  0
   -4.6440    2.9111    1.5941 C   0  0  0  0  0  0  0  0  0  0  0  0
   -4.8252    4.2429    1.9791 C   0  0  0  0  0  0  0  0  0  0  0  0
   -3.2160    0.8402    0.4797 S   0  0  0  0  0  0  0  0  0  0  0  0
   -1.9165    0.6939   -0.1468 O   0  0  0  0  0  0  0  0  0  0  0  0
   -3.5870    0.0414    1.6356 O   0  0  0  0  0  0  0  0  0  0  0  0
   -4.3359    0.4971   -0.7445 N   0  0  0  0  0  0  0  0  0  0  0  0
   -5.4221   -0.3627   -0.7022 C   0  0  0  0  0  0  0  0  0  0  0  0
   -5.9185   -1.2504    0.2698 C   0  0  0  0  0  0  0  0  0  0  0  0
   -7.1651   -1.8475    0.0481 C   0  0  0  0  0  0  0  0  0  0  0  0
   -7.8894   -1.5938   -1.1112 C   0  0  0  0  0  0  0  0  0  0  0  0
   -7.3376   -0.8154   -2.1312 C   0  0  0  0  0  0  0  0  0  0  0  0
   -6.0788   -0.2078   -1.9401 C   0  0  0  0  0  0  0  0  0  0  0  0
   -5.2590    0.6243   -2.7492 C   0  0  0  0  0  0  0  0  0  0  0  0
   -4.2845    1.1620   -1.9343 C   0  0  0  0  0  0  0  0  0  0  0  0
   -3.4845    2.1861   -2.2641 N   0  0  0  0  0  0  0  0  0  0  0  0
   -3.6999    2.6065   -3.5196 C   0  0  0  0  0  0  0  0  0  0  0  0
   -2.9730    4.1799   -3.8750 S   0  0  0  0  0  0  0  0  0  0  0  0
   -2.6533    4.0063   -5.6487 C   0  0  0  0  0  0  0  0  0  0  0  0
   -1.8427    5.1970   -6.1182 C   0  0  0  0  0  0  0  0  0  0  0  0
   -0.4383    5.1225   -6.0535 C   0  0  0  0  0  0  0  0  0  0  0  0
    0.3545    6.2148   -6.4043 C   0  0  0  0  0  0  0  0  0  0  0  0
   -0.2407    7.4043   -6.8120 C   0  0  0  0  0  0  0  0  0  0  0  0
   -1.6315    7.5023   -6.8711 C   0  0  0  0  0  0  0  0  0  0  0  0
   -2.4391    6.4072   -6.5282 C   0  0  0  0  0  0  0  0  0  0  0  0
   -3.8691    6.5667   -6.5928 C   0  0  0  0  0  0  0  0  0  0  0  0
   -5.0190    6.6870   -6.6570 N   0  0  0  0  0  0  0  0  0  0  0  0
   -4.5386    2.0250   -4.4137 N   0  0  0  0  0  0  0  0  0  0  0  0
   -5.3497    1.0257   -4.0425 N   0  0  0  0  0  0  0  0  0  0  0  0
   -3.9950    6.2333    1.9960 H   0  0  0  0  0  0  0  0  0  0  0  0
   -1.9344    5.5809    0.7818 H   0  0  0  0  0  0  0  0  0  0  0  0
   -1.5888    3.2303    0.0860 H   0  0  0  0  0  0  0  0  0  0  0  0
   -5.3959    2.1731    1.8544 H   0  0  0  0  0  0  0  0  0  0  0  0
   -5.7199    4.5352    2.5252 H   0  0  0  0  0  0  0  0  0  0  0  0
   -5.3817   -1.4661    1.1898 H   0  0  0  0  0  0  0  0  0  0  0  0
   -7.5836   -2.5072    0.8068 H   0  0  0  0  0  0  0  0  0  0  0  0
   -8.8876   -2.0102   -1.2295 H   0  0  0  0  0  0  0  0  0  0  0  0
   -7.8998   -0.6372   -3.0454 H   0  0  0  0  0  0  0  0  0  0  0  0
   -3.5885    3.9199   -6.2110 H   0  0  0  0  0  0  0  0  0  0  0  0
   -2.0873    3.0853   -5.8301 H   0  0  0  0  0  0  0  0  0  0  0  0
    0.0476    4.2113   -5.7066 H   0  0  0  0  0  0  0  0  0  0  0  0
    1.4380    6.1389   -6.3473 H   0  0  0  0  0  0  0  0  0  0  0  0
    0.3778    8.2583   -7.0769 H   0  0  0  0  0  0  0  0  0  0  0  0
   -2.0825    8.4443   -7.1784 H   0  0  0  0  0  0  0  0  0  0  0  0
  1  6  2  0  0  0  0
  1  2  1  0  0  0  0
  1 33  1  0  0  0  0
  2  3  2  0  0  0  0
  2 34  1  0  0  0  0
  3  4  1  0  0  0  0
  3 35  1  0  0  0  0
  4  5  2  0  0  0  0
  4  7  1  0  0  0  0
  5  6  1  0  0  0  0
  5 36  1  0  0  0  0
  6 37  1  0  0  0  0
  7  8  2  0  0  0  0
  7  9  2  0  0  0  0
  7 10  1  0  0  0  0
 10 18  1  0  0  0  0
 10 11  1  0  0  0  0
 11 16  2  0  0  0  0
 11 12  1  0  0  0  0
 12 13  2  0  0  0  0
 12 38  1  0  0  0  0
 13 14  1  0  0  0  0
 13 39  1  0  0  0  0
 14 15  2  0  0  0  0
 14 40  1  0  0  0  0
 15 16  1  0  0  0  0
 15 41  1  0  0  0  0
 16 17  1  0  0  0  0
 17 32  2  0  0  0  0
 17 18  1  0  0  0  0
 18 19  2  0  0  0  0
 19 20  1  0  0  0  0
 20 21  1  0  0  0  0
 20 31  2  0  0  0  0
 21 22  1  0  0  0  0
 22 23  1  0  0  0  0
 22 42  1  0  0  0  0
 22 43  1  0  0  0  0
 23 28  2  0  0  0  0
 23 24  1  0  0  0  0
 24 25  2  0  0  0  0
 24 44  1  0  0  0  0
 25 26  1  0  0  0  0
 25 45  1  0  0  0  0
 26 27  2  0  0  0  0
 26 46  1  0  0  0  0
 27 28  1  0  0  0  0
 27 47  1  0  0  0  0
 28 29  1  0  0  0  0
 29 30  3  0  0  0  0
 31 32  1  0  0  0  0
M  END
$$$$
CHEMBL2381807_5ZTY
 OpenBabel12022418123D

 56 58  0  0  0  0  0  0  0  0999 V2000
    0.9568    0.0137   -0.0312 C   0  0  0  0  0  0  0  0  0  0  0  0
    0.3911   -0.0213    1.3923 C   0  0  0  0  0  0  0  0  0  0  0  0
   -1.1418   -0.0443    1.3967 C   0  0  0  0  0  0  0  0  0  0  0  0
   -1.6894   -0.0633    2.8256 C   0  0  0  0  0  0  0  0  0  0  0  0
   -3.2094   -0.0788    2.8551 C   0  0  0  0  0  0  0  0  0  0  0  0
    2.4321   -0.0373   -0.0185 N   0  0  0  0  0  0  0  0  0  0  0  0
    3.2190    1.1118   -0.0676 C   0  0  0  0  0  0  0  0  0  0  0  0
    4.5684    1.1379   -0.1018 C   0  0  0  0  0  0  0  0  0  0  0  0
    5.2883   -0.1634   -0.0684 C   0  0  0  0  0  0  0  0  0  0  0  0
    6.5110   -0.2734   -0.0951 O   0  0  0  0  0  0  0  0  0  0  0  0
    4.4440   -1.2893   -0.0158 N   0  0  0  0  0  0  0  0  0  0  0  0
    3.0582   -1.2516    0.0053 C   0  0  0  0  0  0  0  0  0  0  0  0
    2.6349   -2.5578    0.0309 C   0  0  0  0  0  0  0  0  0  0  0  0
    3.8188   -3.3310    0.0073 C   0  0  0  0  0  0  0  0  0  0  0  0
    3.9224   -4.8198   -0.0328 C   0  0  0  0  0  0  0  0  0  0  0  0
    3.9474   -5.4475    1.3514 C   0  0  0  0  0  0  0  0  0  0  0  0
    4.9191   -2.5671   -0.0043 N   0  0  0  0  0  0  0  0  0  0  0  0
    5.2454    2.4648   -0.1860 C   0  0  0  0  0  0  0  0  0  0  0  0
    4.5889    3.5021   -0.2498 O   0  0  0  0  0  0  0  0  0  0  0  0
    6.6214    2.4584   -0.1915 N   0  0  0  0  0  0  0  0  0  0  0  0
    7.3982    3.6867   -0.3432 C   0  0  0  0  0  0  0  0  0  0  0  0
    8.7399    3.6053    0.3970 C   0  0  0  0  0  0  0  0  0  0  0  0
    9.5348    4.9052    0.2502 C   0  0  0  0  0  0  0  0  0  0  0  0
    9.7309    5.2968   -1.2128 C   0  0  0  0  0  0  0  0  0  0  0  0
    8.4076    5.3318   -1.9731 C   0  0  0  0  0  0  0  0  0  0  0  0
    7.6334    4.0218   -1.8230 C   0  0  0  0  0  0  0  0  0  0  0  0
    0.6195    0.9263   -0.5394 H   0  0  0  0  0  0  0  0  0  0  0  0
    0.5498   -0.8182   -0.6207 H   0  0  0  0  0  0  0  0  0  0  0  0
    0.7479    0.8543    1.9485 H   0  0  0  0  0  0  0  0  0  0  0  0
    0.7653   -0.9052    1.9230 H   0  0  0  0  0  0  0  0  0  0  0  0
   -1.4989   -0.9297    0.8562 H   0  0  0  0  0  0  0  0  0  0  0  0
   -1.5269    0.8349    0.8661 H   0  0  0  0  0  0  0  0  0  0  0  0
   -1.3314    0.8177    3.3709 H   0  0  0  0  0  0  0  0  0  0  0  0
   -1.3135   -0.9466    3.3550 H   0  0  0  0  0  0  0  0  0  0  0  0
   -3.6233    0.8078    2.3643 H   0  0  0  0  0  0  0  0  0  0  0  0
   -3.5668   -0.0885    3.8908 H   0  0  0  0  0  0  0  0  0  0  0  0
   -3.6058   -0.9675    2.3537 H   0  0  0  0  0  0  0  0  0  0  0  0
    2.6396    2.0327   -0.0927 H   0  0  0  0  0  0  0  0  0  0  0  0
    1.6173   -2.9200    0.0427 H   0  0  0  0  0  0  0  0  0  0  0  0
    4.8226   -5.1164   -0.5844 H   0  0  0  0  0  0  0  0  0  0  0  0
    3.0688   -5.2232   -0.5916 H   0  0  0  0  0  0  0  0  0  0  0  0
    4.8155   -5.1065    1.9250 H   0  0  0  0  0  0  0  0  0  0  0  0
    4.0000   -6.5381    1.2703 H   0  0  0  0  0  0  0  0  0  0  0  0
    3.0464   -5.1933    1.9200 H   0  0  0  0  0  0  0  0  0  0  0  0
    7.1098    1.5643   -0.2160 H   0  0  0  0  0  0  0  0  0  0  0  0
    6.8138    4.5013    0.1033 H   0  0  0  0  0  0  0  0  0  0  0  0
    9.3354    2.7686    0.0099 H   0  0  0  0  0  0  0  0  0  0  0  0
    8.5702    3.4026    1.4612 H   0  0  0  0  0  0  0  0  0  0  0  0
   10.5121    4.8005    0.7355 H   0  0  0  0  0  0  0  0  0  0  0  0
    9.0074    5.7139    0.7717 H   0  0  0  0  0  0  0  0  0  0  0  0
   10.4086    4.5812   -1.6941 H   0  0  0  0  0  0  0  0  0  0  0  0
   10.2146    6.2792   -1.2698 H   0  0  0  0  0  0  0  0  0  0  0  0
    8.5978    5.5332   -3.0336 H   0  0  0  0  0  0  0  0  0  0  0  0
    7.7951    6.1611   -1.5971 H   0  0  0  0  0  0  0  0  0  0  0  0
    6.6779    4.1008   -2.3543 H   0  0  0  0  0  0  0  0  0  0  0  0
    8.1935    3.2104   -2.3063 H   0  0  0  0  0  0  0  0  0  0  0  0
  1  2  1  0  0  0  0
  1  6  1  0  0  0  0
  1 27  1  0  0  0  0
  1 28  1  0  0  0  0
  2  3  1  0  0  0  0
  2 29  1  0  0  0  0
  2 30  1  0  0  0  0
  3  4  1  0  0  0  0
  3 31  1  0  0  0  0
  3 32  1  0  0  0  0
  4  5  1  0  0  0  0
  4 33  1  0  0  0  0
  4 34  1  0  0  0  0
  5 35  1  0  0  0  0
  5 36  1  0  0  0  0
  5 37  1  0  0  0  0
  6 12  1  0  0  0  0
  6  7  1  0  0  0  0
  7  8  2  0  0  0  0
  7 38  1  0  0  0  0
  8  9  1  0  0  0  0
  8 18  1  0  0  0  0
  9 10  2  0  0  0  0
  9 11  1  0  0  0  0
 11 17  1  0  0  0  0
 11 12  1  0  0  0  0
 12 13  2  0  0  0  0
 13 14  1  0  0  0  0
 13 39  1  0  0  0  0
 14 15  1  0  0  0  0
 14 17  2  0  0  0  0
 15 16  1  0  0  0  0
 15 40  1  0  0  0  0
 15 41  1  0  0  0  0
 16 42  1  0  0  0  0
 16 43  1  0  0  0  0
 16 44  1  0  0  0  0
 18 19  2  0  0  0  0
 18 20  1  0  0  0  0
 20 21  1  0  0  0  0
 20 45  1  0  0  0  0
 21 26  1  0  0  0  0
 21 22  1  0  0  0  0
 21 46  1  0  0  0  0
 22 23  1  0  0  0  0
 22 47  1  0  0  0  0
 22 48  1  0  0  0  0
 23 24  1  0  0  0  0
 23 49  1  0  0  0  0
 23 50  1  0  0  0  0
 24 25  1  0  0  0  0
 24 51  1  0  0  0  0
 24 52  1  0  0  0  0
 25 26  1  0  0  0  0
 25 53  1  0  0  0  0
 25 54  1  0  0  0  0
 26 55  1  0  0  0  0
 26 56  1  0  0  0  0
M  END
$$$$
CHEMBL3354947_8GUQ
 OpenBabel12022418123D

 49 53  0  0  1  0  0  0  0  0999 V2000
    4.3117    1.5297   -0.8911 C   0  0  0  0  0  0  0  0  0  0  0  0
    3.1627    0.5282   -1.1774 C   0  0  0  0  0  0  0  0  0  0  0  0
    2.3586    0.3585    0.1363 C   0  0  0  0  0  0  0  0  0  0  0  0
    2.2895    1.1340   -2.3026 C   0  0  0  0  0  0  0  0  0  0  0  0
    0.9324    1.4549   -2.1276 C   0  0  0  0  0  0  0  0  0  0  0  0
    0.2342    2.0883   -3.1484 C   0  0  0  0  0  0  0  0  0  0  0  0
    0.7776    2.4237   -4.3330 N   0  0  0  0  0  0  0  0  0  0  0  0
    2.0746    2.1005   -4.5063 C   0  0  0  0  0  0  0  0  0  0  0  0
    2.8529    1.4623   -3.5470 C   0  0  0  0  0  0  0  0  0  0  0  0
    3.6995   -0.7819   -1.6001 N   0  0  0  0  0  0  0  0  0  0  0  0
    4.5503   -1.5422   -0.8170 C   0  0  0  0  0  0  0  0  0  0  0  0
    4.9793   -1.1632    0.2698 O   0  0  0  0  0  0  0  0  0  0  0  0
    4.9319   -2.8655   -1.3366 C   0  0  0  0  0  0  0  0  0  0  0  0
    5.8139   -3.7532   -0.6954 C   0  0  0  0  0  0  0  0  0  0  0  0
    5.9239   -4.8337   -1.5191 C   0  0  0  0  0  0  0  0  0  0  0  0
    7.0547   -5.7413   -1.0845 C   0  0  1  0  0  0  0  0  0  0  0  0
    7.6495   -4.9697    0.1236 C   0  0  1  0  0  0  0  0  0  0  0  0
    6.7640   -3.7497    0.4428 C   0  0  0  0  0  0  0  0  0  0  0  0
    7.1187   -6.3538    0.2936 C   0  0  0  0  0  0  0  0  0  0  0  0
    5.1510   -4.6109   -2.6163 N   0  0  0  0  0  0  0  0  0  0  0  0
    4.9167   -5.5223   -3.6702 C   0  0  0  0  0  0  0  0  0  0  0  0
    4.9792   -6.9077   -3.4234 C   0  0  0  0  0  0  0  0  0  0  0  0
    4.7293   -7.8127   -4.4572 C   0  0  0  0  0  0  0  0  0  0  0  0
    4.4516   -7.3348   -5.7327 C   0  0  0  0  0  0  0  0  0  0  0  0
    4.4056   -5.9708   -5.9929 C   0  0  0  0  0  0  0  0  0  0  0  0
    4.6217   -5.0661   -4.9553 C   0  0  0  0  0  0  0  0  0  0  0  0
    4.6244   -3.7594   -5.2528 F   0  0  0  0  0  0  0  0  0  0  0  0
    4.2292   -8.2053   -6.7258 F   0  0  0  0  0  0  0  0  0  0  0  0
    4.5287   -3.3837   -2.5248 N   0  0  0  0  0  0  0  0  0  0  0  0
    3.9179    2.5223   -0.6402 H   0  0  0  0  0  0  0  0  0  0  0  0
    4.9811    1.6452   -1.7510 H   0  0  0  0  0  0  0  0  0  0  0  0
    4.9376    1.2160   -0.0502 H   0  0  0  0  0  0  0  0  0  0  0  0
    1.9642    1.3185    0.4913 H   0  0  0  0  0  0  0  0  0  0  0  0
    2.9656   -0.0427    0.9529 H   0  0  0  0  0  0  0  0  0  0  0  0
    1.5180   -0.3327    0.0026 H   0  0  0  0  0  0  0  0  0  0  0  0
    0.3962    1.2499   -1.2080 H   0  0  0  0  0  0  0  0  0  0  0  0
   -0.8111    2.3589   -3.0237 H   0  0  0  0  0  0  0  0  0  0  0  0
    2.4941    2.3892   -5.4663 H   0  0  0  0  0  0  0  0  0  0  0  0
    3.8944    1.2536   -3.7703 H   0  0  0  0  0  0  0  0  0  0  0  0
    3.3819   -1.2143   -2.4628 H   0  0  0  0  0  0  0  0  0  0  0  0
    7.6498   -6.2281   -1.8448 H   0  0  0  0  0  0  0  0  0  0  0  0
    8.7117   -4.7778    0.1507 H   0  0  0  0  0  0  0  0  0  0  0  0
    6.2528   -3.8805    1.4016 H   0  0  0  0  0  0  0  0  0  0  0  0
    7.3646   -2.8361    0.4615 H   0  0  0  0  0  0  0  0  0  0  0  0
    7.8422   -7.1470    0.4556 H   0  0  0  0  0  0  0  0  0  0  0  0
    6.1926   -6.5026    0.8367 H   0  0  0  0  0  0  0  0  0  0  0  0
    5.1677   -7.3014   -2.4263 H   0  0  0  0  0  0  0  0  0  0  0  0
    4.7420   -8.8840   -4.2755 H   0  0  0  0  0  0  0  0  0  0  0  0
    4.2131   -5.6136   -6.9980 H   0  0  0  0  0  0  0  0  0  0  0  0
  1  2  1  0  0  0  0
  1 30  1  0  0  0  0
  1 31  1  0  0  0  0
  1 32  1  0  0  0  0
  2  3  1  0  0  0  0
  2  4  1  0  0  0  0
  2 10  1  0  0  0  0
  3 33  1  0  0  0  0
  3 34  1  0  0  0  0
  3 35  1  0  0  0  0
  4  9  2  0  0  0  0
  4  5  1  0  0  0  0
  5  6  2  0  0  0  0
  5 36  1  0  0  0  0
  6  7  1  0  0  0  0
  6 37  1  0  0  0  0
  7  8  2  0  0  0  0
  8  9  1  0  0  0  0
  8 38  1  0  0  0  0
  9 39  1  0  0  0  0
 10 11  1  0  0  0  0
 10 40  1  0  0  0  0
 11 12  2  0  0  0  0
 11 13  1  0  0  0  0
 13 29  2  0  0  0  0
 13 14  1  0  0  0  0
 14 18  1  0  0  0  0
 14 15  2  0  0  0  0
 15 16  1  0  0  0  0
 15 20  1  0  0  0  0
 16 17  1  0  0  0  0
 16 19  1  0  0  0  0
 16 41  1  6  0  0  0
 17 18  1  0  0  0  0
 17 19  1  0  0  0  0
 17 42  1  1  0  0  0
 18 43  1  0  0  0  0
 18 44  1  0  0  0  0
 19 45  1  0  0  0  0
 19 46  1  0  0  0  0
 20 21  1  0  0  0  0
 20 29  1  0  0  0  0
 21 26  2  0  0  0  0
 21 22  1  0  0  0  0
 22 23  2  0  0  0  0
 22 47  1  0  0  0  0
 23 24  1  0  0  0  0
 23 48  1  0  0  0  0
 24 25  2  0  0  0  0
 24 28  1  0  0  0  0
 25 26  1  0  0  0  0
 25 49  1  0  0  0  0
 26 27  1  0  0  0  0
M  END
$$$$
CHEMBL3354955_8GUQ
 OpenBabel12022418133D

 48 52  0  0  1  0  0  0  0  0999 V2000
   -3.4233   -0.4368   -1.9501 C   0  0  0  0  0  0  0  0  0  0  0  0
   -2.3957   -1.3541   -2.5831 C   0  0  0  0  0  0  0  0  0  0  0  0
   -1.8135   -2.0965   -1.3903 C   0  0  0  0  0  0  0  0  0  0  0  0
   -1.8260   -1.0907   -0.2055 C   0  0  0  0  0  0  0  0  0  0  0  0
   -2.7048    0.0853   -0.7125 C   0  0  0  0  0  0  0  0  0  0  0  0
   -0.3855   -0.5790    0.0859 C   0  0  0  0  0  0  0  0  0  0  0  0
   -0.3638    0.3878    1.1370 O   0  0  0  0  0  0  0  0  0  0  0  0
   -2.4334   -1.7188    0.9875 N   0  0  0  0  0  0  0  0  0  0  0  0
   -1.8850   -2.8379    1.5895 C   0  0  0  0  0  0  0  0  0  0  0  0
   -0.9257   -3.4344    1.1016 O   0  0  0  0  0  0  0  0  0  0  0  0
   -2.5272   -3.3045    2.8261 C   0  0  0  0  0  0  0  0  0  0  0  0
   -2.1423   -4.4561    3.5317 C   0  0  0  0  0  0  0  0  0  0  0  0
   -3.0116   -4.5625    4.5746 C   0  0  0  0  0  0  0  0  0  0  0  0
   -2.9095   -5.9160    5.2395 C   0  0  1  0  0  0  0  0  0  0  0  0
   -1.8466   -6.6322    4.3647 C   0  0  1  0  0  0  0  0  0  0  0  0
   -1.2628   -5.6347    3.3454 C   0  0  0  0  0  0  0  0  0  0  0  0
   -1.6212   -6.4354    5.8268 C   0  0  0  0  0  0  0  0  0  0  0  0
   -3.8694   -3.5124    4.5240 N   0  0  0  0  0  0  0  0  0  0  0  0
   -4.8757   -3.1910    5.4636 C   0  0  0  0  0  0  0  0  0  0  0  0
   -4.7020   -3.5042    6.8193 C   0  0  0  0  0  0  0  0  0  0  0  0
   -5.6720   -3.1767    7.7604 C   0  0  0  0  0  0  0  0  0  0  0  0
   -6.8415   -2.5625    7.3374 C   0  0  0  0  0  0  0  0  0  0  0  0
   -7.0427   -2.2578    5.9914 C   0  0  0  0  0  0  0  0  0  0  0  0
   -6.0492   -2.5493    5.0496 C   0  0  0  0  0  0  0  0  0  0  0  0
   -7.7844   -2.2526    8.2339 F   0  0  0  0  0  0  0  0  0  0  0  0
   -3.5677   -4.0573    7.2717 F   0  0  0  0  0  0  0  0  0  0  0  0
   -3.6286   -2.7434    3.3983 N   0  0  0  0  0  0  0  0  0  0  0  0
   -3.7245    0.3696   -2.6256 H   0  0  0  0  0  0  0  0  0  0  0  0
   -4.3182   -0.9999   -1.6627 H   0  0  0  0  0  0  0  0  0  0  0  0
   -1.6145   -0.7711   -3.0849 H   0  0  0  0  0  0  0  0  0  0  0  0
   -2.8388   -2.0345   -3.3161 H   0  0  0  0  0  0  0  0  0  0  0  0
   -0.8138   -2.4847   -1.6126 H   0  0  0  0  0  0  0  0  0  0  0  0
   -2.4547   -2.9615   -1.1761 H   0  0  0  0  0  0  0  0  0  0  0  0
   -3.4103    0.4611    0.0349 H   0  0  0  0  0  0  0  0  0  0  0  0
   -2.0797    0.9331   -1.0228 H   0  0  0  0  0  0  0  0  0  0  0  0
    0.0548   -0.1179   -0.8070 H   0  0  0  0  0  0  0  0  0  0  0  0
    0.2830   -1.3934    0.3796 H   0  0  0  0  0  0  0  0  0  0  0  0
   -0.7414    1.2132    0.7925 H   0  0  0  0  0  0  0  0  0  0  0  0
   -3.1554   -1.2472    1.5196 H   0  0  0  0  0  0  0  0  0  0  0  0
   -3.8124   -6.3797    5.6112 H   0  0  0  0  0  0  0  0  0  0  0  0
   -2.0733   -7.6087    3.9645 H   0  0  0  0  0  0  0  0  0  0  0  0
   -0.2195   -5.4031    3.5814 H   0  0  0  0  0  0  0  0  0  0  0  0
   -1.3370   -6.0361    2.3312 H   0  0  0  0  0  0  0  0  0  0  0  0
   -1.6848   -7.3105    6.4656 H   0  0  0  0  0  0  0  0  0  0  0  0
   -0.8888   -5.7111    6.1640 H   0  0  0  0  0  0  0  0  0  0  0  0
   -5.5099   -3.3876    8.8124 H   0  0  0  0  0  0  0  0  0  0  0  0
   -7.9773   -1.7959    5.6867 H   0  0  0  0  0  0  0  0  0  0  0  0
   -6.2188   -2.3180    4.0002 H   0  0  0  0  0  0  0  0  0  0  0  0
  1  5  1  0  0  0  0
  1  2  1  0  0  0  0
  1 28  1  0  0  0  0
  1 29  1  0  0  0  0
  2  3  1  0  0  0  0
  2 30  1  0  0  0  0
  2 31  1  0  0  0  0
  3  4  1  0  0  0  0
  3 32  1  0  0  0  0
  3 33  1  0  0  0  0
  4  5  1  0  0  0  0
  4  6  1  0  0  0  0
  4  8  1  0  0  0  0
  5 34  1  0  0  0  0
  5 35  1  0  0  0  0
  6  7  1  0  0  0  0
  6 36  1  0  0  0  0
  6 37  1  0  0  0  0
  7 38  1  0  0  0  0
  8  9  1  0  0  0  0
  8 39  1  0  0  0  0
  9 10  2  0  0  0  0
  9 11  1  0  0  0  0
 11 27  2  0  0  0  0
 11 12  1  0  0  0  0
 12 16  1  0  0  0  0
 12 13  2  0  0  0  0
 13 14  1  0  0  0  0
 13 18  1  0  0  0  0
 14 15  1  0  0  0  0
 14 17  1  0  0  0  0
 14 40  1  1  0  0  0
 15 16  1  0  0  0  0
 15 17  1  0  0  0  0
 15 41  1  6  0  0  0
 16 42  1  0  0  0  0
 16 43  1  0  0  0  0
 17 44  1  0  0  0  0
 17 45  1  0  0  0  0
 18 19  1  0  0  0  0
 18 27  1  0  0  0  0
 19 24  2  0  0  0  0
 19 20  1  0  0  0  0
 20 21  2  0  0  0  0
 20 26  1  0  0  0  0
 21 22  1  0  0  0  0
 21 46  1  0  0  0  0
 22 23  2  0  0  0  0
 22 25  1  0  0  0  0
 23 24  1  0  0  0  0
 23 47  1  0  0  0  0
 24 48  1  0  0  0  0
M  END
$$$$
CHEMBL3354964_8GUQ
 OpenBabel12022418133D

 42 46  0  0  1  0  0  0  0  0999 V2000
    4.3031   -4.7844    2.3205 C   0  0  0  0  0  0  0  0  0  0  0  0
    3.9949   -5.6636    1.1481 C   0  0  0  0  0  0  0  0  0  0  0  0
    3.7096   -4.1750    1.0743 C   0  0  0  0  0  0  0  0  0  0  0  0
    4.6145   -3.3456    0.1716 C   0  0  0  0  0  0  0  0  0  0  0  0
    5.1977   -2.2787    0.9072 O   0  0  0  0  0  0  0  0  0  0  0  0
    2.3131   -3.8333    1.0383 N   0  0  0  0  0  0  0  0  0  0  0  0
    1.6666   -2.7547    1.6153 C   0  0  0  0  0  0  0  0  0  0  0  0
    2.1917   -1.8992    2.3164 O   0  0  0  0  0  0  0  0  0  0  0  0
    0.2675   -2.7293    1.1517 C   0  0  0  0  0  0  0  0  0  0  0  0
   -0.7759   -1.7512    1.3217 C   0  0  0  0  0  0  0  0  0  0  0  0
   -1.3443   -1.7814    0.0678 C   0  0  0  0  0  0  0  0  0  0  0  0
   -0.9750   -0.4446   -0.5926 C   0  0  2  0  0  0  0  0  0  0  0  0
   -0.5814    0.4469    0.6437 C   0  0  2  0  0  0  0  0  0  0  0  0
   -0.7865   -0.3825    1.8986 C   0  0  0  0  0  0  0  0  0  0  0  0
   -1.6740    0.8488   -0.2999 C   0  0  0  0  0  0  0  0  0  0  0  0
   -1.2873   -3.1198   -0.2558 N   0  0  0  0  0  0  0  0  0  0  0  0
   -2.4027   -3.9955   -0.3831 C   0  0  0  0  0  0  0  0  0  0  0  0
   -3.6918   -3.4904   -0.5821 C   0  0  0  0  0  0  0  0  0  0  0  0
   -4.8007   -4.3266   -0.4962 C   0  0  0  0  0  0  0  0  0  0  0  0
   -4.6182   -5.6745   -0.2141 C   0  0  0  0  0  0  0  0  0  0  0  0
   -3.3461   -6.2056   -0.0372 C   0  0  0  0  0  0  0  0  0  0  0  0
   -2.2318   -5.3706   -0.1346 C   0  0  0  0  0  0  0  0  0  0  0  0
   -5.6862   -6.4734   -0.0946 F   0  0  0  0  0  0  0  0  0  0  0  0
   -3.9027   -2.1902   -0.8287 F   0  0  0  0  0  0  0  0  0  0  0  0
   -0.1028   -3.6077    0.1837 N   0  0  0  0  0  0  0  0  0  0  0  0
    3.6742   -4.8569    3.1986 H   0  0  0  0  0  0  0  0  0  0  0  0
    5.3446   -4.5832    2.5396 H   0  0  0  0  0  0  0  0  0  0  0  0
    3.1560   -6.3470    1.2347 H   0  0  0  0  0  0  0  0  0  0  0  0
    4.8243   -6.0703    0.5815 H   0  0  0  0  0  0  0  0  0  0  0  0
    4.0593   -2.9250   -0.6722 H   0  0  0  0  0  0  0  0  0  0  0  0
    5.4277   -3.9525   -0.2435 H   0  0  0  0  0  0  0  0  0  0  0  0
    4.4758   -1.8755    1.4281 H   0  0  0  0  0  0  0  0  0  0  0  0
    1.7161   -4.3492    0.4002 H   0  0  0  0  0  0  0  0  0  0  0  0
   -0.3108   -0.4851   -1.4500 H   0  0  0  0  0  0  0  0  0  0  0  0
    0.3693    0.9627    0.6343 H   0  0  0  0  0  0  0  0  0  0  0  0
   -1.7964   -0.1895    2.3090 H   0  0  0  0  0  0  0  0  0  0  0  0
   -0.0567   -0.2170    2.6889 H   0  0  0  0  0  0  0  0  0  0  0  0
   -1.4531    1.6910   -0.9518 H   0  0  0  0  0  0  0  0  0  0  0  0
   -2.7125    0.7954   -0.0049 H   0  0  0  0  0  0  0  0  0  0  0  0
   -5.7992   -3.9258   -0.6243 H   0  0  0  0  0  0  0  0  0  0  0  0
   -3.2302   -7.2579    0.2058 H   0  0  0  0  0  0  0  0  0  0  0  0
   -1.2457   -5.7927    0.0539 H   0  0  0  0  0  0  0  0  0  0  0  0
  1  3  1  0  0  0  0
  1  2  1  0  0  0  0
  1 26  1  0  0  0  0
  1 27  1  0  0  0  0
  2  3  1  0  0  0  0
  2 28  1  0  0  0  0
  2 29  1  0  0  0  0
  3  4  1  0  0  0  0
  3  6  1  0  0  0  0
  4  5  1  0  0  0  0
  4 30  1  0  0  0  0
  4 31  1  0  0  0  0
  5 32  1  0  0  0  0
  6  7  1  0  0  0  0
  6 33  1  0  0  0  0
  7  8  2  0  0  0  0
  7  9  1  0  0  0  0
  9 25  2  0  0  0  0
  9 10  1  0  0  0  0
 10 14  1  0  0  0  0
 10 11  2  0  0  0  0
 11 12  1  0  0  0  0
 11 16  1  0  0  0  0
 12 13  1  0  0  0  0
 12 15  1  0  0  0  0
 12 34  1  6  0  0  0
 13 14  1  0  0  0  0
 13 15  1  0  0  0  0
 13 35  1  6  0  0  0
 14 36  1  0  0  0  0
 14 37  1  0  0  0  0
 15 38  1  0  0  0  0
 15 39  1  0  0  0  0
 16 25  1  0  0  0  0
 16 17  1  0  0  0  0
 17 22  2  0  0  0  0
 17 18  1  0  0  0  0
 18 19  2  0  0  0  0
 18 24  1  0  0  0  0
 19 20  1  0  0  0  0
 19 40  1  0  0  0  0
 20 21  2  0  0  0  0
 20 23  1  0  0  0  0
 21 22  1  0  0  0  0
 21 41  1  0  0  0  0
 22 42  1  0  0  0  0
M  END
$$$$
CHEMBL3921132_5ZTY
 OpenBabel12022418133D

 46 49  0  0  0  0  0  0  0  0999 V2000
    0.9425    0.6870   -0.0020 N   0  0  0  0  0  0  0  0  0  0  0  0
    0.9487   -0.7122    0.0083 C   0  0  0  0  0  0  0  0  0  0  0  0
   -0.3680   -1.1884    0.0026 C   0  0  0  0  0  0  0  0  0  0  0  0
   -1.1959   -0.0434    0.0419 C   0  0  0  0  0  0  0  0  0  0  0  0
   -0.3980    1.0897    0.0163 C   0  0  0  0  0  0  0  0  0  0  0  0
   -0.9045    2.4934   -0.0759 C   0  0  0  0  0  0  0  0  0  0  0  0
   -0.7066   -2.6228   -0.0071 C   0  0  0  0  0  0  0  0  0  0  0  0
    0.1908   -3.4649   -0.0458 O   0  0  0  0  0  0  0  0  0  0  0  0
   -2.0542   -2.9540   -0.0194 N   0  0  0  0  0  0  0  0  0  0  0  0
   -2.5416   -4.2865    0.0216 C   0  0  0  0  0  0  0  0  0  0  0  0
   -3.8456   -4.5531   -0.4119 C   0  0  0  0  0  0  0  0  0  0  0  0
   -4.3328   -5.8806   -0.4747 C   0  0  0  0  0  0  0  0  0  0  0  0
   -5.6190   -6.1868   -0.9534 C   0  0  0  0  0  0  0  0  0  0  0  0
   -6.0641   -7.5101   -1.0209 C   0  0  0  0  0  0  0  0  0  0  0  0
   -5.2357   -8.5513   -0.6102 C   0  0  0  0  0  0  0  0  0  0  0  0
   -3.9584   -8.2702   -0.1301 C   0  0  0  0  0  0  0  0  0  0  0  0
   -3.5016   -6.9431   -0.0576 C   0  0  0  0  0  0  0  0  0  0  0  0
   -2.2246   -6.6680    0.4242 C   0  0  0  0  0  0  0  0  0  0  0  0
   -1.7591   -5.3551    0.4709 C   0  0  0  0  0  0  0  0  0  0  0  0
    2.1752   -1.5767    0.1040 C   0  0  0  0  0  0  0  0  0  0  0  0
    2.1003    1.5378   -0.0108 C   0  0  0  0  0  0  0  0  0  0  0  0
    3.2556    1.1684   -0.7160 C   0  0  0  0  0  0  0  0  0  0  0  0
    4.4125    1.9509   -0.6570 C   0  0  0  0  0  0  0  0  0  0  0  0
    4.4050    3.1528    0.0426 C   0  0  0  0  0  0  0  0  0  0  0  0
    3.2501    3.5574    0.7066 C   0  0  0  0  0  0  0  0  0  0  0  0
    2.1140    2.7406    0.7071 C   0  0  0  0  0  0  0  0  0  0  0  0
   -2.2778   -0.0170    0.0603 H   0  0  0  0  0  0  0  0  0  0  0  0
   -0.1482    3.2381   -0.3230 H   0  0  0  0  0  0  0  0  0  0  0  0
   -1.3842    2.7788    0.8668 H   0  0  0  0  0  0  0  0  0  0  0  0
   -1.6583    2.5623   -0.8682 H   0  0  0  0  0  0  0  0  0  0  0  0
   -2.7136   -2.2181   -0.2294 H   0  0  0  0  0  0  0  0  0  0  0  0
   -4.4845   -3.7400   -0.7454 H   0  0  0  0  0  0  0  0  0  0  0  0
   -6.2856   -5.3938   -1.2847 H   0  0  0  0  0  0  0  0  0  0  0  0
   -7.0585   -7.7326   -1.3985 H   0  0  0  0  0  0  0  0  0  0  0  0
   -5.5763   -9.5805   -0.6653 H   0  0  0  0  0  0  0  0  0  0  0  0
   -3.3192   -9.0899    0.1839 H   0  0  0  0  0  0  0  0  0  0  0  0
   -1.5662   -7.4648    0.7611 H   0  0  0  0  0  0  0  0  0  0  0  0
   -0.7629   -5.2061    0.8770 H   0  0  0  0  0  0  0  0  0  0  0  0
    3.0998   -1.0528    0.3344 H   0  0  0  0  0  0  0  0  0  0  0  0
    2.3095   -2.1291   -0.8337 H   0  0  0  0  0  0  0  0  0  0  0  0
    2.0620   -2.2991    0.9196 H   0  0  0  0  0  0  0  0  0  0  0  0
    3.2821    0.2763   -1.3362 H   0  0  0  0  0  0  0  0  0  0  0  0
    5.3159    1.6210   -1.1643 H   0  0  0  0  0  0  0  0  0  0  0  0
    5.2977    3.7718    0.0715 H   0  0  0  0  0  0  0  0  0  0  0  0
    3.2381    4.5020    1.2443 H   0  0  0  0  0  0  0  0  0  0  0  0
    1.2682    3.0516    1.3128 H   0  0  0  0  0  0  0  0  0  0  0  0
  1  5  1  0  0  0  0
  1  2  1  0  0  0  0
  1 21  1  0  0  0  0
  2  3  2  0  0  0  0
  2 20  1  0  0  0  0
  3  4  1  0  0  0  0
  3  7  1  0  0  0  0
  4  5  2  0  0  0  0
  4 27  1  0  0  0  0
  5  6  1  0  0  0  0
  6 28  1  0  0  0  0
  6 29  1  0  0  0  0
  6 30  1  0  0  0  0
  7  8  2  0  0  0  0
  7  9  1  0  0  0  0
  9 10  1  0  0  0  0
  9 31  1  0  0  0  0
 10 19  2  0  0  0  0
 10 11  1  0  0  0  0
 11 12  2  0  0  0  0
 11 32  1  0  0  0  0
 12 17  1  0  0  0  0
 12 13  1  0  0  0  0
 13 14  2  0  0  0  0
 13 33  1  0  0  0  0
 14 15  1  0  0  0  0
 14 34  1  0  0  0  0
 15 16  2  0  0  0  0
 15 35  1  0  0  0  0
 16 17  1  0  0  0  0
 16 36  1  0  0  0  0
 17 18  2  0  0  0  0
 18 19  1  0  0  0  0
 18 37  1  0  0  0  0
 19 38  1  0  0  0  0
 20 39  1  0  0  0  0
 20 40  1  0  0  0  0
 20 41  1  0  0  0  0
 21 26  2  0  0  0  0
 21 22  1  0  0  0  0
 22 23  2  0  0  0  0
 22 42  1  0  0  0  0
 23 24  1  0  0  0  0
 23 43  1  0  0  0  0
 24 25  2  0  0  0  0
 24 44  1  0  0  0  0
 25 26  1  0  0  0  0
 25 45  1  0  0  0  0
 26 46  1  0  0  0  0
M  END
$$$$
CHEMBL3941942_6KPF
 OpenBabel12022418133D

 53 56  0  0  1  0  0  0  0  0999 V2000
   -1.3445   -1.0479   -1.4617 C   0  0  0  0  0  0  0  0  0  0  0  0
   -0.3329   -0.2891   -0.7050 C   0  0  0  0  0  0  0  0  0  0  0  0
    0.6888    0.4060   -1.1445 N   0  0  0  0  0  0  0  0  0  0  0  0
    1.2896    0.8334    0.0220 C   0  0  0  0  0  0  0  0  0  0  0  0
    2.5879    1.6426    0.0282 C   0  0  2  0  0  0  0  0  0  0  0  0
    3.3875    1.3167   -1.2537 C   0  0  0  0  0  0  0  0  0  0  0  0
    3.4517    1.3362    1.2931 C   0  0  0  0  0  0  0  0  0  0  0  0
    3.8867   -0.1058    1.4549 C   0  0  0  0  0  0  0  0  0  0  0  0
    5.3011   -0.5440    1.1657 C   0  0  0  0  0  0  0  0  0  0  0  0
    4.8256   -0.4465    2.5865 C   0  0  0  0  0  0  0  0  0  0  0  0
    2.1982    3.0764    0.0065 N   0  0  0  0  0  0  0  0  0  0  0  0
    3.0737    4.1385   -0.0932 C   0  0  0  0  0  0  0  0  0  0  0  0
    4.2939    4.0362   -0.1090 O   0  0  0  0  0  0  0  0  0  0  0  0
    2.4310    5.4902   -0.1902 C   0  0  0  0  0  0  0  0  0  0  0  0
    3.2208    6.6306   -0.3046 C   0  0  0  0  0  0  0  0  0  0  0  0
    2.5903    7.8753   -0.3404 C   0  0  0  0  0  0  0  0  0  0  0  0
    1.1860    7.9587   -0.3168 C   0  0  0  0  0  0  0  0  0  0  0  0
    0.5101    6.7337   -0.2103 C   0  0  0  0  0  0  0  0  0  0  0  0
    1.0766    5.5131   -0.1426 N   0  0  0  0  0  0  0  0  0  0  0  0
    0.3970    9.2527   -0.3004 C   0  0  0  0  0  0  0  0  0  0  0  0
    0.5589   10.3452   -1.3264 C   0  0  0  0  0  0  0  0  0  0  0  0
   -0.6549    9.4699   -1.3707 C   0  0  0  0  0  0  0  0  0  0  0  0
    3.2640    9.0708   -0.4056 O   0  0  0  0  0  0  0  0  0  0  0  0
    4.6263    9.0882    0.0494 C   0  0  0  0  0  0  0  0  0  0  0  0
    5.0723   10.5011    0.4269 C   0  0  0  0  0  0  0  0  0  0  0  0
    4.1226   11.4345    0.2022 F   0  0  0  0  0  0  0  0  0  0  0  0
    5.3976   10.5648    1.7408 F   0  0  0  0  0  0  0  0  0  0  0  0
    6.1723   10.8658   -0.2734 F   0  0  0  0  0  0  0  0  0  0  0  0
    0.6287    0.4720    1.1378 N   0  0  0  0  0  0  0  0  0  0  0  0
   -0.4325   -0.2957    0.6563 O   0  0  0  0  0  0  0  0  0  0  0  0
   -1.9860   -1.6374   -0.8008 H   0  0  0  0  0  0  0  0  0  0  0  0
   -0.8569   -1.7333   -2.1614 H   0  0  0  0  0  0  0  0  0  0  0  0
   -1.9769   -0.3651   -2.0366 H   0  0  0  0  0  0  0  0  0  0  0  0
    4.3445    1.8455   -1.2883 H   0  0  0  0  0  0  0  0  0  0  0  0
    2.8269    1.6110   -2.1503 H   0  0  0  0  0  0  0  0  0  0  0  0
    3.5975    0.2449   -1.3373 H   0  0  0  0  0  0  0  0  0  0  0  0
    2.8881    1.6169    2.1935 H   0  0  0  0  0  0  0  0  0  0  0  0
    4.3445    1.9728    1.2982 H   0  0  0  0  0  0  0  0  0  0  0  0
    3.0888   -0.8182    1.2757 H   0  0  0  0  0  0  0  0  0  0  0  0
    6.0224    0.1903    0.8247 H   0  0  0  0  0  0  0  0  0  0  0  0
    5.4560   -1.5367    0.7574 H   0  0  0  0  0  0  0  0  0  0  0  0
    4.6437   -1.3659    3.1327 H   0  0  0  0  0  0  0  0  0  0  0  0
    5.2204    0.3574    3.1981 H   0  0  0  0  0  0  0  0  0  0  0  0
    1.2087    3.3149    0.0112 H   0  0  0  0  0  0  0  0  0  0  0  0
    4.2986    6.5198   -0.3581 H   0  0  0  0  0  0  0  0  0  0  0  0
   -0.5793    6.7278   -0.1609 H   0  0  0  0  0  0  0  0  0  0  0  0
    0.1387    9.6012    0.7005 H   0  0  0  0  0  0  0  0  0  0  0  0
    1.2965   10.2366   -2.1111 H   0  0  0  0  0  0  0  0  0  0  0  0
    0.4209   11.3712   -0.9961 H   0  0  0  0  0  0  0  0  0  0  0  0
   -1.6070    9.8845   -1.0610 H   0  0  0  0  0  0  0  0  0  0  0  0
   -0.7258    8.7758   -2.2018 H   0  0  0  0  0  0  0  0  0  0  0  0
    5.2705    8.7080   -0.7523 H   0  0  0  0  0  0  0  0  0  0  0  0
    4.7457    8.4491    0.9324 H   0  0  0  0  0  0  0  0  0  0  0  0
  1  2  1  0  0  0  0
  1 31  1  0  0  0  0
  1 32  1  0  0  0  0
  1 33  1  0  0  0  0
  2 30  1  0  0  0  0
  2  3  2  0  0  0  0
  3  4  1  0  0  0  0
  4 29  2  0  0  0  0
  5  7  1  1  0  0  0
  5 11  1  0  0  0  0
  5  6  1  0  0  0  0
  5  4  1  0  0  0  0
  6 34  1  0  0  0  0
  6 35  1  0  0  0  0
  6 36  1  0  0  0  0
  7  8  1  0  0  0  0
  7 37  1  0  0  0  0
  7 38  1  0  0  0  0
  8 10  1  0  0  0  0
  8  9  1  0  0  0  0
  8 39  1  0  0  0  0
  9 10  1  0  0  0  0
  9 40  1  0  0  0  0
  9 41  1  0  0  0  0
 10 42  1  0  0  0  0
 10 43  1  0  0  0  0
 11 12  1  0  0  0  0
 11 44  1  0  0  0  0
 12 13  2  0  0  0  0
 12 14  1  0  0  0  0
 14 19  2  0  0  0  0
 14 15  1  0  0  0  0
 15 16  2  0  0  0  0
 15 45  1  0  0  0  0
 16 17  1  0  0  0  0
 16 23  1  0  0  0  0
 17 18  2  0  0  0  0
 17 20  1  0  0  0  0
 18 19  1  0  0  0  0
 18 46  1  0  0  0  0
 20 22  1  0  0  0  0
 20 21  1  0  0  0  0
 20 47  1  0  0  0  0
 21 22  1  0  0  0  0
 21 48  1  0  0  0  0
 21 49  1  0  0  0  0
 22 50  1  0  0  0  0
 22 51  1  0  0  0  0
 23 24  1  0  0  0  0
 24 25  1  0  0  0  0
 24 52  1  0  0  0  0
 24 53  1  0  0  0  0
 25 26  1  0  0  0  0
 25 27  1  0  0  0  0
 25 28  1  0  0  0  0
 29 30  1  0  0  0  0
M  END
$$$$
CHEMBL575395_5ZTY
 OpenBabel12022418133D

 53 56  0  0  0  0  0  0  0  0999 V2000
   -0.1337   -0.9669    0.0026 N   0  0  0  0  0  0  0  0  0  0  0  0
   -0.9820    0.0865   -0.1829 N   0  0  0  0  0  0  0  0  0  0  0  0
   -0.2103    1.1957   -0.1437 C   0  0  0  0  0  0  0  0  0  0  0  0
    1.1740    0.8246   -0.1339 C   0  0  0  0  0  0  0  0  0  0  0  0
    1.1876   -0.5465    0.0169 C   0  0  0  0  0  0  0  0  0  0  0  0
    2.3293   -1.3769    0.0467 N   0  0  0  0  0  0  0  0  0  0  0  0
    2.5625   -2.5611   -0.6787 C   0  0  0  0  0  0  0  0  0  0  0  0
    3.8579   -2.9751   -0.4467 C   0  0  0  0  0  0  0  0  0  0  0  0
    4.4578   -2.0625    0.4290 C   0  0  0  0  0  0  0  0  0  0  0  0
    3.5094   -1.1228    0.7667 C   0  0  0  0  0  0  0  0  0  0  0  0
    3.6977   -0.0385    1.7768 C   0  0  0  0  0  0  0  0  0  0  0  0
    1.6232   -3.2188   -1.6303 C   0  0  0  0  0  0  0  0  0  0  0  0
    2.3359    1.7413   -0.3589 C   0  0  0  0  0  0  0  0  0  0  0  0
   -0.7660    2.5753   -0.1459 C   0  0  0  0  0  0  0  0  0  0  0  0
   -0.0546    3.5735   -0.0509 O   0  0  0  0  0  0  0  0  0  0  0  0
   -2.1492    2.6743   -0.2655 N   0  0  0  0  0  0  0  0  0  0  0  0
   -2.8498    3.9469   -0.2779 C   0  0  0  0  0  0  0  0  0  0  0  0
   -4.2057    3.8993   -0.9832 C   0  0  0  0  0  0  0  0  0  0  0  0
   -4.8715    5.2110   -0.5751 C   0  0  0  0  0  0  0  0  0  0  0  0
   -4.3234    5.5314    0.8163 C   0  0  0  0  0  0  0  0  0  0  0  0
   -3.2552    4.4695    1.1041 C   0  0  0  0  0  0  0  0  0  0  0  0
   -0.6929   -2.2649    0.2385 C   0  0  0  0  0  0  0  0  0  0  0  0
   -0.1002   -3.1607    1.1436 C   0  0  0  0  0  0  0  0  0  0  0  0
   -0.6554   -4.4329    1.3414 C   0  0  0  0  0  0  0  0  0  0  0  0
   -1.7798   -4.8335    0.6088 C   0  0  0  0  0  0  0  0  0  0  0  0
   -2.3411   -3.9591   -0.3262 C   0  0  0  0  0  0  0  0  0  0  0  0
   -1.8180   -2.6716   -0.4945 C   0  0  0  0  0  0  0  0  0  0  0  0
   -2.5256   -6.3778    0.8199 Cl  0  0  0  0  0  0  0  0  0  0  0  0
    0.0952   -5.4642    2.5089 Cl  0  0  0  0  0  0  0  0  0  0  0  0
    4.3278   -3.8433   -0.8931 H   0  0  0  0  0  0  0  0  0  0  0  0
    5.4715   -2.0953    0.8056 H   0  0  0  0  0  0  0  0  0  0  0  0
    2.7666    0.4510    2.0705 H   0  0  0  0  0  0  0  0  0  0  0  0
    4.3965    0.7096    1.3846 H   0  0  0  0  0  0  0  0  0  0  0  0
    4.1355   -0.4412    2.6924 H   0  0  0  0  0  0  0  0  0  0  0  0
    0.7371   -2.6328   -1.8668 H   0  0  0  0  0  0  0  0  0  0  0  0
    1.3158   -4.1944   -1.2360 H   0  0  0  0  0  0  0  0  0  0  0  0
    2.1240   -3.3995   -2.5899 H   0  0  0  0  0  0  0  0  0  0  0  0
    2.0714    2.6416   -0.9115 H   0  0  0  0  0  0  0  0  0  0  0  0
    3.1160    1.2349   -0.9470 H   0  0  0  0  0  0  0  0  0  0  0  0
    2.7762    2.0715    0.5906 H   0  0  0  0  0  0  0  0  0  0  0  0
   -2.6554    1.7910   -0.2673 H   0  0  0  0  0  0  0  0  0  0  0  0
   -2.2111    4.6947   -0.7668 H   0  0  0  0  0  0  0  0  0  0  0  0
   -4.8030    3.0540   -0.6211 H   0  0  0  0  0  0  0  0  0  0  0  0
   -4.1152    3.8044   -2.0699 H   0  0  0  0  0  0  0  0  0  0  0  0
   -5.9644    5.1384   -0.5810 H   0  0  0  0  0  0  0  0  0  0  0  0
   -4.5951    6.0115   -1.2726 H   0  0  0  0  0  0  0  0  0  0  0  0
   -5.1148    5.5160    1.5740 H   0  0  0  0  0  0  0  0  0  0  0  0
   -3.8890    6.5383    0.8233 H   0  0  0  0  0  0  0  0  0  0  0  0
   -2.4141    4.8813    1.6698 H   0  0  0  0  0  0  0  0  0  0  0  0
   -3.6980    3.6662    1.7062 H   0  0  0  0  0  0  0  0  0  0  0  0
    0.7824   -2.8837    1.7161 H   0  0  0  0  0  0  0  0  0  0  0  0
   -3.1879   -4.2787   -0.9305 H   0  0  0  0  0  0  0  0  0  0  0  0
   -2.2550   -2.0187   -1.2490 H   0  0  0  0  0  0  0  0  0  0  0  0
  1  5  1  0  0  0  0
  1  2  1  0  0  0  0
  1 22  1  0  0  0  0
  2  3  2  0  0  0  0
  3  4  1  0  0  0  0
  3 14  1  0  0  0  0
  4  5  2  0  0  0  0
  4 13  1  0  0  0  0
  5  6  1  0  0  0  0
  6 10  1  0  0  0  0
  6  7  1  0  0  0  0
  7  8  2  0  0  0  0
  7 12  1  0  0  0  0
  8  9  1  0  0  0  0
  8 30  1  0  0  0  0
  9 10  2  0  0  0  0
  9 31  1  0  0  0  0
 10 11  1  0  0  0  0
 11 32  1  0  0  0  0
 11 33  1  0  0  0  0
 11 34  1  0  0  0  0
 12 35  1  0  0  0  0
 12 36  1  0  0  0  0
 12 37  1  0  0  0  0
 13 38  1  0  0  0  0
 13 39  1  0  0  0  0
 13 40  1  0  0  0  0
 14 15  2  0  0  0  0
 14 16  1  0  0  0  0
 16 17  1  0  0  0  0
 16 41  1  0  0  0  0
 17 21  1  0  0  0  0
 17 18  1  0  0  0  0
 17 42  1  0  0  0  0
 18 19  1  0  0  0  0
 18 43  1  0  0  0  0
 18 44  1  0  0  0  0
 19 20  1  0  0  0  0
 19 45  1  0  0  0  0
 19 46  1  0  0  0  0
 20 21  1  0  0  0  0
 20 47  1  0  0  0  0
 20 48  1  0  0  0  0
 21 49  1  0  0  0  0
 21 50  1  0  0  0  0
 22 27  2  0  0  0  0
 22 23  1  0  0  0  0
 23 24  2  0  0  0  0
 23 51  1  0  0  0  0
 24 25  1  0  0  0  0
 24 29  1  0  0  0  0
 25 26  2  0  0  0  0
 25 28  1  0  0  0  0
 26 27  1  0  0  0  0
 26 52  1  0  0  0  0
 27 53  1  0  0  0  0
M  END
$$$$
CHEMBL1215976_5ZTY
 OpenBabel12022418133D

 67 71  0  0  1  0  0  0  0  0999 V2000
    0.9955    0.3039    1.2123 C   0  0  0  0  0  0  0  0  0  0  0  0
    2.5180    0.3260    1.2405 C   0  0  0  0  0  0  0  0  0  0  0  0
    3.0792    1.6067    0.6159 C   0  0  0  0  0  0  0  0  0  0  0  0
    4.6136    1.6367    0.6438 C   0  0  0  0  0  0  0  0  0  0  0  0
    5.1643    2.9485    0.0625 C   0  0  0  0  0  0  0  0  0  0  0  0
    6.6437    2.9364   -0.0033 N   0  0  0  0  0  0  0  0  0  0  0  0
    7.4211    3.5314    0.9903 C   0  0  0  0  0  0  0  0  0  0  0  0
    8.7644    3.5281    1.0773 C   0  0  0  0  0  0  0  0  0  0  0  0
    9.4376    4.2793    2.1830 C   0  0  0  0  0  0  0  0  0  0  0  0
    8.7920    5.0462    2.8936 O   0  0  0  0  0  0  0  0  0  0  0  0
   10.7983    4.0718    2.3163 N   0  0  0  0  0  0  0  0  0  0  0  0
   11.6706    4.8122    3.2429 C   0  0  1  0  0  0  0  0  0  0  0  0
   11.7109    6.3140    2.8632 C   0  0  0  0  0  0  0  0  0  0  0  0
   12.6043    7.1019    3.8340 C   0  0  2  0  0  0  0  0  0  0  0  0
   14.0391    6.5587    3.7537 C   0  0  0  0  0  0  0  0  0  0  0  0
   14.0550    5.0689    4.1328 C   0  0  1  0  0  0  0  0  0  0  0  0
   13.5420    4.9227    5.5744 C   0  0  0  0  0  0  0  0  0  0  0  0
   12.1015    5.4447    5.6686 C   0  0  1  0  0  0  0  0  0  0  0  0
   12.0651    6.9278    5.2635 C   0  0  0  0  0  0  0  0  0  0  0  0
   11.2073    4.6406    4.7121 C   0  0  0  0  0  0  0  0  0  0  0  0
   13.1343    4.2810    3.1714 C   0  0  0  0  0  0  0  0  0  0  0  0
    9.4893    2.7869    0.0282 C   0  0  0  0  0  0  0  0  0  0  0  0
   10.7113    2.6410    0.0657 O   0  0  0  0  0  0  0  0  0  0  0  0
    8.7066    2.2359   -1.1038 C   0  0  0  0  0  0  0  0  0  0  0  0
    9.4112    1.6478   -2.1649 C   0  0  0  0  0  0  0  0  0  0  0  0
    8.7336    1.1653   -3.2827 C   0  0  0  0  0  0  0  0  0  0  0  0
    9.4992    0.5348   -4.4157 C   0  0  0  0  0  0  0  0  0  0  0  0
    9.6399   -0.9679   -4.2305 C   0  0  0  0  0  0  0  0  0  0  0  0
    7.3415    1.2613   -3.3092 C   0  0  0  0  0  0  0  0  0  0  0  0
    6.6380    1.8267   -2.2329 C   0  0  0  0  0  0  0  0  0  0  0  0
    7.2994    2.3323   -1.1020 C   0  0  0  0  0  0  0  0  0  0  0  0
    0.6194   -0.6126    1.6788 H   0  0  0  0  0  0  0  0  0  0  0  0
    0.6198    0.3379    0.1846 H   0  0  0  0  0  0  0  0  0  0  0  0
    0.5784    1.1559    1.7588 H   0  0  0  0  0  0  0  0  0  0  0  0
    2.8972   -0.5504    0.7021 H   0  0  0  0  0  0  0  0  0  0  0  0
    2.8556    0.2398    2.2798 H   0  0  0  0  0  0  0  0  0  0  0  0
    2.6844    2.4763    1.1549 H   0  0  0  0  0  0  0  0  0  0  0  0
    2.7318    1.6856   -0.4218 H   0  0  0  0  0  0  0  0  0  0  0  0
    5.0006    0.7771    0.0838 H   0  0  0  0  0  0  0  0  0  0  0  0
    4.9650    1.5221    1.6768 H   0  0  0  0  0  0  0  0  0  0  0  0
    4.8302    3.7791    0.6986 H   0  0  0  0  0  0  0  0  0  0  0  0
    4.7209    3.1614   -0.9171 H   0  0  0  0  0  0  0  0  0  0  0  0
    6.8288    4.0534    1.7411 H   0  0  0  0  0  0  0  0  0  0  0  0
   11.2437    3.4985    1.5976 H   0  0  0  0  0  0  0  0  0  0  0  0
   10.7051    6.7480    2.8688 H   0  0  0  0  0  0  0  0  0  0  0  0
   12.0880    6.4295    1.8374 H   0  0  0  0  0  0  0  0  0  0  0  0
   12.5969    8.1636    3.5625 H   0  0  0  0  0  0  0  0  0  0  0  0
   14.6915    7.1277    4.4285 H   0  0  0  0  0  0  0  0  0  0  0  0
   14.4378    6.6924    2.7408 H   0  0  0  0  0  0  0  0  0  0  0  0
   15.0799    4.6853    4.0687 H   0  0  0  0  0  0  0  0  0  0  0  0
   14.1864    5.4830    6.2641 H   0  0  0  0  0  0  0  0  0  0  0  0
   13.5846    3.8717    5.8848 H   0  0  0  0  0  0  0  0  0  0  0  0
   11.7342    5.3324    6.6948 H   0  0  0  0  0  0  0  0  0  0  0  0
   11.0365    7.3055    5.3223 H   0  0  0  0  0  0  0  0  0  0  0  0
   12.6634    7.5218    5.9645 H   0  0  0  0  0  0  0  0  0  0  0  0
   11.2292    3.5771    4.9860 H   0  0  0  0  0  0  0  0  0  0  0  0
   10.1718    4.9677    4.8464 H   0  0  0  0  0  0  0  0  0  0  0  0
   13.5215    4.3615    2.1470 H   0  0  0  0  0  0  0  0  0  0  0  0
   13.1648    3.2138    3.4279 H   0  0  0  0  0  0  0  0  0  0  0  0
   10.4963    1.5809   -2.1181 H   0  0  0  0  0  0  0  0  0  0  0  0
   10.4949    0.9908   -4.4841 H   0  0  0  0  0  0  0  0  0  0  0  0
    9.0007    0.7519   -5.3677 H   0  0  0  0  0  0  0  0  0  0  0  0
   10.1446   -1.2076   -3.2881 H   0  0  0  0  0  0  0  0  0  0  0  0
   10.2277   -1.3965   -5.0482 H   0  0  0  0  0  0  0  0  0  0  0  0
    8.6610   -1.4586   -4.2209 H   0  0  0  0  0  0  0  0  0  0  0  0
    6.7854    0.8991   -4.1721 H   0  0  0  0  0  0  0  0  0  0  0  0
    5.5581    1.8691   -2.3277 H   0  0  0  0  0  0  0  0  0  0  0  0
  1  2  1  0  0  0  0
  1 32  1  0  0  0  0
  1 33  1  0  0  0  0
  1 34  1  0  0  0  0
  2  3  1  0  0  0  0
  2 35  1  0  0  0  0
  2 36  1  0  0  0  0
  3  4  1  0  0  0  0
  3 37  1  0  0  0  0
  3 38  1  0  0  0  0
  4  5  1  0  0  0  0
  4 39  1  0  0  0  0
  4 40  1  0  0  0  0
  5  6  1  0  0  0  0
  5 41  1  0  0  0  0
  5 42  1  0  0  0  0
  6 31  1  0  0  0  0
  6  7  1  0  0  0  0
  7  8  2  0  0  0  0
  7 43  1  0  0  0  0
  8  9  1  0  0  0  0
  8 22  1  0  0  0  0
  9 10  2  0  0  0  0
  9 11  1  0  0  0  0
 11 44  1  0  0  0  0
 12 11  1  6  0  0  0
 12 20  1  0  0  0  0
 12 21  1  0  0  0  0
 12 13  1  0  0  0  0
 13 45  1  0  0  0  0
 13 46  1  0  0  0  0
 14 13  1  0  0  0  0
 14 15  1  0  0  0  0
 14 19  1  0  0  0  0
 14 47  1  6  0  0  0
 15 48  1  0  0  0  0
 15 49  1  0  0  0  0
 16 15  1  0  0  0  0
 16 17  1  0  0  0  0
 16 21  1  0  0  0  0
 16 50  1  6  0  0  0
 17 51  1  0  0  0  0
 17 52  1  0  0  0  0
 18 17  1  0  0  0  0
 18 19  1  0  0  0  0
 18 20  1  0  0  0  0
 18 53  1  1  0  0  0
 19 54  1  0  0  0  0
 19 55  1  0  0  0  0
 20 56  1  0  0  0  0
 20 57  1  0  0  0  0
 21 58  1  0  0  0  0
 21 59  1  0  0  0  0
 22 23  2  0  0  0  0
 22 24  1  0  0  0  0
 24 31  2  0  0  0  0
 24 25  1  0  0  0  0
 25 26  2  0  0  0  0
 25 60  1  0  0  0  0
 26 27  1  0  0  0  0
 26 29  1  0  0  0  0
 27 28  1  0  0  0  0
 27 61  1  0  0  0  0
 27 62  1  0  0  0  0
 28 63  1  0  0  0  0
 28 64  1  0  0  0  0
 28 65  1  0  0  0  0
 29 30  2  0  0  0  0
 29 66  1  0  0  0  0
 30 31  1  0  0  0  0
 30 67  1  0  0  0  0
M  END
$$$$
CHEMBL3953330_5ZTY
 OpenBabel12022418133D

 49 52  0  0  0  0  0  0  0  0999 V2000
    0.9284    0.5940   -0.0322 N   0  0  0  0  0  0  0  0  0  0  0  0
    0.9341   -0.8365   -0.0466 C   0  0  0  0  0  0  0  0  0  0  0  0
   -0.4047   -1.2776   -0.0136 C   0  0  0  0  0  0  0  0  0  0  0  0
   -1.2060   -0.1041    0.0215 C   0  0  0  0  0  0  0  0  0  0  0  0
   -0.3996    1.0173   -0.0107 C   0  0  0  0  0  0  0  0  0  0  0  0
   -0.8979    2.4221   -0.0844 C   0  0  0  0  0  0  0  0  0  0  0  0
   -0.9201   -2.6580    0.0376 C   0  0  0  0  0  0  0  0  0  0  0  0
   -0.2047   -3.6322    0.2739 O   0  0  0  0  0  0  0  0  0  0  0  0
   -2.2751   -2.8364   -0.2467 N   0  0  0  0  0  0  0  0  0  0  0  0
   -2.8554   -4.1301   -0.2699 C   0  0  0  0  0  0  0  0  0  0  0  0
   -2.5830   -5.0817    0.7234 C   0  0  0  0  0  0  0  0  0  0  0  0
   -3.1064   -6.3866    0.6534 C   0  0  0  0  0  0  0  0  0  0  0  0
   -2.8541   -7.3388    1.6571 C   0  0  0  0  0  0  0  0  0  0  0  0
   -3.3714   -8.6336    1.5612 C   0  0  0  0  0  0  0  0  0  0  0  0
   -4.1338   -8.9956    0.4560 C   0  0  0  0  0  0  0  0  0  0  0  0
   -4.3944   -8.0617   -0.5470 C   0  0  0  0  0  0  0  0  0  0  0  0
   -3.9013   -6.7478   -0.4558 C   0  0  0  0  0  0  0  0  0  0  0  0
   -4.1763   -5.7827   -1.4407 C   0  0  0  0  0  0  0  0  0  0  0  0
   -3.6899   -4.4732   -1.3294 C   0  0  0  0  0  0  0  0  0  0  0  0
    2.2587   -1.5804   -0.0041 C   0  0  0  0  0  0  0  0  0  0  0  0
    2.3404   -3.0885    0.0444 C   0  0  0  0  0  0  0  0  0  0  0  0
    2.0909    1.4692   -0.0094 C   0  0  0  0  0  0  0  0  0  0  0  0
    3.2412    1.1811   -0.7418 C   0  0  0  0  0  0  0  0  0  0  0  0
    4.3816    1.9850   -0.6565 C   0  0  0  0  0  0  0  0  0  0  0  0
    4.3599    3.1476    0.1010 C   0  0  0  0  0  0  0  0  0  0  0  0
    3.1996    3.4894    0.7911 C   0  0  0  0  0  0  0  0  0  0  0  0
    2.0810    2.6425    0.7668 C   0  0  0  0  0  0  0  0  0  0  0  0
   -2.2917   -0.0642    0.0726 H   0  0  0  0  0  0  0  0  0  0  0  0
   -0.1440    3.1585   -0.3748 H   0  0  0  0  0  0  0  0  0  0  0  0
   -1.3284    2.7202    0.8790 H   0  0  0  0  0  0  0  0  0  0  0  0
   -1.6916    2.4977   -0.8377 H   0  0  0  0  0  0  0  0  0  0  0  0
   -2.7078   -2.1156   -0.8059 H   0  0  0  0  0  0  0  0  0  0  0  0
   -1.9548   -4.8114    1.5697 H   0  0  0  0  0  0  0  0  0  0  0  0
   -2.2496   -7.0757    2.5228 H   0  0  0  0  0  0  0  0  0  0  0  0
   -3.1732   -9.3555    2.3496 H   0  0  0  0  0  0  0  0  0  0  0  0
   -4.5276  -10.0058    0.3759 H   0  0  0  0  0  0  0  0  0  0  0  0
   -4.9936   -8.3660   -1.4017 H   0  0  0  0  0  0  0  0  0  0  0  0
   -4.7711   -6.0495   -2.3126 H   0  0  0  0  0  0  0  0  0  0  0  0
   -3.9049   -3.7635   -2.1233 H   0  0  0  0  0  0  0  0  0  0  0  0
    2.8373   -1.1961    0.8460 H   0  0  0  0  0  0  0  0  0  0  0  0
    2.7938   -1.3555   -0.9255 H   0  0  0  0  0  0  0  0  0  0  0  0
    1.9083   -3.4994    0.9583 H   0  0  0  0  0  0  0  0  0  0  0  0
    3.3930   -3.3953    0.0422 H   0  0  0  0  0  0  0  0  0  0  0  0
    1.8887   -3.5371   -0.8470 H   0  0  0  0  0  0  0  0  0  0  0  0
    3.2840    0.3652   -1.4505 H   0  0  0  0  0  0  0  0  0  0  0  0
    5.2792    1.7071   -1.2033 H   0  0  0  0  0  0  0  0  0  0  0  0
    5.2354    3.7872    0.1428 H   0  0  0  0  0  0  0  0  0  0  0  0
    3.1699    4.4123    1.3657 H   0  0  0  0  0  0  0  0  0  0  0  0
    1.2305    2.9166    1.3826 H   0  0  0  0  0  0  0  0  0  0  0  0
  1  5  1  0  0  0  0
  1  2  1  0  0  0  0
  1 22  1  0  0  0  0
  2  3  2  0  0  0  0
  2 20  1  0  0  0  0
  3  4  1  0  0  0  0
  3  7  1  0  0  0  0
  4  5  2  0  0  0  0
  4 28  1  0  0  0  0
  5  6  1  0  0  0  0
  6 29  1  0  0  0  0
  6 30  1  0  0  0  0
  6 31  1  0  0  0  0
  7  8  2  0  0  0  0
  7  9  1  0  0  0  0
  9 10  1  0  0  0  0
  9 32  1  0  0  0  0
 10 19  2  0  0  0  0
 10 11  1  0  0  0  0
 11 12  2  0  0  0  0
 11 33  1  0  0  0  0
 12 17  1  0  0  0  0
 12 13  1  0  0  0  0
 13 14  2  0  0  0  0
 13 34  1  0  0  0  0
 14 15  1  0  0  0  0
 14 35  1  0  0  0  0
 15 16  2  0  0  0  0
 15 36  1  0  0  0  0
 16 17  1  0  0  0  0
 16 37  1  0  0  0  0
 17 18  2  0  0  0  0
 18 19  1  0  0  0  0
 18 38  1  0  0  0  0
 19 39  1  0  0  0  0
 20 21  1  0  0  0  0
 20 40  1  0  0  0  0
 20 41  1  0  0  0  0
 21 42  1  0  0  0  0
 21 43  1  0  0  0  0
 21 44  1  0  0  0  0
 22 27  2  0  0  0  0
 22 23  1  0  0  0  0
 23 24  2  0  0  0  0
 23 45  1  0  0  0  0
 24 25  1  0  0  0  0
 24 46  1  0  0  0  0
 25 26  2  0  0  0  0
 25 47  1  0  0  0  0
 26 27  1  0  0  0  0
 26 48  1  0  0  0  0
 27 49  1  0  0  0  0
M  END
$$$$
CHEMBL3354400_6PT0
 OpenBabel12022418133D

 46 50  0  0  0  0  0  0  0  0999 V2000
    1.1000   -0.5657    0.9046 C   0  0  0  0  0  0  0  0  0  0  0  0
    1.5237   -1.1886   -0.2589 C   0  0  0  0  0  0  0  0  0  0  0  0
    1.2552   -0.6004   -1.4931 C   0  0  0  0  0  0  0  0  0  0  0  0
    0.5611    0.6227   -1.5669 C   0  0  0  0  0  0  0  0  0  0  0  0
    0.1506    1.2855   -0.3950 C   0  0  0  0  0  0  0  0  0  0  0  0
    0.4237    0.6594    0.8401 C   0  0  0  0  0  0  0  0  0  0  0  0
   -0.6219    2.6025   -0.4015 C   0  0  0  0  0  0  0  0  0  0  0  0
   -2.4113    2.2635   -0.3952 S   0  0  0  0  0  0  0  0  0  0  0  0
   -3.1789    3.8709   -0.3318 C   0  0  0  0  0  0  0  0  0  0  0  0
   -4.5224    3.8062   -0.3592 N   0  0  0  0  0  0  0  0  0  0  0  0
   -5.1128    5.0150   -0.3595 C   0  0  0  0  0  0  0  0  0  0  0  0
   -4.4426    6.2217   -0.2985 C   0  0  0  0  0  0  0  0  0  0  0  0
   -5.4158    7.2617   -0.3100 C   0  0  0  0  0  0  0  0  0  0  0  0
   -5.3643    8.6748   -0.3024 C   0  0  0  0  0  0  0  0  0  0  0  0
   -6.5505    9.4206   -0.3661 C   0  0  0  0  0  0  0  0  0  0  0  0
   -7.7843    8.7852   -0.4275 C   0  0  0  0  0  0  0  0  0  0  0  0
   -7.8670    7.3927   -0.4202 C   0  0  0  0  0  0  0  0  0  0  0  0
   -6.6747    6.6425   -0.3560 C   0  0  0  0  0  0  0  0  0  0  0  0
   -6.4719    5.2593   -0.3964 N   0  0  0  0  0  0  0  0  0  0  0  0
   -7.4804    4.2743   -0.4783 C   0  0  0  0  0  0  0  0  0  0  0  0
   -8.5798    4.5463    0.0018 O   0  0  0  0  0  0  0  0  0  0  0  0
   -7.3317    2.9602   -1.1536 C   0  0  0  0  0  0  0  0  0  0  0  0
   -6.6140    2.8563   -2.3547 C   0  0  0  0  0  0  0  0  0  0  0  0
   -6.5966    1.6490   -3.0532 C   0  0  0  0  0  0  0  0  0  0  0  0
   -7.3051    0.5601   -2.5583 C   0  0  0  0  0  0  0  0  0  0  0  0
   -8.0187    0.6485   -1.3672 C   0  0  0  0  0  0  0  0  0  0  0  0
   -8.0380    1.8537   -0.6622 C   0  0  0  0  0  0  0  0  0  0  0  0
   -7.3189   -0.5849   -3.2522 F   0  0  0  0  0  0  0  0  0  0  0  0
   -3.0805    6.2277   -0.2526 N   0  0  0  0  0  0  0  0  0  0  0  0
   -2.4658    5.0203   -0.2774 N   0  0  0  0  0  0  0  0  0  0  0  0
    0.2774    1.1422   -2.8760 C   0  0  0  0  0  0  0  0  0  0  0  0
    0.0573    1.5432   -3.9423 N   0  0  0  0  0  0  0  0  0  0  0  0
    1.2849   -1.0336    1.8696 H   0  0  0  0  0  0  0  0  0  0  0  0
    2.0518   -2.1389   -0.2110 H   0  0  0  0  0  0  0  0  0  0  0  0
    1.5813   -1.1081   -2.4010 H   0  0  0  0  0  0  0  0  0  0  0  0
    0.0881    1.1160    1.7715 H   0  0  0  0  0  0  0  0  0  0  0  0
   -0.3431    3.2079   -1.2702 H   0  0  0  0  0  0  0  0  0  0  0  0
   -0.3486    3.1800    0.4893 H   0  0  0  0  0  0  0  0  0  0  0  0
   -4.4082    9.1902   -0.2649 H   0  0  0  0  0  0  0  0  0  0  0  0
   -6.5091   10.5079   -0.3756 H   0  0  0  0  0  0  0  0  0  0  0  0
   -8.6985    9.3738   -0.4879 H   0  0  0  0  0  0  0  0  0  0  0  0
   -8.8411    6.9109   -0.4808 H   0  0  0  0  0  0  0  0  0  0  0  0
   -6.0810    3.7070   -2.7709 H   0  0  0  0  0  0  0  0  0  0  0  0
   -6.0517    1.5579   -3.9878 H   0  0  0  0  0  0  0  0  0  0  0  0
   -8.5706   -0.2143   -1.0076 H   0  0  0  0  0  0  0  0  0  0  0  0
   -8.6195    1.9334    0.2543 H   0  0  0  0  0  0  0  0  0  0  0  0
  1  6  2  0  0  0  0
  1  2  1  0  0  0  0
  1 33  1  0  0  0  0
  2  3  2  0  0  0  0
  2 34  1  0  0  0  0
  3  4  1  0  0  0  0
  3 35  1  0  0  0  0
  4  5  2  0  0  0  0
  4 31  1  0  0  0  0
  5  6  1  0  0  0  0
  5  7  1  0  0  0  0
  6 36  1  0  0  0  0
  7  8  1  0  0  0  0
  7 37  1  0  0  0  0
  7 38  1  0  0  0  0
  8  9  1  0  0  0  0
  9 30  2  0  0  0  0
  9 10  1  0  0  0  0
 10 11  2  0  0  0  0
 11 19  1  0  0  0  0
 11 12  1  0  0  0  0
 12 13  1  0  0  0  0
 12 29  2  0  0  0  0
 13 18  2  0  0  0  0
 13 14  1  0  0  0  0
 14 15  2  0  0  0  0
 14 39  1  0  0  0  0
 15 16  1  0  0  0  0
 15 40  1  0  0  0  0
 16 17  2  0  0  0  0
 16 41  1  0  0  0  0
 17 18  1  0  0  0  0
 17 42  1  0  0  0  0
 18 19  1  0  0  0  0
 19 20  1  0  0  0  0
 20 21  2  0  0  0  0
 20 22  1  0  0  0  0
 22 27  2  0  0  0  0
 22 23  1  0  0  0  0
 23 24  2  0  0  0  0
 23 43  1  0  0  0  0
 24 25  1  0  0  0  0
 24 44  1  0  0  0  0
 25 26  2  0  0  0  0
 25 28  1  0  0  0  0
 26 27  1  0  0  0  0
 26 45  1  0  0  0  0
 27 46  1  0  0  0  0
 29 30  1  0  0  0  0
 31 32  3  0  0  0  0
M  END
$$$$
CHEMBL219027_6PT0
 OpenBabel12022418133D

 53 56  0  0  0  0  0  0  0  0999 V2000
    0.9212   -0.9404   -1.7536 C   0  0  0  0  0  0  0  0  0  0  0  0
    2.1448   -0.4809   -1.2853 C   0  0  0  0  0  0  0  0  0  0  0  0
    2.2230    0.7613   -0.6684 C   0  0  0  0  0  0  0  0  0  0  0  0
    1.0881    1.5856   -0.5497 C   0  0  0  0  0  0  0  0  0  0  0  0
   -0.1762    1.1289   -1.0374 C   0  0  0  0  0  0  0  0  0  0  0  0
   -0.2388   -0.1632   -1.6264 C   0  0  0  0  0  0  0  0  0  0  0  0
   -1.4640   -0.6850   -2.0740 C   0  0  0  0  0  0  0  0  0  0  0  0
   -2.6412    0.0505   -1.9665 C   0  0  0  0  0  0  0  0  0  0  0  0
   -2.6034    1.3269   -1.4284 C   0  0  0  0  0  0  0  0  0  0  0  0
   -1.3911    1.8597   -0.9783 C   0  0  0  0  0  0  0  0  0  0  0  0
    1.2244    2.8742    0.2121 C   0  0  0  0  0  0  0  0  0  0  0  0
    0.3015    3.2633    0.9213 O   0  0  0  0  0  0  0  0  0  0  0  0
    2.4885    3.6167    0.1900 C   0  0  0  0  0  0  0  0  0  0  0  0
    3.4454    3.6699   -0.8011 C   0  0  0  0  0  0  0  0  0  0  0  0
    4.5009    4.4502   -0.3795 N   0  0  0  0  0  0  0  0  0  0  0  0
    4.2170    4.9746    0.8790 C   0  0  0  0  0  0  0  0  0  0  0  0
    2.9629    4.4756    1.2158 C   0  0  0  0  0  0  0  0  0  0  0  0
    5.0425    5.8978    1.6877 C   0  0  0  0  0  0  0  0  0  0  0  0
    6.4412    5.8342    1.7399 C   0  0  0  0  0  0  0  0  0  0  0  0
    7.1829    6.7140    2.5377 C   0  0  0  0  0  0  0  0  0  0  0  0
    6.5292    7.6442    3.3361 C   0  0  0  0  0  0  0  0  0  0  0  0
    5.1412    7.7108    3.3317 C   0  0  0  0  0  0  0  0  0  0  0  0
    4.4075    6.8501    2.5060 C   0  0  0  0  0  0  0  0  0  0  0  0
    7.4410    8.6941    4.3472 Cl  0  0  0  0  0  0  0  0  0  0  0  0
    5.7088    4.6936   -1.1604 C   0  0  0  0  0  0  0  0  0  0  0  0
    5.7995    4.0075   -2.5243 C   0  0  0  0  0  0  0  0  0  0  0  0
    7.1293    4.3140   -3.2138 C   0  0  0  0  0  0  0  0  0  0  0  0
    7.2185    3.5820   -4.5515 C   0  0  0  0  0  0  0  0  0  0  0  0
    8.5202    3.8863   -5.2723 C   0  0  0  0  0  0  0  0  0  0  0  0
    0.8757   -1.9266   -2.2124 H   0  0  0  0  0  0  0  0  0  0  0  0
    3.0326   -1.1013   -1.3804 H   0  0  0  0  0  0  0  0  0  0  0  0
    3.1850    1.0633   -0.2573 H   0  0  0  0  0  0  0  0  0  0  0  0
   -1.5145   -1.6842   -2.5019 H   0  0  0  0  0  0  0  0  0  0  0  0
   -3.5832   -0.3744   -2.3027 H   0  0  0  0  0  0  0  0  0  0  0  0
   -3.5150    1.9127   -1.3436 H   0  0  0  0  0  0  0  0  0  0  0  0
   -1.4182    2.8653   -0.5640 H   0  0  0  0  0  0  0  0  0  0  0  0
    3.4534    3.1959   -1.7736 H   0  0  0  0  0  0  0  0  0  0  0  0
    2.4327    4.6821    2.1387 H   0  0  0  0  0  0  0  0  0  0  0  0
    6.9972    5.0801    1.1985 H   0  0  0  0  0  0  0  0  0  0  0  0
    8.2676    6.6485    2.5424 H   0  0  0  0  0  0  0  0  0  0  0  0
    4.6202    8.4208    3.9680 H   0  0  0  0  0  0  0  0  0  0  0  0
    3.3217    6.9275    2.5200 H   0  0  0  0  0  0  0  0  0  0  0  0
    6.5400    4.3087   -0.5656 H   0  0  0  0  0  0  0  0  0  0  0  0
    5.8040    5.7800   -1.2701 H   0  0  0  0  0  0  0  0  0  0  0  0
    4.9697    4.3313   -3.1667 H   0  0  0  0  0  0  0  0  0  0  0  0
    5.7101    2.9215   -2.3937 H   0  0  0  0  0  0  0  0  0  0  0  0
    7.9604    4.0091   -2.5717 H   0  0  0  0  0  0  0  0  0  0  0  0
    7.2215    5.3956   -3.3724 H   0  0  0  0  0  0  0  0  0  0  0  0
    6.3763    3.8717   -5.1903 H   0  0  0  0  0  0  0  0  0  0  0  0
    7.1432    2.5002   -4.3868 H   0  0  0  0  0  0  0  0  0  0  0  0
    8.6135    4.9577   -5.4763 H   0  0  0  0  0  0  0  0  0  0  0  0
    8.5546    3.3535   -6.2276 H   0  0  0  0  0  0  0  0  0  0  0  0
    9.3823    3.5721   -4.6755 H   0  0  0  0  0  0  0  0  0  0  0  0
  1  6  2  0  0  0  0
  1  2  1  0  0  0  0
  1 30  1  0  0  0  0
  2  3  2  0  0  0  0
  2 31  1  0  0  0  0
  3  4  1  0  0  0  0
  3 32  1  0  0  0  0
  4  5  2  0  0  0  0
  4 11  1  0  0  0  0
  5 10  1  0  0  0  0
  5  6  1  0  0  0  0
  6  7  1  0  0  0  0
  7  8  2  0  0  0  0
  7 33  1  0  0  0  0
  8  9  1  0  0  0  0
  8 34  1  0  0  0  0
  9 10  2  0  0  0  0
  9 35  1  0  0  0  0
 10 36  1  0  0  0  0
 11 12  2  0  0  0  0
 11 13  1  0  0  0  0
 13 17  1  0  0  0  0
 13 14  2  0  0  0  0
 14 15  1  0  0  0  0
 14 37  1  0  0  0  0
 15 16  1  0  0  0  0
 15 25  1  0  0  0  0
 16 17  2  0  0  0  0
 16 18  1  0  0  0  0
 17 38  1  0  0  0  0
 18 23  2  0  0  0  0
 18 19  1  0  0  0  0
 19 20  2  0  0  0  0
 19 39  1  0  0  0  0
 20 21  1  0  0  0  0
 20 40  1  0  0  0  0
 21 22  2  0  0  0  0
 21 24  1  0  0  0  0
 22 23  1  0  0  0  0
 22 41  1  0  0  0  0
 23 42  1  0  0  0  0
 25 26  1  0  0  0  0
 25 43  1  0  0  0  0
 25 44  1  0  0  0  0
 26 27  1  0  0  0  0
 26 45  1  0  0  0  0
 26 46  1  0  0  0  0
 27 28  1  0  0  0  0
 27 47  1  0  0  0  0
 27 48  1  0  0  0  0
 28 29  1  0  0  0  0
 28 49  1  0  0  0  0
 28 50  1  0  0  0  0
 29 51  1  0  0  0  0
 29 52  1  0  0  0  0
 29 53  1  0  0  0  0
M  END
$$$$
CHEMBL226591_8GUQ
 OpenBabel12022418133D

 68 70  0  0  1  0  0  0  0  0999 V2000
   -8.7738   -1.5763    9.2438 C   0  0  0  0  0  0  0  0  0  0  0  0
   -8.5594   -1.0267    7.8705 C   0  0  0  0  0  0  0  0  0  0  0  0
   -8.2323    0.3147    7.6548 C   0  0  0  0  0  0  0  0  0  0  0  0
   -8.0203    0.7850    6.3547 C   0  0  0  0  0  0  0  0  0  0  0  0
   -8.1542   -0.1053    5.3053 C   0  0  0  0  0  0  0  0  0  0  0  0
   -7.8953    0.3578    4.0226 O   0  0  0  0  0  0  0  0  0  0  0  0
   -8.0136   -0.6157    2.9588 C   0  0  0  0  0  0  0  0  0  0  0  0
   -6.9910   -1.7701    3.1105 C   0  0  0  0  0  0  0  0  0  0  0  0
   -9.4782   -1.0659    2.7747 C   0  0  0  0  0  0  0  0  0  0  0  0
   -7.6448    0.0615    1.5953 C   0  0  0  0  0  0  0  0  0  0  0  0
   -7.1758   -0.5779    0.6527 O   0  0  0  0  0  0  0  0  0  0  0  0
   -7.9628    1.4084    1.4610 N   0  0  0  0  0  0  0  0  0  0  0  0
   -7.5415    2.1355    0.2501 C   0  0  2  0  0  0  0  0  0  0  0  0
   -6.0524    2.4887    0.4095 C   0  0  0  0  0  0  0  0  0  0  0  0
   -8.4164    3.3873   -0.1060 C   0  0  1  0  0  0  0  0  0  0  0  0
   -8.0074    4.1329   -1.4200 C   0  0  0  0  0  0  0  0  0  0  0  0
   -7.9806    3.3901   -2.7424 C   0  0  0  0  0  0  0  0  0  0  0  0
   -7.0469    2.3765   -2.9516 C   0  0  0  0  0  0  0  0  0  0  0  0
   -6.8480    1.8141   -4.2044 C   0  0  0  0  0  0  0  0  0  0  0  0
   -7.5558    2.2655   -5.3130 C   0  0  0  0  0  0  0  0  0  0  0  0
   -8.5413    3.2365   -5.1200 C   0  0  0  0  0  0  0  0  0  0  0  0
   -8.7551    3.7941   -3.8424 C   0  0  0  0  0  0  0  0  0  0  0  0
   -7.3157    1.8323   -6.5973 O   0  0  0  0  0  0  0  0  0  0  0  0
   -6.1940    0.9423   -6.7013 C   0  0  0  0  0  0  0  0  0  0  0  0
   -5.8924    0.5479   -8.1293 C   0  0  0  0  0  0  0  0  0  0  0  0
   -4.8440   -0.3238   -8.1181 F   0  0  0  0  0  0  0  0  0  0  0  0
   -9.9278    3.1624   -0.0974 C   0  0  0  0  0  0  0  0  0  0  0  0
  -10.7754    4.2157    0.2956 C   0  0  0  0  0  0  0  0  0  0  0  0
  -12.1590    4.0432    0.3543 C   0  0  0  0  0  0  0  0  0  0  0  0
  -12.7194    2.8132    0.0159 C   0  0  0  0  0  0  0  0  0  0  0  0
  -11.8969    1.7648   -0.4045 C   0  0  0  0  0  0  0  0  0  0  0  0
  -12.4727    0.5022   -0.7440 C   0  0  0  0  0  0  0  0  0  0  0  0
  -12.9568   -0.5287   -1.0080 N   0  0  0  0  0  0  0  0  0  0  0  0
  -10.5093    1.9451   -0.4767 C   0  0  0  0  0  0  0  0  0  0  0  0
   -8.4990   -1.3934    5.4934 N   0  0  0  0  0  0  0  0  0  0  0  0
   -8.6816   -1.8331    6.7534 C   0  0  0  0  0  0  0  0  0  0  0  0
   -8.9734   -2.6537    9.2178 H   0  0  0  0  0  0  0  0  0  0  0  0
   -9.6315   -1.0883    9.7158 H   0  0  0  0  0  0  0  0  0  0  0  0
   -7.8814   -1.4204    9.8575 H   0  0  0  0  0  0  0  0  0  0  0  0
   -8.1315    0.9943    8.4969 H   0  0  0  0  0  0  0  0  0  0  0  0
   -7.7498    1.8188    6.1771 H   0  0  0  0  0  0  0  0  0  0  0  0
   -6.8730   -2.1582    4.1231 H   0  0  0  0  0  0  0  0  0  0  0  0
   -5.9857   -1.4237    2.8383 H   0  0  0  0  0  0  0  0  0  0  0  0
   -7.2398   -2.6166    2.4625 H   0  0  0  0  0  0  0  0  0  0  0  0
   -9.9405   -1.4656    3.6796 H   0  0  0  0  0  0  0  0  0  0  0  0
   -9.5685   -1.8323    1.9982 H   0  0  0  0  0  0  0  0  0  0  0  0
  -10.1057   -0.2152    2.4807 H   0  0  0  0  0  0  0  0  0  0  0  0
   -8.0965    1.9185    2.3283 H   0  0  0  0  0  0  0  0  0  0  0  0
   -7.6395    1.4151   -0.5669 H   0  0  0  0  0  0  0  0  0  0  0  0
   -5.8714    3.0174    1.3504 H   0  0  0  0  0  0  0  0  0  0  0  0
   -5.6668    3.1117   -0.4002 H   0  0  0  0  0  0  0  0  0  0  0  0
   -5.4435    1.5772    0.4212 H   0  0  0  0  0  0  0  0  0  0  0  0
   -8.2277    4.1012    0.7107 H   0  0  0  0  0  0  0  0  0  0  0  0
   -7.0000    4.5498   -1.2878 H   0  0  0  0  0  0  0  0  0  0  0  0
   -8.6419    5.0224   -1.5370 H   0  0  0  0  0  0  0  0  0  0  0  0
   -6.3967    2.0157   -2.1664 H   0  0  0  0  0  0  0  0  0  0  0  0
   -6.0860    1.0454   -4.2655 H   0  0  0  0  0  0  0  0  0  0  0  0
   -9.1260    3.5930   -5.9654 H   0  0  0  0  0  0  0  0  0  0  0  0
   -9.4999    4.5806   -3.7324 H   0  0  0  0  0  0  0  0  0  0  0  0
   -6.4009    0.0218   -6.1414 H   0  0  0  0  0  0  0  0  0  0  0  0
   -5.2902    1.4168   -6.2950 H   0  0  0  0  0  0  0  0  0  0  0  0
   -5.6101    1.4130   -8.7340 H   0  0  0  0  0  0  0  0  0  0  0  0
   -6.7461    0.0524   -8.5969 H   0  0  0  0  0  0  0  0  0  0  0  0
  -10.3603    5.1859    0.5654 H   0  0  0  0  0  0  0  0  0  0  0  0
  -12.7989    4.8642    0.6701 H   0  0  0  0  0  0  0  0  0  0  0  0
  -13.7973    2.6795    0.0804 H   0  0  0  0  0  0  0  0  0  0  0  0
   -9.8872    1.1208   -0.8220 H   0  0  0  0  0  0  0  0  0  0  0  0
   -8.9280   -2.8894    6.8308 H   0  0  0  0  0  0  0  0  0  0  0  0
  1  2  1  0  0  0  0
  1 37  1  0  0  0  0
  1 38  1  0  0  0  0
  1 39  1  0  0  0  0
  2 36  2  0  0  0  0
  2  3  1  0  0  0  0
  3  4  2  0  0  0  0
  3 40  1  0  0  0  0
  4  5  1  0  0  0  0
  4 41  1  0  0  0  0
  5  6  1  0  0  0  0
  5 35  2  0  0  0  0
  6  7  1  0  0  0  0
  7  8  1  0  0  0  0
  7  9  1  0  0  0  0
  7 10  1  0  0  0  0
  8 42  1  0  0  0  0
  8 43  1  0  0  0  0
  8 44  1  0  0  0  0
  9 45  1  0  0  0  0
  9 46  1  0  0  0  0
  9 47  1  0  0  0  0
 10 11  2  0  0  0  0
 10 12  1  0  0  0  0
 12 48  1  0  0  0  0
 13 15  1  0  0  0  0
 13 14  1  0  0  0  0
 13 12  1  0  0  0  0
 13 49  1  6  0  0  0
 14 50  1  0  0  0  0
 14 51  1  0  0  0  0
 14 52  1  0  0  0  0
 15 16  1  0  0  0  0
 15 27  1  0  0  0  0
 15 53  1  1  0  0  0
 16 17  1  0  0  0  0
 16 54  1  0  0  0  0
 16 55  1  0  0  0  0
 17 22  2  0  0  0  0
 17 18  1  0  0  0  0
 18 19  2  0  0  0  0
 18 56  1  0  0  0  0
 19 20  1  0  0  0  0
 19 57  1  0  0  0  0
 20 21  2  0  0  0  0
 20 23  1  0  0  0  0
 21 22  1  0  0  0  0
 21 58  1  0  0  0  0
 22 59  1  0  0  0  0
 23 24  1  0  0  0  0
 24 25  1  0  0  0  0
 24 60  1  0  0  0  0
 24 61  1  0  0  0  0
 25 26  1  0  0  0  0
 25 62  1  0  0  0  0
 25 63  1  0  0  0  0
 27 34  2  0  0  0  0
 27 28  1  0  0  0  0
 28 29  2  0  0  0  0
 28 64  1  0  0  0  0
 29 30  1  0  0  0  0
 29 65  1  0  0  0  0
 30 31  2  0  0  0  0
 30 66  1  0  0  0  0
 31 32  1  0  0  0  0
 31 34  1  0  0  0  0
 32 33  3  0  0  0  0
 34 67  1  0  0  0  0
 35 36  1  0  0  0  0
 36 68  1  0  0  0  0
M  END
$$$$
CHEMBL446993_5ZTY
 OpenBabel12022418133D

 50 53  0  0  0  0  0  0  0  0999 V2000
    2.7534   -1.3781   -0.1486 O   0  0  0  0  0  0  0  0  0  0  0  0
    2.1875   -0.2926   -0.1908 C   0  0  0  0  0  0  0  0  0  0  0  0
    2.7654    0.8733   -0.9469 C   0  0  0  0  0  0  0  0  0  0  0  0
    3.7797    0.6184   -1.7913 C   0  0  0  0  0  0  0  0  0  0  0  0
    4.3663    1.6904   -2.5903 C   0  0  0  0  0  0  0  0  0  0  0  0
    5.3266    1.4189   -3.5685 C   0  0  0  0  0  0  0  0  0  0  0  0
    5.8435    2.4607   -4.3297 C   0  0  0  0  0  0  0  0  0  0  0  0
    5.3907    3.7418   -4.0748 C   0  0  0  0  0  0  0  0  0  0  0  0
    4.4725    4.0376   -3.1296 N   0  0  0  0  0  0  0  0  0  0  0  0
    3.9603    3.0159   -2.4017 C   0  0  0  0  0  0  0  0  0  0  0  0
    2.9276    3.2853   -1.4728 N   0  0  0  0  0  0  0  0  0  0  0  0
    2.4636    4.6611   -1.3342 C   0  0  0  0  0  0  0  0  0  0  0  0
    3.1545    5.4802   -0.2611 C   0  0  0  0  0  0  0  0  0  0  0  0
    2.9468    5.2154    1.1008 C   0  0  0  0  0  0  0  0  0  0  0  0
    3.4128    6.1013    2.0770 C   0  0  0  0  0  0  0  0  0  0  0  0
    4.1021    7.2545    1.7050 C   0  0  0  0  0  0  0  0  0  0  0  0
    4.3671    7.4983    0.3595 C   0  0  0  0  0  0  0  0  0  0  0  0
    3.9044    6.6119   -0.6171 C   0  0  0  0  0  0  0  0  0  0  0  0
    2.2402    2.2698   -0.8249 C   0  0  0  0  0  0  0  0  0  0  0  0
    1.2207    2.4764   -0.1624 O   0  0  0  0  0  0  0  0  0  0  0  0
    0.9771   -0.0509    0.4135 N   0  0  0  0  0  0  0  0  0  0  0  0
    0.2237   -1.0282    1.1844 C   0  0  0  0  0  0  0  0  0  0  0  0
    0.5863   -0.9626    2.6753 C   0  0  0  0  0  0  0  0  0  0  0  0
   -0.2568   -1.9330    3.5017 C   0  0  0  0  0  0  0  0  0  0  0  0
   -1.7537   -1.7224    3.2837 C   0  0  0  0  0  0  0  0  0  0  0  0
   -2.1198   -1.7620    1.8033 C   0  0  0  0  0  0  0  0  0  0  0  0
   -1.2782   -0.7819    0.9928 C   0  0  0  0  0  0  0  0  0  0  0  0
    4.1759   -0.3839   -1.9136 H   0  0  0  0  0  0  0  0  0  0  0  0
    5.6654    0.4022   -3.7544 H   0  0  0  0  0  0  0  0  0  0  0  0
    6.5775    2.2784   -5.1085 H   0  0  0  0  0  0  0  0  0  0  0  0
    5.7567    4.5906   -4.6458 H   0  0  0  0  0  0  0  0  0  0  0  0
    1.3929    4.6592   -1.0906 H   0  0  0  0  0  0  0  0  0  0  0  0
    2.5124    5.1734   -2.3033 H   0  0  0  0  0  0  0  0  0  0  0  0
    2.3787    4.3418    1.4121 H   0  0  0  0  0  0  0  0  0  0  0  0
    3.2103    5.9085    3.1274 H   0  0  0  0  0  0  0  0  0  0  0  0
    4.4262    7.9645    2.4612 H   0  0  0  0  0  0  0  0  0  0  0  0
    4.9096    8.3935    0.0667 H   0  0  0  0  0  0  0  0  0  0  0  0
    4.1012    6.8302   -1.6652 H   0  0  0  0  0  0  0  0  0  0  0  0
    0.6237    0.9073    0.3930 H   0  0  0  0  0  0  0  0  0  0  0  0
    0.4757   -2.0283    0.8054 H   0  0  0  0  0  0  0  0  0  0  0  0
    0.4346    0.0593    3.0500 H   0  0  0  0  0  0  0  0  0  0  0  0
    1.6508   -1.1873    2.8166 H   0  0  0  0  0  0  0  0  0  0  0  0
   -0.0223   -1.8142    4.5655 H   0  0  0  0  0  0  0  0  0  0  0  0
    0.0069   -2.9627    3.2304 H   0  0  0  0  0  0  0  0  0  0  0  0
   -2.0511   -0.7551    3.7069 H   0  0  0  0  0  0  0  0  0  0  0  0
   -2.3178   -2.4927    3.8221 H   0  0  0  0  0  0  0  0  0  0  0  0
   -3.1826   -1.5250    1.6801 H   0  0  0  0  0  0  0  0  0  0  0  0
   -1.9712   -2.7769    1.4155 H   0  0  0  0  0  0  0  0  0  0  0  0
   -1.5390   -0.8627   -0.0689 H   0  0  0  0  0  0  0  0  0  0  0  0
   -1.5285    0.2444    1.2954 H   0  0  0  0  0  0  0  0  0  0  0  0
  1  2  2  0  0  0  0
  2  3  1  0  0  0  0
  2 21  1  0  0  0  0
  3 19  1  0  0  0  0
  3  4  2  0  0  0  0
  4  5  1  0  0  0  0
  4 28  1  0  0  0  0
  5 10  2  0  0  0  0
  5  6  1  0  0  0  0
  6  7  2  0  0  0  0
  6 29  1  0  0  0  0
  7  8  1  0  0  0  0
  7 30  1  0  0  0  0
  8  9  2  0  0  0  0
  8 31  1  0  0  0  0
  9 10  1  0  0  0  0
 10 11  1  0  0  0  0
 11 12  1  0  0  0  0
 11 19  1  0  0  0  0
 12 13  1  0  0  0  0
 12 32  1  0  0  0  0
 12 33  1  0  0  0  0
 13 18  2  0  0  0  0
 13 14  1  0  0  0  0
 14 15  2  0  0  0  0
 14 34  1  0  0  0  0
 15 16  1  0  0  0  0
 15 35  1  0  0  0  0
 16 17  2  0  0  0  0
 16 36  1  0  0  0  0
 17 18  1  0  0  0  0
 17 37  1  0  0  0  0
 18 38  1  0  0  0  0
 19 20  2  0  0  0  0
 21 22  1  0  0  0  0
 21 39  1  0  0  0  0
 22 27  1  0  0  0  0
 22 23  1  0  0  0  0
 22 40  1  0  0  0  0
 23 24  1  0  0  0  0
 23 41  1  0  0  0  0
 23 42  1  0  0  0  0
 24 25  1  0  0  0  0
 24 43  1  0  0  0  0
 24 44  1  0  0  0  0
 25 26  1  0  0  0  0
 25 45  1  0  0  0  0
 25 46  1  0  0  0  0
 26 27  1  0  0  0  0
 26 47  1  0  0  0  0
 26 48  1  0  0  0  0
 27 49  1  0  0  0  0
 27 50  1  0  0  0  0
M  END
$$$$
CHEMBL1760943_6PT0
 OpenBabel12022418133D

 46 49  0  0  1  0  0  0  0  0999 V2000
   -2.0943    0.5623   -0.0142 C   0  0  0  0  0  0  0  0  0  0  0  0
   -0.9796    1.3087    0.0679 C   0  0  0  0  0  0  0  0  0  0  0  0
    0.2477    0.6636    0.0904 N   0  0  0  0  0  0  0  0  0  0  0  0
    0.2868   -0.7062    0.0119 C   0  0  0  0  0  0  0  0  0  0  0  0
   -0.9467   -1.4286   -0.0540 C   0  0  0  0  0  0  0  0  0  0  0  0
   -2.0993   -0.8192   -0.0734 N   0  0  0  0  0  0  0  0  0  0  0  0
    1.6081   -1.0517    0.0723 C   0  0  0  0  0  0  0  0  0  0  0  0
    2.3928    0.0569    0.2283 N   0  0  0  0  0  0  0  0  0  0  0  0
    1.5549    1.0962    0.1961 C   0  0  0  0  0  0  0  0  0  0  0  0
    2.0057    2.4785    0.2613 C   0  0  0  0  0  0  0  0  0  0  0  0
    1.2693    3.4602    0.2567 O   0  0  0  0  0  0  0  0  0  0  0  0
    3.3771    2.5998    0.3164 N   0  0  0  0  0  0  0  0  0  0  0  0
    4.0647    3.8952    0.4756 C   0  0  1  0  0  0  0  0  0  0  0  0
    4.2265    4.3543    1.9532 C   0  0  0  0  0  0  0  0  0  0  0  0
    3.7349    3.4368    2.8213 F   0  0  0  0  0  0  0  0  0  0  0  0
    5.5206    4.5592    2.3011 F   0  0  0  0  0  0  0  0  0  0  0  0
    3.5701    5.5171    2.1801 F   0  0  0  0  0  0  0  0  0  0  0  0
    5.3735    3.9141   -0.2993 C   0  0  0  0  0  0  0  0  0  0  0  0
    5.8173    5.0956   -0.8966 C   0  0  0  0  0  0  0  0  0  0  0  0
    6.9533    5.2018   -1.6262 N   0  0  0  0  0  0  0  0  0  0  0  0
    7.6940    4.0863   -1.7709 C   0  0  0  0  0  0  0  0  0  0  0  0
    7.3661    2.8721   -1.1947 C   0  0  0  0  0  0  0  0  0  0  0  0
    6.1980    2.7904   -0.4409 C   0  0  0  0  0  0  0  0  0  0  0  0
    2.0973   -2.3092    0.0846 N   0  0  0  0  0  0  0  0  0  0  0  0
    1.8415   -3.2102   -1.0565 C   0  0  0  0  0  0  0  0  0  0  0  0
    1.9280   -4.6658   -0.5707 C   0  0  0  0  0  0  0  0  0  0  0  0
    3.2069   -4.9406    0.0266 O   0  0  0  0  0  0  0  0  0  0  0  0
    3.4450   -4.0547    1.1362 C   0  0  0  0  0  0  0  0  0  0  0  0
    3.4047   -2.5771    0.7036 C   0  0  0  0  0  0  0  0  0  0  0  0
   -3.0752    1.0309   -0.0230 H   0  0  0  0  0  0  0  0  0  0  0  0
   -1.0014    2.3888    0.1281 H   0  0  0  0  0  0  0  0  0  0  0  0
   -0.9269   -2.5304   -0.0816 H   0  0  0  0  0  0  0  0  0  0  0  0
    3.8674    1.7294    0.5002 H   0  0  0  0  0  0  0  0  0  0  0  0
    3.4096    4.6333   -0.0052 H   0  0  0  0  0  0  0  0  0  0  0  0
    5.2599    6.0264   -0.8099 H   0  0  0  0  0  0  0  0  0  0  0  0
    8.5870    4.1943   -2.3787 H   0  0  0  0  0  0  0  0  0  0  0  0
    8.0040    2.0057   -1.3310 H   0  0  0  0  0  0  0  0  0  0  0  0
    5.9486    1.8403    0.0203 H   0  0  0  0  0  0  0  0  0  0  0  0
    2.6026   -3.0343   -1.8278 H   0  0  0  0  0  0  0  0  0  0  0  0
    0.8618   -3.0389   -1.5134 H   0  0  0  0  0  0  0  0  0  0  0  0
    1.7993   -5.3518   -1.4138 H   0  0  0  0  0  0  0  0  0  0  0  0
    1.1389   -4.8817    0.1603 H   0  0  0  0  0  0  0  0  0  0  0  0
    4.4275   -4.2990    1.5507 H   0  0  0  0  0  0  0  0  0  0  0  0
    2.6945   -4.2541    1.9115 H   0  0  0  0  0  0  0  0  0  0  0  0
    3.5659   -1.9456    1.5846 H   0  0  0  0  0  0  0  0  0  0  0  0
    4.2030   -2.3773   -0.0218 H   0  0  0  0  0  0  0  0  0  0  0  0
  1  6  1  0  0  0  0
  1  2  2  0  0  0  0
  1 30  1  0  0  0  0
  2  3  1  0  0  0  0
  2 31  1  0  0  0  0
  3  9  1  0  0  0  0
  3  4  1  0  0  0  0
  4  5  1  0  0  0  0
  4  7  2  0  0  0  0
  5  6  2  0  0  0  0
  5 32  1  0  0  0  0
  7  8  1  0  0  0  0
  7 24  1  0  0  0  0
  8  9  2  0  0  0  0
  9 10  1  0  0  0  0
 10 11  2  0  0  0  0
 10 12  1  0  0  0  0
 12 33  1  0  0  0  0
 13 12  1  0  0  0  0
 13 14  1  0  0  0  0
 13 18  1  0  0  0  0
 13 34  1  6  0  0  0
 14 15  1  0  0  0  0
 14 16  1  0  0  0  0
 14 17  1  0  0  0  0
 18 23  2  0  0  0  0
 18 19  1  0  0  0  0
 19 20  2  0  0  0  0
 19 35  1  0  0  0  0
 20 21  1  0  0  0  0
 21 22  2  0  0  0  0
 21 36  1  0  0  0  0
 22 23  1  0  0  0  0
 22 37  1  0  0  0  0
 23 38  1  0  0  0  0
 24 29  1  0  0  0  0
 24 25  1  0  0  0  0
 25 26  1  0  0  0  0
 25 39  1  0  0  0  0
 25 40  1  0  0  0  0
 26 27  1  0  0  0  0
 26 41  1  0  0  0  0
 26 42  1  0  0  0  0
 27 28  1  0  0  0  0
 28 29  1  0  0  0  0
 28 43  1  0  0  0  0
 28 44  1  0  0  0  0
 29 45  1  0  0  0  0
 29 46  1  0  0  0  0
M  END
$$$$
CHEMBL3235055_8GUQ
 OpenBabel12022418133D

 51 56  0  0  1  0  0  0  0  0999 V2000
    0.0511   -2.5029   -0.3586 N   0  0  0  0  0  0  0  0  0  0  0  0
   -0.7967   -3.5598   -0.1532 N   0  0  0  0  0  0  0  0  0  0  0  0
   -0.8526   -4.2368   -1.2595 C   0  0  0  0  0  0  0  0  0  0  0  0
   -0.2450   -3.6066   -2.4568 C   0  0  2  0  0  0  0  0  0  0  0  0
    0.3984   -2.3564   -1.7924 C   0  0  1  0  0  0  0  0  0  0  0  0
   -0.3672   -1.1590   -2.3125 C   0  0  2  0  0  0  0  0  0  0  0  0
   -1.5185   -1.6714   -3.1203 C   0  0  2  0  0  0  0  0  0  0  0  0
   -1.3472   -3.1341   -3.4025 C   0  0  0  0  0  0  0  0  0  0  0  0
   -0.5577   -0.7163   -3.7508 C   0  0  0  0  0  0  0  0  0  0  0  0
   -1.4555   -5.6223   -1.2357 C   0  0  0  0  0  0  0  0  0  0  0  0
   -1.7957   -6.1762   -2.2665 O   0  0  0  0  0  0  0  0  0  0  0  0
   -1.5303   -6.0950    0.0579 N   0  0  0  0  0  0  0  0  0  0  0  0
   -2.4967   -7.1191    0.5132 C   0  0  0  0  0  0  0  0  0  0  0  0
   -3.9857   -6.5751    0.3767 C   0  0  0  0  0  0  0  0  0  0  0  0
   -4.3838   -5.7915    1.4131 N   0  0  0  0  0  0  0  0  0  0  0  0
   -5.5596   -5.1432    1.2949 C   0  0  0  0  0  0  0  0  0  0  0  0
   -6.3677   -5.2198    0.1754 C   0  0  0  0  0  0  0  0  0  0  0  0
   -5.9715   -6.0483   -0.8657 C   0  0  0  0  0  0  0  0  0  0  0  0
   -4.7751   -6.7440   -0.7598 C   0  0  0  0  0  0  0  0  0  0  0  0
   -2.0397   -7.6234    1.9412 C   0  0  0  0  0  0  0  0  0  0  0  0
   -2.6916   -8.9621    1.5528 C   0  0  0  0  0  0  0  0  0  0  0  0
   -2.2270   -8.6162    0.1023 C   0  0  0  0  0  0  0  0  0  0  0  0
    1.0888   -2.5123    0.6090 C   0  0  0  0  0  0  0  0  0  0  0  0
    2.3832   -2.3214    0.2773 N   0  0  0  0  0  0  0  0  0  0  0  0
    3.3097   -2.6146    1.2147 C   0  0  0  0  0  0  0  0  0  0  0  0
    3.0039   -3.1013    2.4657 C   0  0  0  0  0  0  0  0  0  0  0  0
    1.6885   -3.2294    2.8171 N   0  3  0  0  0  0  0  0  0  0  0  0
    0.7322   -2.8828    1.9043 C   0  0  0  0  0  0  0  0  0  0  0  0
    1.3665   -3.6961    3.9538 O   0  5  0  0  0  0  0  0  0  0  0  0
    0.4792   -4.2876   -2.9098 H   0  0  0  0  0  0  0  0  0  0  0  0
    1.4686   -2.2745   -2.0118 H   0  0  0  0  0  0  0  0  0  0  0  0
   -0.4850   -0.3755   -1.5742 H   0  0  0  0  0  0  0  0  0  0  0  0
   -2.5046   -1.3815   -2.7854 H   0  0  0  0  0  0  0  0  0  0  0  0
   -2.2918   -3.6685   -3.2618 H   0  0  0  0  0  0  0  0  0  0  0  0
   -1.0354   -3.2789   -4.4423 H   0  0  0  0  0  0  0  0  0  0  0  0
    0.0957   -1.0834   -4.5321 H   0  0  0  0  0  0  0  0  0  0  0  0
   -0.9298    0.2885   -3.9324 H   0  0  0  0  0  0  0  0  0  0  0  0
   -1.3675   -5.3415    0.7354 H   0  0  0  0  0  0  0  0  0  0  0  0
   -5.8314   -4.5245    2.1453 H   0  0  0  0  0  0  0  0  0  0  0  0
   -7.2778   -4.6361    0.1108 H   0  0  0  0  0  0  0  0  0  0  0  0
   -6.5688   -6.1290   -1.7690 H   0  0  0  0  0  0  0  0  0  0  0  0
   -4.4212   -7.3632   -1.5789 H   0  0  0  0  0  0  0  0  0  0  0  0
   -0.9458   -7.6965    2.0556 H   0  0  0  0  0  0  0  0  0  0  0  0
   -2.4320   -7.1062    2.8183 H   0  0  0  0  0  0  0  0  0  0  0  0
   -3.7862   -8.9832    1.6502 H   0  0  0  0  0  0  0  0  0  0  0  0
   -2.2936   -9.8340    2.0733 H   0  0  0  0  0  0  0  0  0  0  0  0
   -2.8519   -9.0397   -0.6880 H   0  0  0  0  0  0  0  0  0  0  0  0
   -1.1790   -8.8571   -0.1199 H   0  0  0  0  0  0  0  0  0  0  0  0
    4.3426   -2.4741    0.9104 H   0  0  0  0  0  0  0  0  0  0  0  0
    3.6976   -3.4118    3.2255 H   0  0  0  0  0  0  0  0  0  0  0  0
   -0.2776   -3.0497    2.2478 H   0  0  0  0  0  0  0  0  0  0  0  0
  1  2  1  0  0  0  0
  1 23  1  0  0  0  0
  2  3  2  0  0  0  0
  3  4  1  0  0  0  0
  3 10  1  0  0  0  0
  4  5  1  0  0  0  0
  4  8  1  0  0  0  0
  4 30  1  6  0  0  0
  5  1  1  0  0  0  0
  5  6  1  0  0  0  0
  5 31  1  6  0  0  0
  6  7  1  0  0  0  0
  6  9  1  0  0  0  0
  6 32  1  1  0  0  0
  7  8  1  0  0  0  0
  7  9  1  0  0  0  0
  7 33  1  1  0  0  0
  8 34  1  0  0  0  0
  8 35  1  0  0  0  0
  9 36  1  0  0  0  0
  9 37  1  0  0  0  0
 10 11  2  0  0  0  0
 10 12  1  0  0  0  0
 12 13  1  0  0  0  0
 12 38  1  0  0  0  0
 13 22  1  0  0  0  0
 13 14  1  0  0  0  0
 13 20  1  0  0  0  0
 14 19  2  0  0  0  0
 14 15  1  0  0  0  0
 15 16  2  0  0  0  0
 16 17  1  0  0  0  0
 16 39  1  0  0  0  0
 17 18  2  0  0  0  0
 17 40  1  0  0  0  0
 18 19  1  0  0  0  0
 18 41  1  0  0  0  0
 19 42  1  0  0  0  0
 20 21  1  0  0  0  0
 20 43  1  0  0  0  0
 20 44  1  0  0  0  0
 21 22  1  0  0  0  0
 21 45  1  0  0  0  0
 21 46  1  0  0  0  0
 22 47  1  0  0  0  0
 22 48  1  0  0  0  0
 23 28  2  0  0  0  0
 23 24  1  0  0  0  0
 24 25  2  0  0  0  0
 25 26  1  0  0  0  0
 25 49  1  0  0  0  0
 26 27  2  0  0  0  0
 26 50  1  0  0  0  0
 27 28  1  0  0  0  0
 27 29  1  0  0  0  0
 28 51  1  0  0  0  0
M  CHG  2  27   1  29  -1
M  END
$$$$
CHEMBL3354406_6PT0
 OpenBabel12022418133D

 43 47  0  0  0  0  0  0  0  0999 V2000
    1.3206   -0.5239    0.2600 C   0  0  0  0  0  0  0  0  0  0  0  0
    1.7108   -1.0593   -0.9639 C   0  0  0  0  0  0  0  0  0  0  0  0
    1.3175   -0.4120   -2.1375 C   0  0  0  0  0  0  0  0  0  0  0  0
    0.5412    0.7654   -2.0987 C   0  0  0  0  0  0  0  0  0  0  0  0
    0.1799    1.3509   -0.8653 C   0  0  0  0  0  0  0  0  0  0  0  0
    0.5732    0.6561    0.3107 C   0  0  0  0  0  0  0  0  0  0  0  0
   -0.5980    2.6602   -0.7004 C   0  0  0  0  0  0  0  0  0  0  0  0
   -2.3841    2.3536   -0.5197 S   0  0  0  0  0  0  0  0  0  0  0  0
   -3.1638    3.9612   -0.3550 C   0  0  0  0  0  0  0  0  0  0  0  0
   -4.5061    3.8739   -0.3957 N   0  0  0  0  0  0  0  0  0  0  0  0
   -5.1326    5.0647   -0.3375 C   0  0  0  0  0  0  0  0  0  0  0  0
   -4.4801    6.2773   -0.2684 C   0  0  0  0  0  0  0  0  0  0  0  0
   -5.4640    7.3023   -0.3266 C   0  0  0  0  0  0  0  0  0  0  0  0
   -5.4108    8.7136   -0.3169 C   0  0  0  0  0  0  0  0  0  0  0  0
   -6.5929    9.4577   -0.3856 C   0  0  0  0  0  0  0  0  0  0  0  0
   -7.8249    8.8190   -0.4635 C   0  0  0  0  0  0  0  0  0  0  0  0
   -7.9087    7.4223   -0.4874 C   0  0  0  0  0  0  0  0  0  0  0  0
   -6.7155    6.6723   -0.4309 C   0  0  0  0  0  0  0  0  0  0  0  0
   -6.4967    5.2846   -0.4221 N   0  0  0  0  0  0  0  0  0  0  0  0
   -7.4862    4.2698   -0.5465 C   0  0  0  0  0  0  0  0  0  0  0  0
   -8.5244    4.5840   -1.1298 O   0  0  0  0  0  0  0  0  0  0  0  0
   -7.2988    2.9411    0.0096 C   0  0  0  0  0  0  0  0  0  0  0  0
   -7.8072    1.7020   -0.3543 C   0  0  0  0  0  0  0  0  0  0  0  0
   -7.3667    0.7770    0.6260 C   0  0  0  0  0  0  0  0  0  0  0  0
   -6.6129    1.4974    1.5200 C   0  0  0  0  0  0  0  0  0  0  0  0
   -6.5799    2.8049    1.1636 O   0  0  0  0  0  0  0  0  0  0  0  0
   -3.1202    6.3150   -0.1930 N   0  0  0  0  0  0  0  0  0  0  0  0
   -2.4751    5.1203   -0.2407 N   0  0  0  0  0  0  0  0  0  0  0  0
    0.1509    1.2807   -3.3937 C   0  0  0  0  0  0  0  0  0  0  0  0
   -0.1119    1.5945   -4.4763 N   0  0  0  0  0  0  0  0  0  0  0  0
    1.6007   -1.0361    1.1798 H   0  0  0  0  0  0  0  0  0  0  0  0
    2.3022   -1.9658   -1.0037 H   0  0  0  0  0  0  0  0  0  0  0  0
    1.6284   -0.8499   -3.0912 H   0  0  0  0  0  0  0  0  0  0  0  0
    0.2934    1.0431    1.2895 H   0  0  0  0  0  0  0  0  0  0  0  0
   -0.4039    3.3232   -1.5498 H   0  0  0  0  0  0  0  0  0  0  0  0
   -0.2325    3.1708    0.1961 H   0  0  0  0  0  0  0  0  0  0  0  0
   -4.4509    9.2219   -0.2587 H   0  0  0  0  0  0  0  0  0  0  0  0
   -6.5474   10.5446   -0.3778 H   0  0  0  0  0  0  0  0  0  0  0  0
   -8.7373    9.4106   -0.5121 H   0  0  0  0  0  0  0  0  0  0  0  0
   -8.8850    6.9449   -0.5487 H   0  0  0  0  0  0  0  0  0  0  0  0
   -8.4287    1.4949   -1.2148 H   0  0  0  0  0  0  0  0  0  0  0  0
   -7.5791   -0.2825    0.6822 H   0  0  0  0  0  0  0  0  0  0  0  0
   -6.0746    1.2445    2.4235 H   0  0  0  0  0  0  0  0  0  0  0  0
  1  6  2  0  0  0  0
  1  2  1  0  0  0  0
  1 31  1  0  0  0  0
  2  3  2  0  0  0  0
  2 32  1  0  0  0  0
  3  4  1  0  0  0  0
  3 33  1  0  0  0  0
  4  5  2  0  0  0  0
  4 29  1  0  0  0  0
  5  6  1  0  0  0  0
  5  7  1  0  0  0  0
  6 34  1  0  0  0  0
  7  8  1  0  0  0  0
  7 35  1  0  0  0  0
  7 36  1  0  0  0  0
  8  9  1  0  0  0  0
  9 28  2  0  0  0  0
  9 10  1  0  0  0  0
 10 11  2  0  0  0  0
 11 19  1  0  0  0  0
 11 12  1  0  0  0  0
 12 13  1  0  0  0  0
 12 27  2  0  0  0  0
 13 18  2  0  0  0  0
 13 14  1  0  0  0  0
 14 15  2  0  0  0  0
 14 37  1  0  0  0  0
 15 16  1  0  0  0  0
 15 38  1  0  0  0  0
 16 17  2  0  0  0  0
 16 39  1  0  0  0  0
 17 18  1  0  0  0  0
 17 40  1  0  0  0  0
 18 19  1  0  0  0  0
 19 20  1  0  0  0  0
 20 21  2  0  0  0  0
 20 22  1  0  0  0  0
 22 26  1  0  0  0  0
 22 23  2  0  0  0  0
 23 24  1  0  0  0  0
 23 41  1  0  0  0  0
 24 25  2  0  0  0  0
 24 42  1  0  0  0  0
 25 26  1  0  0  0  0
 25 43  1  0  0  0  0
 27 28  1  0  0  0  0
 29 30  3  0  0  0  0
M  END
$$$$
CHEMBL2152802_5ZTY
 OpenBabel12022418133D

 60 63  0  0  1  0  0  0  0  0999 V2000
   13.4836    3.9668    0.1467 C   0  0  0  0  0  0  0  0  0  0  0  0
   12.1088    3.5150    0.6187 C   0  0  0  0  0  0  0  0  0  0  0  0
   11.2077    3.2664   -0.5856 C   0  0  0  0  0  0  0  0  0  0  0  0
    9.8078    2.7748   -0.1938 C   0  0  0  0  0  0  0  0  0  0  0  0
    8.9513    2.5153   -1.3780 N   0  0  0  0  0  0  0  0  0  0  0  0
    9.4576    1.9287   -2.5398 C   0  0  0  0  0  0  0  0  0  0  0  0
    8.8103    1.6847   -3.6838 C   0  0  0  0  0  0  0  0  0  0  0  0
    9.6111    1.1980   -4.8572 C   0  0  0  0  0  0  0  0  0  0  0  0
   10.8104    0.9674   -4.7528 O   0  0  0  0  0  0  0  0  0  0  0  0
    8.9224    1.0421   -6.0350 N   0  0  0  0  0  0  0  0  0  0  0  0
    9.5410    0.5129   -7.2555 C   0  0  2  0  0  0  0  0  0  0  0  0
    8.9005    1.0433   -8.5967 C   0  0  0  0  0  0  0  0  0  0  0  0
    7.7187    2.0144   -8.4054 C   0  0  0  0  0  0  0  0  0  0  0  0
    9.9464    1.7822   -9.4511 C   0  0  0  0  0  0  0  0  0  0  0  0
    8.3927   -0.2814   -9.2609 C   0  0  1  0  0  0  0  0  0  0  0  0
    9.5521   -1.1317   -9.8075 C   0  0  0  0  0  0  0  0  0  0  0  0
   10.2869   -1.5534   -8.5302 C   0  0  0  0  0  0  0  0  0  0  0  0
    9.3637   -1.0357   -7.3930 C   0  0  1  0  0  0  0  0  0  0  0  0
    9.5326   -1.8475   -6.1227 C   0  0  0  0  0  0  0  0  0  0  0  0
    7.9830   -1.1337   -8.0530 C   0  0  0  0  0  0  0  0  0  0  0  0
    7.3579    1.9507   -3.6721 C   0  0  0  0  0  0  0  0  0  0  0  0
    6.6767    1.8353   -4.6937 O   0  0  0  0  0  0  0  0  0  0  0  0
    6.7292    2.3097   -2.3719 C   0  0  0  0  0  0  0  0  0  0  0  0
    5.3285    2.2790   -2.2696 C   0  0  0  0  0  0  0  0  0  0  0  0
    4.7128    2.5916   -1.0627 C   0  0  0  0  0  0  0  0  0  0  0  0
    5.4943    2.9964    0.0089 C   0  0  0  0  0  0  0  0  0  0  0  0
    6.8865    3.0370   -0.0848 C   0  0  0  0  0  0  0  0  0  0  0  0
    7.5454    2.6375   -1.2596 C   0  0  0  0  0  0  0  0  0  0  0  0
    4.9064    3.3281    1.1637 F   0  0  0  0  0  0  0  0  0  0  0  0
   14.1440    4.1449    0.9998 H   0  0  0  0  0  0  0  0  0  0  0  0
   13.4109    4.8930   -0.4334 H   0  0  0  0  0  0  0  0  0  0  0  0
   13.9468    3.2050   -0.4904 H   0  0  0  0  0  0  0  0  0  0  0  0
   11.6723    4.2770    1.2728 H   0  0  0  0  0  0  0  0  0  0  0  0
   12.2120    2.5939    1.2028 H   0  0  0  0  0  0  0  0  0  0  0  0
   11.7198    2.5321   -1.2131 H   0  0  0  0  0  0  0  0  0  0  0  0
   11.1123    4.1849   -1.1781 H   0  0  0  0  0  0  0  0  0  0  0  0
    9.3857    3.5630    0.4384 H   0  0  0  0  0  0  0  0  0  0  0  0
    9.8732    1.8615    0.4099 H   0  0  0  0  0  0  0  0  0  0  0  0
   10.5062    1.6613   -2.4791 H   0  0  0  0  0  0  0  0  0  0  0  0
    7.9103    1.1442   -5.9936 H   0  0  0  0  0  0  0  0  0  0  0  0
   10.6104    0.7567   -7.2145 H   0  0  0  0  0  0  0  0  0  0  0  0
    8.0387    2.9271   -7.8901 H   0  0  0  0  0  0  0  0  0  0  0  0
    6.8961    1.5723   -7.8360 H   0  0  0  0  0  0  0  0  0  0  0  0
    7.3067    2.3141   -9.3767 H   0  0  0  0  0  0  0  0  0  0  0  0
   10.2273    2.7353   -8.9873 H   0  0  0  0  0  0  0  0  0  0  0  0
    9.5534    1.9993  -10.4537 H   0  0  0  0  0  0  0  0  0  0  0  0
   10.8735    1.2121   -9.5714 H   0  0  0  0  0  0  0  0  0  0  0  0
    7.5981   -0.1336  -10.0000 H   0  0  0  0  0  0  0  0  0  0  0  0
   10.1965   -0.6168  -10.5230 H   0  0  0  0  0  0  0  0  0  0  0  0
    9.1606   -2.0207  -10.3183 H   0  0  0  0  0  0  0  0  0  0  0  0
   11.2920   -1.1206   -8.4762 H   0  0  0  0  0  0  0  0  0  0  0  0
   10.3920   -2.6444   -8.5093 H   0  0  0  0  0  0  0  0  0  0  0  0
   10.5562   -1.7637   -5.7426 H   0  0  0  0  0  0  0  0  0  0  0  0
    9.3322   -2.9094   -6.3070 H   0  0  0  0  0  0  0  0  0  0  0  0
    8.8444   -1.5259   -5.3353 H   0  0  0  0  0  0  0  0  0  0  0  0
    7.7074   -2.1595   -8.3240 H   0  0  0  0  0  0  0  0  0  0  0  0
    7.1766   -0.6979   -7.4556 H   0  0  0  0  0  0  0  0  0  0  0  0
    4.7223    1.9847   -3.1248 H   0  0  0  0  0  0  0  0  0  0  0  0
    3.6333    2.5272   -0.9500 H   0  0  0  0  0  0  0  0  0  0  0  0
    7.4123    3.3628    0.8049 H   0  0  0  0  0  0  0  0  0  0  0  0
  1  2  1  0  0  0  0
  1 30  1  0  0  0  0
  1 31  1  0  0  0  0
  1 32  1  0  0  0  0
  2  3  1  0  0  0  0
  2 33  1  0  0  0  0
  2 34  1  0  0  0  0
  3  4  1  0  0  0  0
  3 35  1  0  0  0  0
  3 36  1  0  0  0  0
  4  5  1  0  0  0  0
  4 37  1  0  0  0  0
  4 38  1  0  0  0  0
  5 28  1  0  0  0  0
  5  6  1  0  0  0  0
  6  7  2  0  0  0  0
  6 39  1  0  0  0  0
  7  8  1  0  0  0  0
  7 21  1  0  0  0  0
  8  9  2  0  0  0  0
  8 10  1  0  0  0  0
 10 40  1  0  0  0  0
 11 12  1  0  0  0  0
 11 18  1  0  0  0  0
 11 10  1  0  0  0  0
 11 41  1  1  0  0  0
 12 13  1  0  0  0  0
 12 14  1  0  0  0  0
 12 15  1  0  0  0  0
 13 42  1  0  0  0  0
 13 43  1  0  0  0  0
 13 44  1  0  0  0  0
 14 45  1  0  0  0  0
 14 46  1  0  0  0  0
 14 47  1  0  0  0  0
 15 16  1  0  0  0  0
 15 20  1  0  0  0  0
 15 48  1  6  0  0  0
 16 17  1  0  0  0  0
 16 49  1  0  0  0  0
 16 50  1  0  0  0  0
 17 18  1  0  0  0  0
 17 51  1  0  0  0  0
 17 52  1  0  0  0  0
 18 19  1  1  0  0  0
 18 20  1  0  0  0  0
 19 53  1  0  0  0  0
 19 54  1  0  0  0  0
 19 55  1  0  0  0  0
 20 56  1  0  0  0  0
 20 57  1  0  0  0  0
 21 22  2  0  0  0  0
 21 23  1  0  0  0  0
 23 28  2  0  0  0  0
 23 24  1  0  0  0  0
 24 25  2  0  0  0  0
 24 58  1  0  0  0  0
 25 26  1  0  0  0  0
 25 59  1  0  0  0  0
 26 27  2  0  0  0  0
 26 29  1  0  0  0  0
 27 28  1  0  0  0  0
 27 60  1  0  0  0  0
M  END
$$$$
CHEMBL3686301_8GUR
 OpenBabel12022418133D

 61 64  0  0  1  0  0  0  0  0999 V2000
    8.8022    6.4916   -2.4868 C   0  0  0  0  0  0  0  0  0  0  0  0
    7.8676    5.7028   -3.4214 C   0  0  0  0  0  0  0  0  0  0  0  0
    8.4245    5.8463   -4.8431 C   0  0  0  0  0  0  0  0  0  0  0  0
    7.9411    4.2028   -3.0901 C   0  0  0  0  0  0  0  0  0  0  0  0
    6.4509    6.2624   -3.4130 C   0  0  0  0  0  0  0  0  0  0  0  0
    5.2642    5.6287   -3.3918 C   0  0  0  0  0  0  0  0  0  0  0  0
    4.1633    6.4177   -3.7375 N   0  0  0  0  0  0  0  0  0  0  0  0
    2.7824    6.0730   -3.4083 C   0  0  0  0  0  0  0  0  0  0  0  0
    2.3945    6.5959   -2.0081 C   0  0  1  0  0  0  0  0  0  0  0  0
    2.3093    8.1156   -1.8583 C   0  0  0  0  0  0  0  0  0  0  0  0
    0.8402    8.4000   -2.0259 C   0  0  0  0  0  0  0  0  0  0  0  0
    0.2070    7.1811   -1.3998 C   0  0  0  0  0  0  0  0  0  0  0  0
    1.0868    6.0802   -1.6642 O   0  0  0  0  0  0  0  0  0  0  0  0
    4.5171    7.6827   -4.2214 C   0  0  0  0  0  0  0  0  0  0  0  0
    3.8228    8.4208   -5.0252 N   0  0  0  0  0  0  0  0  0  0  0  0
    4.2688    9.6268   -5.5201 C   0  0  0  0  0  0  0  0  0  0  0  0
    3.5307   10.6132   -5.5751 O   0  0  0  0  0  0  0  0  0  0  0  0
    5.6445    9.7304   -6.1183 C   0  0  0  0  0  0  0  0  0  0  0  0
    6.1767    8.6049   -6.7916 C   0  0  0  0  0  0  0  0  0  0  0  0
    7.5484    8.5235   -7.0854 C   0  0  0  0  0  0  0  0  0  0  0  0
    8.1563    7.3155   -7.7605 C   0  0  0  0  0  0  0  0  0  0  0  0
    7.3892    6.1984   -7.6514 F   0  0  0  0  0  0  0  0  0  0  0  0
    8.3556    7.5111   -9.0888 F   0  0  0  0  0  0  0  0  0  0  0  0
    9.3764    6.9880   -7.2509 F   0  0  0  0  0  0  0  0  0  0  0  0
    8.3802    9.5738   -6.6870 C   0  0  0  0  0  0  0  0  0  0  0  0
    7.8467   10.7137   -6.0950 C   0  0  0  0  0  0  0  0  0  0  0  0
    6.4699   10.8413   -5.8608 C   0  0  0  0  0  0  0  0  0  0  0  0
    5.9256   11.9995   -5.3501 O   0  0  0  0  0  0  0  0  0  0  0  0
    6.7307   13.1642   -5.5862 C   0  0  0  0  0  0  0  0  0  0  0  0
    5.9528   14.3964   -5.3727 C   0  0  0  0  0  0  0  0  0  0  0  0
    4.6289   14.7475   -5.2804 C   0  0  0  0  0  0  0  0  0  0  0  0
    4.5106   16.1029   -5.1147 N   0  0  0  0  0  0  0  0  0  0  0  0
    5.7565   16.5289   -5.1228 C   0  0  0  0  0  0  0  0  0  0  0  0
    6.6906   15.5508   -5.2745 O   0  0  0  0  0  0  0  0  0  0  0  0
    6.1551    7.9955   -3.6073 S   0  0  0  0  0  0  0  0  0  0  0  0
    9.8200    6.0858   -2.5173 H   0  0  0  0  0  0  0  0  0  0  0  0
    8.4513    6.4688   -1.4516 H   0  0  0  0  0  0  0  0  0  0  0  0
    8.8862    7.5425   -2.7927 H   0  0  0  0  0  0  0  0  0  0  0  0
    9.4565    5.4881   -4.9228 H   0  0  0  0  0  0  0  0  0  0  0  0
    8.4350    6.8971   -5.1326 H   0  0  0  0  0  0  0  0  0  0  0  0
    7.8211    5.2836   -5.5635 H   0  0  0  0  0  0  0  0  0  0  0  0
    8.9761    3.8437   -3.1564 H   0  0  0  0  0  0  0  0  0  0  0  0
    7.3581    3.6061   -3.8032 H   0  0  0  0  0  0  0  0  0  0  0  0
    7.5745    3.9898   -2.0826 H   0  0  0  0  0  0  0  0  0  0  0  0
    5.0947    4.5661   -3.2721 H   0  0  0  0  0  0  0  0  0  0  0  0
    2.6618    4.9805   -3.4163 H   0  0  0  0  0  0  0  0  0  0  0  0
    2.0836    6.4414   -4.1685 H   0  0  0  0  0  0  0  0  0  0  0  0
    3.1055    6.1970   -1.2726 H   0  0  0  0  0  0  0  0  0  0  0  0
    2.9280    8.6988   -2.5352 H   0  0  0  0  0  0  0  0  0  0  0  0
    2.6141    8.3893   -0.8421 H   0  0  0  0  0  0  0  0  0  0  0  0
    0.5884    8.4513   -3.0910 H   0  0  0  0  0  0  0  0  0  0  0  0
    0.5237    9.3345   -1.5513 H   0  0  0  0  0  0  0  0  0  0  0  0
   -0.7837    6.9661   -1.8102 H   0  0  0  0  0  0  0  0  0  0  0  0
    0.1179    7.2926   -0.3136 H   0  0  0  0  0  0  0  0  0  0  0  0
    5.5298    7.7540   -7.0105 H   0  0  0  0  0  0  0  0  0  0  0  0
    9.4591    9.5066   -6.8241 H   0  0  0  0  0  0  0  0  0  0  0  0
    8.5511   11.4863   -5.8003 H   0  0  0  0  0  0  0  0  0  0  0  0
    7.1003   13.1802   -6.6202 H   0  0  0  0  0  0  0  0  0  0  0  0
    7.5705   13.1647   -4.8811 H   0  0  0  0  0  0  0  0  0  0  0  0
    3.7632   14.0959   -5.3319 H   0  0  0  0  0  0  0  0  0  0  0  0
    6.1252   17.5380   -5.0277 H   0  0  0  0  0  0  0  0  0  0  0  0
  1  2  1  0  0  0  0
  1 36  1  0  0  0  0
  1 37  1  0  0  0  0
  1 38  1  0  0  0  0
  2  3  1  0  0  0  0
  2  4  1  0  0  0  0
  2  5  1  0  0  0  0
  3 39  1  0  0  0  0
  3 40  1  0  0  0  0
  3 41  1  0  0  0  0
  4 42  1  0  0  0  0
  4 43  1  0  0  0  0
  4 44  1  0  0  0  0
  5 35  1  0  0  0  0
  5  6  2  0  0  0  0
  6  7  1  0  0  0  0
  6 45  1  0  0  0  0
  7  8  1  0  0  0  0
  7 14  1  0  0  0  0
  8 46  1  0  0  0  0
  8 47  1  0  0  0  0
  9 10  1  0  0  0  0
  9 13  1  0  0  0  0
  9  8  1  0  0  0  0
  9 48  1  1  0  0  0
 10 11  1  0  0  0  0
 10 49  1  0  0  0  0
 10 50  1  0  0  0  0
 11 12  1  0  0  0  0
 11 51  1  0  0  0  0
 11 52  1  0  0  0  0
 12 13  1  0  0  0  0
 12 53  1  0  0  0  0
 12 54  1  0  0  0  0
 14 15  2  0  0  0  0
 14 35  1  0  0  0  0
 15 16  1  0  0  0  0
 16 17  2  0  0  0  0
 16 18  1  0  0  0  0
 18 27  2  0  0  0  0
 18 19  1  0  0  0  0
 19 20  2  0  0  0  0
 19 55  1  0  0  0  0
 20 21  1  0  0  0  0
 20 25  1  0  0  0  0
 21 22  1  0  0  0  0
 21 23  1  0  0  0  0
 21 24  1  0  0  0  0
 25 26  2  0  0  0  0
 25 56  1  0  0  0  0
 26 27  1  0  0  0  0
 26 57  1  0  0  0  0
 27 28  1  0  0  0  0
 28 29  1  0  0  0  0
 29 30  1  0  0  0  0
 29 58  1  0  0  0  0
 29 59  1  0  0  0  0
 30 34  1  0  0  0  0
 30 31  2  0  0  0  0
 31 32  1  0  0  0  0
 31 60  1  0  0  0  0
 32 33  2  0  0  0  0
 33 34  1  0  0  0  0
 33 61  1  0  0  0  0
M  END
$$$$
CHEMBL1224691_5ZTY
 OpenBabel12022418133D

 59 61  0  0  1  0  0  0  0  0999 V2000
    4.8268    1.9579   -1.6052 C   0  0  0  0  0  0  0  0  0  0  0  0
    4.3959    1.0294   -0.4812 C   0  0  0  0  0  0  0  0  0  0  0  0
    4.9691   -0.3743   -0.6708 C   0  0  0  0  0  0  0  0  0  0  0  0
    4.5485   -1.3056    0.4698 C   0  0  0  0  0  0  0  0  0  0  0  0
    5.0912   -2.7224    0.2972 C   0  0  0  0  0  0  0  0  0  0  0  0
    6.5932   -2.7461    0.3445 C   0  0  0  0  0  0  0  0  0  0  0  0
    7.2647   -2.3693    1.3929 N   0  0  0  0  0  0  0  0  0  0  0  0
    8.5876   -2.4652    1.0416 N   0  0  0  0  0  0  0  0  0  0  0  0
    9.6305   -2.1724    1.9026 C   0  0  0  0  0  0  0  0  0  0  0  0
   10.8047   -2.2421    1.5514 O   0  0  0  0  0  0  0  0  0  0  0  0
    9.2157   -1.8119    3.1629 N   0  0  0  0  0  0  0  0  0  0  0  0
   10.1088   -1.5513    4.2974 C   0  0  0  0  0  0  0  0  0  0  0  0
   10.9595   -2.8118    4.5800 C   0  0  0  0  0  0  0  0  0  0  0  0
   11.0808   -0.3938    3.9615 C   0  0  0  0  0  0  0  0  0  0  0  0
    9.2777   -1.1202    5.5309 C   0  0  0  0  0  0  0  0  0  0  0  0
    8.5155    0.0638    5.4985 C   0  0  0  0  0  0  0  0  0  0  0  0
    7.8740    0.5537    6.6422 C   0  0  0  0  0  0  0  0  0  0  0  0
    7.9599   -0.1405    7.8449 C   0  0  0  0  0  0  0  0  0  0  0  0
    8.6639   -1.3370    7.8953 C   0  0  0  0  0  0  0  0  0  0  0  0
    9.3074   -1.8248    6.7526 C   0  0  0  0  0  0  0  0  0  0  0  0
    8.7946   -2.8297   -0.3506 C   0  0  0  0  0  0  0  0  0  0  0  0
    7.4059   -3.2183   -0.8405 C   0  0  1  0  0  0  0  0  0  0  0  0
    7.2287   -4.6990   -1.1025 C   0  0  0  0  0  0  0  0  0  0  0  0
    7.5849   -5.6575   -0.1402 C   0  0  0  0  0  0  0  0  0  0  0  0
    7.4161   -7.0188   -0.3919 C   0  0  0  0  0  0  0  0  0  0  0  0
    6.8814   -7.4419   -1.6056 C   0  0  0  0  0  0  0  0  0  0  0  0
    6.5140   -6.5032   -2.5675 C   0  0  0  0  0  0  0  0  0  0  0  0
    6.6867   -5.1394   -2.3195 C   0  0  0  0  0  0  0  0  0  0  0  0
    4.4062    2.9566   -1.4535 H   0  0  0  0  0  0  0  0  0  0  0  0
    4.4810    1.5859   -2.5749 H   0  0  0  0  0  0  0  0  0  0  0  0
    5.9171    2.0499   -1.6414 H   0  0  0  0  0  0  0  0  0  0  0  0
    3.3016    0.9843   -0.4481 H   0  0  0  0  0  0  0  0  0  0  0  0
    4.7343    1.4429    0.4762 H   0  0  0  0  0  0  0  0  0  0  0  0
    6.0625   -0.3090   -0.7191 H   0  0  0  0  0  0  0  0  0  0  0  0
    4.6279   -0.7873   -1.6278 H   0  0  0  0  0  0  0  0  0  0  0  0
    3.4539   -1.3542    0.5139 H   0  0  0  0  0  0  0  0  0  0  0  0
    4.8884   -0.8895    1.4260 H   0  0  0  0  0  0  0  0  0  0  0  0
    4.7429   -3.1493   -0.6490 H   0  0  0  0  0  0  0  0  0  0  0  0
    4.7216   -3.3623    1.1061 H   0  0  0  0  0  0  0  0  0  0  0  0
    8.2155   -1.9032    3.3028 H   0  0  0  0  0  0  0  0  0  0  0  0
   11.6001   -3.0777    3.7333 H   0  0  0  0  0  0  0  0  0  0  0  0
   10.3243   -3.6833    4.7802 H   0  0  0  0  0  0  0  0  0  0  0  0
   11.6264   -2.6647    5.4372 H   0  0  0  0  0  0  0  0  0  0  0  0
   11.7855   -0.6660    3.1694 H   0  0  0  0  0  0  0  0  0  0  0  0
   11.6728   -0.1072    4.8378 H   0  0  0  0  0  0  0  0  0  0  0  0
   10.5478    0.4974    3.6100 H   0  0  0  0  0  0  0  0  0  0  0  0
    8.4407    0.6406    4.5769 H   0  0  0  0  0  0  0  0  0  0  0  0
    7.3236    1.4897    6.5965 H   0  0  0  0  0  0  0  0  0  0  0  0
    7.4849    0.2515    8.7398 H   0  0  0  0  0  0  0  0  0  0  0  0
    8.7322   -1.8885    8.8301 H   0  0  0  0  0  0  0  0  0  0  0  0
    9.8538   -2.7575    6.8569 H   0  0  0  0  0  0  0  0  0  0  0  0
    9.5529   -3.6159   -0.4316 H   0  0  0  0  0  0  0  0  0  0  0  0
    9.1707   -1.9425   -0.8738 H   0  0  0  0  0  0  0  0  0  0  0  0
    7.1370   -2.6310   -1.7256 H   0  0  0  0  0  0  0  0  0  0  0  0
    8.0009   -5.3527    0.8193 H   0  0  0  0  0  0  0  0  0  0  0  0
    7.7042   -7.7474    0.3613 H   0  0  0  0  0  0  0  0  0  0  0  0
    6.7508   -8.5030   -1.8010 H   0  0  0  0  0  0  0  0  0  0  0  0
    6.0946   -6.8354   -3.5141 H   0  0  0  0  0  0  0  0  0  0  0  0
    6.3922   -4.4276   -3.0879 H   0  0  0  0  0  0  0  0  0  0  0  0
  1  2  1  0  0  0  0
  1 29  1  0  0  0  0
  1 30  1  0  0  0  0
  1 31  1  0  0  0  0
  2  3  1  0  0  0  0
  2 32  1  0  0  0  0
  2 33  1  0  0  0  0
  3  4  1  0  0  0  0
  3 34  1  0  0  0  0
  3 35  1  0  0  0  0
  4  5  1  0  0  0  0
  4 36  1  0  0  0  0
  4 37  1  0  0  0  0
  5  6  1  0  0  0  0
  5 38  1  0  0  0  0
  5 39  1  0  0  0  0
  6 22  1  0  0  0  0
  6  7  2  0  0  0  0
  7  8  1  0  0  0  0
  8  9  1  0  0  0  0
  8 21  1  0  0  0  0
  9 10  2  0  0  0  0
  9 11  1  0  0  0  0
 11 12  1  0  0  0  0
 11 40  1  0  0  0  0
 12 13  1  0  0  0  0
 12 14  1  0  0  0  0
 12 15  1  0  0  0  0
 13 41  1  0  0  0  0
 13 42  1  0  0  0  0
 13 43  1  0  0  0  0
 14 44  1  0  0  0  0
 14 45  1  0  0  0  0
 14 46  1  0  0  0  0
 15 20  2  0  0  0  0
 15 16  1  0  0  0  0
 16 17  2  0  0  0  0
 16 47  1  0  0  0  0
 17 18  1  0  0  0  0
 17 48  1  0  0  0  0
 18 19  2  0  0  0  0
 18 49  1  0  0  0  0
 19 20  1  0  0  0  0
 19 50  1  0  0  0  0
 20 51  1  0  0  0  0
 21 22  1  0  0  0  0
 21 52  1  0  0  0  0
 21 53  1  0  0  0  0
 22 23  1  0  0  0  0
 22 54  1  6  0  0  0
 23 28  2  0  0  0  0
 23 24  1  0  0  0  0
 24 25  2  0  0  0  0
 24 55  1  0  0  0  0
 25 26  1  0  0  0  0
 25 56  1  0  0  0  0
 26 27  2  0  0  0  0
 26 57  1  0  0  0  0
 27 28  1  0  0  0  0
 27 58  1  0  0  0  0
 28 59  1  0  0  0  0
M  END
$$$$
CHEMBL3353438_5ZTY
 OpenBabel12022418133D

 58 60  0  0  1  0  0  0  0  0999 V2000
   12.9497    3.3127   -3.7859 C   0  0  0  0  0  0  0  0  0  0  0  0
   12.5035    4.5567   -3.3858 C   0  0  0  0  0  0  0  0  0  0  0  0
   11.4499    4.7532   -2.5574 N   0  0  0  0  0  0  0  0  0  0  0  0
   10.7862    3.6636   -2.1055 C   0  0  0  0  0  0  0  0  0  0  0  0
   11.1351    2.3792   -2.5179 C   0  0  0  0  0  0  0  0  0  0  0  0
   12.2429    2.2032   -3.3526 C   0  0  0  0  0  0  0  0  0  0  0  0
   10.3256    1.2404   -2.1426 C   0  0  0  0  0  0  0  0  0  0  0  0
    9.3052    1.3686   -1.2783 C   0  0  0  0  0  0  0  0  0  0  0  0
    9.0124    2.7167   -0.6697 C   0  0  0  0  0  0  0  0  0  0  0  0
    8.1625    2.8068    0.2180 O   0  0  0  0  0  0  0  0  0  0  0  0
    9.7193    3.8247   -1.1724 N   0  0  0  0  0  0  0  0  0  0  0  0
    9.2936    5.2036   -0.8682 C   0  0  0  0  0  0  0  0  0  0  0  0
    9.7852    5.8691    0.4417 C   0  0  0  0  0  0  0  0  0  0  0  0
   11.3036    5.9712    0.6328 C   0  0  0  0  0  0  0  0  0  0  0  0
   11.7715    6.8606    1.8099 C   0  0  0  0  0  0  0  0  0  0  0  0
   11.3041    6.4642    3.2168 C   0  0  0  0  0  0  0  0  0  0  0  0
   11.8421    7.4299    4.2745 C   0  0  0  0  0  0  0  0  0  0  0  0
   13.2018    7.4181    4.2530 F   0  0  0  0  0  0  0  0  0  0  0  0
    8.5237    0.0928   -1.0937 C   0  0  0  0  0  0  0  0  0  0  0  0
    8.6579   -0.8421   -1.8921 O   0  0  0  0  0  0  0  0  0  0  0  0
    7.7002   -0.0176   -0.0071 N   0  0  0  0  0  0  0  0  0  0  0  0
    6.9166   -1.2309    0.2765 C   0  0  1  0  0  0  0  0  0  0  0  0
    7.6715   -2.1666    1.2396 C   0  0  0  0  0  0  0  0  0  0  0  0
    6.7976   -3.2368    1.9013 C   0  0  0  0  0  0  0  0  0  0  0  0
    5.5435   -2.6351    2.5372 C   0  0  1  0  0  0  0  0  0  0  0  0
    4.7226   -1.8954    1.4801 C   0  0  0  0  0  0  0  0  0  0  0  0
    5.5183   -0.8143    0.7611 C   0  0  0  0  0  0  0  0  0  0  0  0
    4.6896   -3.7157    3.2040 C   0  0  0  0  0  0  0  0  0  0  0  0
   13.8186    3.2046   -4.4247 H   0  0  0  0  0  0  0  0  0  0  0  0
   12.9996    5.4604   -3.7275 H   0  0  0  0  0  0  0  0  0  0  0  0
   12.5490    1.2081   -3.6661 H   0  0  0  0  0  0  0  0  0  0  0  0
   10.5427    0.2915   -2.6286 H   0  0  0  0  0  0  0  0  0  0  0  0
    8.1960    5.1891   -0.8255 H   0  0  0  0  0  0  0  0  0  0  0  0
    9.5221    5.8621   -1.7173 H   0  0  0  0  0  0  0  0  0  0  0  0
    9.3377    5.3545    1.2969 H   0  0  0  0  0  0  0  0  0  0  0  0
    9.3790    6.8912    0.4428 H   0  0  0  0  0  0  0  0  0  0  0  0
   11.7431    6.4041   -0.2749 H   0  0  0  0  0  0  0  0  0  0  0  0
   11.7270    4.9682    0.7460 H   0  0  0  0  0  0  0  0  0  0  0  0
   11.4745    7.8989    1.6171 H   0  0  0  0  0  0  0  0  0  0  0  0
   12.8699    6.8522    1.8067 H   0  0  0  0  0  0  0  0  0  0  0  0
   11.6638    5.4557    3.4494 H   0  0  0  0  0  0  0  0  0  0  0  0
   10.2112    6.4574    3.2751 H   0  0  0  0  0  0  0  0  0  0  0  0
   11.5260    7.1346    5.2801 H   0  0  0  0  0  0  0  0  0  0  0  0
   11.5103    8.4577    4.0963 H   0  0  0  0  0  0  0  0  0  0  0  0
    7.6766    0.7614    0.6510 H   0  0  0  0  0  0  0  0  0  0  0  0
    6.7717   -1.7881   -0.6611 H   0  0  0  0  0  0  0  0  0  0  0  0
    8.1639   -1.5813    2.0249 H   0  0  0  0  0  0  0  0  0  0  0  0
    8.4778   -2.6713    0.6902 H   0  0  0  0  0  0  0  0  0  0  0  0
    7.3889   -3.7533    2.6686 H   0  0  0  0  0  0  0  0  0  0  0  0
    6.5156   -3.9977    1.1624 H   0  0  0  0  0  0  0  0  0  0  0  0
    5.8529   -1.9213    3.3127 H   0  0  0  0  0  0  0  0  0  0  0  0
    3.8516   -1.4287    1.9532 H   0  0  0  0  0  0  0  0  0  0  0  0
    4.3311   -2.6114    0.7445 H   0  0  0  0  0  0  0  0  0  0  0  0
    4.9419   -0.4762   -0.1085 H   0  0  0  0  0  0  0  0  0  0  0  0
    5.6011    0.0571    1.4229 H   0  0  0  0  0  0  0  0  0  0  0  0
    4.2713   -4.4076    2.4655 H   0  0  0  0  0  0  0  0  0  0  0  0
    3.8539   -3.2629    3.7486 H   0  0  0  0  0  0  0  0  0  0  0  0
    5.2772   -4.2998    3.9204 H   0  0  0  0  0  0  0  0  0  0  0  0
  1  6  2  0  0  0  0
  1  2  1  0  0  0  0
  1 29  1  0  0  0  0
  2  3  2  0  0  0  0
  2 30  1  0  0  0  0
  3  4  1  0  0  0  0
  4 11  1  0  0  0  0
  4  5  2  0  0  0  0
  5  6  1  0  0  0  0
  5  7  1  0  0  0  0
  6 31  1  0  0  0  0
  7  8  2  0  0  0  0
  7 32  1  0  0  0  0
  8  9  1  0  0  0  0
  8 19  1  0  0  0  0
  9 10  2  0  0  0  0
  9 11  1  0  0  0  0
 11 12  1  0  0  0  0
 12 13  1  0  0  0  0
 12 33  1  0  0  0  0
 12 34  1  0  0  0  0
 13 14  1  0  0  0  0
 13 35  1  0  0  0  0
 13 36  1  0  0  0  0
 14 15  1  0  0  0  0
 14 37  1  0  0  0  0
 14 38  1  0  0  0  0
 15 16  1  0  0  0  0
 15 39  1  0  0  0  0
 15 40  1  0  0  0  0
 16 17  1  0  0  0  0
 16 41  1  0  0  0  0
 16 42  1  0  0  0  0
 17 18  1  0  0  0  0
 17 43  1  0  0  0  0
 17 44  1  0  0  0  0
 19 20  2  0  0  0  0
 19 21  1  0  0  0  0
 21 45  1  0  0  0  0
 22 23  1  0  0  0  0
 22 27  1  0  0  0  0
 22 21  1  0  0  0  0
 22 46  1  6  0  0  0
 23 24  1  0  0  0  0
 23 47  1  0  0  0  0
 23 48  1  0  0  0  0
 24 25  1  0  0  0  0
 24 49  1  0  0  0  0
 24 50  1  0  0  0  0
 25 26  1  0  0  0  0
 25 28  1  0  0  0  0
 25 51  1  1  0  0  0
 26 27  1  0  0  0  0
 26 52  1  0  0  0  0
 26 53  1  0  0  0  0
 27 54  1  0  0  0  0
 27 55  1  0  0  0  0
 28 56  1  0  0  0  0
 28 57  1  0  0  0  0
 28 58  1  0  0  0  0
M  END
$$$$
CHEMBL508336_8GUT
 OpenBabel12022418133D

 50 53  0  0  0  0  0  0  0  0999 V2000
    1.6178   -0.3780    2.6347 F   0  0  0  0  0  0  0  0  0  0  0  0
    0.4330   -0.2470    2.0230 C   0  0  0  0  0  0  0  0  0  0  0  0
   -0.7323   -0.3159    2.7759 C   0  0  0  0  0  0  0  0  0  0  0  0
   -1.9721   -0.2187    2.1339 C   0  0  0  0  0  0  0  0  0  0  0  0
   -2.0492   -0.0511    0.7419 C   0  0  0  0  0  0  0  0  0  0  0  0
   -3.4112   -0.0318    0.0635 C   0  0  0  0  0  0  0  0  0  0  0  0
   -3.9934    1.3023   -0.0181 N   0  0  0  0  0  0  0  0  0  0  0  0
   -3.7523    2.0667   -1.1548 C   0  0  0  0  0  0  0  0  0  0  0  0
   -3.2305    1.6071   -2.1740 O   0  0  0  0  0  0  0  0  0  0  0  0
   -4.1258    3.5115   -1.1104 C   0  0  0  0  0  0  0  0  0  0  0  0
   -4.8334    3.9788   -0.0682 C   0  0  0  0  0  0  0  0  0  0  0  0
   -5.2757    3.0867    0.9917 C   0  0  0  0  0  0  0  0  0  0  0  0
   -6.1538    3.5434    1.9830 C   0  0  0  0  0  0  0  0  0  0  0  0
   -6.5824    2.6694    2.9663 C   0  0  0  0  0  0  0  0  0  0  0  0
   -6.0951    1.3769    2.9412 C   0  0  0  0  0  0  0  0  0  0  0  0
   -5.2207    0.9114    2.0102 N   0  0  0  0  0  0  0  0  0  0  0  0
   -4.8321    1.7636    1.0358 C   0  0  0  0  0  0  0  0  0  0  0  0
   -3.7179    4.5209   -2.1421 C   0  0  0  0  0  0  0  0  0  0  0  0
   -4.0043    5.7094   -2.0102 O   0  0  0  0  0  0  0  0  0  0  0  0
   -3.0076    4.0542   -3.2200 N   0  0  0  0  0  0  0  0  0  0  0  0
   -2.5303    4.9335   -4.2894 C   0  0  0  0  0  0  0  0  0  0  0  0
   -1.1584    4.4711   -4.8024 C   0  0  0  0  0  0  0  0  0  0  0  0
   -0.6750    5.2791   -6.0082 C   0  0  0  0  0  0  0  0  0  0  0  0
   -1.7127    5.2713   -7.1232 C   0  0  0  0  0  0  0  0  0  0  0  0
   -3.0459    5.8142   -6.6195 C   0  0  0  0  0  0  0  0  0  0  0  0
   -3.5630    5.0182   -5.4214 C   0  0  0  0  0  0  0  0  0  0  0  0
   -0.8553    0.0580    0.0081 C   0  0  0  0  0  0  0  0  0  0  0  0
    0.3840   -0.0532    0.6468 C   0  0  0  0  0  0  0  0  0  0  0  0
   -0.6761   -0.4626    3.8479 H   0  0  0  0  0  0  0  0  0  0  0  0
   -2.8817   -0.2884    2.7270 H   0  0  0  0  0  0  0  0  0  0  0  0
   -4.0909   -0.7273    0.5713 H   0  0  0  0  0  0  0  0  0  0  0  0
   -3.2955   -0.4429   -0.9469 H   0  0  0  0  0  0  0  0  0  0  0  0
   -5.0937    5.0300    0.0176 H   0  0  0  0  0  0  0  0  0  0  0  0
   -6.5125    4.5704    1.9788 H   0  0  0  0  0  0  0  0  0  0  0  0
   -7.2869    2.9839    3.7324 H   0  0  0  0  0  0  0  0  0  0  0  0
   -6.4095    0.6485    3.6843 H   0  0  0  0  0  0  0  0  0  0  0  0
   -2.9380    3.0436   -3.3433 H   0  0  0  0  0  0  0  0  0  0  0  0
   -2.4106    5.9393   -3.8642 H   0  0  0  0  0  0  0  0  0  0  0  0
   -1.2049    3.4127   -5.0851 H   0  0  0  0  0  0  0  0  0  0  0  0
   -0.4157    4.5483   -3.9991 H   0  0  0  0  0  0  0  0  0  0  0  0
    0.2666    4.8589   -6.3795 H   0  0  0  0  0  0  0  0  0  0  0  0
   -0.4647    6.3129   -5.7077 H   0  0  0  0  0  0  0  0  0  0  0  0
   -1.8458    4.2473   -7.4938 H   0  0  0  0  0  0  0  0  0  0  0  0
   -1.3581    5.8728   -7.9678 H   0  0  0  0  0  0  0  0  0  0  0  0
   -3.7833    5.7852   -7.4288 H   0  0  0  0  0  0  0  0  0  0  0  0
   -2.9237    6.8666   -6.3344 H   0  0  0  0  0  0  0  0  0  0  0  0
   -4.4859    5.4811   -5.0511 H   0  0  0  0  0  0  0  0  0  0  0  0
   -3.8353    4.0071   -5.7511 H   0  0  0  0  0  0  0  0  0  0  0  0
   -0.8796    0.2120   -1.0702 H   0  0  0  0  0  0  0  0  0  0  0  0
    1.3091   -0.0059    0.0852 H   0  0  0  0  0  0  0  0  0  0  0  0
  1  2  1  0  0  0  0
  2 28  2  0  0  0  0
  2  3  1  0  0  0  0
  3  4  2  0  0  0  0
  3 29  1  0  0  0  0
  4  5  1  0  0  0  0
  4 30  1  0  0  0  0
  5  6  1  0  0  0  0
  5 27  2  0  0  0  0
  6  7  1  0  0  0  0
  6 31  1  0  0  0  0
  6 32  1  0  0  0  0
  7 17  1  0  0  0  0
  7  8  1  0  0  0  0
  8  9  2  0  0  0  0
  8 10  1  0  0  0  0
 10 11  2  0  0  0  0
 10 18  1  0  0  0  0
 11 12  1  0  0  0  0
 11 33  1  0  0  0  0
 12 17  2  0  0  0  0
 12 13  1  0  0  0  0
 13 14  2  0  0  0  0
 13 34  1  0  0  0  0
 14 15  1  0  0  0  0
 14 35  1  0  0  0  0
 15 16  2  0  0  0  0
 15 36  1  0  0  0  0
 16 17  1  0  0  0  0
 18 19  2  0  0  0  0
 18 20  1  0  0  0  0
 20 21  1  0  0  0  0
 20 37  1  0  0  0  0
 21 26  1  0  0  0  0
 21 22  1  0  0  0  0
 21 38  1  0  0  0  0
 22 23  1  0  0  0  0
 22 39  1  0  0  0  0
 22 40  1  0  0  0  0
 23 24  1  0  0  0  0
 23 41  1  0  0  0  0
 23 42  1  0  0  0  0
 24 25  1  0  0  0  0
 24 43  1  0  0  0  0
 24 44  1  0  0  0  0
 25 26  1  0  0  0  0
 25 45  1  0  0  0  0
 25 46  1  0  0  0  0
 26 47  1  0  0  0  0
 26 48  1  0  0  0  0
 27 28  1  0  0  0  0
 27 49  1  0  0  0  0
 28 50  1  0  0  0  0
M  END
$$$$
CHEMBL3397517_8GUT
 OpenBabel12022418133D

 52 54  0  0  0  0  0  0  0  0999 V2000
    0.8520   -0.0719    0.0234 C   0  0  0  0  0  0  0  0  0  0  0  0
    0.1323   -1.0997    0.6106 C   0  0  0  0  0  0  0  0  0  0  0  0
   -1.2667   -1.0678    0.5924 C   0  0  0  0  0  0  0  0  0  0  0  0
   -1.9674    0.0009   -0.0041 C   0  0  0  0  0  0  0  0  0  0  0  0
   -1.1969    1.0388   -0.5731 C   0  0  0  0  0  0  0  0  0  0  0  0
    0.1997    0.9990   -0.5695 C   0  0  0  0  0  0  0  0  0  0  0  0
   -3.4497    0.0250   -0.0505 C   0  0  0  0  0  0  0  0  0  0  0  0
   -4.1263    0.6079   -1.1118 C   0  0  0  0  0  0  0  0  0  0  0  0
   -5.5274    0.6451   -1.1603 C   0  0  0  0  0  0  0  0  0  0  0  0
   -6.3363    0.0638   -0.1271 C   0  0  0  0  0  0  0  0  0  0  0  0
   -5.6855   -0.5547    0.9561 C   0  0  0  0  0  0  0  0  0  0  0  0
   -4.2527   -0.5422    0.9635 C   0  0  0  0  0  0  0  0  0  0  0  0
   -6.2278   -1.2381    2.2100 C   0  0  0  0  0  0  0  0  0  0  0  0
   -5.4806   -1.5476    3.1335 O   0  0  0  0  0  0  0  0  0  0  0  0
   -7.5651   -1.5335    2.2707 N   0  0  0  0  0  0  0  0  0  0  0  0
   -8.2380   -2.0646    3.4626 C   0  0  0  0  0  0  0  0  0  0  0  0
   -9.7168   -1.6295    3.4424 C   0  0  0  0  0  0  0  0  0  0  0  0
  -10.6418   -2.5017    2.5916 C   0  0  0  0  0  0  0  0  0  0  0  0
  -11.2231   -3.6795    3.3702 C   0  0  0  0  0  0  0  0  0  0  0  0
  -10.2314   -4.7791    3.7381 C   0  0  0  0  0  0  0  0  0  0  0  0
   -8.9802   -4.3137    4.4827 C   0  0  0  0  0  0  0  0  0  0  0  0
   -7.9996   -3.5735    3.5748 C   0  0  0  0  0  0  0  0  0  0  0  0
   -7.6306    0.2698   -0.4817 O   0  0  0  0  0  0  0  0  0  0  0  0
   -8.8165   -0.0065    0.2134 C   0  0  0  0  0  0  0  0  0  0  0  0
   -6.1665    1.3379   -2.3446 C   0  0  0  0  0  0  0  0  0  0  0  0
    2.1897   -0.1138    0.0245 F   0  0  0  0  0  0  0  0  0  0  0  0
    0.6573   -1.9297    1.0752 H   0  0  0  0  0  0  0  0  0  0  0  0
   -1.8010   -1.8956    1.0440 H   0  0  0  0  0  0  0  0  0  0  0  0
   -1.6785    1.9035   -1.0244 H   0  0  0  0  0  0  0  0  0  0  0  0
    0.7779    1.7968   -1.0247 H   0  0  0  0  0  0  0  0  0  0  0  0
   -3.5686    1.0493   -1.9386 H   0  0  0  0  0  0  0  0  0  0  0  0
   -3.7379   -0.9855    1.8162 H   0  0  0  0  0  0  0  0  0  0  0  0
   -7.9599   -1.8082    1.3902 H   0  0  0  0  0  0  0  0  0  0  0  0
   -7.7765   -1.5816    4.3338 H   0  0  0  0  0  0  0  0  0  0  0  0
   -9.7772   -0.5986    3.0720 H   0  0  0  0  0  0  0  0  0  0  0  0
  -10.1012   -1.5874    4.4692 H   0  0  0  0  0  0  0  0  0  0  0  0
  -10.1468   -2.8444    1.6768 H   0  0  0  0  0  0  0  0  0  0  0  0
  -11.4852   -1.8777    2.2681 H   0  0  0  0  0  0  0  0  0  0  0  0
  -12.0210   -4.1338    2.7662 H   0  0  0  0  0  0  0  0  0  0  0  0
  -11.7095   -3.3113    4.2818 H   0  0  0  0  0  0  0  0  0  0  0  0
   -9.9373   -5.3205    2.8301 H   0  0  0  0  0  0  0  0  0  0  0  0
  -10.7567   -5.5083    4.3677 H   0  0  0  0  0  0  0  0  0  0  0  0
   -8.4741   -5.2109    4.8625 H   0  0  0  0  0  0  0  0  0  0  0  0
   -9.2436   -3.7139    5.3613 H   0  0  0  0  0  0  0  0  0  0  0  0
   -6.9831   -3.7245    3.9574 H   0  0  0  0  0  0  0  0  0  0  0  0
   -8.0005   -4.0346    2.5776 H   0  0  0  0  0  0  0  0  0  0  0  0
   -9.6310    0.4907   -0.3250 H   0  0  0  0  0  0  0  0  0  0  0  0
   -8.8072    0.3972    1.2262 H   0  0  0  0  0  0  0  0  0  0  0  0
   -9.0523   -1.0688    0.1467 H   0  0  0  0  0  0  0  0  0  0  0  0
   -5.4150    1.7420   -3.0319 H   0  0  0  0  0  0  0  0  0  0  0  0
   -6.7837    2.1771   -2.0107 H   0  0  0  0  0  0  0  0  0  0  0  0
   -6.7797    0.6288   -2.9100 H   0  0  0  0  0  0  0  0  0  0  0  0
  1  6  2  0  0  0  0
  1  2  1  0  0  0  0
  1 26  1  0  0  0  0
  2  3  2  0  0  0  0
  2 27  1  0  0  0  0
  3  4  1  0  0  0  0
  3 28  1  0  0  0  0
  4  5  2  0  0  0  0
  4  7  1  0  0  0  0
  5  6  1  0  0  0  0
  5 29  1  0  0  0  0
  6 30  1  0  0  0  0
  7 12  2  0  0  0  0
  7  8  1  0  0  0  0
  8  9  2  0  0  0  0
  8 31  1  0  0  0  0
  9 10  1  0  0  0  0
  9 25  1  0  0  0  0
 10 11  2  0  0  0  0
 10 23  1  0  0  0  0
 11 12  1  0  0  0  0
 11 13  1  0  0  0  0
 12 32  1  0  0  0  0
 13 14  2  0  0  0  0
 13 15  1  0  0  0  0
 15 16  1  0  0  0  0
 15 33  1  0  0  0  0
 16 22  1  0  0  0  0
 16 17  1  0  0  0  0
 16 34  1  0  0  0  0
 17 18  1  0  0  0  0
 17 35  1  0  0  0  0
 17 36  1  0  0  0  0
 18 19  1  0  0  0  0
 18 37  1  0  0  0  0
 18 38  1  0  0  0  0
 19 20  1  0  0  0  0
 19 39  1  0  0  0  0
 19 40  1  0  0  0  0
 20 21  1  0  0  0  0
 20 41  1  0  0  0  0
 20 42  1  0  0  0  0
 21 22  1  0  0  0  0
 21 43  1  0  0  0  0
 21 44  1  0  0  0  0
 22 45  1  0  0  0  0
 22 46  1  0  0  0  0
 23 24  1  0  0  0  0
 24 47  1  0  0  0  0
 24 48  1  0  0  0  0
 24 49  1  0  0  0  0
 25 50  1  0  0  0  0
 25 51  1  0  0  0  0
 25 52  1  0  0  0  0
M  END
$$$$
CHEMBL216837_6PT0
 OpenBabel12022418133D

 53 56  0  0  0  0  0  0  0  0999 V2000
    1.0097   -2.7824   -2.9130 C   0  0  0  0  0  0  0  0  0  0  0  0
    2.5264   -2.8520   -2.8928 C   0  0  0  0  0  0  0  0  0  0  0  0
    3.0656   -2.8686   -1.4637 C   0  0  0  0  0  0  0  0  0  0  0  0
    4.5908   -2.9617   -1.4650 C   0  0  0  0  0  0  0  0  0  0  0  0
    5.1549   -2.9359   -0.0401 C   0  0  0  0  0  0  0  0  0  0  0  0
    6.6116   -2.9505    0.0883 N   0  0  0  0  0  0  0  0  0  0  0  0
    7.4695   -3.0022   -0.9893 C   0  0  0  0  0  0  0  0  0  0  0  0
    8.7670   -2.8504   -0.5483 C   0  0  0  0  0  0  0  0  0  0  0  0
    9.9938   -2.7678   -1.3437 C   0  0  0  0  0  0  0  0  0  0  0  0
   11.0783   -3.0641   -0.8508 O   0  0  0  0  0  0  0  0  0  0  0  0
    9.9305   -2.2281   -2.7423 C   0  0  0  0  0  0  0  0  0  0  0  0
    9.0492   -1.1617   -2.9960 C   0  0  0  0  0  0  0  0  0  0  0  0
    8.9644   -0.5894   -4.2584 C   0  0  0  0  0  0  0  0  0  0  0  0
    9.7914   -1.0462   -5.2758 C   0  0  0  0  0  0  0  0  0  0  0  0
   10.7126   -2.0802   -5.0492 C   0  0  0  0  0  0  0  0  0  0  0  0
   11.5634   -2.4870   -6.0913 C   0  0  0  0  0  0  0  0  0  0  0  0
   12.4996   -3.5009   -5.9049 C   0  0  0  0  0  0  0  0  0  0  0  0
   12.5849   -4.1374   -4.6759 C   0  0  0  0  0  0  0  0  0  0  0  0
   11.7380   -3.7499   -3.6313 C   0  0  0  0  0  0  0  0  0  0  0  0
   10.7911   -2.7017   -3.7766 C   0  0  0  0  0  0  0  0  0  0  0  0
    8.6780   -2.8112    0.8667 C   0  0  0  0  0  0  0  0  0  0  0  0
    7.3490   -2.9009    1.2723 C   0  0  0  0  0  0  0  0  0  0  0  0
    6.8284   -2.9317    2.6688 C   0  0  0  0  0  0  0  0  0  0  0  0
    5.6663   -2.2151    3.0094 C   0  0  0  0  0  0  0  0  0  0  0  0
    5.1250   -2.2346    4.3003 C   0  0  0  0  0  0  0  0  0  0  0  0
    5.7731   -2.9206    5.3153 C   0  0  0  0  0  0  0  0  0  0  0  0
    6.9563   -3.5935    5.0320 C   0  0  0  0  0  0  0  0  0  0  0  0
    7.4741   -3.6178    3.7250 C   0  0  0  0  0  0  0  0  0  0  0  0
    8.9167   -4.5598    3.5283 Cl  0  0  0  0  0  0  0  0  0  0  0  0
    0.6462   -2.7842   -3.9449 H   0  0  0  0  0  0  0  0  0  0  0  0
    0.6533   -1.8685   -2.4273 H   0  0  0  0  0  0  0  0  0  0  0  0
    0.5721   -3.6417   -2.3951 H   0  0  0  0  0  0  0  0  0  0  0  0
    2.9345   -1.9904   -3.4346 H   0  0  0  0  0  0  0  0  0  0  0  0
    2.8542   -3.7532   -3.4240 H   0  0  0  0  0  0  0  0  0  0  0  0
    2.6455   -3.7198   -0.9153 H   0  0  0  0  0  0  0  0  0  0  0  0
    2.7480   -1.9574   -0.9413 H   0  0  0  0  0  0  0  0  0  0  0  0
    4.9933   -2.1130   -2.0345 H   0  0  0  0  0  0  0  0  0  0  0  0
    4.9022   -3.8788   -1.9783 H   0  0  0  0  0  0  0  0  0  0  0  0
    4.7736   -3.7794    0.5441 H   0  0  0  0  0  0  0  0  0  0  0  0
    4.8195   -1.9951    0.3999 H   0  0  0  0  0  0  0  0  0  0  0  0
    7.0996   -3.1137   -1.9997 H   0  0  0  0  0  0  0  0  0  0  0  0
    8.4265   -0.7501   -2.2045 H   0  0  0  0  0  0  0  0  0  0  0  0
    8.2679    0.2233   -4.4450 H   0  0  0  0  0  0  0  0  0  0  0  0
    9.7248   -0.5772   -6.2541 H   0  0  0  0  0  0  0  0  0  0  0  0
   11.5111   -2.0019   -7.0642 H   0  0  0  0  0  0  0  0  0  0  0  0
   13.1606   -3.7897   -6.7174 H   0  0  0  0  0  0  0  0  0  0  0  0
   13.3132   -4.9289   -4.5185 H   0  0  0  0  0  0  0  0  0  0  0  0
   11.8470   -4.2813   -2.6865 H   0  0  0  0  0  0  0  0  0  0  0  0
    9.5350   -2.7225    1.5237 H   0  0  0  0  0  0  0  0  0  0  0  0
    5.1588   -1.5897    2.2865 H   0  0  0  0  0  0  0  0  0  0  0  0
    4.2045   -1.6946    4.5088 H   0  0  0  0  0  0  0  0  0  0  0  0
    5.3685   -2.9225    6.3237 H   0  0  0  0  0  0  0  0  0  0  0  0
    7.4770   -4.1090    5.8361 H   0  0  0  0  0  0  0  0  0  0  0  0
  1  2  1  0  0  0  0
  1 30  1  0  0  0  0
  1 31  1  0  0  0  0
  1 32  1  0  0  0  0
  2  3  1  0  0  0  0
  2 33  1  0  0  0  0
  2 34  1  0  0  0  0
  3  4  1  0  0  0  0
  3 35  1  0  0  0  0
  3 36  1  0  0  0  0
  4  5  1  0  0  0  0
  4 37  1  0  0  0  0
  4 38  1  0  0  0  0
  5  6  1  0  0  0  0
  5 39  1  0  0  0  0
  5 40  1  0  0  0  0
  6 22  1  0  0  0  0
  6  7  1  0  0  0  0
  7  8  2  0  0  0  0
  7 41  1  0  0  0  0
  8  9  1  0  0  0  0
  8 21  1  0  0  0  0
  9 10  2  0  0  0  0
  9 11  1  0  0  0  0
 11 20  2  0  0  0  0
 11 12  1  0  0  0  0
 12 13  2  0  0  0  0
 12 42  1  0  0  0  0
 13 14  1  0  0  0  0
 13 43  1  0  0  0  0
 14 15  2  0  0  0  0
 14 44  1  0  0  0  0
 15 20  1  0  0  0  0
 15 16  1  0  0  0  0
 16 17  2  0  0  0  0
 16 45  1  0  0  0  0
 17 18  1  0  0  0  0
 17 46  1  0  0  0  0
 18 19  2  0  0  0  0
 18 47  1  0  0  0  0
 19 20  1  0  0  0  0
 19 48  1  0  0  0  0
 21 22  2  0  0  0  0
 21 49  1  0  0  0  0
 22 23  1  0  0  0  0
 23 28  2  0  0  0  0
 23 24  1  0  0  0  0
 24 25  2  0  0  0  0
 24 50  1  0  0  0  0
 25 26  1  0  0  0  0
 25 51  1  0  0  0  0
 26 27  2  0  0  0  0
 26 52  1  0  0  0  0
 27 28  1  0  0  0  0
 27 53  1  0  0  0  0
 28 29  1  0  0  0  0
M  END
$$$$
CHEMBL3397522_8GUS
 OpenBabel12022418133D

 65 67  0  0  1  0  0  0  0  0999 V2000
   -6.6191   -2.9610   -2.2287 C   0  0  0  0  0  0  0  0  0  0  0  0
   -5.2619   -3.2674   -2.2994 C   0  0  0  0  0  0  0  0  0  0  0  0
   -4.5005   -3.4442   -1.1321 C   0  0  0  0  0  0  0  0  0  0  0  0
   -5.0697   -3.3026    0.1475 C   0  0  0  0  0  0  0  0  0  0  0  0
   -6.4363   -2.9677    0.1878 C   0  0  0  0  0  0  0  0  0  0  0  0
   -7.2000   -2.7953   -0.9785 C   0  0  0  0  0  0  0  0  0  0  0  0
   -4.2952   -3.5203    1.3958 C   0  0  0  0  0  0  0  0  0  0  0  0
   -3.3043   -4.5053    1.4909 C   0  0  0  0  0  0  0  0  0  0  0  0
   -2.6156   -4.7766    2.6958 C   0  0  0  0  0  0  0  0  0  0  0  0
   -2.9263   -4.0421    3.8648 C   0  0  0  0  0  0  0  0  0  0  0  0
   -3.9279   -3.0587    3.8098 C   0  0  0  0  0  0  0  0  0  0  0  0
   -4.5614   -2.7926    2.5714 C   0  0  0  0  0  0  0  0  0  0  0  0
   -4.4459   -2.2544    4.9652 C   0  0  0  0  0  0  0  0  0  0  0  0
   -5.0707   -1.2209    4.7397 O   0  0  0  0  0  0  0  0  0  0  0  0
   -4.2429   -2.7166    6.2507 N   0  0  0  0  0  0  0  0  0  0  0  0
   -4.6996   -1.9662    7.4184 C   0  0  1  0  0  0  0  0  0  0  0  0
   -5.8239   -2.7124    8.1355 C   0  0  0  0  0  0  0  0  0  0  0  0
   -6.3657   -1.8828    9.2975 C   0  0  0  0  0  0  0  0  0  0  0  0
   -5.2649   -1.4955   10.2961 C   0  0  1  0  0  0  0  0  0  0  0  0
   -4.0698   -0.8356    9.5903 C   0  0  0  0  0  0  0  0  0  0  0  0
   -3.5621   -1.6668    8.4056 C   0  0  0  0  0  0  0  0  0  0  0  0
   -5.8360   -0.5751   11.3769 C   0  0  0  0  0  0  0  0  0  0  0  0
   -2.3124   -4.4230    5.0344 O   0  0  0  0  0  0  0  0  0  0  0  0
   -1.3769   -3.4618    5.5371 C   0  0  0  0  0  0  0  0  0  0  0  0
   -1.6274   -5.9283    2.6802 C   0  0  0  0  0  0  0  0  0  0  0  0
   -2.3309   -7.2533    2.9867 C   0  0  0  0  0  0  0  0  0  0  0  0
   -1.3866   -8.4513    2.8889 C   0  0  0  0  0  0  0  0  0  0  0  0
   -2.1107   -9.7438    3.2389 C   0  0  0  0  0  0  0  0  0  0  0  0
   -7.2570   -2.8064   -3.4268 O   0  0  0  0  0  0  0  0  0  0  0  0
   -8.6594   -3.0478   -3.4189 C   0  0  0  0  0  0  0  0  0  0  0  0
   -4.7854   -3.3787   -3.2714 H   0  0  0  0  0  0  0  0  0  0  0  0
   -3.4442   -3.6761   -1.2447 H   0  0  0  0  0  0  0  0  0  0  0  0
   -6.9433   -2.8469    1.1432 H   0  0  0  0  0  0  0  0  0  0  0  0
   -8.2425   -2.5172   -0.8637 H   0  0  0  0  0  0  0  0  0  0  0  0
   -3.0833   -5.1200    0.6174 H   0  0  0  0  0  0  0  0  0  0  0  0
   -5.3126   -2.0033    2.5361 H   0  0  0  0  0  0  0  0  0  0  0  0
   -3.8588   -3.6474    6.3742 H   0  0  0  0  0  0  0  0  0  0  0  0
   -5.0932   -1.0023    7.0734 H   0  0  0  0  0  0  0  0  0  0  0  0
   -5.4547   -3.6760    8.5099 H   0  0  0  0  0  0  0  0  0  0  0  0
   -6.6359   -2.9366    7.4343 H   0  0  0  0  0  0  0  0  0  0  0  0
   -7.1505   -2.4497    9.8115 H   0  0  0  0  0  0  0  0  0  0  0  0
   -6.8389   -0.9763    8.8985 H   0  0  0  0  0  0  0  0  0  0  0  0
   -4.9081   -2.4107   10.7865 H   0  0  0  0  0  0  0  0  0  0  0  0
   -3.2532   -0.6851   10.3073 H   0  0  0  0  0  0  0  0  0  0  0  0
   -4.3563    0.1611    9.2296 H   0  0  0  0  0  0  0  0  0  0  0  0
   -2.7546   -1.1210    7.9029 H   0  0  0  0  0  0  0  0  0  0  0  0
   -3.1241   -2.6026    8.7763 H   0  0  0  0  0  0  0  0  0  0  0  0
   -6.2065    0.3624   10.9473 H   0  0  0  0  0  0  0  0  0  0  0  0
   -5.0753   -0.3269   12.1243 H   0  0  0  0  0  0  0  0  0  0  0  0
   -6.6709   -1.0583   11.8960 H   0  0  0  0  0  0  0  0  0  0  0  0
   -0.4999   -4.0029    5.9055 H   0  0  0  0  0  0  0  0  0  0  0  0
   -1.7992   -2.9504    6.4052 H   0  0  0  0  0  0  0  0  0  0  0  0
   -1.0576   -2.7227    4.7966 H   0  0  0  0  0  0  0  0  0  0  0  0
   -0.8079   -5.7430    3.3832 H   0  0  0  0  0  0  0  0  0  0  0  0
   -1.1565   -5.9822    1.6882 H   0  0  0  0  0  0  0  0  0  0  0  0
   -3.1656   -7.4021    2.2890 H   0  0  0  0  0  0  0  0  0  0  0  0
   -2.7666   -7.2105    3.9922 H   0  0  0  0  0  0  0  0  0  0  0  0
   -0.5375   -8.3173    3.5684 H   0  0  0  0  0  0  0  0  0  0  0  0
   -0.9822   -8.5304    1.8728 H   0  0  0  0  0  0  0  0  0  0  0  0
   -2.5268   -9.6976    4.2505 H   0  0  0  0  0  0  0  0  0  0  0  0
   -1.4226  -10.5936    3.1933 H   0  0  0  0  0  0  0  0  0  0  0  0
   -2.9321   -9.9344    2.5402 H   0  0  0  0  0  0  0  0  0  0  0  0
   -9.0188   -2.9618   -4.4484 H   0  0  0  0  0  0  0  0  0  0  0  0
   -9.1994   -2.3037   -2.8236 H   0  0  0  0  0  0  0  0  0  0  0  0
   -8.8794   -4.0642   -3.0720 H   0  0  0  0  0  0  0  0  0  0  0  0
  1  6  2  0  0  0  0
  1  2  1  0  0  0  0
  1 29  1  0  0  0  0
  2  3  2  0  0  0  0
  2 31  1  0  0  0  0
  3  4  1  0  0  0  0
  3 32  1  0  0  0  0
  4  5  2  0  0  0  0
  4  7  1  0  0  0  0
  5  6  1  0  0  0  0
  5 33  1  0  0  0  0
  6 34  1  0  0  0  0
  7 12  2  0  0  0  0
  7  8  1  0  0  0  0
  8  9  2  0  0  0  0
  8 35  1  0  0  0  0
  9 10  1  0  0  0  0
  9 25  1  0  0  0  0
 10 11  2  0  0  0  0
 10 23  1  0  0  0  0
 11 12  1  0  0  0  0
 11 13  1  0  0  0  0
 12 36  1  0  0  0  0
 13 14  2  0  0  0  0
 13 15  1  0  0  0  0
 15 37  1  0  0  0  0
 16 17  1  0  0  0  0
 16 21  1  0  0  0  0
 16 15  1  0  0  0  0
 16 38  1  6  0  0  0
 17 18  1  0  0  0  0
 17 39  1  0  0  0  0
 17 40  1  0  0  0  0
 18 19  1  0  0  0  0
 18 41  1  0  0  0  0
 18 42  1  0  0  0  0
 19 20  1  0  0  0  0
 19 22  1  0  0  0  0
 19 43  1  1  0  0  0
 20 21  1  0  0  0  0
 20 44  1  0  0  0  0
 20 45  1  0  0  0  0
 21 46  1  0  0  0  0
 21 47  1  0  0  0  0
 22 48  1  0  0  0  0
 22 49  1  0  0  0  0
 22 50  1  0  0  0  0
 23 24  1  0  0  0  0
 24 51  1  0  0  0  0
 24 52  1  0  0  0  0
 24 53  1  0  0  0  0
 25 26  1  0  0  0  0
 25 54  1  0  0  0  0
 25 55  1  0  0  0  0
 26 27  1  0  0  0  0
 26 56  1  0  0  0  0
 26 57  1  0  0  0  0
 27 28  1  0  0  0  0
 27 58  1  0  0  0  0
 27 59  1  0  0  0  0
 28 60  1  0  0  0  0
 28 61  1  0  0  0  0
 28 62  1  0  0  0  0
 29 30  1  0  0  0  0
 30 63  1  0  0  0  0
 30 64  1  0  0  0  0
 30 65  1  0  0  0  0
M  END
$$$$
CHEMBL467680_8GUT
 OpenBabel12022418133D

 53 56  0  0  1  0  0  0  0  0999 V2000
   -2.8138   -3.0203    1.8651 C   0  0  0  0  0  0  0  0  0  0  0  0
   -2.8878   -2.8539    0.3443 C   0  0  2  0  0  0  0  0  0  0  0  0
   -1.5203   -2.4703   -0.2333 C   0  0  0  0  0  0  0  0  0  0  0  0
   -1.1164   -1.0434    0.1448 C   0  0  0  0  0  0  0  0  0  0  0  0
   -2.1680   -0.0160   -0.2923 C   0  0  2  0  0  0  0  0  0  0  0  0
   -3.5549   -0.3822    0.2550 C   0  0  0  0  0  0  0  0  0  0  0  0
   -3.9545   -1.8259   -0.0659 C   0  0  0  0  0  0  0  0  0  0  0  0
   -2.1977    0.1043   -1.7344 N   0  0  0  0  0  0  0  0  0  0  0  0
   -2.5132    1.2534   -2.4024 C   0  0  0  0  0  0  0  0  0  0  0  0
   -2.7989    2.3079   -1.8327 O   0  0  0  0  0  0  0  0  0  0  0  0
   -2.4651    1.1536   -3.8898 C   0  0  0  0  0  0  0  0  0  0  0  0
   -2.3382    2.2978   -4.5820 C   0  0  0  0  0  0  0  0  0  0  0  0
   -2.2406    2.2448   -6.0295 C   0  0  0  0  0  0  0  0  0  0  0  0
   -1.8116    3.3521   -6.7605 C   0  0  0  0  0  0  0  0  0  0  0  0
   -1.6791    3.2454   -8.1396 C   0  0  0  0  0  0  0  0  0  0  0  0
   -2.0353    2.0516   -8.7378 C   0  0  0  0  0  0  0  0  0  0  0  0
   -2.4909    0.9759   -8.0631 N   0  0  0  0  0  0  0  0  0  0  0  0
   -2.5604    1.0686   -6.7140 C   0  0  0  0  0  0  0  0  0  0  0  0
   -2.8412   -0.1002   -5.9629 N   0  0  0  0  0  0  0  0  0  0  0  0
   -3.1737   -1.3216   -6.6845 C   0  0  0  0  0  0  0  0  0  0  0  0
   -4.6561   -1.5313   -6.9553 C   0  0  0  0  0  0  0  0  0  0  0  0
   -5.5503   -1.8161   -5.9126 C   0  0  0  0  0  0  0  0  0  0  0  0
   -6.8364   -2.2909   -6.1932 C   0  0  0  0  0  0  0  0  0  0  0  0
   -7.2624   -2.4345   -7.5132 C   0  0  0  0  0  0  0  0  0  0  0  0
   -6.4170   -2.0652   -8.5564 C   0  0  0  0  0  0  0  0  0  0  0  0
   -5.1210   -1.6204   -8.2792 C   0  0  0  0  0  0  0  0  0  0  0  0
   -2.5116   -0.1507   -4.6199 C   0  0  0  0  0  0  0  0  0  0  0  0
   -2.2781   -1.2020   -4.0118 O   0  0  0  0  0  0  0  0  0  0  0  0
   -2.0581   -3.7673    2.1316 H   0  0  0  0  0  0  0  0  0  0  0  0
   -3.7751   -3.3563    2.2657 H   0  0  0  0  0  0  0  0  0  0  0  0
   -2.5513   -2.0894    2.3760 H   0  0  0  0  0  0  0  0  0  0  0  0
   -3.1745   -3.8270   -0.0744 H   0  0  0  0  0  0  0  0  0  0  0  0
   -1.5559   -2.5633   -1.3264 H   0  0  0  0  0  0  0  0  0  0  0  0
   -0.7523   -3.1747    0.1042 H   0  0  0  0  0  0  0  0  0  0  0  0
   -0.1388   -0.8152   -0.2966 H   0  0  0  0  0  0  0  0  0  0  0  0
   -0.9830   -0.9747    1.2312 H   0  0  0  0  0  0  0  0  0  0  0  0
   -1.8832    0.9671    0.1013 H   0  0  0  0  0  0  0  0  0  0  0  0
   -4.3156    0.2992   -0.1444 H   0  0  0  0  0  0  0  0  0  0  0  0
   -3.5512   -0.2436    1.3417 H   0  0  0  0  0  0  0  0  0  0  0  0
   -4.9077   -2.0576    0.4234 H   0  0  0  0  0  0  0  0  0  0  0  0
   -4.1339   -1.9150   -1.1454 H   0  0  0  0  0  0  0  0  0  0  0  0
   -2.1343   -0.7563   -2.2997 H   0  0  0  0  0  0  0  0  0  0  0  0
   -2.2813    3.2659   -4.0874 H   0  0  0  0  0  0  0  0  0  0  0  0
   -1.5485    4.2806   -6.2631 H   0  0  0  0  0  0  0  0  0  0  0  0
   -1.3030    4.0724   -8.7296 H   0  0  0  0  0  0  0  0  0  0  0  0
   -1.9492    1.9169   -9.8138 H   0  0  0  0  0  0  0  0  0  0  0  0
   -2.8239   -2.1941   -6.1181 H   0  0  0  0  0  0  0  0  0  0  0  0
   -2.6204   -1.3611   -7.6280 H   0  0  0  0  0  0  0  0  0  0  0  0
   -5.2300   -1.7393   -4.8759 H   0  0  0  0  0  0  0  0  0  0  0  0
   -7.4901   -2.5970   -5.3806 H   0  0  0  0  0  0  0  0  0  0  0  0
   -8.2418   -2.8533   -7.7287 H   0  0  0  0  0  0  0  0  0  0  0  0
   -6.7486   -2.1705   -9.5869 H   0  0  0  0  0  0  0  0  0  0  0  0
   -4.4558   -1.3959   -9.1110 H   0  0  0  0  0  0  0  0  0  0  0  0
  1 29  1  0  0  0  0
  1 30  1  0  0  0  0
  1 31  1  0  0  0  0
  2  3  1  0  0  0  0
  2  7  1  0  0  0  0
  2  1  1  0  0  0  0
  2 32  1  6  0  0  0
  3  4  1  0  0  0  0
  3 33  1  0  0  0  0
  3 34  1  0  0  0  0
  4  5  1  0  0  0  0
  4 35  1  0  0  0  0
  4 36  1  0  0  0  0
  5  6  1  0  0  0  0
  5  8  1  0  0  0  0
  5 37  1  1  0  0  0
  6  7  1  0  0  0  0
  6 38  1  0  0  0  0
  6 39  1  0  0  0  0
  7 40  1  0  0  0  0
  7 41  1  0  0  0  0
  8  9  1  0  0  0  0
  8 42  1  0  0  0  0
  9 10  2  0  0  0  0
  9 11  1  0  0  0  0
 11 27  1  0  0  0  0
 11 12  2  0  0  0  0
 12 13  1  0  0  0  0
 12 43  1  0  0  0  0
 13 18  2  0  0  0  0
 13 14  1  0  0  0  0
 14 15  2  0  0  0  0
 14 44  1  0  0  0  0
 15 16  1  0  0  0  0
 15 45  1  0  0  0  0
 16 17  2  0  0  0  0
 16 46  1  0  0  0  0
 17 18  1  0  0  0  0
 18 19  1  0  0  0  0
 19 20  1  0  0  0  0
 19 27  1  0  0  0  0
 20 21  1  0  0  0  0
 20 47  1  0  0  0  0
 20 48  1  0  0  0  0
 21 26  2  0  0  0  0
 21 22  1  0  0  0  0
 22 23  2  0  0  0  0
 22 49  1  0  0  0  0
 23 24  1  0  0  0  0
 23 50  1  0  0  0  0
 24 25  2  0  0  0  0
 24 51  1  0  0  0  0
 25 26  1  0  0  0  0
 25 52  1  0  0  0  0
 26 53  1  0  0  0  0
 27 28  2  0  0  0  0
M  END
$$$$
CHEMBL4643391_5ZTY
 OpenBabel12022418133D

 63 67  0  0  1  0  0  0  0  0999 V2000
   -0.1644   -0.7485   -0.0336 C   0  0  0  0  0  0  0  0  0  0  0  0
    1.0506   -1.4952   -0.1326 C   0  0  0  0  0  0  0  0  0  0  0  0
    2.2605   -0.8776   -0.2104 C   0  0  0  0  0  0  0  0  0  0  0  0
    2.2945    0.6422   -0.0953 C   0  0  0  0  0  0  0  0  0  0  0  0
    3.3854    1.2157   -0.0108 O   0  0  0  0  0  0  0  0  0  0  0  0
    1.0818    1.3662   -0.0880 N   0  0  0  0  0  0  0  0  0  0  0  0
   -0.1041    0.6481   -0.0313 C   0  0  0  0  0  0  0  0  0  0  0  0
   -1.4051    1.0666    0.0353 C   0  0  0  0  0  0  0  0  0  0  0  0
   -2.1672   -0.0731    0.0476 N   0  0  0  0  0  0  0  0  0  0  0  0
   -3.6182   -0.1053    0.0020 C   0  0  0  0  0  0  0  0  0  0  0  0
   -4.2673   -0.7846    1.2002 C   0  0  0  0  0  0  0  0  0  0  0  0
   -3.9513   -0.1162    2.4180 O   0  0  0  0  0  0  0  0  0  0  0  0
   -1.4250   -1.2089    0.0243 N   0  0  0  0  0  0  0  0  0  0  0  0
    1.0810    2.8267    0.0074 C   0  0  0  0  0  0  0  0  0  0  0  0
    1.7432    3.5578   -1.1597 C   0  0  0  0  0  0  0  0  0  0  0  0
    1.1283    3.2696   -2.5295 C   0  0  0  0  0  0  0  0  0  0  0  0
    1.8674    4.0722   -3.5924 C   0  0  0  0  0  0  0  0  0  0  0  0
    3.5232   -1.6929   -0.4208 C   0  0  0  0  0  0  0  0  0  0  0  0
    3.4840   -2.9151   -0.5719 O   0  0  0  0  0  0  0  0  0  0  0  0
    4.7399   -1.0116   -0.4522 N   0  0  0  0  0  0  0  0  0  0  0  0
    6.0653   -1.6577   -0.6300 C   0  0  1  0  0  0  0  0  0  0  0  0
    6.3404   -2.6413    0.5355 C   0  0  0  0  0  0  0  0  0  0  0  0
    7.6877   -3.3568    0.3631 C   0  0  1  0  0  0  0  0  0  0  0  0
    7.7009   -4.1105   -0.9764 C   0  0  0  0  0  0  0  0  0  0  0  0
    7.5134   -3.1233   -2.1409 C   0  0  1  0  0  0  0  0  0  0  0  0
    6.1562   -2.4115   -1.9869 C   0  0  0  0  0  0  0  0  0  0  0  0
    8.6365   -2.0765   -2.1168 C   0  0  0  0  0  0  0  0  0  0  0  0
    8.6061   -1.3157   -0.7800 C   0  0  2  0  0  0  0  0  0  0  0  0
    8.8202   -2.3206    0.3659 C   0  0  0  0  0  0  0  0  0  0  0  0
    7.2326   -0.6164   -0.6128 C   0  0  0  0  0  0  0  0  0  0  0  0
    0.8450   -2.8568   -0.1583 O   0  0  0  0  0  0  0  0  0  0  0  0
   -1.8644    2.0478    0.0581 H   0  0  0  0  0  0  0  0  0  0  0  0
   -3.9006   -0.6051   -0.9305 H   0  0  0  0  0  0  0  0  0  0  0  0
   -3.9592    0.9358   -0.0533 H   0  0  0  0  0  0  0  0  0  0  0  0
   -3.9843   -1.8385    1.2852 H   0  0  0  0  0  0  0  0  0  0  0  0
   -5.3564   -0.7404    1.0868 H   0  0  0  0  0  0  0  0  0  0  0  0
   -3.0619   -0.4154    2.6843 H   0  0  0  0  0  0  0  0  0  0  0  0
    1.5957    3.0969    0.9377 H   0  0  0  0  0  0  0  0  0  0  0  0
    0.0561    3.1996    0.1022 H   0  0  0  0  0  0  0  0  0  0  0  0
    2.8124    3.3253   -1.1897 H   0  0  0  0  0  0  0  0  0  0  0  0
    1.6664    4.6352   -0.9637 H   0  0  0  0  0  0  0  0  0  0  0  0
    0.0655    3.5382   -2.5390 H   0  0  0  0  0  0  0  0  0  0  0  0
    1.1997    2.2029   -2.7694 H   0  0  0  0  0  0  0  0  0  0  0  0
    1.7887    5.1461   -3.3926 H   0  0  0  0  0  0  0  0  0  0  0  0
    1.4560    3.8781   -4.5870 H   0  0  0  0  0  0  0  0  0  0  0  0
    2.9305    3.8084   -3.6050 H   0  0  0  0  0  0  0  0  0  0  0  0
    4.7146   -0.0119   -0.2412 H   0  0  0  0  0  0  0  0  0  0  0  0
    5.5498   -3.3950    0.6067 H   0  0  0  0  0  0  0  0  0  0  0  0
    6.3276   -2.0925    1.4862 H   0  0  0  0  0  0  0  0  0  0  0  0
    7.8320   -4.0645    1.1876 H   0  0  0  0  0  0  0  0  0  0  0  0
    6.9033   -4.8633   -0.9908 H   0  0  0  0  0  0  0  0  0  0  0  0
    8.6491   -4.6500   -1.0913 H   0  0  0  0  0  0  0  0  0  0  0  0
    7.5400   -3.6684   -3.0914 H   0  0  0  0  0  0  0  0  0  0  0  0
    6.0135   -1.7090   -2.8193 H   0  0  0  0  0  0  0  0  0  0  0  0
    5.3623   -3.1590   -2.0784 H   0  0  0  0  0  0  0  0  0  0  0  0
    8.5150   -1.3739   -2.9502 H   0  0  0  0  0  0  0  0  0  0  0  0
    9.6088   -2.5665   -2.2561 H   0  0  0  0  0  0  0  0  0  0  0  0
    9.4158   -0.5757   -0.7663 H   0  0  0  0  0  0  0  0  0  0  0  0
    9.7871   -2.8279    0.2530 H   0  0  0  0  0  0  0  0  0  0  0  0
    8.8494   -1.7948    1.3276 H   0  0  0  0  0  0  0  0  0  0  0  0
    7.2293   -0.0553    0.3309 H   0  0  0  0  0  0  0  0  0  0  0  0
    7.1043    0.1254   -1.4122 H   0  0  0  0  0  0  0  0  0  0  0  0
   -0.1203   -2.9913   -0.0783 H   0  0  0  0  0  0  0  0  0  0  0  0
  1  7  1  0  0  0  0
  1 13  2  0  0  0  0
  1  2  1  0  0  0  0
  2  3  2  0  0  0  0
  2 31  1  0  0  0  0
  3  4  1  0  0  0  0
  3 18  1  0  0  0  0
  4  5  2  0  0  0  0
  4  6  1  0  0  0  0
  6  7  1  0  0  0  0
  6 14  1  0  0  0  0
  7  8  2  0  0  0  0
  8  9  1  0  0  0  0
  8 32  1  0  0  0  0
  9 10  1  0  0  0  0
  9 13  1  0  0  0  0
 10 11  1  0  0  0  0
 10 33  1  0  0  0  0
 10 34  1  0  0  0  0
 11 12  1  0  0  0  0
 11 35  1  0  0  0  0
 11 36  1  0  0  0  0
 12 37  1  0  0  0  0
 14 15  1  0  0  0  0
 14 38  1  0  0  0  0
 14 39  1  0  0  0  0
 15 16  1  0  0  0  0
 15 40  1  0  0  0  0
 15 41  1  0  0  0  0
 16 17  1  0  0  0  0
 16 42  1  0  0  0  0
 16 43  1  0  0  0  0
 17 44  1  0  0  0  0
 17 45  1  0  0  0  0
 17 46  1  0  0  0  0
 18 19  2  0  0  0  0
 18 20  1  0  0  0  0
 20 47  1  0  0  0  0
 21 20  1  1  0  0  0
 21 26  1  0  0  0  0
 21 30  1  0  0  0  0
 21 22  1  0  0  0  0
 22 48  1  0  0  0  0
 22 49  1  0  0  0  0
 23 22  1  0  0  0  0
 23 24  1  0  0  0  0
 23 29  1  0  0  0  0
 23 50  1  1  0  0  0
 24 51  1  0  0  0  0
 24 52  1  0  0  0  0
 25 24  1  0  0  0  0
 25 26  1  0  0  0  0
 25 27  1  0  0  0  0
 25 53  1  6  0  0  0
 26 54  1  0  0  0  0
 26 55  1  0  0  0  0
 27 56  1  0  0  0  0
 27 57  1  0  0  0  0
 28 27  1  0  0  0  0
 28 29  1  0  0  0  0
 28 30  1  0  0  0  0
 28 58  1  1  0  0  0
 29 59  1  0  0  0  0
 29 60  1  0  0  0  0
 30 61  1  0  0  0  0
 30 62  1  0  0  0  0
 31 63  1  0  0  0  0
M  END
$$$$
CHEMBL426107_5ZTY
 OpenBabel12022418133D

 53 55  0  0  1  0  0  0  0  0999 V2000
    5.1138   -1.1739    5.5733 C   0  0  0  0  0  0  0  0  0  0  0  0
    5.9403   -2.4277    5.3292 C   0  0  0  0  0  0  0  0  0  0  0  0
    6.5468   -2.4269    3.9272 C   0  0  0  0  0  0  0  0  0  0  0  0
    7.4030   -3.6764    3.6774 C   0  0  0  0  0  0  0  0  0  0  0  0
    8.0631   -3.6648    2.2871 C   0  0  0  0  0  0  0  0  0  0  0  0
    8.9689   -2.5201    2.0618 N   0  0  0  0  0  0  0  0  0  0  0  0
    9.6838   -1.8974    3.0864 C   0  0  0  0  0  0  0  0  0  0  0  0
   10.2199   -0.6684    3.0821 C   0  0  0  0  0  0  0  0  0  0  0  0
   10.6362   -0.0652    4.4083 C   0  0  0  0  0  0  0  0  0  0  0  0
   10.5700   -0.7072    5.4415 O   0  0  0  0  0  0  0  0  0  0  0  0
   11.0330    1.2629    4.3874 N   0  0  0  0  0  0  0  0  0  0  0  0
   11.5728    1.9885    5.5601 C   0  0  2  0  0  0  0  0  0  0  0  0
   11.3139    3.5025    5.4740 C   0  0  0  0  0  0  0  0  0  0  0  0
   13.0650    1.7459    5.6715 C   0  0  0  0  0  0  0  0  0  0  0  0
   13.8922    1.9752    4.5649 C   0  0  0  0  0  0  0  0  0  0  0  0
   15.2162    1.5470    4.5810 C   0  0  0  0  0  0  0  0  0  0  0  0
   15.7397    0.9571    5.7214 C   0  0  0  0  0  0  0  0  0  0  0  0
   14.9661    0.8488    6.8749 C   0  0  0  0  0  0  0  0  0  0  0  0
   13.6268    1.2459    6.8542 C   0  0  0  0  0  0  0  0  0  0  0  0
   10.2520   -0.0105    1.7446 C   0  0  0  0  0  0  0  0  0  0  0  0
   10.6308    1.1525    1.6149 O   0  0  0  0  0  0  0  0  0  0  0  0
    9.8658   -0.8393    0.5529 C   0  0  0  0  0  0  0  0  0  0  0  0
   10.2795   -0.4572   -0.7359 C   0  0  0  0  0  0  0  0  0  0  0  0
    9.9525   -1.2483   -1.8407 C   0  0  0  0  0  0  0  0  0  0  0  0
    9.1414   -2.3679   -1.6793 C   0  0  0  0  0  0  0  0  0  0  0  0
    8.7135   -2.7331   -0.4030 C   0  0  0  0  0  0  0  0  0  0  0  0
    9.1387   -2.0322    0.7409 C   0  0  0  0  0  0  0  0  0  0  0  0
    4.6974   -1.1852    6.5849 H   0  0  0  0  0  0  0  0  0  0  0  0
    4.2831   -1.1072    4.8635 H   0  0  0  0  0  0  0  0  0  0  0  0
    5.7260   -0.2717    5.4692 H   0  0  0  0  0  0  0  0  0  0  0  0
    5.3074   -3.3120    5.4630 H   0  0  0  0  0  0  0  0  0  0  0  0
    6.7392   -2.4799    6.0781 H   0  0  0  0  0  0  0  0  0  0  0  0
    7.1448   -1.5192    3.8120 H   0  0  0  0  0  0  0  0  0  0  0  0
    5.7489   -2.3756    3.1754 H   0  0  0  0  0  0  0  0  0  0  0  0
    6.7718   -4.5687    3.7574 H   0  0  0  0  0  0  0  0  0  0  0  0
    8.1621   -3.7786    4.4593 H   0  0  0  0  0  0  0  0  0  0  0  0
    7.2347   -3.6736    1.5670 H   0  0  0  0  0  0  0  0  0  0  0  0
    8.6341   -4.5955    2.1414 H   0  0  0  0  0  0  0  0  0  0  0  0
    9.7288   -2.4968    3.9923 H   0  0  0  0  0  0  0  0  0  0  0  0
   11.2190    1.6539    3.4678 H   0  0  0  0  0  0  0  0  0  0  0  0
   11.0771    1.5990    6.4560 H   0  0  0  0  0  0  0  0  0  0  0  0
   11.1570    3.8347    4.4428 H   0  0  0  0  0  0  0  0  0  0  0  0
   12.1373    4.0934    5.8915 H   0  0  0  0  0  0  0  0  0  0  0  0
   10.4174    3.7704    6.0449 H   0  0  0  0  0  0  0  0  0  0  0  0
   13.4876    2.4408    3.6682 H   0  0  0  0  0  0  0  0  0  0  0  0
   15.8125    1.6382    3.6740 H   0  0  0  0  0  0  0  0  0  0  0  0
   16.7561    0.5712    5.7104 H   0  0  0  0  0  0  0  0  0  0  0  0
   15.3888    0.4111    7.7761 H   0  0  0  0  0  0  0  0  0  0  0  0
   13.0248    1.1227    7.7520 H   0  0  0  0  0  0  0  0  0  0  0  0
   10.8905    0.4280   -0.8732 H   0  0  0  0  0  0  0  0  0  0  0  0
   10.3514   -1.0078   -2.8261 H   0  0  0  0  0  0  0  0  0  0  0  0
    8.8687   -2.9750   -2.5424 H   0  0  0  0  0  0  0  0  0  0  0  0
    8.0881   -3.6229   -0.3375 H   0  0  0  0  0  0  0  0  0  0  0  0
  1  2  1  0  0  0  0
  1 28  1  0  0  0  0
  1 29  1  0  0  0  0
  1 30  1  0  0  0  0
  2  3  1  0  0  0  0
  2 31  1  0  0  0  0
  2 32  1  0  0  0  0
  3  4  1  0  0  0  0
  3 33  1  0  0  0  0
  3 34  1  0  0  0  0
  4  5  1  0  0  0  0
  4 35  1  0  0  0  0
  4 36  1  0  0  0  0
  5  6  1  0  0  0  0
  5 37  1  0  0  0  0
  5 38  1  0  0  0  0
  6 27  1  0  0  0  0
  6  7  1  0  0  0  0
  7  8  2  0  0  0  0
  7 39  1  0  0  0  0
  8  9  1  0  0  0  0
  8 20  1  0  0  0  0
  9 10  2  0  0  0  0
  9 11  1  0  0  0  0
 11 40  1  0  0  0  0
 12 14  1  0  0  0  0
 12 13  1  0  0  0  0
 12 11  1  0  0  0  0
 12 41  1  1  0  0  0
 13 42  1  0  0  0  0
 13 43  1  0  0  0  0
 13 44  1  0  0  0  0
 14 19  2  0  0  0  0
 14 15  1  0  0  0  0
 15 16  2  0  0  0  0
 15 45  1  0  0  0  0
 16 17  1  0  0  0  0
 16 46  1  0  0  0  0
 17 18  2  0  0  0  0
 17 47  1  0  0  0  0
 18 19  1  0  0  0  0
 18 48  1  0  0  0  0
 19 49  1  0  0  0  0
 20 21  2  0  0  0  0
 20 22  1  0  0  0  0
 22 27  2  0  0  0  0
 22 23  1  0  0  0  0
 23 24  2  0  0  0  0
 23 50  1  0  0  0  0
 24 25  1  0  0  0  0
 24 51  1  0  0  0  0
 25 26  2  0  0  0  0
 25 52  1  0  0  0  0
 26 27  1  0  0  0  0
 26 53  1  0  0  0  0
M  END
$$$$
CHEMBL467476_8GUT
 OpenBabel12022418133D

 53 56  0  0  1  0  0  0  0  0999 V2000
    0.0860   -2.8418   -0.7328 C   0  0  0  0  0  0  0  0  0  0  0  0
    0.6077   -1.4012   -0.7437 C   0  0  2  0  0  0  0  0  0  0  0  0
    0.5612   -0.7713    0.6529 C   0  0  0  0  0  0  0  0  0  0  0  0
   -0.8648   -0.5099    1.1315 C   0  0  0  0  0  0  0  0  0  0  0  0
   -1.6760    0.3116    0.1205 C   0  0  1  0  0  0  0  0  0  0  0  0
   -1.5985   -0.2447   -1.2983 C   0  0  0  0  0  0  0  0  0  0  0  0
   -0.1605   -0.5205   -1.7372 C   0  0  0  0  0  0  0  0  0  0  0  0
   -3.0646    0.3809    0.5690 N   0  0  0  0  0  0  0  0  0  0  0  0
   -3.8996    1.4256    0.2736 C   0  0  0  0  0  0  0  0  0  0  0  0
   -3.5314    2.4139   -0.3551 O   0  0  0  0  0  0  0  0  0  0  0  0
   -5.3035    1.2934    0.7819 C   0  0  0  0  0  0  0  0  0  0  0  0
   -6.1468    2.2949    0.4879 C   0  0  0  0  0  0  0  0  0  0  0  0
   -7.5315    2.2362    0.9319 C   0  0  0  0  0  0  0  0  0  0  0  0
   -7.9349    1.2676    1.8549 C   0  0  0  0  0  0  0  0  0  0  0  0
   -9.2131    1.1810    2.2908 N   0  0  0  0  0  0  0  0  0  0  0  0
  -10.1149    2.0431    1.7733 C   0  0  0  0  0  0  0  0  0  0  0  0
   -9.8016    3.0234    0.8498 C   0  0  0  0  0  0  0  0  0  0  0  0
   -8.4809    3.1310    0.4345 C   0  0  0  0  0  0  0  0  0  0  0  0
   -6.9975    0.2839    2.2631 N   0  0  0  0  0  0  0  0  0  0  0  0
   -5.7893    0.1334    1.5958 C   0  0  0  0  0  0  0  0  0  0  0  0
   -5.1087   -0.8929    1.6571 O   0  0  0  0  0  0  0  0  0  0  0  0
   -7.4216   -0.7252    3.2298 C   0  0  0  0  0  0  0  0  0  0  0  0
   -7.2030   -0.3539    4.6895 C   0  0  0  0  0  0  0  0  0  0  0  0
   -6.0790   -0.8174    5.3913 C   0  0  0  0  0  0  0  0  0  0  0  0
   -5.9814   -0.6445    6.7770 C   0  0  0  0  0  0  0  0  0  0  0  0
   -6.9904    0.0155    7.4738 C   0  0  0  0  0  0  0  0  0  0  0  0
   -8.0782    0.5412    6.7821 C   0  0  0  0  0  0  0  0  0  0  0  0
   -8.1802    0.3623    5.3988 C   0  0  0  0  0  0  0  0  0  0  0  0
    0.6386   -3.4466   -0.0059 H   0  0  0  0  0  0  0  0  0  0  0  0
    0.2133   -3.3040   -1.7174 H   0  0  0  0  0  0  0  0  0  0  0  0
   -0.9750   -2.9028   -0.4737 H   0  0  0  0  0  0  0  0  0  0  0  0
    1.6571   -1.4409   -1.0628 H   0  0  0  0  0  0  0  0  0  0  0  0
    1.1093    0.1799    0.6337 H   0  0  0  0  0  0  0  0  0  0  0  0
    1.0794   -1.4134    1.3751 H   0  0  0  0  0  0  0  0  0  0  0  0
   -0.8315    0.0148    2.0940 H   0  0  0  0  0  0  0  0  0  0  0  0
   -1.3665   -1.4679    1.3293 H   0  0  0  0  0  0  0  0  0  0  0  0
   -1.2808    1.3344    0.1092 H   0  0  0  0  0  0  0  0  0  0  0  0
   -2.0578    0.4627   -2.0003 H   0  0  0  0  0  0  0  0  0  0  0  0
   -2.1916   -1.1693   -1.3732 H   0  0  0  0  0  0  0  0  0  0  0  0
   -0.1605   -0.9828   -2.7319 H   0  0  0  0  0  0  0  0  0  0  0  0
    0.3664    0.4377   -1.8408 H   0  0  0  0  0  0  0  0  0  0  0  0
   -3.4860   -0.4649    0.9634 H   0  0  0  0  0  0  0  0  0  0  0  0
   -5.8277    3.1631   -0.0826 H   0  0  0  0  0  0  0  0  0  0  0  0
  -11.1353    1.9074    2.1208 H   0  0  0  0  0  0  0  0  0  0  0  0
  -10.5687    3.6799    0.4551 H   0  0  0  0  0  0  0  0  0  0  0  0
   -8.2074    3.8889   -0.2950 H   0  0  0  0  0  0  0  0  0  0  0  0
   -6.8814   -1.6613    3.0392 H   0  0  0  0  0  0  0  0  0  0  0  0
   -8.4762   -0.9872    3.0781 H   0  0  0  0  0  0  0  0  0  0  0  0
   -5.2882   -1.3556    4.8703 H   0  0  0  0  0  0  0  0  0  0  0  0
   -5.1303   -1.0510    7.3181 H   0  0  0  0  0  0  0  0  0  0  0  0
   -6.9346    0.1139    8.5565 H   0  0  0  0  0  0  0  0  0  0  0  0
   -8.8639    1.0638    7.3210 H   0  0  0  0  0  0  0  0  0  0  0  0
   -9.0538    0.7552    4.8829 H   0  0  0  0  0  0  0  0  0  0  0  0
  1 29  1  0  0  0  0
  1 30  1  0  0  0  0
  1 31  1  0  0  0  0
  2  3  1  0  0  0  0
  2  7  1  0  0  0  0
  2  1  1  0  0  0  0
  2 32  1  6  0  0  0
  3  4  1  0  0  0  0
  3 33  1  0  0  0  0
  3 34  1  0  0  0  0
  4  5  1  0  0  0  0
  4 35  1  0  0  0  0
  4 36  1  0  0  0  0
  5  6  1  0  0  0  0
  5  8  1  0  0  0  0
  5 37  1  6  0  0  0
  6  7  1  0  0  0  0
  6 38  1  0  0  0  0
  6 39  1  0  0  0  0
  7 40  1  0  0  0  0
  7 41  1  0  0  0  0
  8  9  1  0  0  0  0
  8 42  1  0  0  0  0
  9 10  2  0  0  0  0
  9 11  1  0  0  0  0
 11 20  1  0  0  0  0
 11 12  2  0  0  0  0
 12 13  1  0  0  0  0
 12 43  1  0  0  0  0
 13 18  2  0  0  0  0
 13 14  1  0  0  0  0
 14 15  2  0  0  0  0
 14 19  1  0  0  0  0
 15 16  1  0  0  0  0
 16 17  2  0  0  0  0
 16 44  1  0  0  0  0
 17 18  1  0  0  0  0
 17 45  1  0  0  0  0
 18 46  1  0  0  0  0
 19 20  1  0  0  0  0
 19 22  1  0  0  0  0
 20 21  2  0  0  0  0
 22 23  1  0  0  0  0
 22 47  1  0  0  0  0
 22 48  1  0  0  0  0
 23 28  2  0  0  0  0
 23 24  1  0  0  0  0
 24 25  2  0  0  0  0
 24 49  1  0  0  0  0
 25 26  1  0  0  0  0
 25 50  1  0  0  0  0
 26 27  2  0  0  0  0
 26 51  1  0  0  0  0
 27 28  1  0  0  0  0
 27 52  1  0  0  0  0
 28 53  1  0  0  0  0
M  END
$$$$
CHEMBL3780792_8GUQ
 OpenBabel12022418133D

 67 73  0  0  1  0  0  0  0  0999 V2000
   -2.1893   -4.9969   -4.9617 Cl  0  0  0  0  0  0  0  0  0  0  0  0
   -1.2644   -4.4690   -3.5968 C   0  0  0  0  0  0  0  0  0  0  0  0
    0.0973   -4.2395   -3.8342 C   0  0  0  0  0  0  0  0  0  0  0  0
    0.9488   -3.9068   -2.7828 C   0  0  0  0  0  0  0  0  0  0  0  0
    2.6177   -3.6258   -3.0882 Cl  0  0  0  0  0  0  0  0  0  0  0  0
    0.4583   -3.7902   -1.4882 C   0  0  0  0  0  0  0  0  0  0  0  0
   -0.9003   -3.9944   -1.2473 C   0  0  0  0  0  0  0  0  0  0  0  0
   -1.7690   -4.3565   -2.2920 C   0  0  0  0  0  0  0  0  0  0  0  0
   -3.1382   -4.5589   -1.9926 N   0  0  0  0  0  0  0  0  0  0  0  0
   -3.6983   -5.0624   -0.8552 C   0  0  0  0  0  0  0  0  0  0  0  0
   -3.3430   -5.7396    0.3576 C   0  0  0  0  0  0  0  0  0  0  0  0
   -4.5665   -5.9899    1.0219 C   0  0  0  0  0  0  0  0  0  0  0  0
   -4.5650   -6.6488    2.2546 C   0  0  0  0  0  0  0  0  0  0  0  0
   -3.3440   -7.0584    2.8431 C   0  0  0  0  0  0  0  0  0  0  0  0
   -2.1469   -6.7950    2.1385 C   0  0  0  0  0  0  0  0  0  0  0  0
   -2.1416   -6.1603    0.8873 C   0  0  0  0  0  0  0  0  0  0  0  0
   -3.2959   -7.8267    4.1489 C   0  0  0  0  0  0  0  0  0  0  0  0
   -2.3834   -7.3821    5.2739 C   0  0  0  0  0  0  0  0  0  0  0  0
   -3.8678   -7.2328    5.4126 C   0  0  0  0  0  0  0  0  0  0  0  0
   -5.7977   -5.4859    0.2272 C   0  0  0  0  0  0  0  0  0  0  0  0
   -5.0611   -4.9417   -0.9609 C   0  0  0  0  0  0  0  0  0  0  0  0
   -5.2929   -4.3191   -2.2107 C   0  0  0  0  0  0  0  0  0  0  0  0
   -6.5753   -3.9085   -2.8309 C   0  0  0  0  0  0  0  0  0  0  0  0
   -7.6547   -4.1323   -2.2891 O   0  0  0  0  0  0  0  0  0  0  0  0
   -6.4568   -3.2320   -4.0475 N   0  0  0  0  0  0  0  0  0  0  0  0
   -7.6166   -2.7544   -4.7894 C   0  0  1  0  0  0  0  0  0  0  0  0
   -7.4374   -1.5134   -5.7520 C   0  0  1  0  0  0  0  0  0  0  0  0
   -7.2226   -2.1178   -7.1788 C   0  0  0  0  0  0  0  0  0  0  0  0
   -8.4846   -3.0044   -7.0441 C   0  0  2  0  0  0  0  0  0  0  0  0
   -9.6048   -1.9835   -6.7343 C   0  0  0  0  0  0  0  0  0  0  0  0
   -8.8785   -0.9214   -5.8877 C   0  0  0  0  0  0  0  0  0  0  0  0
   -8.2237   -3.8094   -5.7451 C   0  0  0  0  0  0  0  0  0  0  0  0
   -5.9162   -2.9002   -7.3853 C   0  0  0  0  0  0  0  0  0  0  0  0
   -7.2979   -1.1143   -8.3583 C   0  0  0  0  0  0  0  0  0  0  0  0
   -6.4367   -0.4664   -5.3034 C   0  0  0  0  0  0  0  0  0  0  0  0
   -4.1121   -4.1112   -2.8435 N   0  0  0  0  0  0  0  0  0  0  0  0
    0.4977   -4.3374   -4.8398 H   0  0  0  0  0  0  0  0  0  0  0  0
    1.1187   -3.5260   -0.6656 H   0  0  0  0  0  0  0  0  0  0  0  0
   -1.2705   -3.8212   -0.2388 H   0  0  0  0  0  0  0  0  0  0  0  0
   -5.5004   -6.8686    2.7641 H   0  0  0  0  0  0  0  0  0  0  0  0
   -1.1974   -7.1098    2.5714 H   0  0  0  0  0  0  0  0  0  0  0  0
   -1.1918   -6.0288    0.3854 H   0  0  0  0  0  0  0  0  0  0  0  0
   -3.3959   -8.9059    4.0391 H   0  0  0  0  0  0  0  0  0  0  0  0
   -1.7976   -6.4773    5.1636 H   0  0  0  0  0  0  0  0  0  0  0  0
   -1.8942   -8.1507    5.8634 H   0  0  0  0  0  0  0  0  0  0  0  0
   -4.3825   -7.9005    6.0947 H   0  0  0  0  0  0  0  0  0  0  0  0
   -4.2745   -6.2288    5.3847 H   0  0  0  0  0  0  0  0  0  0  0  0
   -6.3203   -4.7063    0.7864 H   0  0  0  0  0  0  0  0  0  0  0  0
   -6.4498   -6.3213   -0.0353 H   0  0  0  0  0  0  0  0  0  0  0  0
   -5.5173   -3.1941   -4.4348 H   0  0  0  0  0  0  0  0  0  0  0  0
   -8.3663   -2.5056   -4.0274 H   0  0  0  0  0  0  0  0  0  0  0  0
   -8.7096   -3.6377   -7.9060 H   0  0  0  0  0  0  0  0  0  0  0  0
  -10.4415   -2.4339   -6.1909 H   0  0  0  0  0  0  0  0  0  0  0  0
  -10.0105   -1.5400   -7.6505 H   0  0  0  0  0  0  0  0  0  0  0  0
   -8.8832    0.0513   -6.3931 H   0  0  0  0  0  0  0  0  0  0  0  0
   -9.3691   -0.7721   -4.9198 H   0  0  0  0  0  0  0  0  0  0  0  0
   -9.1479   -4.2324   -5.3374 H   0  0  0  0  0  0  0  0  0  0  0  0
   -7.5394   -4.6436   -5.9324 H   0  0  0  0  0  0  0  0  0  0  0  0
   -5.7241   -3.6668   -6.6349 H   0  0  0  0  0  0  0  0  0  0  0  0
   -5.0554   -2.2221   -7.3793 H   0  0  0  0  0  0  0  0  0  0  0  0
   -5.9282   -3.4060   -8.3590 H   0  0  0  0  0  0  0  0  0  0  0  0
   -8.1812   -0.4717   -8.3636 H   0  0  0  0  0  0  0  0  0  0  0  0
   -7.3072   -1.6501   -9.3156 H   0  0  0  0  0  0  0  0  0  0  0  0
   -6.4276   -0.4483   -8.3606 H   0  0  0  0  0  0  0  0  0  0  0  0
   -6.6868   -0.0903   -4.3063 H   0  0  0  0  0  0  0  0  0  0  0  0
   -6.4299    0.3919   -5.9850 H   0  0  0  0  0  0  0  0  0  0  0  0
   -5.4195   -0.8674   -5.2716 H   0  0  0  0  0  0  0  0  0  0  0  0
  1  2  1  0  0  0  0
  2  8  2  0  0  0  0
  2  3  1  0  0  0  0
  3  4  2  0  0  0  0
  3 37  1  0  0  0  0
  4  5  1  0  0  0  0
  4  6  1  0  0  0  0
  6  7  2  0  0  0  0
  6 38  1  0  0  0  0
  7  8  1  0  0  0  0
  7 39  1  0  0  0  0
  8  9  1  0  0  0  0
  9 36  1  0  0  0  0
  9 10  1  0  0  0  0
 10 21  2  0  0  0  0
 10 11  1  0  0  0  0
 11 16  2  0  0  0  0
 11 12  1  0  0  0  0
 12 13  2  0  0  0  0
 12 20  1  0  0  0  0
 13 14  1  0  0  0  0
 13 40  1  0  0  0  0
 14 15  2  0  0  0  0
 14 17  1  0  0  0  0
 15 16  1  0  0  0  0
 15 41  1  0  0  0  0
 16 42  1  0  0  0  0
 17 19  1  0  0  0  0
 17 18  1  0  0  0  0
 17 43  1  0  0  0  0
 18 19  1  0  0  0  0
 18 44  1  0  0  0  0
 18 45  1  0  0  0  0
 19 46  1  0  0  0  0
 19 47  1  0  0  0  0
 20 21  1  0  0  0  0
 20 48  1  0  0  0  0
 20 49  1  0  0  0  0
 21 22  1  0  0  0  0
 22 23  1  0  0  0  0
 22 36  2  0  0  0  0
 23 24  2  0  0  0  0
 23 25  1  0  0  0  0
 25 50  1  0  0  0  0
 26 27  1  0  0  0  0
 26 32  1  0  0  0  0
 26 25  1  0  0  0  0
 26 51  1  1  0  0  0
 27 31  1  0  0  0  0
 27 28  1  0  0  0  0
 27 35  1  1  0  0  0
 28 29  1  0  0  0  0
 28 33  1  0  0  0  0
 28 34  1  0  0  0  0
 29 30  1  0  0  0  0
 29 32  1  0  0  0  0
 29 52  1  6  0  0  0
 30 31  1  0  0  0  0
 30 53  1  0  0  0  0
 30 54  1  0  0  0  0
 31 55  1  0  0  0  0
 31 56  1  0  0  0  0
 32 57  1  0  0  0  0
 32 58  1  0  0  0  0
 33 59  1  0  0  0  0
 33 60  1  0  0  0  0
 33 61  1  0  0  0  0
 34 62  1  0  0  0  0
 34 63  1  0  0  0  0
 34 64  1  0  0  0  0
 35 65  1  0  0  0  0
 35 66  1  0  0  0  0
 35 67  1  0  0  0  0
M  END
$$$$
CHEMBL3397448_5ZTY
 OpenBabel12022418133D

 52 54  0  0  0  0  0  0  0  0999 V2000
    1.4193   -0.3462    0.0298 C   0  0  0  0  0  0  0  0  0  0  0  0
    0.7935   -0.1842   -1.2000 C   0  0  0  0  0  0  0  0  0  0  0  0
   -0.5799    0.0736   -1.2561 C   0  0  0  0  0  0  0  0  0  0  0  0
   -1.3557    0.1981   -0.0865 C   0  0  0  0  0  0  0  0  0  0  0  0
   -0.6953    0.0196    1.1423 C   0  0  0  0  0  0  0  0  0  0  0  0
    0.6753   -0.2532    1.2008 C   0  0  0  0  0  0  0  0  0  0  0  0
   -2.7953    0.5367   -0.1491 C   0  0  0  0  0  0  0  0  0  0  0  0
   -3.2961    1.4015   -1.1265 C   0  0  0  0  0  0  0  0  0  0  0  0
   -4.6610    1.7633   -1.2205 C   0  0  0  0  0  0  0  0  0  0  0  0
   -5.5756    1.2645   -0.2611 C   0  0  0  0  0  0  0  0  0  0  0  0
   -5.0954    0.3844    0.7392 C   0  0  0  0  0  0  0  0  0  0  0  0
   -3.7232    0.0333    0.7656 C   0  0  0  0  0  0  0  0  0  0  0  0
   -5.9018   -0.2372    1.8510 C   0  0  0  0  0  0  0  0  0  0  0  0
   -5.3459   -1.0131    2.6336 O   0  0  0  0  0  0  0  0  0  0  0  0
   -7.2339    0.0887    2.0084 N   0  0  0  0  0  0  0  0  0  0  0  0
   -7.9914   -0.3966    3.1688 C   0  0  0  0  0  0  0  0  0  0  0  0
   -7.7148    0.4671    4.4138 C   0  0  0  0  0  0  0  0  0  0  0  0
   -8.7172    1.5896    4.6830 C   0  0  0  0  0  0  0  0  0  0  0  0
   -9.9343    1.1217    5.4816 C   0  0  0  0  0  0  0  0  0  0  0  0
  -10.9327    0.2585    4.7172 C   0  0  0  0  0  0  0  0  0  0  0  0
  -10.3454   -0.9599    4.0082 C   0  0  0  0  0  0  0  0  0  0  0  0
   -9.4685   -0.5882    2.8114 C   0  0  0  0  0  0  0  0  0  0  0  0
   -6.9276    1.5062   -0.2399 O   0  0  0  0  0  0  0  0  0  0  0  0
   -7.4377    2.7007   -0.8131 C   0  0  0  0  0  0  0  0  0  0  0  0
   -4.9890    2.6513   -2.3930 C   0  0  0  0  0  0  0  0  0  0  0  0
    2.4873   -0.5454    0.0758 H   0  0  0  0  0  0  0  0  0  0  0  0
    1.3687   -0.2550   -2.1206 H   0  0  0  0  0  0  0  0  0  0  0  0
   -1.0388    0.1764   -2.2368 H   0  0  0  0  0  0  0  0  0  0  0  0
   -1.2398    0.1090    2.0814 H   0  0  0  0  0  0  0  0  0  0  0  0
    1.1583   -0.3824    2.1649 H   0  0  0  0  0  0  0  0  0  0  0  0
   -2.5977    1.8206   -1.8510 H   0  0  0  0  0  0  0  0  0  0  0  0
   -3.3757   -0.6619    1.5299 H   0  0  0  0  0  0  0  0  0  0  0  0
   -7.6268    0.7885    1.3908 H   0  0  0  0  0  0  0  0  0  0  0  0
   -7.5931   -1.3932    3.3964 H   0  0  0  0  0  0  0  0  0  0  0  0
   -6.7125    0.9076    4.3412 H   0  0  0  0  0  0  0  0  0  0  0  0
   -7.6785   -0.1899    5.2938 H   0  0  0  0  0  0  0  0  0  0  0  0
   -9.0182    2.0884    3.7556 H   0  0  0  0  0  0  0  0  0  0  0  0
   -8.2078    2.3491    5.2908 H   0  0  0  0  0  0  0  0  0  0  0  0
  -10.4690    2.0080    5.8470 H   0  0  0  0  0  0  0  0  0  0  0  0
   -9.6012    0.5827    6.3780 H   0  0  0  0  0  0  0  0  0  0  0  0
  -11.4646    0.8815    3.9876 H   0  0  0  0  0  0  0  0  0  0  0  0
  -11.6926   -0.0887    5.4291 H   0  0  0  0  0  0  0  0  0  0  0  0
  -11.1870   -1.5599    3.6394 H   0  0  0  0  0  0  0  0  0  0  0  0
   -9.8016   -1.5970    4.7168 H   0  0  0  0  0  0  0  0  0  0  0  0
   -9.5296   -1.4002    2.0742 H   0  0  0  0  0  0  0  0  0  0  0  0
   -9.8695    0.2982    2.3036 H   0  0  0  0  0  0  0  0  0  0  0  0
   -8.4588    2.8398   -0.4456 H   0  0  0  0  0  0  0  0  0  0  0  0
   -7.5141    2.6119   -1.8992 H   0  0  0  0  0  0  0  0  0  0  0  0
   -6.8606    3.5785   -0.5078 H   0  0  0  0  0  0  0  0  0  0  0  0
   -4.1129    2.8184   -3.0327 H   0  0  0  0  0  0  0  0  0  0  0  0
   -5.3019    3.6438   -2.0583 H   0  0  0  0  0  0  0  0  0  0  0  0
   -5.7423    2.1887   -3.0342 H   0  0  0  0  0  0  0  0  0  0  0  0
  1  6  2  0  0  0  0
  1  2  1  0  0  0  0
  1 26  1  0  0  0  0
  2  3  2  0  0  0  0
  2 27  1  0  0  0  0
  3  4  1  0  0  0  0
  3 28  1  0  0  0  0
  4  5  2  0  0  0  0
  4  7  1  0  0  0  0
  5  6  1  0  0  0  0
  5 29  1  0  0  0  0
  6 30  1  0  0  0  0
  7 12  2  0  0  0  0
  7  8  1  0  0  0  0
  8  9  2  0  0  0  0
  8 31  1  0  0  0  0
  9 10  1  0  0  0  0
  9 25  1  0  0  0  0
 10 11  2  0  0  0  0
 10 23  1  0  0  0  0
 11 12  1  0  0  0  0
 11 13  1  0  0  0  0
 12 32  1  0  0  0  0
 13 14  2  0  0  0  0
 13 15  1  0  0  0  0
 15 16  1  0  0  0  0
 15 33  1  0  0  0  0
 16 22  1  0  0  0  0
 16 17  1  0  0  0  0
 16 34  1  0  0  0  0
 17 18  1  0  0  0  0
 17 35  1  0  0  0  0
 17 36  1  0  0  0  0
 18 19  1  0  0  0  0
 18 37  1  0  0  0  0
 18 38  1  0  0  0  0
 19 20  1  0  0  0  0
 19 39  1  0  0  0  0
 19 40  1  0  0  0  0
 20 21  1  0  0  0  0
 20 41  1  0  0  0  0
 20 42  1  0  0  0  0
 21 22  1  0  0  0  0
 21 43  1  0  0  0  0
 21 44  1  0  0  0  0
 22 45  1  0  0  0  0
 22 46  1  0  0  0  0
 23 24  1  0  0  0  0
 24 47  1  0  0  0  0
 24 48  1  0  0  0  0
 24 49  1  0  0  0  0
 25 50  1  0  0  0  0
 25 51  1  0  0  0  0
 25 52  1  0  0  0  0
M  END
$$$$
CHEMBL3941296_6PT0
 OpenBabel12022418133D

 57 61  0  0  1  0  0  0  0  0999 V2000
   -1.4233   -0.9431   -1.5383 C   0  0  0  0  0  0  0  0  0  0  0  0
   -0.3730   -0.2219   -0.7953 C   0  0  0  0  0  0  0  0  0  0  0  0
    0.6099    0.5240   -1.2602 N   0  0  0  0  0  0  0  0  0  0  0  0
    1.2858    0.8790   -0.1083 C   0  0  0  0  0  0  0  0  0  0  0  0
    2.5792    1.6928   -0.1407 C   0  0  2  0  0  0  0  0  0  0  0  0
    3.2912    1.4405   -1.4882 C   0  0  0  0  0  0  0  0  0  0  0  0
    3.5285    1.3067    1.0429 C   0  0  0  0  0  0  0  0  0  0  0  0
    3.9625   -0.1460    1.0927 C   0  0  0  0  0  0  0  0  0  0  0  0
    5.3483   -0.5792    0.6844 C   0  0  0  0  0  0  0  0  0  0  0  0
    4.9729   -0.5552    2.1378 C   0  0  0  0  0  0  0  0  0  0  0  0
    2.1969    3.1290   -0.0401 N   0  0  0  0  0  0  0  0  0  0  0  0
    3.0761    4.1855   -0.1401 C   0  0  0  0  0  0  0  0  0  0  0  0
    4.2865    4.0646   -0.3177 O   0  0  0  0  0  0  0  0  0  0  0  0
    2.4819    5.5637    0.0085 C   0  0  0  0  0  0  0  0  0  0  0  0
    3.2943    6.6888   -0.0385 C   0  0  0  0  0  0  0  0  0  0  0  0
    2.7265    7.9401    0.2222 C   0  0  0  0  0  0  0  0  0  0  0  0
    1.3552    8.0589    0.5078 C   0  0  0  0  0  0  0  0  0  0  0  0
    0.6253    6.8574    0.4060 C   0  0  0  0  0  0  0  0  0  0  0  0
    1.1479    5.6230    0.2036 N   0  0  0  0  0  0  0  0  0  0  0  0
   -0.7531    6.9600    0.5162 O   0  0  0  0  0  0  0  0  0  0  0  0
   -1.4135    5.8087   -0.0121 C   0  0  0  0  0  0  0  0  0  0  0  0
   -2.8651    6.1221   -0.2099 C   0  0  0  0  0  0  0  0  0  0  0  0
   -3.9107    5.1046    0.1717 C   0  0  0  0  0  0  0  0  0  0  0  0
   -3.7772    6.3795    0.9597 C   0  0  0  0  0  0  0  0  0  0  0  0
    0.6847    9.3476    0.9460 C   0  0  0  0  0  0  0  0  0  0  0  0
    1.2896   10.7293    0.9170 C   0  0  0  0  0  0  0  0  0  0  0  0
    0.2663   10.3450   -0.1079 C   0  0  0  0  0  0  0  0  0  0  0  0
    0.7065    0.4344    1.0176 N   0  0  0  0  0  0  0  0  0  0  0  0
   -0.3782   -0.3211    0.5582 O   0  0  0  0  0  0  0  0  0  0  0  0
   -2.0113   -1.5873   -0.8776 H   0  0  0  0  0  0  0  0  0  0  0  0
   -0.9751   -1.5701   -2.3143 H   0  0  0  0  0  0  0  0  0  0  0  0
   -2.1014   -0.2332   -2.0202 H   0  0  0  0  0  0  0  0  0  0  0  0
    4.2455    1.9709   -1.5607 H   0  0  0  0  0  0  0  0  0  0  0  0
    2.6715    1.7805   -2.3284 H   0  0  0  0  0  0  0  0  0  0  0  0
    3.4962    0.3758   -1.6439 H   0  0  0  0  0  0  0  0  0  0  0  0
    3.0328    1.5378    1.9950 H   0  0  0  0  0  0  0  0  0  0  0  0
    4.4263    1.9378    1.0205 H   0  0  0  0  0  0  0  0  0  0  0  0
    3.1468   -0.8427    0.9320 H   0  0  0  0  0  0  0  0  0  0  0  0
    6.0551    0.1650    0.3352 H   0  0  0  0  0  0  0  0  0  0  0  0
    5.4639   -1.5508    0.2151 H   0  0  0  0  0  0  0  0  0  0  0  0
    4.8191   -1.5016    2.6449 H   0  0  0  0  0  0  0  0  0  0  0  0
    5.4212    0.2100    2.7615 H   0  0  0  0  0  0  0  0  0  0  0  0
    1.2205    3.3655    0.1428 H   0  0  0  0  0  0  0  0  0  0  0  0
    4.3560    6.5962   -0.2470 H   0  0  0  0  0  0  0  0  0  0  0  0
    3.3641    8.8184    0.2185 H   0  0  0  0  0  0  0  0  0  0  0  0
   -1.2878    4.9670    0.6802 H   0  0  0  0  0  0  0  0  0  0  0  0
   -1.0034    5.5370   -0.9948 H   0  0  0  0  0  0  0  0  0  0  0  0
   -3.0257    6.7084   -1.1084 H   0  0  0  0  0  0  0  0  0  0  0  0
   -3.5985    4.1848    0.6538 H   0  0  0  0  0  0  0  0  0  0  0  0
   -4.7701    4.9923   -0.4791 H   0  0  0  0  0  0  0  0  0  0  0  0
   -4.5469    7.1343    0.8370 H   0  0  0  0  0  0  0  0  0  0  0  0
   -3.3602    6.3270    1.9569 H   0  0  0  0  0  0  0  0  0  0  0  0
   -0.0008    9.2085    1.7848 H   0  0  0  0  0  0  0  0  0  0  0  0
    2.3070   10.8881    0.5852 H   0  0  0  0  0  0  0  0  0  0  0  0
    0.9753   11.4344    1.6833 H   0  0  0  0  0  0  0  0  0  0  0  0
   -0.7380   10.7462   -0.0271 H   0  0  0  0  0  0  0  0  0  0  0  0
    0.6164   10.2287   -1.1270 H   0  0  0  0  0  0  0  0  0  0  0  0
  1  2  1  0  0  0  0
  1 30  1  0  0  0  0
  1 31  1  0  0  0  0
  1 32  1  0  0  0  0
  2 29  1  0  0  0  0
  2  3  2  0  0  0  0
  3  4  1  0  0  0  0
  4 28  2  0  0  0  0
  5  7  1  1  0  0  0
  5 11  1  0  0  0  0
  5  6  1  0  0  0  0
  5  4  1  0  0  0  0
  6 33  1  0  0  0  0
  6 34  1  0  0  0  0
  6 35  1  0  0  0  0
  7  8  1  0  0  0  0
  7 36  1  0  0  0  0
  7 37  1  0  0  0  0
  8 10  1  0  0  0  0
  8  9  1  0  0  0  0
  8 38  1  0  0  0  0
  9 10  1  0  0  0  0
  9 39  1  0  0  0  0
  9 40  1  0  0  0  0
 10 41  1  0  0  0  0
 10 42  1  0  0  0  0
 11 12  1  0  0  0  0
 11 43  1  0  0  0  0
 12 13  2  0  0  0  0
 12 14  1  0  0  0  0
 14 19  2  0  0  0  0
 14 15  1  0  0  0  0
 15 16  2  0  0  0  0
 15 44  1  0  0  0  0
 16 17  1  0  0  0  0
 16 45  1  0  0  0  0
 17 18  2  0  0  0  0
 17 25  1  0  0  0  0
 18 19  1  0  0  0  0
 18 20  1  0  0  0  0
 20 21  1  0  0  0  0
 21 22  1  0  0  0  0
 21 46  1  0  0  0  0
 21 47  1  0  0  0  0
 22 24  1  0  0  0  0
 22 23  1  0  0  0  0
 22 48  1  0  0  0  0
 23 24  1  0  0  0  0
 23 49  1  0  0  0  0
 23 50  1  0  0  0  0
 24 51  1  0  0  0  0
 24 52  1  0  0  0  0
 25 27  1  0  0  0  0
 25 26  1  0  0  0  0
 25 53  1  0  0  0  0
 26 27  1  0  0  0  0
 26 54  1  0  0  0  0
 26 55  1  0  0  0  0
 27 56  1  0  0  0  0
 27 57  1  0  0  0  0
 28 29  1  0  0  0  0
M  END
$$$$
CHEMBL3781131_8GUQ
 OpenBabel12022418133D

 67 73  0  0  1  0  0  0  0  0999 V2000
   -1.8231   -1.3741    0.0656 N   0  0  0  0  0  0  0  0  0  0  0  0
   -3.0024   -0.7028    0.3053 N   0  0  0  0  0  0  0  0  0  0  0  0
   -2.6676    0.6080    0.3714 C   0  0  0  0  0  0  0  0  0  0  0  0
   -3.6215    1.6500    0.8345 C   0  0  0  0  0  0  0  0  0  0  0  0
   -3.3031    2.8336    0.8914 O   0  0  0  0  0  0  0  0  0  0  0  0
   -4.8451    1.1692    1.2770 N   0  0  0  0  0  0  0  0  0  0  0  0
   -5.7056    1.9122    2.2079 C   0  0  1  0  0  0  0  0  0  0  0  0
   -7.2302    1.5166    2.2178 C   0  0  0  0  0  0  0  0  0  0  0  0
   -7.4391    1.0242    3.6880 C   0  0  2  0  0  0  0  0  0  0  0  0
   -6.5848    2.0093    4.4853 C   0  0  0  0  0  0  0  0  0  0  0  0
   -5.3005    1.6744    3.7096 C   0  0  1  0  0  0  0  0  0  0  0  0
   -5.2075    0.1550    3.9951 C   0  0  0  0  0  0  0  0  0  0  0  0
   -6.6824   -0.2851    3.9790 C   0  0  0  0  0  0  0  0  0  0  0  0
   -4.1238    2.5080    4.1799 C   0  0  0  0  0  0  0  0  0  0  0  0
   -8.1179    2.7675    1.9834 C   0  0  0  0  0  0  0  0  0  0  0  0
   -7.6491    0.4804    1.1682 C   0  0  0  0  0  0  0  0  0  0  0  0
   -1.3035    0.7777    0.0660 C   0  0  0  0  0  0  0  0  0  0  0  0
   -0.8049   -0.4840   -0.1266 C   0  0  0  0  0  0  0  0  0  0  0  0
    0.6206   -0.4353   -0.2664 C   0  0  0  0  0  0  0  0  0  0  0  0
    0.9646    0.9283   -0.0989 C   0  0  0  0  0  0  0  0  0  0  0  0
   -0.2657    1.8499    0.0399 C   0  0  0  0  0  0  0  0  0  0  0  0
    2.3040    1.3046   -0.0411 C   0  0  0  0  0  0  0  0  0  0  0  0
    3.3157    0.3241   -0.1332 C   0  0  0  0  0  0  0  0  0  0  0  0
    2.9264   -1.0201   -0.3395 C   0  0  0  0  0  0  0  0  0  0  0  0
    1.5855   -1.4031   -0.4446 C   0  0  0  0  0  0  0  0  0  0  0  0
    4.7763    0.6844    0.0339 C   0  0  0  0  0  0  0  0  0  0  0  0
    5.8195    0.1231   -0.9073 C   0  0  0  0  0  0  0  0  0  0  0  0
    5.4507    1.5732   -0.9825 C   0  0  0  0  0  0  0  0  0  0  0  0
   -1.7391   -2.7780    0.2517 C   0  0  0  0  0  0  0  0  0  0  0  0
   -0.6469   -3.2971    0.9713 C   0  0  0  0  0  0  0  0  0  0  0  0
   -0.5248   -4.6684    1.1970 C   0  0  0  0  0  0  0  0  0  0  0  0
   -1.5126   -5.5281    0.7339 C   0  0  0  0  0  0  0  0  0  0  0  0
   -2.6092   -5.0297    0.0319 C   0  0  0  0  0  0  0  0  0  0  0  0
   -2.7284   -3.6546   -0.2151 C   0  0  0  0  0  0  0  0  0  0  0  0
   -4.0563   -3.1676   -1.2099 Cl  0  0  0  0  0  0  0  0  0  0  0  0
   -1.3789   -7.2156    1.0365 Cl  0  0  0  0  0  0  0  0  0  0  0  0
   -4.9169    0.1575    1.2254 H   0  0  0  0  0  0  0  0  0  0  0  0
   -5.6035    2.9800    1.9746 H   0  0  0  0  0  0  0  0  0  0  0  0
   -8.4881    0.9850    3.9951 H   0  0  0  0  0  0  0  0  0  0  0  0
   -6.5239    1.7555    5.5513 H   0  0  0  0  0  0  0  0  0  0  0  0
   -6.8881    3.0556    4.4060 H   0  0  0  0  0  0  0  0  0  0  0  0
   -4.7741   -0.0426    4.9826 H   0  0  0  0  0  0  0  0  0  0  0  0
   -4.6116   -0.4016    3.2677 H   0  0  0  0  0  0  0  0  0  0  0  0
   -6.8830   -1.0818    3.2598 H   0  0  0  0  0  0  0  0  0  0  0  0
   -6.9607   -0.6663    4.9700 H   0  0  0  0  0  0  0  0  0  0  0  0
   -4.4131    3.5632    4.2595 H   0  0  0  0  0  0  0  0  0  0  0  0
   -3.2762    2.4492    3.4947 H   0  0  0  0  0  0  0  0  0  0  0  0
   -3.7776    2.1905    5.1683 H   0  0  0  0  0  0  0  0  0  0  0  0
   -7.8872    3.5908    2.6658 H   0  0  0  0  0  0  0  0  0  0  0  0
   -9.1776    2.5224    2.1258 H   0  0  0  0  0  0  0  0  0  0  0  0
   -7.9945    3.1560    0.9674 H   0  0  0  0  0  0  0  0  0  0  0  0
   -7.0233   -0.4148    1.1759 H   0  0  0  0  0  0  0  0  0  0  0  0
   -7.5971    0.9063    0.1597 H   0  0  0  0  0  0  0  0  0  0  0  0
   -8.6834    0.1578    1.3366 H   0  0  0  0  0  0  0  0  0  0  0  0
   -0.2282    2.4148    0.9734 H   0  0  0  0  0  0  0  0  0  0  0  0
   -0.3622    2.4969   -0.8369 H   0  0  0  0  0  0  0  0  0  0  0  0
    2.5750    2.3461    0.1072 H   0  0  0  0  0  0  0  0  0  0  0  0
    3.6955   -1.7893   -0.4017 H   0  0  0  0  0  0  0  0  0  0  0  0
    1.3438   -2.4429   -0.6258 H   0  0  0  0  0  0  0  0  0  0  0  0
    5.1008    0.8070    1.0668 H   0  0  0  0  0  0  0  0  0  0  0  0
    5.5083   -0.5165   -1.7254 H   0  0  0  0  0  0  0  0  0  0  0  0
    6.7877   -0.1364   -0.4932 H   0  0  0  0  0  0  0  0  0  0  0  0
    6.1711    2.2985   -0.6224 H   0  0  0  0  0  0  0  0  0  0  0  0
    4.8812    1.9033   -1.8438 H   0  0  0  0  0  0  0  0  0  0  0  0
    0.1033   -2.6436    1.4114 H   0  0  0  0  0  0  0  0  0  0  0  0
    0.3320   -5.0509    1.7471 H   0  0  0  0  0  0  0  0  0  0  0  0
   -3.3660   -5.7180   -0.3370 H   0  0  0  0  0  0  0  0  0  0  0  0
  1 18  1  0  0  0  0
  1  2  1  0  0  0  0
  1 29  1  0  0  0  0
  2  3  2  0  0  0  0
  3  4  1  0  0  0  0
  3 17  1  0  0  0  0
  4  5  2  0  0  0  0
  4  6  1  0  0  0  0
  6 37  1  0  0  0  0
  7  6  1  0  0  0  0
  7  8  1  0  0  0  0
  7 11  1  0  0  0  0
  7 38  1  6  0  0  0
  8  9  1  0  0  0  0
  8 15  1  0  0  0  0
  8 16  1  0  0  0  0
  9 10  1  0  0  0  0
  9 13  1  0  0  0  0
  9 39  1  1  0  0  0
 10 11  1  0  0  0  0
 10 40  1  0  0  0  0
 10 41  1  0  0  0  0
 11 12  1  0  0  0  0
 11 14  1  1  0  0  0
 12 13  1  0  0  0  0
 12 42  1  0  0  0  0
 12 43  1  0  0  0  0
 13 44  1  0  0  0  0
 13 45  1  0  0  0  0
 14 46  1  0  0  0  0
 14 47  1  0  0  0  0
 14 48  1  0  0  0  0
 15 49  1  0  0  0  0
 15 50  1  0  0  0  0
 15 51  1  0  0  0  0
 16 52  1  0  0  0  0
 16 53  1  0  0  0  0
 16 54  1  0  0  0  0
 17 21  1  0  0  0  0
 17 18  2  0  0  0  0
 18 19  1  0  0  0  0
 19 25  2  0  0  0  0
 19 20  1  0  0  0  0
 20 21  1  0  0  0  0
 20 22  2  0  0  0  0
 21 55  1  0  0  0  0
 21 56  1  0  0  0  0
 22 23  1  0  0  0  0
 22 57  1  0  0  0  0
 23 24  2  0  0  0  0
 23 26  1  0  0  0  0
 24 25  1  0  0  0  0
 24 58  1  0  0  0  0
 25 59  1  0  0  0  0
 26 28  1  0  0  0  0
 26 27  1  0  0  0  0
 26 60  1  0  0  0  0
 27 28  1  0  0  0  0
 27 61  1  0  0  0  0
 27 62  1  0  0  0  0
 28 63  1  0  0  0  0
 28 64  1  0  0  0  0
 29 34  2  0  0  0  0
 29 30  1  0  0  0  0
 30 31  2  0  0  0  0
 30 65  1  0  0  0  0
 31 32  1  0  0  0  0
 31 66  1  0  0  0  0
 32 33  2  0  0  0  0
 32 36  1  0  0  0  0
 33 34  1  0  0  0  0
 33 67  1  0  0  0  0
 34 35  1  0  0  0  0
M  END
$$$$
CHEMBL376028_6PT0
 OpenBabel12022418133D

 59 63  0  0  0  0  0  0  0  0999 V2000
    0.9815    4.1967   -2.3927 C   0  0  0  0  0  0  0  0  0  0  0  0
    2.4981    4.1958   -2.4723 C   0  0  0  0  0  0  0  0  0  0  0  0
    3.0637    2.7750   -2.5279 C   0  0  0  0  0  0  0  0  0  0  0  0
    4.5871    2.8095   -2.6356 C   0  0  0  0  0  0  0  0  0  0  0  0
    5.1832    1.3973   -2.6577 C   0  0  0  0  0  0  0  0  0  0  0  0
    6.6406    1.3012   -2.6613 N   0  0  0  0  0  0  0  0  0  0  0  0
    7.4863    2.3915   -2.6953 C   0  0  0  0  0  0  0  0  0  0  0  0
    8.7884    1.9632   -2.5542 C   0  0  0  0  0  0  0  0  0  0  0  0
   10.0105    2.7630   -2.4768 C   0  0  0  0  0  0  0  0  0  0  0  0
   11.0832    2.2938   -2.8453 O   0  0  0  0  0  0  0  0  0  0  0  0
    9.9596    4.1214   -1.8489 C   0  0  0  0  0  0  0  0  0  0  0  0
    9.0897    4.3029   -0.7562 C   0  0  0  0  0  0  0  0  0  0  0  0
    9.0192    5.5254   -0.0997 C   0  0  0  0  0  0  0  0  0  0  0  0
    9.8389    6.5706   -0.5048 C   0  0  0  0  0  0  0  0  0  0  0  0
   10.7438    6.4113   -1.5627 C   0  0  0  0  0  0  0  0  0  0  0  0
   11.5889    7.4770   -1.9145 C   0  0  0  0  0  0  0  0  0  0  0  0
   12.5138    7.3587   -2.9501 C   0  0  0  0  0  0  0  0  0  0  0  0
   12.5924    6.1713   -3.6620 C   0  0  0  0  0  0  0  0  0  0  0  0
   11.7541    5.1016   -3.3353 C   0  0  0  0  0  0  0  0  0  0  0  0
   10.8177    5.1792   -2.2669 C   0  0  0  0  0  0  0  0  0  0  0  0
    8.7203    0.5528   -2.5037 C   0  0  0  0  0  0  0  0  0  0  0  0
    7.4012    0.1306   -2.6208 C   0  0  0  0  0  0  0  0  0  0  0  0
    6.9111   -1.2768   -2.6520 C   0  0  0  0  0  0  0  0  0  0  0  0
    5.7984   -1.6307   -1.8694 C   0  0  0  0  0  0  0  0  0  0  0  0
    5.2976   -2.9280   -1.8465 C   0  0  0  0  0  0  0  0  0  0  0  0
    5.9499   -3.9290   -2.5502 C   0  0  0  0  0  0  0  0  0  0  0  0
    7.1049   -3.6490   -3.2861 C   0  0  0  0  0  0  0  0  0  0  0  0
    7.7751   -4.7097   -3.9191 C   0  0  0  0  0  0  0  0  0  0  0  0
    8.9422   -4.4950   -4.6452 C   0  0  0  0  0  0  0  0  0  0  0  0
    9.4316   -3.2067   -4.7793 C   0  0  0  0  0  0  0  0  0  0  0  0
    8.7557   -2.1386   -4.1793 C   0  0  0  0  0  0  0  0  0  0  0  0
    7.5959   -2.3166   -3.3765 C   0  0  0  0  0  0  0  0  0  0  0  0
    0.6069    5.2247   -2.3681 H   0  0  0  0  0  0  0  0  0  0  0  0
    0.6357    3.6866   -1.4882 H   0  0  0  0  0  0  0  0  0  0  0  0
    0.5433    3.6954   -3.2613 H   0  0  0  0  0  0  0  0  0  0  0  0
    2.9041    4.7218   -1.6001 H   0  0  0  0  0  0  0  0  0  0  0  0
    2.8125    4.7540   -3.3617 H   0  0  0  0  0  0  0  0  0  0  0  0
    2.6427    2.2401   -3.3879 H   0  0  0  0  0  0  0  0  0  0  0  0
    2.7638    2.2271   -1.6270 H   0  0  0  0  0  0  0  0  0  0  0  0
    4.9851    3.3610   -1.7735 H   0  0  0  0  0  0  0  0  0  0  0  0
    4.8800    3.3560   -3.5392 H   0  0  0  0  0  0  0  0  0  0  0  0
    4.8198    0.8347   -3.5238 H   0  0  0  0  0  0  0  0  0  0  0  0
    4.8456    0.9153   -1.7390 H   0  0  0  0  0  0  0  0  0  0  0  0
    7.0995    3.3984   -2.7883 H   0  0  0  0  0  0  0  0  0  0  0  0
    8.4724    3.4877   -0.3891 H   0  0  0  0  0  0  0  0  0  0  0  0
    8.3349    5.6564    0.7344 H   0  0  0  0  0  0  0  0  0  0  0  0
    9.7805    7.5153    0.0308 H   0  0  0  0  0  0  0  0  0  0  0  0
   11.5416    8.4184   -1.3688 H   0  0  0  0  0  0  0  0  0  0  0  0
   13.1702    8.1893   -3.1934 H   0  0  0  0  0  0  0  0  0  0  0  0
   13.3147    6.0651   -4.4683 H   0  0  0  0  0  0  0  0  0  0  0  0
   11.8545    4.1951   -3.9228 H   0  0  0  0  0  0  0  0  0  0  0  0
    9.5811   -0.0966   -2.3963 H   0  0  0  0  0  0  0  0  0  0  0  0
    5.3164   -0.9130   -1.2185 H   0  0  0  0  0  0  0  0  0  0  0  0
    4.4175   -3.1616   -1.2534 H   0  0  0  0  0  0  0  0  0  0  0  0
    5.5588   -4.9424   -2.4962 H   0  0  0  0  0  0  0  0  0  0  0  0
    7.3983   -5.7270   -3.8341 H   0  0  0  0  0  0  0  0  0  0  0  0
    9.4608   -5.3301   -5.1072 H   0  0  0  0  0  0  0  0  0  0  0  0
   10.3406   -3.0221   -5.3461 H   0  0  0  0  0  0  0  0  0  0  0  0
    9.1697   -1.1485   -4.3477 H   0  0  0  0  0  0  0  0  0  0  0  0
  1  2  1  0  0  0  0
  1 33  1  0  0  0  0
  1 34  1  0  0  0  0
  1 35  1  0  0  0  0
  2  3  1  0  0  0  0
  2 36  1  0  0  0  0
  2 37  1  0  0  0  0
  3  4  1  0  0  0  0
  3 38  1  0  0  0  0
  3 39  1  0  0  0  0
  4  5  1  0  0  0  0
  4 40  1  0  0  0  0
  4 41  1  0  0  0  0
  5  6  1  0  0  0  0
  5 42  1  0  0  0  0
  5 43  1  0  0  0  0
  6 22  1  0  0  0  0
  6  7  1  0  0  0  0
  7  8  2  0  0  0  0
  7 44  1  0  0  0  0
  8  9  1  0  0  0  0
  8 21  1  0  0  0  0
  9 10  2  0  0  0  0
  9 11  1  0  0  0  0
 11 20  2  0  0  0  0
 11 12  1  0  0  0  0
 12 13  2  0  0  0  0
 12 45  1  0  0  0  0
 13 14  1  0  0  0  0
 13 46  1  0  0  0  0
 14 15  2  0  0  0  0
 14 47  1  0  0  0  0
 15 20  1  0  0  0  0
 15 16  1  0  0  0  0
 16 17  2  0  0  0  0
 16 48  1  0  0  0  0
 17 18  1  0  0  0  0
 17 49  1  0  0  0  0
 18 19  2  0  0  0  0
 18 50  1  0  0  0  0
 19 20  1  0  0  0  0
 19 51  1  0  0  0  0
 21 22  2  0  0  0  0
 21 52  1  0  0  0  0
 22 23  1  0  0  0  0
 23 32  2  0  0  0  0
 23 24  1  0  0  0  0
 24 25  2  0  0  0  0
 24 53  1  0  0  0  0
 25 26  1  0  0  0  0
 25 54  1  0  0  0  0
 26 27  2  0  0  0  0
 26 55  1  0  0  0  0
 27 32  1  0  0  0  0
 27 28  1  0  0  0  0
 28 29  2  0  0  0  0
 28 56  1  0  0  0  0
 29 30  1  0  0  0  0
 29 57  1  0  0  0  0
 30 31  2  0  0  0  0
 30 58  1  0  0  0  0
 31 32  1  0  0  0  0
 31 59  1  0  0  0  0
M  END
$$$$
CHEMBL250768_5ZTY
 OpenBabel12022418133D

 54 57  0  0  0  0  0  0  0  0999 V2000
    1.3006    0.5934   -0.0967 O   0  0  0  0  0  0  0  0  0  0  0  0
    2.2197   -0.1719    0.1646 C   0  0  0  0  0  0  0  0  0  0  0  0
    2.8743   -0.9749   -0.9264 C   0  0  0  0  0  0  0  0  0  0  0  0
    2.4615   -0.7883   -2.1955 C   0  0  0  0  0  0  0  0  0  0  0  0
    3.0866   -1.2395   -3.3616 N   0  0  0  0  0  0  0  0  0  0  0  0
    2.6681   -0.8128   -4.7221 C   0  0  0  0  0  0  0  0  0  0  0  0
    3.3543    0.4445   -5.2341 C   0  0  0  0  0  0  0  0  0  0  0  0
    3.6313    1.5091   -4.3673 C   0  0  0  0  0  0  0  0  0  0  0  0
    4.0230    2.7495   -4.8609 C   0  0  0  0  0  0  0  0  0  0  0  0
    4.1971    2.9310   -6.2284 C   0  0  0  0  0  0  0  0  0  0  0  0
    4.0142    1.8593   -7.1032 C   0  0  0  0  0  0  0  0  0  0  0  0
    3.5856    0.6241   -6.6105 C   0  0  0  0  0  0  0  0  0  0  0  0
    4.3415   -1.8895   -3.2342 C   0  0  0  0  0  0  0  0  0  0  0  0
    5.1723   -2.2157   -4.3243 C   0  0  0  0  0  0  0  0  0  0  0  0
    6.4258   -2.8042   -4.1278 C   0  0  0  0  0  0  0  0  0  0  0  0
    6.8761   -3.1101   -2.8485 C   0  0  0  0  0  0  0  0  0  0  0  0
    6.0619   -2.8373   -1.7567 C   0  0  0  0  0  0  0  0  0  0  0  0
    4.8144   -2.2287   -1.9472 C   0  0  0  0  0  0  0  0  0  0  0  0
    3.9991   -1.9088   -0.7539 C   0  0  0  0  0  0  0  0  0  0  0  0
    4.2681   -2.4006    0.3434 O   0  0  0  0  0  0  0  0  0  0  0  0
    2.7368   -0.3030    1.4282 N   0  0  0  0  0  0  0  0  0  0  0  0
    2.3381    0.4876    2.6104 C   0  0  0  0  0  0  0  0  0  0  0  0
    2.3931   -0.3874    3.8729 C   0  0  0  0  0  0  0  0  0  0  0  0
    3.6706   -0.2889    4.7112 C   0  0  0  0  0  0  0  0  0  0  0  0
    3.6535    0.8855    5.6951 C   0  0  0  0  0  0  0  0  0  0  0  0
    3.8243    2.2767    5.0896 C   0  0  0  0  0  0  0  0  0  0  0  0
    2.8887    2.6087    3.9309 C   0  0  0  0  0  0  0  0  0  0  0  0
    3.1868    1.7711    2.6875 C   0  0  0  0  0  0  0  0  0  0  0  0
    1.5892   -0.1613   -2.3740 H   0  0  0  0  0  0  0  0  0  0  0  0
    1.5854   -0.6308   -4.7368 H   0  0  0  0  0  0  0  0  0  0  0  0
    2.8296   -1.6233   -5.4437 H   0  0  0  0  0  0  0  0  0  0  0  0
    3.4941    1.3940   -3.2965 H   0  0  0  0  0  0  0  0  0  0  0  0
    4.1414    3.5847   -4.1751 H   0  0  0  0  0  0  0  0  0  0  0  0
    4.4505    3.9143   -6.6144 H   0  0  0  0  0  0  0  0  0  0  0  0
    4.1685    2.0037   -8.1699 H   0  0  0  0  0  0  0  0  0  0  0  0
    3.3982   -0.1810   -7.3196 H   0  0  0  0  0  0  0  0  0  0  0  0
    4.8828   -2.0114   -5.3454 H   0  0  0  0  0  0  0  0  0  0  0  0
    7.0563   -3.0189   -4.9876 H   0  0  0  0  0  0  0  0  0  0  0  0
    7.8533   -3.5577   -2.7003 H   0  0  0  0  0  0  0  0  0  0  0  0
    6.4039   -3.0792   -0.7534 H   0  0  0  0  0  0  0  0  0  0  0  0
    3.5398   -0.9376    1.5359 H   0  0  0  0  0  0  0  0  0  0  0  0
    1.2906    0.7869    2.4739 H   0  0  0  0  0  0  0  0  0  0  0  0
    2.2388   -1.4366    3.5876 H   0  0  0  0  0  0  0  0  0  0  0  0
    1.5399   -0.1332    4.5140 H   0  0  0  0  0  0  0  0  0  0  0  0
    4.5660   -0.2673    4.0807 H   0  0  0  0  0  0  0  0  0  0  0  0
    3.7429   -1.2063    5.3108 H   0  0  0  0  0  0  0  0  0  0  0  0
    4.4651    0.7386    6.4192 H   0  0  0  0  0  0  0  0  0  0  0  0
    2.7234    0.8594    6.2766 H   0  0  0  0  0  0  0  0  0  0  0  0
    4.8633    2.4024    4.7609 H   0  0  0  0  0  0  0  0  0  0  0  0
    3.6674    3.0171    5.8850 H   0  0  0  0  0  0  0  0  0  0  0  0
    3.0367    3.6663    3.6771 H   0  0  0  0  0  0  0  0  0  0  0  0
    1.8404    2.5097    4.2369 H   0  0  0  0  0  0  0  0  0  0  0  0
    2.9927    2.3844    1.7985 H   0  0  0  0  0  0  0  0  0  0  0  0
    4.2579    1.5311    2.6371 H   0  0  0  0  0  0  0  0  0  0  0  0
  1  2  2  0  0  0  0
  2  3  1  0  0  0  0
  2 21  1  0  0  0  0
  3 19  1  0  0  0  0
  3  4  2  0  0  0  0
  4  5  1  0  0  0  0
  4 29  1  0  0  0  0
  5  6  1  0  0  0  0
  5 13  1  0  0  0  0
  6  7  1  0  0  0  0
  6 30  1  0  0  0  0
  6 31  1  0  0  0  0
  7 12  2  0  0  0  0
  7  8  1  0  0  0  0
  8  9  2  0  0  0  0
  8 32  1  0  0  0  0
  9 10  1  0  0  0  0
  9 33  1  0  0  0  0
 10 11  2  0  0  0  0
 10 34  1  0  0  0  0
 11 12  1  0  0  0  0
 11 35  1  0  0  0  0
 12 36  1  0  0  0  0
 13 18  2  0  0  0  0
 13 14  1  0  0  0  0
 14 15  2  0  0  0  0
 14 37  1  0  0  0  0
 15 16  1  0  0  0  0
 15 38  1  0  0  0  0
 16 17  2  0  0  0  0
 16 39  1  0  0  0  0
 17 18  1  0  0  0  0
 17 40  1  0  0  0  0
 18 19  1  0  0  0  0
 19 20  2  0  0  0  0
 21 22  1  0  0  0  0
 21 41  1  0  0  0  0
 22 28  1  0  0  0  0
 22 23  1  0  0  0  0
 22 42  1  0  0  0  0
 23 24  1  0  0  0  0
 23 43  1  0  0  0  0
 23 44  1  0  0  0  0
 24 25  1  0  0  0  0
 24 45  1  0  0  0  0
 24 46  1  0  0  0  0
 25 26  1  0  0  0  0
 25 47  1  0  0  0  0
 25 48  1  0  0  0  0
 26 27  1  0  0  0  0
 26 49  1  0  0  0  0
 26 50  1  0  0  0  0
 27 28  1  0  0  0  0
 27 51  1  0  0  0  0
 27 52  1  0  0  0  0
 28 53  1  0  0  0  0
 28 54  1  0  0  0  0
M  END
$$$$
CHEMBL1223835_5ZTY
 OpenBabel12022418133D

 66 69  0  0  1  0  0  0  0  0999 V2000
    0.9817   -3.7205   -0.4704 C   0  0  0  0  0  0  0  0  0  0  0  0
    2.5030   -3.7258   -0.4430 C   0  0  0  0  0  0  0  0  0  0  0  0
    3.0624   -2.8869    0.7070 C   0  0  0  0  0  0  0  0  0  0  0  0
    4.5982   -2.9073    0.7169 C   0  0  0  0  0  0  0  0  0  0  0  0
    5.1506   -2.1063    1.8990 C   0  0  0  0  0  0  0  0  0  0  0  0
    6.6028   -2.1460    2.0205 N   0  0  0  0  0  0  0  0  0  0  0  0
    7.3733   -0.9740    1.5771 C   0  0  2  0  0  0  0  0  0  0  0  0
    8.8074   -1.4885    1.7400 C   0  0  0  0  0  0  0  0  0  0  0  0
    8.5433   -2.9467    1.9324 C   0  0  0  0  0  0  0  0  0  0  0  0
    7.2999   -3.3045    2.0767 N   0  0  0  0  0  0  0  0  0  0  0  0
    9.7022   -3.9264    1.9967 C   0  0  0  0  0  0  0  0  0  0  0  0
   10.8419   -3.5213    1.8382 O   0  0  0  0  0  0  0  0  0  0  0  0
    9.3327   -5.2271    2.2559 N   0  0  0  0  0  0  0  0  0  0  0  0
   10.2795   -6.3266    2.3408 C   0  0  1  0  0  0  0  0  0  0  0  0
    9.7620   -7.4645    3.2521 C   0  0  0  0  0  0  0  0  0  0  0  0
    9.8181   -8.7079    2.3332 C   0  0  1  0  0  0  0  0  0  0  0  0
    8.6661   -8.5596    1.3147 C   0  0  0  0  0  0  0  0  0  0  0  0
    9.1789   -7.4591    0.3692 C   0  0  0  0  0  0  0  0  0  0  0  0
   10.5526   -7.0823    0.9915 C   0  0  1  0  0  0  0  0  0  0  0  0
   11.4642   -6.3378    0.0326 C   0  0  0  0  0  0  0  0  0  0  0  0
   11.0860   -8.4731    1.4765 C   0  0  0  0  0  0  0  0  0  0  0  0
   12.3990   -8.4424    2.2840 C   0  0  0  0  0  0  0  0  0  0  0  0
   11.2969   -9.5316    0.3705 C   0  0  0  0  0  0  0  0  0  0  0  0
    7.1414    0.2857    2.3862 C   0  0  0  0  0  0  0  0  0  0  0  0
    6.7834    0.2456    3.7447 C   0  0  0  0  0  0  0  0  0  0  0  0
    6.5674    1.4237    4.4641 C   0  0  0  0  0  0  0  0  0  0  0  0
    6.7246    2.6614    3.8438 C   0  0  0  0  0  0  0  0  0  0  0  0
    7.1005    2.7197    2.5034 C   0  0  0  0  0  0  0  0  0  0  0  0
    7.3077    1.5400    1.7909 C   0  0  0  0  0  0  0  0  0  0  0  0
    7.6727    1.6236    0.5027 F   0  0  0  0  0  0  0  0  0  0  0  0
    0.6189   -4.3344   -1.3014 H   0  0  0  0  0  0  0  0  0  0  0  0
    0.5931   -2.7064   -0.6050 H   0  0  0  0  0  0  0  0  0  0  0  0
    0.5682   -4.1288    0.4568 H   0  0  0  0  0  0  0  0  0  0  0  0
    2.8795   -3.3415   -1.3978 H   0  0  0  0  0  0  0  0  0  0  0  0
    2.8531   -4.7603   -0.3483 H   0  0  0  0  0  0  0  0  0  0  0  0
    2.6828   -3.2765    1.6601 H   0  0  0  0  0  0  0  0  0  0  0  0
    2.7057   -1.8532    0.6188 H   0  0  0  0  0  0  0  0  0  0  0  0
    4.9776   -2.4937   -0.2250 H   0  0  0  0  0  0  0  0  0  0  0  0
    4.9391   -3.9475    0.7801 H   0  0  0  0  0  0  0  0  0  0  0  0
    4.7280   -2.5044    2.8294 H   0  0  0  0  0  0  0  0  0  0  0  0
    4.7894   -1.0726    1.8285 H   0  0  0  0  0  0  0  0  0  0  0  0
    7.1678   -0.7916    0.5134 H   0  0  0  0  0  0  0  0  0  0  0  0
    9.3261   -1.1010    2.6234 H   0  0  0  0  0  0  0  0  0  0  0  0
    9.4118   -1.3231    0.8439 H   0  0  0  0  0  0  0  0  0  0  0  0
    8.3326   -5.4040    2.3090 H   0  0  0  0  0  0  0  0  0  0  0  0
   11.2144   -5.9219    2.7468 H   0  0  0  0  0  0  0  0  0  0  0  0
    8.7541   -7.2855    3.6418 H   0  0  0  0  0  0  0  0  0  0  0  0
   10.4232   -7.5921    4.1166 H   0  0  0  0  0  0  0  0  0  0  0  0
    9.7878   -9.6511    2.8843 H   0  0  0  0  0  0  0  0  0  0  0  0
    7.7209   -8.2793    1.7912 H   0  0  0  0  0  0  0  0  0  0  0  0
    8.4934   -9.4922    0.7671 H   0  0  0  0  0  0  0  0  0  0  0  0
    8.4818   -6.6179    0.3138 H   0  0  0  0  0  0  0  0  0  0  0  0
    9.2820   -7.8412   -0.6523 H   0  0  0  0  0  0  0  0  0  0  0  0
   10.9769   -5.4426   -0.3641 H   0  0  0  0  0  0  0  0  0  0  0  0
   11.7412   -6.9659   -0.8209 H   0  0  0  0  0  0  0  0  0  0  0  0
   12.3910   -6.0273    0.5266 H   0  0  0  0  0  0  0  0  0  0  0  0
   12.4024   -7.7441    3.1227 H   0  0  0  0  0  0  0  0  0  0  0  0
   13.2421   -8.1668    1.6401 H   0  0  0  0  0  0  0  0  0  0  0  0
   12.6123   -9.4343    2.7004 H   0  0  0  0  0  0  0  0  0  0  0  0
   10.4630   -9.6366   -0.3264 H   0  0  0  0  0  0  0  0  0  0  0  0
   11.4601  -10.5204    0.8152 H   0  0  0  0  0  0  0  0  0  0  0  0
   12.1796   -9.2915   -0.2333 H   0  0  0  0  0  0  0  0  0  0  0  0
    6.6578   -0.7101    4.2511 H   0  0  0  0  0  0  0  0  0  0  0  0
    6.2735    1.3710    5.5096 H   0  0  0  0  0  0  0  0  0  0  0  0
    6.5573    3.5768    4.4058 H   0  0  0  0  0  0  0  0  0  0  0  0
    7.2347    3.6773    2.0098 H   0  0  0  0  0  0  0  0  0  0  0  0
  1  2  1  0  0  0  0
  1 31  1  0  0  0  0
  1 32  1  0  0  0  0
  1 33  1  0  0  0  0
  2  3  1  0  0  0  0
  2 34  1  0  0  0  0
  2 35  1  0  0  0  0
  3  4  1  0  0  0  0
  3 36  1  0  0  0  0
  3 37  1  0  0  0  0
  4  5  1  0  0  0  0
  4 38  1  0  0  0  0
  4 39  1  0  0  0  0
  5  6  1  0  0  0  0
  5 40  1  0  0  0  0
  5 41  1  0  0  0  0
  6 10  1  0  0  0  0
  6  7  1  0  0  0  0
  7  8  1  0  0  0  0
  7 24  1  0  0  0  0
  7 42  1  6  0  0  0
  8  9  1  0  0  0  0
  8 43  1  0  0  0  0
  8 44  1  0  0  0  0
  9 10  2  0  0  0  0
  9 11  1  0  0  0  0
 11 12  2  0  0  0  0
 11 13  1  0  0  0  0
 13 45  1  0  0  0  0
 14 13  1  0  0  0  0
 14 15  1  0  0  0  0
 14 19  1  0  0  0  0
 14 46  1  1  0  0  0
 15 47  1  0  0  0  0
 15 48  1  0  0  0  0
 16 15  1  0  0  0  0
 16 17  1  0  0  0  0
 16 21  1  0  0  0  0
 16 49  1  1  0  0  0
 17 18  1  0  0  0  0
 17 50  1  0  0  0  0
 17 51  1  0  0  0  0
 18 19  1  0  0  0  0
 18 52  1  0  0  0  0
 18 53  1  0  0  0  0
 19 20  1  6  0  0  0
 19 21  1  0  0  0  0
 20 54  1  0  0  0  0
 20 55  1  0  0  0  0
 20 56  1  0  0  0  0
 21 22  1  0  0  0  0
 21 23  1  0  0  0  0
 22 57  1  0  0  0  0
 22 58  1  0  0  0  0
 22 59  1  0  0  0  0
 23 60  1  0  0  0  0
 23 61  1  0  0  0  0
 23 62  1  0  0  0  0
 24 29  2  0  0  0  0
 24 25  1  0  0  0  0
 25 26  2  0  0  0  0
 25 63  1  0  0  0  0
 26 27  1  0  0  0  0
 26 64  1  0  0  0  0
 27 28  2  0  0  0  0
 27 65  1  0  0  0  0
 28 29  1  0  0  0  0
 28 66  1  0  0  0  0
 29 30  1  0  0  0  0
M  END
$$$$
CHEMBL477994_8GUT
 OpenBabel12022418133D

 46 49  0  0  1  0  0  0  0  0999 V2000
    3.1410    0.6568   -1.3844 C   0  0  0  0  0  0  0  0  0  0  0  0
    2.5687   -0.0120   -0.1285 C   0  0  2  0  0  0  0  0  0  0  0  0
    1.0253    0.0146   -0.1112 C   0  0  0  0  0  0  0  0  0  0  0  0
    0.4301   -0.7295   -1.3117 C   0  0  0  0  0  0  0  0  0  0  0  0
   -1.0487   -0.7666   -1.2977 C   0  0  0  0  0  0  0  0  0  0  0  0
   -1.9095    0.2188   -1.3922 N   0  0  0  0  0  0  0  0  0  0  0  0
   -3.1196   -0.4450   -1.4533 C   0  0  0  0  0  0  0  0  0  0  0  0
   -4.3751    0.2829   -1.6085 C   0  0  0  0  0  0  0  0  0  0  0  0
   -4.3468    1.5072   -2.3039 C   0  0  0  0  0  0  0  0  0  0  0  0
   -5.5069    2.2616   -2.4858 C   0  0  0  0  0  0  0  0  0  0  0  0
   -6.7088    1.7934   -1.9709 C   0  0  0  0  0  0  0  0  0  0  0  0
   -6.7675    0.5929   -1.2819 C   0  0  0  0  0  0  0  0  0  0  0  0
   -5.6064   -0.1648   -1.0945 C   0  0  0  0  0  0  0  0  0  0  0  0
   -5.7875   -1.6164   -0.1644 Cl  0  0  0  0  0  0  0  0  0  0  0  0
   -7.8221    2.5173   -2.1363 F   0  0  0  0  0  0  0  0  0  0  0  0
   -3.0000   -1.7816   -1.4342 N   0  0  0  0  0  0  0  0  0  0  0  0
   -1.6318   -1.9965   -1.3136 O   0  0  0  0  0  0  0  0  0  0  0  0
    3.1020    0.6803    1.0551 N   0  0  0  0  0  0  0  0  0  0  0  0
    4.3388    0.3257    1.6045 C   0  0  0  0  0  0  0  0  0  0  0  0
    5.2259   -0.5938    1.0462 C   0  0  0  0  0  0  0  0  0  0  0  0
    6.4331   -0.9418    1.5517 N   0  0  0  0  0  0  0  0  0  0  0  0
    6.8477   -0.3129    2.6557 C   0  0  0  0  0  0  0  0  0  0  0  0
    8.0754   -0.6627    3.1952 C   0  0  0  0  0  0  0  0  0  0  0  0
    8.5914   -0.0203    4.3212 C   0  0  0  0  0  0  0  0  0  0  0  0
    7.8640    1.0004    4.9226 C   0  0  0  0  0  0  0  0  0  0  0  0
    6.6145    1.3567    4.4099 C   0  0  0  0  0  0  0  0  0  0  0  0
    6.0879    0.6974    3.2802 C   0  0  0  0  0  0  0  0  0  0  0  0
    4.8223    0.9998    2.7304 C   0  0  0  0  0  0  0  0  0  0  0  0
    4.2328    0.5870   -1.4135 H   0  0  0  0  0  0  0  0  0  0  0  0
    2.8799    1.7201   -1.4201 H   0  0  0  0  0  0  0  0  0  0  0  0
    2.7793    0.1848   -2.3019 H   0  0  0  0  0  0  0  0  0  0  0  0
    2.8561   -1.0700   -0.1115 H   0  0  0  0  0  0  0  0  0  0  0  0
    0.6713   -0.4560    0.8166 H   0  0  0  0  0  0  0  0  0  0  0  0
    0.6612    1.0498   -0.0848 H   0  0  0  0  0  0  0  0  0  0  0  0
    0.8295   -1.7503   -1.3488 H   0  0  0  0  0  0  0  0  0  0  0  0
    0.7184   -0.2393   -2.2468 H   0  0  0  0  0  0  0  0  0  0  0  0
   -3.4077    1.8835   -2.7114 H   0  0  0  0  0  0  0  0  0  0  0  0
   -5.4792    3.2069   -3.0174 H   0  0  0  0  0  0  0  0  0  0  0  0
   -7.7207    0.2622   -0.8843 H   0  0  0  0  0  0  0  0  0  0  0  0
    2.4154    0.9146    1.7696 H   0  0  0  0  0  0  0  0  0  0  0  0
    4.9930   -1.1254    0.1311 H   0  0  0  0  0  0  0  0  0  0  0  0
    8.6470   -1.4564    2.7199 H   0  0  0  0  0  0  0  0  0  0  0  0
    9.5596   -0.3148    4.7155 H   0  0  0  0  0  0  0  0  0  0  0  0
    8.2695    1.5159    5.7908 H   0  0  0  0  0  0  0  0  0  0  0  0
    6.0560    2.1549    4.8925 H   0  0  0  0  0  0  0  0  0  0  0  0
    4.2188    1.7834    3.1865 H   0  0  0  0  0  0  0  0  0  0  0  0
  1 29  1  0  0  0  0
  1 30  1  0  0  0  0
  1 31  1  0  0  0  0
  2 18  1  0  0  0  0
  2  3  1  0  0  0  0
  2  1  1  0  0  0  0
  2 32  1  1  0  0  0
  3  4  1  0  0  0  0
  3 33  1  0  0  0  0
  3 34  1  0  0  0  0
  4  5  1  0  0  0  0
  4 35  1  0  0  0  0
  4 36  1  0  0  0  0
  5 17  1  0  0  0  0
  5  6  2  0  0  0  0
  6  7  1  0  0  0  0
  7  8  1  0  0  0  0
  7 16  2  0  0  0  0
  8 13  2  0  0  0  0
  8  9  1  0  0  0  0
  9 10  2  0  0  0  0
  9 37  1  0  0  0  0
 10 11  1  0  0  0  0
 10 38  1  0  0  0  0
 11 12  2  0  0  0  0
 11 15  1  0  0  0  0
 12 13  1  0  0  0  0
 12 39  1  0  0  0  0
 13 14  1  0  0  0  0
 16 17  1  0  0  0  0
 18 19  1  0  0  0  0
 18 40  1  0  0  0  0
 19 28  2  0  0  0  0
 19 20  1  0  0  0  0
 20 21  2  0  0  0  0
 20 41  1  0  0  0  0
 21 22  1  0  0  0  0
 22 27  2  0  0  0  0
 22 23  1  0  0  0  0
 23 24  2  0  0  0  0
 23 42  1  0  0  0  0
 24 25  1  0  0  0  0
 24 43  1  0  0  0  0
 25 26  2  0  0  0  0
 25 44  1  0  0  0  0
 26 27  1  0  0  0  0
 26 45  1  0  0  0  0
 27 28  1  0  0  0  0
 28 46  1  0  0  0  0
M  END
$$$$
CHEMBL1765284_5ZTY
 OpenBabel12022418133D

 53 56  0  0  1  0  0  0  0  0999 V2000
    1.4794   -0.8388   -0.1166 O   0  0  0  0  0  0  0  0  0  0  0  0
    2.3477    0.0031    0.1250 C   0  0  0  0  0  0  0  0  0  0  0  0
    2.7869    0.9230   -0.9394 C   0  0  0  0  0  0  0  0  0  0  0  0
    2.8338    0.6079   -2.2875 C   0  0  0  0  0  0  0  0  0  0  0  0
    3.4404    1.6723   -2.8915 N   0  0  0  0  0  0  0  0  0  0  0  0
    3.7581    1.7962   -4.2946 C   0  0  0  0  0  0  0  0  0  0  0  0
    5.1425    1.2967   -4.6611 C   0  0  0  0  0  0  0  0  0  0  0  0
    5.7974    0.7110   -3.6375 F   0  0  0  0  0  0  0  0  0  0  0  0
    5.0696    0.3910   -5.6644 F   0  0  0  0  0  0  0  0  0  0  0  0
    5.9142    2.3184   -5.1017 F   0  0  0  0  0  0  0  0  0  0  0  0
    3.6727    2.6162   -1.9390 C   0  0  0  0  0  0  0  0  0  0  0  0
    3.2466    2.2174   -0.7629 N   0  0  0  0  0  0  0  0  0  0  0  0
    2.9954    0.0586    1.3686 N   0  0  0  0  0  0  0  0  0  0  0  0
    2.5961   -0.8821    2.4146 C   0  0  0  0  0  0  0  0  0  0  0  0
    3.7814   -1.7385    2.8661 C   0  0  0  0  0  0  0  0  0  0  0  0
    4.9621   -0.8530    3.3280 C   0  0  1  0  0  0  0  0  0  0  0  0
    4.4899   -0.1446    4.4825 O   0  0  0  0  0  0  0  0  0  0  0  0
    6.1989   -1.6796    3.7013 C   0  0  0  0  0  0  0  0  0  0  0  0
    6.8728   -1.4848    4.9237 C   0  0  0  0  0  0  0  0  0  0  0  0
    8.0668   -2.1513    5.2087 C   0  0  0  0  0  0  0  0  0  0  0  0
    8.6222   -3.0177    4.2734 C   0  0  0  0  0  0  0  0  0  0  0  0
    7.9791   -3.2275    3.0577 C   0  0  0  0  0  0  0  0  0  0  0  0
    6.7782   -2.5701    2.7768 C   0  0  0  0  0  0  0  0  0  0  0  0
    5.3283    0.1425    2.1914 C   0  0  2  0  0  0  0  0  0  0  0  0
    6.4655    1.1341    2.4758 C   0  0  0  0  0  0  0  0  0  0  0  0
    6.1451    2.1159    3.5840 C   0  0  0  0  0  0  0  0  0  0  0  0
    4.7607    2.7564    3.5063 C   0  0  0  0  0  0  0  0  0  0  0  0
    3.6892    2.1051    2.6242 C   0  0  0  0  0  0  0  0  0  0  0  0
    4.1220    0.9518    1.7083 C   0  0  2  0  0  0  0  0  0  0  0  0
    2.5476   -0.2921   -2.8166 H   0  0  0  0  0  0  0  0  0  0  0  0
    3.6547    2.8544   -4.5592 H   0  0  0  0  0  0  0  0  0  0  0  0
    2.9907    1.2495   -4.8525 H   0  0  0  0  0  0  0  0  0  0  0  0
    4.1564    3.5649   -2.1373 H   0  0  0  0  0  0  0  0  0  0  0  0
    1.7909   -1.5395    2.0725 H   0  0  0  0  0  0  0  0  0  0  0  0
    2.1866   -0.3090    3.2531 H   0  0  0  0  0  0  0  0  0  0  0  0
    4.0770   -2.3902    2.0370 H   0  0  0  0  0  0  0  0  0  0  0  0
    3.4515   -2.3874    3.6872 H   0  0  0  0  0  0  0  0  0  0  0  0
    4.3028   -0.8169    5.1638 H   0  0  0  0  0  0  0  0  0  0  0  0
    6.5006   -0.7730    5.6575 H   0  0  0  0  0  0  0  0  0  0  0  0
    8.5749   -1.9701    6.1525 H   0  0  0  0  0  0  0  0  0  0  0  0
    9.5646   -3.5157    4.4850 H   0  0  0  0  0  0  0  0  0  0  0  0
    8.4223   -3.8866    2.3156 H   0  0  0  0  0  0  0  0  0  0  0  0
    6.3236   -2.7306    1.8017 H   0  0  0  0  0  0  0  0  0  0  0  0
    5.6592   -0.4592    1.3303 H   0  0  0  0  0  0  0  0  0  0  0  0
    6.6723    1.7032    1.5575 H   0  0  0  0  0  0  0  0  0  0  0  0
    7.3992    0.6070    2.7018 H   0  0  0  0  0  0  0  0  0  0  0  0
    6.9046    2.9079    3.5902 H   0  0  0  0  0  0  0  0  0  0  0  0
    6.2581    1.6143    4.5521 H   0  0  0  0  0  0  0  0  0  0  0  0
    4.8781    3.8014    3.1939 H   0  0  0  0  0  0  0  0  0  0  0  0
    4.3639    2.8180    4.5293 H   0  0  0  0  0  0  0  0  0  0  0  0
    3.2458    2.8889    1.9936 H   0  0  0  0  0  0  0  0  0  0  0  0
    2.8616    1.7946    3.2719 H   0  0  0  0  0  0  0  0  0  0  0  0
    4.4978    1.4149    0.7983 H   0  0  0  0  0  0  0  0  0  0  0  0
  1  2  2  0  0  0  0
  2  3  1  0  0  0  0
  2 13  1  0  0  0  0
  3 12  1  0  0  0  0
  3  4  2  0  0  0  0
  4  5  1  0  0  0  0
  4 30  1  0  0  0  0
  5  6  1  0  0  0  0
  5 11  1  0  0  0  0
  6  7  1  0  0  0  0
  6 31  1  0  0  0  0
  6 32  1  0  0  0  0
  7  8  1  0  0  0  0
  7  9  1  0  0  0  0
  7 10  1  0  0  0  0
 11 12  2  0  0  0  0
 11 33  1  0  0  0  0
 13 29  1  0  0  0  0
 13 14  1  0  0  0  0
 14 15  1  0  0  0  0
 14 34  1  0  0  0  0
 14 35  1  0  0  0  0
 15 16  1  0  0  0  0
 15 36  1  0  0  0  0
 15 37  1  0  0  0  0
 16 17  1  1  0  0  0
 16 18  1  0  0  0  0
 16 24  1  0  0  0  0
 17 38  1  0  0  0  0
 18 23  2  0  0  0  0
 18 19  1  0  0  0  0
 19 20  2  0  0  0  0
 19 39  1  0  0  0  0
 20 21  1  0  0  0  0
 20 40  1  0  0  0  0
 21 22  2  0  0  0  0
 21 41  1  0  0  0  0
 22 23  1  0  0  0  0
 22 42  1  0  0  0  0
 23 43  1  0  0  0  0
 24 25  1  0  0  0  0
 24 29  1  0  0  0  0
 24 44  1  6  0  0  0
 25 26  1  0  0  0  0
 25 45  1  0  0  0  0
 25 46  1  0  0  0  0
 26 27  1  0  0  0  0
 26 47  1  0  0  0  0
 26 48  1  0  0  0  0
 27 28  1  0  0  0  0
 27 49  1  0  0  0  0
 27 50  1  0  0  0  0
 28 51  1  0  0  0  0
 28 52  1  0  0  0  0
 29 28  1  0  0  0  0
 29 53  1  6  0  0  0
M  END
$$$$
CHEMBL3639489_8GUR
 OpenBabel12022418133D

 66 67  0  0  0  0  0  0  0  0999 V2000
    2.9963   -2.2923    0.3918 C   0  0  0  0  0  0  0  0  0  0  0  0
    2.4340   -1.8108   -0.9404 C   0  0  0  0  0  0  0  0  0  0  0  0
    3.2721   -0.6584   -1.5071 C   0  0  0  0  0  0  0  0  0  0  0  0
    2.7256   -0.1619   -2.8424 C   0  0  0  0  0  0  0  0  0  0  0  0
    3.4899    0.9909   -3.3294 N   0  0  0  0  0  0  0  0  0  0  0  0
    4.5842    0.8501   -4.1969 C   0  0  0  0  0  0  0  0  0  0  0  0
    5.3533   -0.1634   -4.3660 N   0  0  0  0  0  0  0  0  0  0  0  0
    6.2575   -0.2821   -5.4133 C   0  0  0  0  0  0  0  0  0  0  0  0
    6.3132   -1.3174   -6.0679 O   0  0  0  0  0  0  0  0  0  0  0  0
    7.1597    0.8220   -5.8914 C   0  0  0  0  0  0  0  0  0  0  0  0
    7.2821    0.9804   -7.2986 C   0  0  0  0  0  0  0  0  0  0  0  0
    7.9758    2.0673   -7.8615 C   0  0  0  0  0  0  0  0  0  0  0  0
    8.1682    2.2103   -9.3527 C   0  0  0  0  0  0  0  0  0  0  0  0
    7.5903    1.2153  -10.0799 F   0  0  0  0  0  0  0  0  0  0  0  0
    7.6540    3.3750   -9.8370 F   0  0  0  0  0  0  0  0  0  0  0  0
    9.4851    2.2139   -9.7012 F   0  0  0  0  0  0  0  0  0  0  0  0
    8.5105    3.0353   -7.0065 C   0  0  0  0  0  0  0  0  0  0  0  0
    8.4171    2.8796   -5.6257 C   0  0  0  0  0  0  0  0  0  0  0  0
    7.7961    1.7548   -5.0611 C   0  0  0  0  0  0  0  0  0  0  0  0
    7.6962    1.6303   -3.6943 O   0  0  0  0  0  0  0  0  0  0  0  0
    8.8900    2.1020   -3.1187 N   0  0  0  0  0  0  0  0  0  0  0  0
    8.7987    2.2232   -1.8316 C   0  0  0  0  0  0  0  0  0  0  0  0
   10.0859    2.5983   -1.0527 C   0  0  0  0  0  0  0  0  0  0  0  0
   11.2718    2.9095   -1.9879 C   0  0  0  0  0  0  0  0  0  0  0  0
    9.8577    3.8223   -0.1508 C   0  0  0  0  0  0  0  0  0  0  0  0
   10.4497    1.3658   -0.2115 C   0  0  0  0  0  0  0  0  0  0  0  0
    7.6518    1.9855   -1.1190 N   0  0  0  0  0  0  0  0  0  0  0  0
    4.7291    2.3403   -5.0697 S   0  0  0  0  0  0  0  0  0  0  0  0
    3.3485    2.9872   -4.2298 C   0  0  0  0  0  0  0  0  0  0  0  0
    2.9266    4.3953   -4.6428 C   0  0  0  0  0  0  0  0  0  0  0  0
    2.8826    4.4840   -6.1868 C   0  0  0  0  0  0  0  0  0  0  0  0
    1.5266    4.7077   -4.1061 C   0  0  0  0  0  0  0  0  0  0  0  0
    3.9222    5.4339   -4.0987 C   0  0  0  0  0  0  0  0  0  0  0  0
    2.7866    2.1956   -3.3609 N   0  0  0  0  0  0  0  0  0  0  0  0
    2.4109   -3.1351    0.7730 H   0  0  0  0  0  0  0  0  0  0  0  0
    2.9665   -1.4935    1.1399 H   0  0  0  0  0  0  0  0  0  0  0  0
    4.0345   -2.6219    0.2827 H   0  0  0  0  0  0  0  0  0  0  0  0
    1.3978   -1.4888   -0.7927 H   0  0  0  0  0  0  0  0  0  0  0  0
    2.4172   -2.6476   -1.6455 H   0  0  0  0  0  0  0  0  0  0  0  0
    4.3100   -0.9881   -1.6353 H   0  0  0  0  0  0  0  0  0  0  0  0
    3.2868    0.1686   -0.7865 H   0  0  0  0  0  0  0  0  0  0  0  0
    1.6727    0.1240   -2.7156 H   0  0  0  0  0  0  0  0  0  0  0  0
    2.7337   -0.9658   -3.5876 H   0  0  0  0  0  0  0  0  0  0  0  0
    6.7990    0.2561   -7.9580 H   0  0  0  0  0  0  0  0  0  0  0  0
    9.0131    3.9134   -7.4126 H   0  0  0  0  0  0  0  0  0  0  0  0
    8.8274    3.6552   -4.9822 H   0  0  0  0  0  0  0  0  0  0  0  0
   11.0798    3.7999   -2.5985 H   0  0  0  0  0  0  0  0  0  0  0  0
   11.4773    2.0797   -2.6737 H   0  0  0  0  0  0  0  0  0  0  0  0
   12.1867    3.0935   -1.4123 H   0  0  0  0  0  0  0  0  0  0  0  0
    9.8441    4.7485   -0.7376 H   0  0  0  0  0  0  0  0  0  0  0  0
   10.6588    3.9156    0.5918 H   0  0  0  0  0  0  0  0  0  0  0  0
    8.9113    3.7805    0.3957 H   0  0  0  0  0  0  0  0  0  0  0  0
   10.5983    0.4908   -0.8567 H   0  0  0  0  0  0  0  0  0  0  0  0
    9.6547    1.1127    0.4985 H   0  0  0  0  0  0  0  0  0  0  0  0
   11.3708    1.5257    0.3596 H   0  0  0  0  0  0  0  0  0  0  0  0
    6.7860    1.9446   -1.6442 H   0  0  0  0  0  0  0  0  0  0  0  0
    7.5781    2.2463   -0.1462 H   0  0  0  0  0  0  0  0  0  0  0  0
    2.1658    3.7613   -6.5942 H   0  0  0  0  0  0  0  0  0  0  0  0
    3.8514    4.2695   -6.6528 H   0  0  0  0  0  0  0  0  0  0  0  0
    2.6025    5.4855   -6.5289 H   0  0  0  0  0  0  0  0  0  0  0  0
    0.8094    3.9355   -4.4038 H   0  0  0  0  0  0  0  0  0  0  0  0
    1.1658    5.6684   -4.4931 H   0  0  0  0  0  0  0  0  0  0  0  0
    1.5203    4.7622   -3.0122 H   0  0  0  0  0  0  0  0  0  0  0  0
    4.9571    5.2172   -4.3927 H   0  0  0  0  0  0  0  0  0  0  0  0
    3.9039    5.4755   -3.0043 H   0  0  0  0  0  0  0  0  0  0  0  0
    3.6881    6.4394   -4.4750 H   0  0  0  0  0  0  0  0  0  0  0  0
  1  2  1  0  0  0  0
  1 35  1  0  0  0  0
  1 36  1  0  0  0  0
  1 37  1  0  0  0  0
  2  3  1  0  0  0  0
  2 38  1  0  0  0  0
  2 39  1  0  0  0  0
  3  4  1  0  0  0  0
  3 40  1  0  0  0  0
  3 41  1  0  0  0  0
  4  5  1  0  0  0  0
  4 42  1  0  0  0  0
  4 43  1  0  0  0  0
  5 34  1  0  0  0  0
  5  6  1  0  0  0  0
  6  7  2  0  0  0  0
  6 28  1  0  0  0  0
  7  8  1  0  0  0  0
  8  9  2  0  0  0  0
  8 10  1  0  0  0  0
 10 19  2  0  0  0  0
 10 11  1  0  0  0  0
 11 12  2  0  0  0  0
 11 44  1  0  0  0  0
 12 13  1  0  0  0  0
 12 17  1  0  0  0  0
 13 14  1  0  0  0  0
 13 15  1  0  0  0  0
 13 16  1  0  0  0  0
 17 18  2  0  0  0  0
 17 45  1  0  0  0  0
 18 19  1  0  0  0  0
 18 46  1  0  0  0  0
 19 20  1  0  0  0  0
 20 21  1  0  0  0  0
 21 22  2  0  0  0  0
 22 23  1  0  0  0  0
 22 27  1  0  0  0  0
 23 24  1  0  0  0  0
 23 25  1  0  0  0  0
 23 26  1  0  0  0  0
 24 47  1  0  0  0  0
 24 48  1  0  0  0  0
 24 49  1  0  0  0  0
 25 50  1  0  0  0  0
 25 51  1  0  0  0  0
 25 52  1  0  0  0  0
 26 53  1  0  0  0  0
 26 54  1  0  0  0  0
 26 55  1  0  0  0  0
 27 56  1  0  0  0  0
 27 57  1  0  0  0  0
 28 29  1  0  0  0  0
 29 30  1  0  0  0  0
 29 34  2  0  0  0  0
 30 31  1  0  0  0  0
 30 32  1  0  0  0  0
 30 33  1  0  0  0  0
 31 58  1  0  0  0  0
 31 59  1  0  0  0  0
 31 60  1  0  0  0  0
 32 61  1  0  0  0  0
 32 62  1  0  0  0  0
 32 63  1  0  0  0  0
 33 64  1  0  0  0  0
 33 65  1  0  0  0  0
 33 66  1  0  0  0  0
M  END
$$$$
CHEMBL1223775_5ZTY
 OpenBabel12022418133D

 69 72  0  0  1  0  0  0  0  0999 V2000
    1.2683   -3.5225   -1.1736 C   0  0  1  0  0  0  0  0  0  0  0  0
    1.4347   -2.0987   -0.5890 C   0  0  0  0  0  0  0  0  0  0  0  0
    2.7413   -2.2068    0.2304 C   0  0  2  0  0  0  0  0  0  0  0  0
    3.6186   -3.1717   -0.6058 C   0  0  0  0  0  0  0  0  0  0  0  0
    2.5085   -4.2707   -0.5785 C   0  0  1  0  0  0  0  0  0  0  0  0
    2.2679   -4.4607    0.9467 C   0  0  0  0  0  0  0  0  0  0  0  0
    2.4044   -3.0304    1.4932 C   0  0  0  0  0  0  0  0  0  0  0  0
    2.8422   -5.5684   -1.2952 C   0  0  0  0  0  0  0  0  0  0  0  0
    3.9946   -2.6305   -1.9995 C   0  0  0  0  0  0  0  0  0  0  0  0
    4.9499   -3.5576    0.0733 C   0  0  0  0  0  0  0  0  0  0  0  0
   -0.0034   -4.1140   -0.8230 N   0  0  0  0  0  0  0  0  0  0  0  0
   -1.1985   -3.6729   -1.3432 C   0  0  0  0  0  0  0  0  0  0  0  0
   -1.2930   -2.6914   -2.0715 O   0  0  0  0  0  0  0  0  0  0  0  0
   -2.2618   -4.4966   -0.9727 N   0  0  0  0  0  0  0  0  0  0  0  0
   -3.5482   -4.5964   -1.6928 C   0  0  0  0  0  0  0  0  0  0  0  0
   -4.3586   -5.5436   -0.7633 C   0  0  1  0  0  0  0  0  0  0  0  0
   -3.1947   -6.2061   -0.0574 C   0  0  0  0  0  0  0  0  0  0  0  0
   -2.0488   -5.5946   -0.1512 N   0  0  0  0  0  0  0  0  0  0  0  0
   -3.3430   -7.5161    0.6662 C   0  0  0  0  0  0  0  0  0  0  0  0
   -3.1374   -8.7117   -0.2677 C   0  0  0  0  0  0  0  0  0  0  0  0
   -1.7171   -8.7991   -0.8361 C   0  0  0  0  0  0  0  0  0  0  0  0
   -1.5324  -10.0318   -1.7069 C   0  0  0  0  0  0  0  0  0  0  0  0
   -5.3300   -4.9094    0.2235 C   0  0  0  0  0  0  0  0  0  0  0  0
   -4.9052   -4.0350    1.2402 C   0  0  0  0  0  0  0  0  0  0  0  0
   -5.8303   -3.4561    2.1172 C   0  0  0  0  0  0  0  0  0  0  0  0
   -7.1853   -3.7410    1.9957 C   0  0  0  0  0  0  0  0  0  0  0  0
   -7.6214   -4.6108    0.9965 C   0  0  0  0  0  0  0  0  0  0  0  0
   -6.7021   -5.1888    0.1178 C   0  0  0  0  0  0  0  0  0  0  0  0
   -4.2320   -3.2575   -1.9938 C   0  0  0  0  0  0  0  0  0  0  0  0
   -3.2808   -5.3098   -3.0397 C   0  0  0  0  0  0  0  0  0  0  0  0
    1.3146   -3.4866   -2.2691 H   0  0  0  0  0  0  0  0  0  0  0  0
    0.5884   -1.7830    0.0317 H   0  0  0  0  0  0  0  0  0  0  0  0
    1.5368   -1.3634   -1.3945 H   0  0  0  0  0  0  0  0  0  0  0  0
    3.1877   -1.2357    0.4555 H   0  0  0  0  0  0  0  0  0  0  0  0
    3.0123   -5.1249    1.3997 H   0  0  0  0  0  0  0  0  0  0  0  0
    1.2904   -4.8893    1.1874 H   0  0  0  0  0  0  0  0  0  0  0  0
    1.4839   -2.6920    1.9805 H   0  0  0  0  0  0  0  0  0  0  0  0
    3.2083   -2.9741    2.2351 H   0  0  0  0  0  0  0  0  0  0  0  0
    2.9642   -5.4093   -2.3714 H   0  0  0  0  0  0  0  0  0  0  0  0
    2.0501   -6.3116   -1.1543 H   0  0  0  0  0  0  0  0  0  0  0  0
    3.7726   -6.0032   -0.9165 H   0  0  0  0  0  0  0  0  0  0  0  0
    3.1489   -2.2927   -2.6015 H   0  0  0  0  0  0  0  0  0  0  0  0
    4.5136   -3.3976   -2.5853 H   0  0  0  0  0  0  0  0  0  0  0  0
    4.6717   -1.7732   -1.9031 H   0  0  0  0  0  0  0  0  0  0  0  0
    4.8442   -4.0001    1.0658 H   0  0  0  0  0  0  0  0  0  0  0  0
    5.5881   -2.6740    0.1903 H   0  0  0  0  0  0  0  0  0  0  0  0
    5.4985   -4.2848   -0.5361 H   0  0  0  0  0  0  0  0  0  0  0  0
   -0.0679   -5.0910   -0.5569 H   0  0  0  0  0  0  0  0  0  0  0  0
   -4.8865   -6.3061   -1.3479 H   0  0  0  0  0  0  0  0  0  0  0  0
   -4.3474   -7.5638    1.1017 H   0  0  0  0  0  0  0  0  0  0  0  0
   -2.6245   -7.5503    1.4919 H   0  0  0  0  0  0  0  0  0  0  0  0
   -3.8581   -8.6683   -1.0933 H   0  0  0  0  0  0  0  0  0  0  0  0
   -3.3516   -9.6285    0.2954 H   0  0  0  0  0  0  0  0  0  0  0  0
   -0.9882   -8.8234   -0.0176 H   0  0  0  0  0  0  0  0  0  0  0  0
   -1.4949   -7.9157   -1.4433 H   0  0  0  0  0  0  0  0  0  0  0  0
   -1.6915  -10.9494   -1.1330 H   0  0  0  0  0  0  0  0  0  0  0  0
   -0.5142  -10.0581   -2.1122 H   0  0  0  0  0  0  0  0  0  0  0  0
   -2.2301  -10.0258   -2.5507 H   0  0  0  0  0  0  0  0  0  0  0  0
   -3.8559   -3.7823    1.3541 H   0  0  0  0  0  0  0  0  0  0  0  0
   -5.4854   -2.7714    2.8906 H   0  0  0  0  0  0  0  0  0  0  0  0
   -7.9028   -3.2844    2.6727 H   0  0  0  0  0  0  0  0  0  0  0  0
   -8.6805   -4.8330    0.8999 H   0  0  0  0  0  0  0  0  0  0  0  0
   -7.0729   -5.8591   -0.6544 H   0  0  0  0  0  0  0  0  0  0  0  0
   -4.3556   -2.6359   -1.1032 H   0  0  0  0  0  0  0  0  0  0  0  0
   -5.2187   -3.4211   -2.4435 H   0  0  0  0  0  0  0  0  0  0  0  0
   -3.6572   -2.6644   -2.7128 H   0  0  0  0  0  0  0  0  0  0  0  0
   -2.7808   -6.2753   -2.8918 H   0  0  0  0  0  0  0  0  0  0  0  0
   -2.6243   -4.7102   -3.6818 H   0  0  0  0  0  0  0  0  0  0  0  0
   -4.2115   -5.4946   -3.5834 H   0  0  0  0  0  0  0  0  0  0  0  0
  1  2  1  0  0  0  0
  1  5  1  0  0  0  0
  1 11  1  0  0  0  0
  1 31  1  6  0  0  0
  2 32  1  0  0  0  0
  2 33  1  0  0  0  0
  3  2  1  0  0  0  0
  3  4  1  0  0  0  0
  3  7  1  0  0  0  0
  3 34  1  1  0  0  0
  4  5  1  0  0  0  0
  4  9  1  0  0  0  0
  4 10  1  0  0  0  0
  5  6  1  0  0  0  0
  5  8  1  6  0  0  0
  6  7  1  0  0  0  0
  6 35  1  0  0  0  0
  6 36  1  0  0  0  0
  7 37  1  0  0  0  0
  7 38  1  0  0  0  0
  8 39  1  0  0  0  0
  8 40  1  0  0  0  0
  8 41  1  0  0  0  0
  9 42  1  0  0  0  0
  9 43  1  0  0  0  0
  9 44  1  0  0  0  0
 10 45  1  0  0  0  0
 10 46  1  0  0  0  0
 10 47  1  0  0  0  0
 11 12  1  0  0  0  0
 11 48  1  0  0  0  0
 12 13  2  0  0  0  0
 12 14  1  0  0  0  0
 14 18  1  0  0  0  0
 14 15  1  0  0  0  0
 15 16  1  0  0  0  0
 15 29  1  0  0  0  0
 15 30  1  0  0  0  0
 16 17  1  0  0  0  0
 16 23  1  0  0  0  0
 16 49  1  6  0  0  0
 17 18  2  0  0  0  0
 17 19  1  0  0  0  0
 19 20  1  0  0  0  0
 19 50  1  0  0  0  0
 19 51  1  0  0  0  0
 20 21  1  0  0  0  0
 20 52  1  0  0  0  0
 20 53  1  0  0  0  0
 21 22  1  0  0  0  0
 21 54  1  0  0  0  0
 21 55  1  0  0  0  0
 22 56  1  0  0  0  0
 22 57  1  0  0  0  0
 22 58  1  0  0  0  0
 23 28  2  0  0  0  0
 23 24  1  0  0  0  0
 24 25  2  0  0  0  0
 24 59  1  0  0  0  0
 25 26  1  0  0  0  0
 25 60  1  0  0  0  0
 26 27  2  0  0  0  0
 26 61  1  0  0  0  0
 27 28  1  0  0  0  0
 27 62  1  0  0  0  0
 28 63  1  0  0  0  0
 29 64  1  0  0  0  0
 29 65  1  0  0  0  0
 29 66  1  0  0  0  0
 30 67  1  0  0  0  0
 30 68  1  0  0  0  0
 30 69  1  0  0  0  0
M  END
$$$$
CHEMBL1223650_5ZTY
 OpenBabel12022418133D

 53 55  0  0  1  0  0  0  0  0999 V2000
    4.8215   -1.9666   -0.8857 C   0  0  0  0  0  0  0  0  0  0  0  0
    4.3856   -0.5106   -0.8452 C   0  0  0  0  0  0  0  0  0  0  0  0
    4.9474    0.2012    0.3843 C   0  0  0  0  0  0  0  0  0  0  0  0
    4.5315    1.6757    0.4173 C   0  0  0  0  0  0  0  0  0  0  0  0
    5.0988    2.4178    1.6277 C   0  0  0  0  0  0  0  0  0  0  0  0
    6.6043    2.4240    1.6125 C   0  0  0  0  0  0  0  0  0  0  0  0
    7.2958    2.9292    0.6317 N   0  0  0  0  0  0  0  0  0  0  0  0
    8.6083    2.6469    0.9156 N   0  0  0  0  0  0  0  0  0  0  0  0
    9.6560    2.9267    0.0481 C   0  0  0  0  0  0  0  0  0  0  0  0
   10.8135    2.5888    0.2919 O   0  0  0  0  0  0  0  0  0  0  0  0
    9.2563    3.6443   -1.0647 N   0  0  0  0  0  0  0  0  0  0  0  0
   10.1568    4.0720   -2.0594 C   0  0  0  0  0  0  0  0  0  0  0  0
   11.0477    3.1391   -2.6142 C   0  0  0  0  0  0  0  0  0  0  0  0
   11.9466    3.5093   -3.6153 C   0  0  0  0  0  0  0  0  0  0  0  0
   11.9709    4.8210   -4.0712 C   0  0  0  0  0  0  0  0  0  0  0  0
   11.0894    5.7559   -3.5290 C   0  0  0  0  0  0  0  0  0  0  0  0
   10.1664    5.3962   -2.5222 C   0  0  0  0  0  0  0  0  0  0  0  0
    9.3259    6.4929   -1.9269 C   0  0  0  0  0  0  0  0  0  0  0  0
    8.4600    6.0898   -0.9541 F   0  0  0  0  0  0  0  0  0  0  0  0
   10.0851    7.4738   -1.3587 F   0  0  0  0  0  0  0  0  0  0  0  0
    8.5561    7.1223   -2.8601 F   0  0  0  0  0  0  0  0  0  0  0  0
    8.7927    1.8847    2.1366 C   0  0  0  0  0  0  0  0  0  0  0  0
    7.3950    1.7838    2.7311 C   0  0  1  0  0  0  0  0  0  0  0  0
    7.2323    2.4917    4.0548 C   0  0  0  0  0  0  0  0  0  0  0  0
    7.6440    3.8246    4.2368 C   0  0  0  0  0  0  0  0  0  0  0  0
    7.5302    4.4457    5.4769 C   0  0  0  0  0  0  0  0  0  0  0  0
    6.9907    3.7485    6.5589 C   0  0  0  0  0  0  0  0  0  0  0  0
    6.5484    2.4372    6.3885 C   0  0  0  0  0  0  0  0  0  0  0  0
    6.6687    1.8107    5.1478 C   0  0  0  0  0  0  0  0  0  0  0  0
    4.4127   -2.4617   -1.7721 H   0  0  0  0  0  0  0  0  0  0  0  0
    4.4696   -2.5061   -0.0007 H   0  0  0  0  0  0  0  0  0  0  0  0
    5.9134   -2.0482   -0.9247 H   0  0  0  0  0  0  0  0  0  0  0  0
    3.2912   -0.4600   -0.8389 H   0  0  0  0  0  0  0  0  0  0  0  0
    4.7306   -0.0078   -1.7561 H   0  0  0  0  0  0  0  0  0  0  0  0
    6.0403    0.1180    0.3703 H   0  0  0  0  0  0  0  0  0  0  0  0
    4.5991   -0.2997    1.2956 H   0  0  0  0  0  0  0  0  0  0  0  0
    3.4370    1.7428    0.4442 H   0  0  0  0  0  0  0  0  0  0  0  0
    4.8582    2.1686   -0.5063 H   0  0  0  0  0  0  0  0  0  0  0  0
    4.7400    1.9528    2.5523 H   0  0  0  0  0  0  0  0  0  0  0  0
    4.7544    3.4572    1.6231 H   0  0  0  0  0  0  0  0  0  0  0  0
    8.4094    4.1720   -0.8693 H   0  0  0  0  0  0  0  0  0  0  0  0
   11.0361    2.1032   -2.2800 H   0  0  0  0  0  0  0  0  0  0  0  0
   12.6279    2.7716   -4.0315 H   0  0  0  0  0  0  0  0  0  0  0  0
   12.6821    5.1193   -4.8376 H   0  0  0  0  0  0  0  0  0  0  0  0
   11.1379    6.7880   -3.8760 H   0  0  0  0  0  0  0  0  0  0  0  0
    9.5298    2.3904    2.7706 H   0  0  0  0  0  0  0  0  0  0  0  0
    9.1946    0.9012    1.8726 H   0  0  0  0  0  0  0  0  0  0  0  0
    7.0991    0.7309    2.8129 H   0  0  0  0  0  0  0  0  0  0  0  0
    8.0662    4.3864    3.4066 H   0  0  0  0  0  0  0  0  0  0  0  0
    7.8727    5.4677    5.6040 H   0  0  0  0  0  0  0  0  0  0  0  0
    6.9111    4.2315    7.5267 H   0  0  0  0  0  0  0  0  0  0  0  0
    6.1166    1.9045    7.2297 H   0  0  0  0  0  0  0  0  0  0  0  0
    6.3214    0.7868    5.0464 H   0  0  0  0  0  0  0  0  0  0  0  0
  1  2  1  0  0  0  0
  1 30  1  0  0  0  0
  1 31  1  0  0  0  0
  1 32  1  0  0  0  0
  2  3  1  0  0  0  0
  2 33  1  0  0  0  0
  2 34  1  0  0  0  0
  3  4  1  0  0  0  0
  3 35  1  0  0  0  0
  3 36  1  0  0  0  0
  4  5  1  0  0  0  0
  4 37  1  0  0  0  0
  4 38  1  0  0  0  0
  5  6  1  0  0  0  0
  5 39  1  0  0  0  0
  5 40  1  0  0  0  0
  6 23  1  0  0  0  0
  6  7  2  0  0  0  0
  7  8  1  0  0  0  0
  8  9  1  0  0  0  0
  8 22  1  0  0  0  0
  9 10  2  0  0  0  0
  9 11  1  0  0  0  0
 11 12  1  0  0  0  0
 11 41  1  0  0  0  0
 12 17  2  0  0  0  0
 12 13  1  0  0  0  0
 13 14  2  0  0  0  0
 13 42  1  0  0  0  0
 14 15  1  0  0  0  0
 14 43  1  0  0  0  0
 15 16  2  0  0  0  0
 15 44  1  0  0  0  0
 16 17  1  0  0  0  0
 16 45  1  0  0  0  0
 17 18  1  0  0  0  0
 18 19  1  0  0  0  0
 18 20  1  0  0  0  0
 18 21  1  0  0  0  0
 22 23  1  0  0  0  0
 22 46  1  0  0  0  0
 22 47  1  0  0  0  0
 23 24  1  0  0  0  0
 23 48  1  1  0  0  0
 24 29  2  0  0  0  0
 24 25  1  0  0  0  0
 25 26  2  0  0  0  0
 25 49  1  0  0  0  0
 26 27  1  0  0  0  0
 26 50  1  0  0  0  0
 27 28  2  0  0  0  0
 27 51  1  0  0  0  0
 28 29  1  0  0  0  0
 28 52  1  0  0  0  0
 29 53  1  0  0  0  0
M  END
$$$$
CHEMBL235733_5ZTY
 OpenBabel12022418133D

 67 71  0  0  1  0  0  0  0  0999 V2000
   10.4957    5.9230   -0.2261 C   0  0  0  0  0  0  0  0  0  0  0  0
    9.7049    4.6243   -0.2391 C   0  0  0  0  0  0  0  0  0  0  0  0
    9.9150    3.8634   -1.5471 C   0  0  0  0  0  0  0  0  0  0  0  0
    9.1219    2.5553   -1.5725 C   0  0  0  0  0  0  0  0  0  0  0  0
    9.3375    1.8144   -2.8964 C   0  0  0  0  0  0  0  0  0  0  0  0
    8.5830    0.5454   -2.9280 N   0  0  0  0  0  0  0  0  0  0  0  0
    9.1564   -0.6444   -2.4833 C   0  0  0  0  0  0  0  0  0  0  0  0
    8.5701   -1.8530   -2.4430 C   0  0  0  0  0  0  0  0  0  0  0  0
    9.3477   -3.0415   -1.9888 C   0  0  0  0  0  0  0  0  0  0  0  0
   10.5220   -2.9217   -1.6465 O   0  0  0  0  0  0  0  0  0  0  0  0
    8.6692   -4.2416   -1.9983 N   0  0  0  0  0  0  0  0  0  0  0  0
    9.2577   -5.5302   -1.6213 C   0  0  2  0  0  0  0  0  0  0  0  0
    9.6719   -5.5137   -0.1341 C   0  0  0  0  0  0  0  0  0  0  0  0
   10.3042   -6.8512    0.2663 C   0  0  1  0  0  0  0  0  0  0  0  0
    9.2814   -7.9784    0.0694 C   0  0  0  0  0  0  0  0  0  0  0  0
    8.8386   -8.0487   -1.4093 C   0  0  2  0  0  0  0  0  0  0  0  0
    7.8173   -9.1751   -1.6000 C   0  0  0  0  0  0  0  0  0  0  0  0
   10.0852   -8.3180   -2.2845 C   0  0  0  0  0  0  0  0  0  0  0  0
   11.1274   -7.1942   -2.1059 C   0  0  2  0  0  0  0  0  0  0  0  0
   12.3579   -7.4506   -2.9813 C   0  0  0  0  0  0  0  0  0  0  0  0
   11.5343   -7.1121   -0.6171 C   0  0  0  0  0  0  0  0  0  0  0  0
   10.4780   -5.8575   -2.5140 C   0  0  0  0  0  0  0  0  0  0  0  0
    8.2253   -6.6798   -1.8093 C   0  0  0  0  0  0  0  0  0  0  0  0
    7.1613   -1.9183   -2.8834 C   0  0  0  0  0  0  0  0  0  0  0  0
    6.5333   -2.9725   -2.8715 O   0  0  0  0  0  0  0  0  0  0  0  0
    6.5121   -0.6760   -3.3440 C   0  0  0  0  0  0  0  0  0  0  0  0
    5.1641   -0.7395   -3.7259 C   0  0  0  0  0  0  0  0  0  0  0  0
    4.5074    0.4068   -4.1504 C   0  0  0  0  0  0  0  0  0  0  0  0
    5.2103    1.6052   -4.2150 C   0  0  0  0  0  0  0  0  0  0  0  0
    6.5563    1.6700   -3.8393 C   0  0  0  0  0  0  0  0  0  0  0  0
    7.2382    0.5360   -3.3654 C   0  0  0  0  0  0  0  0  0  0  0  0
    4.4093    3.0261   -4.7640 Cl  0  0  0  0  0  0  0  0  0  0  0  0
   10.3350    6.4569    0.7155 H   0  0  0  0  0  0  0  0  0  0  0  0
   10.1855    6.5783   -1.0464 H   0  0  0  0  0  0  0  0  0  0  0  0
   11.5682    5.7290   -0.3289 H   0  0  0  0  0  0  0  0  0  0  0  0
    8.6405    4.8489   -0.1043 H   0  0  0  0  0  0  0  0  0  0  0  0
   10.0166    4.0034    0.6087 H   0  0  0  0  0  0  0  0  0  0  0  0
   10.9825    3.6481   -1.6783 H   0  0  0  0  0  0  0  0  0  0  0  0
    9.6073    4.4944   -2.3900 H   0  0  0  0  0  0  0  0  0  0  0  0
    8.0565    2.7715   -1.4280 H   0  0  0  0  0  0  0  0  0  0  0  0
    9.4303    1.9202   -0.7327 H   0  0  0  0  0  0  0  0  0  0  0  0
   10.4077    1.6089   -3.0289 H   0  0  0  0  0  0  0  0  0  0  0  0
    9.0808    2.4587   -3.7443 H   0  0  0  0  0  0  0  0  0  0  0  0
   10.1895   -0.5274   -2.1554 H   0  0  0  0  0  0  0  0  0  0  0  0
    7.6773   -4.2201   -2.2428 H   0  0  0  0  0  0  0  0  0  0  0  0
    8.7961   -5.3065    0.4957 H   0  0  0  0  0  0  0  0  0  0  0  0
   10.3863   -4.7077    0.0663 H   0  0  0  0  0  0  0  0  0  0  0  0
   10.6072   -6.8076    1.3184 H   0  0  0  0  0  0  0  0  0  0  0  0
    8.4128   -7.8067    0.7182 H   0  0  0  0  0  0  0  0  0  0  0  0
    9.7237   -8.9331    0.3822 H   0  0  0  0  0  0  0  0  0  0  0  0
    8.2458  -10.1467   -1.3274 H   0  0  0  0  0  0  0  0  0  0  0  0
    7.4890   -9.2385   -2.6432 H   0  0  0  0  0  0  0  0  0  0  0  0
    6.9298   -9.0166   -0.9779 H   0  0  0  0  0  0  0  0  0  0  0  0
    9.7904   -8.3918   -3.3401 H   0  0  0  0  0  0  0  0  0  0  0  0
   10.5305   -9.2863   -2.0182 H   0  0  0  0  0  0  0  0  0  0  0  0
   12.8416   -8.3984   -2.7238 H   0  0  0  0  0  0  0  0  0  0  0  0
   13.0988   -6.6522   -2.8579 H   0  0  0  0  0  0  0  0  0  0  0  0
   12.0863   -7.4874   -4.0423 H   0  0  0  0  0  0  0  0  0  0  0  0
   12.0213   -8.0437   -0.3032 H   0  0  0  0  0  0  0  0  0  0  0  0
   12.2672   -6.3079   -0.4704 H   0  0  0  0  0  0  0  0  0  0  0  0
   11.2340   -5.0672   -2.4519 H   0  0  0  0  0  0  0  0  0  0  0  0
   10.1671   -5.8929   -3.5678 H   0  0  0  0  0  0  0  0  0  0  0  0
    7.8834   -6.7139   -2.8530 H   0  0  0  0  0  0  0  0  0  0  0  0
    7.3296   -6.4825   -1.2040 H   0  0  0  0  0  0  0  0  0  0  0  0
    4.6297   -1.6856   -3.6914 H   0  0  0  0  0  0  0  0  0  0  0  0
    3.4609    0.3565   -4.4343 H   0  0  0  0  0  0  0  0  0  0  0  0
    7.0485    2.6326   -3.9269 H   0  0  0  0  0  0  0  0  0  0  0  0
  1  2  1  0  0  0  0
  1 33  1  0  0  0  0
  1 34  1  0  0  0  0
  1 35  1  0  0  0  0
  2  3  1  0  0  0  0
  2 36  1  0  0  0  0
  2 37  1  0  0  0  0
  3  4  1  0  0  0  0
  3 38  1  0  0  0  0
  3 39  1  0  0  0  0
  4  5  1  0  0  0  0
  4 40  1  0  0  0  0
  4 41  1  0  0  0  0
  5  6  1  0  0  0  0
  5 42  1  0  0  0  0
  5 43  1  0  0  0  0
  6 31  1  0  0  0  0
  6  7  1  0  0  0  0
  7  8  2  0  0  0  0
  7 44  1  0  0  0  0
  8  9  1  0  0  0  0
  8 24  1  0  0  0  0
  9 10  2  0  0  0  0
  9 11  1  0  0  0  0
 11 45  1  0  0  0  0
 12 11  1  6  0  0  0
 12 22  1  0  0  0  0
 12 23  1  0  0  0  0
 12 13  1  0  0  0  0
 13 46  1  0  0  0  0
 13 47  1  0  0  0  0
 14 13  1  0  0  0  0
 14 15  1  0  0  0  0
 14 21  1  0  0  0  0
 14 48  1  1  0  0  0
 15 16  1  0  0  0  0
 15 49  1  0  0  0  0
 15 50  1  0  0  0  0
 16 17  1  6  0  0  0
 16 18  1  0  0  0  0
 16 23  1  0  0  0  0
 17 51  1  0  0  0  0
 17 52  1  0  0  0  0
 17 53  1  0  0  0  0
 18 19  1  0  0  0  0
 18 54  1  0  0  0  0
 18 55  1  0  0  0  0
 19 20  1  6  0  0  0
 19 21  1  0  0  0  0
 19 22  1  0  0  0  0
 20 56  1  0  0  0  0
 20 57  1  0  0  0  0
 20 58  1  0  0  0  0
 21 59  1  0  0  0  0
 21 60  1  0  0  0  0
 22 61  1  0  0  0  0
 22 62  1  0  0  0  0
 23 63  1  0  0  0  0
 23 64  1  0  0  0  0
 24 25  2  0  0  0  0
 24 26  1  0  0  0  0
 26 31  2  0  0  0  0
 26 27  1  0  0  0  0
 27 28  2  0  0  0  0
 27 65  1  0  0  0  0
 28 29  1  0  0  0  0
 28 66  1  0  0  0  0
 29 30  2  0  0  0  0
 29 32  1  0  0  0  0
 30 31  1  0  0  0  0
 30 67  1  0  0  0  0
M  END
$$$$
CHEMBL1909843_5ZTY
 OpenBabel12022418133D

 47 50  0  0  0  0  0  0  0  0999 V2000
    1.0851    0.2831    0.1024 C   0  0  0  0  0  0  0  0  0  0  0  0
    2.5547    0.0425    0.0752 C   0  0  0  0  0  0  0  0  0  0  0  0
    3.5460    1.0726    0.0796 C   0  0  0  0  0  0  0  0  0  0  0  0
    3.3405    2.5429    0.0495 C   0  0  0  0  0  0  0  0  0  0  0  0
    2.2264    3.0603    0.0375 O   0  0  0  0  0  0  0  0  0  0  0  0
    4.5131    3.2654    0.0459 N   0  0  0  0  0  0  0  0  0  0  0  0
    4.5589    4.7037    0.1493 C   0  0  0  0  0  0  0  0  0  0  0  0
    4.6572    5.3807   -1.1964 C   0  0  0  0  0  0  0  0  0  0  0  0
    3.4954    5.7306   -1.8983 C   0  0  0  0  0  0  0  0  0  0  0  0
    3.5758    6.3708   -3.1384 C   0  0  0  0  0  0  0  0  0  0  0  0
    4.8216    6.6639   -3.6992 C   0  0  0  0  0  0  0  0  0  0  0  0
    5.9890    6.3130   -3.0142 C   0  0  0  0  0  0  0  0  0  0  0  0
    5.9048    5.6726   -1.7697 C   0  0  0  0  0  0  0  0  0  0  0  0
    7.5648    6.6501   -3.6398 Cl  0  0  0  0  0  0  0  0  0  0  0  0
    4.8470    7.4554   -5.2351 Cl  0  0  0  0  0  0  0  0  0  0  0  0
    4.7831    0.5564    0.1473 N   0  0  0  0  0  0  0  0  0  0  0  0
    4.6256   -0.7923    0.1254 N   0  0  0  0  0  0  0  0  0  0  0  0
    5.7721   -1.5894   -0.1640 C   0  0  0  0  0  0  0  0  0  0  0  0
    5.6671   -2.6307   -1.1051 C   0  0  0  0  0  0  0  0  0  0  0  0
    6.7799   -3.4165   -1.4143 C   0  0  0  0  0  0  0  0  0  0  0  0
    8.0024   -3.1579   -0.8018 C   0  0  0  0  0  0  0  0  0  0  0  0
    8.1230   -2.1289    0.1281 C   0  0  0  0  0  0  0  0  0  0  0  0
    7.0119   -1.3411    0.4536 C   0  0  0  0  0  0  0  0  0  0  0  0
    7.2441   -0.1934    1.7303 Cl  0  0  0  0  0  0  0  0  0  0  0  0
    9.3728   -4.1207   -1.1935 Cl  0  0  0  0  0  0  0  0  0  0  0  0
    3.2810   -1.1417    0.1384 C   0  0  0  0  0  0  0  0  0  0  0  0
    2.7892   -2.4562    0.2169 N   0  0  0  0  0  0  0  0  0  0  0  0
    1.6726   -2.9216   -0.4717 C   0  0  0  0  0  0  0  0  0  0  0  0
    1.5398   -4.2823   -0.2901 C   0  0  0  0  0  0  0  0  0  0  0  0
    2.5754   -4.6890    0.5734 C   0  0  0  0  0  0  0  0  0  0  0  0
    3.2717   -3.5553    0.9117 C   0  0  0  0  0  0  0  0  0  0  0  0
    4.4693   -3.4195    2.1271 Cl  0  0  0  0  0  0  0  0  0  0  0  0
    0.5036   -0.6260    0.2621 H   0  0  0  0  0  0  0  0  0  0  0  0
    0.7584    0.7383   -0.8380 H   0  0  0  0  0  0  0  0  0  0  0  0
    0.8269    0.9595    0.9241 H   0  0  0  0  0  0  0  0  0  0  0  0
    5.3688    2.7179    0.0694 H   0  0  0  0  0  0  0  0  0  0  0  0
    5.4303    4.9615    0.7618 H   0  0  0  0  0  0  0  0  0  0  0  0
    3.6764    5.0676    0.6870 H   0  0  0  0  0  0  0  0  0  0  0  0
    2.5154    5.5061   -1.4771 H   0  0  0  0  0  0  0  0  0  0  0  0
    2.6608    6.6399   -3.6603 H   0  0  0  0  0  0  0  0  0  0  0  0
    6.8183    5.4084   -1.2417 H   0  0  0  0  0  0  0  0  0  0  0  0
    4.7387   -2.8337   -1.6340 H   0  0  0  0  0  0  0  0  0  0  0  0
    6.6870   -4.2234   -2.1377 H   0  0  0  0  0  0  0  0  0  0  0  0
    9.0784   -1.9524    0.6166 H   0  0  0  0  0  0  0  0  0  0  0  0
    1.0905   -2.2546   -1.0913 H   0  0  0  0  0  0  0  0  0  0  0  0
    0.7722   -4.9070   -0.7305 H   0  0  0  0  0  0  0  0  0  0  0  0
    2.7561   -5.6867    0.9528 H   0  0  0  0  0  0  0  0  0  0  0  0
  1  2  1  0  0  0  0
  1 33  1  0  0  0  0
  1 34  1  0  0  0  0
  1 35  1  0  0  0  0
  2 26  2  0  0  0  0
  2  3  1  0  0  0  0
  3  4  1  0  0  0  0
  3 16  2  0  0  0  0
  4  5  2  0  0  0  0
  4  6  1  0  0  0  0
  6  7  1  0  0  0  0
  6 36  1  0  0  0  0
  7  8  1  0  0  0  0
  7 37  1  0  0  0  0
  7 38  1  0  0  0  0
  8 13  2  0  0  0  0
  8  9  1  0  0  0  0
  9 10  2  0  0  0  0
  9 39  1  0  0  0  0
 10 11  1  0  0  0  0
 10 40  1  0  0  0  0
 11 12  2  0  0  0  0
 11 15  1  0  0  0  0
 12 13  1  0  0  0  0
 12 14  1  0  0  0  0
 13 41  1  0  0  0  0
 16 17  1  0  0  0  0
 17 18  1  0  0  0  0
 17 26  1  0  0  0  0
 18 23  2  0  0  0  0
 18 19  1  0  0  0  0
 19 20  2  0  0  0  0
 19 42  1  0  0  0  0
 20 21  1  0  0  0  0
 20 43  1  0  0  0  0
 21 22  2  0  0  0  0
 21 25  1  0  0  0  0
 22 23  1  0  0  0  0
 22 44  1  0  0  0  0
 23 24  1  0  0  0  0
 26 27  1  0  0  0  0
 27 31  1  0  0  0  0
 27 28  1  0  0  0  0
 28 29  2  0  0  0  0
 28 45  1  0  0  0  0
 29 30  1  0  0  0  0
 29 46  1  0  0  0  0
 30 31  2  0  0  0  0
 30 47  1  0  0  0  0
 31 32  1  0  0  0  0
M  END
$$$$
CHEMBL1909851_8GUT
 OpenBabel12022418133D

 56 59  0  0  0  0  0  0  0  0999 V2000
    2.5085   -0.3420   -1.4395 C   0  0  0  0  0  0  0  0  0  0  0  0
    2.3200    0.1481   -0.0007 C   0  0  0  0  0  0  0  0  0  0  0  0
    3.0413    1.4240    0.3650 C   0  0  0  0  0  0  0  0  0  0  0  0
    2.5244    2.7267    0.0381 C   0  0  0  0  0  0  0  0  0  0  0  0
    1.3252    3.0880   -0.7780 C   0  0  0  0  0  0  0  0  0  0  0  0
    0.5998    2.2535   -1.2996 O   0  0  0  0  0  0  0  0  0  0  0  0
    1.0769    4.4519   -0.8807 N   0  0  0  0  0  0  0  0  0  0  0  0
   -0.1076    4.9621   -1.5372 C   0  0  0  0  0  0  0  0  0  0  0  0
    0.0594    6.3333   -2.1645 C   0  0  0  0  0  0  0  0  0  0  0  0
   -1.0673    7.1490   -2.3742 C   0  0  0  0  0  0  0  0  0  0  0  0
   -0.9510    8.3851   -3.0182 C   0  0  0  0  0  0  0  0  0  0  0  0
    0.2884    8.8288   -3.4776 C   0  0  0  0  0  0  0  0  0  0  0  0
    1.4164    8.0239   -3.2944 C   0  0  0  0  0  0  0  0  0  0  0  0
    1.2949    6.7840   -2.6542 C   0  0  0  0  0  0  0  0  0  0  0  0
    2.9851    8.4851   -3.8532 Cl  0  0  0  0  0  0  0  0  0  0  0  0
    0.3620   10.3651   -4.2639 Cl  0  0  0  0  0  0  0  0  0  0  0  0
    3.2640    3.6951    0.6009 N   0  0  0  0  0  0  0  0  0  0  0  0
    4.2825    3.0642    1.2301 N   0  0  0  0  0  0  0  0  0  0  0  0
    5.3663    3.8867    1.6504 C   0  0  0  0  0  0  0  0  0  0  0  0
    6.6845    3.4740    1.3948 C   0  0  0  0  0  0  0  0  0  0  0  0
    7.7582    4.2544    1.8339 C   0  0  0  0  0  0  0  0  0  0  0  0
    7.5231    5.4495    2.5100 C   0  0  0  0  0  0  0  0  0  0  0  0
    6.2219    5.8752    2.7617 C   0  0  0  0  0  0  0  0  0  0  0  0
    5.1379    5.1005    2.3331 C   0  0  0  0  0  0  0  0  0  0  0  0
    3.5761    5.6360    2.8660 Cl  0  0  0  0  0  0  0  0  0  0  0  0
    8.8491    6.3920    3.0686 Cl  0  0  0  0  0  0  0  0  0  0  0  0
    4.1562    1.6708    1.1874 C   0  0  0  0  0  0  0  0  0  0  0  0
    5.0031    0.7671    1.9203 N   0  0  0  0  0  0  0  0  0  0  0  0
    5.4262   -0.5181    1.5334 C   0  0  0  0  0  0  0  0  0  0  0  0
    5.1252   -1.2000    0.2580 C   0  0  0  0  0  0  0  0  0  0  0  0
    6.2980   -1.0381    2.4682 C   0  0  0  0  0  0  0  0  0  0  0  0
    6.4712   -0.0811    3.4586 C   0  0  0  0  0  0  0  0  0  0  0  0
    5.6329    0.9819    3.1683 C   0  0  0  0  0  0  0  0  0  0  0  0
    5.4350    2.1159    4.1165 C   0  0  0  0  0  0  0  0  0  0  0  0
    2.1497   -1.3741   -1.5263 H   0  0  0  0  0  0  0  0  0  0  0  0
    3.5398   -0.3255   -1.7940 H   0  0  0  0  0  0  0  0  0  0  0  0
    1.9482    0.2631   -2.1560 H   0  0  0  0  0  0  0  0  0  0  0  0
    2.5734   -0.6388    0.7136 H   0  0  0  0  0  0  0  0  0  0  0  0
    1.2420    0.2971    0.1494 H   0  0  0  0  0  0  0  0  0  0  0  0
    1.6285    5.0448   -0.2659 H   0  0  0  0  0  0  0  0  0  0  0  0
   -0.8973    4.9964   -0.7802 H   0  0  0  0  0  0  0  0  0  0  0  0
   -0.4232    4.2629   -2.3190 H   0  0  0  0  0  0  0  0  0  0  0  0
   -2.0540    6.8192   -2.0477 H   0  0  0  0  0  0  0  0  0  0  0  0
   -1.8406    8.9990   -3.1673 H   0  0  0  0  0  0  0  0  0  0  0  0
    2.1779    6.1581   -2.5453 H   0  0  0  0  0  0  0  0  0  0  0  0
    6.8972    2.5503    0.8611 H   0  0  0  0  0  0  0  0  0  0  0  0
    8.7767    3.9170    1.6560 H   0  0  0  0  0  0  0  0  0  0  0  0
    6.0513    6.7924    3.3206 H   0  0  0  0  0  0  0  0  0  0  0  0
    4.9407   -0.4649   -0.5132 H   0  0  0  0  0  0  0  0  0  0  0  0
    4.2949   -1.9036    0.3777 H   0  0  0  0  0  0  0  0  0  0  0  0
    5.9852   -1.7793   -0.0926 H   0  0  0  0  0  0  0  0  0  0  0  0
    6.7861   -2.0050    2.4032 H   0  0  0  0  0  0  0  0  0  0  0  0
    7.1069   -0.1663    4.3324 H   0  0  0  0  0  0  0  0  0  0  0  0
    4.5449    2.7059    3.9125 H   0  0  0  0  0  0  0  0  0  0  0  0
    6.3257    2.7549    4.1254 H   0  0  0  0  0  0  0  0  0  0  0  0
    5.3292    1.7303    5.1366 H   0  0  0  0  0  0  0  0  0  0  0  0
  1  2  1  0  0  0  0
  1 35  1  0  0  0  0
  1 36  1  0  0  0  0
  1 37  1  0  0  0  0
  2  3  1  0  0  0  0
  2 38  1  0  0  0  0
  2 39  1  0  0  0  0
  3 27  2  0  0  0  0
  3  4  1  0  0  0  0
  4  5  1  0  0  0  0
  4 17  2  0  0  0  0
  5  6  2  0  0  0  0
  5  7  1  0  0  0  0
  7  8  1  0  0  0  0
  7 40  1  0  0  0  0
  8  9  1  0  0  0  0
  8 41  1  0  0  0  0
  8 42  1  0  0  0  0
  9 14  2  0  0  0  0
  9 10  1  0  0  0  0
 10 11  2  0  0  0  0
 10 43  1  0  0  0  0
 11 12  1  0  0  0  0
 11 44  1  0  0  0  0
 12 13  2  0  0  0  0
 12 16  1  0  0  0  0
 13 14  1  0  0  0  0
 13 15  1  0  0  0  0
 14 45  1  0  0  0  0
 17 18  1  0  0  0  0
 18 19  1  0  0  0  0
 18 27  1  0  0  0  0
 19 24  2  0  0  0  0
 19 20  1  0  0  0  0
 20 21  2  0  0  0  0
 20 46  1  0  0  0  0
 21 22  1  0  0  0  0
 21 47  1  0  0  0  0
 22 23  2  0  0  0  0
 22 26  1  0  0  0  0
 23 24  1  0  0  0  0
 23 48  1  0  0  0  0
 24 25  1  0  0  0  0
 27 28  1  0  0  0  0
 28 33  1  0  0  0  0
 28 29  1  0  0  0  0
 29 30  1  0  0  0  0
 29 31  2  0  0  0  0
 30 49  1  0  0  0  0
 30 50  1  0  0  0  0
 30 51  1  0  0  0  0
 31 32  1  0  0  0  0
 31 52  1  0  0  0  0
 32 33  2  0  0  0  0
 32 53  1  0  0  0  0
 33 34  1  0  0  0  0
 34 54  1  0  0  0  0
 34 55  1  0  0  0  0
 34 56  1  0  0  0  0
M  END
$$$$
CHEMBL5093228_5ZTY
 OpenBabel12022418133D

 60 63  0  0  1  0  0  0  0  0999 V2000
    0.2903   -1.2137   -0.1846 N   0  0  0  0  0  0  0  0  0  0  0  0
    1.2596   -0.2402   -0.2206 N   0  0  0  0  0  0  0  0  0  0  0  0
    0.6657    0.9093   -0.0878 C   0  0  0  0  0  0  0  0  0  0  0  0
   -0.8401    0.8652    0.0249 C   0  0  2  0  0  0  0  0  0  0  0  0
   -1.0474   -0.6491    0.0153 C   0  0  0  0  0  0  0  0  0  0  0  0
   -1.5504    1.6098   -1.0910 C   0  0  0  0  0  0  0  0  0  0  0  0
   -2.4026    2.6856   -0.7896 C   0  0  0  0  0  0  0  0  0  0  0  0
   -3.0513    3.3894   -1.8075 C   0  0  0  0  0  0  0  0  0  0  0  0
   -2.8634    3.0258   -3.1385 C   0  0  0  0  0  0  0  0  0  0  0  0
   -2.0179    1.9652   -3.4536 C   0  0  0  0  0  0  0  0  0  0  0  0
   -1.3619    1.2663   -2.4382 C   0  0  0  0  0  0  0  0  0  0  0  0
    1.4059    2.1922   -0.0654 C   0  0  0  0  0  0  0  0  0  0  0  0
    0.8967    3.3152    0.5947 C   0  0  0  0  0  0  0  0  0  0  0  0
    1.6028    4.5222    0.5689 C   0  0  0  0  0  0  0  0  0  0  0  0
    2.8127    4.6001   -0.1150 C   0  0  0  0  0  0  0  0  0  0  0  0
    3.3325    3.4810   -0.7633 C   0  0  0  0  0  0  0  0  0  0  0  0
    2.6333    2.2721   -0.7328 C   0  0  0  0  0  0  0  0  0  0  0  0
    3.6702    6.0900   -0.1619 Cl  0  0  0  0  0  0  0  0  0  0  0  0
    0.5080   -2.5904   -0.0762 C   0  0  0  0  0  0  0  0  0  0  0  0
   -0.3631   -3.2507    0.6234 N   0  0  0  0  0  0  0  0  0  0  0  0
   -0.4617   -4.8297    0.8506 S   0  0  0  0  0  0  0  0  0  0  0  0
   -1.6577   -5.0165    1.6492 O   0  0  0  0  0  0  0  0  0  0  0  0
   -0.4082   -5.5009   -0.4339 O   0  0  0  0  0  0  0  0  0  0  0  0
    0.7797   -5.4848    1.8173 N   0  0  0  0  0  0  0  0  0  0  0  0
    2.0498   -5.8046    1.1401 C   0  0  0  0  0  0  0  0  0  0  0  0
    2.8555   -6.7849    1.9882 C   0  0  0  0  0  0  0  0  0  0  0  0
    3.1287   -6.1911    3.3636 C   0  0  0  0  0  0  0  0  0  0  0  0
    1.8114   -5.8374    4.0463 C   0  0  0  0  0  0  0  0  0  0  0  0
    0.9351   -4.9250    3.1783 C   0  0  0  0  0  0  0  0  0  0  0  0
    1.6037   -3.2394   -0.5803 N   0  0  0  0  0  0  0  0  0  0  0  0
    2.2255   -2.9364   -1.6857 C   0  0  0  0  0  0  0  0  0  0  0  0
    3.3225   -3.7015   -2.0013 N   0  0  0  0  0  0  0  0  0  0  0  0
    1.9027   -1.8566   -2.6938 C   0  0  0  0  0  0  0  0  0  0  0  0
   -1.1450    1.2551    1.0033 H   0  0  0  0  0  0  0  0  0  0  0  0
   -1.4676   -0.9684    0.9761 H   0  0  0  0  0  0  0  0  0  0  0  0
   -1.7272   -0.9877   -0.7756 H   0  0  0  0  0  0  0  0  0  0  0  0
   -2.5703    2.9932    0.2404 H   0  0  0  0  0  0  0  0  0  0  0  0
   -3.7062    4.2228   -1.5633 H   0  0  0  0  0  0  0  0  0  0  0  0
   -3.3744    3.5678   -3.9300 H   0  0  0  0  0  0  0  0  0  0  0  0
   -1.8678    1.6812   -4.4921 H   0  0  0  0  0  0  0  0  0  0  0  0
   -0.6993    0.4483   -2.7143 H   0  0  0  0  0  0  0  0  0  0  0  0
   -0.0411    3.2766    1.1401 H   0  0  0  0  0  0  0  0  0  0  0  0
    1.2003    5.3932    1.0799 H   0  0  0  0  0  0  0  0  0  0  0  0
    4.2779    3.5408   -1.2953 H   0  0  0  0  0  0  0  0  0  0  0  0
    3.0404    1.4025   -1.2437 H   0  0  0  0  0  0  0  0  0  0  0  0
    2.6354   -4.8965    0.9815 H   0  0  0  0  0  0  0  0  0  0  0  0
    1.8597   -6.2819    0.1741 H   0  0  0  0  0  0  0  0  0  0  0  0
    3.8011   -7.0184    1.4872 H   0  0  0  0  0  0  0  0  0  0  0  0
    2.3060   -7.7290    2.0994 H   0  0  0  0  0  0  0  0  0  0  0  0
    3.7479   -5.2915    3.2619 H   0  0  0  0  0  0  0  0  0  0  0  0
    3.6931   -6.9041    3.9751 H   0  0  0  0  0  0  0  0  0  0  0  0
    2.0160   -5.3512    5.0073 H   0  0  0  0  0  0  0  0  0  0  0  0
    1.2690   -6.7652    4.2704 H   0  0  0  0  0  0  0  0  0  0  0  0
   -0.0402   -4.8394    3.6696 H   0  0  0  0  0  0  0  0  0  0  0  0
    1.3795   -3.9262    3.1184 H   0  0  0  0  0  0  0  0  0  0  0  0
    3.3217   -4.6078   -1.5485 H   0  0  0  0  0  0  0  0  0  0  0  0
    3.6109   -3.7281   -2.9719 H   0  0  0  0  0  0  0  0  0  0  0  0
    0.9316   -1.3907   -2.5583 H   0  0  0  0  0  0  0  0  0  0  0  0
    1.9139   -2.2921   -3.6999 H   0  0  0  0  0  0  0  0  0  0  0  0
    2.6917   -1.0957   -2.6603 H   0  0  0  0  0  0  0  0  0  0  0  0
  1  5  1  0  0  0  0
  1  2  1  0  0  0  0
  1 19  1  0  0  0  0
  2  3  2  0  0  0  0
  3  4  1  0  0  0  0
  3 12  1  0  0  0  0
  4  5  1  0  0  0  0
  4  6  1  0  0  0  0
  4 34  1  1  0  0  0
  5 35  1  0  0  0  0
  5 36  1  0  0  0  0
  6 11  2  0  0  0  0
  6  7  1  0  0  0  0
  7  8  2  0  0  0  0
  7 37  1  0  0  0  0
  8  9  1  0  0  0  0
  8 38  1  0  0  0  0
  9 10  2  0  0  0  0
  9 39  1  0  0  0  0
 10 11  1  0  0  0  0
 10 40  1  0  0  0  0
 11 41  1  0  0  0  0
 12 17  2  0  0  0  0
 12 13  1  0  0  0  0
 13 14  2  0  0  0  0
 13 42  1  0  0  0  0
 14 15  1  0  0  0  0
 14 43  1  0  0  0  0
 15 16  2  0  0  0  0
 15 18  1  0  0  0  0
 16 17  1  0  0  0  0
 16 44  1  0  0  0  0
 17 45  1  0  0  0  0
 19 20  2  0  0  0  0
 19 30  1  0  0  0  0
 20 21  1  0  0  0  0
 21 22  2  0  0  0  0
 21 23  2  0  0  0  0
 21 24  1  0  0  0  0
 24 29  1  0  0  0  0
 24 25  1  0  0  0  0
 25 26  1  0  0  0  0
 25 46  1  0  0  0  0
 25 47  1  0  0  0  0
 26 27  1  0  0  0  0
 26 48  1  0  0  0  0
 26 49  1  0  0  0  0
 27 28  1  0  0  0  0
 27 50  1  0  0  0  0
 27 51  1  0  0  0  0
 28 29  1  0  0  0  0
 28 52  1  0  0  0  0
 28 53  1  0  0  0  0
 29 54  1  0  0  0  0
 29 55  1  0  0  0  0
 30 31  2  0  0  0  0
 31 32  1  0  0  0  0
 31 33  1  0  0  0  0
 32 56  1  0  0  0  0
 32 57  1  0  0  0  0
 33 58  1  0  0  0  0
 33 59  1  0  0  0  0
 33 60  1  0  0  0  0
M  END
$$$$
CHEMBL1909850_5ZTY
 OpenBabel12022418133D

 53 56  0  0  0  0  0  0  0  0999 V2000
    2.8868    0.6755    1.3341 C   0  0  0  0  0  0  0  0  0  0  0  0
    2.8032    0.0773   -0.0631 C   0  0  0  0  0  0  0  0  0  0  0  0
    3.0982   -1.3942   -0.0883 C   0  0  0  0  0  0  0  0  0  0  0  0
    4.4073   -1.9737   -0.2550 C   0  0  0  0  0  0  0  0  0  0  0  0
    5.7041   -1.2838   -0.5063 C   0  0  0  0  0  0  0  0  0  0  0  0
    5.8061   -0.0628   -0.5707 O   0  0  0  0  0  0  0  0  0  0  0  0
    6.7888   -2.1315   -0.6775 N   0  0  0  0  0  0  0  0  0  0  0  0
    8.1548   -1.6528   -0.8943 C   0  0  0  0  0  0  0  0  0  0  0  0
    8.8490   -1.3126    0.4340 C   0  0  0  0  0  0  0  0  0  0  0  0
   10.3114   -0.9021    0.2441 C   0  0  0  0  0  0  0  0  0  0  0  0
   11.0995   -1.9434   -0.5428 C   0  0  0  0  0  0  0  0  0  0  0  0
   10.4304   -2.2405   -1.8797 C   0  0  0  0  0  0  0  0  0  0  0  0
    8.9748   -2.6757   -1.6965 C   0  0  0  0  0  0  0  0  0  0  0  0
    4.3585   -3.3110   -0.1398 N   0  0  0  0  0  0  0  0  0  0  0  0
    3.0485   -3.6241    0.0321 N   0  0  0  0  0  0  0  0  0  0  0  0
    2.6603   -4.9869   -0.1440 C   0  0  0  0  0  0  0  0  0  0  0  0
    1.5280   -5.2919   -0.9257 C   0  0  0  0  0  0  0  0  0  0  0  0
    1.1544   -6.6214   -1.1435 C   0  0  0  0  0  0  0  0  0  0  0  0
    1.9188   -7.6526   -0.6049 C   0  0  0  0  0  0  0  0  0  0  0  0
    3.0370   -7.3678    0.1708 C   0  0  0  0  0  0  0  0  0  0  0  0
    3.4127   -6.0389    0.4095 C   0  0  0  0  0  0  0  0  0  0  0  0
    4.7192   -5.8065    1.5226 Cl  0  0  0  0  0  0  0  0  0  0  0  0
    1.4711   -9.2874   -0.8917 Cl  0  0  0  0  0  0  0  0  0  0  0  0
    2.2594   -2.4849    0.1372 C   0  0  0  0  0  0  0  0  0  0  0  0
    0.8939   -2.5069    0.4741 N   0  0  0  0  0  0  0  0  0  0  0  0
    0.2474   -3.4577    1.2516 C   0  0  0  0  0  0  0  0  0  0  0  0
   -1.1050   -3.2011    1.2828 C   0  0  0  0  0  0  0  0  0  0  0  0
   -1.3138   -2.0182    0.5530 C   0  0  0  0  0  0  0  0  0  0  0  0
   -0.0831   -1.6070    0.0871 C   0  0  0  0  0  0  0  0  0  0  0  0
    2.6712    1.7488    1.2976 H   0  0  0  0  0  0  0  0  0  0  0  0
    3.8858    0.5472    1.7638 H   0  0  0  0  0  0  0  0  0  0  0  0
    2.1646    0.2101    2.0131 H   0  0  0  0  0  0  0  0  0  0  0  0
    3.4939    0.6112   -0.7233 H   0  0  0  0  0  0  0  0  0  0  0  0
    1.8207    0.2927   -0.4827 H   0  0  0  0  0  0  0  0  0  0  0  0
    6.6030   -3.1120   -0.4784 H   0  0  0  0  0  0  0  0  0  0  0  0
    8.0875   -0.7303   -1.4872 H   0  0  0  0  0  0  0  0  0  0  0  0
    8.8051   -2.1792    1.1057 H   0  0  0  0  0  0  0  0  0  0  0  0
    8.3133   -0.5001    0.9391 H   0  0  0  0  0  0  0  0  0  0  0  0
   10.7824   -0.7504    1.2222 H   0  0  0  0  0  0  0  0  0  0  0  0
   10.3576    0.0594   -0.2824 H   0  0  0  0  0  0  0  0  0  0  0  0
   11.1792   -2.8674    0.0432 H   0  0  0  0  0  0  0  0  0  0  0  0
   12.1226   -1.5857   -0.7107 H   0  0  0  0  0  0  0  0  0  0  0  0
   10.9900   -3.0245   -2.4031 H   0  0  0  0  0  0  0  0  0  0  0  0
   10.4713   -1.3455   -2.5132 H   0  0  0  0  0  0  0  0  0  0  0  0
    8.5188   -2.8272   -2.6825 H   0  0  0  0  0  0  0  0  0  0  0  0
    8.9539   -3.6499   -1.1913 H   0  0  0  0  0  0  0  0  0  0  0  0
    0.9284   -4.5128   -1.3948 H   0  0  0  0  0  0  0  0  0  0  0  0
    0.2718   -6.8454   -1.7392 H   0  0  0  0  0  0  0  0  0  0  0  0
    3.6133   -8.1815    0.6073 H   0  0  0  0  0  0  0  0  0  0  0  0
    0.8014   -4.2487    1.7368 H   0  0  0  0  0  0  0  0  0  0  0  0
   -1.8526   -3.7978    1.7906 H   0  0  0  0  0  0  0  0  0  0  0  0
   -2.2585   -1.5202    0.3717 H   0  0  0  0  0  0  0  0  0  0  0  0
    0.1422   -0.7728   -0.5561 H   0  0  0  0  0  0  0  0  0  0  0  0
  1  2  1  0  0  0  0
  1 30  1  0  0  0  0
  1 31  1  0  0  0  0
  1 32  1  0  0  0  0
  2  3  1  0  0  0  0
  2 33  1  0  0  0  0
  2 34  1  0  0  0  0
  3 24  2  0  0  0  0
  3  4  1  0  0  0  0
  4  5  1  0  0  0  0
  4 14  2  0  0  0  0
  5  6  2  0  0  0  0
  5  7  1  0  0  0  0
  7  8  1  0  0  0  0
  7 35  1  0  0  0  0
  8 13  1  0  0  0  0
  8  9  1  0  0  0  0
  8 36  1  0  0  0  0
  9 10  1  0  0  0  0
  9 37  1  0  0  0  0
  9 38  1  0  0  0  0
 10 11  1  0  0  0  0
 10 39  1  0  0  0  0
 10 40  1  0  0  0  0
 11 12  1  0  0  0  0
 11 41  1  0  0  0  0
 11 42  1  0  0  0  0
 12 13  1  0  0  0  0
 12 43  1  0  0  0  0
 12 44  1  0  0  0  0
 13 45  1  0  0  0  0
 13 46  1  0  0  0  0
 14 15  1  0  0  0  0
 15 16  1  0  0  0  0
 15 24  1  0  0  0  0
 16 21  2  0  0  0  0
 16 17  1  0  0  0  0
 17 18  2  0  0  0  0
 17 47  1  0  0  0  0
 18 19  1  0  0  0  0
 18 48  1  0  0  0  0
 19 20  2  0  0  0  0
 19 23  1  0  0  0  0
 20 21  1  0  0  0  0
 20 49  1  0  0  0  0
 21 22  1  0  0  0  0
 24 25  1  0  0  0  0
 25 29  1  0  0  0  0
 25 26  1  0  0  0  0
 26 27  2  0  0  0  0
 26 50  1  0  0  0  0
 27 28  1  0  0  0  0
 27 51  1  0  0  0  0
 28 29  2  0  0  0  0
 28 52  1  0  0  0  0
 29 53  1  0  0  0  0
M  END
$$$$
CHEMBL1223646_5ZTY
 OpenBabel12022418133D

 56 58  0  0  1  0  0  0  0  0999 V2000
    4.9372   -4.0779    6.9005 C   0  0  0  0  0  0  0  0  0  0  0  0
    4.4900   -3.9586    5.4523 C   0  0  0  0  0  0  0  0  0  0  0  0
    5.0606   -2.7024    4.7956 C   0  0  0  0  0  0  0  0  0  0  0  0
    4.6214   -2.5904    3.3326 C   0  0  0  0  0  0  0  0  0  0  0  0
    5.1676   -1.3370    2.6510 C   0  0  0  0  0  0  0  0  0  0  0  0
    6.6709   -1.3438    2.5952 C   0  0  0  0  0  0  0  0  0  0  0  0
    7.3417   -2.2772    1.9860 N   0  0  0  0  0  0  0  0  0  0  0  0
    8.6693   -1.9846    2.1946 N   0  0  0  0  0  0  0  0  0  0  0  0
    9.7030   -2.7175    1.6331 C   0  0  0  0  0  0  0  0  0  0  0  0
   10.8906   -2.4756    1.8341 O   0  0  0  0  0  0  0  0  0  0  0  0
    9.2576   -3.7195    0.8054 N   0  0  0  0  0  0  0  0  0  0  0  0
   10.1407   -4.6463    0.1204 C   0  0  0  0  0  0  0  0  0  0  0  0
   10.5492   -5.8146    1.0287 C   0  0  0  0  0  0  0  0  0  0  0  0
   11.4395   -6.8177    0.2933 C   0  0  0  0  0  0  0  0  0  0  0  0
   10.7968   -7.3092   -1.0007 C   0  0  0  0  0  0  0  0  0  0  0  0
   10.3951   -6.1453   -1.9011 C   0  0  0  0  0  0  0  0  0  0  0  0
    9.4866   -5.1605   -1.1675 C   0  0  0  0  0  0  0  0  0  0  0  0
    8.8784   -0.8527    3.0838 C   0  0  0  0  0  0  0  0  0  0  0  0
    7.4859   -0.2528    3.2521 C   0  0  1  0  0  0  0  0  0  0  0  0
    7.3053    1.0930    2.5814 C   0  0  0  0  0  0  0  0  0  0  0  0
    7.6571    1.2875    1.2353 C   0  0  0  0  0  0  0  0  0  0  0  0
    7.5147    2.5379    0.6335 C   0  0  0  0  0  0  0  0  0  0  0  0
    7.0081    3.6093    1.3636 C   0  0  0  0  0  0  0  0  0  0  0  0
    6.6367    3.4292    2.6943 C   0  0  0  0  0  0  0  0  0  0  0  0
    6.7834    2.1786    3.3013 C   0  0  0  0  0  0  0  0  0  0  0  0
    4.5226   -4.9846    7.3519 H   0  0  0  0  0  0  0  0  0  0  0  0
    4.5973   -3.2189    7.4877 H   0  0  0  0  0  0  0  0  0  0  0  0
    6.0284   -4.1320    6.9709 H   0  0  0  0  0  0  0  0  0  0  0  0
    3.3949   -3.9366    5.4125 H   0  0  0  0  0  0  0  0  0  0  0  0
    4.8180   -4.8478    4.9012 H   0  0  0  0  0  0  0  0  0  0  0  0
    6.1547   -2.7342    4.8579 H   0  0  0  0  0  0  0  0  0  0  0  0
    4.7316   -1.8134    5.3472 H   0  0  0  0  0  0  0  0  0  0  0  0
    3.5258   -2.5656    3.2836 H   0  0  0  0  0  0  0  0  0  0  0  0
    4.9442   -3.4838    2.7842 H   0  0  0  0  0  0  0  0  0  0  0  0
    4.8203   -0.4406    3.1742 H   0  0  0  0  0  0  0  0  0  0  0  0
    4.7955   -1.2852    1.6217 H   0  0  0  0  0  0  0  0  0  0  0  0
    8.2633   -3.8980    0.8983 H   0  0  0  0  0  0  0  0  0  0  0  0
   11.0482   -4.0908   -0.1499 H   0  0  0  0  0  0  0  0  0  0  0  0
    9.6535   -6.3292    1.4001 H   0  0  0  0  0  0  0  0  0  0  0  0
   11.0804   -5.4399    1.9116 H   0  0  0  0  0  0  0  0  0  0  0  0
   11.6513   -7.6725    0.9457 H   0  0  0  0  0  0  0  0  0  0  0  0
   12.4034   -6.3473    0.0623 H   0  0  0  0  0  0  0  0  0  0  0  0
    9.9109   -7.9112   -0.7642 H   0  0  0  0  0  0  0  0  0  0  0  0
   11.4945   -7.9652   -1.5344 H   0  0  0  0  0  0  0  0  0  0  0  0
    9.8860   -6.5267   -2.7934 H   0  0  0  0  0  0  0  0  0  0  0  0
   11.2963   -5.6234   -2.2465 H   0  0  0  0  0  0  0  0  0  0  0  0
    9.2508   -4.3190   -1.8300 H   0  0  0  0  0  0  0  0  0  0  0  0
    8.5318   -5.6502   -0.9349 H   0  0  0  0  0  0  0  0  0  0  0  0
    9.6280   -0.1736    2.6644 H   0  0  0  0  0  0  0  0  0  0  0  0
    9.2650   -1.2414    4.0323 H   0  0  0  0  0  0  0  0  0  0  0  0
    7.2228   -0.1944    4.3153 H   0  0  0  0  0  0  0  0  0  0  0  0
    8.0557    0.4660    0.6417 H   0  0  0  0  0  0  0  0  0  0  0  0
    7.8056    2.6738   -0.4050 H   0  0  0  0  0  0  0  0  0  0  0  0
    6.9041    4.5845    0.8944 H   0  0  0  0  0  0  0  0  0  0  0  0
    6.2382    4.2672    3.2613 H   0  0  0  0  0  0  0  0  0  0  0  0
    6.4899    2.0676    4.3429 H   0  0  0  0  0  0  0  0  0  0  0  0
  1  2  1  0  0  0  0
  1 26  1  0  0  0  0
  1 27  1  0  0  0  0
  1 28  1  0  0  0  0
  2  3  1  0  0  0  0
  2 29  1  0  0  0  0
  2 30  1  0  0  0  0
  3  4  1  0  0  0  0
  3 31  1  0  0  0  0
  3 32  1  0  0  0  0
  4  5  1  0  0  0  0
  4 33  1  0  0  0  0
  4 34  1  0  0  0  0
  5  6  1  0  0  0  0
  5 35  1  0  0  0  0
  5 36  1  0  0  0  0
  6 19  1  0  0  0  0
  6  7  2  0  0  0  0
  7  8  1  0  0  0  0
  8  9  1  0  0  0  0
  8 18  1  0  0  0  0
  9 10  2  0  0  0  0
  9 11  1  0  0  0  0
 11 12  1  0  0  0  0
 11 37  1  0  0  0  0
 12 17  1  0  0  0  0
 12 13  1  0  0  0  0
 12 38  1  0  0  0  0
 13 14  1  0  0  0  0
 13 39  1  0  0  0  0
 13 40  1  0  0  0  0
 14 15  1  0  0  0  0
 14 41  1  0  0  0  0
 14 42  1  0  0  0  0
 15 16  1  0  0  0  0
 15 43  1  0  0  0  0
 15 44  1  0  0  0  0
 16 17  1  0  0  0  0
 16 45  1  0  0  0  0
 16 46  1  0  0  0  0
 17 47  1  0  0  0  0
 17 48  1  0  0  0  0
 18 19  1  0  0  0  0
 18 49  1  0  0  0  0
 18 50  1  0  0  0  0
 19 20  1  0  0  0  0
 19 51  1  1  0  0  0
 20 25  2  0  0  0  0
 20 21  1  0  0  0  0
 21 22  2  0  0  0  0
 21 52  1  0  0  0  0
 22 23  1  0  0  0  0
 22 53  1  0  0  0  0
 23 24  2  0  0  0  0
 23 54  1  0  0  0  0
 24 25  1  0  0  0  0
 24 55  1  0  0  0  0
 25 56  1  0  0  0  0
M  END
$$$$
CHEMBL3914978_8GUT
 OpenBabel12022418133D

 56 60  0  0  1  0  0  0  0  0999 V2000
    8.7545    3.8634   -3.1167 C   0  0  0  0  0  0  0  0  0  0  0  0
    7.6732    3.1622   -2.4039 C   0  0  0  0  0  0  0  0  0  0  0  0
    6.5422    3.6263   -1.9172 N   0  0  0  0  0  0  0  0  0  0  0  0
    5.9904    2.4969   -1.3455 C   0  0  0  0  0  0  0  0  0  0  0  0
    4.6742    2.4880   -0.6122 C   0  0  2  0  0  0  0  0  0  0  0  0
    3.6802    1.4734   -1.2246 C   0  0  0  0  0  0  0  0  0  0  0  0
    3.2095    1.8280   -2.6131 C   0  0  0  0  0  0  0  0  0  0  0  0
    3.6606    1.0363   -3.8147 C   0  0  0  0  0  0  0  0  0  0  0  0
    2.2520    0.8964   -3.3117 C   0  0  0  0  0  0  0  0  0  0  0  0
    4.1203    3.8425   -0.5270 N   0  0  0  0  0  0  0  0  0  0  0  0
    3.0352    4.1447    0.2680 C   0  0  0  0  0  0  0  0  0  0  0  0
    2.4982    3.3232    1.0054 O   0  0  0  0  0  0  0  0  0  0  0  0
    2.5080    5.5476    0.1756 C   0  0  0  0  0  0  0  0  0  0  0  0
    1.3753    5.8935    0.8943 C   0  0  0  0  0  0  0  0  0  0  0  0
    0.8701    7.1867    0.7611 C   0  0  0  0  0  0  0  0  0  0  0  0
    1.4976    8.1335   -0.0652 C   0  0  0  0  0  0  0  0  0  0  0  0
    2.6672    7.6881   -0.7298 C   0  0  0  0  0  0  0  0  0  0  0  0
    3.5133    8.6523   -1.5447 C   0  0  0  0  0  0  0  0  0  0  0  0
    3.3020    8.7200   -3.0443 C   0  0  0  0  0  0  0  0  0  0  0  0
    2.9813    7.5925   -3.8164 C   0  0  0  0  0  0  0  0  0  0  0  0
    2.9948    7.6578   -5.2105 C   0  0  0  0  0  0  0  0  0  0  0  0
    3.3297    8.8488   -5.8444 C   0  0  0  0  0  0  0  0  0  0  0  0
    3.6248    9.9860   -5.1055 C   0  0  0  0  0  0  0  0  0  0  0  0
    3.6081    9.9233   -3.7113 C   0  0  0  0  0  0  0  0  0  0  0  0
    3.4017    8.8936   -7.1806 F   0  0  0  0  0  0  0  0  0  0  0  0
    3.1666    6.4153   -0.6328 N   0  0  0  0  0  0  0  0  0  0  0  0
    0.9613    9.5454   -0.2328 C   0  0  0  0  0  0  0  0  0  0  0  0
   -0.0534   10.2038    0.6729 C   0  0  0  0  0  0  0  0  0  0  0  0
    1.3895   10.5847    0.7864 C   0  0  0  0  0  0  0  0  0  0  0  0
    6.7427    1.3912   -1.4662 N   0  0  0  0  0  0  0  0  0  0  0  0
    7.8562    1.8302   -2.1771 O   0  0  0  0  0  0  0  0  0  0  0  0
    9.3964    3.1599   -3.6567 H   0  0  0  0  0  0  0  0  0  0  0  0
    9.3766    4.4163   -2.4066 H   0  0  0  0  0  0  0  0  0  0  0  0
    8.3412    4.5716   -3.8405 H   0  0  0  0  0  0  0  0  0  0  0  0
    4.8765    2.1744    0.4210 H   0  0  0  0  0  0  0  0  0  0  0  0
    4.1319    0.4717   -1.2270 H   0  0  0  0  0  0  0  0  0  0  0  0
    2.7949    1.3965   -0.5829 H   0  0  0  0  0  0  0  0  0  0  0  0
    3.0212    2.8880   -2.7379 H   0  0  0  0  0  0  0  0  0  0  0  0
    4.3333    0.1979   -3.6713 H   0  0  0  0  0  0  0  0  0  0  0  0
    3.8147    1.5702   -4.7456 H   0  0  0  0  0  0  0  0  0  0  0  0
    1.4518    1.3430   -3.8910 H   0  0  0  0  0  0  0  0  0  0  0  0
    1.9770   -0.0307   -2.8210 H   0  0  0  0  0  0  0  0  0  0  0  0
    4.5506    4.5871   -1.0713 H   0  0  0  0  0  0  0  0  0  0  0  0
    0.8857    5.1728    1.5423 H   0  0  0  0  0  0  0  0  0  0  0  0
   -0.0229    7.4512    1.3218 H   0  0  0  0  0  0  0  0  0  0  0  0
    4.5630    8.3784   -1.3856 H   0  0  0  0  0  0  0  0  0  0  0  0
    3.4201    9.6573   -1.1155 H   0  0  0  0  0  0  0  0  0  0  0  0
    2.7541    6.6402   -3.3416 H   0  0  0  0  0  0  0  0  0  0  0  0
    2.7735    6.7796   -5.8109 H   0  0  0  0  0  0  0  0  0  0  0  0
    3.8971   10.9042   -5.6181 H   0  0  0  0  0  0  0  0  0  0  0  0
    3.8760   10.8136   -3.1451 H   0  0  0  0  0  0  0  0  0  0  0  0
    0.8932    9.8790   -1.2685 H   0  0  0  0  0  0  0  0  0  0  0  0
   -0.4984    9.6587    1.4950 H   0  0  0  0  0  0  0  0  0  0  0  0
   -0.7269   10.9308    0.2287 H   0  0  0  0  0  0  0  0  0  0  0  0
    1.6984   11.5560    0.4184 H   0  0  0  0  0  0  0  0  0  0  0  0
    1.9125   10.2655    1.6821 H   0  0  0  0  0  0  0  0  0  0  0  0
  1  2  1  0  0  0  0
  1 32  1  0  0  0  0
  1 33  1  0  0  0  0
  1 34  1  0  0  0  0
  2 31  1  0  0  0  0
  2  3  2  0  0  0  0
  3  4  1  0  0  0  0
  4 30  2  0  0  0  0
  5 10  1  0  0  0  0
  5  6  1  0  0  0  0
  5  4  1  0  0  0  0
  5 35  1  1  0  0  0
  6  7  1  0  0  0  0
  6 36  1  0  0  0  0
  6 37  1  0  0  0  0
  7  9  1  0  0  0  0
  7  8  1  0  0  0  0
  7 38  1  0  0  0  0
  8  9  1  0  0  0  0
  8 39  1  0  0  0  0
  8 40  1  0  0  0  0
  9 41  1  0  0  0  0
  9 42  1  0  0  0  0
 10 11  1  0  0  0  0
 10 43  1  0  0  0  0
 11 12  2  0  0  0  0
 11 13  1  0  0  0  0
 13 26  2  0  0  0  0
 13 14  1  0  0  0  0
 14 15  2  0  0  0  0
 14 44  1  0  0  0  0
 15 16  1  0  0  0  0
 15 45  1  0  0  0  0
 16 17  2  0  0  0  0
 16 27  1  0  0  0  0
 17 18  1  0  0  0  0
 17 26  1  0  0  0  0
 18 19  1  0  0  0  0
 18 46  1  0  0  0  0
 18 47  1  0  0  0  0
 19 24  2  0  0  0  0
 19 20  1  0  0  0  0
 20 21  2  0  0  0  0
 20 48  1  0  0  0  0
 21 22  1  0  0  0  0
 21 49  1  0  0  0  0
 22 23  2  0  0  0  0
 22 25  1  0  0  0  0
 23 24  1  0  0  0  0
 23 50  1  0  0  0  0
 24 51  1  0  0  0  0
 27 29  1  0  0  0  0
 27 28  1  0  0  0  0
 27 52  1  0  0  0  0
 28 29  1  0  0  0  0
 28 53  1  0  0  0  0
 28 54  1  0  0  0  0
 29 55  1  0  0  0  0
 29 56  1  0  0  0  0
 30 31  1  0  0  0  0
M  END
$$$$
CHEMBL3930443_8GUT
 OpenBabel12022418133D

 47 50  0  0  1  0  0  0  0  0999 V2000
    3.6584    0.6442   -1.6115 C   0  0  0  0  0  0  0  0  0  0  0  0
    3.3769    2.0792   -1.2688 C   0  0  0  0  0  0  0  0  0  0  0  0
    2.6016    0.9767   -0.5874 C   0  0  0  0  0  0  0  0  0  0  0  0
    2.8346    0.6797    0.8646 C   0  0  0  0  0  0  0  0  0  0  0  0
    2.9974   -0.7331    1.0211 O   0  0  0  0  0  0  0  0  0  0  0  0
    3.8815   -1.0798    2.0236 C   0  0  0  0  0  0  0  0  0  0  0  0
    3.6663   -2.3020    2.6829 C   0  0  0  0  0  0  0  0  0  0  0  0
    4.5926   -2.6173    3.6913 C   0  0  0  0  0  0  0  0  0  0  0  0
    5.6909   -1.7950    3.9406 C   0  0  0  0  0  0  0  0  0  0  0  0
    5.8444   -0.6603    3.1613 C   0  0  0  0  0  0  0  0  0  0  0  0
    7.0897    0.1680    3.2703 C   0  0  0  0  0  0  0  0  0  0  0  0
    7.9479   -0.0859    4.1127 O   0  0  0  0  0  0  0  0  0  0  0  0
    7.1960    1.1822    2.3503 N   0  0  0  0  0  0  0  0  0  0  0  0
    8.3774    2.0137    2.2042 C   0  0  1  0  0  0  0  0  0  0  0  0
    9.2544    1.4370    1.1157 C   0  0  0  0  0  0  0  0  0  0  0  0
   10.7449    1.2634    1.3116 C   0  0  0  0  0  0  0  0  0  0  0  0
    9.8562    0.0559    1.2501 C   0  0  0  0  0  0  0  0  0  0  0  0
    7.9100    3.4409    1.8352 C   0  0  0  0  0  0  0  0  0  0  0  0
    6.8595    3.6828    1.2374 O   0  0  0  0  0  0  0  0  0  0  0  0
    8.7641    4.4570    2.1525 N   0  0  0  0  0  0  0  0  0  0  0  0
    4.9514   -0.2741    2.2197 N   0  0  0  0  0  0  0  0  0  0  0  0
    2.5997   -3.2946    2.2718 C   0  0  0  0  0  0  0  0  0  0  0  0
    1.6838   -3.9418    3.2857 C   0  0  0  0  0  0  0  0  0  0  0  0
    1.1349   -2.9389    2.3168 C   0  0  0  0  0  0  0  0  0  0  0  0
    3.3282    0.2760   -2.5758 H   0  0  0  0  0  0  0  0  0  0  0  0
    4.5884    0.2074   -1.2642 H   0  0  0  0  0  0  0  0  0  0  0  0
    2.8624    2.6872   -2.0033 H   0  0  0  0  0  0  0  0  0  0  0  0
    4.1355    2.6160   -0.7072 H   0  0  0  0  0  0  0  0  0  0  0  0
    1.5679    0.8203   -0.8718 H   0  0  0  0  0  0  0  0  0  0  0  0
    1.9525    0.9840    1.4405 H   0  0  0  0  0  0  0  0  0  0  0  0
    3.6766    1.2794    1.2267 H   0  0  0  0  0  0  0  0  0  0  0  0
    4.4822   -3.5396    4.2578 H   0  0  0  0  0  0  0  0  0  0  0  0
    6.4313   -2.0623    4.6875 H   0  0  0  0  0  0  0  0  0  0  0  0
    6.4224    1.3175    1.7018 H   0  0  0  0  0  0  0  0  0  0  0  0
    8.9087    2.0520    3.1625 H   0  0  0  0  0  0  0  0  0  0  0  0
    8.9076    1.7181    0.1256 H   0  0  0  0  0  0  0  0  0  0  0  0
   11.1890    1.4979    2.2726 H   0  0  0  0  0  0  0  0  0  0  0  0
   11.4018    1.4385    0.4666 H   0  0  0  0  0  0  0  0  0  0  0  0
    9.8820   -0.5642    0.3611 H   0  0  0  0  0  0  0  0  0  0  0  0
    9.7080   -0.5015    2.1682 H   0  0  0  0  0  0  0  0  0  0  0  0
    9.6349    4.3137    2.6463 H   0  0  0  0  0  0  0  0  0  0  0  0
    8.4840    5.4011    1.9180 H   0  0  0  0  0  0  0  0  0  0  0  0
    2.8999   -3.9364    1.4436 H   0  0  0  0  0  0  0  0  0  0  0  0
    1.7371   -3.6484    4.3273 H   0  0  0  0  0  0  0  0  0  0  0  0
    1.4246   -4.9846    3.1363 H   0  0  0  0  0  0  0  0  0  0  0  0
    0.5156   -3.2964    1.5007 H   0  0  0  0  0  0  0  0  0  0  0  0
    0.8370   -1.9722    2.7039 H   0  0  0  0  0  0  0  0  0  0  0  0
  1  3  1  0  0  0  0
  1  2  1  0  0  0  0
  1 25  1  0  0  0  0
  1 26  1  0  0  0  0
  2  3  1  0  0  0  0
  2 27  1  0  0  0  0
  2 28  1  0  0  0  0
  3  4  1  0  0  0  0
  3 29  1  0  0  0  0
  4  5  1  0  0  0  0
  4 30  1  0  0  0  0
  4 31  1  0  0  0  0
  5  6  1  0  0  0  0
  6 21  2  0  0  0  0
  6  7  1  0  0  0  0
  7  8  2  0  0  0  0
  7 22  1  0  0  0  0
  8  9  1  0  0  0  0
  8 32  1  0  0  0  0
  9 10  2  0  0  0  0
  9 33  1  0  0  0  0
 10 11  1  0  0  0  0
 10 21  1  0  0  0  0
 11 12  2  0  0  0  0
 11 13  1  0  0  0  0
 13 34  1  0  0  0  0
 14 13  1  0  0  0  0
 14 15  1  0  0  0  0
 14 18  1  0  0  0  0
 14 35  1  1  0  0  0
 15 17  1  0  0  0  0
 15 16  1  0  0  0  0
 15 36  1  0  0  0  0
 16 17  1  0  0  0  0
 16 37  1  0  0  0  0
 16 38  1  0  0  0  0
 17 39  1  0  0  0  0
 17 40  1  0  0  0  0
 18 19  2  0  0  0  0
 18 20  1  0  0  0  0
 20 41  1  0  0  0  0
 20 42  1  0  0  0  0
 22 24  1  0  0  0  0
 22 23  1  0  0  0  0
 22 43  1  0  0  0  0
 23 24  1  0  0  0  0
 23 44  1  0  0  0  0
 23 45  1  0  0  0  0
 24 46  1  0  0  0  0
 24 47  1  0  0  0  0
M  END
$$$$
CHEMBL1909860_8GUQ
 OpenBabel12022418133D

 53 56  0  0  0  0  0  0  0  0999 V2000
    3.6937    0.4784    0.8253 C   0  0  0  0  0  0  0  0  0  0  0  0
    2.6560    0.2576   -0.2672 C   0  0  0  0  0  0  0  0  0  0  0  0
    2.9964   -0.8976   -1.1606 C   0  0  0  0  0  0  0  0  0  0  0  0
    3.7704   -0.8376   -2.3770 C   0  0  0  0  0  0  0  0  0  0  0  0
    4.3192    0.3654   -3.0662 C   0  0  0  0  0  0  0  0  0  0  0  0
    4.1725    1.5056   -2.6308 O   0  0  0  0  0  0  0  0  0  0  0  0
    5.0076    0.1050   -4.2392 N   0  0  0  0  0  0  0  0  0  0  0  0
    5.6111    1.1410   -5.0850 C   0  0  0  0  0  0  0  0  0  0  0  0
    6.9080    0.6204   -5.7290 C   0  0  0  0  0  0  0  0  0  0  0  0
    7.5456    1.6410   -6.6739 C   0  0  0  0  0  0  0  0  0  0  0  0
    6.5656    2.1178   -7.7400 C   0  0  0  0  0  0  0  0  0  0  0  0
    5.2842    2.6550   -7.1110 C   0  0  0  0  0  0  0  0  0  0  0  0
    4.6367    1.6353   -6.1674 C   0  0  0  0  0  0  0  0  0  0  0  0
    4.0149   -2.0742   -2.8495 N   0  0  0  0  0  0  0  0  0  0  0  0
    3.2880   -2.9104   -2.0637 N   0  0  0  0  0  0  0  0  0  0  0  0
    3.0229   -4.2286   -2.5398 C   0  0  0  0  0  0  0  0  0  0  0  0
    1.7802   -4.8408   -2.3183 C   0  0  0  0  0  0  0  0  0  0  0  0
    1.5255   -6.1144   -2.8344 C   0  0  0  0  0  0  0  0  0  0  0  0
    2.5068   -6.7854   -3.5688 C   0  0  0  0  0  0  0  0  0  0  0  0
    3.7519   -6.1810   -3.7822 C   0  0  0  0  0  0  0  0  0  0  0  0
    4.0046   -4.8980   -3.2828 C   0  0  0  0  0  0  0  0  0  0  0  0
    5.0228   -6.9694   -4.6479 Cl  0  0  0  0  0  0  0  0  0  0  0  0
    2.1101   -8.3441   -4.1991 Cl  0  0  0  0  0  0  0  0  0  0  0  0
    2.7766   -2.2568   -0.9575 C   0  0  0  0  0  0  0  0  0  0  0  0
    2.2262   -2.9137    0.1553 N   0  0  0  0  0  0  0  0  0  0  0  0
    2.6050   -4.1545    0.6469 C   0  0  0  0  0  0  0  0  0  0  0  0
    1.8188   -4.4915    1.7267 C   0  0  0  0  0  0  0  0  0  0  0  0
    0.9377   -3.4173    1.9423 C   0  0  0  0  0  0  0  0  0  0  0  0
    1.2115   -2.4688    0.9813 C   0  0  0  0  0  0  0  0  0  0  0  0
    3.2919    1.1376    1.6021 H   0  0  0  0  0  0  0  0  0  0  0  0
    4.5930    0.9504    0.4164 H   0  0  0  0  0  0  0  0  0  0  0  0
    3.9948   -0.4603    1.3031 H   0  0  0  0  0  0  0  0  0  0  0  0
    2.5329    1.1772   -0.8469 H   0  0  0  0  0  0  0  0  0  0  0  0
    1.6811    0.1056    0.1977 H   0  0  0  0  0  0  0  0  0  0  0  0
    5.0026   -0.8667   -4.5379 H   0  0  0  0  0  0  0  0  0  0  0  0
    5.8647    1.9922   -4.4413 H   0  0  0  0  0  0  0  0  0  0  0  0
    6.7013   -0.3017   -6.2873 H   0  0  0  0  0  0  0  0  0  0  0  0
    7.6291    0.3553   -4.9466 H   0  0  0  0  0  0  0  0  0  0  0  0
    8.4242    1.1975   -7.1575 H   0  0  0  0  0  0  0  0  0  0  0  0
    7.9029    2.5033   -6.0976 H   0  0  0  0  0  0  0  0  0  0  0  0
    6.3250    1.2883   -8.4159 H   0  0  0  0  0  0  0  0  0  0  0  0
    7.0356    2.8976   -8.3523 H   0  0  0  0  0  0  0  0  0  0  0  0
    4.5781    2.9290   -7.9037 H   0  0  0  0  0  0  0  0  0  0  0  0
    5.5120    3.5749   -6.5583 H   0  0  0  0  0  0  0  0  0  0  0  0
    3.7546    2.0889   -5.7006 H   0  0  0  0  0  0  0  0  0  0  0  0
    4.2740    0.7844   -6.7583 H   0  0  0  0  0  0  0  0  0  0  0  0
    0.9776   -4.3358   -1.7844 H   0  0  0  0  0  0  0  0  0  0  0  0
    0.5524   -6.5732   -2.6693 H   0  0  0  0  0  0  0  0  0  0  0  0
    4.9774   -4.4380   -3.4477 H   0  0  0  0  0  0  0  0  0  0  0  0
    3.4259   -4.7009    0.2024 H   0  0  0  0  0  0  0  0  0  0  0  0
    1.8852   -5.4094    2.2975 H   0  0  0  0  0  0  0  0  0  0  0  0
    0.1733   -3.3424    2.7064 H   0  0  0  0  0  0  0  0  0  0  0  0
    0.7015   -1.5385    0.7931 H   0  0  0  0  0  0  0  0  0  0  0  0
  1  2  1  0  0  0  0
  1 30  1  0  0  0  0
  1 31  1  0  0  0  0
  1 32  1  0  0  0  0
  2  3  1  0  0  0  0
  2 33  1  0  0  0  0
  2 34  1  0  0  0  0
  3 24  2  0  0  0  0
  3  4  1  0  0  0  0
  4  5  1  0  0  0  0
  4 14  2  0  0  0  0
  5  6  2  0  0  0  0
  5  7  1  0  0  0  0
  7  8  1  0  0  0  0
  7 35  1  0  0  0  0
  8 13  1  0  0  0  0
  8  9  1  0  0  0  0
  8 36  1  0  0  0  0
  9 10  1  0  0  0  0
  9 37  1  0  0  0  0
  9 38  1  0  0  0  0
 10 11  1  0  0  0  0
 10 39  1  0  0  0  0
 10 40  1  0  0  0  0
 11 12  1  0  0  0  0
 11 41  1  0  0  0  0
 11 42  1  0  0  0  0
 12 13  1  0  0  0  0
 12 43  1  0  0  0  0
 12 44  1  0  0  0  0
 13 45  1  0  0  0  0
 13 46  1  0  0  0  0
 14 15  1  0  0  0  0
 15 16  1  0  0  0  0
 15 24  1  0  0  0  0
 16 21  2  0  0  0  0
 16 17  1  0  0  0  0
 17 18  2  0  0  0  0
 17 47  1  0  0  0  0
 18 19  1  0  0  0  0
 18 48  1  0  0  0  0
 19 20  2  0  0  0  0
 19 23  1  0  0  0  0
 20 21  1  0  0  0  0
 20 22  1  0  0  0  0
 21 49  1  0  0  0  0
 24 25  1  0  0  0  0
 25 29  1  0  0  0  0
 25 26  1  0  0  0  0
 26 27  2  0  0  0  0
 26 50  1  0  0  0  0
 27 28  1  0  0  0  0
 27 51  1  0  0  0  0
 28 29  2  0  0  0  0
 28 52  1  0  0  0  0
 29 53  1  0  0  0  0
M  END
$$$$
CHEMBL1909957_8GUQ
 OpenBabel12022418133D

 59 62  0  0  0  0  0  0  0  0999 V2000
    3.6741    1.0832    0.7502 C   0  0  0  0  0  0  0  0  0  0  0  0
    2.7775   -0.0156    0.2194 C   0  0  0  0  0  0  0  0  0  0  0  0
    3.1831   -1.4699    0.2684 C   0  0  0  0  0  0  0  0  0  0  0  0
    4.4029   -2.0481    0.8014 C   0  0  0  0  0  0  0  0  0  0  0  0
    5.6070   -1.4141    1.4026 C   0  0  0  0  0  0  0  0  0  0  0  0
    5.5820   -0.3633    2.0374 O   0  0  0  0  0  0  0  0  0  0  0  0
    6.7953   -2.1015    1.1858 N   0  0  0  0  0  0  0  0  0  0  0  0
    8.0740   -1.6059    1.6908 C   0  0  0  0  0  0  0  0  0  0  0  0
    8.2571   -1.9400    3.1783 C   0  0  0  0  0  0  0  0  0  0  0  0
    9.6246   -1.5049    3.7062 C   0  0  0  0  0  0  0  0  0  0  0  0
   10.7634   -2.0653    2.8616 C   0  0  0  0  0  0  0  0  0  0  0  0
   10.5963   -1.6878    1.3939 C   0  0  0  0  0  0  0  0  0  0  0  0
    9.2402   -2.1387    0.8483 C   0  0  0  0  0  0  0  0  0  0  0  0
    4.3644   -3.3876    0.7238 N   0  0  0  0  0  0  0  0  0  0  0  0
    3.2149   -3.6981    0.0813 N   0  0  0  0  0  0  0  0  0  0  0  0
    3.0750   -5.0585   -0.3171 C   0  0  0  0  0  0  0  0  0  0  0  0
    2.5413   -5.4099   -1.5599 C   0  0  0  0  0  0  0  0  0  0  0  0
    2.3681   -6.7620   -1.8776 C   0  0  0  0  0  0  0  0  0  0  0  0
    2.7167   -7.7611   -0.9602 C   0  0  0  0  0  0  0  0  0  0  0  0
    3.2541   -7.4088    0.2822 C   0  0  0  0  0  0  0  0  0  0  0  0
    3.4576   -6.0615    0.5937 C   0  0  0  0  0  0  0  0  0  0  0  0
    3.6399   -8.5822    1.4912 Cl  0  0  0  0  0  0  0  0  0  0  0  0
    2.4499   -9.4049   -1.4205 Cl  0  0  0  0  0  0  0  0  0  0  0  0
    2.4253   -2.5814   -0.1695 C   0  0  0  0  0  0  0  0  0  0  0  0
    1.0951   -2.6451   -0.6975 N   0  0  0  0  0  0  0  0  0  0  0  0
    0.1064   -3.6248   -0.4314 C   0  0  0  0  0  0  0  0  0  0  0  0
    0.1651   -4.7502    0.5484 C   0  0  0  0  0  0  0  0  0  0  0  0
   -1.0185   -3.3675   -1.1919 C   0  0  0  0  0  0  0  0  0  0  0  0
   -0.8054   -2.1789   -1.8772 C   0  0  0  0  0  0  0  0  0  0  0  0
    0.4862   -1.7657   -1.6160 C   0  0  0  0  0  0  0  0  0  0  0  0
    1.1116   -0.6216   -2.3272 C   0  0  0  0  0  0  0  0  0  0  0  0
    3.2504    2.0594    0.4837 H   0  0  0  0  0  0  0  0  0  0  0  0
    4.6670    1.0466    0.2892 H   0  0  0  0  0  0  0  0  0  0  0  0
    3.7527    1.0623    1.8387 H   0  0  0  0  0  0  0  0  0  0  0  0
    2.7026    0.2560   -0.8272 H   0  0  0  0  0  0  0  0  0  0  0  0
    1.7875    0.0896    0.6780 H   0  0  0  0  0  0  0  0  0  0  0  0
    6.6873   -3.0622    0.8772 H   0  0  0  0  0  0  0  0  0  0  0  0
    8.0595   -0.5119    1.5906 H   0  0  0  0  0  0  0  0  0  0  0  0
    8.1363   -3.0193    3.3318 H   0  0  0  0  0  0  0  0  0  0  0  0
    7.4755   -1.4516    3.7725 H   0  0  0  0  0  0  0  0  0  0  0  0
    9.7404   -1.8358    4.7446 H   0  0  0  0  0  0  0  0  0  0  0  0
    9.6837   -0.4091    3.7140 H   0  0  0  0  0  0  0  0  0  0  0  0
   10.7907   -3.1575    2.9592 H   0  0  0  0  0  0  0  0  0  0  0  0
   11.7226   -1.6883    3.2356 H   0  0  0  0  0  0  0  0  0  0  0  0
   11.4026   -2.1395    0.8045 H   0  0  0  0  0  0  0  0  0  0  0  0
   10.6948   -0.6003    1.2845 H   0  0  0  0  0  0  0  0  0  0  0  0
    9.1383   -1.7949   -0.1884 H   0  0  0  0  0  0  0  0  0  0  0  0
    9.2102   -3.2350    0.8174 H   0  0  0  0  0  0  0  0  0  0  0  0
    2.2548   -4.6572   -2.2906 H   0  0  0  0  0  0  0  0  0  0  0  0
    1.9411   -7.0321   -2.8410 H   0  0  0  0  0  0  0  0  0  0  0  0
    3.8468   -5.7924    1.5755 H   0  0  0  0  0  0  0  0  0  0  0  0
    0.9549   -4.6518    1.2915 H   0  0  0  0  0  0  0  0  0  0  0  0
    0.2606   -5.7039    0.0173 H   0  0  0  0  0  0  0  0  0  0  0  0
   -0.7808   -4.8105    1.0994 H   0  0  0  0  0  0  0  0  0  0  0  0
   -1.9195   -3.9694   -1.2077 H   0  0  0  0  0  0  0  0  0  0  0  0
   -1.4988   -1.6835   -2.5465 H   0  0  0  0  0  0  0  0  0  0  0  0
    2.1831   -0.7576   -2.4778 H   0  0  0  0  0  0  0  0  0  0  0  0
    0.8864    0.3149   -1.8033 H   0  0  0  0  0  0  0  0  0  0  0  0
    0.6790   -0.5176   -3.3280 H   0  0  0  0  0  0  0  0  0  0  0  0
  1  2  1  0  0  0  0
  1 32  1  0  0  0  0
  1 33  1  0  0  0  0
  1 34  1  0  0  0  0
  2  3  1  0  0  0  0
  2 35  1  0  0  0  0
  2 36  1  0  0  0  0
  3 24  2  0  0  0  0
  3  4  1  0  0  0  0
  4  5  1  0  0  0  0
  4 14  2  0  0  0  0
  5  6  2  0  0  0  0
  5  7  1  0  0  0  0
  7  8  1  0  0  0  0
  7 37  1  0  0  0  0
  8 13  1  0  0  0  0
  8  9  1  0  0  0  0
  8 38  1  0  0  0  0
  9 10  1  0  0  0  0
  9 39  1  0  0  0  0
  9 40  1  0  0  0  0
 10 11  1  0  0  0  0
 10 41  1  0  0  0  0
 10 42  1  0  0  0  0
 11 12  1  0  0  0  0
 11 43  1  0  0  0  0
 11 44  1  0  0  0  0
 12 13  1  0  0  0  0
 12 45  1  0  0  0  0
 12 46  1  0  0  0  0
 13 47  1  0  0  0  0
 13 48  1  0  0  0  0
 14 15  1  0  0  0  0
 15 16  1  0  0  0  0
 15 24  1  0  0  0  0
 16 21  2  0  0  0  0
 16 17  1  0  0  0  0
 17 18  2  0  0  0  0
 17 49  1  0  0  0  0
 18 19  1  0  0  0  0
 18 50  1  0  0  0  0
 19 20  2  0  0  0  0
 19 23  1  0  0  0  0
 20 21  1  0  0  0  0
 20 22  1  0  0  0  0
 21 51  1  0  0  0  0
 24 25  1  0  0  0  0
 25 30  1  0  0  0  0
 25 26  1  0  0  0  0
 26 27  1  0  0  0  0
 26 28  2  0  0  0  0
 27 52  1  0  0  0  0
 27 53  1  0  0  0  0
 27 54  1  0  0  0  0
 28 29  1  0  0  0  0
 28 55  1  0  0  0  0
 29 30  2  0  0  0  0
 29 56  1  0  0  0  0
 30 31  1  0  0  0  0
 31 57  1  0  0  0  0
 31 58  1  0  0  0  0
 31 59  1  0  0  0  0
M  END
$$$$
CHEMBL1909855_5ZTY
 OpenBabel12022418133D

 47 50  0  0  0  0  0  0  0  0999 V2000
    1.1156    0.2487    0.0661 C   0  0  0  0  0  0  0  0  0  0  0  0
    2.5857    0.0110    0.0692 C   0  0  0  0  0  0  0  0  0  0  0  0
    3.5826    1.0409    0.1225 C   0  0  0  0  0  0  0  0  0  0  0  0
    3.3713    2.5122    0.0821 C   0  0  0  0  0  0  0  0  0  0  0  0
    2.2569    3.0249    0.0644 O   0  0  0  0  0  0  0  0  0  0  0  0
    4.5388    3.2444    0.0617 N   0  0  0  0  0  0  0  0  0  0  0  0
    4.5645    4.6844    0.1461 C   0  0  0  0  0  0  0  0  0  0  0  0
    4.6847    5.3515   -1.2033 C   0  0  0  0  0  0  0  0  0  0  0  0
    3.5353    5.6887   -1.9325 C   0  0  0  0  0  0  0  0  0  0  0  0
    3.6374    6.3276   -3.1722 C   0  0  0  0  0  0  0  0  0  0  0  0
    4.8913    6.6316   -3.7064 C   0  0  0  0  0  0  0  0  0  0  0  0
    6.0463    6.2953   -2.9938 C   0  0  0  0  0  0  0  0  0  0  0  0
    5.9414    5.6568   -1.7497 C   0  0  0  0  0  0  0  0  0  0  0  0
    7.6320    6.6470   -3.5855 Cl  0  0  0  0  0  0  0  0  0  0  0  0
    4.9433    7.4210   -5.2432 Cl  0  0  0  0  0  0  0  0  0  0  0  0
    4.8149    0.5163    0.2604 N   0  0  0  0  0  0  0  0  0  0  0  0
    4.6469   -0.8257    0.1165 N   0  0  0  0  0  0  0  0  0  0  0  0
    5.7967   -1.6108   -0.1853 C   0  0  0  0  0  0  0  0  0  0  0  0
    5.7239   -2.6895   -1.0761 C   0  0  0  0  0  0  0  0  0  0  0  0
    6.8618   -3.4581   -1.3329 C   0  0  0  0  0  0  0  0  0  0  0  0
    8.0747   -3.1549   -0.7075 C   0  0  0  0  0  0  0  0  0  0  0  0
    8.1516   -2.0717    0.1759 C   0  0  0  0  0  0  0  0  0  0  0  0
    7.0194   -1.2876    0.4223 C   0  0  0  0  0  0  0  0  0  0  0  0
    9.6087   -1.6636    1.0108 Cl  0  0  0  0  0  0  0  0  0  0  0  0
    9.4376   -4.1489   -1.0803 Cl  0  0  0  0  0  0  0  0  0  0  0  0
    3.3069   -1.1753    0.1223 C   0  0  0  0  0  0  0  0  0  0  0  0
    2.8190   -2.4918    0.1797 N   0  0  0  0  0  0  0  0  0  0  0  0
    1.7110   -2.9546   -0.5212 C   0  0  0  0  0  0  0  0  0  0  0  0
    1.5807   -4.3166   -0.3527 C   0  0  0  0  0  0  0  0  0  0  0  0
    2.6101   -4.7281    0.5150 C   0  0  0  0  0  0  0  0  0  0  0  0
    3.2991   -3.5950    0.8702 C   0  0  0  0  0  0  0  0  0  0  0  0
    4.4869   -3.4660    2.0963 Cl  0  0  0  0  0  0  0  0  0  0  0  0
    0.5343   -0.6644    0.2034 H   0  0  0  0  0  0  0  0  0  0  0  0
    0.8075    0.7129   -0.8759 H   0  0  0  0  0  0  0  0  0  0  0  0
    0.8368    0.9131    0.8906 H   0  0  0  0  0  0  0  0  0  0  0  0
    5.4014    2.7104    0.0754 H   0  0  0  0  0  0  0  0  0  0  0  0
    5.4182    4.9615    0.7751 H   0  0  0  0  0  0  0  0  0  0  0  0
    3.6660    5.0469    0.6598 H   0  0  0  0  0  0  0  0  0  0  0  0
    2.5480    5.4600   -1.5320 H   0  0  0  0  0  0  0  0  0  0  0  0
    2.7317    6.5881   -3.7152 H   0  0  0  0  0  0  0  0  0  0  0  0
    6.8468    5.4076   -1.2000 H   0  0  0  0  0  0  0  0  0  0  0  0
    4.8068   -2.9376   -1.6048 H   0  0  0  0  0  0  0  0  0  0  0  0
    6.7956   -4.2943   -2.0259 H   0  0  0  0  0  0  0  0  0  0  0  0
    7.0820   -0.4602    1.1271 H   0  0  0  0  0  0  0  0  0  0  0  0
    1.1343   -2.2855   -1.1432 H   0  0  0  0  0  0  0  0  0  0  0  0
    0.8173   -4.9397   -0.8020 H   0  0  0  0  0  0  0  0  0  0  0  0
    2.7923   -5.7282    0.8869 H   0  0  0  0  0  0  0  0  0  0  0  0
  1  2  1  0  0  0  0
  1 33  1  0  0  0  0
  1 34  1  0  0  0  0
  1 35  1  0  0  0  0
  2 26  2  0  0  0  0
  2  3  1  0  0  0  0
  3  4  1  0  0  0  0
  3 16  2  0  0  0  0
  4  5  2  0  0  0  0
  4  6  1  0  0  0  0
  6  7  1  0  0  0  0
  6 36  1  0  0  0  0
  7  8  1  0  0  0  0
  7 37  1  0  0  0  0
  7 38  1  0  0  0  0
  8 13  2  0  0  0  0
  8  9  1  0  0  0  0
  9 10  2  0  0  0  0
  9 39  1  0  0  0  0
 10 11  1  0  0  0  0
 10 40  1  0  0  0  0
 11 12  2  0  0  0  0
 11 15  1  0  0  0  0
 12 13  1  0  0  0  0
 12 14  1  0  0  0  0
 13 41  1  0  0  0  0
 16 17  1  0  0  0  0
 17 18  1  0  0  0  0
 17 26  1  0  0  0  0
 18 23  2  0  0  0  0
 18 19  1  0  0  0  0
 19 20  2  0  0  0  0
 19 42  1  0  0  0  0
 20 21  1  0  0  0  0
 20 43  1  0  0  0  0
 21 22  2  0  0  0  0
 21 25  1  0  0  0  0
 22 23  1  0  0  0  0
 22 24  1  0  0  0  0
 23 44  1  0  0  0  0
 26 27  1  0  0  0  0
 27 31  1  0  0  0  0
 27 28  1  0  0  0  0
 28 29  2  0  0  0  0
 28 45  1  0  0  0  0
 29 30  1  0  0  0  0
 29 46  1  0  0  0  0
 30 31  2  0  0  0  0
 30 47  1  0  0  0  0
 31 32  1  0  0  0  0
M  END
$$$$
CHEMBL374791_8GUQ
 OpenBabel12022418133D

 57 59  0  0  1  0  0  0  0  0999 V2000
    0.8933   -0.2659    0.3350 C   0  0  0  0  0  0  0  0  0  0  0  0
    2.4118   -0.0722    0.1907 C   0  0  1  0  0  0  0  0  0  0  0  0
    2.8329    1.4177    0.4422 C   0  0  1  0  0  0  0  0  0  0  0  0
    4.3807    1.6384    0.4761 C   0  0  0  0  0  0  0  0  0  0  0  0
    5.2521    1.5420   -0.7644 C   0  0  0  0  0  0  0  0  0  0  0  0
    6.6039    1.9173   -0.6600 C   0  0  0  0  0  0  0  0  0  0  0  0
    7.4324    1.9644   -1.7885 C   0  0  0  0  0  0  0  0  0  0  0  0
    6.9161    1.6458   -3.0399 C   0  0  0  0  0  0  0  0  0  0  0  0
    5.6049    1.2141   -3.1589 C   0  0  0  0  0  0  0  0  0  0  0  0
    4.7960    1.1383   -2.0207 C   0  0  0  0  0  0  0  0  0  0  0  0
    7.8906    1.7998   -4.4474 Cl  0  0  0  0  0  0  0  0  0  0  0  0
    2.1468    2.4885   -0.4248 C   0  0  0  0  0  0  0  0  0  0  0  0
    1.6679    2.2262   -1.7197 C   0  0  0  0  0  0  0  0  0  0  0  0
    1.1136    3.2314   -2.5128 C   0  0  0  0  0  0  0  0  0  0  0  0
    0.9929    4.5248   -2.0135 C   0  0  0  0  0  0  0  0  0  0  0  0
    1.4295    4.8051   -0.7232 C   0  0  0  0  0  0  0  0  0  0  0  0
    2.0079    3.8003    0.0637 C   0  0  0  0  0  0  0  0  0  0  0  0
    3.0780   -1.0276    1.0913 N   0  0  0  0  0  0  0  0  0  0  0  0
    3.2999   -2.3439    0.7242 C   0  0  0  0  0  0  0  0  0  0  0  0
    3.0934   -2.7213   -0.4331 O   0  0  0  0  0  0  0  0  0  0  0  0
    3.8554   -3.3258    1.8206 C   0  0  0  0  0  0  0  0  0  0  0  0
    3.3256   -3.0498    3.2382 C   0  0  0  0  0  0  0  0  0  0  0  0
    3.3245   -4.7367    1.4559 C   0  0  0  0  0  0  0  0  0  0  0  0
    5.2721   -3.5242    1.7933 O   0  0  0  0  0  0  0  0  0  0  0  0
    6.0821   -2.4255    1.8792 C   0  0  0  0  0  0  0  0  0  0  0  0
    7.3210   -2.5240    1.2637 C   0  0  0  0  0  0  0  0  0  0  0  0
    8.2313   -1.4872    1.4320 C   0  0  0  0  0  0  0  0  0  0  0  0
    7.8820   -0.4053    2.2274 C   0  0  0  0  0  0  0  0  0  0  0  0
    6.6266   -0.4061    2.8158 C   0  0  0  0  0  0  0  0  0  0  0  0
    5.7113   -1.3895    2.6581 N   0  0  0  0  0  0  0  0  0  0  0  0
    0.3196    0.4140   -0.2987 H   0  0  0  0  0  0  0  0  0  0  0  0
    0.5726   -0.1109    1.3705 H   0  0  0  0  0  0  0  0  0  0  0  0
    0.6068   -1.2835    0.0478 H   0  0  0  0  0  0  0  0  0  0  0  0
    2.6761   -0.3636   -0.8278 H   0  0  0  0  0  0  0  0  0  0  0  0
    2.4968    1.6267    1.4720 H   0  0  0  0  0  0  0  0  0  0  0  0
    4.8051    0.9664    1.2279 H   0  0  0  0  0  0  0  0  0  0  0  0
    4.5451    2.6522    0.8733 H   0  0  0  0  0  0  0  0  0  0  0  0
    7.0206    2.1957    0.3058 H   0  0  0  0  0  0  0  0  0  0  0  0
    8.4696    2.2698   -1.6873 H   0  0  0  0  0  0  0  0  0  0  0  0
    5.1861    0.9479   -4.1236 H   0  0  0  0  0  0  0  0  0  0  0  0
    3.7945    0.7699   -2.1732 H   0  0  0  0  0  0  0  0  0  0  0  0
    1.7222    1.2299   -2.1517 H   0  0  0  0  0  0  0  0  0  0  0  0
    0.7814    3.0000   -3.5217 H   0  0  0  0  0  0  0  0  0  0  0  0
    0.5599    5.3043   -2.6332 H   0  0  0  0  0  0  0  0  0  0  0  0
    1.3272    5.8133   -0.3306 H   0  0  0  0  0  0  0  0  0  0  0  0
    2.3491    4.0572    1.0643 H   0  0  0  0  0  0  0  0  0  0  0  0
    3.2142   -0.7713    2.0609 H   0  0  0  0  0  0  0  0  0  0  0  0
    2.2326   -3.1179    3.2675 H   0  0  0  0  0  0  0  0  0  0  0  0
    3.5893   -2.0596    3.6159 H   0  0  0  0  0  0  0  0  0  0  0  0
    3.7418   -3.7662    3.9562 H   0  0  0  0  0  0  0  0  0  0  0  0
    2.2360   -4.7460    1.3376 H   0  0  0  0  0  0  0  0  0  0  0  0
    3.5929   -5.4672    2.2300 H   0  0  0  0  0  0  0  0  0  0  0  0
    3.7759   -5.1044    0.5265 H   0  0  0  0  0  0  0  0  0  0  0  0
    7.5705   -3.3981    0.6697 H   0  0  0  0  0  0  0  0  0  0  0  0
    9.2067   -1.5271    0.9569 H   0  0  0  0  0  0  0  0  0  0  0  0
    8.5693    0.4179    2.3905 H   0  0  0  0  0  0  0  0  0  0  0  0
    6.3163    0.4116    3.4573 H   0  0  0  0  0  0  0  0  0  0  0  0
  1 31  1  0  0  0  0
  1 32  1  0  0  0  0
  1 33  1  0  0  0  0
  2  1  1  0  0  0  0
  2  3  1  0  0  0  0
  2 18  1  0  0  0  0
  2 34  1  6  0  0  0
  3  4  1  0  0  0  0
  3 12  1  0  0  0  0
  3 35  1  1  0  0  0
  4  5  1  0  0  0  0
  4 36  1  0  0  0  0
  4 37  1  0  0  0  0
  5 10  2  0  0  0  0
  5  6  1  0  0  0  0
  6  7  2  0  0  0  0
  6 38  1  0  0  0  0
  7  8  1  0  0  0  0
  7 39  1  0  0  0  0
  8  9  2  0  0  0  0
  8 11  1  0  0  0  0
  9 10  1  0  0  0  0
  9 40  1  0  0  0  0
 10 41  1  0  0  0  0
 12 17  2  0  0  0  0
 12 13  1  0  0  0  0
 13 14  2  0  0  0  0
 13 42  1  0  0  0  0
 14 15  1  0  0  0  0
 14 43  1  0  0  0  0
 15 16  2  0  0  0  0
 15 44  1  0  0  0  0
 16 17  1  0  0  0  0
 16 45  1  0  0  0  0
 17 46  1  0  0  0  0
 18 19  1  0  0  0  0
 18 47  1  0  0  0  0
 19 20  2  0  0  0  0
 19 21  1  0  0  0  0
 21 22  1  0  0  0  0
 21 23  1  0  0  0  0
 21 24  1  0  0  0  0
 22 48  1  0  0  0  0
 22 49  1  0  0  0  0
 22 50  1  0  0  0  0
 23 51  1  0  0  0  0
 23 52  1  0  0  0  0
 23 53  1  0  0  0  0
 24 25  1  0  0  0  0
 25 30  2  0  0  0  0
 25 26  1  0  0  0  0
 26 27  2  0  0  0  0
 26 54  1  0  0  0  0
 27 28  1  0  0  0  0
 27 55  1  0  0  0  0
 28 29  2  0  0  0  0
 28 56  1  0  0  0  0
 29 30  1  0  0  0  0
 29 57  1  0  0  0  0
M  END
$$$$
CHEMBL4649714_5ZTY
 OpenBabel12022418133D

 60 64  0  0  1  0  0  0  0  0999 V2000
    1.8654   -0.4578   -1.6899 C   0  0  0  0  0  0  0  0  0  0  0  0
    0.5368    0.0844   -1.7276 C   0  0  0  0  0  0  0  0  0  0  0  0
    0.2929    1.3948   -1.4680 C   0  0  0  0  0  0  0  0  0  0  0  0
    1.4574    2.3356   -1.3291 C   0  0  0  0  0  0  0  0  0  0  0  0
    1.2320    3.5438   -1.2383 O   0  0  0  0  0  0  0  0  0  0  0  0
    2.7645    1.7895   -1.1996 N   0  0  0  0  0  0  0  0  0  0  0  0
    2.9312    0.4321   -1.4624 C   0  0  0  0  0  0  0  0  0  0  0  0
    4.0479   -0.3509   -1.4578 C   0  0  0  0  0  0  0  0  0  0  0  0
    3.5831   -1.6360   -1.3258 N   0  0  0  0  0  0  0  0  0  0  0  0
    4.3491   -2.7034   -0.7136 C   0  0  0  0  0  0  0  0  0  0  0  0
    2.2541   -1.7425   -1.5807 N   0  0  0  0  0  0  0  0  0  0  0  0
    3.5767    2.4326   -0.1675 C   0  0  0  0  0  0  0  0  0  0  0  0
    5.0991    2.4468   -0.3147 C   0  0  0  0  0  0  0  0  0  0  0  0
    5.5500    3.2379   -1.5321 C   0  0  0  0  0  0  0  0  0  0  0  0
    7.0639    3.2811   -1.5997 C   0  0  0  0  0  0  0  0  0  0  0  0
   -0.9874    1.6772   -0.7252 C   0  0  0  0  0  0  0  0  0  0  0  0
   -1.2964    0.7698    0.0607 O   0  0  0  0  0  0  0  0  0  0  0  0
   -1.6856    2.9419   -0.7058 N   0  0  0  0  0  0  0  0  0  0  0  0
   -2.6687    3.0937    0.4574 C   0  0  2  0  0  0  0  0  0  0  0  0
   -1.6942    3.1301    1.6370 C   0  0  0  0  0  0  0  0  0  0  0  0
   -2.5680    3.9400    2.4901 C   0  0  2  0  0  0  0  0  0  0  0  0
   -4.0412    2.8026    2.4558 C   0  0  0  0  0  0  0  0  0  0  0  0
   -4.7755    2.5326    0.7645 C   0  0  2  0  0  0  0  0  0  0  0  0
   -3.5970    1.8964    0.1989 C   0  0  0  0  0  0  0  0  0  0  0  0
   -4.8725    4.0041   -0.4554 C   0  0  0  0  0  0  0  0  0  0  0  0
   -3.7858    5.4184    0.0104 C   0  0  1  0  0  0  0  0  0  0  0  0
   -2.6083    5.5166    1.4130 C   0  0  0  0  0  0  0  0  0  0  0  0
   -3.9569    4.4564    0.9796 C   0  0  0  0  0  0  0  0  0  0  0  0
   -2.8643    5.3964   -1.0648 O   0  0  0  0  0  0  0  0  0  0  0  0
   -0.4456   -0.8938   -1.8478 O   0  0  0  0  0  0  0  0  0  0  0  0
    5.1058   -0.1602   -1.4282 H   0  0  0  0  0  0  0  0  0  0  0  0
    4.6508   -3.4235   -1.4744 H   0  0  0  0  0  0  0  0  0  0  0  0
    3.7523   -3.1716    0.0755 H   0  0  0  0  0  0  0  0  0  0  0  0
    5.2412   -2.2675   -0.2482 H   0  0  0  0  0  0  0  0  0  0  0  0
    3.3325    1.9121    0.7639 H   0  0  0  0  0  0  0  0  0  0  0  0
    3.2625    3.4591   -0.0315 H   0  0  0  0  0  0  0  0  0  0  0  0
    5.5001    2.9144    0.5917 H   0  0  0  0  0  0  0  0  0  0  0  0
    5.5238    1.4431   -0.3182 H   0  0  0  0  0  0  0  0  0  0  0  0
    5.1607    4.2599   -1.4652 H   0  0  0  0  0  0  0  0  0  0  0  0
    5.1533    2.7955   -2.4522 H   0  0  0  0  0  0  0  0  0  0  0  0
    7.4930    3.6082   -0.6458 H   0  0  0  0  0  0  0  0  0  0  0  0
    7.4709    2.2906   -1.8321 H   0  0  0  0  0  0  0  0  0  0  0  0
    7.3884    3.9773   -2.3767 H   0  0  0  0  0  0  0  0  0  0  0  0
   -1.2343    3.7655   -1.0924 H   0  0  0  0  0  0  0  0  0  0  0  0
   -1.4172    2.1658    2.0594 H   0  0  0  0  0  0  0  0  0  0  0  0
   -0.7758    3.6935    1.4141 H   0  0  0  0  0  0  0  0  0  0  0  0
   -2.2162    4.1562    3.5009 H   0  0  0  0  0  0  0  0  0  0  0  0
   -3.6783    1.8233    2.8035 H   0  0  0  0  0  0  0  0  0  0  0  0
   -4.8134    3.1709    3.1379 H   0  0  0  0  0  0  0  0  0  0  0  0
   -5.6912    1.9389    0.7717 H   0  0  0  0  0  0  0  0  0  0  0  0
   -3.3595    0.9637    0.7059 H   0  0  0  0  0  0  0  0  0  0  0  0
   -3.7519    1.6981   -0.8722 H   0  0  0  0  0  0  0  0  0  0  0  0
   -4.6695    3.6648   -1.4772 H   0  0  0  0  0  0  0  0  0  0  0  0
   -5.9234    4.3627   -0.4116 H   0  0  0  0  0  0  0  0  0  0  0  0
   -1.6010    5.7775    1.0744 H   0  0  0  0  0  0  0  0  0  0  0  0
   -2.9623    6.3316    2.0853 H   0  0  0  0  0  0  0  0  0  0  0  0
   -4.1716    4.8720    2.0385 H   0  0  0  0  0  0  0  0  0  0  0  0
   -5.0668    4.3366    1.3003 H   0  0  0  0  0  0  0  0  0  0  0  0
   -3.3921    5.4628   -1.8794 H   0  0  0  0  0  0  0  0  0  0  0  0
    0.0218   -1.7567   -1.8003 H   0  0  0  0  0  0  0  0  0  0  0  0
  1  7  1  0  0  0  0
  1 11  2  0  0  0  0
  1  2  1  0  0  0  0
  2  3  2  0  0  0  0
  2 30  1  0  0  0  0
  3  4  1  0  0  0  0
  3 16  1  0  0  0  0
  4  5  2  0  0  0  0
  4  6  1  0  0  0  0
  6  7  1  0  0  0  0
  6 12  1  0  0  0  0
  7  8  2  0  0  0  0
  8  9  1  0  0  0  0
  8 31  1  0  0  0  0
  9 10  1  0  0  0  0
  9 11  1  0  0  0  0
 10 32  1  0  0  0  0
 10 33  1  0  0  0  0
 10 34  1  0  0  0  0
 12 13  1  0  0  0  0
 12 35  1  0  0  0  0
 12 36  1  0  0  0  0
 13 14  1  0  0  0  0
 13 37  1  0  0  0  0
 13 38  1  0  0  0  0
 14 15  1  0  0  0  0
 14 39  1  0  0  0  0
 14 40  1  0  0  0  0
 15 41  1  0  0  0  0
 15 42  1  0  0  0  0
 15 43  1  0  0  0  0
 16 17  2  0  0  0  0
 16 18  1  0  0  0  0
 18 44  1  0  0  0  0
 19 24  1  0  0  0  0
 19 28  1  0  0  0  0
 19 20  1  0  0  0  0
 19 18  1  6  0  0  0
 20 45  1  0  0  0  0
 20 46  1  0  0  0  0
 21 20  1  0  0  0  0
 21 22  1  0  0  0  0
 21 27  1  0  0  0  0
 21 47  1  1  0  0  0
 22 48  1  0  0  0  0
 22 49  1  0  0  0  0
 23 22  1  0  0  0  0
 23 24  1  0  0  0  0
 23 25  1  0  0  0  0
 23 50  1  6  0  0  0
 24 51  1  0  0  0  0
 24 52  1  0  0  0  0
 25 26  1  0  0  0  0
 25 53  1  0  0  0  0
 25 54  1  0  0  0  0
 26 27  1  0  0  0  0
 26 28  1  0  0  0  0
 26 29  1  6  0  0  0
 27 55  1  0  0  0  0
 27 56  1  0  0  0  0
 28 57  1  0  0  0  0
 28 58  1  0  0  0  0
 29 59  1  0  0  0  0
 30 60  1  0  0  0  0
M  END
$$$$
CHEMBL3409151_8GUS
 OpenBabel12022418133D

 51 53  0  0  0  0  0  0  0  0999 V2000
   -2.5538    0.6497   -0.0885 C   0  0  0  0  0  0  0  0  0  0  0  0
   -2.5234   -0.7399   -0.0703 C   0  0  0  0  0  0  0  0  0  0  0  0
   -1.3070   -1.4509    0.0051 C   0  0  0  0  0  0  0  0  0  0  0  0
   -0.0626   -0.7561    0.0301 C   0  0  0  0  0  0  0  0  0  0  0  0
   -0.1420    0.6634    0.0246 C   0  0  0  0  0  0  0  0  0  0  0  0
   -1.3656    1.3533   -0.0325 C   0  0  0  0  0  0  0  0  0  0  0  0
    1.0869    1.4963    0.0768 C   0  0  0  0  0  0  0  0  0  0  0  0
    1.0080    2.7247    0.1013 O   0  0  0  0  0  0  0  0  0  0  0  0
    2.3959    0.8163    0.0857 C   0  0  0  0  0  0  0  0  0  0  0  0
    2.3612   -0.5243    0.0697 C   0  0  0  0  0  0  0  0  0  0  0  0
    1.2342   -1.3477    0.0633 N   0  0  0  0  0  0  0  0  0  0  0  0
    1.4214   -2.8156    0.0096 C   0  0  0  0  0  0  0  0  0  0  0  0
    1.4001   -3.3275   -1.4365 C   0  0  0  0  0  0  0  0  0  0  0  0
    1.4877   -4.8544   -1.4983 C   0  0  0  0  0  0  0  0  0  0  0  0
    1.5367   -5.3564   -2.9342 C   0  0  0  0  0  0  0  0  0  0  0  0
    3.7162    1.5206    0.1214 C   0  0  0  0  0  0  0  0  0  0  0  0
    4.7779    0.9046    0.0703 O   0  0  0  0  0  0  0  0  0  0  0  0
    3.6495    2.8904    0.2219 N   0  0  0  0  0  0  0  0  0  0  0  0
    4.8122    3.7514    0.2066 C   0  0  0  0  0  0  0  0  0  0  0  0
    5.1727    4.2374   -1.1938 C   0  0  0  0  0  0  0  0  0  0  0  0
    6.0746    5.4394   -0.9384 C   0  0  0  0  0  0  0  0  0  0  0  0
    5.6159    6.0300    0.3946 C   0  0  0  0  0  0  0  0  0  0  0  0
    4.5811    5.0595    0.9602 C   0  0  0  0  0  0  0  0  0  0  0  0
   -1.2952   -2.8227    0.0514 O   0  0  0  0  0  0  0  0  0  0  0  0
   -2.5274   -3.5237    0.1729 C   0  0  0  0  0  0  0  0  0  0  0  0
   -3.5014    1.1796   -0.1434 H   0  0  0  0  0  0  0  0  0  0  0  0
   -3.4814   -1.2486   -0.1188 H   0  0  0  0  0  0  0  0  0  0  0  0
   -1.3873    2.4408   -0.0370 H   0  0  0  0  0  0  0  0  0  0  0  0
    3.2967   -1.0812    0.0696 H   0  0  0  0  0  0  0  0  0  0  0  0
    0.7298   -3.3502    0.6657 H   0  0  0  0  0  0  0  0  0  0  0  0
    2.4020   -3.0681    0.4385 H   0  0  0  0  0  0  0  0  0  0  0  0
    2.2459   -2.8920   -1.9838 H   0  0  0  0  0  0  0  0  0  0  0  0
    0.4931   -2.9947   -1.9537 H   0  0  0  0  0  0  0  0  0  0  0  0
    0.6205   -5.2967   -0.9941 H   0  0  0  0  0  0  0  0  0  0  0  0
    2.3829   -5.2008   -0.9689 H   0  0  0  0  0  0  0  0  0  0  0  0
    0.6390   -5.0600   -3.4861 H   0  0  0  0  0  0  0  0  0  0  0  0
    1.6005   -6.4492   -2.9534 H   0  0  0  0  0  0  0  0  0  0  0  0
    2.4105   -4.9582   -3.4602 H   0  0  0  0  0  0  0  0  0  0  0  0
    2.7252    3.3191    0.1692 H   0  0  0  0  0  0  0  0  0  0  0  0
    5.6649    3.2162    0.6422 H   0  0  0  0  0  0  0  0  0  0  0  0
    4.2761    4.5540   -1.7418 H   0  0  0  0  0  0  0  0  0  0  0  0
    5.6711    3.4671   -1.7902 H   0  0  0  0  0  0  0  0  0  0  0  0
    6.0194    6.1707   -1.7511 H   0  0  0  0  0  0  0  0  0  0  0  0
    7.1194    5.1171   -0.8571 H   0  0  0  0  0  0  0  0  0  0  0  0
    5.1834    7.0279    0.2638 H   0  0  0  0  0  0  0  0  0  0  0  0
    6.4689    6.1322    1.0750 H   0  0  0  0  0  0  0  0  0  0  0  0
    4.6835    4.9356    2.0431 H   0  0  0  0  0  0  0  0  0  0  0  0
    3.5730    5.4501    0.7719 H   0  0  0  0  0  0  0  0  0  0  0  0
   -2.2952   -4.5722    0.3833 H   0  0  0  0  0  0  0  0  0  0  0  0
   -3.0822   -3.4855   -0.7697 H   0  0  0  0  0  0  0  0  0  0  0  0
   -3.1326   -3.1530    1.0074 H   0  0  0  0  0  0  0  0  0  0  0  0
  1  6  2  0  0  0  0
  1  2  1  0  0  0  0
  1 26  1  0  0  0  0
  2  3  2  0  0  0  0
  2 27  1  0  0  0  0
  3  4  1  0  0  0  0
  3 24  1  0  0  0  0
  4 11  1  0  0  0  0
  4  5  2  0  0  0  0
  5  6  1  0  0  0  0
  5  7  1  0  0  0  0
  6 28  1  0  0  0  0
  7  8  2  0  0  0  0
  7  9  1  0  0  0  0
  9 10  2  0  0  0  0
  9 16  1  0  0  0  0
 10 11  1  0  0  0  0
 10 29  1  0  0  0  0
 11 12  1  0  0  0  0
 12 13  1  0  0  0  0
 12 30  1  0  0  0  0
 12 31  1  0  0  0  0
 13 14  1  0  0  0  0
 13 32  1  0  0  0  0
 13 33  1  0  0  0  0
 14 15  1  0  0  0  0
 14 34  1  0  0  0  0
 14 35  1  0  0  0  0
 15 36  1  0  0  0  0
 15 37  1  0  0  0  0
 15 38  1  0  0  0  0
 16 17  2  0  0  0  0
 16 18  1  0  0  0  0
 18 19  1  0  0  0  0
 18 39  1  0  0  0  0
 19 23  1  0  0  0  0
 19 20  1  0  0  0  0
 19 40  1  0  0  0  0
 20 21  1  0  0  0  0
 20 41  1  0  0  0  0
 20 42  1  0  0  0  0
 21 22  1  0  0  0  0
 21 43  1  0  0  0  0
 21 44  1  0  0  0  0
 22 23  1  0  0  0  0
 22 45  1  0  0  0  0
 22 46  1  0  0  0  0
 23 47  1  0  0  0  0
 23 48  1  0  0  0  0
 24 25  1  0  0  0  0
 25 49  1  0  0  0  0
 25 50  1  0  0  0  0
 25 51  1  0  0  0  0
M  END
$$$$
CHEMBL2152803_5ZTY
 OpenBabel12022418133D

 63 66  0  0  1  0  0  0  0  0999 V2000
    4.3168   -2.1441   -4.0432 C   0  0  0  0  0  0  0  0  0  0  0  0
    4.6359   -0.8570   -4.7872 C   0  0  0  0  0  0  0  0  0  0  0  0
    5.5016    0.0864   -3.9457 C   0  0  0  0  0  0  0  0  0  0  0  0
    5.8236    1.3683   -4.7190 C   0  0  0  0  0  0  0  0  0  0  0  0
    6.6731    2.3825   -3.9265 C   0  0  0  0  0  0  0  0  0  0  0  0
    8.0070    1.8589   -3.5617 N   0  0  0  0  0  0  0  0  0  0  0  0
    8.9369    1.5304   -4.5577 C   0  0  0  0  0  0  0  0  0  0  0  0
   10.0549    0.7987   -4.4149 C   0  0  0  0  0  0  0  0  0  0  0  0
   10.8616    0.4405   -5.6226 C   0  0  0  0  0  0  0  0  0  0  0  0
   10.5467    0.8429   -6.7333 O   0  0  0  0  0  0  0  0  0  0  0  0
   11.9776   -0.3553   -5.4064 N   0  0  0  0  0  0  0  0  0  0  0  0
   12.9118   -0.7548   -6.4635 C   0  0  2  0  0  0  0  0  0  0  0  0
   13.6319   -2.1348   -6.2110 C   0  0  0  0  0  0  0  0  0  0  0  0
   13.2371   -2.8263   -4.8900 C   0  0  0  0  0  0  0  0  0  0  0  0
   13.3010   -3.1300   -7.3420 C   0  0  0  0  0  0  0  0  0  0  0  0
   15.1438   -1.7132   -6.1821 C   0  0  1  0  0  0  0  0  0  0  0  0
   15.6644   -1.3548   -7.5856 C   0  0  0  0  0  0  0  0  0  0  0  0
   14.8856   -0.0770   -7.9171 C   0  0  0  0  0  0  0  0  0  0  0  0
   14.1164    0.2322   -6.6025 C   0  0  1  0  0  0  0  0  0  0  0  0
   13.7822    1.7069   -6.4871 C   0  0  0  0  0  0  0  0  0  0  0  0
   15.0933   -0.3125   -5.5527 C   0  0  0  0  0  0  0  0  0  0  0  0
   10.3654    0.3643   -3.0255 C   0  0  0  0  0  0  0  0  0  0  0  0
   11.2846   -0.4167   -2.7808 O   0  0  0  0  0  0  0  0  0  0  0  0
    9.5662    0.9601   -1.9162 C   0  0  0  0  0  0  0  0  0  0  0  0
   10.0458    0.8323   -0.6002 C   0  0  0  0  0  0  0  0  0  0  0  0
    9.3518    1.4247    0.4508 C   0  0  0  0  0  0  0  0  0  0  0  0
    8.1813    2.1147    0.1792 C   0  0  0  0  0  0  0  0  0  0  0  0
    7.6944    2.2438   -1.1240 C   0  0  0  0  0  0  0  0  0  0  0  0
    8.3852    1.6841   -2.2128 C   0  0  0  0  0  0  0  0  0  0  0  0
    7.5148    2.6993    1.1853 F   0  0  0  0  0  0  0  0  0  0  0  0
    3.6997   -2.7988   -4.6664 H   0  0  0  0  0  0  0  0  0  0  0  0
    3.7677   -1.9383   -3.1190 H   0  0  0  0  0  0  0  0  0  0  0  0
    5.2331   -2.6854   -3.7868 H   0  0  0  0  0  0  0  0  0  0  0  0
    3.6980   -0.3608   -5.0642 H   0  0  0  0  0  0  0  0  0  0  0  0
    5.1571   -1.1052   -5.7194 H   0  0  0  0  0  0  0  0  0  0  0  0
    6.4286   -0.4278   -3.6717 H   0  0  0  0  0  0  0  0  0  0  0  0
    4.9770    0.3361   -3.0153 H   0  0  0  0  0  0  0  0  0  0  0  0
    4.8825    1.8580   -4.9962 H   0  0  0  0  0  0  0  0  0  0  0  0
    6.3249    1.1107   -5.6599 H   0  0  0  0  0  0  0  0  0  0  0  0
    6.0749    2.7078   -3.0717 H   0  0  0  0  0  0  0  0  0  0  0  0
    6.8094    3.2744   -4.5482 H   0  0  0  0  0  0  0  0  0  0  0  0
    8.6778    1.9503   -5.5236 H   0  0  0  0  0  0  0  0  0  0  0  0
   12.2252   -0.5322   -4.4330 H   0  0  0  0  0  0  0  0  0  0  0  0
   12.3478   -0.7859   -7.4057 H   0  0  0  0  0  0  0  0  0  0  0  0
   12.1686   -3.0707   -4.8872 H   0  0  0  0  0  0  0  0  0  0  0  0
   13.4453   -2.2105   -4.0105 H   0  0  0  0  0  0  0  0  0  0  0  0
   13.7852   -3.7666   -4.7570 H   0  0  0  0  0  0  0  0  0  0  0  0
   12.2457   -3.4200   -7.3013 H   0  0  0  0  0  0  0  0  0  0  0  0
   13.9052   -4.0418   -7.2637 H   0  0  0  0  0  0  0  0  0  0  0  0
   13.4629   -2.7043   -8.3368 H   0  0  0  0  0  0  0  0  0  0  0  0
   15.7981   -2.4184   -5.6602 H   0  0  0  0  0  0  0  0  0  0  0  0
   15.5340   -2.1403   -8.3333 H   0  0  0  0  0  0  0  0  0  0  0  0
   16.7389   -1.1333   -7.5489 H   0  0  0  0  0  0  0  0  0  0  0  0
   14.2114   -0.2160   -8.7688 H   0  0  0  0  0  0  0  0  0  0  0  0
   15.5887    0.7247   -8.1761 H   0  0  0  0  0  0  0  0  0  0  0  0
   13.1211    2.0167   -7.3032 H   0  0  0  0  0  0  0  0  0  0  0  0
   14.6872    2.3214   -6.5406 H   0  0  0  0  0  0  0  0  0  0  0  0
   13.2912    1.9421   -5.5383 H   0  0  0  0  0  0  0  0  0  0  0  0
   16.0637    0.1973   -5.5626 H   0  0  0  0  0  0  0  0  0  0  0  0
   14.6980   -0.2993   -4.5328 H   0  0  0  0  0  0  0  0  0  0  0  0
   10.9733    0.3013   -0.4000 H   0  0  0  0  0  0  0  0  0  0  0  0
    9.7212    1.3660    1.4699 H   0  0  0  0  0  0  0  0  0  0  0  0
    6.8013    2.8413   -1.2390 H   0  0  0  0  0  0  0  0  0  0  0  0
  1  2  1  0  0  0  0
  1 31  1  0  0  0  0
  1 32  1  0  0  0  0
  1 33  1  0  0  0  0
  2  3  1  0  0  0  0
  2 34  1  0  0  0  0
  2 35  1  0  0  0  0
  3  4  1  0  0  0  0
  3 36  1  0  0  0  0
  3 37  1  0  0  0  0
  4  5  1  0  0  0  0
  4 38  1  0  0  0  0
  4 39  1  0  0  0  0
  5  6  1  0  0  0  0
  5 40  1  0  0  0  0
  5 41  1  0  0  0  0
  6 29  1  0  0  0  0
  6  7  1  0  0  0  0
  7  8  2  0  0  0  0
  7 42  1  0  0  0  0
  8  9  1  0  0  0  0
  8 22  1  0  0  0  0
  9 10  2  0  0  0  0
  9 11  1  0  0  0  0
 11 43  1  0  0  0  0
 12 13  1  0  0  0  0
 12 19  1  0  0  0  0
 12 11  1  0  0  0  0
 12 44  1  6  0  0  0
 13 14  1  0  0  0  0
 13 15  1  0  0  0  0
 13 16  1  0  0  0  0
 14 45  1  0  0  0  0
 14 46  1  0  0  0  0
 14 47  1  0  0  0  0
 15 48  1  0  0  0  0
 15 49  1  0  0  0  0
 15 50  1  0  0  0  0
 16 17  1  0  0  0  0
 16 21  1  0  0  0  0
 16 51  1  1  0  0  0
 17 18  1  0  0  0  0
 17 52  1  0  0  0  0
 17 53  1  0  0  0  0
 18 19  1  0  0  0  0
 18 54  1  0  0  0  0
 18 55  1  0  0  0  0
 19 20  1  1  0  0  0
 19 21  1  0  0  0  0
 20 56  1  0  0  0  0
 20 57  1  0  0  0  0
 20 58  1  0  0  0  0
 21 59  1  0  0  0  0
 21 60  1  0  0  0  0
 22 23  2  0  0  0  0
 22 24  1  0  0  0  0
 24 29  2  0  0  0  0
 24 25  1  0  0  0  0
 25 26  2  0  0  0  0
 25 61  1  0  0  0  0
 26 27  1  0  0  0  0
 26 62  1  0  0  0  0
 27 28  2  0  0  0  0
 27 30  1  0  0  0  0
 28 29  1  0  0  0  0
 28 63  1  0  0  0  0
M  END
$$$$
CHEMBL4453164_5ZTY
 OpenBabel12022418133D

 63 68  0  0  1  0  0  0  0  0999 V2000
    2.5361    0.2016   -0.1894 C   0  0  0  0  0  0  0  0  0  0  0  0
    1.0377    0.1349   -0.1733 C   0  0  0  0  0  0  0  0  0  0  0  0
    0.3032    1.1378    0.4709 C   0  0  0  0  0  0  0  0  0  0  0  0
   -1.0914    1.0812    0.5094 C   0  0  0  0  0  0  0  0  0  0  0  0
   -1.7714    0.0165   -0.0915 C   0  0  0  0  0  0  0  0  0  0  0  0
   -1.0409   -0.9785   -0.7518 C   0  0  0  0  0  0  0  0  0  0  0  0
    0.3552   -0.9210   -0.7884 C   0  0  0  0  0  0  0  0  0  0  0  0
   -3.2416   -0.0276   -0.0623 C   0  0  0  0  0  0  0  0  0  0  0  0
   -3.9050    0.5247   -1.1057 C   0  0  0  0  0  0  0  0  0  0  0  0
   -5.3764    0.5396   -1.1279 C   0  0  0  0  0  0  0  0  0  0  0  0
   -6.0920   -0.0525   -0.0719 C   0  0  0  0  0  0  0  0  0  0  0  0
   -7.4830   -0.0192   -0.1324 C   0  0  0  0  0  0  0  0  0  0  0  0
   -8.1063    0.6079   -1.2106 C   0  0  0  0  0  0  0  0  0  0  0  0
   -7.3126    1.1751   -2.1960 C   0  0  0  0  0  0  0  0  0  0  0  0
   -5.9603    1.1500   -2.1850 N   0  0  0  0  0  0  0  0  0  0  0  0
   -5.3423   -0.6277    1.0426 C   0  0  0  0  0  0  0  0  0  0  0  0
   -5.7204   -1.1940    2.2316 C   0  0  0  0  0  0  0  0  0  0  0  0
   -4.5209   -1.4594    2.9329 C   0  0  0  0  0  0  0  0  0  0  0  0
   -4.4645   -1.9885    4.3118 C   0  0  0  0  0  0  0  0  0  0  0  0
   -5.4902   -2.1982    4.9550 O   0  0  0  0  0  0  0  0  0  0  0  0
   -3.2047   -2.2173    4.8245 N   0  0  0  0  0  0  0  0  0  0  0  0
   -2.9980   -2.6663    6.1960 C   0  0  1  0  0  0  0  0  0  0  0  0
   -1.7106   -3.5035    6.3570 C   0  0  0  0  0  0  0  0  0  0  0  0
   -0.9378   -2.7524    7.4653 C   0  0  1  0  0  0  0  0  0  0  0  0
   -0.4171   -1.4403    6.8361 C   0  0  0  0  0  0  0  0  0  0  0  0
   -1.6857   -0.5751    6.7316 C   0  0  0  0  0  0  0  0  0  0  0  0
   -2.7919   -1.5268    7.2627 C   0  0  2  0  0  0  0  0  0  0  0  0
   -2.0504   -2.2689    8.4276 C   0  0  0  0  0  0  0  0  0  0  0  0
   -2.8380   -3.4056    9.1097 C   0  0  0  0  0  0  0  0  0  0  0  0
   -1.5259   -1.3776    9.5767 C   0  0  0  0  0  0  0  0  0  0  0  0
   -4.0684   -0.8077    7.6605 C   0  0  0  0  0  0  0  0  0  0  0  0
   -3.4418   -1.1431    2.1909 N   0  0  0  0  0  0  0  0  0  0  0  0
   -3.9437   -0.5971    1.0325 N   0  0  0  0  0  0  0  0  0  0  0  0
    2.9709   -0.6421   -0.7351 H   0  0  0  0  0  0  0  0  0  0  0  0
    2.9237    0.1749    0.8343 H   0  0  0  0  0  0  0  0  0  0  0  0
    2.8684    1.1241   -0.6762 H   0  0  0  0  0  0  0  0  0  0  0  0
    0.8145    1.9695    0.9502 H   0  0  0  0  0  0  0  0  0  0  0  0
   -1.6428    1.8720    1.0126 H   0  0  0  0  0  0  0  0  0  0  0  0
   -1.5512   -1.8064   -1.2389 H   0  0  0  0  0  0  0  0  0  0  0  0
    0.9046   -1.7090   -1.2986 H   0  0  0  0  0  0  0  0  0  0  0  0
   -3.4044    0.9892   -1.9472 H   0  0  0  0  0  0  0  0  0  0  0  0
   -8.0888   -0.4635    0.6510 H   0  0  0  0  0  0  0  0  0  0  0  0
   -9.1885    0.6597   -1.2750 H   0  0  0  0  0  0  0  0  0  0  0  0
   -7.7597    1.6870   -3.0446 H   0  0  0  0  0  0  0  0  0  0  0  0
   -6.7255   -1.3588    2.5949 H   0  0  0  0  0  0  0  0  0  0  0  0
   -2.4243   -1.9748    4.2204 H   0  0  0  0  0  0  0  0  0  0  0  0
   -3.8641   -3.2804    6.4700 H   0  0  0  0  0  0  0  0  0  0  0  0
   -1.1299   -3.5944    5.4334 H   0  0  0  0  0  0  0  0  0  0  0  0
   -1.9596   -4.5196    6.6846 H   0  0  0  0  0  0  0  0  0  0  0  0
   -0.1495   -3.3556    7.9224 H   0  0  0  0  0  0  0  0  0  0  0  0
    0.0445   -1.6024    5.8569 H   0  0  0  0  0  0  0  0  0  0  0  0
    0.3300   -0.9595    7.4765 H   0  0  0  0  0  0  0  0  0  0  0  0
   -1.8610   -0.2304    5.7095 H   0  0  0  0  0  0  0  0  0  0  0  0
   -1.5923    0.3254    7.3502 H   0  0  0  0  0  0  0  0  0  0  0  0
   -3.3265   -4.0983    8.4225 H   0  0  0  0  0  0  0  0  0  0  0  0
   -3.6246   -2.9978    9.7557 H   0  0  0  0  0  0  0  0  0  0  0  0
   -2.1704   -4.0023    9.7430 H   0  0  0  0  0  0  0  0  0  0  0  0
   -0.9629   -0.4990    9.2555 H   0  0  0  0  0  0  0  0  0  0  0  0
   -0.8570   -1.9537   10.2276 H   0  0  0  0  0  0  0  0  0  0  0  0
   -2.3532   -1.0103   10.1945 H   0  0  0  0  0  0  0  0  0  0  0  0
   -4.5275   -0.3079    6.8026 H   0  0  0  0  0  0  0  0  0  0  0  0
   -3.8739   -0.0428    8.4198 H   0  0  0  0  0  0  0  0  0  0  0  0
   -4.8035   -1.5053    8.0755 H   0  0  0  0  0  0  0  0  0  0  0  0
  1  2  1  0  0  0  0
  1 34  1  0  0  0  0
  1 35  1  0  0  0  0
  1 36  1  0  0  0  0
  2  7  2  0  0  0  0
  2  3  1  0  0  0  0
  3  4  2  0  0  0  0
  3 37  1  0  0  0  0
  4  5  1  0  0  0  0
  4 38  1  0  0  0  0
  5  6  2  0  0  0  0
  5  8  1  0  0  0  0
  6  7  1  0  0  0  0
  6 39  1  0  0  0  0
  7 40  1  0  0  0  0
  8 33  1  0  0  0  0
  8  9  2  0  0  0  0
  9 10  1  0  0  0  0
  9 41  1  0  0  0  0
 10 15  2  0  0  0  0
 10 11  1  0  0  0  0
 11 12  2  0  0  0  0
 11 16  1  0  0  0  0
 12 13  1  0  0  0  0
 12 42  1  0  0  0  0
 13 14  2  0  0  0  0
 13 43  1  0  0  0  0
 14 15  1  0  0  0  0
 14 44  1  0  0  0  0
 16 33  1  0  0  0  0
 16 17  2  0  0  0  0
 17 18  1  0  0  0  0
 17 45  1  0  0  0  0
 18 19  1  0  0  0  0
 18 32  2  0  0  0  0
 19 20  2  0  0  0  0
 19 21  1  0  0  0  0
 21 46  1  0  0  0  0
 22 21  1  0  0  0  0
 22 23  1  0  0  0  0
 22 27  1  0  0  0  0
 22 47  1  1  0  0  0
 23 48  1  0  0  0  0
 23 49  1  0  0  0  0
 24 23  1  0  0  0  0
 24 25  1  0  0  0  0
 24 28  1  0  0  0  0
 24 50  1  1  0  0  0
 25 26  1  0  0  0  0
 25 51  1  0  0  0  0
 25 52  1  0  0  0  0
 26 27  1  0  0  0  0
 26 53  1  0  0  0  0
 26 54  1  0  0  0  0
 27 28  1  0  0  0  0
 27 31  1  1  0  0  0
 28 29  1  0  0  0  0
 28 30  1  0  0  0  0
 29 55  1  0  0  0  0
 29 56  1  0  0  0  0
 29 57  1  0  0  0  0
 30 58  1  0  0  0  0
 30 59  1  0  0  0  0
 30 60  1  0  0  0  0
 31 61  1  0  0  0  0
 31 62  1  0  0  0  0
 31 63  1  0  0  0  0
 32 33  1  0  0  0  0
M  END
$$$$
CHEMBL3354528_5ZTY
 OpenBabel12022418133D

 52 54  0  0  1  0  0  0  0  0999 V2000
   -0.7449    1.3372    0.3753 C   0  0  0  0  0  0  0  0  0  0  0  0
    0.7310    1.2728   -0.0274 C   0  0  0  0  0  0  0  0  0  0  0  0
    1.3354   -0.0469    0.2399 N   0  0  0  0  0  0  0  0  0  0  0  0
    0.5684   -1.1598   -0.3949 C   0  0  1  0  0  0  0  0  0  0  0  0
   -0.8917   -1.1525    0.0724 C   0  0  0  0  0  0  0  0  0  0  0  0
   -1.5743    0.1872   -0.1817 C   0  0  0  0  0  0  0  0  0  0  0  0
    0.6504   -1.1201   -1.9427 C   0  0  0  0  0  0  0  0  0  0  0  0
    0.4617   -0.0847   -2.5834 O   0  0  0  0  0  0  0  0  0  0  0  0
    0.9511   -2.3250   -2.5474 N   0  0  0  0  0  0  0  0  0  0  0  0
    1.1877   -2.3576   -3.9095 C   0  0  0  0  0  0  0  0  0  0  0  0
    1.8266   -1.3583   -4.6755 C   0  0  0  0  0  0  0  0  0  0  0  0
    1.6974   -1.7691   -5.9777 C   0  0  0  0  0  0  0  0  0  0  0  0
    2.0980   -1.1700   -7.2977 C   0  0  0  0  0  0  0  0  0  0  0  0
    3.3644   -1.8769   -7.8048 C   0  0  0  0  0  0  0  0  0  0  0  0
    0.9723   -1.3197   -8.3352 C   0  0  0  0  0  0  0  0  0  0  0  0
    2.3990    0.3358   -7.1392 C   0  0  0  0  0  0  0  0  0  0  0  0
    1.1019   -2.9981   -5.9819 O   0  0  0  0  0  0  0  0  0  0  0  0
    0.8307   -3.3914   -4.6751 N   0  0  0  0  0  0  0  0  0  0  0  0
    2.7554   -0.0992   -0.1690 C   0  0  0  0  0  0  0  0  0  0  0  0
    3.6569    0.9061    0.5216 C   0  0  0  0  0  0  0  0  0  0  0  0
    4.4197    1.7958   -0.2432 C   0  0  0  0  0  0  0  0  0  0  0  0
    5.2591    2.7212    0.3721 C   0  0  0  0  0  0  0  0  0  0  0  0
    5.3478    2.7616    1.7618 C   0  0  0  0  0  0  0  0  0  0  0  0
    4.5943    1.8769    2.5328 C   0  0  0  0  0  0  0  0  0  0  0  0
    3.7557    0.9492    1.9113 C   0  0  0  0  0  0  0  0  0  0  0  0
   -0.8169    1.3320    1.4697 H   0  0  0  0  0  0  0  0  0  0  0  0
   -1.1723    2.2884    0.0362 H   0  0  0  0  0  0  0  0  0  0  0  0
    1.2473    2.0462    0.5532 H   0  0  0  0  0  0  0  0  0  0  0  0
    0.8423    1.5746   -1.0739 H   0  0  0  0  0  0  0  0  0  0  0  0
    1.0106   -2.1059   -0.0536 H   0  0  0  0  0  0  0  0  0  0  0  0
   -0.9247   -1.3642    1.1497 H   0  0  0  0  0  0  0  0  0  0  0  0
   -1.4583   -1.9487   -0.4239 H   0  0  0  0  0  0  0  0  0  0  0  0
   -1.7355    0.3296   -1.2563 H   0  0  0  0  0  0  0  0  0  0  0  0
   -2.5680    0.1895    0.2812 H   0  0  0  0  0  0  0  0  0  0  0  0
    0.6423   -3.1941   -2.1348 H   0  0  0  0  0  0  0  0  0  0  0  0
    2.2837   -0.4452   -4.3240 H   0  0  0  0  0  0  0  0  0  0  0  0
    3.1803   -2.9421   -7.9862 H   0  0  0  0  0  0  0  0  0  0  0  0
    4.1781   -1.8060   -7.0723 H   0  0  0  0  0  0  0  0  0  0  0  0
    3.7186   -1.4335   -8.7417 H   0  0  0  0  0  0  0  0  0  0  0  0
    0.7431   -2.3718   -8.5377 H   0  0  0  0  0  0  0  0  0  0  0  0
    1.2520   -0.8557   -9.2886 H   0  0  0  0  0  0  0  0  0  0  0  0
    0.0474   -0.8410   -7.9920 H   0  0  0  0  0  0  0  0  0  0  0  0
    3.2103    0.5146   -6.4233 H   0  0  0  0  0  0  0  0  0  0  0  0
    1.5180    0.8834   -6.7811 H   0  0  0  0  0  0  0  0  0  0  0  0
    2.7017    0.7837   -8.0926 H   0  0  0  0  0  0  0  0  0  0  0  0
    2.8521    0.0255   -1.2549 H   0  0  0  0  0  0  0  0  0  0  0  0
    3.1615   -1.0932    0.0630 H   0  0  0  0  0  0  0  0  0  0  0  0
    4.3619    1.7799   -1.3333 H   0  0  0  0  0  0  0  0  0  0  0  0
    5.8496    3.4092   -0.2285 H   0  0  0  0  0  0  0  0  0  0  0  0
    5.9998    3.4840    2.2440 H   0  0  0  0  0  0  0  0  0  0  0  0
    4.6578    1.9134    3.6183 H   0  0  0  0  0  0  0  0  0  0  0  0
    3.1646    0.2674    2.5245 H   0  0  0  0  0  0  0  0  0  0  0  0
  1  6  1  0  0  0  0
  1  2  1  0  0  0  0
  1 26  1  0  0  0  0
  1 27  1  0  0  0  0
  2  3  1  0  0  0  0
  2 28  1  0  0  0  0
  2 29  1  0  0  0  0
  3  4  1  0  0  0  0
  3 19  1  0  0  0  0
  4  5  1  0  0  0  0
  4  7  1  0  0  0  0
  4 30  1  1  0  0  0
  5  6  1  0  0  0  0
  5 31  1  0  0  0  0
  5 32  1  0  0  0  0
  6 33  1  0  0  0  0
  6 34  1  0  0  0  0
  7  8  2  0  0  0  0
  7  9  1  0  0  0  0
  9 10  1  0  0  0  0
  9 35  1  0  0  0  0
 10 18  2  0  0  0  0
 10 11  1  0  0  0  0
 11 12  2  0  0  0  0
 11 36  1  0  0  0  0
 12 13  1  0  0  0  0
 12 17  1  0  0  0  0
 13 14  1  0  0  0  0
 13 15  1  0  0  0  0
 13 16  1  0  0  0  0
 14 37  1  0  0  0  0
 14 38  1  0  0  0  0
 14 39  1  0  0  0  0
 15 40  1  0  0  0  0
 15 41  1  0  0  0  0
 15 42  1  0  0  0  0
 16 43  1  0  0  0  0
 16 44  1  0  0  0  0
 16 45  1  0  0  0  0
 17 18  1  0  0  0  0
 19 20  1  0  0  0  0
 19 46  1  0  0  0  0
 19 47  1  0  0  0  0
 20 25  2  0  0  0  0
 20 21  1  0  0  0  0
 21 22  2  0  0  0  0
 21 48  1  0  0  0  0
 22 23  1  0  0  0  0
 22 49  1  0  0  0  0
 23 24  2  0  0  0  0
 23 50  1  0  0  0  0
 24 25  1  0  0  0  0
 24 51  1  0  0  0  0
 25 52  1  0  0  0  0
M  END
$$$$
CHEMBL3984538_5ZTY
 OpenBabel12022418133D

 72 77  0  0  1  0  0  0  0  0999 V2000
   -2.8458   -5.2229   -8.0877 C   0  0  0  0  0  0  0  0  0  0  0  0
   -3.6505   -3.9631   -7.9773 C   0  0  0  0  0  0  0  0  0  0  0  0
   -3.0346   -2.7812   -7.5517 C   0  0  0  0  0  0  0  0  0  0  0  0
   -3.7616   -1.5944   -7.4660 C   0  0  0  0  0  0  0  0  0  0  0  0
   -5.1174   -1.5659   -7.8119 C   0  0  0  0  0  0  0  0  0  0  0  0
   -5.7424   -2.7596   -8.2027 C   0  0  0  0  0  0  0  0  0  0  0  0
   -5.0142   -3.9480   -8.2858 C   0  0  0  0  0  0  0  0  0  0  0  0
   -5.9192   -0.3047   -7.6749 C   0  0  0  0  0  0  0  0  0  0  0  0
   -5.4400    0.8196   -8.4841 N   0  0  0  0  0  0  0  0  0  0  0  0
   -6.1470    1.3893   -9.5404 C   0  0  0  0  0  0  0  0  0  0  0  0
   -7.1395    0.7901  -10.4227 C   0  0  0  0  0  0  0  0  0  0  0  0
   -8.5174    0.9104  -10.1371 C   0  0  0  0  0  0  0  0  0  0  0  0
   -9.0412    1.6078   -8.8960 C   0  0  0  0  0  0  0  0  0  0  0  0
   -8.4730    3.0061   -8.5169 C   0  0  0  0  0  0  0  0  0  0  0  0
   -7.3461    3.5878   -9.4030 C   0  0  0  0  0  0  0  0  0  0  0  0
   -6.1592    2.7182   -9.1750 C   0  0  0  0  0  0  0  0  0  0  0  0
   -5.0425    2.9205   -8.3398 C   0  0  0  0  0  0  0  0  0  0  0  0
   -4.5461    4.2283   -7.8814 C   0  0  0  0  0  0  0  0  0  0  0  0
   -4.7473    5.2563   -8.5237 O   0  0  0  0  0  0  0  0  0  0  0  0
   -3.8755    4.2178   -6.6753 N   0  0  0  0  0  0  0  0  0  0  0  0
   -3.2602    5.4260   -6.1720 C   0  0  0  0  0  0  0  0  0  0  0  0
   -3.3850    5.6110   -4.6522 C   0  0  2  0  0  0  0  0  0  0  0  0
   -4.8487    5.6388   -4.1428 C   0  0  0  0  0  0  0  0  0  0  0  0
   -5.2133    6.7794   -3.1674 C   0  0  0  0  0  0  0  0  0  0  0  0
   -4.0926    7.8154   -3.0277 C   0  0  1  0  0  0  0  0  0  0  0  0
   -2.7676    7.0859   -2.6923 C   0  0  0  0  0  0  0  0  0  0  0  0
   -2.6422    6.8947   -4.2360 C   0  0  2  0  0  0  0  0  0  0  0  0
   -3.3997    8.2877   -4.3655 C   0  0  0  0  0  0  0  0  0  0  0  0
   -2.4511    9.4990   -4.2556 C   0  0  0  0  0  0  0  0  0  0  0  0
   -4.3498    8.5589   -5.5342 C   0  0  0  0  0  0  0  0  0  0  0  0
   -4.5849    1.7237   -7.9067 N   0  0  0  0  0  0  0  0  0  0  0  0
   -9.4511    0.4249  -11.0708 C   0  0  0  0  0  0  0  0  0  0  0  0
   -9.0370    0.0037  -12.3314 C   0  0  0  0  0  0  0  0  0  0  0  0
   -7.6888    0.0292  -12.6708 C   0  0  0  0  0  0  0  0  0  0  0  0
   -6.7415    0.3924  -11.7089 C   0  0  0  0  0  0  0  0  0  0  0  0
  -10.2096   -0.4707  -13.4986 Cl  0  0  0  0  0  0  0  0  0  0  0  0
   -3.4318   -6.0366   -8.5270 H   0  0  0  0  0  0  0  0  0  0  0  0
   -2.5044   -5.5417   -7.0981 H   0  0  0  0  0  0  0  0  0  0  0  0
   -1.9769   -5.0545   -8.7324 H   0  0  0  0  0  0  0  0  0  0  0  0
   -1.9801   -2.7767   -7.2853 H   0  0  0  0  0  0  0  0  0  0  0  0
   -3.2637   -0.6891   -7.1222 H   0  0  0  0  0  0  0  0  0  0  0  0
   -6.8050   -2.7789   -8.4385 H   0  0  0  0  0  0  0  0  0  0  0  0
   -5.5199   -4.8603   -8.5947 H   0  0  0  0  0  0  0  0  0  0  0  0
   -5.9108    0.0253   -6.6247 H   0  0  0  0  0  0  0  0  0  0  0  0
   -6.9670   -0.4796   -7.9298 H   0  0  0  0  0  0  0  0  0  0  0  0
   -8.9280    0.9204   -8.0475 H   0  0  0  0  0  0  0  0  0  0  0  0
  -10.1255    1.7421   -9.0042 H   0  0  0  0  0  0  0  0  0  0  0  0
   -8.0968    2.9219   -7.4842 H   0  0  0  0  0  0  0  0  0  0  0  0
   -9.2953    3.7238   -8.4653 H   0  0  0  0  0  0  0  0  0  0  0  0
   -7.1425    4.6177   -9.0950 H   0  0  0  0  0  0  0  0  0  0  0  0
   -7.6380    3.6139  -10.4544 H   0  0  0  0  0  0  0  0  0  0  0  0
   -3.6222    3.3016   -6.3177 H   0  0  0  0  0  0  0  0  0  0  0  0
   -3.6816    6.2886   -6.6943 H   0  0  0  0  0  0  0  0  0  0  0  0
   -2.2040    5.3848   -6.4612 H   0  0  0  0  0  0  0  0  0  0  0  0
   -2.8847    4.7556   -4.1794 H   0  0  0  0  0  0  0  0  0  0  0  0
   -5.0598    4.6820   -3.6457 H   0  0  0  0  0  0  0  0  0  0  0  0
   -5.5509    5.6630   -4.9848 H   0  0  0  0  0  0  0  0  0  0  0  0
   -5.4422    6.3567   -2.1813 H   0  0  0  0  0  0  0  0  0  0  0  0
   -6.1338    7.2693   -3.5064 H   0  0  0  0  0  0  0  0  0  0  0  0
   -4.3624    8.6222   -2.3373 H   0  0  0  0  0  0  0  0  0  0  0  0
   -2.8474    6.1796   -2.0827 H   0  0  0  0  0  0  0  0  0  0  0  0
   -1.9982    7.7121   -2.2281 H   0  0  0  0  0  0  0  0  0  0  0  0
   -1.6037    6.8985   -4.5881 H   0  0  0  0  0  0  0  0  0  0  0  0
   -1.7382    9.4225   -3.4308 H   0  0  0  0  0  0  0  0  0  0  0  0
   -3.0195   10.4240   -4.1084 H   0  0  0  0  0  0  0  0  0  0  0  0
   -1.8660    9.6059   -5.1763 H   0  0  0  0  0  0  0  0  0  0  0  0
   -5.1082    7.7873   -5.6728 H   0  0  0  0  0  0  0  0  0  0  0  0
   -3.7934    8.6447   -6.4739 H   0  0  0  0  0  0  0  0  0  0  0  0
   -4.8898    9.5004   -5.3811 H   0  0  0  0  0  0  0  0  0  0  0  0
  -10.5132    0.4350  -10.8367 H   0  0  0  0  0  0  0  0  0  0  0  0
   -7.3729   -0.2009  -13.6858 H   0  0  0  0  0  0  0  0  0  0  0  0
   -5.6931    0.4525  -12.0011 H   0  0  0  0  0  0  0  0  0  0  0  0
  1  2  1  0  0  0  0
  1 37  1  0  0  0  0
  1 38  1  0  0  0  0
  1 39  1  0  0  0  0
  2  7  2  0  0  0  0
  2  3  1  0  0  0  0
  3  4  2  0  0  0  0
  3 40  1  0  0  0  0
  4  5  1  0  0  0  0
  4 41  1  0  0  0  0
  5  6  2  0  0  0  0
  5  8  1  0  0  0  0
  6  7  1  0  0  0  0
  6 42  1  0  0  0  0
  7 43  1  0  0  0  0
  8  9  1  0  0  0  0
  8 44  1  0  0  0  0
  8 45  1  0  0  0  0
  9 31  1  0  0  0  0
  9 10  1  0  0  0  0
 10 16  2  0  0  0  0
 10 11  1  0  0  0  0
 11 35  2  0  0  0  0
 11 12  1  0  0  0  0
 12 13  1  0  0  0  0
 12 32  2  0  0  0  0
 13 14  1  0  0  0  0
 13 46  1  0  0  0  0
 13 47  1  0  0  0  0
 14 15  1  0  0  0  0
 14 48  1  0  0  0  0
 14 49  1  0  0  0  0
 15 16  1  0  0  0  0
 15 50  1  0  0  0  0
 15 51  1  0  0  0  0
 16 17  1  0  0  0  0
 17 18  1  0  0  0  0
 17 31  2  0  0  0  0
 18 19  2  0  0  0  0
 18 20  1  0  0  0  0
 20 21  1  0  0  0  0
 20 52  1  0  0  0  0
 21 53  1  0  0  0  0
 21 54  1  0  0  0  0
 22 23  1  0  0  0  0
 22 27  1  0  0  0  0
 22 21  1  0  0  0  0
 22 55  1  1  0  0  0
 23 24  1  0  0  0  0
 23 56  1  0  0  0  0
 23 57  1  0  0  0  0
 24 58  1  0  0  0  0
 24 59  1  0  0  0  0
 25 24  1  0  0  0  0
 25 26  1  0  0  0  0
 25 28  1  0  0  0  0
 25 60  1  1  0  0  0
 26 61  1  0  0  0  0
 26 62  1  0  0  0  0
 27 26  1  0  0  0  0
 27 28  1  0  0  0  0
 27 63  1  6  0  0  0
 28 29  1  0  0  0  0
 28 30  1  0  0  0  0
 29 64  1  0  0  0  0
 29 65  1  0  0  0  0
 29 66  1  0  0  0  0
 30 67  1  0  0  0  0
 30 68  1  0  0  0  0
 30 69  1  0  0  0  0
 32 33  1  0  0  0  0
 32 70  1  0  0  0  0
 33 34  2  0  0  0  0
 33 36  1  0  0  0  0
 34 35  1  0  0  0  0
 34 71  1  0  0  0  0
 35 72  1  0  0  0  0
M  END
$$$$
CHEMBL3409152_6PT0
 OpenBabel12022418133D

 48 50  0  0  0  0  0  0  0  0999 V2000
   -2.5093    0.7189   -0.0653 C   0  0  0  0  0  0  0  0  0  0  0  0
   -2.4959   -0.6712   -0.0576 C   0  0  0  0  0  0  0  0  0  0  0  0
   -1.2892   -1.3972    0.0120 C   0  0  0  0  0  0  0  0  0  0  0  0
   -0.0325   -0.7189    0.0574 C   0  0  0  0  0  0  0  0  0  0  0  0
   -0.0945    0.7034    0.0551 C   0  0  0  0  0  0  0  0  0  0  0  0
   -1.3104    1.4057   -0.0040 C   0  0  0  0  0  0  0  0  0  0  0  0
    1.1446    1.5244    0.0881 C   0  0  0  0  0  0  0  0  0  0  0  0
    1.0872    2.7479    0.1879 O   0  0  0  0  0  0  0  0  0  0  0  0
    2.4374    0.8296   -0.0450 C   0  0  0  0  0  0  0  0  0  0  0  0
    2.3856   -0.5080   -0.0484 C   0  0  0  0  0  0  0  0  0  0  0  0
    1.2649   -1.3283    0.1000 N   0  0  0  0  0  0  0  0  0  0  0  0
    1.3869   -2.8080    0.0218 C   0  0  0  0  0  0  0  0  0  0  0  0
    2.6551   -3.4077    0.6501 C   0  0  0  0  0  0  0  0  0  0  0  0
    2.7288   -3.1424    2.1561 C   0  0  0  0  0  0  0  0  0  0  0  0
    3.9566   -3.7900    2.7720 C   0  0  0  0  0  0  0  0  0  0  0  0
    3.7654    1.5000   -0.1802 C   0  0  0  0  0  0  0  0  0  0  0  0
    4.8031    0.8576   -0.3364 O   0  0  0  0  0  0  0  0  0  0  0  0
    3.7492    2.8721   -0.1238 N   0  0  0  0  0  0  0  0  0  0  0  0
    4.9511    3.6511   -0.3008 C   0  0  0  0  0  0  0  0  0  0  0  0
    4.6430    5.1089   -0.1760 C   0  0  0  0  0  0  0  0  0  0  0  0
    5.2740    6.1160   -1.1072 C   0  0  0  0  0  0  0  0  0  0  0  0
    3.8056    5.8099   -1.2193 C   0  0  0  0  0  0  0  0  0  0  0  0
   -1.3082   -2.7693    0.0005 O   0  0  0  0  0  0  0  0  0  0  0  0
   -2.5389   -3.4632    0.1662 C   0  0  0  0  0  0  0  0  0  0  0  0
   -3.4489    1.2587   -0.1265 H   0  0  0  0  0  0  0  0  0  0  0  0
   -3.4584   -1.1705   -0.1224 H   0  0  0  0  0  0  0  0  0  0  0  0
   -1.3200    2.4947   -0.0156 H   0  0  0  0  0  0  0  0  0  0  0  0
    3.3164   -1.0531   -0.1689 H   0  0  0  0  0  0  0  0  0  0  0  0
    1.3234   -3.1117   -1.0297 H   0  0  0  0  0  0  0  0  0  0  0  0
    0.5990   -3.3077    0.5811 H   0  0  0  0  0  0  0  0  0  0  0  0
    3.5646   -3.0651    0.1473 H   0  0  0  0  0  0  0  0  0  0  0  0
    2.6224   -4.4937    0.4894 H   0  0  0  0  0  0  0  0  0  0  0  0
    1.8311   -3.5371    2.6467 H   0  0  0  0  0  0  0  0  0  0  0  0
    2.7571   -2.0662    2.3568 H   0  0  0  0  0  0  0  0  0  0  0  0
    3.9316   -4.8766    2.6432 H   0  0  0  0  0  0  0  0  0  0  0  0
    3.9989   -3.5747    3.8442 H   0  0  0  0  0  0  0  0  0  0  0  0
    4.8723   -3.4079    2.3103 H   0  0  0  0  0  0  0  0  0  0  0  0
    2.8527    3.3485   -0.0146 H   0  0  0  0  0  0  0  0  0  0  0  0
    5.3762    3.4046   -1.2803 H   0  0  0  0  0  0  0  0  0  0  0  0
    5.6758    3.3496    0.4626 H   0  0  0  0  0  0  0  0  0  0  0  0
    4.5058    5.4026    0.8595 H   0  0  0  0  0  0  0  0  0  0  0  0
    5.9233    5.7645   -1.9014 H   0  0  0  0  0  0  0  0  0  0  0  0
    5.5569    7.0813   -0.7018 H   0  0  0  0  0  0  0  0  0  0  0  0
    3.1004    6.5574   -0.8783 H   0  0  0  0  0  0  0  0  0  0  0  0
    3.4705    5.2419   -2.0791 H   0  0  0  0  0  0  0  0  0  0  0  0
   -2.3036   -4.5095    0.3769 H   0  0  0  0  0  0  0  0  0  0  0  0
   -3.1168   -3.4300   -0.7624 H   0  0  0  0  0  0  0  0  0  0  0  0
   -3.1210   -3.0852    1.0135 H   0  0  0  0  0  0  0  0  0  0  0  0
  1  6  2  0  0  0  0
  1  2  1  0  0  0  0
  1 25  1  0  0  0  0
  2  3  2  0  0  0  0
  2 26  1  0  0  0  0
  3  4  1  0  0  0  0
  3 23  1  0  0  0  0
  4 11  1  0  0  0  0
  4  5  2  0  0  0  0
  5  6  1  0  0  0  0
  5  7  1  0  0  0  0
  6 27  1  0  0  0  0
  7  8  2  0  0  0  0
  7  9  1  0  0  0  0
  9 10  2  0  0  0  0
  9 16  1  0  0  0  0
 10 11  1  0  0  0  0
 10 28  1  0  0  0  0
 11 12  1  0  0  0  0
 12 13  1  0  0  0  0
 12 29  1  0  0  0  0
 12 30  1  0  0  0  0
 13 14  1  0  0  0  0
 13 31  1  0  0  0  0
 13 32  1  0  0  0  0
 14 15  1  0  0  0  0
 14 33  1  0  0  0  0
 14 34  1  0  0  0  0
 15 35  1  0  0  0  0
 15 36  1  0  0  0  0
 15 37  1  0  0  0  0
 16 17  2  0  0  0  0
 16 18  1  0  0  0  0
 18 19  1  0  0  0  0
 18 38  1  0  0  0  0
 19 20  1  0  0  0  0
 19 39  1  0  0  0  0
 19 40  1  0  0  0  0
 20 22  1  0  0  0  0
 20 21  1  0  0  0  0
 20 41  1  0  0  0  0
 21 22  1  0  0  0  0
 21 42  1  0  0  0  0
 21 43  1  0  0  0  0
 22 44  1  0  0  0  0
 22 45  1  0  0  0  0
 23 24  1  0  0  0  0
 24 46  1  0  0  0  0
 24 47  1  0  0  0  0
 24 48  1  0  0  0  0
M  END
$$$$
CHEMBL223278_8GUQ
 OpenBabel12022418133D

 58 62  0  0  0  0  0  0  0  0999 V2000
    1.6605    0.3298    0.8853 O   0  0  0  0  0  0  0  0  0  0  0  0
    2.2252   -0.0086   -0.1512 C   0  0  0  0  0  0  0  0  0  0  0  0
    2.7666    1.0003   -1.1025 C   0  0  0  0  0  0  0  0  0  0  0  0
    2.5049    2.4051   -1.1032 C   0  0  0  0  0  0  0  0  0  0  0  0
    3.2894    2.9452   -2.1092 C   0  0  0  0  0  0  0  0  0  0  0  0
    3.2532    4.3361   -2.5973 C   0  0  0  0  0  0  0  0  0  0  0  0
    3.1038    5.4264   -1.7041 C   0  0  0  0  0  0  0  0  0  0  0  0
    3.1564    5.2987   -0.1921 C   0  0  0  0  0  0  0  0  0  0  0  0
    2.3296    4.2440    0.5637 C   0  0  0  0  0  0  0  0  0  0  0  0
    1.5776    3.2064   -0.2588 C   0  0  0  0  0  0  0  0  0  0  0  0
    3.0650    6.7364   -2.2296 C   0  0  0  0  0  0  0  0  0  0  0  0
    3.1667    6.9689   -3.5996 C   0  0  0  0  0  0  0  0  0  0  0  0
    3.3012    5.9029   -4.4774 C   0  0  0  0  0  0  0  0  0  0  0  0
    3.3251    4.5968   -3.9806 C   0  0  0  0  0  0  0  0  0  0  0  0
    3.1439    8.5805   -4.2015 Cl  0  0  0  0  0  0  0  0  0  0  0  0
    4.0774    1.8912   -2.5607 N   0  0  0  0  0  0  0  0  0  0  0  0
    5.2175    1.9216   -3.4150 C   0  0  0  0  0  0  0  0  0  0  0  0
    5.3357    0.9137   -4.3896 C   0  0  0  0  0  0  0  0  0  0  0  0
    6.3926    0.9366   -5.3056 C   0  0  0  0  0  0  0  0  0  0  0  0
    7.3439    1.9508   -5.2418 C   0  0  0  0  0  0  0  0  0  0  0  0
    7.2672    2.9260   -4.2524 C   0  0  0  0  0  0  0  0  0  0  0  0
    6.2191    2.9041   -3.3231 C   0  0  0  0  0  0  0  0  0  0  0  0
    6.3783    4.0086   -2.0010 Cl  0  0  0  0  0  0  0  0  0  0  0  0
    8.6420    1.9825   -6.3702 Cl  0  0  0  0  0  0  0  0  0  0  0  0
    3.6026    0.6840   -2.1141 N   0  0  0  0  0  0  0  0  0  0  0  0
    2.4257   -1.3443   -0.5207 N   0  0  0  0  0  0  0  0  0  0  0  0
    2.0811   -2.4584    0.3383 N   0  0  0  0  0  0  0  0  0  0  0  0
    2.8662   -2.4514    1.5788 C   0  0  0  0  0  0  0  0  0  0  0  0
    3.0942   -3.8459    2.1813 C   0  0  0  0  0  0  0  0  0  0  0  0
    1.9155   -4.4191    2.9556 C   0  0  0  0  0  0  0  0  0  0  0  0
    0.6653   -4.6244    2.1141 C   0  0  0  0  0  0  0  0  0  0  0  0
    0.0266   -3.3018    1.7142 C   0  0  0  0  0  0  0  0  0  0  0  0
    0.6228   -2.5998    0.4855 C   0  0  0  0  0  0  0  0  0  0  0  0
    2.8803    6.2680    0.2480 H   0  0  0  0  0  0  0  0  0  0  0  0
    4.2137    5.1716    0.0765 H   0  0  0  0  0  0  0  0  0  0  0  0
    1.6021    4.7666    1.1986 H   0  0  0  0  0  0  0  0  0  0  0  0
    3.0035    3.7310    1.2645 H   0  0  0  0  0  0  0  0  0  0  0  0
    1.0068    2.5691    0.4213 H   0  0  0  0  0  0  0  0  0  0  0  0
    0.8327    3.7014   -0.8941 H   0  0  0  0  0  0  0  0  0  0  0  0
    2.9817    7.5913   -1.5595 H   0  0  0  0  0  0  0  0  0  0  0  0
    3.3910    6.0796   -5.5462 H   0  0  0  0  0  0  0  0  0  0  0  0
    3.4066    3.7832   -4.6977 H   0  0  0  0  0  0  0  0  0  0  0  0
    4.5897    0.1240   -4.4699 H   0  0  0  0  0  0  0  0  0  0  0  0
    6.4645    0.1643   -6.0682 H   0  0  0  0  0  0  0  0  0  0  0  0
    8.0419    3.6868   -4.1838 H   0  0  0  0  0  0  0  0  0  0  0  0
    2.9507   -1.5245   -1.3728 H   0  0  0  0  0  0  0  0  0  0  0  0
    2.4460   -1.7663    2.3247 H   0  0  0  0  0  0  0  0  0  0  0  0
    3.8712   -2.0767    1.3402 H   0  0  0  0  0  0  0  0  0  0  0  0
    3.9383   -3.7764    2.8798 H   0  0  0  0  0  0  0  0  0  0  0  0
    3.3993   -4.5501    1.4008 H   0  0  0  0  0  0  0  0  0  0  0  0
    1.6840   -3.7721    3.8155 H   0  0  0  0  0  0  0  0  0  0  0  0
    2.2139   -5.3857    3.3830 H   0  0  0  0  0  0  0  0  0  0  0  0
   -0.0569   -5.1814    2.7250 H   0  0  0  0  0  0  0  0  0  0  0  0
    0.8788   -5.2469    1.2382 H   0  0  0  0  0  0  0  0  0  0  0  0
    0.0267   -2.6163    2.5708 H   0  0  0  0  0  0  0  0  0  0  0  0
   -1.0314   -3.4982    1.4921 H   0  0  0  0  0  0  0  0  0  0  0  0
    0.2625   -3.1252   -0.4080 H   0  0  0  0  0  0  0  0  0  0  0  0
    0.1380   -1.6166    0.4570 H   0  0  0  0  0  0  0  0  0  0  0  0
  1  2  2  0  0  0  0
  2  3  1  0  0  0  0
  2 26  1  0  0  0  0
  3 25  2  0  0  0  0
  3  4  1  0  0  0  0
  4 10  1  0  0  0  0
  4  5  2  0  0  0  0
  5  6  1  0  0  0  0
  5 16  1  0  0  0  0
  6 14  2  0  0  0  0
  6  7  1  0  0  0  0
  7  8  1  0  0  0  0
  7 11  2  0  0  0  0
  8  9  1  0  0  0  0
  8 34  1  0  0  0  0
  8 35  1  0  0  0  0
  9 10  1  0  0  0  0
  9 36  1  0  0  0  0
  9 37  1  0  0  0  0
 10 38  1  0  0  0  0
 10 39  1  0  0  0  0
 11 12  1  0  0  0  0
 11 40  1  0  0  0  0
 12 13  2  0  0  0  0
 12 15  1  0  0  0  0
 13 14  1  0  0  0  0
 13 41  1  0  0  0  0
 14 42  1  0  0  0  0
 16 17  1  0  0  0  0
 16 25  1  0  0  0  0
 17 22  2  0  0  0  0
 17 18  1  0  0  0  0
 18 19  2  0  0  0  0
 18 43  1  0  0  0  0
 19 20  1  0  0  0  0
 19 44  1  0  0  0  0
 20 21  2  0  0  0  0
 20 24  1  0  0  0  0
 21 22  1  0  0  0  0
 21 45  1  0  0  0  0
 22 23  1  0  0  0  0
 26 27  1  0  0  0  0
 26 46  1  0  0  0  0
 27 33  1  0  0  0  0
 27 28  1  0  0  0  0
 28 29  1  0  0  0  0
 28 47  1  0  0  0  0
 28 48  1  0  0  0  0
 29 30  1  0  0  0  0
 29 49  1  0  0  0  0
 29 50  1  0  0  0  0
 30 31  1  0  0  0  0
 30 51  1  0  0  0  0
 30 52  1  0  0  0  0
 31 32  1  0  0  0  0
 31 53  1  0  0  0  0
 31 54  1  0  0  0  0
 32 33  1  0  0  0  0
 32 55  1  0  0  0  0
 32 56  1  0  0  0  0
 33 57  1  0  0  0  0
 33 58  1  0  0  0  0
M  END
$$$$
CHEMBL3114519_5ZTY
 OpenBabel12022418133D

 48 51  0  0  0  0  0  0  0  0999 V2000
   -0.8445   -1.4561    0.0252 C   0  0  0  0  0  0  0  0  0  0  0  0
   -2.0381   -0.7439    0.0321 C   0  0  0  0  0  0  0  0  0  0  0  0
   -2.0341    0.6498    0.0526 C   0  0  0  0  0  0  0  0  0  0  0  0
   -0.8353    1.4102    0.0545 C   0  0  0  0  0  0  0  0  0  0  0  0
   -0.8613    2.8903    0.0380 C   0  0  0  0  0  0  0  0  0  0  0  0
   -1.8978    3.5949   -0.6089 C   0  0  0  0  0  0  0  0  0  0  0  0
   -1.9415    4.9930   -0.6276 C   0  0  0  0  0  0  0  0  0  0  0  0
   -0.9373    5.7255   -0.0053 C   0  0  0  0  0  0  0  0  0  0  0  0
    0.0956    5.0607    0.6446 C   0  0  0  0  0  0  0  0  0  0  0  0
    0.1262    3.6617    0.6723 C   0  0  0  0  0  0  0  0  0  0  0  0
    0.3846    0.6758    0.0577 C   0  0  0  0  0  0  0  0  0  0  0  0
    0.3461   -0.7188    0.0418 C   0  0  0  0  0  0  0  0  0  0  0  0
    1.6682   -1.1138    0.0295 N   0  0  0  0  0  0  0  0  0  0  0  0
    2.4615    0.0152    0.0539 C   0  0  0  0  0  0  0  0  0  0  0  0
    3.9229    0.0488    0.0480 C   0  0  0  0  0  0  0  0  0  0  0  0
    4.6268   -0.9594    0.0792 O   0  0  0  0  0  0  0  0  0  0  0  0
    4.4810    1.3121    0.0114 N   0  0  0  0  0  0  0  0  0  0  0  0
    5.9193    1.4944    0.0972 C   0  0  0  0  0  0  0  0  0  0  0  0
    6.4396    2.7527   -0.5576 C   0  0  0  0  0  0  0  0  0  0  0  0
    7.6651    3.3320   -0.1725 C   0  0  0  0  0  0  0  0  0  0  0  0
    8.1581    4.4740   -0.8155 C   0  0  0  0  0  0  0  0  0  0  0  0
    7.4531    5.0436   -1.8724 C   0  0  0  0  0  0  0  0  0  0  0  0
    6.2632    4.4583   -2.2986 C   0  0  0  0  0  0  0  0  0  0  0  0
    5.7660    3.3225   -1.6566 C   0  0  0  0  0  0  0  0  0  0  0  0
    8.6444    2.6520    1.0806 Cl  0  0  0  0  0  0  0  0  0  0  0  0
    1.7059    1.1043    0.0651 N   0  0  0  0  0  0  0  0  0  0  0  0
    2.1008   -2.4950   -0.0891 C   0  0  0  0  0  0  0  0  0  0  0  0
    2.2324   -3.2086    1.2459 C   0  0  0  0  0  0  0  0  0  0  0  0
   -0.8502   -2.5410    0.0107 H   0  0  0  0  0  0  0  0  0  0  0  0
   -2.9850   -1.2797    0.0220 H   0  0  0  0  0  0  0  0  0  0  0  0
   -2.9983    1.1542    0.0779 H   0  0  0  0  0  0  0  0  0  0  0  0
   -2.6928    3.0606   -1.1256 H   0  0  0  0  0  0  0  0  0  0  0  0
   -2.7564    5.5033   -1.1337 H   0  0  0  0  0  0  0  0  0  0  0  0
   -0.9601    6.8119   -0.0290 H   0  0  0  0  0  0  0  0  0  0  0  0
    0.8838    5.6256    1.1356 H   0  0  0  0  0  0  0  0  0  0  0  0
    0.9415    3.1779    1.2065 H   0  0  0  0  0  0  0  0  0  0  0  0
    3.8495    2.0897    0.1856 H   0  0  0  0  0  0  0  0  0  0  0  0
    6.4213    0.6360   -0.3631 H   0  0  0  0  0  0  0  0  0  0  0  0
    6.1473    1.4888    1.1686 H   0  0  0  0  0  0  0  0  0  0  0  0
    9.1006    4.9161   -0.5014 H   0  0  0  0  0  0  0  0  0  0  0  0
    7.8364    5.9271   -2.3737 H   0  0  0  0  0  0  0  0  0  0  0  0
    5.7220    4.8814   -3.1441 H   0  0  0  0  0  0  0  0  0  0  0  0
    4.8514    2.8716   -2.0318 H   0  0  0  0  0  0  0  0  0  0  0  0
    3.0361   -2.5307   -0.6528 H   0  0  0  0  0  0  0  0  0  0  0  0
    1.3633   -3.0167   -0.7101 H   0  0  0  0  0  0  0  0  0  0  0  0
    2.9914   -2.7406    1.8801 H   0  0  0  0  0  0  0  0  0  0  0  0
    2.5201   -4.2529    1.0833 H   0  0  0  0  0  0  0  0  0  0  0  0
    1.2855   -3.2060    1.7968 H   0  0  0  0  0  0  0  0  0  0  0  0
  1 12  2  0  0  0  0
  1  2  1  0  0  0  0
  1 29  1  0  0  0  0
  2  3  2  0  0  0  0
  2 30  1  0  0  0  0
  3  4  1  0  0  0  0
  3 31  1  0  0  0  0
  4  5  1  0  0  0  0
  4 11  2  0  0  0  0
  5 10  2  0  0  0  0
  5  6  1  0  0  0  0
  6  7  2  0  0  0  0
  6 32  1  0  0  0  0
  7  8  1  0  0  0  0
  7 33  1  0  0  0  0
  8  9  2  0  0  0  0
  8 34  1  0  0  0  0
  9 10  1  0  0  0  0
  9 35  1  0  0  0  0
 10 36  1  0  0  0  0
 11 26  1  0  0  0  0
 11 12  1  0  0  0  0
 12 13  1  0  0  0  0
 13 14  1  0  0  0  0
 13 27  1  0  0  0  0
 14 15  1  0  0  0  0
 14 26  2  0  0  0  0
 15 16  2  0  0  0  0
 15 17  1  0  0  0  0
 17 18  1  0  0  0  0
 17 37  1  0  0  0  0
 18 19  1  0  0  0  0
 18 38  1  0  0  0  0
 18 39  1  0  0  0  0
 19 24  2  0  0  0  0
 19 20  1  0  0  0  0
 20 21  2  0  0  0  0
 20 25  1  0  0  0  0
 21 22  1  0  0  0  0
 21 40  1  0  0  0  0
 22 23  2  0  0  0  0
 22 41  1  0  0  0  0
 23 24  1  0  0  0  0
 23 42  1  0  0  0  0
 24 43  1  0  0  0  0
 27 28  1  0  0  0  0
 27 44  1  0  0  0  0
 27 45  1  0  0  0  0
 28 46  1  0  0  0  0
 28 47  1  0  0  0  0
 28 48  1  0  0  0  0
M  END
$$$$
CHEMBL3647327_8GUR
 OpenBabel12022418133D

 53 55  0  0  1  0  0  0  0  0999 V2000
    4.2770   -2.4093    1.3792 C   0  0  0  0  0  0  0  0  0  0  0  0
    4.8729   -1.1042    0.8639 C   0  0  0  0  0  0  0  0  0  0  0  0
    4.2230   -0.6832   -0.4579 C   0  0  0  0  0  0  0  0  0  0  0  0
    4.7281    0.6805   -0.9618 C   0  0  0  0  0  0  0  0  0  0  0  0
    4.0698    1.0873   -2.2062 N   0  0  0  0  0  0  0  0  0  0  0  0
    4.6592    1.0243   -3.4781 C   0  0  0  0  0  0  0  0  0  0  0  0
    5.8775    0.6657   -3.7248 N   0  0  0  0  0  0  0  0  0  0  0  0
    6.3535    0.5576   -5.0225 C   0  0  0  0  0  0  0  0  0  0  0  0
    6.1650    1.3319   -5.9444 O   0  0  0  0  0  0  0  0  0  0  0  0
    7.3192   -0.5692   -5.1903 C   0  0  0  0  0  0  0  0  0  0  0  0
    8.2735   -0.7166   -4.1593 C   0  0  0  0  0  0  0  0  0  0  0  0
    9.2040   -1.7598   -4.1736 C   0  0  0  0  0  0  0  0  0  0  0  0
    9.1669   -2.6654   -5.2330 C   0  0  0  0  0  0  0  0  0  0  0  0
    8.2387   -2.5101   -6.2691 C   0  0  0  0  0  0  0  0  0  0  0  0
    7.3074   -1.4580   -6.2810 C   0  0  0  0  0  0  0  0  0  0  0  0
    6.3827   -1.3001   -7.2959 O   0  0  0  0  0  0  0  0  0  0  0  0
    6.4882   -2.2522   -8.3743 C   0  0  0  0  0  0  0  0  0  0  0  0
    5.4999   -1.9938   -9.5178 C   0  0  1  0  0  0  0  0  0  0  0  0
    4.0481   -2.0208   -9.0777 C   0  0  0  0  0  0  0  0  0  0  0  0
    5.7824   -0.7506  -10.1537 O   0  0  0  0  0  0  0  0  0  0  0  0
   10.2260   -1.9285   -3.0789 C   0  0  0  0  0  0  0  0  0  0  0  0
   10.1845   -0.9482   -2.1360 F   0  0  0  0  0  0  0  0  0  0  0  0
   10.0707   -3.1021   -2.4068 F   0  0  0  0  0  0  0  0  0  0  0  0
   11.4997   -1.9365   -3.5582 F   0  0  0  0  0  0  0  0  0  0  0  0
    3.4555    1.4518   -4.7319 S   0  0  0  0  0  0  0  0  0  0  0  0
    2.1877    1.6107   -3.5126 C   0  0  0  0  0  0  0  0  0  0  0  0
    0.8500    1.8564   -3.7515 C   0  0  0  0  0  0  0  0  0  0  0  0
    0.0249    1.8676   -2.6465 C   0  0  0  0  0  0  0  0  0  0  0  0
    0.4629    1.6937   -1.3759 N   0  0  0  0  0  0  0  0  0  0  0  0
    1.7919    1.4775   -1.1959 C   0  0  0  0  0  0  0  0  0  0  0  0
    2.7016    1.3940   -2.2322 C   0  0  0  0  0  0  0  0  0  0  0  0
    4.7688   -2.7166    2.3078 H   0  0  0  0  0  0  0  0  0  0  0  0
    4.3993   -3.2141    0.6473 H   0  0  0  0  0  0  0  0  0  0  0  0
    3.2074   -2.2973    1.5876 H   0  0  0  0  0  0  0  0  0  0  0  0
    5.9527   -1.2282    0.7276 H   0  0  0  0  0  0  0  0  0  0  0  0
    4.7258   -0.3265    1.6230 H   0  0  0  0  0  0  0  0  0  0  0  0
    3.1394   -0.6602   -0.3044 H   0  0  0  0  0  0  0  0  0  0  0  0
    4.4064   -1.4476   -1.2217 H   0  0  0  0  0  0  0  0  0  0  0  0
    5.8143    0.6256   -1.1053 H   0  0  0  0  0  0  0  0  0  0  0  0
    4.5701    1.4475   -0.1922 H   0  0  0  0  0  0  0  0  0  0  0  0
    8.2887    0.0010   -3.3376 H   0  0  0  0  0  0  0  0  0  0  0  0
    9.8646   -3.4994   -5.2693 H   0  0  0  0  0  0  0  0  0  0  0  0
    8.2816   -3.2563   -7.0564 H   0  0  0  0  0  0  0  0  0  0  0  0
    6.2925   -3.2581   -7.9829 H   0  0  0  0  0  0  0  0  0  0  0  0
    7.4971   -2.1926   -8.8020 H   0  0  0  0  0  0  0  0  0  0  0  0
    5.6495   -2.7748  -10.2760 H   0  0  0  0  0  0  0  0  0  0  0  0
    3.8329   -1.2163   -8.3682 H   0  0  0  0  0  0  0  0  0  0  0  0
    3.7948   -2.9805   -8.6174 H   0  0  0  0  0  0  0  0  0  0  0  0
    3.3913   -1.8684   -9.9412 H   0  0  0  0  0  0  0  0  0  0  0  0
    5.7847   -0.0672   -9.4496 H   0  0  0  0  0  0  0  0  0  0  0  0
    0.4678    2.0086   -4.7524 H   0  0  0  0  0  0  0  0  0  0  0  0
   -1.0463    2.0144   -2.7526 H   0  0  0  0  0  0  0  0  0  0  0  0
    2.0781    1.3509   -0.1574 H   0  0  0  0  0  0  0  0  0  0  0  0
  1  2  1  0  0  0  0
  1 32  1  0  0  0  0
  1 33  1  0  0  0  0
  1 34  1  0  0  0  0
  2  3  1  0  0  0  0
  2 35  1  0  0  0  0
  2 36  1  0  0  0  0
  3  4  1  0  0  0  0
  3 37  1  0  0  0  0
  3 38  1  0  0  0  0
  4  5  1  0  0  0  0
  4 39  1  0  0  0  0
  4 40  1  0  0  0  0
  5 31  1  0  0  0  0
  5  6  1  0  0  0  0
  6  7  2  0  0  0  0
  6 25  1  0  0  0  0
  7  8  1  0  0  0  0
  8  9  2  0  0  0  0
  8 10  1  0  0  0  0
 10 15  2  0  0  0  0
 10 11  1  0  0  0  0
 11 12  2  0  0  0  0
 11 41  1  0  0  0  0
 12 13  1  0  0  0  0
 12 21  1  0  0  0  0
 13 14  2  0  0  0  0
 13 42  1  0  0  0  0
 14 15  1  0  0  0  0
 14 43  1  0  0  0  0
 15 16  1  0  0  0  0
 16 17  1  0  0  0  0
 17 18  1  0  0  0  0
 17 44  1  0  0  0  0
 17 45  1  0  0  0  0
 18 19  1  0  0  0  0
 18 20  1  0  0  0  0
 18 46  1  6  0  0  0
 19 47  1  0  0  0  0
 19 48  1  0  0  0  0
 19 49  1  0  0  0  0
 20 50  1  0  0  0  0
 21 22  1  0  0  0  0
 21 23  1  0  0  0  0
 21 24  1  0  0  0  0
 25 26  1  0  0  0  0
 26 31  2  0  0  0  0
 26 27  1  0  0  0  0
 27 28  2  0  0  0  0
 27 51  1  0  0  0  0
 28 29  1  0  0  0  0
 28 52  1  0  0  0  0
 29 30  2  0  0  0  0
 30 31  1  0  0  0  0
 30 53  1  0  0  0  0
M  END
$$$$
CHEMBL3114528_5ZTY
 OpenBabel12022418133D

 52 55  0  0  0  0  0  0  0  0999 V2000
   -1.6793   -0.6132   -0.5758 C   0  0  0  0  0  0  0  0  0  0  0  0
   -3.0598   -0.2824    0.0561 C   0  0  0  0  0  0  0  0  0  0  0  0
   -3.1696    1.1276    0.6329 C   0  0  0  0  0  0  0  0  0  0  0  0
   -2.0356    1.4596    1.5944 C   0  0  0  0  0  0  0  0  0  0  0  0
   -0.6561    1.1190    1.0385 C   0  0  0  0  0  0  0  0  0  0  0  0
   -0.5801   -0.2982    0.4700 C   0  0  0  0  0  0  0  0  0  0  0  0
   -1.4901    0.2000   -1.8932 C   0  0  0  0  0  0  0  0  0  0  0  0
   -0.2569   -0.0926   -2.6079 N   0  0  0  0  0  0  0  0  0  0  0  0
   -0.1188    0.0113   -3.9780 C   0  0  0  0  0  0  0  0  0  0  0  0
   -1.0525    0.2626   -4.7376 O   0  0  0  0  0  0  0  0  0  0  0  0
    1.2336   -0.2388   -4.4351 C   0  0  0  0  0  0  0  0  0  0  0  0
    2.2399   -0.5334   -3.6316 N   0  0  0  0  0  0  0  0  0  0  0  0
    3.3402   -0.7398   -4.4441 C   0  0  0  0  0  0  0  0  0  0  0  0
    4.6700   -1.1072   -4.1075 C   0  0  0  0  0  0  0  0  0  0  0  0
    5.5855   -1.2016   -5.1831 C   0  0  0  0  0  0  0  0  0  0  0  0
    5.2076   -0.9652   -6.5091 C   0  0  0  0  0  0  0  0  0  0  0  0
    3.8928   -0.6357   -6.8372 C   0  0  0  0  0  0  0  0  0  0  0  0
    2.9899   -0.5308   -5.7780 C   0  0  0  0  0  0  0  0  0  0  0  0
    1.6489   -0.2331   -5.7434 N   0  0  0  0  0  0  0  0  0  0  0  0
    5.0538   -1.3839   -2.7046 C   0  0  0  0  0  0  0  0  0  0  0  0
    6.3488   -1.1042   -2.2269 C   0  0  0  0  0  0  0  0  0  0  0  0
    6.7183   -1.3804   -0.9049 C   0  0  0  0  0  0  0  0  0  0  0  0
    5.7964   -1.9317   -0.0209 C   0  0  0  0  0  0  0  0  0  0  0  0
    4.5098   -2.2156   -0.4617 C   0  0  0  0  0  0  0  0  0  0  0  0
    4.1516   -1.9546   -1.7880 C   0  0  0  0  0  0  0  0  0  0  0  0
   -1.6823   -2.1337   -0.8872 C   0  0  0  0  0  0  0  0  0  0  0  0
   -0.4386   -2.6019   -1.3886 O   0  0  0  0  0  0  0  0  0  0  0  0
   -3.2629   -0.9924    0.8699 H   0  0  0  0  0  0  0  0  0  0  0  0
   -3.8587   -0.4304   -0.6815 H   0  0  0  0  0  0  0  0  0  0  0  0
   -4.1249    1.2213    1.1644 H   0  0  0  0  0  0  0  0  0  0  0  0
   -3.1960    1.8623   -0.1794 H   0  0  0  0  0  0  0  0  0  0  0  0
   -2.1890    0.9132    2.5337 H   0  0  0  0  0  0  0  0  0  0  0  0
   -2.0739    2.5262    1.8467 H   0  0  0  0  0  0  0  0  0  0  0  0
    0.0831    1.2220    1.8423 H   0  0  0  0  0  0  0  0  0  0  0  0
   -0.3782    1.8469    0.2685 H   0  0  0  0  0  0  0  0  0  0  0  0
    0.4201   -0.4616    0.0538 H   0  0  0  0  0  0  0  0  0  0  0  0
   -0.6740   -1.0028    1.3083 H   0  0  0  0  0  0  0  0  0  0  0  0
   -1.4893    1.2781   -1.7032 H   0  0  0  0  0  0  0  0  0  0  0  0
   -2.3306    0.0036   -2.5706 H   0  0  0  0  0  0  0  0  0  0  0  0
    0.6271   -0.1215   -2.0987 H   0  0  0  0  0  0  0  0  0  0  0  0
    6.6195   -1.4840   -4.9919 H   0  0  0  0  0  0  0  0  0  0  0  0
    5.9541   -1.0502   -7.2974 H   0  0  0  0  0  0  0  0  0  0  0  0
    3.5973   -0.4683   -7.8676 H   0  0  0  0  0  0  0  0  0  0  0  0
    1.0501   -0.0462   -6.5359 H   0  0  0  0  0  0  0  0  0  0  0  0
    7.0934   -0.6539   -2.8786 H   0  0  0  0  0  0  0  0  0  0  0  0
    7.7277   -1.1593   -0.5677 H   0  0  0  0  0  0  0  0  0  0  0  0
    6.0799   -2.1396    1.0069 H   0  0  0  0  0  0  0  0  0  0  0  0
    3.7773   -2.6436    0.2174 H   0  0  0  0  0  0  0  0  0  0  0  0
    3.1399   -2.2133   -2.0966 H   0  0  0  0  0  0  0  0  0  0  0  0
   -2.4636   -2.3855   -1.6136 H   0  0  0  0  0  0  0  0  0  0  0  0
   -1.8896   -2.7082    0.0225 H   0  0  0  0  0  0  0  0  0  0  0  0
   -0.3004   -2.1678   -2.2507 H   0  0  0  0  0  0  0  0  0  0  0  0
  1  6  1  0  0  0  0
  1  2  1  0  0  0  0
  1  7  1  0  0  0  0
  1 26  1  0  0  0  0
  2  3  1  0  0  0  0
  2 28  1  0  0  0  0
  2 29  1  0  0  0  0
  3  4  1  0  0  0  0
  3 30  1  0  0  0  0
  3 31  1  0  0  0  0
  4  5  1  0  0  0  0
  4 32  1  0  0  0  0
  4 33  1  0  0  0  0
  5  6  1  0  0  0  0
  5 34  1  0  0  0  0
  5 35  1  0  0  0  0
  6 36  1  0  0  0  0
  6 37  1  0  0  0  0
  7  8  1  0  0  0  0
  7 38  1  0  0  0  0
  7 39  1  0  0  0  0
  8  9  1  0  0  0  0
  8 40  1  0  0  0  0
  9 10  2  0  0  0  0
  9 11  1  0  0  0  0
 11 19  1  0  0  0  0
 11 12  2  0  0  0  0
 12 13  1  0  0  0  0
 13 18  2  0  0  0  0
 13 14  1  0  0  0  0
 14 15  2  0  0  0  0
 14 20  1  0  0  0  0
 15 16  1  0  0  0  0
 15 41  1  0  0  0  0
 16 17  2  0  0  0  0
 16 42  1  0  0  0  0
 17 18  1  0  0  0  0
 17 43  1  0  0  0  0
 18 19  1  0  0  0  0
 19 44  1  0  0  0  0
 20 25  2  0  0  0  0
 20 21  1  0  0  0  0
 21 22  2  0  0  0  0
 21 45  1  0  0  0  0
 22 23  1  0  0  0  0
 22 46  1  0  0  0  0
 23 24  2  0  0  0  0
 23 47  1  0  0  0  0
 24 25  1  0  0  0  0
 24 48  1  0  0  0  0
 25 49  1  0  0  0  0
 26 27  1  0  0  0  0
 26 50  1  0  0  0  0
 26 51  1  0  0  0  0
 27 52  1  0  0  0  0
M  END
$$$$
CHEMBL3114178_8GUT
 OpenBabel12022418133D

 48 50  0  0  0  0  0  0  0  0999 V2000
    2.6294    1.2578    0.8646 O   0  0  0  0  0  0  0  0  0  0  0  0
    2.2694    0.1886    0.3796 C   0  0  0  0  0  0  0  0  0  0  0  0
    2.9079   -1.1078    0.7801 C   0  0  0  0  0  0  0  0  0  0  0  0
    3.9513   -1.0658    1.6294 C   0  0  0  0  0  0  0  0  0  0  0  0
    4.6630   -2.2634    2.0101 C   0  0  0  0  0  0  0  0  0  0  0  0
    4.2934   -3.4436    1.4934 C   0  0  0  0  0  0  0  0  0  0  0  0
    3.2101   -3.5515    0.6367 N   0  0  0  0  0  0  0  0  0  0  0  0
    2.7588   -4.8767    0.2154 C   0  0  0  0  0  0  0  0  0  0  0  0
    3.3713   -5.3882   -1.0720 C   0  0  0  0  0  0  0  0  0  0  0  0
    3.0434   -4.8055   -2.3081 C   0  0  0  0  0  0  0  0  0  0  0  0
    3.4706   -5.3873   -3.5042 C   0  0  0  0  0  0  0  0  0  0  0  0
    4.2321   -6.5475   -3.4688 C   0  0  0  0  0  0  0  0  0  0  0  0
    4.6039   -7.1185   -2.2585 C   0  0  0  0  0  0  0  0  0  0  0  0
    4.1808   -6.5368   -1.0609 C   0  0  0  0  0  0  0  0  0  0  0  0
    4.5964   -7.1353   -4.6161 F   0  0  0  0  0  0  0  0  0  0  0  0
    2.4531   -2.4365    0.2638 C   0  0  0  0  0  0  0  0  0  0  0  0
    1.4475   -2.5192   -0.4412 O   0  0  0  0  0  0  0  0  0  0  0  0
    6.0765   -2.1074    3.2141 Br  0  0  0  0  0  0  0  0  0  0  0  0
    1.2903    0.0905   -0.5783 N   0  0  0  0  0  0  0  0  0  0  0  0
    0.5585    1.2371   -1.1090 C   0  0  0  0  0  0  0  0  0  0  0  0
    0.1939    0.9929   -2.5840 C   0  0  0  0  0  0  0  0  0  0  0  0
   -1.1961    0.4072   -2.8433 C   0  0  0  0  0  0  0  0  0  0  0  0
   -2.2949    1.4705   -2.9024 C   0  0  0  0  0  0  0  0  0  0  0  0
   -2.6840    2.1087   -1.5718 C   0  0  0  0  0  0  0  0  0  0  0  0
   -1.5299    2.6633   -0.7408 C   0  0  0  0  0  0  0  0  0  0  0  0
   -0.6223    1.5672   -0.1897 C   0  0  0  0  0  0  0  0  0  0  0  0
    4.3010   -0.1173    2.0315 H   0  0  0  0  0  0  0  0  0  0  0  0
    4.8121   -4.3638    1.7488 H   0  0  0  0  0  0  0  0  0  0  0  0
    1.6684   -4.8722    0.0912 H   0  0  0  0  0  0  0  0  0  0  0  0
    2.9521   -5.5834    1.0333 H   0  0  0  0  0  0  0  0  0  0  0  0
    2.4155   -3.9179   -2.3531 H   0  0  0  0  0  0  0  0  0  0  0  0
    3.1888   -4.9589   -4.4610 H   0  0  0  0  0  0  0  0  0  0  0  0
    5.1979   -8.0272   -2.2562 H   0  0  0  0  0  0  0  0  0  0  0  0
    4.4548   -7.0126   -0.1218 H   0  0  0  0  0  0  0  0  0  0  0  0
    0.9719   -0.8421   -0.8433 H   0  0  0  0  0  0  0  0  0  0  0  0
    1.2536    2.0864   -1.0859 H   0  0  0  0  0  0  0  0  0  0  0  0
    0.9412    0.3245   -3.0334 H   0  0  0  0  0  0  0  0  0  0  0  0
    0.2844    1.9401   -3.1315 H   0  0  0  0  0  0  0  0  0  0  0  0
   -1.4429   -0.3785   -2.1208 H   0  0  0  0  0  0  0  0  0  0  0  0
   -1.1703   -0.0792   -3.8273 H   0  0  0  0  0  0  0  0  0  0  0  0
   -3.1968    1.0091   -3.3253 H   0  0  0  0  0  0  0  0  0  0  0  0
   -2.0024    2.2582   -3.6078 H   0  0  0  0  0  0  0  0  0  0  0  0
   -3.2461    1.3814   -0.9729 H   0  0  0  0  0  0  0  0  0  0  0  0
   -3.3818    2.9296   -1.7820 H   0  0  0  0  0  0  0  0  0  0  0  0
   -1.9657    3.2014    0.1099 H   0  0  0  0  0  0  0  0  0  0  0  0
   -0.9571    3.4010   -1.3145 H   0  0  0  0  0  0  0  0  0  0  0  0
   -0.2229    1.8948    0.7792 H   0  0  0  0  0  0  0  0  0  0  0  0
   -1.2041    0.6625    0.0292 H   0  0  0  0  0  0  0  0  0  0  0  0
  1  2  2  0  0  0  0
  2  3  1  0  0  0  0
  2 19  1  0  0  0  0
  3 16  1  0  0  0  0
  3  4  2  0  0  0  0
  4  5  1  0  0  0  0
  4 27  1  0  0  0  0
  5  6  2  0  0  0  0
  5 18  1  0  0  0  0
  6  7  1  0  0  0  0
  6 28  1  0  0  0  0
  7  8  1  0  0  0  0
  7 16  1  0  0  0  0
  8  9  1  0  0  0  0
  8 29  1  0  0  0  0
  8 30  1  0  0  0  0
  9 14  2  0  0  0  0
  9 10  1  0  0  0  0
 10 11  2  0  0  0  0
 10 31  1  0  0  0  0
 11 12  1  0  0  0  0
 11 32  1  0  0  0  0
 12 13  2  0  0  0  0
 12 15  1  0  0  0  0
 13 14  1  0  0  0  0
 13 33  1  0  0  0  0
 14 34  1  0  0  0  0
 16 17  2  0  0  0  0
 19 20  1  0  0  0  0
 19 35  1  0  0  0  0
 20 26  1  0  0  0  0
 20 21  1  0  0  0  0
 20 36  1  0  0  0  0
 21 22  1  0  0  0  0
 21 37  1  0  0  0  0
 21 38  1  0  0  0  0
 22 23  1  0  0  0  0
 22 39  1  0  0  0  0
 22 40  1  0  0  0  0
 23 24  1  0  0  0  0
 23 41  1  0  0  0  0
 23 42  1  0  0  0  0
 24 25  1  0  0  0  0
 24 43  1  0  0  0  0
 24 44  1  0  0  0  0
 25 26  1  0  0  0  0
 25 45  1  0  0  0  0
 25 46  1  0  0  0  0
 26 47  1  0  0  0  0
 26 48  1  0  0  0  0
M  END
$$$$
CHEMBL4761606_8GUR
 OpenBabel12022418133D

 69 71  0  0  1  0  0  0  0  0999 V2000
   -4.7912   -5.9908    1.5774 C   0  0  0  0  0  0  0  0  0  0  0  0
   -5.6292   -5.8112    2.6708 C   0  0  0  0  0  0  0  0  0  0  0  0
   -5.0930   -5.7550    3.9512 C   0  0  0  0  0  0  0  0  0  0  0  0
   -3.6897   -5.8094    4.0959 C   0  0  0  0  0  0  0  0  0  0  0  0
   -2.8062   -5.9785    2.9908 C   0  0  0  0  0  0  0  0  0  0  0  0
   -3.3930   -6.1224    1.7213 C   0  0  0  0  0  0  0  0  0  0  0  0
   -2.5980   -6.4062    0.6495 O   0  0  0  0  0  0  0  0  0  0  0  0
   -3.2620   -6.7578   -0.5715 C   0  0  0  0  0  0  0  0  0  0  0  0
   -2.2289   -7.1846   -1.6184 C   0  0  0  0  0  0  0  0  0  0  0  0
   -1.2092   -6.0643   -1.8055 C   0  0  0  0  0  0  0  0  0  0  0  0
   -1.5597   -8.4893   -1.1847 C   0  0  0  0  0  0  0  0  0  0  0  0
   -2.9138   -7.4181   -2.8542 O   0  0  0  0  0  0  0  0  0  0  0  0
   -1.3110   -5.9727    3.3064 C   0  0  0  0  0  0  0  0  0  0  0  0
   -1.0289   -5.7357    4.4838 O   0  0  0  0  0  0  0  0  0  0  0  0
   -0.3570   -6.1110    2.3108 N   0  0  0  0  0  0  0  0  0  0  0  0
    0.8356   -6.5530    2.5991 C   0  0  0  0  0  0  0  0  0  0  0  0
    1.3248   -7.1005    3.9213 C   0  0  0  0  0  0  0  0  0  0  0  0
    2.6129   -7.4873    3.7349 C   0  0  0  0  0  0  0  0  0  0  0  0
    3.5093   -8.1360    4.7975 C   0  0  0  0  0  0  0  0  0  0  0  0
    2.7824   -8.2802    6.1575 C   0  0  0  0  0  0  0  0  0  0  0  0
    3.9115   -9.5706    4.3848 C   0  0  0  0  0  0  0  0  0  0  0  0
    4.7697   -7.2845    5.0750 C   0  0  0  0  0  0  0  0  0  0  0  0
    3.0044   -7.2100    2.4169 N   0  0  0  0  0  0  0  0  0  0  0  0
    4.2676   -7.4817    1.7505 C   0  0  0  0  0  0  0  0  0  0  0  0
    1.9358   -6.6241    1.7304 N   0  0  0  0  0  0  0  0  0  0  0  0
    2.0615   -6.1199    0.3758 C   0  0  0  0  0  0  0  0  0  0  0  0
    1.5952   -4.6812    0.1620 C   0  0  1  0  0  0  0  0  0  0  0  0
    2.1945   -3.6501    1.1024 C   0  0  0  0  0  0  0  0  0  0  0  0
    2.7827   -2.5779    0.2204 C   0  0  0  0  0  0  0  0  0  0  0  0
    2.4508   -2.9765   -1.1967 C   0  0  0  0  0  0  0  0  0  0  0  0
    1.9678   -4.3149   -1.1837 O   0  0  0  0  0  0  0  0  0  0  0  0
   -6.0167   -5.6678    5.1436 C   0  0  0  0  0  0  0  0  0  0  0  0
   -7.3365   -5.6245    4.7953 F   0  0  0  0  0  0  0  0  0  0  0  0
   -5.8947   -6.7399    5.9726 F   0  0  0  0  0  0  0  0  0  0  0  0
   -5.8008   -4.5648    5.9074 F   0  0  0  0  0  0  0  0  0  0  0  0
   -5.2804   -6.0408    0.6085 H   0  0  0  0  0  0  0  0  0  0  0  0
   -6.7044   -5.7422    2.5077 H   0  0  0  0  0  0  0  0  0  0  0  0
   -3.2768   -5.7270    5.1029 H   0  0  0  0  0  0  0  0  0  0  0  0
   -3.8152   -5.8924   -0.9608 H   0  0  0  0  0  0  0  0  0  0  0  0
   -3.9728   -7.5815   -0.4120 H   0  0  0  0  0  0  0  0  0  0  0  0
   -0.7757   -5.7777   -0.8498 H   0  0  0  0  0  0  0  0  0  0  0  0
   -1.6822   -5.1783   -2.2442 H   0  0  0  0  0  0  0  0  0  0  0  0
   -0.3974   -6.3632   -2.4740 H   0  0  0  0  0  0  0  0  0  0  0  0
   -1.1025   -8.4081   -0.1927 H   0  0  0  0  0  0  0  0  0  0  0  0
   -0.7871   -8.7913   -1.8984 H   0  0  0  0  0  0  0  0  0  0  0  0
   -2.2931   -9.3048   -1.1564 H   0  0  0  0  0  0  0  0  0  0  0  0
   -2.3627   -7.0721   -3.5773 H   0  0  0  0  0  0  0  0  0  0  0  0
    0.7302   -7.1743    4.8164 H   0  0  0  0  0  0  0  0  0  0  0  0
    1.8883   -8.9109    6.0725 H   0  0  0  0  0  0  0  0  0  0  0  0
    2.4719   -7.3013    6.5552 H   0  0  0  0  0  0  0  0  0  0  0  0
    3.4314   -8.7403    6.9102 H   0  0  0  0  0  0  0  0  0  0  0  0
    3.0251  -10.1918    4.2104 H   0  0  0  0  0  0  0  0  0  0  0  0
    4.5050  -10.0540    5.1716 H   0  0  0  0  0  0  0  0  0  0  0  0
    4.5156   -9.6149    3.4792 H   0  0  0  0  0  0  0  0  0  0  0  0
    4.4943   -6.2802    5.4248 H   0  0  0  0  0  0  0  0  0  0  0  0
    5.4075   -7.1573    4.2011 H   0  0  0  0  0  0  0  0  0  0  0  0
    5.3890   -7.7436    5.8518 H   0  0  0  0  0  0  0  0  0  0  0  0
    4.9814   -8.0390    2.3530 H   0  0  0  0  0  0  0  0  0  0  0  0
    4.7652   -6.5429    1.4820 H   0  0  0  0  0  0  0  0  0  0  0  0
    4.1069   -8.0724    0.8407 H   0  0  0  0  0  0  0  0  0  0  0  0
    1.5534   -6.7973   -0.3202 H   0  0  0  0  0  0  0  0  0  0  0  0
    3.1083   -6.1450    0.0479 H   0  0  0  0  0  0  0  0  0  0  0  0
    0.5079   -4.6180    0.2274 H   0  0  0  0  0  0  0  0  0  0  0  0
    2.9557   -4.0683    1.7686 H   0  0  0  0  0  0  0  0  0  0  0  0
    1.4109   -3.2376    1.7489 H   0  0  0  0  0  0  0  0  0  0  0  0
    3.8684   -2.5273    0.3589 H   0  0  0  0  0  0  0  0  0  0  0  0
    2.3888   -1.5834    0.4540 H   0  0  0  0  0  0  0  0  0  0  0  0
    3.3292   -2.9230   -1.8484 H   0  0  0  0  0  0  0  0  0  0  0  0
    1.6737   -2.3362   -1.6246 H   0  0  0  0  0  0  0  0  0  0  0  0
  1  6  2  0  0  0  0
  1  2  1  0  0  0  0
  1 36  1  0  0  0  0
  2  3  2  0  0  0  0
  2 37  1  0  0  0  0
  3  4  1  0  0  0  0
  3 32  1  0  0  0  0
  4  5  2  0  0  0  0
  4 38  1  0  0  0  0
  5  6  1  0  0  0  0
  5 13  1  0  0  0  0
  6  7  1  0  0  0  0
  7  8  1  0  0  0  0
  8  9  1  0  0  0  0
  8 39  1  0  0  0  0
  8 40  1  0  0  0  0
  9 10  1  0  0  0  0
  9 11  1  0  0  0  0
  9 12  1  0  0  0  0
 10 41  1  0  0  0  0
 10 42  1  0  0  0  0
 10 43  1  0  0  0  0
 11 44  1  0  0  0  0
 11 45  1  0  0  0  0
 11 46  1  0  0  0  0
 12 47  1  0  0  0  0
 13 14  2  0  0  0  0
 13 15  1  0  0  0  0
 15 16  2  0  0  0  0
 16 25  1  0  0  0  0
 16 17  1  0  0  0  0
 17 18  2  0  0  0  0
 17 48  1  0  0  0  0
 18 19  1  0  0  0  0
 18 23  1  0  0  0  0
 19 20  1  0  0  0  0
 19 21  1  0  0  0  0
 19 22  1  0  0  0  0
 20 49  1  0  0  0  0
 20 50  1  0  0  0  0
 20 51  1  0  0  0  0
 21 52  1  0  0  0  0
 21 53  1  0  0  0  0
 21 54  1  0  0  0  0
 22 55  1  0  0  0  0
 22 56  1  0  0  0  0
 22 57  1  0  0  0  0
 23 24  1  0  0  0  0
 23 25  1  0  0  0  0
 24 58  1  0  0  0  0
 24 59  1  0  0  0  0
 24 60  1  0  0  0  0
 25 26  1  0  0  0  0
 26 61  1  0  0  0  0
 26 62  1  0  0  0  0
 27 28  1  0  0  0  0
 27 31  1  0  0  0  0
 27 26  1  0  0  0  0
 27 63  1  1  0  0  0
 28 29  1  0  0  0  0
 28 64  1  0  0  0  0
 28 65  1  0  0  0  0
 29 30  1  0  0  0  0
 29 66  1  0  0  0  0
 29 67  1  0  0  0  0
 30 31  1  0  0  0  0
 30 68  1  0  0  0  0
 30 69  1  0  0  0  0
 32 33  1  0  0  0  0
 32 34  1  0  0  0  0
 32 35  1  0  0  0  0
M  END
$$$$
CHEMBL2336546_8GUT
 OpenBabel12022418133D

 63 65  0  0  0  0  0  0  0  0999 V2000
    0.8094   -2.0284    1.7030 C   0  0  0  0  0  0  0  0  0  0  0  0
    2.2289   -1.8627    2.2220 C   0  0  0  0  0  0  0  0  0  0  0  0
    3.2484   -1.9661    1.1636 N   0  0  0  0  0  0  0  0  0  0  0  0
    3.2625   -3.1820    0.3211 C   0  0  0  0  0  0  0  0  0  0  0  0
    3.6391   -4.4460    1.0865 C   0  0  0  0  0  0  0  0  0  0  0  0
    4.5250   -1.4594    1.4786 C   0  0  0  0  0  0  0  0  0  0  0  0
    5.3882   -1.0147    0.4631 C   0  0  0  0  0  0  0  0  0  0  0  0
    6.6937   -0.5768    0.7378 C   0  0  0  0  0  0  0  0  0  0  0  0
    7.1727   -0.5773    2.0512 C   0  0  0  0  0  0  0  0  0  0  0  0
    8.6399   -0.3927    2.3680 C   0  0  0  0  0  0  0  0  0  0  0  0
    9.3014    0.8869    2.0033 N   0  0  0  0  0  0  0  0  0  0  0  0
    8.6184    2.0845    2.5689 C   0  0  0  0  0  0  0  0  0  0  0  0
    9.1976    3.4072    2.2016 C   0  0  0  0  0  0  0  0  0  0  0  0
    9.7169    3.9696    1.0522 C   0  0  0  0  0  0  0  0  0  0  0  0
   10.0921    5.2964    1.3802 C   0  0  0  0  0  0  0  0  0  0  0  0
    9.7437    5.4768    2.6962 C   0  0  0  0  0  0  0  0  0  0  0  0
    9.2022    4.3407    3.2031 O   0  0  0  0  0  0  0  0  0  0  0  0
   11.0220    0.7867    2.1645 S   0  0  0  0  0  0  0  0  0  0  0  0
   11.4069   -0.6087    2.1280 O   0  0  0  0  0  0  0  0  0  0  0  0
   11.6139    1.7271    1.2363 O   0  0  0  0  0  0  0  0  0  0  0  0
   11.3774    1.3629    3.8192 C   0  0  0  0  0  0  0  0  0  0  0  0
   10.8999    0.6736    4.9367 C   0  0  0  0  0  0  0  0  0  0  0  0
   11.2214    1.1254    6.2193 C   0  0  0  0  0  0  0  0  0  0  0  0
   12.0628    2.2338    6.3994 C   0  0  0  0  0  0  0  0  0  0  0  0
   12.4867    2.6413    7.7999 C   0  0  0  0  0  0  0  0  0  0  0  0
   13.9919    2.4322    7.9933 C   0  0  0  0  0  0  0  0  0  0  0  0
   12.0893    4.0808    8.1309 C   0  0  0  0  0  0  0  0  0  0  0  0
   12.5413    2.9079    5.2653 C   0  0  0  0  0  0  0  0  0  0  0  0
   12.1990    2.4800    3.9827 C   0  0  0  0  0  0  0  0  0  0  0  0
    6.2988   -0.9479    3.0783 C   0  0  0  0  0  0  0  0  0  0  0  0
    4.9991   -1.3776    2.7948 C   0  0  0  0  0  0  0  0  0  0  0  0
    0.0981   -1.6598    2.4502 H   0  0  0  0  0  0  0  0  0  0  0  0
    0.5759   -3.0834    1.5248 H   0  0  0  0  0  0  0  0  0  0  0  0
    0.6477   -1.4751    0.7731 H   0  0  0  0  0  0  0  0  0  0  0  0
    2.4067   -2.5963    3.0168 H   0  0  0  0  0  0  0  0  0  0  0  0
    2.2840   -0.8629    2.6717 H   0  0  0  0  0  0  0  0  0  0  0  0
    3.9451   -3.0675   -0.5298 H   0  0  0  0  0  0  0  0  0  0  0  0
    2.2731   -3.3232   -0.1280 H   0  0  0  0  0  0  0  0  0  0  0  0
    4.6681   -4.4003    1.4567 H   0  0  0  0  0  0  0  0  0  0  0  0
    3.5619   -5.3179    0.4273 H   0  0  0  0  0  0  0  0  0  0  0  0
    2.9776   -4.6186    1.9405 H   0  0  0  0  0  0  0  0  0  0  0  0
    5.0444   -1.0168   -0.5702 H   0  0  0  0  0  0  0  0  0  0  0  0
    7.3430   -0.2879   -0.0856 H   0  0  0  0  0  0  0  0  0  0  0  0
    9.1333   -1.2188    1.8411 H   0  0  0  0  0  0  0  0  0  0  0  0
    8.7804   -0.5700    3.4370 H   0  0  0  0  0  0  0  0  0  0  0  0
    8.5842    1.9886    3.6607 H   0  0  0  0  0  0  0  0  0  0  0  0
    7.5770    2.0944    2.2275 H   0  0  0  0  0  0  0  0  0  0  0  0
    9.8479    3.4676    0.1030 H   0  0  0  0  0  0  0  0  0  0  0  0
   10.5582    6.0289    0.7365 H   0  0  0  0  0  0  0  0  0  0  0  0
    9.8153    6.3089    3.3835 H   0  0  0  0  0  0  0  0  0  0  0  0
   10.2984   -0.2212    4.8352 H   0  0  0  0  0  0  0  0  0  0  0  0
   10.8307    0.5875    7.0807 H   0  0  0  0  0  0  0  0  0  0  0  0
   11.9745    1.9940    8.5241 H   0  0  0  0  0  0  0  0  0  0  0  0
   14.5833    3.0405    7.3001 H   0  0  0  0  0  0  0  0  0  0  0  0
   14.2633    1.3833    7.8280 H   0  0  0  0  0  0  0  0  0  0  0  0
   14.2935    2.6998    9.0113 H   0  0  0  0  0  0  0  0  0  0  0  0
   12.5655    4.8053    7.4620 H   0  0  0  0  0  0  0  0  0  0  0  0
   12.3831    4.3331    9.1558 H   0  0  0  0  0  0  0  0  0  0  0  0
   11.0047    4.2135    8.0517 H   0  0  0  0  0  0  0  0  0  0  0  0
   13.2042    3.7643    5.3690 H   0  0  0  0  0  0  0  0  0  0  0  0
   12.5923    3.0140    3.1197 H   0  0  0  0  0  0  0  0  0  0  0  0
    6.6340   -0.9696    4.1135 H   0  0  0  0  0  0  0  0  0  0  0  0
    4.3903   -1.7080    3.6296 H   0  0  0  0  0  0  0  0  0  0  0  0
  1  2  1  0  0  0  0
  1 32  1  0  0  0  0
  1 33  1  0  0  0  0
  1 34  1  0  0  0  0
  2  3  1  0  0  0  0
  2 35  1  0  0  0  0
  2 36  1  0  0  0  0
  3  4  1  0  0  0  0
  3  6  1  0  0  0  0
  4  5  1  0  0  0  0
  4 37  1  0  0  0  0
  4 38  1  0  0  0  0
  5 39  1  0  0  0  0
  5 40  1  0  0  0  0
  5 41  1  0  0  0  0
  6 31  2  0  0  0  0
  6  7  1  0  0  0  0
  7  8  2  0  0  0  0
  7 42  1  0  0  0  0
  8  9  1  0  0  0  0
  8 43  1  0  0  0  0
  9 10  1  0  0  0  0
  9 30  2  0  0  0  0
 10 11  1  0  0  0  0
 10 44  1  0  0  0  0
 10 45  1  0  0  0  0
 11 12  1  0  0  0  0
 11 18  1  0  0  0  0
 12 13  1  0  0  0  0
 12 46  1  0  0  0  0
 12 47  1  0  0  0  0
 13 17  1  0  0  0  0
 13 14  2  0  0  0  0
 14 15  1  0  0  0  0
 14 48  1  0  0  0  0
 15 16  2  0  0  0  0
 15 49  1  0  0  0  0
 16 17  1  0  0  0  0
 16 50  1  0  0  0  0
 18 19  2  0  0  0  0
 18 20  2  0  0  0  0
 18 21  1  0  0  0  0
 21 29  2  0  0  0  0
 21 22  1  0  0  0  0
 22 23  2  0  0  0  0
 22 51  1  0  0  0  0
 23 24  1  0  0  0  0
 23 52  1  0  0  0  0
 24 25  1  0  0  0  0
 24 28  2  0  0  0  0
 25 26  1  0  0  0  0
 25 27  1  0  0  0  0
 25 53  1  0  0  0  0
 26 54  1  0  0  0  0
 26 55  1  0  0  0  0
 26 56  1  0  0  0  0
 27 57  1  0  0  0  0
 27 58  1  0  0  0  0
 27 59  1  0  0  0  0
 28 29  1  0  0  0  0
 28 60  1  0  0  0  0
 29 61  1  0  0  0  0
 30 31  1  0  0  0  0
 30 62  1  0  0  0  0
 31 63  1  0  0  0  0
M  END
$$$$
CHEMBL2336567_5ZTY
 OpenBabel12022418133D

 67 69  0  0  0  0  0  0  0  0999 V2000
    0.9621   -2.0071    2.3772 C   0  0  0  0  0  0  0  0  0  0  0  0
    2.3957   -2.1028    2.8859 C   0  0  0  0  0  0  0  0  0  0  0  0
    3.3696   -2.2870    1.7836 N   0  0  0  0  0  0  0  0  0  0  0  0
    3.7009   -3.6975    1.4406 C   0  0  0  0  0  0  0  0  0  0  0  0
    2.5165   -4.4985    0.9176 C   0  0  0  0  0  0  0  0  0  0  0  0
    4.5870   -1.5469    1.9202 C   0  0  0  0  0  0  0  0  0  0  0  0
    5.3543   -1.2503    0.7785 C   0  0  0  0  0  0  0  0  0  0  0  0
    6.6310   -0.6501    0.8648 C   0  0  0  0  0  0  0  0  0  0  0  0
    7.1753   -0.3131    2.1037 C   0  0  0  0  0  0  0  0  0  0  0  0
    8.6473    0.0215    2.2941 C   0  0  0  0  0  0  0  0  0  0  0  0
    9.2858    1.1789    1.5644 N   0  0  0  0  0  0  0  0  0  0  0  0
    8.6701    2.4883    1.9860 C   0  0  0  0  0  0  0  0  0  0  0  0
    9.1624    3.7232    1.2488 C   0  0  0  0  0  0  0  0  0  0  0  0
    9.6690    4.8195    1.9710 C   0  0  0  0  0  0  0  0  0  0  0  0
   10.2351    5.9141    1.3104 C   0  0  0  0  0  0  0  0  0  0  0  0
   10.2896    5.9363   -0.0799 C   0  0  0  0  0  0  0  0  0  0  0  0
    9.7479    4.8781   -0.8107 C   0  0  0  0  0  0  0  0  0  0  0  0
    9.1785    3.7828   -0.1523 C   0  0  0  0  0  0  0  0  0  0  0  0
   11.0187    1.1458    1.8475 S   0  0  0  0  0  0  0  0  0  0  0  0
   11.6368    2.3965    1.4912 O   0  0  0  0  0  0  0  0  0  0  0  0
   11.2242    0.5818    3.1694 O   0  0  0  0  0  0  0  0  0  0  0  0
   11.6468   -0.0237    0.6544 C   0  0  0  0  0  0  0  0  0  0  0  0
   11.5757    0.2799   -0.7074 C   0  0  0  0  0  0  0  0  0  0  0  0
   12.2323   -0.5410   -1.6352 C   0  0  0  0  0  0  0  0  0  0  0  0
   12.9911   -1.6382   -1.2095 C   0  0  0  0  0  0  0  0  0  0  0  0
   13.0692   -1.9163    0.1544 C   0  0  0  0  0  0  0  0  0  0  0  0
   12.3907   -1.1224    1.0896 C   0  0  0  0  0  0  0  0  0  0  0  0
   13.5674   -2.3872   -2.2023 O   0  0  0  0  0  0  0  0  0  0  0  0
   14.8086   -3.0530   -1.9178 C   0  0  0  0  0  0  0  0  0  0  0  0
   14.5801   -4.4754   -1.4057 C   0  0  0  0  0  0  0  0  0  0  0  0
   15.5804   -3.1430   -3.2387 C   0  0  0  0  0  0  0  0  0  0  0  0
    6.3752   -0.5326    3.2434 C   0  0  0  0  0  0  0  0  0  0  0  0
    5.1125   -1.1448    3.1503 C   0  0  0  0  0  0  0  0  0  0  0  0
    0.3285   -1.5517    3.1470 H   0  0  0  0  0  0  0  0  0  0  0  0
    0.5362   -2.9902    2.1597 H   0  0  0  0  0  0  0  0  0  0  0  0
    0.8936   -1.3926    1.4749 H   0  0  0  0  0  0  0  0  0  0  0  0
    2.4834   -2.9027    3.6298 H   0  0  0  0  0  0  0  0  0  0  0  0
    2.5667   -1.1526    3.4062 H   0  0  0  0  0  0  0  0  0  0  0  0
    4.1246   -4.2096    2.3147 H   0  0  0  0  0  0  0  0  0  0  0  0
    4.4624   -3.7317    0.6513 H   0  0  0  0  0  0  0  0  0  0  0  0
    1.8301   -4.7725    1.7241 H   0  0  0  0  0  0  0  0  0  0  0  0
    2.8702   -5.4359    0.4726 H   0  0  0  0  0  0  0  0  0  0  0  0
    1.9601   -3.9507    0.1511 H   0  0  0  0  0  0  0  0  0  0  0  0
    4.9724   -1.5265   -0.2029 H   0  0  0  0  0  0  0  0  0  0  0  0
    7.2115   -0.5125   -0.0431 H   0  0  0  0  0  0  0  0  0  0  0  0
    9.1857   -0.8976    2.0294 H   0  0  0  0  0  0  0  0  0  0  0  0
    8.8031    0.1840    3.3700 H   0  0  0  0  0  0  0  0  0  0  0  0
    8.8250    2.6135    3.0662 H   0  0  0  0  0  0  0  0  0  0  0  0
    7.5862    2.4420    1.8296 H   0  0  0  0  0  0  0  0  0  0  0  0
    9.6752    4.8100    3.0581 H   0  0  0  0  0  0  0  0  0  0  0  0
   10.6619    6.7339    1.8834 H   0  0  0  0  0  0  0  0  0  0  0  0
   10.7638    6.7691   -0.5923 H   0  0  0  0  0  0  0  0  0  0  0  0
    9.7944    4.8983   -1.8968 H   0  0  0  0  0  0  0  0  0  0  0  0
    8.7858    2.9561   -0.7384 H   0  0  0  0  0  0  0  0  0  0  0  0
   11.0529    1.1722   -1.0472 H   0  0  0  0  0  0  0  0  0  0  0  0
   12.1831   -0.3004   -2.6949 H   0  0  0  0  0  0  0  0  0  0  0  0
   13.6565   -2.7410    0.5372 H   0  0  0  0  0  0  0  0  0  0  0  0
   12.4871   -1.3487    2.1468 H   0  0  0  0  0  0  0  0  0  0  0  0
   15.4125   -2.4694   -1.2114 H   0  0  0  0  0  0  0  0  0  0  0  0
   14.0127   -5.0667   -2.1319 H   0  0  0  0  0  0  0  0  0  0  0  0
   14.0036   -4.5011   -0.4796 H   0  0  0  0  0  0  0  0  0  0  0  0
   15.5356   -4.9764   -1.2165 H   0  0  0  0  0  0  0  0  0  0  0  0
   15.0209   -3.7283   -3.9787 H   0  0  0  0  0  0  0  0  0  0  0  0
   16.5575   -3.6170   -3.0962 H   0  0  0  0  0  0  0  0  0  0  0  0
   15.7328   -2.1504   -3.6740 H   0  0  0  0  0  0  0  0  0  0  0  0
    6.7524   -0.2917    4.2343 H   0  0  0  0  0  0  0  0  0  0  0  0
    4.5943   -1.3532    4.0834 H   0  0  0  0  0  0  0  0  0  0  0  0
  1  2  1  0  0  0  0
  1 34  1  0  0  0  0
  1 35  1  0  0  0  0
  1 36  1  0  0  0  0
  2  3  1  0  0  0  0
  2 37  1  0  0  0  0
  2 38  1  0  0  0  0
  3  4  1  0  0  0  0
  3  6  1  0  0  0  0
  4  5  1  0  0  0  0
  4 39  1  0  0  0  0
  4 40  1  0  0  0  0
  5 41  1  0  0  0  0
  5 42  1  0  0  0  0
  5 43  1  0  0  0  0
  6 33  2  0  0  0  0
  6  7  1  0  0  0  0
  7  8  2  0  0  0  0
  7 44  1  0  0  0  0
  8  9  1  0  0  0  0
  8 45  1  0  0  0  0
  9 10  1  0  0  0  0
  9 32  2  0  0  0  0
 10 11  1  0  0  0  0
 10 46  1  0  0  0  0
 10 47  1  0  0  0  0
 11 12  1  0  0  0  0
 11 19  1  0  0  0  0
 12 13  1  0  0  0  0
 12 48  1  0  0  0  0
 12 49  1  0  0  0  0
 13 18  2  0  0  0  0
 13 14  1  0  0  0  0
 14 15  2  0  0  0  0
 14 50  1  0  0  0  0
 15 16  1  0  0  0  0
 15 51  1  0  0  0  0
 16 17  2  0  0  0  0
 16 52  1  0  0  0  0
 17 18  1  0  0  0  0
 17 53  1  0  0  0  0
 18 54  1  0  0  0  0
 19 20  2  0  0  0  0
 19 21  2  0  0  0  0
 19 22  1  0  0  0  0
 22 27  2  0  0  0  0
 22 23  1  0  0  0  0
 23 24  2  0  0  0  0
 23 55  1  0  0  0  0
 24 25  1  0  0  0  0
 24 56  1  0  0  0  0
 25 26  2  0  0  0  0
 25 28  1  0  0  0  0
 26 27  1  0  0  0  0
 26 57  1  0  0  0  0
 27 58  1  0  0  0  0
 28 29  1  0  0  0  0
 29 30  1  0  0  0  0
 29 31  1  0  0  0  0
 29 59  1  0  0  0  0
 30 60  1  0  0  0  0
 30 61  1  0  0  0  0
 30 62  1  0  0  0  0
 31 63  1  0  0  0  0
 31 64  1  0  0  0  0
 31 65  1  0  0  0  0
 32 33  1  0  0  0  0
 32 66  1  0  0  0  0
 33 67  1  0  0  0  0
M  END
$$$$
CHEMBL3981363_8GUT
 OpenBabel12022418133D

 46 48  0  0  1  0  0  0  0  0999 V2000
    3.6002    0.5214    4.7469 C   0  0  0  0  0  0  0  0  0  0  0  0
    3.5944    0.9345    3.3327 C   0  0  0  0  0  0  0  0  0  0  0  0
    2.5846    1.0561    2.5044 N   0  0  0  0  0  0  0  0  0  0  0  0
    3.2026    1.4203    1.3243 C   0  0  0  0  0  0  0  0  0  0  0  0
    2.4314    1.6175    0.0200 C   0  0  2  0  0  0  0  0  0  0  0  0
    1.1459    0.7574    0.0677 C   0  0  0  0  0  0  0  0  0  0  0  0
    3.2931    1.2285   -1.2228 C   0  0  0  0  0  0  0  0  0  0  0  0
    3.7750   -0.2077   -1.2678 C   0  0  0  0  0  0  0  0  0  0  0  0
    3.1372   -1.2231   -2.1820 C   0  0  0  0  0  0  0  0  0  0  0  0
    4.4991   -0.6776   -2.5038 C   0  0  0  0  0  0  0  0  0  0  0  0
    2.0612    3.0543   -0.0478 N   0  0  0  0  0  0  0  0  0  0  0  0
    1.2764    3.6161   -1.0353 C   0  0  0  0  0  0  0  0  0  0  0  0
    0.8372    3.0043   -2.0010 O   0  0  0  0  0  0  0  0  0  0  0  0
    0.9548    5.0712   -0.8576 C   0  0  0  0  0  0  0  0  0  0  0  0
    0.1155    5.7061   -1.7689 C   0  0  0  0  0  0  0  0  0  0  0  0
   -0.2050    7.0584   -1.5842 C   0  0  0  0  0  0  0  0  0  0  0  0
    0.3069    7.7149   -0.4643 C   0  0  0  0  0  0  0  0  0  0  0  0
    1.1486    6.9933    0.3872 C   0  0  0  0  0  0  0  0  0  0  0  0
    1.4952    5.6940    0.2197 N   0  0  0  0  0  0  0  0  0  0  0  0
   -0.0823    9.3271    0.0057 Cl  0  0  0  0  0  0  0  0  0  0  0  0
   -1.0616    7.5360   -2.5421 O   0  0  0  0  0  0  0  0  0  0  0  0
   -0.9773    8.9171   -2.9164 C   0  0  0  0  0  0  0  0  0  0  0  0
   -1.3956    9.1441   -4.3704 C   0  0  0  0  0  0  0  0  0  0  0  0
   -1.7467    8.0050   -5.0020 F   0  0  0  0  0  0  0  0  0  0  0  0
   -2.4474    9.9930   -4.4451 F   0  0  0  0  0  0  0  0  0  0  0  0
   -0.3826    9.7020   -5.0759 F   0  0  0  0  0  0  0  0  0  0  0  0
    4.5327    1.5861    1.4381 N   0  0  0  0  0  0  0  0  0  0  0  0
    4.7958    1.2380    2.7637 O   0  0  0  0  0  0  0  0  0  0  0  0
    4.6175    0.3610    5.1165 H   0  0  0  0  0  0  0  0  0  0  0  0
    3.0432   -0.4129    4.8701 H   0  0  0  0  0  0  0  0  0  0  0  0
    3.1249    1.2871    5.3674 H   0  0  0  0  0  0  0  0  0  0  0  0
    0.5679    0.8247   -0.8582 H   0  0  0  0  0  0  0  0  0  0  0  0
    0.4868    1.0827    0.8819 H   0  0  0  0  0  0  0  0  0  0  0  0
    1.3760   -0.3005    0.2379 H   0  0  0  0  0  0  0  0  0  0  0  0
    4.1778    1.8792   -1.2677 H   0  0  0  0  0  0  0  0  0  0  0  0
    2.7345    1.4356   -2.1432 H   0  0  0  0  0  0  0  0  0  0  0  0
    4.1777   -0.5534   -0.3231 H   0  0  0  0  0  0  0  0  0  0  0  0
    2.3107   -0.9195   -2.8147 H   0  0  0  0  0  0  0  0  0  0  0  0
    3.0774   -2.2510   -1.8414 H   0  0  0  0  0  0  0  0  0  0  0  0
    5.3575   -1.3259   -2.3685 H   0  0  0  0  0  0  0  0  0  0  0  0
    4.5864   -0.0013   -3.3471 H   0  0  0  0  0  0  0  0  0  0  0  0
    2.3701    3.6773    0.6928 H   0  0  0  0  0  0  0  0  0  0  0  0
   -0.2977    5.1542   -2.6092 H   0  0  0  0  0  0  0  0  0  0  0  0
    1.5722    7.4608    1.2724 H   0  0  0  0  0  0  0  0  0  0  0  0
    0.0443    9.2957   -2.7972 H   0  0  0  0  0  0  0  0  0  0  0  0
   -1.6589    9.4852   -2.2744 H   0  0  0  0  0  0  0  0  0  0  0  0
  1  2  1  0  0  0  0
  1 29  1  0  0  0  0
  1 30  1  0  0  0  0
  1 31  1  0  0  0  0
  2 28  1  0  0  0  0
  2  3  2  0  0  0  0
  3  4  1  0  0  0  0
  4 27  2  0  0  0  0
  5  7  1  6  0  0  0
  5 11  1  0  0  0  0
  5  6  1  0  0  0  0
  5  4  1  0  0  0  0
  6 32  1  0  0  0  0
  6 33  1  0  0  0  0
  6 34  1  0  0  0  0
  7  8  1  0  0  0  0
  7 35  1  0  0  0  0
  7 36  1  0  0  0  0
  8 10  1  0  0  0  0
  8  9  1  0  0  0  0
  8 37  1  0  0  0  0
  9 10  1  0  0  0  0
  9 38  1  0  0  0  0
  9 39  1  0  0  0  0
 10 40  1  0  0  0  0
 10 41  1  0  0  0  0
 11 12  1  0  0  0  0
 11 42  1  0  0  0  0
 12 13  2  0  0  0  0
 12 14  1  0  0  0  0
 14 19  2  0  0  0  0
 14 15  1  0  0  0  0
 15 16  2  0  0  0  0
 15 43  1  0  0  0  0
 16 17  1  0  0  0  0
 16 21  1  0  0  0  0
 17 18  2  0  0  0  0
 17 20  1  0  0  0  0
 18 19  1  0  0  0  0
 18 44  1  0  0  0  0
 21 22  1  0  0  0  0
 22 23  1  0  0  0  0
 22 45  1  0  0  0  0
 22 46  1  0  0  0  0
 23 24  1  0  0  0  0
 23 25  1  0  0  0  0
 23 26  1  0  0  0  0
 27 28  1  0  0  0  0
M  END
$$$$
CHEMBL4163771_5ZTY
 OpenBabel12022418133D

 51 53  0  0  0  0  0  0  0  0999 V2000
   -0.2757   -1.1273    0.0446 C   0  0  0  0  0  0  0  0  0  0  0  0
    1.1060   -1.0834    0.0593 C   0  0  0  0  0  0  0  0  0  0  0  0
    1.8118    0.0615    0.0671 N   0  0  0  0  0  0  0  0  0  0  0  0
    1.1045    1.2202    0.0626 C   0  0  0  0  0  0  0  0  0  0  0  0
   -0.2951    1.3012    0.0321 C   0  0  0  0  0  0  0  0  0  0  0  0
   -1.0045    0.0752    0.0351 C   0  0  0  0  0  0  0  0  0  0  0  0
   -2.5047   -0.0169   -0.0090 C   0  0  0  0  0  0  0  0  0  0  0  0
   -1.0063    2.6306    0.0089 C   0  0  0  0  0  0  0  0  0  0  0  0
   -2.1443    2.7432    0.4474 O   0  0  0  0  0  0  0  0  0  0  0  0
   -0.3068    3.6829   -0.5447 N   0  0  0  0  0  0  0  0  0  0  0  0
   -0.7658    5.0530   -0.7606 C   0  0  0  0  0  0  0  0  0  0  0  0
   -1.9145    5.1213   -1.7724 C   0  0  0  0  0  0  0  0  0  0  0  0
   -3.3046    5.3494   -1.1834 C   0  0  0  0  0  0  0  0  0  0  0  0
   -3.6121    6.8284   -0.9589 C   0  0  0  0  0  0  0  0  0  0  0  0
   -2.9009    7.4799    0.2251 C   0  0  0  0  0  0  0  0  0  0  0  0
   -1.3862    7.2913    0.2890 C   0  0  0  0  0  0  0  0  0  0  0  0
   -0.9611    5.8404    0.5418 C   0  0  0  0  0  0  0  0  0  0  0  0
    1.8383    2.3776   -0.0747 O   0  0  0  0  0  0  0  0  0  0  0  0
    3.0861    2.3764    0.6071 C   0  0  0  0  0  0  0  0  0  0  0  0
    3.9283    3.4403   -0.0550 C   0  0  0  0  0  0  0  0  0  0  0  0
    4.7268    3.1028   -1.1615 C   0  0  0  0  0  0  0  0  0  0  0  0
    5.4916    4.0754   -1.8044 C   0  0  0  0  0  0  0  0  0  0  0  0
    5.4504    5.3882   -1.3503 C   0  0  0  0  0  0  0  0  0  0  0  0
    4.6498    5.7462   -0.2691 C   0  0  0  0  0  0  0  0  0  0  0  0
    3.8844    4.7746    0.3759 C   0  0  0  0  0  0  0  0  0  0  0  0
    6.1853    6.3215   -1.9668 F   0  0  0  0  0  0  0  0  0  0  0  0
   -0.7761   -2.0915    0.0282 H   0  0  0  0  0  0  0  0  0  0  0  0
    1.6965   -1.9948    0.0534 H   0  0  0  0  0  0  0  0  0  0  0  0
   -2.8375   -1.0616   -0.0425 H   0  0  0  0  0  0  0  0  0  0  0  0
   -2.8938    0.4705   -0.9087 H   0  0  0  0  0  0  0  0  0  0  0  0
   -2.9503    0.4246    0.8868 H   0  0  0  0  0  0  0  0  0  0  0  0
    0.6375    3.4863   -0.8688 H   0  0  0  0  0  0  0  0  0  0  0  0
    0.0985    5.5126   -1.2605 H   0  0  0  0  0  0  0  0  0  0  0  0
   -1.9263    4.2037   -2.3747 H   0  0  0  0  0  0  0  0  0  0  0  0
   -1.6980    5.9296   -2.4836 H   0  0  0  0  0  0  0  0  0  0  0  0
   -3.4590    4.7797   -0.2622 H   0  0  0  0  0  0  0  0  0  0  0  0
   -4.0359    4.9668   -1.9060 H   0  0  0  0  0  0  0  0  0  0  0  0
   -4.6924    6.9318   -0.7965 H   0  0  0  0  0  0  0  0  0  0  0  0
   -3.3904    7.3926   -1.8730 H   0  0  0  0  0  0  0  0  0  0  0  0
   -3.3485    7.1162    1.1578 H   0  0  0  0  0  0  0  0  0  0  0  0
   -3.1114    8.5567    0.1882 H   0  0  0  0  0  0  0  0  0  0  0  0
   -1.0165    7.9047    1.1213 H   0  0  0  0  0  0  0  0  0  0  0  0
   -0.9128    7.6879   -0.6148 H   0  0  0  0  0  0  0  0  0  0  0  0
   -0.0027    5.8518    1.0776 H   0  0  0  0  0  0  0  0  0  0  0  0
   -1.6676    5.3425    1.2161 H   0  0  0  0  0  0  0  0  0  0  0  0
    3.6252    1.4221    0.5610 H   0  0  0  0  0  0  0  0  0  0  0  0
    2.9206    2.6233    1.6626 H   0  0  0  0  0  0  0  0  0  0  0  0
    4.7480    2.0771   -1.5277 H   0  0  0  0  0  0  0  0  0  0  0  0
    6.1136    3.8186   -2.6547 H   0  0  0  0  0  0  0  0  0  0  0  0
    4.6295    6.7817    0.0588 H   0  0  0  0  0  0  0  0  0  0  0  0
    3.2503    5.0638    1.2117 H   0  0  0  0  0  0  0  0  0  0  0  0
  1  6  2  0  0  0  0
  1  2  1  0  0  0  0
  1 27  1  0  0  0  0
  2  3  2  0  0  0  0
  2 28  1  0  0  0  0
  3  4  1  0  0  0  0
  4  5  2  0  0  0  0
  4 18  1  0  0  0  0
  5  6  1  0  0  0  0
  5  8  1  0  0  0  0
  6  7  1  0  0  0  0
  7 29  1  0  0  0  0
  7 30  1  0  0  0  0
  7 31  1  0  0  0  0
  8  9  2  0  0  0  0
  8 10  1  0  0  0  0
 10 11  1  0  0  0  0
 10 32  1  0  0  0  0
 11 17  1  0  0  0  0
 11 12  1  0  0  0  0
 11 33  1  0  0  0  0
 12 13  1  0  0  0  0
 12 34  1  0  0  0  0
 12 35  1  0  0  0  0
 13 14  1  0  0  0  0
 13 36  1  0  0  0  0
 13 37  1  0  0  0  0
 14 15  1  0  0  0  0
 14 38  1  0  0  0  0
 14 39  1  0  0  0  0
 15 16  1  0  0  0  0
 15 40  1  0  0  0  0
 15 41  1  0  0  0  0
 16 17  1  0  0  0  0
 16 42  1  0  0  0  0
 16 43  1  0  0  0  0
 17 44  1  0  0  0  0
 17 45  1  0  0  0  0
 18 19  1  0  0  0  0
 19 20  1  0  0  0  0
 19 46  1  0  0  0  0
 19 47  1  0  0  0  0
 20 25  2  0  0  0  0
 20 21  1  0  0  0  0
 21 22  2  0  0  0  0
 21 48  1  0  0  0  0
 22 23  1  0  0  0  0
 22 49  1  0  0  0  0
 23 24  2  0  0  0  0
 23 26  1  0  0  0  0
 24 25  1  0  0  0  0
 24 50  1  0  0  0  0
 25 51  1  0  0  0  0
M  END
$$$$
CHEMBL4780771_8GUT
 OpenBabel12022418133D

 51 53  0  0  0  0  0  0  0  0999 V2000
   -0.8226    1.1444   -0.0208 C   0  0  0  0  0  0  0  0  0  0  0  0
    0.5599    1.1276   -0.0275 C   0  0  0  0  0  0  0  0  0  0  0  0
    1.4352    2.3452   -0.0345 C   0  0  0  0  0  0  0  0  0  0  0  0
    1.2403   -0.0454   -0.0136 N   0  0  0  0  0  0  0  0  0  0  0  0
    0.5738   -1.2373    0.0176 C   0  0  0  0  0  0  0  0  0  0  0  0
   -0.8112   -1.3122    0.0064 C   0  0  0  0  0  0  0  0  0  0  0  0
   -1.4967   -0.0768   -0.0097 C   0  0  0  0  0  0  0  0  0  0  0  0
   -1.6857   -2.5198    0.0507 C   0  0  0  0  0  0  0  0  0  0  0  0
   -2.9074   -2.3395    0.0646 O   0  0  0  0  0  0  0  0  0  0  0  0
   -1.1645   -3.8009    0.0843 N   0  0  0  0  0  0  0  0  0  0  0  0
   -2.0914   -4.9503    0.1523 C   0  0  0  0  0  0  0  0  0  0  0  0
   -2.7308   -5.2579   -1.2192 C   0  0  0  0  0  0  0  0  0  0  0  0
   -2.3175   -6.5581   -1.9120 C   0  0  0  0  0  0  0  0  0  0  0  0
   -3.0214   -7.7993   -1.3621 C   0  0  0  0  0  0  0  0  0  0  0  0
   -2.4836   -8.3131   -0.0319 C   0  0  0  0  0  0  0  0  0  0  0  0
   -2.4657   -7.2913    1.1004 C   0  0  0  0  0  0  0  0  0  0  0  0
   -1.4715   -6.1459    0.8812 C   0  0  0  0  0  0  0  0  0  0  0  0
    1.3684   -2.3718    0.0596 O   0  0  0  0  0  0  0  0  0  0  0  0
    2.7237   -2.0142    0.4125 C   0  0  0  0  0  0  0  0  0  0  0  0
    3.7013   -3.1685    0.4066 C   0  0  0  0  0  0  0  0  0  0  0  0
    4.9513   -2.9858    1.0333 C   0  0  0  0  0  0  0  0  0  0  0  0
    5.9047   -4.0026    1.0307 C   0  0  0  0  0  0  0  0  0  0  0  0
    5.6157   -5.1982    0.3911 C   0  0  0  0  0  0  0  0  0  0  0  0
    4.4007   -5.3899   -0.2644 C   0  0  0  0  0  0  0  0  0  0  0  0
    3.4467   -4.3696   -0.2643 C   0  0  0  0  0  0  0  0  0  0  0  0
    6.5236   -6.1836    0.3930 F   0  0  0  0  0  0  0  0  0  0  0  0
   -1.8535    2.7329   -0.0054 Br  0  0  0  0  0  0  0  0  0  0  0  0
    0.8881    3.2890   -0.0512 H   0  0  0  0  0  0  0  0  0  0  0  0
    2.0874    2.3247   -0.9145 H   0  0  0  0  0  0  0  0  0  0  0  0
    2.0661    2.3431    0.8614 H   0  0  0  0  0  0  0  0  0  0  0  0
   -2.5865   -0.0677    0.0042 H   0  0  0  0  0  0  0  0  0  0  0  0
   -0.1662   -3.9475   -0.0191 H   0  0  0  0  0  0  0  0  0  0  0  0
   -2.9163   -4.6101    0.7951 H   0  0  0  0  0  0  0  0  0  0  0  0
   -2.5345   -4.4298   -1.9118 H   0  0  0  0  0  0  0  0  0  0  0  0
   -3.8226   -5.2716   -1.0926 H   0  0  0  0  0  0  0  0  0  0  0  0
   -1.2299   -6.6847   -1.9062 H   0  0  0  0  0  0  0  0  0  0  0  0
   -2.6098   -6.4701   -2.9667 H   0  0  0  0  0  0  0  0  0  0  0  0
   -2.9135   -8.6085   -2.0965 H   0  0  0  0  0  0  0  0  0  0  0  0
   -4.0995   -7.6137   -1.2777 H   0  0  0  0  0  0  0  0  0  0  0  0
   -1.4737   -8.7148   -0.1775 H   0  0  0  0  0  0  0  0  0  0  0  0
   -3.1057   -9.1634    0.2787 H   0  0  0  0  0  0  0  0  0  0  0  0
   -2.1770   -7.8241    2.0153 H   0  0  0  0  0  0  0  0  0  0  0  0
   -3.4774   -6.9058    1.2781 H   0  0  0  0  0  0  0  0  0  0  0  0
   -1.1346   -5.7999    1.8674 H   0  0  0  0  0  0  0  0  0  0  0  0
   -0.5686   -6.5005    0.3677 H   0  0  0  0  0  0  0  0  0  0  0  0
    2.7108   -1.5960    1.4292 H   0  0  0  0  0  0  0  0  0  0  0  0
    3.1365   -1.2825   -0.2961 H   0  0  0  0  0  0  0  0  0  0  0  0
    5.1904   -2.0400    1.5183 H   0  0  0  0  0  0  0  0  0  0  0  0
    6.8661   -3.8673    1.5161 H   0  0  0  0  0  0  0  0  0  0  0  0
    4.2097   -6.3267   -0.7742 H   0  0  0  0  0  0  0  0  0  0  0  0
    2.5118   -4.5147   -0.7993 H   0  0  0  0  0  0  0  0  0  0  0  0
  1  7  2  0  0  0  0
  1  2  1  0  0  0  0
  1 27  1  0  0  0  0
  2  3  1  0  0  0  0
  2  4  2  0  0  0  0
  3 28  1  0  0  0  0
  3 29  1  0  0  0  0
  3 30  1  0  0  0  0
  4  5  1  0  0  0  0
  5  6  2  0  0  0  0
  5 18  1  0  0  0  0
  6  7  1  0  0  0  0
  6  8  1  0  0  0  0
  7 31  1  0  0  0  0
  8  9  2  0  0  0  0
  8 10  1  0  0  0  0
 10 11  1  0  0  0  0
 10 32  1  0  0  0  0
 11 17  1  0  0  0  0
 11 12  1  0  0  0  0
 11 33  1  0  0  0  0
 12 13  1  0  0  0  0
 12 34  1  0  0  0  0
 12 35  1  0  0  0  0
 13 14  1  0  0  0  0
 13 36  1  0  0  0  0
 13 37  1  0  0  0  0
 14 15  1  0  0  0  0
 14 38  1  0  0  0  0
 14 39  1  0  0  0  0
 15 16  1  0  0  0  0
 15 40  1  0  0  0  0
 15 41  1  0  0  0  0
 16 17  1  0  0  0  0
 16 42  1  0  0  0  0
 16 43  1  0  0  0  0
 17 44  1  0  0  0  0
 17 45  1  0  0  0  0
 18 19  1  0  0  0  0
 19 20  1  0  0  0  0
 19 46  1  0  0  0  0
 19 47  1  0  0  0  0
 20 25  2  0  0  0  0
 20 21  1  0  0  0  0
 21 22  2  0  0  0  0
 21 48  1  0  0  0  0
 22 23  1  0  0  0  0
 22 49  1  0  0  0  0
 23 24  2  0  0  0  0
 23 26  1  0  0  0  0
 24 25  1  0  0  0  0
 24 50  1  0  0  0  0
 25 51  1  0  0  0  0
M  END
$$$$
CHEMBL3686328_8GUR
 OpenBabel12022418133D

 66 68  0  0  1  0  0  0  0  0999 V2000
    7.1912   -6.5439   -1.1321 C   0  0  0  0  0  0  0  0  0  0  0  0
    6.6425   -6.4975    0.2864 C   0  0  0  0  0  0  0  0  0  0  0  0
    5.1764   -6.4678    0.3928 N   0  0  0  0  0  0  0  0  0  0  0  0
    4.4758   -7.5613   -0.2869 C   0  0  0  0  0  0  0  0  0  0  0  0
    4.7190   -8.9846    0.2009 C   0  0  0  0  0  0  0  0  0  0  0  0
    4.9568   -6.6129    1.8182 O   0  0  0  0  0  0  0  0  0  0  0  0
    3.9120   -5.8873    2.3344 C   0  0  0  0  0  0  0  0  0  0  0  0
    3.3223   -6.5755    3.4170 C   0  0  0  0  0  0  0  0  0  0  0  0
    2.1873   -6.0927    4.0703 C   0  0  0  0  0  0  0  0  0  0  0  0
    1.6495   -4.8641    3.7010 C   0  0  0  0  0  0  0  0  0  0  0  0
    0.3541   -4.3470    4.2727 C   0  0  0  0  0  0  0  0  0  0  0  0
   -0.1874   -5.1568    5.2230 F   0  0  0  0  0  0  0  0  0  0  0  0
    0.4881   -3.1217    4.8493 F   0  0  0  0  0  0  0  0  0  0  0  0
   -0.6068   -4.2017    3.3166 F   0  0  0  0  0  0  0  0  0  0  0  0
    2.3010   -4.1260    2.7023 C   0  0  0  0  0  0  0  0  0  0  0  0
    3.3862   -4.6469    1.9560 C   0  0  0  0  0  0  0  0  0  0  0  0
    3.7879   -3.8313    0.7514 C   0  0  0  0  0  0  0  0  0  0  0  0
    4.9745   -3.6781    0.4884 O   0  0  0  0  0  0  0  0  0  0  0  0
    2.8099   -3.0629    0.1364 N   0  0  0  0  0  0  0  0  0  0  0  0
    1.6860   -3.5618   -0.2789 C   0  0  0  0  0  0  0  0  0  0  0  0
    0.5877   -2.8472   -0.7528 N   0  0  0  0  0  0  0  0  0  0  0  0
   -0.5834   -3.5955   -0.8279 C   0  0  0  0  0  0  0  0  0  0  0  0
   -0.4840   -4.8967   -0.5090 C   0  0  0  0  0  0  0  0  0  0  0  0
   -1.5729   -5.9562   -0.4327 C   0  0  0  0  0  0  0  0  0  0  0  0
   -1.3746   -6.9306   -1.6065 C   0  0  0  0  0  0  0  0  0  0  0  0
   -1.5204   -6.7371    0.9010 C   0  0  0  0  0  0  0  0  0  0  0  0
   -2.9917   -5.3521   -0.5333 C   0  0  0  0  0  0  0  0  0  0  0  0
    1.2095   -5.2852   -0.2237 S   0  0  0  0  0  0  0  0  0  0  0  0
    0.6530   -1.4339   -1.1378 C   0  0  0  0  0  0  0  0  0  0  0  0
   -0.0628   -0.4757   -0.1676 C   0  0  2  0  0  0  0  0  0  0  0  0
    0.5089   -0.4312    1.2384 C   0  0  0  0  0  0  0  0  0  0  0  0
   -0.6886   -0.0840    2.0857 C   0  0  0  0  0  0  0  0  0  0  0  0
   -1.8352   -0.7246    1.3375 C   0  0  0  0  0  0  0  0  0  0  0  0
   -1.4707   -0.7653   -0.0483 O   0  0  0  0  0  0  0  0  0  0  0  0
    8.2653   -6.3283   -1.1248 H   0  0  0  0  0  0  0  0  0  0  0  0
    6.7049   -5.8023   -1.7729 H   0  0  0  0  0  0  0  0  0  0  0  0
    7.0612   -7.5362   -1.5760 H   0  0  0  0  0  0  0  0  0  0  0  0
    7.0321   -5.5866    0.7602 H   0  0  0  0  0  0  0  0  0  0  0  0
    7.0684   -7.3398    0.8536 H   0  0  0  0  0  0  0  0  0  0  0  0
    4.6908   -7.5134   -1.3635 H   0  0  0  0  0  0  0  0  0  0  0  0
    3.4019   -7.3675   -0.2159 H   0  0  0  0  0  0  0  0  0  0  0  0
    5.7697   -9.2715    0.1356 H   0  0  0  0  0  0  0  0  0  0  0  0
    4.1421   -9.6803   -0.4183 H   0  0  0  0  0  0  0  0  0  0  0  0
    4.3789   -9.1139    1.2341 H   0  0  0  0  0  0  0  0  0  0  0  0
    3.7324   -7.5388    3.7195 H   0  0  0  0  0  0  0  0  0  0  0  0
    1.7211   -6.6944    4.8493 H   0  0  0  0  0  0  0  0  0  0  0  0
    1.8951   -3.1504    2.4460 H   0  0  0  0  0  0  0  0  0  0  0  0
   -1.4902   -3.0766   -1.1121 H   0  0  0  0  0  0  0  0  0  0  0  0
   -0.4370   -7.4909   -1.5123 H   0  0  0  0  0  0  0  0  0  0  0  0
   -1.3446   -6.3926   -2.5618 H   0  0  0  0  0  0  0  0  0  0  0  0
   -2.1869   -7.6627   -1.6609 H   0  0  0  0  0  0  0  0  0  0  0  0
   -0.5557   -7.2298    1.0627 H   0  0  0  0  0  0  0  0  0  0  0  0
   -2.2846   -7.5241    0.9232 H   0  0  0  0  0  0  0  0  0  0  0  0
   -1.7049   -6.0778    1.7574 H   0  0  0  0  0  0  0  0  0  0  0  0
   -3.1323   -4.7873   -1.4610 H   0  0  0  0  0  0  0  0  0  0  0  0
   -3.2005   -4.6808    0.3088 H   0  0  0  0  0  0  0  0  0  0  0  0
   -3.7553   -6.1394   -0.5163 H   0  0  0  0  0  0  0  0  0  0  0  0
    0.1853   -1.3380   -2.1269 H   0  0  0  0  0  0  0  0  0  0  0  0
    1.6956   -1.1157   -1.2606 H   0  0  0  0  0  0  0  0  0  0  0  0
   -0.0102    0.5326   -0.5986 H   0  0  0  0  0  0  0  0  0  0  0  0
    1.3181    0.3001    1.3302 H   0  0  0  0  0  0  0  0  0  0  0  0
    0.9006   -1.4015    1.5439 H   0  0  0  0  0  0  0  0  0  0  0  0
   -0.8227    1.0031    2.1188 H   0  0  0  0  0  0  0  0  0  0  0  0
   -0.6056   -0.4457    3.1149 H   0  0  0  0  0  0  0  0  0  0  0  0
   -2.7692   -0.1665    1.4538 H   0  0  0  0  0  0  0  0  0  0  0  0
   -2.0043   -1.7536    1.6715 H   0  0  0  0  0  0  0  0  0  0  0  0
  1  2  1  0  0  0  0
  1 35  1  0  0  0  0
  1 36  1  0  0  0  0
  1 37  1  0  0  0  0
  2  3  1  0  0  0  0
  2 38  1  0  0  0  0
  2 39  1  0  0  0  0
  3  4  1  0  0  0  0
  3  6  1  0  0  0  0
  4  5  1  0  0  0  0
  4 40  1  0  0  0  0
  4 41  1  0  0  0  0
  5 42  1  0  0  0  0
  5 43  1  0  0  0  0
  5 44  1  0  0  0  0
  6  7  1  0  0  0  0
  7 16  2  0  0  0  0
  7  8  1  0  0  0  0
  8  9  2  0  0  0  0
  8 45  1  0  0  0  0
  9 10  1  0  0  0  0
  9 46  1  0  0  0  0
 10 11  1  0  0  0  0
 10 15  2  0  0  0  0
 11 12  1  0  0  0  0
 11 13  1  0  0  0  0
 11 14  1  0  0  0  0
 15 16  1  0  0  0  0
 15 47  1  0  0  0  0
 16 17  1  0  0  0  0
 17 18  2  0  0  0  0
 17 19  1  0  0  0  0
 19 20  2  0  0  0  0
 20 28  1  0  0  0  0
 20 21  1  0  0  0  0
 21 22  1  0  0  0  0
 21 29  1  0  0  0  0
 22 23  2  0  0  0  0
 22 48  1  0  0  0  0
 23 24  1  0  0  0  0
 23 28  1  0  0  0  0
 24 25  1  0  0  0  0
 24 26  1  0  0  0  0
 24 27  1  0  0  0  0
 25 49  1  0  0  0  0
 25 50  1  0  0  0  0
 25 51  1  0  0  0  0
 26 52  1  0  0  0  0
 26 53  1  0  0  0  0
 26 54  1  0  0  0  0
 27 55  1  0  0  0  0
 27 56  1  0  0  0  0
 27 57  1  0  0  0  0
 29 58  1  0  0  0  0
 29 59  1  0  0  0  0
 30 29  1  0  0  0  0
 30 31  1  0  0  0  0
 30 34  1  0  0  0  0
 30 60  1  6  0  0  0
 31 32  1  0  0  0  0
 31 61  1  0  0  0  0
 31 62  1  0  0  0  0
 32 33  1  0  0  0  0
 32 63  1  0  0  0  0
 32 64  1  0  0  0  0
 33 34  1  0  0  0  0
 33 65  1  0  0  0  0
 33 66  1  0  0  0  0
M  END
$$$$
CHEMBL4856531_8GUT
 OpenBabel12022418133D

 51 53  0  0  0  0  0  0  0  0999 V2000
    0.9194   -0.3825    0.2696 C   0  0  0  0  0  0  0  0  0  0  0  0
    2.4041   -0.1119    0.2026 C   0  0  0  0  0  0  0  0  0  0  0  0
    2.9465    1.1351    0.2024 C   0  0  0  0  0  0  0  0  0  0  0  0
    4.4708    1.2788    0.2587 C   0  0  0  0  0  0  0  0  0  0  0  0
    4.9588    2.4113    0.2503 O   0  0  0  0  0  0  0  0  0  0  0  0
    5.2224    0.1069    0.2762 N   0  0  0  0  0  0  0  0  0  0  0  0
    4.6202   -1.1339    0.2689 C   0  0  0  0  0  0  0  0  0  0  0  0
    3.2901   -1.2874    0.2160 C   0  0  0  0  0  0  0  0  0  0  0  0
    2.6124   -3.0384    0.0934 Br  0  0  0  0  0  0  0  0  0  0  0  0
    6.6754    0.1679    0.0925 C   0  0  0  0  0  0  0  0  0  0  0  0
    7.4990    0.2715    1.3496 C   0  0  0  0  0  0  0  0  0  0  0  0
    7.9879    1.5142    1.7791 C   0  0  0  0  0  0  0  0  0  0  0  0
    8.8777    1.5962    2.8534 C   0  0  0  0  0  0  0  0  0  0  0  0
    9.2764    0.4423    3.5290 C   0  0  0  0  0  0  0  0  0  0  0  0
    8.7640   -0.7959    3.1380 C   0  0  0  0  0  0  0  0  0  0  0  0
    7.8831   -0.8670    2.0574 C   0  0  0  0  0  0  0  0  0  0  0  0
    7.4458   -2.0771    1.6745 F   0  0  0  0  0  0  0  0  0  0  0  0
    2.2636    2.3616    0.1835 N   0  0  0  0  0  0  0  0  0  0  0  0
    1.0711    2.6420   -0.4544 C   0  0  0  0  0  0  0  0  0  0  0  0
    0.5403    1.8917   -1.2745 O   0  0  0  0  0  0  0  0  0  0  0  0
    0.3827    3.9784   -0.1145 C   0  0  0  0  0  0  0  0  0  0  0  0
   -0.0821    4.0521    1.3505 C   0  0  0  0  0  0  0  0  0  0  0  0
    0.5277    5.1492    2.2254 C   0  0  0  0  0  0  0  0  0  0  0  0
   -0.0707    6.5355    1.9789 C   0  0  0  0  0  0  0  0  0  0  0  0
    0.4131    7.2495    0.7208 C   0  0  0  0  0  0  0  0  0  0  0  0
    0.2705    6.4698   -0.5824 C   0  0  0  0  0  0  0  0  0  0  0  0
    1.1319    5.2019   -0.6453 C   0  0  0  0  0  0  0  0  0  0  0  0
    0.6737   -1.2619    0.8714 H   0  0  0  0  0  0  0  0  0  0  0  0
    0.5163   -0.5422   -0.7366 H   0  0  0  0  0  0  0  0  0  0  0  0
    0.3741    0.4290    0.7588 H   0  0  0  0  0  0  0  0  0  0  0  0
    5.2845   -1.9960    0.2717 H   0  0  0  0  0  0  0  0  0  0  0  0
    6.9083    1.0173   -0.5613 H   0  0  0  0  0  0  0  0  0  0  0  0
    7.0043   -0.7157   -0.4735 H   0  0  0  0  0  0  0  0  0  0  0  0
    7.7019    2.4225    1.2507 H   0  0  0  0  0  0  0  0  0  0  0  0
    9.2765    2.5623    3.1496 H   0  0  0  0  0  0  0  0  0  0  0  0
    9.9874    0.5075    4.3470 H   0  0  0  0  0  0  0  0  0  0  0  0
    9.0626   -1.7023    3.6547 H   0  0  0  0  0  0  0  0  0  0  0  0
    2.8691    3.1611    0.3636 H   0  0  0  0  0  0  0  0  0  0  0  0
   -0.5474    3.9258   -0.7033 H   0  0  0  0  0  0  0  0  0  0  0  0
    0.0783    3.0854    1.8423 H   0  0  0  0  0  0  0  0  0  0  0  0
   -1.1733    4.1913    1.3516 H   0  0  0  0  0  0  0  0  0  0  0  0
    1.6194    5.1672    2.1410 H   0  0  0  0  0  0  0  0  0  0  0  0
    0.3076    4.8892    3.2694 H   0  0  0  0  0  0  0  0  0  0  0  0
    0.1830    7.1741    2.8358 H   0  0  0  0  0  0  0  0  0  0  0  0
   -1.1661    6.4730    1.9682 H   0  0  0  0  0  0  0  0  0  0  0  0
    1.4605    7.5463    0.8520 H   0  0  0  0  0  0  0  0  0  0  0  0
   -0.1560    8.1842    0.6250 H   0  0  0  0  0  0  0  0  0  0  0  0
    0.5779    7.1352   -1.3989 H   0  0  0  0  0  0  0  0  0  0  0  0
   -0.7861    6.2356   -0.7640 H   0  0  0  0  0  0  0  0  0  0  0  0
    1.3855    5.0158   -1.6971 H   0  0  0  0  0  0  0  0  0  0  0  0
    2.0888    5.3506   -0.1324 H   0  0  0  0  0  0  0  0  0  0  0  0
  1  2  1  0  0  0  0
  1 28  1  0  0  0  0
  1 29  1  0  0  0  0
  1 30  1  0  0  0  0
  2  8  1  0  0  0  0
  2  3  2  0  0  0  0
  3  4  1  0  0  0  0
  3 18  1  0  0  0  0
  4  5  2  0  0  0  0
  4  6  1  0  0  0  0
  6  7  1  0  0  0  0
  6 10  1  0  0  0  0
  7  8  2  0  0  0  0
  7 31  1  0  0  0  0
  8  9  1  0  0  0  0
 10 11  1  0  0  0  0
 10 32  1  0  0  0  0
 10 33  1  0  0  0  0
 11 16  2  0  0  0  0
 11 12  1  0  0  0  0
 12 13  2  0  0  0  0
 12 34  1  0  0  0  0
 13 14  1  0  0  0  0
 13 35  1  0  0  0  0
 14 15  2  0  0  0  0
 14 36  1  0  0  0  0
 15 16  1  0  0  0  0
 15 37  1  0  0  0  0
 16 17  1  0  0  0  0
 18 19  1  0  0  0  0
 18 38  1  0  0  0  0
 19 20  2  0  0  0  0
 19 21  1  0  0  0  0
 21 27  1  0  0  0  0
 21 22  1  0  0  0  0
 21 39  1  0  0  0  0
 22 23  1  0  0  0  0
 22 40  1  0  0  0  0
 22 41  1  0  0  0  0
 23 24  1  0  0  0  0
 23 42  1  0  0  0  0
 23 43  1  0  0  0  0
 24 25  1  0  0  0  0
 24 44  1  0  0  0  0
 24 45  1  0  0  0  0
 25 26  1  0  0  0  0
 25 46  1  0  0  0  0
 25 47  1  0  0  0  0
 26 27  1  0  0  0  0
 26 48  1  0  0  0  0
 26 49  1  0  0  0  0
 27 50  1  0  0  0  0
 27 51  1  0  0  0  0
M  END
$$$$
CHEMBL2414041_8GUS
 OpenBabel12022418133D

 62 63  0  0  0  0  0  0  0  0999 V2000
    6.2511    5.3021  -11.4345 C   0  0  0  0  0  0  0  0  0  0  0  0
    6.5916    3.8244  -11.3061 C   0  0  0  0  0  0  0  0  0  0  0  0
    6.2752    3.3263   -9.8984 C   0  0  0  0  0  0  0  0  0  0  0  0
    6.5832    1.8429   -9.7150 C   0  0  0  0  0  0  0  0  0  0  0  0
    6.2144    1.3941   -8.2972 C   0  0  0  0  0  0  0  0  0  0  0  0
    6.3551   -0.0177   -8.2386 O   0  0  0  0  0  0  0  0  0  0  0  0
    6.5880   -0.5914   -7.0150 C   0  0  0  0  0  0  0  0  0  0  0  0
    7.5272   -1.6396   -7.1181 C   0  0  0  0  0  0  0  0  0  0  0  0
    7.8768   -2.4243   -6.0196 C   0  0  0  0  0  0  0  0  0  0  0  0
    7.2776   -2.1718   -4.7960 C   0  0  0  0  0  0  0  0  0  0  0  0
    6.3542   -1.1288   -4.6793 C   0  0  0  0  0  0  0  0  0  0  0  0
    5.9809   -0.3137   -5.7786 C   0  0  0  0  0  0  0  0  0  0  0  0
    5.0015    0.7382   -5.4786 C   0  0  0  0  0  0  0  0  0  0  0  0
    4.8734    1.6263   -4.4370 C   0  0  0  0  0  0  0  0  0  0  0  0
    3.6440    2.3214   -4.6464 C   0  0  0  0  0  0  0  0  0  0  0  0
    3.1742    3.4136   -3.7626 C   0  0  0  0  0  0  0  0  0  0  0  0
    4.0269    3.9400   -3.0387 O   0  0  0  0  0  0  0  0  0  0  0  0
    1.8338    3.8732   -3.6841 N   0  0  0  0  0  0  0  0  0  0  0  0
    0.6705    3.2940   -4.3908 C   0  0  0  0  0  0  0  0  0  0  0  0
   -0.1668    4.3398   -5.1731 C   0  0  0  0  0  0  0  0  0  0  0  0
    0.6035    4.8713   -6.3803 C   0  0  0  0  0  0  0  0  0  0  0  0
   -1.5181    3.7788   -5.6174 C   0  0  0  0  0  0  0  0  0  0  0  0
    1.5823    5.0200   -2.7798 C   0  0  0  0  0  0  0  0  0  0  0  0
    0.5634    4.7907   -1.6396 C   0  0  0  0  0  0  0  0  0  0  0  0
    1.0465    3.7523   -0.6286 C   0  0  0  0  0  0  0  0  0  0  0  0
    0.3005    6.1150   -0.9091 C   0  0  0  0  0  0  0  0  0  0  0  0
    3.0734    1.8847   -5.7813 N   0  0  0  0  0  0  0  0  0  0  0  0
    3.9033    0.8725   -6.2775 O   0  0  0  0  0  0  0  0  0  0  0  0
    6.4997    5.6687  -12.4356 H   0  0  0  0  0  0  0  0  0  0  0  0
    6.8104    5.8965  -10.7047 H   0  0  0  0  0  0  0  0  0  0  0  0
    5.1829    5.4720  -11.2652 H   0  0  0  0  0  0  0  0  0  0  0  0
    7.6539    3.6746  -11.5297 H   0  0  0  0  0  0  0  0  0  0  0  0
    6.0181    3.2551  -12.0469 H   0  0  0  0  0  0  0  0  0  0  0  0
    5.2132    3.5011   -9.6868 H   0  0  0  0  0  0  0  0  0  0  0  0
    6.8493    3.9078   -9.1670 H   0  0  0  0  0  0  0  0  0  0  0  0
    7.6441    1.6390   -9.9058 H   0  0  0  0  0  0  0  0  0  0  0  0
    6.0254    1.2453  -10.4473 H   0  0  0  0  0  0  0  0  0  0  0  0
    5.1689    1.6526   -8.1248 H   0  0  0  0  0  0  0  0  0  0  0  0
    6.8572    1.9003   -7.5672 H   0  0  0  0  0  0  0  0  0  0  0  0
    8.0027   -1.8423   -8.0772 H   0  0  0  0  0  0  0  0  0  0  0  0
    8.6015   -3.2284   -6.1264 H   0  0  0  0  0  0  0  0  0  0  0  0
    7.5186   -2.7888   -3.9326 H   0  0  0  0  0  0  0  0  0  0  0  0
    5.8965   -0.9703   -3.7032 H   0  0  0  0  0  0  0  0  0  0  0  0
    5.5580    1.7618   -3.6114 H   0  0  0  0  0  0  0  0  0  0  0  0
    0.0435    2.8317   -3.6184 H   0  0  0  0  0  0  0  0  0  0  0  0
    0.9573    2.4823   -5.0557 H   0  0  0  0  0  0  0  0  0  0  0  0
   -0.3986    5.1875   -4.5185 H   0  0  0  0  0  0  0  0  0  0  0  0
    0.7190    4.0982   -7.1474 H   0  0  0  0  0  0  0  0  0  0  0  0
    1.6001    5.2220   -6.0967 H   0  0  0  0  0  0  0  0  0  0  0  0
    0.0705    5.7158   -6.8300 H   0  0  0  0  0  0  0  0  0  0  0  0
   -1.4057    2.9801   -6.3564 H   0  0  0  0  0  0  0  0  0  0  0  0
   -2.1253    4.5728   -6.0708 H   0  0  0  0  0  0  0  0  0  0  0  0
   -2.0825    3.3852   -4.7651 H   0  0  0  0  0  0  0  0  0  0  0  0
    1.2506    5.8515   -3.4106 H   0  0  0  0  0  0  0  0  0  0  0  0
    2.5163    5.3761   -2.3330 H   0  0  0  0  0  0  0  0  0  0  0  0
   -0.3920    4.4510   -2.0543 H   0  0  0  0  0  0  0  0  0  0  0  0
    2.0201    4.0288   -0.2073 H   0  0  0  0  0  0  0  0  0  0  0  0
    1.1428    2.7636   -1.0900 H   0  0  0  0  0  0  0  0  0  0  0  0
    0.3389    3.6612    0.2045 H   0  0  0  0  0  0  0  0  0  0  0  0
    1.2098    6.4935   -0.4292 H   0  0  0  0  0  0  0  0  0  0  0  0
   -0.4599    5.9872   -0.1294 H   0  0  0  0  0  0  0  0  0  0  0  0
   -0.0616    6.8818   -1.6014 H   0  0  0  0  0  0  0  0  0  0  0  0
  1  2  1  0  0  0  0
  1 29  1  0  0  0  0
  1 30  1  0  0  0  0
  1 31  1  0  0  0  0
  2  3  1  0  0  0  0
  2 32  1  0  0  0  0
  2 33  1  0  0  0  0
  3  4  1  0  0  0  0
  3 34  1  0  0  0  0
  3 35  1  0  0  0  0
  4  5  1  0  0  0  0
  4 36  1  0  0  0  0
  4 37  1  0  0  0  0
  5  6  1  0  0  0  0
  5 38  1  0  0  0  0
  5 39  1  0  0  0  0
  6  7  1  0  0  0  0
  7 12  2  0  0  0  0
  7  8  1  0  0  0  0
  8  9  2  0  0  0  0
  8 40  1  0  0  0  0
  9 10  1  0  0  0  0
  9 41  1  0  0  0  0
 10 11  2  0  0  0  0
 10 42  1  0  0  0  0
 11 12  1  0  0  0  0
 11 43  1  0  0  0  0
 12 13  1  0  0  0  0
 13 28  1  0  0  0  0
 13 14  2  0  0  0  0
 14 15  1  0  0  0  0
 14 44  1  0  0  0  0
 15 16  1  0  0  0  0
 15 27  2  0  0  0  0
 16 17  2  0  0  0  0
 16 18  1  0  0  0  0
 18 19  1  0  0  0  0
 18 23  1  0  0  0  0
 19 20  1  0  0  0  0
 19 45  1  0  0  0  0
 19 46  1  0  0  0  0
 20 21  1  0  0  0  0
 20 22  1  0  0  0  0
 20 47  1  0  0  0  0
 21 48  1  0  0  0  0
 21 49  1  0  0  0  0
 21 50  1  0  0  0  0
 22 51  1  0  0  0  0
 22 52  1  0  0  0  0
 22 53  1  0  0  0  0
 23 24  1  0  0  0  0
 23 54  1  0  0  0  0
 23 55  1  0  0  0  0
 24 25  1  0  0  0  0
 24 26  1  0  0  0  0
 24 56  1  0  0  0  0
 25 57  1  0  0  0  0
 25 58  1  0  0  0  0
 25 59  1  0  0  0  0
 26 60  1  0  0  0  0
 26 61  1  0  0  0  0
 26 62  1  0  0  0  0
 27 28  1  0  0  0  0
M  END
$$$$
CHEMBL4075654_6PT0
 OpenBabel12022418133D

 50 51  0  0  0  0  0  0  0  0999 V2000
   -2.4648    0.7151    0.0118 C   0  0  0  0  0  0  0  0  0  0  0  0
   -2.4731   -0.6705    0.0996 C   0  0  0  0  0  0  0  0  0  0  0  0
   -1.2764   -1.4277    0.2054 C   0  0  0  0  0  0  0  0  0  0  0  0
   -0.0233   -0.7555    0.1285 C   0  0  0  0  0  0  0  0  0  0  0  0
   -0.0517    0.6565    0.1420 C   0  0  0  0  0  0  0  0  0  0  0  0
   -1.2547    1.3814    0.0825 C   0  0  0  0  0  0  0  0  0  0  0  0
    1.2069    1.4231    0.2101 C   0  0  0  0  0  0  0  0  0  0  0  0
    1.1744    2.6352    0.4102 O   0  0  0  0  0  0  0  0  0  0  0  0
    2.3625    0.7223   -0.0350 N   0  0  0  0  0  0  0  0  0  0  0  0
    2.3488   -0.5776   -0.4849 C   0  0  0  0  0  0  0  0  0  0  0  0
    3.2611   -0.9803   -1.2067 O   0  0  0  0  0  0  0  0  0  0  0  0
    1.2691   -1.3749   -0.0795 N   0  0  0  0  0  0  0  0  0  0  0  0
    1.3995   -2.8367   -0.2047 C   0  0  0  0  0  0  0  0  0  0  0  0
    2.8177   -3.4418   -0.2803 C   0  0  0  0  0  0  0  0  0  0  0  0
    2.8049   -4.9427   -0.3298 C   0  0  0  0  0  0  0  0  0  0  0  0
    3.4706   -5.7259    0.5296 C   0  0  0  0  0  0  0  0  0  0  0  0
    3.6420    1.4259   -0.1092 C   0  0  0  0  0  0  0  0  0  0  0  0
    4.5567    1.0089    1.0568 C   0  0  0  0  0  0  0  0  0  0  0  0
    4.1040    0.6598    2.1514 O   0  0  0  0  0  0  0  0  0  0  0  0
    5.9160    1.1042    0.7898 N   0  0  0  0  0  0  0  0  0  0  0  0
    6.9866    0.8256    1.7712 C   0  0  0  0  0  0  0  0  0  0  0  0
    6.9359   -0.6282    2.2673 C   0  0  0  0  0  0  0  0  0  0  0  0
    8.3573    1.0456    1.0955 C   0  0  0  0  0  0  0  0  0  0  0  0
    6.8986    1.7938    2.9630 C   0  0  0  0  0  0  0  0  0  0  0  0
   -1.5008   -2.9026    0.4083 C   0  0  0  0  0  0  0  0  0  0  0  0
   -3.3960    1.2677   -0.0849 H   0  0  0  0  0  0  0  0  0  0  0  0
   -3.4416   -1.1729    0.0822 H   0  0  0  0  0  0  0  0  0  0  0  0
   -1.2410    2.4698    0.0620 H   0  0  0  0  0  0  0  0  0  0  0  0
    0.8401   -3.1432   -1.0936 H   0  0  0  0  0  0  0  0  0  0  0  0
    0.9527   -3.2693    0.6930 H   0  0  0  0  0  0  0  0  0  0  0  0
    3.4244   -3.0784    0.5579 H   0  0  0  0  0  0  0  0  0  0  0  0
    3.3148   -3.1426   -1.2068 H   0  0  0  0  0  0  0  0  0  0  0  0
    2.2814   -5.4021   -1.1663 H   0  0  0  0  0  0  0  0  0  0  0  0
    4.0422   -5.3090    1.3544 H   0  0  0  0  0  0  0  0  0  0  0  0
    3.4774   -6.8048    0.4076 H   0  0  0  0  0  0  0  0  0  0  0  0
    3.5058    2.5106   -0.0422 H   0  0  0  0  0  0  0  0  0  0  0  0
    4.1339    1.2044   -1.0650 H   0  0  0  0  0  0  0  0  0  0  0  0
    6.1944    1.2476   -0.1725 H   0  0  0  0  0  0  0  0  0  0  0  0
    7.1044   -1.3324    1.4441 H   0  0  0  0  0  0  0  0  0  0  0  0
    5.9722   -0.8796    2.7195 H   0  0  0  0  0  0  0  0  0  0  0  0
    7.7069   -0.8121    3.0251 H   0  0  0  0  0  0  0  0  0  0  0  0
    8.4838    0.3917    0.2250 H   0  0  0  0  0  0  0  0  0  0  0  0
    9.1798    0.8364    1.7904 H   0  0  0  0  0  0  0  0  0  0  0  0
    8.4715    2.0792    0.7480 H   0  0  0  0  0  0  0  0  0  0  0  0
    5.9544    1.6944    3.5067 H   0  0  0  0  0  0  0  0  0  0  0  0
    6.9771    2.8352    2.6291 H   0  0  0  0  0  0  0  0  0  0  0  0
    7.7080    1.6127    3.6795 H   0  0  0  0  0  0  0  0  0  0  0  0
   -2.5645   -3.1368    0.5387 H   0  0  0  0  0  0  0  0  0  0  0  0
   -1.0192   -3.2375    1.3312 H   0  0  0  0  0  0  0  0  0  0  0  0
   -1.1689   -3.4847   -0.4531 H   0  0  0  0  0  0  0  0  0  0  0  0
  1  6  2  0  0  0  0
  1  2  1  0  0  0  0
  1 26  1  0  0  0  0
  2  3  2  0  0  0  0
  2 27  1  0  0  0  0
  3  4  1  0  0  0  0
  3 25  1  0  0  0  0
  4 12  1  0  0  0  0
  4  5  2  0  0  0  0
  5  6  1  0  0  0  0
  5  7  1  0  0  0  0
  6 28  1  0  0  0  0
  7  8  2  0  0  0  0
  7  9  1  0  0  0  0
  9 10  1  0  0  0  0
  9 17  1  0  0  0  0
 10 11  2  0  0  0  0
 10 12  1  0  0  0  0
 12 13  1  0  0  0  0
 13 14  1  0  0  0  0
 13 29  1  0  0  0  0
 13 30  1  0  0  0  0
 14 15  1  0  0  0  0
 14 31  1  0  0  0  0
 14 32  1  0  0  0  0
 15 16  2  0  0  0  0
 15 33  1  0  0  0  0
 16 34  1  0  0  0  0
 16 35  1  0  0  0  0
 17 18  1  0  0  0  0
 17 36  1  0  0  0  0
 17 37  1  0  0  0  0
 18 19  2  0  0  0  0
 18 20  1  0  0  0  0
 20 21  1  0  0  0  0
 20 38  1  0  0  0  0
 21 22  1  0  0  0  0
 21 23  1  0  0  0  0
 21 24  1  0  0  0  0
 22 39  1  0  0  0  0
 22 40  1  0  0  0  0
 22 41  1  0  0  0  0
 23 42  1  0  0  0  0
 23 43  1  0  0  0  0
 23 44  1  0  0  0  0
 24 45  1  0  0  0  0
 24 46  1  0  0  0  0
 24 47  1  0  0  0  0
 25 48  1  0  0  0  0
 25 49  1  0  0  0  0
 25 50  1  0  0  0  0
M  END
$$$$
CHEMBL4084719_5ZTY
 OpenBabel12022418133D

 52 53  0  0  0  0  0  0  0  0999 V2000
   -2.4485   -0.8496    0.0513 C   0  0  0  0  0  0  0  0  0  0  0  0
   -2.5122    0.5391    0.0714 C   0  0  0  0  0  0  0  0  0  0  0  0
   -1.3375    1.2976    0.1293 C   0  0  0  0  0  0  0  0  0  0  0  0
   -0.0777    0.6777    0.1199 C   0  0  0  0  0  0  0  0  0  0  0  0
   -0.0319   -0.7165    0.1494 C   0  0  0  0  0  0  0  0  0  0  0  0
   -1.2094   -1.4806    0.1171 C   0  0  0  0  0  0  0  0  0  0  0  0
    1.2762   -1.3953    0.1724 C   0  0  0  0  0  0  0  0  0  0  0  0
    1.3157   -2.6231    0.2346 O   0  0  0  0  0  0  0  0  0  0  0  0
    2.3957   -0.5935    0.0419 N   0  0  0  0  0  0  0  0  0  0  0  0
    2.3264    0.7428   -0.3180 C   0  0  0  0  0  0  0  0  0  0  0  0
    3.2729    1.3036   -0.8797 O   0  0  0  0  0  0  0  0  0  0  0  0
    1.1349    1.4059   -0.0358 N   0  0  0  0  0  0  0  0  0  0  0  0
    1.1405    2.8720   -0.0660 C   0  0  0  0  0  0  0  0  0  0  0  0
    1.1446    3.5096    1.3340 C   0  0  0  0  0  0  0  0  0  0  0  0
    2.3993    3.2453    2.1797 C   0  0  0  0  0  0  0  0  0  0  0  0
    3.6907    3.7379    1.5246 C   0  0  0  0  0  0  0  0  0  0  0  0
    4.9082    3.4987    2.4022 C   0  0  0  0  0  0  0  0  0  0  0  0
    3.6853   -1.2505   -0.1477 C   0  0  0  0  0  0  0  0  0  0  0  0
    4.8294   -0.5755    0.6211 C   0  0  0  0  0  0  0  0  0  0  0  0
    4.6792   -0.0189    1.7041 O   0  0  0  0  0  0  0  0  0  0  0  0
    6.0610   -0.6937   -0.0054 N   0  0  0  0  0  0  0  0  0  0  0  0
    7.2592   -0.0518    0.4966 C   0  0  0  0  0  0  0  0  0  0  0  0
    8.0373   -0.9328    1.4735 C   0  0  0  0  0  0  0  0  0  0  0  0
    8.5948   -2.1943    0.8114 C   0  0  0  0  0  0  0  0  0  0  0  0
    9.3874   -3.0369    1.8006 C   0  0  0  0  0  0  0  0  0  0  0  0
   -3.3597   -1.4388   -0.0195 H   0  0  0  0  0  0  0  0  0  0  0  0
   -3.4767    1.0396    0.0174 H   0  0  0  0  0  0  0  0  0  0  0  0
   -1.4491    2.3769    0.1299 H   0  0  0  0  0  0  0  0  0  0  0  0
   -1.1596   -2.5677    0.1137 H   0  0  0  0  0  0  0  0  0  0  0  0
    0.2829    3.2319   -0.6433 H   0  0  0  0  0  0  0  0  0  0  0  0
    2.0076    3.2343   -0.6268 H   0  0  0  0  0  0  0  0  0  0  0  0
    0.2713    3.1665    1.9023 H   0  0  0  0  0  0  0  0  0  0  0  0
    1.0283    4.5945    1.2170 H   0  0  0  0  0  0  0  0  0  0  0  0
    2.4754    2.1757    2.4077 H   0  0  0  0  0  0  0  0  0  0  0  0
    2.2748    3.7583    3.1427 H   0  0  0  0  0  0  0  0  0  0  0  0
    3.6102    4.8072    1.2996 H   0  0  0  0  0  0  0  0  0  0  0  0
    3.8589    3.2240    0.5764 H   0  0  0  0  0  0  0  0  0  0  0  0
    4.8469    4.0770    3.3284 H   0  0  0  0  0  0  0  0  0  0  0  0
    5.8166    3.7997    1.8701 H   0  0  0  0  0  0  0  0  0  0  0  0
    5.0068    2.4410    2.6625 H   0  0  0  0  0  0  0  0  0  0  0  0
    3.9027   -1.2641   -1.2203 H   0  0  0  0  0  0  0  0  0  0  0  0
    3.6500   -2.2882    0.2081 H   0  0  0  0  0  0  0  0  0  0  0  0
    6.1224   -1.1796   -0.8921 H   0  0  0  0  0  0  0  0  0  0  0  0
    6.9806    0.8858    0.9892 H   0  0  0  0  0  0  0  0  0  0  0  0
    7.8814    0.1996   -0.3706 H   0  0  0  0  0  0  0  0  0  0  0  0
    7.3910   -1.2115    2.3155 H   0  0  0  0  0  0  0  0  0  0  0  0
    8.8691   -0.3459    1.8847 H   0  0  0  0  0  0  0  0  0  0  0  0
    9.2462   -1.9196   -0.0273 H   0  0  0  0  0  0  0  0  0  0  0  0
    7.7794   -2.8010    0.4051 H   0  0  0  0  0  0  0  0  0  0  0  0
   10.2450   -2.4829    2.1921 H   0  0  0  0  0  0  0  0  0  0  0  0
    9.7616   -3.9427    1.3111 H   0  0  0  0  0  0  0  0  0  0  0  0
    8.7605   -3.3436    2.6449 H   0  0  0  0  0  0  0  0  0  0  0  0
  1  6  2  0  0  0  0
  1  2  1  0  0  0  0
  1 26  1  0  0  0  0
  2  3  2  0  0  0  0
  2 27  1  0  0  0  0
  3  4  1  0  0  0  0
  3 28  1  0  0  0  0
  4 12  1  0  0  0  0
  4  5  2  0  0  0  0
  5  6  1  0  0  0  0
  5  7  1  0  0  0  0
  6 29  1  0  0  0  0
  7  8  2  0  0  0  0
  7  9  1  0  0  0  0
  9 10  1  0  0  0  0
  9 18  1  0  0  0  0
 10 11  2  0  0  0  0
 10 12  1  0  0  0  0
 12 13  1  0  0  0  0
 13 14  1  0  0  0  0
 13 30  1  0  0  0  0
 13 31  1  0  0  0  0
 14 15  1  0  0  0  0
 14 32  1  0  0  0  0
 14 33  1  0  0  0  0
 15 16  1  0  0  0  0
 15 34  1  0  0  0  0
 15 35  1  0  0  0  0
 16 17  1  0  0  0  0
 16 36  1  0  0  0  0
 16 37  1  0  0  0  0
 17 38  1  0  0  0  0
 17 39  1  0  0  0  0
 17 40  1  0  0  0  0
 18 19  1  0  0  0  0
 18 41  1  0  0  0  0
 18 42  1  0  0  0  0
 19 20  2  0  0  0  0
 19 21  1  0  0  0  0
 21 22  1  0  0  0  0
 21 43  1  0  0  0  0
 22 23  1  0  0  0  0
 22 44  1  0  0  0  0
 22 45  1  0  0  0  0
 23 24  1  0  0  0  0
 23 46  1  0  0  0  0
 23 47  1  0  0  0  0
 24 25  1  0  0  0  0
 24 48  1  0  0  0  0
 24 49  1  0  0  0  0
 25 50  1  0  0  0  0
 25 51  1  0  0  0  0
 25 52  1  0  0  0  0
M  END
$$$$
CHEMBL3354401_6PT0
 OpenBabel12022418133D

 49 53  0  0  0  0  0  0  0  0999 V2000
   -2.2985   -2.1102   -1.8415 C   0  0  0  0  0  0  0  0  0  0  0  0
   -2.1131   -2.9101   -0.7191 C   0  0  0  0  0  0  0  0  0  0  0  0
   -2.4563   -2.4208    0.5397 C   0  0  0  0  0  0  0  0  0  0  0  0
   -2.9854   -1.1258    0.6863 C   0  0  0  0  0  0  0  0  0  0  0  0
   -3.1525   -0.2962   -0.4416 C   0  0  0  0  0  0  0  0  0  0  0  0
   -2.8045   -0.8147   -1.7045 C   0  0  0  0  0  0  0  0  0  0  0  0
   -3.6793    1.1276   -0.3589 C   0  0  0  0  0  0  0  0  0  0  0  0
   -2.3222    2.3437   -0.2004 S   0  0  0  0  0  0  0  0  0  0  0  0
   -3.2407    3.8739   -0.2757 C   0  0  0  0  0  0  0  0  0  0  0  0
   -4.5744    3.7993   -0.3748 N   0  0  0  0  0  0  0  0  0  0  0  0
   -5.1589    5.0160   -0.4215 C   0  0  0  0  0  0  0  0  0  0  0  0
   -4.4870    6.2193   -0.3395 C   0  0  0  0  0  0  0  0  0  0  0  0
   -5.4429    7.2672   -0.3602 C   0  0  0  0  0  0  0  0  0  0  0  0
   -5.3624    8.6769   -0.3175 C   0  0  0  0  0  0  0  0  0  0  0  0
   -6.5284    9.4463   -0.3746 C   0  0  0  0  0  0  0  0  0  0  0  0
   -7.7703    8.8341   -0.4876 C   0  0  0  0  0  0  0  0  0  0  0  0
   -7.8791    7.4434   -0.5418 C   0  0  0  0  0  0  0  0  0  0  0  0
   -6.7093    6.6635   -0.4493 C   0  0  0  0  0  0  0  0  0  0  0  0
   -6.5147    5.2747   -0.4743 N   0  0  0  0  0  0  0  0  0  0  0  0
   -7.5049    4.2717   -0.5261 C   0  0  0  0  0  0  0  0  0  0  0  0
   -7.2286    3.2299   -1.1246 O   0  0  0  0  0  0  0  0  0  0  0  0
   -8.8331    4.3562    0.1182 C   0  0  0  0  0  0  0  0  0  0  0  0
   -8.9921    5.0024    1.3514 C   0  0  0  0  0  0  0  0  0  0  0  0
  -10.2359    4.9943    2.0005 C   0  0  0  0  0  0  0  0  0  0  0  0
  -11.3100    4.3160    1.4018 C   0  0  0  0  0  0  0  0  0  0  0  0
  -11.1487    3.6649    0.1773 C   0  0  0  0  0  0  0  0  0  0  0  0
   -9.9115    3.6803   -0.4626 C   0  0  0  0  0  0  0  0  0  0  0  0
  -10.4144    5.6750    3.3369 C   0  0  0  0  0  0  0  0  0  0  0  0
   -9.2992    6.3342    3.7568 F   0  0  0  0  0  0  0  0  0  0  0  0
  -11.4104    6.6020    3.3178 F   0  0  0  0  0  0  0  0  0  0  0  0
  -10.7292    4.7990    4.3282 F   0  0  0  0  0  0  0  0  0  0  0  0
   -3.1336    6.2295   -0.2436 N   0  0  0  0  0  0  0  0  0  0  0  0
   -2.5284    5.0305   -0.2151 N   0  0  0  0  0  0  0  0  0  0  0  0
   -3.3761   -0.7167    2.0054 C   0  0  0  0  0  0  0  0  0  0  0  0
   -3.7142   -0.4260    3.0776 N   0  0  0  0  0  0  0  0  0  0  0  0
   -2.0457   -2.4929   -2.8274 H   0  0  0  0  0  0  0  0  0  0  0  0
   -1.7088   -3.9144   -0.8234 H   0  0  0  0  0  0  0  0  0  0  0  0
   -2.3161   -3.0602    1.4102 H   0  0  0  0  0  0  0  0  0  0  0  0
   -2.9327   -0.2066   -2.5990 H   0  0  0  0  0  0  0  0  0  0  0  0
   -4.3777    1.2317    0.4780 H   0  0  0  0  0  0  0  0  0  0  0  0
   -4.2486    1.3380   -1.2724 H   0  0  0  0  0  0  0  0  0  0  0  0
   -4.3938    9.1682   -0.2480 H   0  0  0  0  0  0  0  0  0  0  0  0
   -6.4640   10.5326   -0.3462 H   0  0  0  0  0  0  0  0  0  0  0  0
   -8.6700    9.4454   -0.5422 H   0  0  0  0  0  0  0  0  0  0  0  0
   -8.8642    6.9998   -0.6604 H   0  0  0  0  0  0  0  0  0  0  0  0
   -8.1487    5.4993    1.8291 H   0  0  0  0  0  0  0  0  0  0  0  0
  -12.2776    4.2774    1.9014 H   0  0  0  0  0  0  0  0  0  0  0  0
  -11.9824    3.1261   -0.2694 H   0  0  0  0  0  0  0  0  0  0  0  0
   -9.7834    3.1468   -1.4036 H   0  0  0  0  0  0  0  0  0  0  0  0
  1  6  2  0  0  0  0
  1  2  1  0  0  0  0
  1 36  1  0  0  0  0
  2  3  2  0  0  0  0
  2 37  1  0  0  0  0
  3  4  1  0  0  0  0
  3 38  1  0  0  0  0
  4  5  2  0  0  0  0
  4 34  1  0  0  0  0
  5  6  1  0  0  0  0
  5  7  1  0  0  0  0
  6 39  1  0  0  0  0
  7  8  1  0  0  0  0
  7 40  1  0  0  0  0
  7 41  1  0  0  0  0
  8  9  1  0  0  0  0
  9 33  2  0  0  0  0
  9 10  1  0  0  0  0
 10 11  2  0  0  0  0
 11 19  1  0  0  0  0
 11 12  1  0  0  0  0
 12 13  1  0  0  0  0
 12 32  2  0  0  0  0
 13 18  2  0  0  0  0
 13 14  1  0  0  0  0
 14 15  2  0  0  0  0
 14 42  1  0  0  0  0
 15 16  1  0  0  0  0
 15 43  1  0  0  0  0
 16 17  2  0  0  0  0
 16 44  1  0  0  0  0
 17 18  1  0  0  0  0
 17 45  1  0  0  0  0
 18 19  1  0  0  0  0
 19 20  1  0  0  0  0
 20 21  2  0  0  0  0
 20 22  1  0  0  0  0
 22 27  2  0  0  0  0
 22 23  1  0  0  0  0
 23 24  2  0  0  0  0
 23 46  1  0  0  0  0
 24 25  1  0  0  0  0
 24 28  1  0  0  0  0
 25 26  2  0  0  0  0
 25 47  1  0  0  0  0
 26 27  1  0  0  0  0
 26 48  1  0  0  0  0
 27 49  1  0  0  0  0
 28 29  1  0  0  0  0
 28 30  1  0  0  0  0
 28 31  1  0  0  0  0
 32 33  1  0  0  0  0
 34 35  3  0  0  0  0
M  END
$$$$
CHEMBL3354949_8GUQ
 OpenBabel12022418133D

 49 53  0  0  1  0  0  0  0  0999 V2000
    4.4787    1.7694    0.2657 C   0  0  0  0  0  0  0  0  0  0  0  0
    3.2615    1.2209   -0.5139 C   0  0  0  0  0  0  0  0  0  0  0  0
    2.4277    0.2846    0.3868 C   0  0  0  0  0  0  0  0  0  0  0  0
    2.3924    2.4375   -0.9220 C   0  0  0  0  0  0  0  0  0  0  0  0
    1.8657    3.3020    0.0484 C   0  0  0  0  0  0  0  0  0  0  0  0
    1.1682    4.4407   -0.3473 C   0  0  0  0  0  0  0  0  0  0  0  0
    0.9947    4.6902   -1.6984 C   0  0  0  0  0  0  0  0  0  0  0  0
    1.5212    3.7778   -2.6000 C   0  0  0  0  0  0  0  0  0  0  0  0
    2.2102    2.6691   -2.2510 N   0  0  0  0  0  0  0  0  0  0  0  0
    3.7209    0.4879   -1.7165 N   0  0  0  0  0  0  0  0  0  0  0  0
    4.5572   -0.6039   -1.6784 C   0  0  0  0  0  0  0  0  0  0  0  0
    4.9871   -1.0643   -0.6218 O   0  0  0  0  0  0  0  0  0  0  0  0
    4.9394   -1.2198   -2.9634 C   0  0  0  0  0  0  0  0  0  0  0  0
    5.8447   -2.2956   -3.0699 C   0  0  0  0  0  0  0  0  0  0  0  0
    5.9539   -2.5554   -4.3978 C   0  0  0  0  0  0  0  0  0  0  0  0
    7.1007   -3.4931   -4.6864 C   0  0  1  0  0  0  0  0  0  0  0  0
    7.6995   -3.7323   -3.2813 C   0  0  1  0  0  0  0  0  0  0  0  0
    6.8142   -3.0372   -2.2242 C   0  0  0  0  0  0  0  0  0  0  0  0
    7.1655   -4.8737   -4.0856 C   0  0  0  0  0  0  0  0  0  0  0  0
    5.1501   -1.6950   -5.0741 N   0  0  0  0  0  0  0  0  0  0  0  0
    4.9782   -1.6679   -6.4775 C   0  0  0  0  0  0  0  0  0  0  0  0
    4.7597   -0.4629   -7.1467 C   0  0  0  0  0  0  0  0  0  0  0  0
    4.7442   -0.4544   -8.5461 C   0  0  0  0  0  0  0  0  0  0  0  0
    4.8936   -1.6478   -9.2565 C   0  0  0  0  0  0  0  0  0  0  0  0
    5.0476   -2.8573   -8.6016 C   0  0  0  0  0  0  0  0  0  0  0  0
    5.0941   -2.8605   -7.2127 C   0  0  0  0  0  0  0  0  0  0  0  0
    5.1930   -4.0506   -6.6064 F   0  0  0  0  0  0  0  0  0  0  0  0
    4.8882   -1.6259  -10.5967 F   0  0  0  0  0  0  0  0  0  0  0  0
    4.5507   -0.8068   -4.2024 N   0  0  0  0  0  0  0  0  0  0  0  0
    4.1797    2.3199    1.1650 H   0  0  0  0  0  0  0  0  0  0  0  0
    5.0662    2.4533   -0.3589 H   0  0  0  0  0  0  0  0  0  0  0  0
    5.1519    0.9778    0.6053 H   0  0  0  0  0  0  0  0  0  0  0  0
    2.0810    0.7857    1.2975 H   0  0  0  0  0  0  0  0  0  0  0  0
    2.9998   -0.5888    0.7153 H   0  0  0  0  0  0  0  0  0  0  0  0
    1.5431   -0.0883   -0.1431 H   0  0  0  0  0  0  0  0  0  0  0  0
    2.0109    3.1163    1.1081 H   0  0  0  0  0  0  0  0  0  0  0  0
    0.7785    5.1298    0.3977 H   0  0  0  0  0  0  0  0  0  0  0  0
    0.4657    5.5728   -2.0397 H   0  0  0  0  0  0  0  0  0  0  0  0
    1.4002    3.9322   -3.6707 H   0  0  0  0  0  0  0  0  0  0  0  0
    3.3873    0.8170   -2.6203 H   0  0  0  0  0  0  0  0  0  0  0  0
    7.6800   -3.3487   -5.5872 H   0  0  0  0  0  0  0  0  0  0  0  0
    8.7621   -3.6036   -3.1413 H   0  0  0  0  0  0  0  0  0  0  0  0
    6.3177   -3.7773   -1.5899 H   0  0  0  0  0  0  0  0  0  0  0  0
    7.4158   -2.3599   -1.6136 H   0  0  0  0  0  0  0  0  0  0  0  0
    7.8777   -5.5659   -4.5230 H   0  0  0  0  0  0  0  0  0  0  0  0
    6.2309   -5.3432   -3.8001 H   0  0  0  0  0  0  0  0  0  0  0  0
    4.6747    0.4742   -6.6011 H   0  0  0  0  0  0  0  0  0  0  0  0
    4.6342    0.4752   -9.0963 H   0  0  0  0  0  0  0  0  0  0  0  0
    5.1369   -3.7838   -9.1537 H   0  0  0  0  0  0  0  0  0  0  0  0
  1  2  1  0  0  0  0
  1 30  1  0  0  0  0
  1 31  1  0  0  0  0
  1 32  1  0  0  0  0
  2  3  1  0  0  0  0
  2  4  1  0  0  0  0
  2 10  1  0  0  0  0
  3 33  1  0  0  0  0
  3 34  1  0  0  0  0
  3 35  1  0  0  0  0
  4  9  2  0  0  0  0
  4  5  1  0  0  0  0
  5  6  2  0  0  0  0
  5 36  1  0  0  0  0
  6  7  1  0  0  0  0
  6 37  1  0  0  0  0
  7  8  2  0  0  0  0
  7 38  1  0  0  0  0
  8  9  1  0  0  0  0
  8 39  1  0  0  0  0
 10 11  1  0  0  0  0
 10 40  1  0  0  0  0
 11 12  2  0  0  0  0
 11 13  1  0  0  0  0
 13 29  2  0  0  0  0
 13 14  1  0  0  0  0
 14 18  1  0  0  0  0
 14 15  2  0  0  0  0
 15 16  1  0  0  0  0
 15 20  1  0  0  0  0
 16 17  1  0  0  0  0
 16 19  1  0  0  0  0
 16 41  1  6  0  0  0
 17 18  1  0  0  0  0
 17 19  1  0  0  0  0
 17 42  1  1  0  0  0
 18 43  1  0  0  0  0
 18 44  1  0  0  0  0
 19 45  1  0  0  0  0
 19 46  1  0  0  0  0
 20 21  1  0  0  0  0
 20 29  1  0  0  0  0
 21 26  2  0  0  0  0
 21 22  1  0  0  0  0
 22 23  2  0  0  0  0
 22 47  1  0  0  0  0
 23 24  1  0  0  0  0
 23 48  1  0  0  0  0
 24 25  2  0  0  0  0
 24 28  1  0  0  0  0
 25 26  1  0  0  0  0
 25 49  1  0  0  0  0
 26 27  1  0  0  0  0
M  END
$$$$
CHEMBL4641147_5ZTY
 OpenBabel12022418133D

 67 71  0  0  1  0  0  0  0  0999 V2000
    1.7330   -0.1876    1.3525 C   0  0  0  0  0  0  0  0  0  0  0  0
    0.3300   -0.0805    1.6222 C   0  0  0  0  0  0  0  0  0  0  0  0
   -0.5853   -0.5329    0.7513 C   0  0  0  0  0  0  0  0  0  0  0  0
   -0.0692   -1.1824   -0.5417 C   0  0  0  0  0  0  0  0  0  0  0  0
   -0.8675   -1.5029   -1.4232 O   0  0  0  0  0  0  0  0  0  0  0  0
    1.2873   -1.4966   -0.6830 N   0  0  0  0  0  0  0  0  0  0  0  0
    2.1584   -0.8842    0.1889 C   0  0  0  0  0  0  0  0  0  0  0  0
    3.5300   -0.7171    0.1510 C   0  0  0  0  0  0  0  0  0  0  0  0
    3.8504   -0.1670    1.3660 N   0  0  0  0  0  0  0  0  0  0  0  0
    5.1850   -0.0315    1.9315 C   0  0  0  0  0  0  0  0  0  0  0  0
    5.3822    1.3119    2.6226 C   0  0  0  0  0  0  0  0  0  0  0  0
    4.5870    1.4147    3.8030 O   0  0  0  0  0  0  0  0  0  0  0  0
    2.7678    0.1958    2.1076 N   0  0  0  0  0  0  0  0  0  0  0  0
    1.5976   -2.8045   -1.2640 C   0  0  0  0  0  0  0  0  0  0  0  0
    1.5477   -2.9802   -2.7842 C   0  0  0  0  0  0  0  0  0  0  0  0
    2.7884   -2.4242   -3.4726 C   0  0  0  0  0  0  0  0  0  0  0  0
    2.7923   -2.7538   -4.9661 C   0  0  0  0  0  0  0  0  0  0  0  0
    4.0233   -2.1777   -5.6458 C   0  0  0  0  0  0  0  0  0  0  0  0
   -2.0897   -0.3691    1.0845 C   0  0  0  0  0  0  0  0  0  0  0  0
   -2.5286    0.2797    1.9959 O   0  0  0  0  0  0  0  0  0  0  0  0
   -2.8618   -1.0028    0.1754 N   0  0  0  0  0  0  0  0  0  0  0  0
   -4.1665   -0.9569   -0.4754 C   0  0  2  0  0  0  0  0  0  0  0  0
   -3.8865   -2.3587   -1.1190 C   0  0  0  0  0  0  0  0  0  0  0  0
   -4.0041   -2.2644   -2.6043 C   0  0  2  0  0  0  0  0  0  0  0  0
   -3.4976   -0.9141   -3.1617 C   0  0  0  0  0  0  0  0  0  0  0  0
   -4.2900    0.2942   -2.6306 C   0  0  2  0  0  0  0  0  0  0  0  0
   -4.0783    0.4374   -1.1493 C   0  0  0  0  0  0  0  0  0  0  0  0
   -5.7835    0.0693   -2.8116 C   0  0  0  0  0  0  0  0  0  0  0  0
   -6.1966   -1.2188   -2.0599 C   0  0  1  0  0  0  0  0  0  0  0  0
   -5.4980   -2.3918   -2.8085 C   0  0  0  0  0  0  0  0  0  0  0  0
   -5.7433   -1.1317   -0.4633 C   0  0  0  0  0  0  0  0  0  0  0  0
   -7.5942   -1.3888   -2.2259 O   0  0  0  0  0  0  0  0  0  0  0  0
    0.0317    0.5040    2.8245 O   0  0  0  0  0  0  0  0  0  0  0  0
    4.2794   -0.9322   -0.6013 H   0  0  0  0  0  0  0  0  0  0  0  0
    5.2999   -0.8613    2.6400 H   0  0  0  0  0  0  0  0  0  0  0  0
    5.9085   -0.1545    1.1181 H   0  0  0  0  0  0  0  0  0  0  0  0
    5.1280    2.1431    1.9579 H   0  0  0  0  0  0  0  0  0  0  0  0
    6.4257    1.4206    2.9300 H   0  0  0  0  0  0  0  0  0  0  0  0
    3.6814    1.1320    3.5465 H   0  0  0  0  0  0  0  0  0  0  0  0
    2.5567   -3.1630   -0.8766 H   0  0  0  0  0  0  0  0  0  0  0  0
    0.8370   -3.4793   -0.8483 H   0  0  0  0  0  0  0  0  0  0  0  0
    1.5013   -4.0608   -2.9876 H   0  0  0  0  0  0  0  0  0  0  0  0
    0.6411   -2.5465   -3.2169 H   0  0  0  0  0  0  0  0  0  0  0  0
    3.6891   -2.8457   -3.0091 H   0  0  0  0  0  0  0  0  0  0  0  0
    2.8231   -1.3390   -3.3308 H   0  0  0  0  0  0  0  0  0  0  0  0
    2.7733   -3.8406   -5.1174 H   0  0  0  0  0  0  0  0  0  0  0  0
    1.8909   -2.3472   -5.4386 H   0  0  0  0  0  0  0  0  0  0  0  0
    4.1541   -1.1210   -5.3923 H   0  0  0  0  0  0  0  0  0  0  0  0
    4.9241   -2.7182   -5.3376 H   0  0  0  0  0  0  0  0  0  0  0  0
    3.9326   -2.2595   -6.7331 H   0  0  0  0  0  0  0  0  0  0  0  0
   -2.2400   -1.1655   -0.6179 H   0  0  0  0  0  0  0  0  0  0  0  0
   -2.9350   -2.8466   -0.8502 H   0  0  0  0  0  0  0  0  0  0  0  0
   -4.5530   -3.1195   -0.6699 H   0  0  0  0  0  0  0  0  0  0  0  0
   -3.4471   -3.0972   -3.0418 H   0  0  0  0  0  0  0  0  0  0  0  0
   -3.5888   -0.9408   -4.2494 H   0  0  0  0  0  0  0  0  0  0  0  0
   -2.4364   -0.7674   -2.9440 H   0  0  0  0  0  0  0  0  0  0  0  0
   -3.9697    1.2165   -3.1259 H   0  0  0  0  0  0  0  0  0  0  0  0
   -3.1526    0.9899   -0.9417 H   0  0  0  0  0  0  0  0  0  0  0  0
   -4.8337    1.1168   -0.7071 H   0  0  0  0  0  0  0  0  0  0  0  0
   -6.3644    0.9212   -2.4370 H   0  0  0  0  0  0  0  0  0  0  0  0
   -6.0099    0.0051   -3.8835 H   0  0  0  0  0  0  0  0  0  0  0  0
   -5.8679   -3.3541   -2.4293 H   0  0  0  0  0  0  0  0  0  0  0  0
   -5.7127   -2.3959   -3.8826 H   0  0  0  0  0  0  0  0  0  0  0  0
   -6.2935   -0.3048    0.0049 H   0  0  0  0  0  0  0  0  0  0  0  0
   -6.1067   -2.0304    0.0532 H   0  0  0  0  0  0  0  0  0  0  0  0
   -7.7600   -1.4219   -3.1894 H   0  0  0  0  0  0  0  0  0  0  0  0
    0.8329    0.9806    3.1107 H   0  0  0  0  0  0  0  0  0  0  0  0
  1  7  1  0  0  0  0
  1 13  2  0  0  0  0
  1  2  1  0  0  0  0
  2  3  2  0  0  0  0
  2 33  1  0  0  0  0
  3  4  1  0  0  0  0
  3 19  1  0  0  0  0
  4  5  2  0  0  0  0
  4  6  1  0  0  0  0
  6  7  1  0  0  0  0
  6 14  1  0  0  0  0
  7  8  2  0  0  0  0
  8  9  1  0  0  0  0
  8 34  1  0  0  0  0
  9 10  1  0  0  0  0
  9 13  1  0  0  0  0
 10 11  1  0  0  0  0
 10 35  1  0  0  0  0
 10 36  1  0  0  0  0
 11 12  1  0  0  0  0
 11 37  1  0  0  0  0
 11 38  1  0  0  0  0
 12 39  1  0  0  0  0
 14 15  1  0  0  0  0
 14 40  1  0  0  0  0
 14 41  1  0  0  0  0
 15 16  1  0  0  0  0
 15 42  1  0  0  0  0
 15 43  1  0  0  0  0
 16 17  1  0  0  0  0
 16 44  1  0  0  0  0
 16 45  1  0  0  0  0
 17 18  1  0  0  0  0
 17 46  1  0  0  0  0
 17 47  1  0  0  0  0
 18 48  1  0  0  0  0
 18 49  1  0  0  0  0
 18 50  1  0  0  0  0
 19 20  2  0  0  0  0
 19 21  1  0  0  0  0
 21 51  1  0  0  0  0
 22 27  1  0  0  0  0
 22 31  1  0  0  0  0
 22 23  1  0  0  0  0
 22 21  1  1  0  0  0
 23 52  1  0  0  0  0
 23 53  1  0  0  0  0
 24 23  1  0  0  0  0
 24 25  1  0  0  0  0
 24 30  1  0  0  0  0
 24 54  1  6  0  0  0
 25 55  1  0  0  0  0
 25 56  1  0  0  0  0
 26 25  1  0  0  0  0
 26 27  1  0  0  0  0
 26 28  1  0  0  0  0
 26 57  1  6  0  0  0
 27 58  1  0  0  0  0
 27 59  1  0  0  0  0
 28 29  1  0  0  0  0
 28 60  1  0  0  0  0
 28 61  1  0  0  0  0
 29 30  1  0  0  0  0
 29 31  1  0  0  0  0
 29 32  1  6  0  0  0
 30 62  1  0  0  0  0
 30 63  1  0  0  0  0
 31 64  1  0  0  0  0
 31 65  1  0  0  0  0
 32 66  1  0  0  0  0
 33 67  1  0  0  0  0
M  END
$$$$
CHEMBL3354539_5ZTY
 OpenBabel12022418133D

 51 53  0  0  1  0  0  0  0  0999 V2000
    1.5447   -0.2878    2.1963 C   0  0  0  0  0  0  0  0  0  0  0  0
    1.8148   -1.8020    2.2755 C   0  0  0  0  0  0  0  0  0  0  0  0
    2.9815   -2.0426    3.2477 C   0  0  0  0  0  0  0  0  0  0  0  0
    0.5513   -2.4979    2.8160 C   0  0  0  0  0  0  0  0  0  0  0  0
    2.1335   -2.3736    0.9226 C   0  0  0  0  0  0  0  0  0  0  0  0
    2.4142   -3.6392    0.4623 C   0  0  0  0  0  0  0  0  0  0  0  0
    2.4750   -3.5063   -0.9462 C   0  0  0  0  0  0  0  0  0  0  0  0
    2.2772   -2.2380   -1.3071 N   0  0  0  0  0  0  0  0  0  0  0  0
    2.0899   -1.5291   -0.1431 O   0  0  0  0  0  0  0  0  0  0  0  0
    2.6866   -4.5726   -1.7911 N   0  0  0  0  0  0  0  0  0  0  0  0
    2.8265   -4.4938   -3.1591 C   0  0  0  0  0  0  0  0  0  0  0  0
    2.6841   -3.4872   -3.8525 O   0  0  0  0  0  0  0  0  0  0  0  0
    3.0195   -5.8802   -3.8398 C   0  0  2  0  0  0  0  0  0  0  0  0
    1.7432   -6.7132   -3.5697 C   0  0  0  0  0  0  0  0  0  0  0  0
    1.7353   -8.0264   -4.3460 C   0  0  0  0  0  0  0  0  0  0  0  0
    3.0092   -8.8111   -4.0774 C   0  0  0  0  0  0  0  0  0  0  0  0
    4.2408   -7.9668   -4.3699 C   0  0  0  0  0  0  0  0  0  0  0  0
    4.2288   -6.7200   -3.5980 N   0  0  0  0  0  0  0  0  0  0  0  0
    5.2284   -6.3332   -2.7044 C   0  0  0  0  0  0  0  0  0  0  0  0
    5.0886   -5.4085   -1.9083 O   0  0  0  0  0  0  0  0  0  0  0  0
    6.5155   -7.0702   -2.5923 C   0  0  0  0  0  0  0  0  0  0  0  0
    7.0651   -7.2199   -1.3082 C   0  0  0  0  0  0  0  0  0  0  0  0
    8.2453   -7.9414   -1.1230 C   0  0  0  0  0  0  0  0  0  0  0  0
    8.8750   -8.5212   -2.2211 C   0  0  0  0  0  0  0  0  0  0  0  0
    8.3695   -8.3315   -3.5068 C   0  0  0  0  0  0  0  0  0  0  0  0
    7.2170   -7.5638   -3.6967 C   0  0  0  0  0  0  0  0  0  0  0  0
   10.2895   -9.4704   -1.9909 Cl  0  0  0  0  0  0  0  0  0  0  0  0
    1.2712    0.1204    3.1755 H   0  0  0  0  0  0  0  0  0  0  0  0
    0.7234   -0.0630    1.5047 H   0  0  0  0  0  0  0  0  0  0  0  0
    2.4293    0.2563    1.8445 H   0  0  0  0  0  0  0  0  0  0  0  0
    2.7483   -1.6511    4.2452 H   0  0  0  0  0  0  0  0  0  0  0  0
    3.8973   -1.5485    2.9027 H   0  0  0  0  0  0  0  0  0  0  0  0
    3.2053   -3.1102    3.3578 H   0  0  0  0  0  0  0  0  0  0  0  0
    0.2695   -2.1014    3.7971 H   0  0  0  0  0  0  0  0  0  0  0  0
    0.7025   -3.5786    2.9257 H   0  0  0  0  0  0  0  0  0  0  0  0
   -0.2985   -2.3557    2.1373 H   0  0  0  0  0  0  0  0  0  0  0  0
    2.5031   -4.5374    1.0543 H   0  0  0  0  0  0  0  0  0  0  0  0
    3.0155   -5.4214   -1.3512 H   0  0  0  0  0  0  0  0  0  0  0  0
    3.0541   -5.6582   -4.9183 H   0  0  0  0  0  0  0  0  0  0  0  0
    0.8479   -6.1339   -3.8269 H   0  0  0  0  0  0  0  0  0  0  0  0
    1.6682   -6.9470   -2.4996 H   0  0  0  0  0  0  0  0  0  0  0  0
    1.6445   -7.8225   -5.4193 H   0  0  0  0  0  0  0  0  0  0  0  0
    0.8665   -8.6270   -4.0547 H   0  0  0  0  0  0  0  0  0  0  0  0
    3.0294   -9.7185   -4.6899 H   0  0  0  0  0  0  0  0  0  0  0  0
    3.0315   -9.1255   -3.0263 H   0  0  0  0  0  0  0  0  0  0  0  0
    4.2875   -7.6945   -5.4313 H   0  0  0  0  0  0  0  0  0  0  0  0
    5.1007   -8.5916   -4.1430 H   0  0  0  0  0  0  0  0  0  0  0  0
    6.5748   -6.7682   -0.4468 H   0  0  0  0  0  0  0  0  0  0  0  0
    8.6597   -8.0483   -0.1243 H   0  0  0  0  0  0  0  0  0  0  0  0
    8.8665   -8.7778   -4.3643 H   0  0  0  0  0  0  0  0  0  0  0  0
    6.8675   -7.3779   -4.7087 H   0  0  0  0  0  0  0  0  0  0  0  0
  1  2  1  0  0  0  0
  1 28  1  0  0  0  0
  1 29  1  0  0  0  0
  1 30  1  0  0  0  0
  2  3  1  0  0  0  0
  2  4  1  0  0  0  0
  2  5  1  0  0  0  0
  3 31  1  0  0  0  0
  3 32  1  0  0  0  0
  3 33  1  0  0  0  0
  4 34  1  0  0  0  0
  4 35  1  0  0  0  0
  4 36  1  0  0  0  0
  5  9  1  0  0  0  0
  5  6  2  0  0  0  0
  6  7  1  0  0  0  0
  6 37  1  0  0  0  0
  7  8  2  0  0  0  0
  7 10  1  0  0  0  0
  8  9  1  0  0  0  0
 10 11  1  0  0  0  0
 10 38  1  0  0  0  0
 11 12  2  0  0  0  0
 13 11  1  0  0  0  0
 13 14  1  0  0  0  0
 13 18  1  0  0  0  0
 13 39  1  6  0  0  0
 14 15  1  0  0  0  0
 14 40  1  0  0  0  0
 14 41  1  0  0  0  0
 15 16  1  0  0  0  0
 15 42  1  0  0  0  0
 15 43  1  0  0  0  0
 16 17  1  0  0  0  0
 16 44  1  0  0  0  0
 16 45  1  0  0  0  0
 17 18  1  0  0  0  0
 17 46  1  0  0  0  0
 17 47  1  0  0  0  0
 18 19  1  0  0  0  0
 19 20  2  0  0  0  0
 19 21  1  0  0  0  0
 21 26  2  0  0  0  0
 21 22  1  0  0  0  0
 22 23  2  0  0  0  0
 22 48  1  0  0  0  0
 23 24  1  0  0  0  0
 23 49  1  0  0  0  0
 24 25  2  0  0  0  0
 24 27  1  0  0  0  0
 25 26  1  0  0  0  0
 25 50  1  0  0  0  0
 26 51  1  0  0  0  0
M  END
$$$$
CHEMBL3354951_8GUQ
 OpenBabel12022418133D

 43 46  0  0  1  0  0  0  0  0999 V2000
    1.9598   -1.1113    1.5079 C   0  0  0  0  0  0  0  0  0  0  0  0
    3.0751   -0.4059    0.7100 C   0  0  0  0  0  0  0  0  0  0  0  0
    4.1680   -1.4530    0.4143 C   0  0  0  0  0  0  0  0  0  0  0  0
    2.4607    0.0721   -0.6303 C   0  0  0  0  0  0  0  0  0  0  0  0
    1.4214    0.9190   -0.3842 F   0  0  0  0  0  0  0  0  0  0  0  0
    3.6295    0.7190    1.5109 N   0  0  0  0  0  0  0  0  0  0  0  0
    4.6273    1.5696    1.0499 C   0  0  0  0  0  0  0  0  0  0  0  0
    5.1430    1.4222   -0.0533 O   0  0  0  0  0  0  0  0  0  0  0  0
    5.0580    2.6615    1.9494 C   0  0  0  0  0  0  0  0  0  0  0  0
    6.1430    3.5289    1.7050 C   0  0  0  0  0  0  0  0  0  0  0  0
    6.2409    4.3292    2.8044 C   0  0  0  0  0  0  0  0  0  0  0  0
    7.5442    5.0886    2.8352 C   0  0  1  0  0  0  0  0  0  0  0  0
    8.2542    4.5667    1.5591 C   0  0  1  0  0  0  0  0  0  0  0  0
    7.2869    3.6566    0.7690 C   0  0  0  0  0  0  0  0  0  0  0  0
    7.9663    6.0229    1.7332 C   0  0  0  0  0  0  0  0  0  0  0  0
    5.2628    3.9755    3.6747 N   0  0  0  0  0  0  0  0  0  0  0  0
    4.9798    4.6073    4.9039 C   0  0  0  0  0  0  0  0  0  0  0  0
    5.2150    5.9875    5.0690 C   0  0  0  0  0  0  0  0  0  0  0  0
    4.8479    6.6114    6.2648 C   0  0  0  0  0  0  0  0  0  0  0  0
    4.3054    5.8510    7.2960 C   0  0  0  0  0  0  0  0  0  0  0  0
    4.1218    4.4813    7.1590 C   0  0  0  0  0  0  0  0  0  0  0  0
    4.4445    3.8664    5.9546 C   0  0  0  0  0  0  0  0  0  0  0  0
    4.2944    2.5380    5.8645 F   0  0  0  0  0  0  0  0  0  0  0  0
    3.9393    6.4529    8.4347 F   0  0  0  0  0  0  0  0  0  0  0  0
    4.5139    2.9314    3.1680 N   0  0  0  0  0  0  0  0  0  0  0  0
    1.5426   -1.9571    0.9557 H   0  0  0  0  0  0  0  0  0  0  0  0
    1.1300   -0.4302    1.7245 H   0  0  0  0  0  0  0  0  0  0  0  0
    2.3328   -1.4933    2.4640 H   0  0  0  0  0  0  0  0  0  0  0  0
    3.7633   -2.3032   -0.1488 H   0  0  0  0  0  0  0  0  0  0  0  0
    4.5991   -1.8428    1.3431 H   0  0  0  0  0  0  0  0  0  0  0  0
    4.9882   -1.0383   -0.1790 H   0  0  0  0  0  0  0  0  0  0  0  0
    2.0608   -0.7692   -1.2100 H   0  0  0  0  0  0  0  0  0  0  0  0
    3.1758    0.5994   -1.2647 H   0  0  0  0  0  0  0  0  0  0  0  0
    3.2985    0.8893    2.4567 H   0  0  0  0  0  0  0  0  0  0  0  0
    8.0332    5.2361    3.7887 H   0  0  0  0  0  0  0  0  0  0  0  0
    9.2643    4.1924    1.6387 H   0  0  0  0  0  0  0  0  0  0  0  0
    6.9894    4.1345   -0.1690 H   0  0  0  0  0  0  0  0  0  0  0  0
    7.7528    2.6884    0.5668 H   0  0  0  0  0  0  0  0  0  0  0  0
    8.8059    6.6793    1.9419 H   0  0  0  0  0  0  0  0  0  0  0  0
    7.1926    6.4918    1.1370 H   0  0  0  0  0  0  0  0  0  0  0  0
    5.6112    6.6037    4.2634 H   0  0  0  0  0  0  0  0  0  0  0  0
    4.9530    7.6857    6.3924 H   0  0  0  0  0  0  0  0  0  0  0  0
    3.7184    3.8960    7.9763 H   0  0  0  0  0  0  0  0  0  0  0  0
  1  2  1  0  0  0  0
  1 26  1  0  0  0  0
  1 27  1  0  0  0  0
  1 28  1  0  0  0  0
  2  3  1  0  0  0  0
  2  4  1  0  0  0  0
  2  6  1  0  0  0  0
  3 29  1  0  0  0  0
  3 30  1  0  0  0  0
  3 31  1  0  0  0  0
  4  5  1  0  0  0  0
  4 32  1  0  0  0  0
  4 33  1  0  0  0  0
  6  7  1  0  0  0  0
  6 34  1  0  0  0  0
  7  8  2  0  0  0  0
  7  9  1  0  0  0  0
  9 25  2  0  0  0  0
  9 10  1  0  0  0  0
 10 14  1  0  0  0  0
 10 11  2  0  0  0  0
 11 12  1  0  0  0  0
 11 16  1  0  0  0  0
 12 13  1  0  0  0  0
 12 15  1  0  0  0  0
 12 35  1  1  0  0  0
 13 14  1  0  0  0  0
 13 15  1  0  0  0  0
 13 36  1  1  0  0  0
 14 37  1  0  0  0  0
 14 38  1  0  0  0  0
 15 39  1  0  0  0  0
 15 40  1  0  0  0  0
 16 17  1  0  0  0  0
 16 25  1  0  0  0  0
 17 22  2  0  0  0  0
 17 18  1  0  0  0  0
 18 19  2  0  0  0  0
 18 41  1  0  0  0  0
 19 20  1  0  0  0  0
 19 42  1  0  0  0  0
 20 21  2  0  0  0  0
 20 24  1  0  0  0  0
 21 22  1  0  0  0  0
 21 43  1  0  0  0  0
 22 23  1  0  0  0  0
M  END
$$$$
CHEMBL3942094_8GUQ
 OpenBabel12022418133D

 48 49  0  0  1  0  0  0  0  0999 V2000
   -2.1398   -0.0452    0.8654 C   0  0  0  0  0  0  0  0  0  0  0  0
   -0.7274    0.1439    0.4950 C   0  0  0  0  0  0  0  0  0  0  0  0
    0.0266    1.2188    0.5610 N   0  0  0  0  0  0  0  0  0  0  0  0
    1.2407    0.7393    0.1222 C   0  0  0  0  0  0  0  0  0  0  0  0
    2.4889    1.5962    0.0326 C   0  0  1  0  0  0  0  0  0  0  0  0
    3.3044    1.3429    1.3302 C   0  0  0  0  0  0  0  0  0  0  0  0
    3.3443    1.2033   -1.1929 C   0  0  0  0  0  0  0  0  0  0  0  0
    2.5317    1.5158   -2.7699 S   0  0  0  0  0  0  0  0  0  0  0  0
    1.3178    0.7272   -2.8597 O   0  0  0  0  0  0  0  0  0  0  0  0
    2.5012    2.9394   -3.0080 O   0  0  0  0  0  0  0  0  0  0  0  0
    3.6696    0.8167   -3.9349 C   0  0  0  0  0  0  0  0  0  0  0  0
    2.0952    3.0152    0.0127 N   0  0  0  0  0  0  0  0  0  0  0  0
    2.9969    4.0491   -0.0683 C   0  0  0  0  0  0  0  0  0  0  0  0
    4.2152    3.8904   -0.0437 O   0  0  0  0  0  0  0  0  0  0  0  0
    2.4197    5.4157   -0.2175 C   0  0  0  0  0  0  0  0  0  0  0  0
    3.2946    6.4850   -0.3751 C   0  0  0  0  0  0  0  0  0  0  0  0
    2.7792    7.7654   -0.5521 C   0  0  0  0  0  0  0  0  0  0  0  0
    1.3901    7.9035   -0.6633 C   0  0  0  0  0  0  0  0  0  0  0  0
    0.5914    6.7757   -0.4752 C   0  0  0  0  0  0  0  0  0  0  0  0
    1.0678    5.5314   -0.2242 N   0  0  0  0  0  0  0  0  0  0  0  0
    0.6402    9.4033   -1.0526 Cl  0  0  0  0  0  0  0  0  0  0  0  0
    3.5849    8.8734   -0.6823 O   0  0  0  0  0  0  0  0  0  0  0  0
    4.8345    8.8698    0.0550 C   0  0  1  0  0  0  0  0  0  0  0  0
    6.0016    8.8366   -0.9326 C   0  0  0  0  0  0  0  0  0  0  0  0
    4.9511   10.0769    1.0022 C   0  0  0  0  0  0  0  0  0  0  0  0
    3.8507   10.8616    0.9848 F   0  0  0  0  0  0  0  0  0  0  0  0
    5.1093    9.6462    2.2800 F   0  0  0  0  0  0  0  0  0  0  0  0
    6.0164   10.8608    0.7205 F   0  0  0  0  0  0  0  0  0  0  0  0
    1.2584   -0.5765   -0.1456 N   0  0  0  0  0  0  0  0  0  0  0  0
   -0.0613   -0.9647    0.0640 O   0  0  0  0  0  0  0  0  0  0  0  0
   -2.5665   -0.9192    0.3633 H   0  0  0  0  0  0  0  0  0  0  0  0
   -2.7327    0.8310    0.5908 H   0  0  0  0  0  0  0  0  0  0  0  0
   -2.2244   -0.1972    1.9456 H   0  0  0  0  0  0  0  0  0  0  0  0
    3.5214    0.2784    1.4749 H   0  0  0  0  0  0  0  0  0  0  0  0
    2.7458    1.6882    2.2096 H   0  0  0  0  0  0  0  0  0  0  0  0
    4.2618    1.8724    1.3316 H   0  0  0  0  0  0  0  0  0  0  0  0
    3.6004    0.1371   -1.1758 H   0  0  0  0  0  0  0  0  0  0  0  0
    4.2865    1.7596   -1.2305 H   0  0  0  0  0  0  0  0  0  0  0  0
    3.8191   -0.2396   -3.7049 H   0  0  0  0  0  0  0  0  0  0  0  0
    4.6126    1.3626   -3.8848 H   0  0  0  0  0  0  0  0  0  0  0  0
    3.2338    0.9193   -4.9316 H   0  0  0  0  0  0  0  0  0  0  0  0
    1.1030    3.2482   -0.0441 H   0  0  0  0  0  0  0  0  0  0  0  0
    4.3602    6.2875   -0.3905 H   0  0  0  0  0  0  0  0  0  0  0  0
   -0.4944    6.8402   -0.5237 H   0  0  0  0  0  0  0  0  0  0  0  0
    4.9147    7.9873    0.6978 H   0  0  0  0  0  0  0  0  0  0  0  0
    6.0889    9.7846   -1.4752 H   0  0  0  0  0  0  0  0  0  0  0  0
    5.8719    8.0514   -1.6837 H   0  0  0  0  0  0  0  0  0  0  0  0
    6.9450    8.6594   -0.4041 H   0  0  0  0  0  0  0  0  0  0  0  0
  1  2  1  0  0  0  0
  1 31  1  0  0  0  0
  1 32  1  0  0  0  0
  1 33  1  0  0  0  0
  2 30  1  0  0  0  0
  2  3  2  0  0  0  0
  3  4  1  0  0  0  0
  4  5  1  0  0  0  0
  4 29  2  0  0  0  0
  5  6  1  1  0  0  0
  5  7  1  0  0  0  0
  5 12  1  0  0  0  0
  6 34  1  0  0  0  0
  6 35  1  0  0  0  0
  6 36  1  0  0  0  0
  7  8  1  0  0  0  0
  7 37  1  0  0  0  0
  7 38  1  0  0  0  0
  8  9  2  0  0  0  0
  8 10  2  0  0  0  0
  8 11  1  0  0  0  0
 11 39  1  0  0  0  0
 11 40  1  0  0  0  0
 11 41  1  0  0  0  0
 12 13  1  0  0  0  0
 12 42  1  0  0  0  0
 13 14  2  0  0  0  0
 13 15  1  0  0  0  0
 15 20  2  0  0  0  0
 15 16  1  0  0  0  0
 16 17  2  0  0  0  0
 16 43  1  0  0  0  0
 17 18  1  0  0  0  0
 17 22  1  0  0  0  0
 18 19  2  0  0  0  0
 18 21  1  0  0  0  0
 19 20  1  0  0  0  0
 19 44  1  0  0  0  0
 22 23  1  0  0  0  0
 23 24  1  0  0  0  0
 23 25  1  0  0  0  0
 23 45  1  1  0  0  0
 24 46  1  0  0  0  0
 24 47  1  0  0  0  0
 24 48  1  0  0  0  0
 25 26  1  0  0  0  0
 25 27  1  0  0  0  0
 25 28  1  0  0  0  0
 29 30  1  0  0  0  0
M  END
$$$$
CHEMBL3354963_8GUQ
 OpenBabel12022418133D

 44 47  0  0  1  0  0  0  0  0999 V2000
    1.9844    1.1221   -1.6537 C   0  0  0  0  0  0  0  0  0  0  0  0
    3.0716    0.4500   -0.7884 C   0  0  0  0  0  0  0  0  0  0  0  0
    4.1504    1.5200   -0.5098 C   0  0  0  0  0  0  0  0  0  0  0  0
    2.4088   -0.0036    0.5487 C   0  0  0  0  0  0  0  0  0  0  0  0
    1.8435    1.0847    1.2815 O   0  0  0  0  0  0  0  0  0  0  0  0
    3.6497   -0.7029   -1.5251 N   0  0  0  0  0  0  0  0  0  0  0  0
    4.6460   -1.5091   -0.9983 C   0  0  0  0  0  0  0  0  0  0  0  0
    5.1239   -1.3031    0.1129 O   0  0  0  0  0  0  0  0  0  0  0  0
    5.1324   -2.6372   -1.8261 C   0  0  0  0  0  0  0  0  0  0  0  0
    6.1950   -3.4758   -1.4475 C   0  0  0  0  0  0  0  0  0  0  0  0
    6.3026   -4.4115   -2.4304 C   0  0  0  0  0  0  0  0  0  0  0  0
    7.2565   -5.5158   -2.0306 C   0  0  2  0  0  0  0  0  0  0  0  0
    7.6756   -5.1018   -0.6035 C   0  0  2  0  0  0  0  0  0  0  0  0
    7.0588   -3.7295   -0.2681 C   0  0  0  0  0  0  0  0  0  0  0  0
    8.6963   -5.2225   -1.6891 C   0  0  0  0  0  0  0  0  0  0  0  0
    5.3317   -4.1785   -3.3553 N   0  0  0  0  0  0  0  0  0  0  0  0
    5.1254   -4.9536   -4.5257 C   0  0  0  0  0  0  0  0  0  0  0  0
    6.1899   -5.7224   -5.0460 C   0  0  0  0  0  0  0  0  0  0  0  0
    5.9897   -6.5679   -6.1379 C   0  0  0  0  0  0  0  0  0  0  0  0
    4.7287   -6.6442   -6.7117 C   0  0  0  0  0  0  0  0  0  0  0  0
    3.6747   -5.8755   -6.2305 C   0  0  0  0  0  0  0  0  0  0  0  0
    3.8788   -5.0201   -5.1455 C   0  0  0  0  0  0  0  0  0  0  0  0
    2.8220   -4.3412   -4.6777 F   0  0  0  0  0  0  0  0  0  0  0  0
    4.5269   -7.4798   -7.7381 F   0  0  0  0  0  0  0  0  0  0  0  0
    4.5964   -3.0603   -3.0030 N   0  0  0  0  0  0  0  0  0  0  0  0
    1.5550    1.9982   -1.1512 H   0  0  0  0  0  0  0  0  0  0  0  0
    1.1643    0.4296   -1.8697 H   0  0  0  0  0  0  0  0  0  0  0  0
    2.3927    1.4635   -2.6123 H   0  0  0  0  0  0  0  0  0  0  0  0
    3.7241    2.4117   -0.0345 H   0  0  0  0  0  0  0  0  0  0  0  0
    4.6328    1.8436   -1.4385 H   0  0  0  0  0  0  0  0  0  0  0  0
    4.9356    1.1497    0.1560 H   0  0  0  0  0  0  0  0  0  0  0  0
    3.1128   -0.5128    1.2134 H   0  0  0  0  0  0  0  0  0  0  0  0
    1.5986   -0.7113    0.3421 H   0  0  0  0  0  0  0  0  0  0  0  0
    2.5781    1.5361    1.7333 H   0  0  0  0  0  0  0  0  0  0  0  0
    3.3202   -0.9454   -2.4546 H   0  0  0  0  0  0  0  0  0  0  0  0
    7.0443   -6.5323   -2.3319 H   0  0  0  0  0  0  0  0  0  0  0  0
    7.6222   -5.8334    0.1883 H   0  0  0  0  0  0  0  0  0  0  0  0
    6.4759   -3.7908    0.6551 H   0  0  0  0  0  0  0  0  0  0  0  0
    7.8394   -2.9700   -0.1715 H   0  0  0  0  0  0  0  0  0  0  0  0
    9.1455   -4.3246   -2.0984 H   0  0  0  0  0  0  0  0  0  0  0  0
    9.3802   -6.0637   -1.6459 H   0  0  0  0  0  0  0  0  0  0  0  0
    7.1925   -5.6613   -4.6345 H   0  0  0  0  0  0  0  0  0  0  0  0
    6.8019   -7.1660   -6.5353 H   0  0  0  0  0  0  0  0  0  0  0  0
    2.6941   -5.9599   -6.6823 H   0  0  0  0  0  0  0  0  0  0  0  0
  1  2  1  0  0  0  0
  1 26  1  0  0  0  0
  1 27  1  0  0  0  0
  1 28  1  0  0  0  0
  2  3  1  0  0  0  0
  2  4  1  0  0  0  0
  2  6  1  0  0  0  0
  3 29  1  0  0  0  0
  3 30  1  0  0  0  0
  3 31  1  0  0  0  0
  4  5  1  0  0  0  0
  4 32  1  0  0  0  0
  4 33  1  0  0  0  0
  5 34  1  0  0  0  0
  6  7  1  0  0  0  0
  6 35  1  0  0  0  0
  7  8  2  0  0  0  0
  7  9  1  0  0  0  0
  9 25  2  0  0  0  0
  9 10  1  0  0  0  0
 10 14  1  0  0  0  0
 10 11  2  0  0  0  0
 11 12  1  0  0  0  0
 11 16  1  0  0  0  0
 12 13  1  0  0  0  0
 12 15  1  0  0  0  0
 12 36  1  6  0  0  0
 13 14  1  0  0  0  0
 13 15  1  0  0  0  0
 13 37  1  1  0  0  0
 14 38  1  0  0  0  0
 14 39  1  0  0  0  0
 15 40  1  0  0  0  0
 15 41  1  0  0  0  0
 16 25  1  0  0  0  0
 16 17  1  0  0  0  0
 17 22  2  0  0  0  0
 17 18  1  0  0  0  0
 18 19  2  0  0  0  0
 18 42  1  0  0  0  0
 19 20  1  0  0  0  0
 19 43  1  0  0  0  0
 20 21  2  0  0  0  0
 20 24  1  0  0  0  0
 21 22  1  0  0  0  0
 21 44  1  0  0  0  0
 22 23  1  0  0  0  0
M  END
$$$$
CHEMBL1081624_8GUS
 OpenBabel12022418133D

 36 38  0  0  0  0  0  0  0  0999 V2000
    2.9982   -1.1586    0.6711 C   0  0  0  0  0  0  0  0  0  0  0  0
    2.3026    0.0325    0.3156 O   0  0  0  0  0  0  0  0  0  0  0  0
    3.0405    1.1842    0.1627 C   0  0  0  0  0  0  0  0  0  0  0  0
    4.4424    1.1556    0.0530 C   0  0  0  0  0  0  0  0  0  0  0  0
    5.1815    2.3354   -0.0505 C   0  0  0  0  0  0  0  0  0  0  0  0
    6.6684    2.2475   -0.1430 C   0  0  0  0  0  0  0  0  0  0  0  0
    7.1357    1.2548   -0.7077 O   0  0  0  0  0  0  0  0  0  0  0  0
    7.4803    3.3096    0.4333 C   0  0  0  0  0  0  0  0  0  0  0  0
    7.2447    4.1110    1.5382 C   0  0  0  0  0  0  0  0  0  0  0  0
    8.2766    5.0733    1.7429 C   0  0  0  0  0  0  0  0  0  0  0  0
    9.2816    4.9556    0.8103 C   0  0  0  0  0  0  0  0  0  0  0  0
    8.9869    3.6858   -0.2938 S   0  0  0  0  0  0  0  0  0  0  0  0
    4.5159    3.5563   -0.1112 C   0  0  0  0  0  0  0  0  0  0  0  0
    3.1205    3.5896   -0.0324 C   0  0  0  0  0  0  0  0  0  0  0  0
    2.3324    2.4189    0.1189 C   0  0  0  0  0  0  0  0  0  0  0  0
    0.8389    2.5030    0.2475 C   0  0  0  0  0  0  0  0  0  0  0  0
   -0.0265    1.5754   -0.3634 C   0  0  0  0  0  0  0  0  0  0  0  0
   -1.4171    1.6665   -0.2196 C   0  0  0  0  0  0  0  0  0  0  0  0
   -1.9946    2.7057    0.4980 C   0  0  0  0  0  0  0  0  0  0  0  0
   -1.1647    3.6453    1.0916 C   0  0  0  0  0  0  0  0  0  0  0  0
    0.2251    3.5336    0.9901 C   0  0  0  0  0  0  0  0  0  0  0  0
   -1.8514    4.9666    1.9567 Cl  0  0  0  0  0  0  0  0  0  0  0  0
   -2.4301    0.4740   -0.9398 Cl  0  0  0  0  0  0  0  0  0  0  0  0
    2.5153    4.8198   -0.1224 O   0  0  0  0  0  0  0  0  0  0  0  0
    2.2572   -1.9456    0.8370 H   0  0  0  0  0  0  0  0  0  0  0  0
    3.5561   -1.0201    1.6036 H   0  0  0  0  0  0  0  0  0  0  0  0
    3.6558   -1.4957   -0.1375 H   0  0  0  0  0  0  0  0  0  0  0  0
    4.9896    0.2168    0.0455 H   0  0  0  0  0  0  0  0  0  0  0  0
    6.3728    4.0225    2.1771 H   0  0  0  0  0  0  0  0  0  0  0  0
    8.2854    5.8096    2.5376 H   0  0  0  0  0  0  0  0  0  0  0  0
   10.1837    5.5464    0.7276 H   0  0  0  0  0  0  0  0  0  0  0  0
    5.0739    4.4785   -0.2446 H   0  0  0  0  0  0  0  0  0  0  0  0
    0.3774    0.7616   -0.9617 H   0  0  0  0  0  0  0  0  0  0  0  0
   -3.0731    2.7837    0.5928 H   0  0  0  0  0  0  0  0  0  0  0  0
    0.8352    4.2801    1.4934 H   0  0  0  0  0  0  0  0  0  0  0  0
    3.1827    5.5254   -0.1314 H   0  0  0  0  0  0  0  0  0  0  0  0
  1  2  1  0  0  0  0
  1 25  1  0  0  0  0
  1 26  1  0  0  0  0
  1 27  1  0  0  0  0
  2  3  1  0  0  0  0
  3 15  2  0  0  0  0
  3  4  1  0  0  0  0
  4  5  2  0  0  0  0
  4 28  1  0  0  0  0
  5  6  1  0  0  0  0
  5 13  1  0  0  0  0
  6  7  2  0  0  0  0
  6  8  1  0  0  0  0
  8 12  1  0  0  0  0
  8  9  2  0  0  0  0
  9 10  1  0  0  0  0
  9 29  1  0  0  0  0
 10 11  2  0  0  0  0
 10 30  1  0  0  0  0
 11 12  1  0  0  0  0
 11 31  1  0  0  0  0
 13 14  2  0  0  0  0
 13 32  1  0  0  0  0
 14 15  1  0  0  0  0
 14 24  1  0  0  0  0
 15 16  1  0  0  0  0
 16 21  2  0  0  0  0
 16 17  1  0  0  0  0
 17 18  2  0  0  0  0
 17 33  1  0  0  0  0
 18 19  1  0  0  0  0
 18 23  1  0  0  0  0
 19 20  2  0  0  0  0
 19 34  1  0  0  0  0
 20 21  1  0  0  0  0
 20 22  1  0  0  0  0
 21 35  1  0  0  0  0
 24 36  1  0  0  0  0
M  END
$$$$
CHEMBL4061136_8GUR
 OpenBabel12022418133D

 52 53  0  0  0  0  0  0  0  0999 V2000
   -2.4541   -0.7861    0.1474 C   0  0  0  0  0  0  0  0  0  0  0  0
   -2.4778    0.6002    0.0887 C   0  0  0  0  0  0  0  0  0  0  0  0
   -1.2849    1.3186    0.0748 C   0  0  0  0  0  0  0  0  0  0  0  0
   -0.0392    0.6652    0.0711 C   0  0  0  0  0  0  0  0  0  0  0  0
   -0.0174   -0.7387    0.1671 C   0  0  0  0  0  0  0  0  0  0  0  0
   -1.2325   -1.4753    0.2184 C   0  0  0  0  0  0  0  0  0  0  0  0
   -1.2918   -2.9764    0.3262 C   0  0  0  0  0  0  0  0  0  0  0  0
    1.3132   -1.4056    0.1998 C   0  0  0  0  0  0  0  0  0  0  0  0
    1.4087   -2.6050    0.4501 O   0  0  0  0  0  0  0  0  0  0  0  0
    2.4157   -0.6248   -0.1054 N   0  0  0  0  0  0  0  0  0  0  0  0
    2.3805    0.7338   -0.3628 C   0  0  0  0  0  0  0  0  0  0  0  0
    3.3720    1.3273   -0.7968 O   0  0  0  0  0  0  0  0  0  0  0  0
    1.1770    1.3871   -0.1086 N   0  0  0  0  0  0  0  0  0  0  0  0
    1.2077    2.8557   -0.1010 C   0  0  0  0  0  0  0  0  0  0  0  0
    1.2255    3.4650    1.3149 C   0  0  0  0  0  0  0  0  0  0  0  0
    2.5027    3.1617    2.0972 C   0  0  0  0  0  0  0  0  0  0  0  0
    2.5344    3.9024    3.4312 C   0  0  0  0  0  0  0  0  0  0  0  0
    3.7319   -1.2610   -0.1761 C   0  0  0  0  0  0  0  0  0  0  0  0
    4.6126   -0.8772    1.0289 C   0  0  0  0  0  0  0  0  0  0  0  0
    4.2117   -0.1828    1.9592 O   0  0  0  0  0  0  0  0  0  0  0  0
    5.8996   -1.3977    0.9639 N   0  0  0  0  0  0  0  0  0  0  0  0
    6.9541   -1.1553    1.9663 C   0  0  0  0  0  0  0  0  0  0  0  0
    6.5232   -1.6655    3.3507 C   0  0  0  0  0  0  0  0  0  0  0  0
    8.2230   -1.9288    1.5525 C   0  0  0  0  0  0  0  0  0  0  0  0
    7.3158    0.3376    2.0387 C   0  0  0  0  0  0  0  0  0  0  0  0
   -3.3984   -1.3306    0.1383 H   0  0  0  0  0  0  0  0  0  0  0  0
   -3.4306    1.1235    0.0381 H   0  0  0  0  0  0  0  0  0  0  0  0
   -1.3694    2.3978    0.0241 H   0  0  0  0  0  0  0  0  0  0  0  0
   -2.3279   -3.3360    0.3579 H   0  0  0  0  0  0  0  0  0  0  0  0
   -0.8180   -3.3154    1.2517 H   0  0  0  0  0  0  0  0  0  0  0  0
   -0.8190   -3.4459   -0.5419 H   0  0  0  0  0  0  0  0  0  0  0  0
    0.3625    3.2470   -0.6742 H   0  0  0  0  0  0  0  0  0  0  0  0
    2.0916    3.2194   -0.6370 H   0  0  0  0  0  0  0  0  0  0  0  0
    0.3572    3.1253    1.8884 H   0  0  0  0  0  0  0  0  0  0  0  0
    1.1288    4.5550    1.2099 H   0  0  0  0  0  0  0  0  0  0  0  0
    3.3855    3.4516    1.5116 H   0  0  0  0  0  0  0  0  0  0  0  0
    2.5801    2.0861    2.2924 H   0  0  0  0  0  0  0  0  0  0  0  0
    2.5209    4.9843    3.2774 H   0  0  0  0  0  0  0  0  0  0  0  0
    3.4442    3.6506    3.9855 H   0  0  0  0  0  0  0  0  0  0  0  0
    1.6742    3.6311    4.0501 H   0  0  0  0  0  0  0  0  0  0  0  0
    4.2360   -0.9475   -1.0959 H   0  0  0  0  0  0  0  0  0  0  0  0
    3.6429   -2.3515   -0.1897 H   0  0  0  0  0  0  0  0  0  0  0  0
    6.1535   -1.9276    0.1394 H   0  0  0  0  0  0  0  0  0  0  0  0
    6.2514   -2.7266    3.3078 H   0  0  0  0  0  0  0  0  0  0  0  0
    5.6569   -1.1221    3.7393 H   0  0  0  0  0  0  0  0  0  0  0  0
    7.3308   -1.5546    4.0830 H   0  0  0  0  0  0  0  0  0  0  0  0
    8.0429   -3.0097    1.5368 H   0  0  0  0  0  0  0  0  0  0  0  0
    9.0491   -1.7392    2.2488 H   0  0  0  0  0  0  0  0  0  0  0  0
    8.5593   -1.6380    0.5506 H   0  0  0  0  0  0  0  0  0  0  0  0
    6.4683    0.9510    2.3576 H   0  0  0  0  0  0  0  0  0  0  0  0
    7.6418    0.7105    1.0608 H   0  0  0  0  0  0  0  0  0  0  0  0
    8.1312    0.5118    2.7509 H   0  0  0  0  0  0  0  0  0  0  0  0
  1  6  2  0  0  0  0
  1  2  1  0  0  0  0
  1 26  1  0  0  0  0
  2  3  2  0  0  0  0
  2 27  1  0  0  0  0
  3  4  1  0  0  0  0
  3 28  1  0  0  0  0
  4 13  1  0  0  0  0
  4  5  2  0  0  0  0
  5  6  1  0  0  0  0
  5  8  1  0  0  0  0
  6  7  1  0  0  0  0
  7 29  1  0  0  0  0
  7 30  1  0  0  0  0
  7 31  1  0  0  0  0
  8  9  2  0  0  0  0
  8 10  1  0  0  0  0
 10 11  1  0  0  0  0
 10 18  1  0  0  0  0
 11 12  2  0  0  0  0
 11 13  1  0  0  0  0
 13 14  1  0  0  0  0
 14 15  1  0  0  0  0
 14 32  1  0  0  0  0
 14 33  1  0  0  0  0
 15 16  1  0  0  0  0
 15 34  1  0  0  0  0
 15 35  1  0  0  0  0
 16 17  1  0  0  0  0
 16 36  1  0  0  0  0
 16 37  1  0  0  0  0
 17 38  1  0  0  0  0
 17 39  1  0  0  0  0
 17 40  1  0  0  0  0
 18 19  1  0  0  0  0
 18 41  1  0  0  0  0
 18 42  1  0  0  0  0
 19 20  2  0  0  0  0
 19 21  1  0  0  0  0
 21 22  1  0  0  0  0
 21 43  1  0  0  0  0
 22 23  1  0  0  0  0
 22 24  1  0  0  0  0
 22 25  1  0  0  0  0
 23 44  1  0  0  0  0
 23 45  1  0  0  0  0
 23 46  1  0  0  0  0
 24 47  1  0  0  0  0
 24 48  1  0  0  0  0
 24 49  1  0  0  0  0
 25 50  1  0  0  0  0
 25 51  1  0  0  0  0
 25 52  1  0  0  0  0
M  END
$$$$
CHEMBL4083950_5ZTY
 OpenBabel12022418133D

 52 53  0  0  0  0  0  0  0  0999 V2000
   -2.4788   -0.8471    0.0310 C   0  0  0  0  0  0  0  0  0  0  0  0
   -2.5288    0.5430    0.0541 C   0  0  0  0  0  0  0  0  0  0  0  0
   -1.3514    1.2866    0.1745 C   0  0  0  0  0  0  0  0  0  0  0  0
   -0.1008    0.6460    0.1918 C   0  0  0  0  0  0  0  0  0  0  0  0
   -0.0638   -0.7486    0.2021 C   0  0  0  0  0  0  0  0  0  0  0  0
   -1.2488   -1.4985    0.1363 C   0  0  0  0  0  0  0  0  0  0  0  0
    1.2462   -1.4398    0.2121 C   0  0  0  0  0  0  0  0  0  0  0  0
    1.2824   -2.6664    0.3156 O   0  0  0  0  0  0  0  0  0  0  0  0
    2.3646   -0.6556   -0.0062 N   0  0  0  0  0  0  0  0  0  0  0  0
    2.2260    0.6522   -0.4387 C   0  0  0  0  0  0  0  0  0  0  0  0
    3.0238    1.1511   -1.2487 O   0  0  0  0  0  0  0  0  0  0  0  0
    1.1214    1.3546    0.0330 N   0  0  0  0  0  0  0  0  0  0  0  0
    1.1561    2.8210   -0.0108 C   0  0  0  0  0  0  0  0  0  0  0  0
    1.2213    3.4926    1.3711 C   0  0  0  0  0  0  0  0  0  0  0  0
    2.4909    3.1957    2.1787 C   0  0  0  0  0  0  0  0  0  0  0  0
    2.4603    3.9690    3.5035 C   0  0  0  0  0  0  0  0  0  0  0  0
    3.6808    3.7005    4.3682 C   0  0  0  0  0  0  0  0  0  0  0  0
    3.6842   -1.2974   -0.1552 C   0  0  0  0  0  0  0  0  0  0  0  0
    4.6397   -0.9165    0.9942 C   0  0  0  0  0  0  0  0  0  0  0  0
    4.2916   -0.1866    1.9065 O   0  0  0  0  0  0  0  0  0  0  0  0
    5.9307   -1.4704    0.9367 N   0  0  0  0  0  0  0  0  0  0  0  0
    6.9619   -1.2334    1.9748 C   0  0  0  0  0  0  0  0  0  0  0  0
    6.4808   -1.7495    3.3512 C   0  0  0  0  0  0  0  0  0  0  0  0
    8.2754   -1.9843    1.6264 C   0  0  0  0  0  0  0  0  0  0  0  0
    7.3176    0.2534    2.0887 C   0  0  0  0  0  0  0  0  0  0  0  0
   -3.3929   -1.4234   -0.0842 H   0  0  0  0  0  0  0  0  0  0  0  0
   -3.4827    1.0559   -0.0533 H   0  0  0  0  0  0  0  0  0  0  0  0
   -1.4515    2.3662    0.1699 H   0  0  0  0  0  0  0  0  0  0  0  0
   -1.2122   -2.5825    0.1209 H   0  0  0  0  0  0  0  0  0  0  0  0
    0.2810    3.1943   -0.5513 H   0  0  0  0  0  0  0  0  0  0  0  0
    2.0141    3.1574   -0.6012 H   0  0  0  0  0  0  0  0  0  0  0  0
    0.3468    3.2096    1.9687 H   0  0  0  0  0  0  0  0  0  0  0  0
    1.1577    4.5789    1.2184 H   0  0  0  0  0  0  0  0  0  0  0  0
    3.3810    3.4801    1.6044 H   0  0  0  0  0  0  0  0  0  0  0  0
    2.5620    2.1221    2.3843 H   0  0  0  0  0  0  0  0  0  0  0  0
    1.5612    3.6948    4.0682 H   0  0  0  0  0  0  0  0  0  0  0  0
    2.3971    5.0455    3.3039 H   0  0  0  0  0  0  0  0  0  0  0  0
    3.7509    2.6406    4.6312 H   0  0  0  0  0  0  0  0  0  0  0  0
    3.6144    4.2754    5.2985 H   0  0  0  0  0  0  0  0  0  0  0  0
    4.6014    3.9940    3.8548 H   0  0  0  0  0  0  0  0  0  0  0  0
    4.1368   -0.9913   -1.0990 H   0  0  0  0  0  0  0  0  0  0  0  0
    3.5830   -2.3853   -0.1438 H   0  0  0  0  0  0  0  0  0  0  0  0
    6.1844   -2.0142    0.1195 H   0  0  0  0  0  0  0  0  0  0  0  0
    6.2281   -2.8135    3.3107 H   0  0  0  0  0  0  0  0  0  0  0  0
    5.5927   -1.2135    3.6912 H   0  0  0  0  0  0  0  0  0  0  0  0
    7.2508   -1.6108    4.1198 H   0  0  0  0  0  0  0  0  0  0  0  0
    8.1515   -3.0708    1.6373 H   0  0  0  0  0  0  0  0  0  0  0  0
    9.0697   -1.7410    2.3491 H   0  0  0  0  0  0  0  0  0  0  0  0
    8.6467   -1.6982    0.6357 H   0  0  0  0  0  0  0  0  0  0  0  0
    6.4595    0.8614    2.3837 H   0  0  0  0  0  0  0  0  0  0  0  0
    7.6876    0.6430    1.1329 H   0  0  0  0  0  0  0  0  0  0  0  0
    8.0997    0.4201    2.8418 H   0  0  0  0  0  0  0  0  0  0  0  0
  1  6  2  0  0  0  0
  1  2  1  0  0  0  0
  1 26  1  0  0  0  0
  2  3  2  0  0  0  0
  2 27  1  0  0  0  0
  3  4  1  0  0  0  0
  3 28  1  0  0  0  0
  4 12  1  0  0  0  0
  4  5  2  0  0  0  0
  5  6  1  0  0  0  0
  5  7  1  0  0  0  0
  6 29  1  0  0  0  0
  7  8  2  0  0  0  0
  7  9  1  0  0  0  0
  9 10  1  0  0  0  0
  9 18  1  0  0  0  0
 10 11  2  0  0  0  0
 10 12  1  0  0  0  0
 12 13  1  0  0  0  0
 13 14  1  0  0  0  0
 13 30  1  0  0  0  0
 13 31  1  0  0  0  0
 14 15  1  0  0  0  0
 14 32  1  0  0  0  0
 14 33  1  0  0  0  0
 15 16  1  0  0  0  0
 15 34  1  0  0  0  0
 15 35  1  0  0  0  0
 16 17  1  0  0  0  0
 16 36  1  0  0  0  0
 16 37  1  0  0  0  0
 17 38  1  0  0  0  0
 17 39  1  0  0  0  0
 17 40  1  0  0  0  0
 18 19  1  0  0  0  0
 18 41  1  0  0  0  0
 18 42  1  0  0  0  0
 19 20  2  0  0  0  0
 19 21  1  0  0  0  0
 21 22  1  0  0  0  0
 21 43  1  0  0  0  0
 22 23  1  0  0  0  0
 22 24  1  0  0  0  0
 22 25  1  0  0  0  0
 23 44  1  0  0  0  0
 23 45  1  0  0  0  0
 23 46  1  0  0  0  0
 24 47  1  0  0  0  0
 24 48  1  0  0  0  0
 24 49  1  0  0  0  0
 25 50  1  0  0  0  0
 25 51  1  0  0  0  0
 25 52  1  0  0  0  0
M  END
$$$$
CHEMBL3899976_8GUT
 OpenBabel12022418133D

 59 61  0  0  1  0  0  0  0  0999 V2000
    5.6209   -1.9899    2.0140 C   0  0  0  0  0  0  0  0  0  0  0  0
    7.0840   -2.2742    1.6710 C   0  0  0  0  0  0  0  0  0  0  0  0
    7.5089   -3.6047    2.3080 C   0  0  0  0  0  0  0  0  0  0  0  0
    7.3668   -2.2856    0.1496 C   0  0  0  0  0  0  0  0  0  0  0  0
    7.0629   -0.9785   -0.6052 C   0  0  1  0  0  0  0  0  0  0  0  0
    7.8986    0.2252   -0.0966 C   0  0  0  0  0  0  0  0  0  0  0  0
    8.8358    0.1181    0.6905 O   0  0  0  0  0  0  0  0  0  0  0  0
    7.4896    1.4447   -0.6017 N   0  0  0  0  0  0  0  0  0  0  0  0
    8.0687    2.6838   -0.1529 C   0  0  0  0  0  0  0  0  0  0  0  0
    7.3221   -1.1511   -2.0421 N   0  0  0  0  0  0  0  0  0  0  0  0
    6.6264   -0.4542   -3.0079 C   0  0  0  0  0  0  0  0  0  0  0  0
    5.7274    0.3346   -2.7356 O   0  0  0  0  0  0  0  0  0  0  0  0
    7.0513   -0.6976   -4.4263 C   0  0  0  0  0  0  0  0  0  0  0  0
    6.3626   -0.0827   -5.4613 C   0  0  0  0  0  0  0  0  0  0  0  0
    6.7392   -0.3727   -6.7712 C   0  0  0  0  0  0  0  0  0  0  0  0
    7.7988   -1.2517   -7.0440 C   0  0  0  0  0  0  0  0  0  0  0  0
    8.4543   -1.7795   -5.9148 C   0  0  0  0  0  0  0  0  0  0  0  0
    9.5366   -2.6186   -6.1454 O   0  0  0  0  0  0  0  0  0  0  0  0
   10.3345   -2.8028   -4.9700 C   0  0  0  0  0  0  0  0  0  0  0  0
   11.7089   -3.3752   -5.3155 C   0  0  2  0  0  0  0  0  0  0  0  0
   11.6922   -4.7886   -5.8755 C   0  0  0  0  0  0  0  0  0  0  0  0
   13.0503   -5.3033   -5.4592 C   0  0  0  0  0  0  0  0  0  0  0  0
   13.2337   -4.6660   -4.0998 C   0  0  0  0  0  0  0  0  0  0  0  0
   12.5216   -3.4228   -4.1244 O   0  0  0  0  0  0  0  0  0  0  0  0
    8.0922   -1.5431   -4.6259 N   0  0  0  0  0  0  0  0  0  0  0  0
    8.1358   -1.6217   -8.4758 C   0  0  0  0  0  0  0  0  0  0  0  0
    8.2630   -0.5476   -9.5379 C   0  0  0  0  0  0  0  0  0  0  0  0
    9.4798   -1.2868   -9.0743 C   0  0  0  0  0  0  0  0  0  0  0  0
    5.4791   -1.9792    3.1008 H   0  0  0  0  0  0  0  0  0  0  0  0
    4.9586   -2.7573    1.5986 H   0  0  0  0  0  0  0  0  0  0  0  0
    5.2965   -1.0167    1.6359 H   0  0  0  0  0  0  0  0  0  0  0  0
    7.6935   -1.4922    2.1361 H   0  0  0  0  0  0  0  0  0  0  0  0
    6.6910   -4.3333    2.3145 H   0  0  0  0  0  0  0  0  0  0  0  0
    7.8123   -3.4416    3.3485 H   0  0  0  0  0  0  0  0  0  0  0  0
    8.3589   -4.0555    1.7861 H   0  0  0  0  0  0  0  0  0  0  0  0
    6.7907   -3.0987   -0.3116 H   0  0  0  0  0  0  0  0  0  0  0  0
    8.4246   -2.5380   -0.0061 H   0  0  0  0  0  0  0  0  0  0  0  0
    6.0035   -0.7220   -0.4814 H   0  0  0  0  0  0  0  0  0  0  0  0
    6.6784    1.4598   -1.2186 H   0  0  0  0  0  0  0  0  0  0  0  0
    9.1277    2.5536    0.0858 H   0  0  0  0  0  0  0  0  0  0  0  0
    7.5347    3.0092    0.7439 H   0  0  0  0  0  0  0  0  0  0  0  0
    7.9543    3.4320   -0.9404 H   0  0  0  0  0  0  0  0  0  0  0  0
    8.1823   -1.6007   -2.3420 H   0  0  0  0  0  0  0  0  0  0  0  0
    5.5416    0.5958   -5.2576 H   0  0  0  0  0  0  0  0  0  0  0  0
    6.1916    0.0866   -7.5914 H   0  0  0  0  0  0  0  0  0  0  0  0
    9.8182   -3.4742   -4.2711 H   0  0  0  0  0  0  0  0  0  0  0  0
   10.5035   -1.8454   -4.4584 H   0  0  0  0  0  0  0  0  0  0  0  0
   12.2145   -2.7107   -6.0273 H   0  0  0  0  0  0  0  0  0  0  0  0
   11.5383   -4.8149   -6.9578 H   0  0  0  0  0  0  0  0  0  0  0  0
   10.9093   -5.3921   -5.4016 H   0  0  0  0  0  0  0  0  0  0  0  0
   13.8183   -4.9334   -6.1488 H   0  0  0  0  0  0  0  0  0  0  0  0
   13.1179   -6.3939   -5.4276 H   0  0  0  0  0  0  0  0  0  0  0  0
   14.2846   -4.4814   -3.8590 H   0  0  0  0  0  0  0  0  0  0  0  0
   12.7995   -5.2852   -3.3075 H   0  0  0  0  0  0  0  0  0  0  0  0
    7.6842   -2.5537   -8.8149 H   0  0  0  0  0  0  0  0  0  0  0  0
    8.1811    0.4975   -9.2612 H   0  0  0  0  0  0  0  0  0  0  0  0
    7.8841   -0.7667  -10.5308 H   0  0  0  0  0  0  0  0  0  0  0  0
    9.9218   -2.0079   -9.7534 H   0  0  0  0  0  0  0  0  0  0  0  0
   10.2019   -0.7460   -8.4743 H   0  0  0  0  0  0  0  0  0  0  0  0
  1  2  1  0  0  0  0
  1 29  1  0  0  0  0
  1 30  1  0  0  0  0
  1 31  1  0  0  0  0
  2  3  1  0  0  0  0
  2  4  1  0  0  0  0
  2 32  1  0  0  0  0
  3 33  1  0  0  0  0
  3 34  1  0  0  0  0
  3 35  1  0  0  0  0
  4 36  1  0  0  0  0
  4 37  1  0  0  0  0
  5  4  1  0  0  0  0
  5  6  1  0  0  0  0
  5 10  1  0  0  0  0
  5 38  1  1  0  0  0
  6  7  2  0  0  0  0
  6  8  1  0  0  0  0
  8  9  1  0  0  0  0
  8 39  1  0  0  0  0
  9 40  1  0  0  0  0
  9 41  1  0  0  0  0
  9 42  1  0  0  0  0
 10 11  1  0  0  0  0
 10 43  1  0  0  0  0
 11 12  2  0  0  0  0
 11 13  1  0  0  0  0
 13 25  2  0  0  0  0
 13 14  1  0  0  0  0
 14 15  2  0  0  0  0
 14 44  1  0  0  0  0
 15 16  1  0  0  0  0
 15 45  1  0  0  0  0
 16 17  2  0  0  0  0
 16 26  1  0  0  0  0
 17 18  1  0  0  0  0
 17 25  1  0  0  0  0
 18 19  1  0  0  0  0
 19 46  1  0  0  0  0
 19 47  1  0  0  0  0
 20 19  1  0  0  0  0
 20 21  1  0  0  0  0
 20 24  1  0  0  0  0
 20 48  1  6  0  0  0
 21 22  1  0  0  0  0
 21 49  1  0  0  0  0
 21 50  1  0  0  0  0
 22 23  1  0  0  0  0
 22 51  1  0  0  0  0
 22 52  1  0  0  0  0
 23 24  1  0  0  0  0
 23 53  1  0  0  0  0
 23 54  1  0  0  0  0
 26 28  1  0  0  0  0
 26 27  1  0  0  0  0
 26 55  1  0  0  0  0
 27 28  1  0  0  0  0
 27 56  1  0  0  0  0
 27 57  1  0  0  0  0
 28 58  1  0  0  0  0
 28 59  1  0  0  0  0
M  END
$$$$
CHEMBL3422789_5ZTY
 OpenBabel12022418133D

 51 53  0  0  1  0  0  0  0  0999 V2000
   -1.1935   -1.4232    0.0139 C   0  0  0  0  0  0  0  0  0  0  0  0
   -2.4187   -0.7606   -0.0130 C   0  0  0  0  0  0  0  0  0  0  0  0
   -2.4495    0.6295   -0.0110 C   0  0  0  0  0  0  0  0  0  0  0  0
   -1.2562    1.3587    0.0322 C   0  0  0  0  0  0  0  0  0  0  0  0
   -0.0129    0.7088    0.0454 C   0  0  0  0  0  0  0  0  0  0  0  0
    0.0072   -0.6977    0.0289 C   0  0  0  0  0  0  0  0  0  0  0  0
    1.2820   -1.4094   -0.0289 C   0  0  0  0  0  0  0  0  0  0  0  0
    2.4499   -0.7474   -0.0424 C   0  0  0  0  0  0  0  0  0  0  0  0
    2.4529    0.7419    0.0584 C   0  0  0  0  0  0  0  0  0  0  0  0
    3.5266    1.3467    0.1220 O   0  0  0  0  0  0  0  0  0  0  0  0
    1.2301    1.4140    0.0611 N   0  0  0  0  0  0  0  0  0  0  0  0
    1.2733    2.8770    0.0610 C   0  0  0  0  0  0  0  0  0  0  0  0
    1.1888    3.5138    1.4492 C   0  0  0  0  0  0  0  0  0  0  0  0
    2.3895    3.2221    2.3411 C   0  0  0  0  0  0  0  0  0  0  0  0
    2.2296    3.8988    3.5857 O   0  0  0  0  0  0  0  0  0  0  0  0
    3.7040   -1.5523   -0.2414 C   0  0  0  0  0  0  0  0  0  0  0  0
    3.6718   -2.7718   -0.4076 O   0  0  0  0  0  0  0  0  0  0  0  0
    4.8676   -0.8216   -0.2795 N   0  0  0  0  0  0  0  0  0  0  0  0
    6.1601   -1.3464   -0.6964 C   0  0  2  0  0  0  0  0  0  0  0  0
    7.0464   -1.6948    0.5056 C   0  0  0  0  0  0  0  0  0  0  0  0
    7.6653   -0.4757    1.1952 C   0  0  0  0  0  0  0  0  0  0  0  0
    8.3481    0.5036    0.2301 C   0  0  2  0  0  0  0  0  0  0  0  0
    7.4003    0.8778   -0.9146 C   0  0  0  0  0  0  0  0  0  0  0  0
    6.8431   -0.3476   -1.6425 C   0  0  0  0  0  0  0  0  0  0  0  0
    9.6799   -0.0393   -0.2958 C   0  0  0  0  0  0  0  0  0  0  0  0
   -1.1860   -2.5117    0.0064 H   0  0  0  0  0  0  0  0  0  0  0  0
   -3.3474   -1.3265   -0.0439 H   0  0  0  0  0  0  0  0  0  0  0  0
   -3.4033    1.1515   -0.0458 H   0  0  0  0  0  0  0  0  0  0  0  0
   -1.3414    2.4400    0.0460 H   0  0  0  0  0  0  0  0  0  0  0  0
    1.2503   -2.4930   -0.1169 H   0  0  0  0  0  0  0  0  0  0  0  0
    0.4794    3.2668   -0.5846 H   0  0  0  0  0  0  0  0  0  0  0  0
    2.2009    3.2087   -0.4225 H   0  0  0  0  0  0  0  0  0  0  0  0
    0.2718    3.2081    1.9658 H   0  0  0  0  0  0  0  0  0  0  0  0
    1.1096    4.6016    1.3248 H   0  0  0  0  0  0  0  0  0  0  0  0
    3.3245    3.5598    1.8831 H   0  0  0  0  0  0  0  0  0  0  0  0
    2.4740    2.1545    2.5624 H   0  0  0  0  0  0  0  0  0  0  0  0
    2.1409    4.8485    3.3984 H   0  0  0  0  0  0  0  0  0  0  0  0
    4.8003    0.1762   -0.0794 H   0  0  0  0  0  0  0  0  0  0  0  0
    5.9699   -2.2693   -1.2573 H   0  0  0  0  0  0  0  0  0  0  0  0
    7.8568   -2.3504    0.1636 H   0  0  0  0  0  0  0  0  0  0  0  0
    6.4736   -2.2697    1.2437 H   0  0  0  0  0  0  0  0  0  0  0  0
    8.3838   -0.8153    1.9516 H   0  0  0  0  0  0  0  0  0  0  0  0
    6.8770    0.0599    1.7391 H   0  0  0  0  0  0  0  0  0  0  0  0
    8.5801    1.4197    0.7894 H   0  0  0  0  0  0  0  0  0  0  0  0
    7.9128    1.5294   -1.6324 H   0  0  0  0  0  0  0  0  0  0  0  0
    6.5702    1.4687   -0.5073 H   0  0  0  0  0  0  0  0  0  0  0  0
    6.1365   -0.0138   -2.4125 H   0  0  0  0  0  0  0  0  0  0  0  0
    7.6591   -0.8543   -2.1710 H   0  0  0  0  0  0  0  0  0  0  0  0
    9.5608   -0.9706   -0.8566 H   0  0  0  0  0  0  0  0  0  0  0  0
   10.3711   -0.2336    0.5309 H   0  0  0  0  0  0  0  0  0  0  0  0
   10.1572    0.6915   -0.9594 H   0  0  0  0  0  0  0  0  0  0  0  0
  1  6  2  0  0  0  0
  1  2  1  0  0  0  0
  1 26  1  0  0  0  0
  2  3  2  0  0  0  0
  2 27  1  0  0  0  0
  3  4  1  0  0  0  0
  3 28  1  0  0  0  0
  4  5  2  0  0  0  0
  4 29  1  0  0  0  0
  5 11  1  0  0  0  0
  5  6  1  0  0  0  0
  6  7  1  0  0  0  0
  7  8  2  0  0  0  0
  7 30  1  0  0  0  0
  8  9  1  0  0  0  0
  8 16  1  0  0  0  0
  9 10  2  0  0  0  0
  9 11  1  0  0  0  0
 11 12  1  0  0  0  0
 12 13  1  0  0  0  0
 12 31  1  0  0  0  0
 12 32  1  0  0  0  0
 13 14  1  0  0  0  0
 13 33  1  0  0  0  0
 13 34  1  0  0  0  0
 14 15  1  0  0  0  0
 14 35  1  0  0  0  0
 14 36  1  0  0  0  0
 15 37  1  0  0  0  0
 16 17  2  0  0  0  0
 16 18  1  0  0  0  0
 18 38  1  0  0  0  0
 19 18  1  0  0  0  0
 19 20  1  0  0  0  0
 19 24  1  0  0  0  0
 19 39  1  6  0  0  0
 20 21  1  0  0  0  0
 20 40  1  0  0  0  0
 20 41  1  0  0  0  0
 21 22  1  0  0  0  0
 21 42  1  0  0  0  0
 21 43  1  0  0  0  0
 22 23  1  0  0  0  0
 22 25  1  0  0  0  0
 22 44  1  1  0  0  0
 23 24  1  0  0  0  0
 23 45  1  0  0  0  0
 23 46  1  0  0  0  0
 24 47  1  0  0  0  0
 24 48  1  0  0  0  0
 25 49  1  0  0  0  0
 25 50  1  0  0  0  0
 25 51  1  0  0  0  0
M  END
$$$$
CHEMBL3422792_6PT0
 OpenBabel12022418133D

 53 55  0  0  1  0  0  0  0  0999 V2000
   -1.2831    1.3539    0.0344 C   0  0  0  0  0  0  0  0  0  0  0  0
   -2.4393    0.5810   -0.0546 C   0  0  0  0  0  0  0  0  0  0  0  0
   -2.3016   -0.7872   -0.0767 C   0  0  0  0  0  0  0  0  0  0  0  0
   -1.1082   -1.4060   -0.0128 N   0  0  0  0  0  0  0  0  0  0  0  0
    0.0174   -0.6482    0.0523 C   0  0  0  0  0  0  0  0  0  0  0  0
   -0.0135    0.7506    0.0743 C   0  0  0  0  0  0  0  0  0  0  0  0
    1.2603    1.5022    0.1080 C   0  0  0  0  0  0  0  0  0  0  0  0
    2.4519    0.8673    0.0210 C   0  0  0  0  0  0  0  0  0  0  0  0
    2.4620   -0.6292   -0.0271 C   0  0  0  0  0  0  0  0  0  0  0  0
    3.5390   -1.2279   -0.1470 O   0  0  0  0  0  0  0  0  0  0  0  0
    1.2636   -1.3186    0.0658 N   0  0  0  0  0  0  0  0  0  0  0  0
    1.2713   -2.7826   -0.0190 C   0  0  0  0  0  0  0  0  0  0  0  0
    2.0175   -3.5008    1.1140 C   0  0  0  0  0  0  0  0  0  0  0  0
    1.4683   -3.2309    2.5135 C   0  0  0  0  0  0  0  0  0  0  0  0
    2.2784   -4.0059    3.5461 C   0  0  0  0  0  0  0  0  0  0  0  0
    3.7436    1.6641   -0.0851 C   0  0  0  0  0  0  0  0  0  0  0  0
    3.7792    2.8918   -0.1254 O   0  0  0  0  0  0  0  0  0  0  0  0
    4.9052    0.9226   -0.1939 N   0  0  0  0  0  0  0  0  0  0  0  0
    6.2105    1.5183   -0.4530 C   0  0  2  0  0  0  0  0  0  0  0  0
    7.1103    0.5643   -1.2514 C   0  0  0  0  0  0  0  0  0  0  0  0
    7.7181   -0.5592   -0.4131 C   0  0  0  0  0  0  0  0  0  0  0  0
    8.4328   -0.0286    0.8338 C   0  0  1  0  0  0  0  0  0  0  0  0
    7.5045    0.8665    1.6625 C   0  0  0  0  0  0  0  0  0  0  0  0
    6.8911    1.9961    0.8354 C   0  0  0  0  0  0  0  0  0  0  0  0
    8.9614   -1.1859    1.6829 C   0  0  0  0  0  0  0  0  0  0  0  0
    1.1846    2.8780    0.2224 O   0  0  0  0  0  0  0  0  0  0  0  0
   -1.4212    2.4290    0.0599 H   0  0  0  0  0  0  0  0  0  0  0  0
   -3.4214    1.0386   -0.1085 H   0  0  0  0  0  0  0  0  0  0  0  0
   -3.1643   -1.4442   -0.1513 H   0  0  0  0  0  0  0  0  0  0  0  0
    1.7620   -3.0400   -0.9666 H   0  0  0  0  0  0  0  0  0  0  0  0
    0.2624   -3.2002   -0.0774 H   0  0  0  0  0  0  0  0  0  0  0  0
    3.0822   -3.2459    1.0927 H   0  0  0  0  0  0  0  0  0  0  0  0
    1.9624   -4.5791    0.9160 H   0  0  0  0  0  0  0  0  0  0  0  0
    0.4167   -3.5321    2.5746 H   0  0  0  0  0  0  0  0  0  0  0  0
    1.5194   -2.1620    2.7485 H   0  0  0  0  0  0  0  0  0  0  0  0
    2.2187   -5.0836    3.3595 H   0  0  0  0  0  0  0  0  0  0  0  0
    1.9072   -3.8138    4.5568 H   0  0  0  0  0  0  0  0  0  0  0  0
    3.3340   -3.7149    3.5103 H   0  0  0  0  0  0  0  0  0  0  0  0
    4.8325   -0.0951   -0.1465 H   0  0  0  0  0  0  0  0  0  0  0  0
    6.0281    2.4001   -1.0802 H   0  0  0  0  0  0  0  0  0  0  0  0
    7.9306    1.1461   -1.6923 H   0  0  0  0  0  0  0  0  0  0  0  0
    6.5520    0.1270   -2.0885 H   0  0  0  0  0  0  0  0  0  0  0  0
    8.4325   -1.1158   -1.0334 H   0  0  0  0  0  0  0  0  0  0  0  0
    6.9344   -1.2704   -0.1252 H   0  0  0  0  0  0  0  0  0  0  0  0
    9.2944    0.5708    0.5099 H   0  0  0  0  0  0  0  0  0  0  0  0
    8.0716    1.3071    2.4925 H   0  0  0  0  0  0  0  0  0  0  0  0
    6.7046    0.2657    2.1121 H   0  0  0  0  0  0  0  0  0  0  0  0
    6.1841    2.5547    1.4598 H   0  0  0  0  0  0  0  0  0  0  0  0
    7.6914    2.6969    0.5649 H   0  0  0  0  0  0  0  0  0  0  0  0
    8.1448   -1.8240    2.0381 H   0  0  0  0  0  0  0  0  0  0  0  0
    9.5025   -0.8118    2.5584 H   0  0  0  0  0  0  0  0  0  0  0  0
    9.6508   -1.8109    1.1053 H   0  0  0  0  0  0  0  0  0  0  0  0
    0.3223    3.2255   -0.0383 H   0  0  0  0  0  0  0  0  0  0  0  0
  1  6  2  0  0  0  0
  1  2  1  0  0  0  0
  1 27  1  0  0  0  0
  2  3  2  0  0  0  0
  2 28  1  0  0  0  0
  3  4  1  0  0  0  0
  3 29  1  0  0  0  0
  4  5  2  0  0  0  0
  5 11  1  0  0  0  0
  5  6  1  0  0  0  0
  6  7  1  0  0  0  0
  7  8  2  0  0  0  0
  7 26  1  0  0  0  0
  8  9  1  0  0  0  0
  8 16  1  0  0  0  0
  9 10  2  0  0  0  0
  9 11  1  0  0  0  0
 11 12  1  0  0  0  0
 12 13  1  0  0  0  0
 12 30  1  0  0  0  0
 12 31  1  0  0  0  0
 13 14  1  0  0  0  0
 13 32  1  0  0  0  0
 13 33  1  0  0  0  0
 14 15  1  0  0  0  0
 14 34  1  0  0  0  0
 14 35  1  0  0  0  0
 15 36  1  0  0  0  0
 15 37  1  0  0  0  0
 15 38  1  0  0  0  0
 16 17  2  0  0  0  0
 16 18  1  0  0  0  0
 18 39  1  0  0  0  0
 19 18  1  0  0  0  0
 19 20  1  0  0  0  0
 19 24  1  0  0  0  0
 19 40  1  6  0  0  0
 20 21  1  0  0  0  0
 20 41  1  0  0  0  0
 20 42  1  0  0  0  0
 21 22  1  0  0  0  0
 21 43  1  0  0  0  0
 21 44  1  0  0  0  0
 22 23  1  0  0  0  0
 22 25  1  0  0  0  0
 22 45  1  6  0  0  0
 23 24  1  0  0  0  0
 23 46  1  0  0  0  0
 23 47  1  0  0  0  0
 24 48  1  0  0  0  0
 24 49  1  0  0  0  0
 25 50  1  0  0  0  0
 25 51  1  0  0  0  0
 25 52  1  0  0  0  0
 26 53  1  0  0  0  0
M  END
$$$$
CHEMBL3234680_5ZTY
 OpenBabel12022418133D

 57 62  0  0  1  0  0  0  0  0999 V2000
    1.5769    0.4298   -0.7363 O   0  0  0  0  0  0  0  0  0  0  0  0
    2.6217    0.1474   -0.1519 C   0  0  0  0  0  0  0  0  0  0  0  0
    2.9981    0.8345    1.0946 C   0  0  0  0  0  0  0  0  0  0  0  0
    2.2162    1.8194    1.7455 C   0  0  0  0  0  0  0  0  0  0  0  0
    2.8112    2.0187    2.9715 C   0  0  0  0  0  0  0  0  0  0  0  0
    2.3297    2.9921    3.9978 C   0  0  0  0  0  0  0  0  0  0  0  0
    0.8990    3.4675    3.6572 C   0  0  0  0  0  0  0  0  0  0  0  0
    0.7143    3.7603    2.1608 C   0  0  0  0  0  0  0  0  0  0  0  0
    0.9662    2.5045    1.3111 C   0  0  0  0  0  0  0  0  0  0  0  0
    3.9606    1.2551    2.9723 N   0  0  0  0  0  0  0  0  0  0  0  0
    4.8907    1.0555    4.0236 C   0  0  0  0  0  0  0  0  0  0  0  0
    4.4467    0.8810    5.3378 C   0  0  0  0  0  0  0  0  0  0  0  0
    5.3671    0.6261    6.3570 C   0  0  0  0  0  0  0  0  0  0  0  0
    6.7343    0.5668    6.0738 C   0  0  0  0  0  0  0  0  0  0  0  0
    7.1814    0.7495    4.7592 C   0  0  0  0  0  0  0  0  0  0  0  0
    6.2588    0.9702    3.7291 C   0  0  0  0  0  0  0  0  0  0  0  0
    8.8599    0.7214    4.3477 Cl  0  0  0  0  0  0  0  0  0  0  0  0
    7.8081    0.2418    7.3877 Cl  0  0  0  0  0  0  0  0  0  0  0  0
    4.1233    0.5799    1.7941 N   0  0  0  0  0  0  0  0  0  0  0  0
    3.4673   -0.8636   -0.5776 N   0  0  0  0  0  0  0  0  0  0  0  0
    3.0979   -1.8037   -1.6474 C   0  0  1  0  0  0  0  0  0  0  0  0
    1.8889   -2.6792   -1.2165 C   0  0  0  0  0  0  0  0  0  0  0  0
    1.4839   -3.6475   -2.3408 C   0  0  2  0  0  0  0  0  0  0  0  0
    2.6603   -4.5835   -2.6572 C   0  0  0  0  0  0  0  0  0  0  0  0
    3.8846   -3.7580   -3.0864 C   0  0  1  0  0  0  0  0  0  0  0  0
    3.5241   -2.9735   -4.3583 C   0  0  0  0  0  0  0  0  0  0  0  0
    2.3485   -2.0312   -4.0721 C   0  0  1  0  0  0  0  0  0  0  0  0
    1.1278   -2.8384   -3.5982 C   0  0  0  0  0  0  0  0  0  0  0  0
    2.7595   -1.0520   -2.9658 C   0  0  0  0  0  0  0  0  0  0  0  0
    4.2699   -2.7724   -1.9591 C   0  0  0  0  0  0  0  0  0  0  0  0
    3.0035    3.8561    4.0228 H   0  0  0  0  0  0  0  0  0  0  0  0
    2.3011    2.5617    5.0003 H   0  0  0  0  0  0  0  0  0  0  0  0
    0.6604    4.3605    4.2453 H   0  0  0  0  0  0  0  0  0  0  0  0
    0.1798    2.6915    3.9524 H   0  0  0  0  0  0  0  0  0  0  0  0
    1.4111    4.5545    1.8625 H   0  0  0  0  0  0  0  0  0  0  0  0
   -0.2981    4.1333    1.9694 H   0  0  0  0  0  0  0  0  0  0  0  0
    0.1236    1.8115    1.4191 H   0  0  0  0  0  0  0  0  0  0  0  0
    1.0280    2.7955    0.2567 H   0  0  0  0  0  0  0  0  0  0  0  0
    3.3887    0.8545    5.5823 H   0  0  0  0  0  0  0  0  0  0  0  0
    5.0073    0.4518    7.3690 H   0  0  0  0  0  0  0  0  0  0  0  0
    6.6108    1.1106    2.7083 H   0  0  0  0  0  0  0  0  0  0  0  0
    4.2255   -1.0834    0.0632 H   0  0  0  0  0  0  0  0  0  0  0  0
    1.0260   -2.0580   -0.9510 H   0  0  0  0  0  0  0  0  0  0  0  0
    2.1435   -3.2485   -0.3118 H   0  0  0  0  0  0  0  0  0  0  0  0
    0.6174   -4.2385   -2.0236 H   0  0  0  0  0  0  0  0  0  0  0  0
    2.3764   -5.2784   -3.4582 H   0  0  0  0  0  0  0  0  0  0  0  0
    2.9051   -5.1941   -1.7801 H   0  0  0  0  0  0  0  0  0  0  0  0
    4.7249   -4.4291   -3.2963 H   0  0  0  0  0  0  0  0  0  0  0  0
    3.2585   -3.6640   -5.1684 H   0  0  0  0  0  0  0  0  0  0  0  0
    4.3915   -2.3975   -4.7024 H   0  0  0  0  0  0  0  0  0  0  0  0
    2.0903   -1.4726   -4.9788 H   0  0  0  0  0  0  0  0  0  0  0  0
    0.2917   -2.1615   -3.3800 H   0  0  0  0  0  0  0  0  0  0  0  0
    0.7913   -3.5118   -4.3953 H   0  0  0  0  0  0  0  0  0  0  0  0
    3.6257   -0.4589   -3.2876 H   0  0  0  0  0  0  0  0  0  0  0  0
    1.9395   -0.3406   -2.8340 H   0  0  0  0  0  0  0  0  0  0  0  0
    4.5451   -3.3373   -1.0584 H   0  0  0  0  0  0  0  0  0  0  0  0
    5.1626   -2.2054   -2.2520 H   0  0  0  0  0  0  0  0  0  0  0  0
  1  2  2  0  0  0  0
  2  3  1  0  0  0  0
  2 20  1  0  0  0  0
  3 19  2  0  0  0  0
  3  4  1  0  0  0  0
  4  9  1  0  0  0  0
  4  5  2  0  0  0  0
  5  6  1  0  0  0  0
  5 10  1  0  0  0  0
  6  7  1  0  0  0  0
  6 31  1  0  0  0  0
  6 32  1  0  0  0  0
  7  8  1  0  0  0  0
  7 33  1  0  0  0  0
  7 34  1  0  0  0  0
  8  9  1  0  0  0  0
  8 35  1  0  0  0  0
  8 36  1  0  0  0  0
  9 37  1  0  0  0  0
  9 38  1  0  0  0  0
 10 11  1  0  0  0  0
 10 19  1  0  0  0  0
 11 16  2  0  0  0  0
 11 12  1  0  0  0  0
 12 13  2  0  0  0  0
 12 39  1  0  0  0  0
 13 14  1  0  0  0  0
 13 40  1  0  0  0  0
 14 15  2  0  0  0  0
 14 18  1  0  0  0  0
 15 16  1  0  0  0  0
 15 17  1  0  0  0  0
 16 41  1  0  0  0  0
 20 42  1  0  0  0  0
 21 20  1  1  0  0  0
 21 29  1  0  0  0  0
 21 30  1  0  0  0  0
 21 22  1  0  0  0  0
 22 43  1  0  0  0  0
 22 44  1  0  0  0  0
 23 22  1  0  0  0  0
 23 24  1  0  0  0  0
 23 28  1  0  0  0  0
 23 45  1  1  0  0  0
 24 46  1  0  0  0  0
 24 47  1  0  0  0  0
 25 24  1  0  0  0  0
 25 26  1  0  0  0  0
 25 30  1  0  0  0  0
 25 48  1  6  0  0  0
 26 49  1  0  0  0  0
 26 50  1  0  0  0  0
 27 26  1  0  0  0  0
 27 28  1  0  0  0  0
 27 29  1  0  0  0  0
 27 51  1  6  0  0  0
 28 52  1  0  0  0  0
 28 53  1  0  0  0  0
 29 54  1  0  0  0  0
 29 55  1  0  0  0  0
 30 56  1  0  0  0  0
 30 57  1  0  0  0  0
M  END
$$$$
CHEMBL3397449_5ZTY
 OpenBabel12022418133D

 52 54  0  0  1  0  0  0  0  0999 V2000
    1.5334   -0.2663   -0.0616 C   0  0  0  0  0  0  0  0  0  0  0  0
    0.9031   -0.0717   -1.2860 C   0  0  0  0  0  0  0  0  0  0  0  0
   -0.4701    0.1858   -1.3317 C   0  0  0  0  0  0  0  0  0  0  0  0
   -1.2511    0.2734   -0.1608 C   0  0  0  0  0  0  0  0  0  0  0  0
   -0.5850    0.0741    1.0623 C   0  0  0  0  0  0  0  0  0  0  0  0
    0.7877   -0.1959    1.1088 C   0  0  0  0  0  0  0  0  0  0  0  0
   -2.7020    0.5818   -0.2263 C   0  0  0  0  0  0  0  0  0  0  0  0
   -3.2090    1.4509   -1.1873 C   0  0  0  0  0  0  0  0  0  0  0  0
   -4.5773    1.7386   -1.2632 C   0  0  0  0  0  0  0  0  0  0  0  0
   -5.5339    1.1518   -0.3705 C   0  0  0  0  0  0  0  0  0  0  0  0
   -5.0641    0.2685    0.6268 C   0  0  0  0  0  0  0  0  0  0  0  0
   -3.6498    0.0237    0.6586 C   0  0  0  0  0  0  0  0  0  0  0  0
   -5.7689   -0.5424    1.7152 C   0  0  0  0  0  0  0  0  0  0  0  0
   -5.1072   -1.1613    2.5472 O   0  0  0  0  0  0  0  0  0  0  0  0
   -7.1369   -0.6054    1.7694 N   0  0  0  0  0  0  0  0  0  0  0  0
   -7.9044   -1.3069    2.7935 C   0  0  2  0  0  0  0  0  0  0  0  0
   -9.2996   -1.6827    2.2744 C   0  0  0  0  0  0  0  0  0  0  0  0
  -10.3058   -0.5297    2.1987 C   0  0  0  0  0  0  0  0  0  0  0  0
  -10.3333    0.3993    3.4193 C   0  0  2  0  0  0  0  0  0  0  0  0
   -8.9338    0.7256    3.9558 C   0  0  0  0  0  0  0  0  0  0  0  0
   -8.0058   -0.4836    4.0801 C   0  0  0  0  0  0  0  0  0  0  0  0
  -11.2437   -0.1513    4.5195 C   0  0  0  0  0  0  0  0  0  0  0  0
   -6.7460    1.6455   -0.7384 O   0  0  0  0  0  0  0  0  0  0  0  0
   -8.0287    1.4157   -0.2363 C   0  0  0  0  0  0  0  0  0  0  0  0
   -5.0190    2.7335   -2.3202 C   0  0  0  0  0  0  0  0  0  0  0  0
    2.5995   -0.4681   -0.0243 H   0  0  0  0  0  0  0  0  0  0  0  0
    1.4764   -0.1244   -2.2093 H   0  0  0  0  0  0  0  0  0  0  0  0
   -0.9291    0.3098   -2.3106 H   0  0  0  0  0  0  0  0  0  0  0  0
   -1.1260    0.1448    2.0022 H   0  0  0  0  0  0  0  0  0  0  0  0
    1.2790   -0.3484    2.0699 H   0  0  0  0  0  0  0  0  0  0  0  0
   -2.5308    1.9321   -1.8900 H   0  0  0  0  0  0  0  0  0  0  0  0
   -3.2562   -0.6586    1.4174 H   0  0  0  0  0  0  0  0  0  0  0  0
   -7.6377    0.1192    1.3197 H   0  0  0  0  0  0  0  0  0  0  0  0
   -7.3570   -2.2340    3.0143 H   0  0  0  0  0  0  0  0  0  0  0  0
   -9.7173   -2.4537    2.9337 H   0  0  0  0  0  0  0  0  0  0  0  0
   -9.2202   -2.1391    1.2787 H   0  0  0  0  0  0  0  0  0  0  0  0
  -11.3073   -0.9511    2.0330 H   0  0  0  0  0  0  0  0  0  0  0  0
  -10.0958    0.0709    1.3074 H   0  0  0  0  0  0  0  0  0  0  0  0
  -10.7908    1.3469    3.1000 H   0  0  0  0  0  0  0  0  0  0  0  0
   -9.0170    1.2068    4.9384 H   0  0  0  0  0  0  0  0  0  0  0  0
   -8.4670    1.4681    3.2967 H   0  0  0  0  0  0  0  0  0  0  0  0
   -7.0124   -0.1342    4.3857 H   0  0  0  0  0  0  0  0  0  0  0  0
   -8.3719   -1.1316    4.8864 H   0  0  0  0  0  0  0  0  0  0  0  0
  -10.8829   -1.1069    4.9095 H   0  0  0  0  0  0  0  0  0  0  0  0
  -12.2611   -0.2991    4.1396 H   0  0  0  0  0  0  0  0  0  0  0  0
  -11.3119    0.5574    5.3525 H   0  0  0  0  0  0  0  0  0  0  0  0
   -8.7349    2.0140   -0.8197 H   0  0  0  0  0  0  0  0  0  0  0  0
   -8.1111    1.7787    0.7917 H   0  0  0  0  0  0  0  0  0  0  0  0
   -8.3240    0.3733   -0.3847 H   0  0  0  0  0  0  0  0  0  0  0  0
   -4.1886    3.0424   -2.9635 H   0  0  0  0  0  0  0  0  0  0  0  0
   -5.4166    3.6327   -1.8376 H   0  0  0  0  0  0  0  0  0  0  0  0
   -5.7841    2.2934   -2.9686 H   0  0  0  0  0  0  0  0  0  0  0  0
  1  6  2  0  0  0  0
  1  2  1  0  0  0  0
  1 26  1  0  0  0  0
  2  3  2  0  0  0  0
  2 27  1  0  0  0  0
  3  4  1  0  0  0  0
  3 28  1  0  0  0  0
  4  5  2  0  0  0  0
  4  7  1  0  0  0  0
  5  6  1  0  0  0  0
  5 29  1  0  0  0  0
  6 30  1  0  0  0  0
  7 12  2  0  0  0  0
  7  8  1  0  0  0  0
  8  9  2  0  0  0  0
  8 31  1  0  0  0  0
  9 10  1  0  0  0  0
  9 25  1  0  0  0  0
 10 11  2  0  0  0  0
 10 23  1  0  0  0  0
 11 12  1  0  0  0  0
 11 13  1  0  0  0  0
 12 32  1  0  0  0  0
 13 14  2  0  0  0  0
 13 15  1  0  0  0  0
 15 33  1  0  0  0  0
 16 15  1  0  0  0  0
 16 17  1  0  0  0  0
 16 21  1  0  0  0  0
 16 34  1  1  0  0  0
 17 18  1  0  0  0  0
 17 35  1  0  0  0  0
 17 36  1  0  0  0  0
 18 19  1  0  0  0  0
 18 37  1  0  0  0  0
 18 38  1  0  0  0  0
 19 20  1  0  0  0  0
 19 22  1  0  0  0  0
 19 39  1  6  0  0  0
 20 21  1  0  0  0  0
 20 40  1  0  0  0  0
 20 41  1  0  0  0  0
 21 42  1  0  0  0  0
 21 43  1  0  0  0  0
 22 44  1  0  0  0  0
 22 45  1  0  0  0  0
 22 46  1  0  0  0  0
 23 24  1  0  0  0  0
 24 47  1  0  0  0  0
 24 48  1  0  0  0  0
 24 49  1  0  0  0  0
 25 50  1  0  0  0  0
 25 51  1  0  0  0  0
 25 52  1  0  0  0  0
M  END
$$$$
CHEMBL3234679_5ZTY
 OpenBabel12022418133D

 60 62  0  0  1  0  0  0  0  0999 V2000
   10.7143    0.3247   -0.9887 C   0  0  0  0  0  0  0  0  0  0  0  0
    9.4440    0.9356   -0.7106 N   0  0  0  0  0  0  0  0  0  0  0  0
    8.2735    0.2003   -0.6911 C   0  0  0  0  0  0  0  0  0  0  0  0
    8.2624   -1.0093   -0.9182 O   0  0  0  0  0  0  0  0  0  0  0  0
    6.9763    1.0468   -0.5972 C   0  0  2  0  0  0  0  0  0  0  0  0
    6.3506    1.3157   -2.0085 C   0  0  0  0  0  0  0  0  0  0  0  0
    7.2658    2.1564   -2.9191 C   0  0  0  0  0  0  0  0  0  0  0  0
    6.0701   -0.0283   -2.7148 C   0  0  0  0  0  0  0  0  0  0  0  0
    4.9994    2.0550   -1.8898 C   0  0  0  0  0  0  0  0  0  0  0  0
    7.2317    2.2748    0.1588 N   0  0  0  0  0  0  0  0  0  0  0  0
    6.6624    2.4878    1.3833 C   0  0  0  0  0  0  0  0  0  0  0  0
    5.8589    1.6865    1.8941 O   0  0  0  0  0  0  0  0  0  0  0  0
    7.0374    3.7380    2.0293 C   0  0  0  0  0  0  0  0  0  0  0  0
    6.5904    4.2287    3.2424 C   0  0  0  0  0  0  0  0  0  0  0  0
    5.6148    3.6286    4.2057 C   0  0  0  0  0  0  0  0  0  0  0  0
    6.0407    3.8270    5.5922 N   0  0  0  0  0  0  0  0  0  0  0  0
    5.5582    2.7323    6.4396 C   0  0  0  0  0  0  0  0  0  0  0  0
    5.6276    5.1192    6.1528 C   0  0  0  0  0  0  0  0  0  0  0  0
    5.7182    6.3075    5.1975 C   0  0  0  0  0  0  0  0  0  0  0  0
    7.0630    6.3753    4.4935 C   0  0  0  0  0  0  0  0  0  0  0  0
    7.2403    5.4356    3.3984 N   0  0  0  0  0  0  0  0  0  0  0  0
    8.0609    5.6259    2.2925 C   0  0  0  0  0  0  0  0  0  0  0  0
    8.9153    6.7969    2.0519 C   0  0  0  0  0  0  0  0  0  0  0  0
    9.2094    7.2253    0.7493 C   0  0  0  0  0  0  0  0  0  0  0  0
   10.0282    8.3407    0.5424 C   0  0  0  0  0  0  0  0  0  0  0  0
   10.5492    9.0384    1.6283 C   0  0  0  0  0  0  0  0  0  0  0  0
   10.2459    8.6372    2.9247 C   0  0  0  0  0  0  0  0  0  0  0  0
    9.4506    7.5169    3.1229 C   0  0  0  0  0  0  0  0  0  0  0  0
    7.9396    4.6142    1.4508 N   0  0  0  0  0  0  0  0  0  0  0  0
   11.4455    1.1150   -1.1762 H   0  0  0  0  0  0  0  0  0  0  0  0
   10.6258   -0.3128   -1.8723 H   0  0  0  0  0  0  0  0  0  0  0  0
   11.0227   -0.2783   -0.1312 H   0  0  0  0  0  0  0  0  0  0  0  0
    9.4153    1.8947   -0.3920 H   0  0  0  0  0  0  0  0  0  0  0  0
    6.2716    0.4508   -0.0035 H   0  0  0  0  0  0  0  0  0  0  0  0
    6.7651    2.3967   -3.8648 H   0  0  0  0  0  0  0  0  0  0  0  0
    8.1836    1.6190   -3.1803 H   0  0  0  0  0  0  0  0  0  0  0  0
    7.5417    3.1058   -2.4491 H   0  0  0  0  0  0  0  0  0  0  0  0
    5.6587    0.1270   -3.7169 H   0  0  0  0  0  0  0  0  0  0  0  0
    5.3570   -0.6342   -2.1462 H   0  0  0  0  0  0  0  0  0  0  0  0
    6.9820   -0.6188   -2.8457 H   0  0  0  0  0  0  0  0  0  0  0  0
    4.5449    2.1923   -2.8797 H   0  0  0  0  0  0  0  0  0  0  0  0
    5.1136    3.0536   -1.4528 H   0  0  0  0  0  0  0  0  0  0  0  0
    4.2870    1.4927   -1.2777 H   0  0  0  0  0  0  0  0  0  0  0  0
    7.7998    3.0266   -0.2252 H   0  0  0  0  0  0  0  0  0  0  0  0
    5.5737    2.5547    3.9999 H   0  0  0  0  0  0  0  0  0  0  0  0
    4.5990    4.0035    4.0257 H   0  0  0  0  0  0  0  0  0  0  0  0
    5.9288    1.7663    6.0766 H   0  0  0  0  0  0  0  0  0  0  0  0
    4.4626    2.6879    6.4714 H   0  0  0  0  0  0  0  0  0  0  0  0
    5.9313    2.8426    7.4633 H   0  0  0  0  0  0  0  0  0  0  0  0
    6.2679    5.3238    7.0202 H   0  0  0  0  0  0  0  0  0  0  0  0
    4.5967    5.0772    6.5236 H   0  0  0  0  0  0  0  0  0  0  0  0
    5.5723    7.2276    5.7755 H   0  0  0  0  0  0  0  0  0  0  0  0
    4.9126    6.2773    4.4579 H   0  0  0  0  0  0  0  0  0  0  0  0
    7.8815    6.2125    5.2022 H   0  0  0  0  0  0  0  0  0  0  0  0
    7.1427    7.3818    4.0736 H   0  0  0  0  0  0  0  0  0  0  0  0
    8.7863    6.7107   -0.1102 H   0  0  0  0  0  0  0  0  0  0  0  0
   10.2509    8.6741   -0.4689 H   0  0  0  0  0  0  0  0  0  0  0  0
   11.1859    9.9018    1.4729 H   0  0  0  0  0  0  0  0  0  0  0  0
   10.6283    9.1832    3.7801 H   0  0  0  0  0  0  0  0  0  0  0  0
    9.2367    7.2375    4.1396 H   0  0  0  0  0  0  0  0  0  0  0  0
  1  2  1  0  0  0  0
  1 30  1  0  0  0  0
  1 31  1  0  0  0  0
  1 32  1  0  0  0  0
  2  3  1  0  0  0  0
  2 33  1  0  0  0  0
  3  4  2  0  0  0  0
  5 10  1  0  0  0  0
  5  6  1  0  0  0  0
  5  3  1  0  0  0  0
  5 34  1  1  0  0  0
  6  7  1  0  0  0  0
  6  8  1  0  0  0  0
  6  9  1  0  0  0  0
  7 35  1  0  0  0  0
  7 36  1  0  0  0  0
  7 37  1  0  0  0  0
  8 38  1  0  0  0  0
  8 39  1  0  0  0  0
  8 40  1  0  0  0  0
  9 41  1  0  0  0  0
  9 42  1  0  0  0  0
  9 43  1  0  0  0  0
 10 11  1  0  0  0  0
 10 44  1  0  0  0  0
 11 12  2  0  0  0  0
 11 13  1  0  0  0  0
 13 29  1  0  0  0  0
 13 14  2  0  0  0  0
 14 21  1  0  0  0  0
 14 15  1  0  0  0  0
 15 16  1  0  0  0  0
 15 45  1  0  0  0  0
 15 46  1  0  0  0  0
 16 17  1  0  0  0  0
 16 18  1  0  0  0  0
 17 47  1  0  0  0  0
 17 48  1  0  0  0  0
 17 49  1  0  0  0  0
 18 19  1  0  0  0  0
 18 50  1  0  0  0  0
 18 51  1  0  0  0  0
 19 20  1  0  0  0  0
 19 52  1  0  0  0  0
 19 53  1  0  0  0  0
 20 21  1  0  0  0  0
 20 54  1  0  0  0  0
 20 55  1  0  0  0  0
 21 22  1  0  0  0  0
 22 23  1  0  0  0  0
 22 29  2  0  0  0  0
 23 28  2  0  0  0  0
 23 24  1  0  0  0  0
 24 25  2  0  0  0  0
 24 56  1  0  0  0  0
 25 26  1  0  0  0  0
 25 57  1  0  0  0  0
 26 27  2  0  0  0  0
 26 58  1  0  0  0  0
 27 28  1  0  0  0  0
 27 59  1  0  0  0  0
 28 60  1  0  0  0  0
M  END
$$$$
CHEMBL3354973_8GUQ
 OpenBabel12022418133D

 44 47  0  0  1  0  0  0  0  0999 V2000
    2.2256    1.2336   -2.0948 C   0  0  0  0  0  0  0  0  0  0  0  0
    3.1053    0.4973   -1.0655 C   0  0  0  0  0  0  0  0  0  0  0  0
    4.2488    1.4554   -0.6718 C   0  0  0  0  0  0  0  0  0  0  0  0
    2.2345    0.1529    0.1784 C   0  0  0  0  0  0  0  0  0  0  0  0
    1.6872    1.3123    0.8045 O   0  0  0  0  0  0  0  0  0  0  0  0
    3.6483   -0.7301   -1.6846 N   0  0  0  0  0  0  0  0  0  0  0  0
    4.4831   -1.6118   -1.0301 C   0  0  0  0  0  0  0  0  0  0  0  0
    4.8741   -1.4314    0.1205 O   0  0  0  0  0  0  0  0  0  0  0  0
    4.8838   -2.8041   -1.7933 C   0  0  0  0  0  0  0  0  0  0  0  0
    5.7795   -3.7833   -1.3447 C   0  0  0  0  0  0  0  0  0  0  0  0
    5.8746   -4.6933   -2.3550 C   0  0  0  0  0  0  0  0  0  0  0  0
    6.9758   -5.6931   -2.0861 C   0  0  1  0  0  0  0  0  0  0  0  0
    7.5754   -5.1751   -0.7531 C   0  0  1  0  0  0  0  0  0  0  0  0
    6.7283   -4.0006   -0.2278 C   0  0  0  0  0  0  0  0  0  0  0  0
    6.9891   -6.5454   -0.8394 C   0  0  0  0  0  0  0  0  0  0  0  0
    5.0990   -4.2662   -3.3904 N   0  0  0  0  0  0  0  0  0  0  0  0
    4.8162   -4.9817   -4.5817 C   0  0  0  0  0  0  0  0  0  0  0  0
    4.7882   -6.3911   -4.5193 C   0  0  0  0  0  0  0  0  0  0  0  0
    4.4400   -7.1456   -5.6426 C   0  0  0  0  0  0  0  0  0  0  0  0
    4.1430   -6.5032   -6.8381 C   0  0  0  0  0  0  0  0  0  0  0  0
    4.2033   -5.1136   -6.9254 C   0  0  0  0  0  0  0  0  0  0  0  0
    4.5328   -4.3449   -5.7985 C   0  0  0  0  0  0  0  0  0  0  0  0
    4.7020   -2.6437   -6.0583 Cl  0  0  0  0  0  0  0  0  0  0  0  0
    3.7038   -7.4316   -8.2183 Cl  0  0  0  0  0  0  0  0  0  0  0  0
    4.4613   -3.0930   -3.0522 N   0  0  0  0  0  0  0  0  0  0  0  0
    1.8206    2.1661   -1.6844 H   0  0  0  0  0  0  0  0  0  0  0  0
    1.3800    0.6119   -2.4093 H   0  0  0  0  0  0  0  0  0  0  0  0
    2.7979    1.4898   -2.9937 H   0  0  0  0  0  0  0  0  0  0  0  0
    3.8645    2.4144   -0.3065 H   0  0  0  0  0  0  0  0  0  0  0  0
    4.8981    1.6645   -1.5295 H   0  0  0  0  0  0  0  0  0  0  0  0
    4.8787    1.0399    0.1209 H   0  0  0  0  0  0  0  0  0  0  0  0
    2.7960   -0.3978    0.9392 H   0  0  0  0  0  0  0  0  0  0  0  0
    1.3952   -0.4860   -0.1188 H   0  0  0  0  0  0  0  0  0  0  0  0
    2.3935    1.6985    1.3517 H   0  0  0  0  0  0  0  0  0  0  0  0
    3.3808   -0.9959   -2.6319 H   0  0  0  0  0  0  0  0  0  0  0  0
    7.5616   -6.0632   -2.9159 H   0  0  0  0  0  0  0  0  0  0  0  0
    8.6433   -5.0358   -0.6749 H   0  0  0  0  0  0  0  0  0  0  0  0
    6.2128   -4.2739    0.6978 H   0  0  0  0  0  0  0  0  0  0  0  0
    7.3563   -3.1212   -0.0598 H   0  0  0  0  0  0  0  0  0  0  0  0
    7.6766   -7.3846   -0.8124 H   0  0  0  0  0  0  0  0  0  0  0  0
    6.0458   -6.7492   -0.3453 H   0  0  0  0  0  0  0  0  0  0  0  0
    4.9762   -6.9218   -3.5873 H   0  0  0  0  0  0  0  0  0  0  0  0
    4.3871   -8.2306   -5.5697 H   0  0  0  0  0  0  0  0  0  0  0  0
    4.0039   -4.6268   -7.8771 H   0  0  0  0  0  0  0  0  0  0  0  0
  1  2  1  0  0  0  0
  1 26  1  0  0  0  0
  1 27  1  0  0  0  0
  1 28  1  0  0  0  0
  2  3  1  0  0  0  0
  2  4  1  0  0  0  0
  2  6  1  0  0  0  0
  3 29  1  0  0  0  0
  3 30  1  0  0  0  0
  3 31  1  0  0  0  0
  4  5  1  0  0  0  0
  4 32  1  0  0  0  0
  4 33  1  0  0  0  0
  5 34  1  0  0  0  0
  6  7  1  0  0  0  0
  6 35  1  0  0  0  0
  7  8  2  0  0  0  0
  7  9  1  0  0  0  0
  9 25  2  0  0  0  0
  9 10  1  0  0  0  0
 10 14  1  0  0  0  0
 10 11  2  0  0  0  0
 11 12  1  0  0  0  0
 11 16  1  0  0  0  0
 12 13  1  0  0  0  0
 12 15  1  0  0  0  0
 12 36  1  6  0  0  0
 13 14  1  0  0  0  0
 13 15  1  0  0  0  0
 13 37  1  1  0  0  0
 14 38  1  0  0  0  0
 14 39  1  0  0  0  0
 15 40  1  0  0  0  0
 15 41  1  0  0  0  0
 16 17  1  0  0  0  0
 16 25  1  0  0  0  0
 17 22  2  0  0  0  0
 17 18  1  0  0  0  0
 18 19  2  0  0  0  0
 18 42  1  0  0  0  0
 19 20  1  0  0  0  0
 19 43  1  0  0  0  0
 20 21  2  0  0  0  0
 20 24  1  0  0  0  0
 21 22  1  0  0  0  0
 21 44  1  0  0  0  0
 22 23  1  0  0  0  0
M  END
$$$$
CHEMBL3354941_8GUQ
 OpenBabel12022418133D

 53 57  0  0  1  0  0  0  0  0999 V2000
    4.2324    1.4955    0.5319 C   0  0  0  0  0  0  0  0  0  0  0  0
    3.0950    0.9298   -0.3567 C   0  0  0  0  0  0  0  0  0  0  0  0
    2.5000   -0.2968    0.3805 C   0  0  0  0  0  0  0  0  0  0  0  0
    2.0391    2.0449   -0.5584 C   0  0  0  0  0  0  0  0  0  0  0  0
    0.6907    1.8928   -0.1794 C   0  0  0  0  0  0  0  0  0  0  0  0
   -0.2374    2.9270   -0.3391 C   0  0  0  0  0  0  0  0  0  0  0  0
    0.1588    4.1423   -0.8831 C   0  0  0  0  0  0  0  0  0  0  0  0
    1.4835    4.3234   -1.2676 C   0  0  0  0  0  0  0  0  0  0  0  0
    2.4111    3.2864   -1.1125 C   0  0  0  0  0  0  0  0  0  0  0  0
    3.6208    0.5122   -1.6720 N   0  0  0  0  0  0  0  0  0  0  0  0
    4.5932   -0.4520   -1.8286 C   0  0  0  0  0  0  0  0  0  0  0  0
    5.1116   -1.0426   -0.8840 O   0  0  0  0  0  0  0  0  0  0  0  0
    5.0211   -0.7472   -3.2052 C   0  0  0  0  0  0  0  0  0  0  0  0
    6.0416   -1.6576   -3.5363 C   0  0  0  0  0  0  0  0  0  0  0  0
    6.2270   -1.5470   -4.8812 C   0  0  0  0  0  0  0  0  0  0  0  0
    7.4511   -2.3012   -5.3322 C   0  0  1  0  0  0  0  0  0  0  0  0
    8.0159   -2.8442   -3.9919 C   0  0  1  0  0  0  0  0  0  0  0  0
    7.0472   -2.4991   -2.8461 C   0  0  0  0  0  0  0  0  0  0  0  0
    7.5988   -3.7823   -5.0768 C   0  0  0  0  0  0  0  0  0  0  0  0
    5.3472   -0.6294   -5.3364 N   0  0  0  0  0  0  0  0  0  0  0  0
    5.1315   -0.2635   -6.7305 C   0  0  0  0  0  0  0  0  0  0  0  0
    6.0313    0.8691   -7.1627 C   0  0  0  0  0  0  0  0  0  0  0  0
    5.9300    2.1253   -6.5427 C   0  0  0  0  0  0  0  0  0  0  0  0
    6.7779    3.1686   -6.9122 C   0  0  0  0  0  0  0  0  0  0  0  0
    7.7199    2.9641   -7.9116 C   0  0  0  0  0  0  0  0  0  0  0  0
    7.8206    1.7388   -8.5595 C   0  0  0  0  0  0  0  0  0  0  0  0
    6.9750    0.6904   -8.1891 C   0  0  0  0  0  0  0  0  0  0  0  0
    8.5454    3.9618   -8.2539 F   0  0  0  0  0  0  0  0  0  0  0  0
    4.5433   -0.1458   -4.3280 N   0  0  0  0  0  0  0  0  0  0  0  0
    3.8399    1.8851    1.4783 H   0  0  0  0  0  0  0  0  0  0  0  0
    4.7785    2.3067    0.0371 H   0  0  0  0  0  0  0  0  0  0  0  0
    4.9764    0.7325    0.7854 H   0  0  0  0  0  0  0  0  0  0  0  0
    2.0970   -0.0188    1.3621 H   0  0  0  0  0  0  0  0  0  0  0  0
    3.2425   -1.0776    0.5681 H   0  0  0  0  0  0  0  0  0  0  0  0
    1.6995   -0.7640   -0.2052 H   0  0  0  0  0  0  0  0  0  0  0  0
    0.3236    0.9702    0.2617 H   0  0  0  0  0  0  0  0  0  0  0  0
   -1.2697    2.7783   -0.0315 H   0  0  0  0  0  0  0  0  0  0  0  0
   -0.5632    4.9453   -1.0047 H   0  0  0  0  0  0  0  0  0  0  0  0
    1.7984    5.2762   -1.6855 H   0  0  0  0  0  0  0  0  0  0  0  0
    3.4391    3.4663   -1.4207 H   0  0  0  0  0  0  0  0  0  0  0  0
    3.2534    0.9229   -2.5238 H   0  0  0  0  0  0  0  0  0  0  0  0
    8.0591   -1.8937   -6.1268 H   0  0  0  0  0  0  0  0  0  0  0  0
    9.0605   -2.7111   -3.7562 H   0  0  0  0  0  0  0  0  0  0  0  0
    6.5961   -3.4045   -2.4284 H   0  0  0  0  0  0  0  0  0  0  0  0
    7.5644   -1.9432   -2.0594 H   0  0  0  0  0  0  0  0  0  0  0  0
    8.3836   -4.3089   -5.6096 H   0  0  0  0  0  0  0  0  0  0  0  0
    6.6962   -4.3702   -4.9518 H   0  0  0  0  0  0  0  0  0  0  0  0
    4.0770    0.0013   -6.8607 H   0  0  0  0  0  0  0  0  0  0  0  0
    5.3208   -1.1647   -7.3282 H   0  0  0  0  0  0  0  0  0  0  0  0
    5.1956    2.2892   -5.7549 H   0  0  0  0  0  0  0  0  0  0  0  0
    6.7127    4.1338   -6.4209 H   0  0  0  0  0  0  0  0  0  0  0  0
    8.5600    1.6081   -9.3435 H   0  0  0  0  0  0  0  0  0  0  0  0
    7.0655   -0.2642   -8.7039 H   0  0  0  0  0  0  0  0  0  0  0  0
  1  2  1  0  0  0  0
  1 30  1  0  0  0  0
  1 31  1  0  0  0  0
  1 32  1  0  0  0  0
  2  3  1  0  0  0  0
  2  4  1  0  0  0  0
  2 10  1  0  0  0  0
  3 33  1  0  0  0  0
  3 34  1  0  0  0  0
  3 35  1  0  0  0  0
  4  9  2  0  0  0  0
  4  5  1  0  0  0  0
  5  6  2  0  0  0  0
  5 36  1  0  0  0  0
  6  7  1  0  0  0  0
  6 37  1  0  0  0  0
  7  8  2  0  0  0  0
  7 38  1  0  0  0  0
  8  9  1  0  0  0  0
  8 39  1  0  0  0  0
  9 40  1  0  0  0  0
 10 11  1  0  0  0  0
 10 41  1  0  0  0  0
 11 12  2  0  0  0  0
 11 13  1  0  0  0  0
 13 29  2  0  0  0  0
 13 14  1  0  0  0  0
 14 18  1  0  0  0  0
 14 15  2  0  0  0  0
 15 16  1  0  0  0  0
 15 20  1  0  0  0  0
 16 17  1  0  0  0  0
 16 19  1  0  0  0  0
 16 42  1  6  0  0  0
 17 18  1  0  0  0  0
 17 19  1  0  0  0  0
 17 43  1  1  0  0  0
 18 44  1  0  0  0  0
 18 45  1  0  0  0  0
 19 46  1  0  0  0  0
 19 47  1  0  0  0  0
 20 21  1  0  0  0  0
 20 29  1  0  0  0  0
 21 22  1  0  0  0  0
 21 48  1  0  0  0  0
 21 49  1  0  0  0  0
 22 27  2  0  0  0  0
 22 23  1  0  0  0  0
 23 24  2  0  0  0  0
 23 50  1  0  0  0  0
 24 25  1  0  0  0  0
 24 51  1  0  0  0  0
 25 26  2  0  0  0  0
 25 28  1  0  0  0  0
 26 27  1  0  0  0  0
 26 52  1  0  0  0  0
 27 53  1  0  0  0  0
M  END
$$$$
CHEMBL3354974_8GUQ
 OpenBabel12022418133D

 43 46  0  0  1  0  0  0  0  0999 V2000
    1.8631   -1.2109    1.3264 C   0  0  0  0  0  0  0  0  0  0  0  0
    3.0101   -0.4557    0.6268 C   0  0  0  0  0  0  0  0  0  0  0  0
    4.0920   -1.4910    0.2655 C   0  0  0  0  0  0  0  0  0  0  0  0
    2.4470    0.2152   -0.6599 C   0  0  0  0  0  0  0  0  0  0  0  0
    1.9070   -0.7352   -1.5787 O   0  0  0  0  0  0  0  0  0  0  0  0
    3.5531    0.5558    1.5612 N   0  0  0  0  0  0  0  0  0  0  0  0
    4.5823    1.4230    1.2438 C   0  0  0  0  0  0  0  0  0  0  0  0
    5.1197    1.4384    0.1416 O   0  0  0  0  0  0  0  0  0  0  0  0
    5.0184    2.3230    2.3271 C   0  0  0  0  0  0  0  0  0  0  0  0
    6.1373    3.1671    2.2691 C   0  0  0  0  0  0  0  0  0  0  0  0
    6.2281    3.7485    3.4980 C   0  0  0  0  0  0  0  0  0  0  0  0
    7.5212    4.5107    3.6617 C   0  0  1  0  0  0  0  0  0  0  0  0
    8.2463    4.2097    2.3230 C   0  0  1  0  0  0  0  0  0  0  0  0
    7.2938    3.4437    1.3819 C   0  0  0  0  0  0  0  0  0  0  0  0
    7.9387    5.6138    2.7205 C   0  0  0  0  0  0  0  0  0  0  0  0
    5.1966    3.3021    4.2645 N   0  0  0  0  0  0  0  0  0  0  0  0
    4.8920    3.7329    5.5937 C   0  0  0  0  0  0  0  0  0  0  0  0
    3.7798    3.2126    6.2454 C   0  0  0  0  0  0  0  0  0  0  0  0
    3.4705    3.6918    7.5205 C   0  0  0  0  0  0  0  0  0  0  0  0
    4.2703    4.6707    8.1005 C   0  0  0  0  0  0  0  0  0  0  0  0
    5.3627    5.1289    7.3877 C   0  0  0  0  0  0  0  0  0  0  0  0
    5.6935    4.6816    6.1588 N   0  0  0  0  0  0  0  0  0  0  0  0
    4.4197    2.4009    3.5459 N   0  0  0  0  0  0  0  0  0  0  0  0
    1.4393   -1.9914    0.6789 H   0  0  0  0  0  0  0  0  0  0  0  0
    1.0509   -0.5303    1.6035 H   0  0  0  0  0  0  0  0  0  0  0  0
    2.2101   -1.6992    2.2435 H   0  0  0  0  0  0  0  0  0  0  0  0
    3.6875   -2.2956   -0.3591 H   0  0  0  0  0  0  0  0  0  0  0  0
    4.5104   -1.9540    1.1668 H   0  0  0  0  0  0  0  0  0  0  0  0
    4.9237   -1.0405   -0.2857 H   0  0  0  0  0  0  0  0  0  0  0  0
    3.2038    0.7948   -1.1967 H   0  0  0  0  0  0  0  0  0  0  0  0
    1.6422    0.9115   -0.3980 H   0  0  0  0  0  0  0  0  0  0  0  0
    2.6568   -1.1076   -2.0733 H   0  0  0  0  0  0  0  0  0  0  0  0
    3.2198    0.6070    2.5199 H   0  0  0  0  0  0  0  0  0  0  0  0
    7.9917    4.5323    4.6350 H   0  0  0  0  0  0  0  0  0  0  0  0
    9.2574    3.8339    2.3510 H   0  0  0  0  0  0  0  0  0  0  0  0
    7.0075    4.0682    0.5305 H   0  0  0  0  0  0  0  0  0  0  0  0
    7.7618    2.5213    1.0289 H   0  0  0  0  0  0  0  0  0  0  0  0
    8.7694    6.2410    3.0292 H   0  0  0  0  0  0  0  0  0  0  0  0
    7.1618    6.1624    2.1992 H   0  0  0  0  0  0  0  0  0  0  0  0
    3.1501    2.4605    5.7808 H   0  0  0  0  0  0  0  0  0  0  0  0
    2.6038    3.3103    8.0511 H   0  0  0  0  0  0  0  0  0  0  0  0
    4.0457    5.0685    9.0841 H   0  0  0  0  0  0  0  0  0  0  0  0
    6.0168    5.8957    7.7951 H   0  0  0  0  0  0  0  0  0  0  0  0
  1  2  1  0  0  0  0
  1 24  1  0  0  0  0
  1 25  1  0  0  0  0
  1 26  1  0  0  0  0
  2  3  1  0  0  0  0
  2  4  1  0  0  0  0
  2  6  1  0  0  0  0
  3 27  1  0  0  0  0
  3 28  1  0  0  0  0
  3 29  1  0  0  0  0
  4  5  1  0  0  0  0
  4 30  1  0  0  0  0
  4 31  1  0  0  0  0
  5 32  1  0  0  0  0
  6  7  1  0  0  0  0
  6 33  1  0  0  0  0
  7  8  2  0  0  0  0
  7  9  1  0  0  0  0
  9 23  2  0  0  0  0
  9 10  1  0  0  0  0
 10 14  1  0  0  0  0
 10 11  2  0  0  0  0
 11 12  1  0  0  0  0
 11 16  1  0  0  0  0
 12 13  1  0  0  0  0
 12 15  1  0  0  0  0
 12 34  1  1  0  0  0
 13 14  1  0  0  0  0
 13 15  1  0  0  0  0
 13 35  1  1  0  0  0
 14 36  1  0  0  0  0
 14 37  1  0  0  0  0
 15 38  1  0  0  0  0
 15 39  1  0  0  0  0
 16 17  1  0  0  0  0
 16 23  1  0  0  0  0
 17 22  2  0  0  0  0
 17 18  1  0  0  0  0
 18 19  2  0  0  0  0
 18 40  1  0  0  0  0
 19 20  1  0  0  0  0
 19 41  1  0  0  0  0
 20 21  2  0  0  0  0
 20 42  1  0  0  0  0
 21 22  1  0  0  0  0
 21 43  1  0  0  0  0
M  END
$$$$
CHEMBL3354942_8GUQ
 OpenBabel12022418133D

 50 54  0  0  1  0  0  0  0  0999 V2000
    4.2887    1.1955   -1.2497 C   0  0  0  0  0  0  0  0  0  0  0  0
    3.1630    0.1396   -1.1021 C   0  0  0  0  0  0  0  0  0  0  0  0
    2.5086    0.3517    0.2867 C   0  0  0  0  0  0  0  0  0  0  0  0
    2.1503    0.3604   -2.2536 C   0  0  0  0  0  0  0  0  0  0  0  0
    0.7943    0.6702   -2.0289 C   0  0  0  0  0  0  0  0  0  0  0  0
   -0.0849    0.9249   -3.0871 C   0  0  0  0  0  0  0  0  0  0  0  0
    0.3691    0.8763   -4.3993 C   0  0  0  0  0  0  0  0  0  0  0  0
    1.7009    0.5651   -4.6535 C   0  0  0  0  0  0  0  0  0  0  0  0
    2.5787    0.3030   -3.5951 C   0  0  0  0  0  0  0  0  0  0  0  0
    3.7164   -1.2281   -1.1860 N   0  0  0  0  0  0  0  0  0  0  0  0
    4.6795   -1.7096   -0.3199 C   0  0  0  0  0  0  0  0  0  0  0  0
    5.1868   -1.0248    0.5652 O   0  0  0  0  0  0  0  0  0  0  0  0
    5.0827   -3.1174   -0.4877 C   0  0  0  0  0  0  0  0  0  0  0  0
    6.0508   -3.7577    0.3044 C   0  0  0  0  0  0  0  0  0  0  0  0
    6.1588   -5.0226   -0.1883 C   0  0  0  0  0  0  0  0  0  0  0  0
    7.3695   -5.7315    0.3747 C   0  0  1  0  0  0  0  0  0  0  0  0
    8.0044   -4.6372    1.2724 C   0  0  1  0  0  0  0  0  0  0  0  0
    7.0748   -3.4090    1.3198 C   0  0  0  0  0  0  0  0  0  0  0  0
    7.5664   -5.9395    1.8557 C   0  0  0  0  0  0  0  0  0  0  0  0
    5.2786   -5.1561   -1.2128 N   0  0  0  0  0  0  0  0  0  0  0  0
    4.9943   -6.3337   -1.9371 C   0  0  0  0  0  0  0  0  0  0  0  0
    5.0780   -7.5840   -1.3075 C   0  0  0  0  0  0  0  0  0  0  0  0
    4.7937   -8.7545   -2.0012 C   0  0  0  0  0  0  0  0  0  0  0  0
    4.4534   -8.6742   -3.3420 C   0  0  0  0  0  0  0  0  0  0  0  0
    4.3732   -7.4433   -3.9911 C   0  0  0  0  0  0  0  0  0  0  0  0
    4.6203   -6.2612   -3.2842 C   0  0  0  0  0  0  0  0  0  0  0  0
    4.1902   -9.7973   -4.0233 F   0  0  0  0  0  0  0  0  0  0  0  0
    5.3556   -7.6935   -0.0005 F   0  0  0  0  0  0  0  0  0  0  0  0
    4.6370   -3.9558   -1.4631 N   0  0  0  0  0  0  0  0  0  0  0  0
    3.8795    2.2127   -1.2594 H   0  0  0  0  0  0  0  0  0  0  0  0
    4.8642    1.0579   -2.1721 H   0  0  0  0  0  0  0  0  0  0  0  0
    5.0094    1.1519   -0.4271 H   0  0  0  0  0  0  0  0  0  0  0  0
    2.1035    1.3661    0.3877 H   0  0  0  0  0  0  0  0  0  0  0  0
    3.2166    0.2231    1.1106 H   0  0  0  0  0  0  0  0  0  0  0  0
    1.6965   -0.3644    0.4601 H   0  0  0  0  0  0  0  0  0  0  0  0
    0.3839    0.7393   -1.0250 H   0  0  0  0  0  0  0  0  0  0  0  0
   -1.1237    1.1712   -2.8797 H   0  0  0  0  0  0  0  0  0  0  0  0
   -0.3125    1.0839   -5.2199 H   0  0  0  0  0  0  0  0  0  0  0  0
    2.0619    0.5346   -5.6783 H   0  0  0  0  0  0  0  0  0  0  0  0
    3.6151    0.0707   -3.8319 H   0  0  0  0  0  0  0  0  0  0  0  0
    3.3314   -1.8919   -1.8506 H   0  0  0  0  0  0  0  0  0  0  0  0
    7.9268   -6.3973   -0.2693 H   0  0  0  0  0  0  0  0  0  0  0  0
    9.0528   -4.4081    1.1561 H   0  0  0  0  0  0  0  0  0  0  0  0
    6.6341   -3.2944    2.3150 H   0  0  0  0  0  0  0  0  0  0  0  0
    7.6224   -2.5030    1.0468 H   0  0  0  0  0  0  0  0  0  0  0  0
    8.3392   -6.6392    2.1582 H   0  0  0  0  0  0  0  0  0  0  0  0
    6.6835   -5.9786    2.4833 H   0  0  0  0  0  0  0  0  0  0  0  0
    4.8247   -9.7131   -1.4946 H   0  0  0  0  0  0  0  0  0  0  0  0
    4.1202   -7.4148   -5.0470 H   0  0  0  0  0  0  0  0  0  0  0  0
    4.5674   -5.3040   -3.7989 H   0  0  0  0  0  0  0  0  0  0  0  0
  1  2  1  0  0  0  0
  1 30  1  0  0  0  0
  1 31  1  0  0  0  0
  1 32  1  0  0  0  0
  2  3  1  0  0  0  0
  2  4  1  0  0  0  0
  2 10  1  0  0  0  0
  3 33  1  0  0  0  0
  3 34  1  0  0  0  0
  3 35  1  0  0  0  0
  4  9  2  0  0  0  0
  4  5  1  0  0  0  0
  5  6  2  0  0  0  0
  5 36  1  0  0  0  0
  6  7  1  0  0  0  0
  6 37  1  0  0  0  0
  7  8  2  0  0  0  0
  7 38  1  0  0  0  0
  8  9  1  0  0  0  0
  8 39  1  0  0  0  0
  9 40  1  0  0  0  0
 10 11  1  0  0  0  0
 10 41  1  0  0  0  0
 11 12  2  0  0  0  0
 11 13  1  0  0  0  0
 13 29  2  0  0  0  0
 13 14  1  0  0  0  0
 14 18  1  0  0  0  0
 14 15  2  0  0  0  0
 15 16  1  0  0  0  0
 15 20  1  0  0  0  0
 16 17  1  0  0  0  0
 16 19  1  0  0  0  0
 16 42  1  6  0  0  0
 17 18  1  0  0  0  0
 17 19  1  0  0  0  0
 17 43  1  6  0  0  0
 18 44  1  0  0  0  0
 18 45  1  0  0  0  0
 19 46  1  0  0  0  0
 19 47  1  0  0  0  0
 20 21  1  0  0  0  0
 20 29  1  0  0  0  0
 21 26  2  0  0  0  0
 21 22  1  0  0  0  0
 22 23  2  0  0  0  0
 22 28  1  0  0  0  0
 23 24  1  0  0  0  0
 23 48  1  0  0  0  0
 24 25  2  0  0  0  0
 24 27  1  0  0  0  0
 25 26  1  0  0  0  0
 25 49  1  0  0  0  0
 26 50  1  0  0  0  0
M  END
$$$$
CHEMBL5081180_5ZTY
 OpenBabel12022418133D

 60 62  0  0  1  0  0  0  0  0999 V2000
    0.1240   -1.0481    0.0316 N   0  0  0  0  0  0  0  0  0  0  0  0
    1.1178   -0.0802   -0.0771 N   0  0  0  0  0  0  0  0  0  0  0  0
    0.5435    1.0847   -0.0940 C   0  0  0  0  0  0  0  0  0  0  0  0
   -0.9492    1.0777    0.0417 C   0  0  1  0  0  0  0  0  0  0  0  0
   -1.1823   -0.4136   -0.1485 C   0  0  0  0  0  0  0  0  0  0  0  0
   -1.4552    1.5553    1.3946 C   0  0  0  0  0  0  0  0  0  0  0  0
   -0.7207    1.3472    2.5745 C   0  0  0  0  0  0  0  0  0  0  0  0
   -1.2357    1.7257    3.8142 C   0  0  0  0  0  0  0  0  0  0  0  0
   -2.5002    2.3000    3.8969 C   0  0  0  0  0  0  0  0  0  0  0  0
   -3.2492    2.4996    2.7392 C   0  0  0  0  0  0  0  0  0  0  0  0
   -2.7313    2.1313    1.4948 C   0  0  0  0  0  0  0  0  0  0  0  0
    1.2906    2.3534   -0.1226 C   0  0  0  0  0  0  0  0  0  0  0  0
    2.5521    2.3869    0.4793 C   0  0  0  0  0  0  0  0  0  0  0  0
    3.2482    3.5919    0.5601 C   0  0  0  0  0  0  0  0  0  0  0  0
    2.6923    4.7514    0.0267 C   0  0  0  0  0  0  0  0  0  0  0  0
    1.4387    4.7221   -0.5868 C   0  0  0  0  0  0  0  0  0  0  0  0
    0.7297    3.5215   -0.6587 C   0  0  0  0  0  0  0  0  0  0  0  0
    3.5473    6.2422    0.1353 Cl  0  0  0  0  0  0  0  0  0  0  0  0
    0.4210   -2.4306    0.1465 C   0  0  0  0  0  0  0  0  0  0  0  0
   -0.3371   -3.4814    0.2737 N   0  0  0  0  0  0  0  0  0  0  0  0
   -1.9141   -3.3148    0.4945 S   0  0  0  0  0  0  0  0  0  0  0  0
   -2.0765   -2.5808    1.7365 O   0  0  0  0  0  0  0  0  0  0  0  0
   -2.4982   -2.8073   -0.7323 O   0  0  0  0  0  0  0  0  0  0  0  0
   -2.7185   -4.8088    0.7735 N   0  0  0  0  0  0  0  0  0  0  0  0
   -3.9188   -4.6283    1.6640 C   0  0  0  0  0  0  0  0  0  0  0  0
   -5.0391   -3.8173    1.0241 C   0  0  0  0  0  0  0  0  0  0  0  0
   -2.9779   -5.5936   -0.4697 C   0  0  0  0  0  0  0  0  0  0  0  0
   -3.6181   -6.9453   -0.1865 C   0  0  0  0  0  0  0  0  0  0  0  0
    1.7815   -2.7046    0.2168 N   0  0  0  0  0  0  0  0  0  0  0  0
    2.3167   -3.7806   -0.2326 C   0  0  0  0  0  0  0  0  0  0  0  0
    1.7343   -4.8459   -0.8460 N   0  0  0  0  0  0  0  0  0  0  0  0
    4.0471   -4.0343   -0.0199 S   0  0  0  0  0  0  0  0  0  0  0  0
    4.5640   -2.4641    0.7066 C   0  0  0  0  0  0  0  0  0  0  0  0
   -1.4249    1.6386   -0.7691 H   0  0  0  0  0  0  0  0  0  0  0  0
   -1.9354   -0.7191    0.5703 H   0  0  0  0  0  0  0  0  0  0  0  0
   -1.5480   -0.6017   -1.1631 H   0  0  0  0  0  0  0  0  0  0  0  0
    0.2537    0.8615    2.5490 H   0  0  0  0  0  0  0  0  0  0  0  0
   -0.6544    1.5512    4.7160 H   0  0  0  0  0  0  0  0  0  0  0  0
   -2.9072    2.5758    4.8660 H   0  0  0  0  0  0  0  0  0  0  0  0
   -4.2456    2.9283    2.8092 H   0  0  0  0  0  0  0  0  0  0  0  0
   -3.3466    2.2749    0.6093 H   0  0  0  0  0  0  0  0  0  0  0  0
    2.9802    1.4837    0.9115 H   0  0  0  0  0  0  0  0  0  0  0  0
    4.2169    3.6205    1.0514 H   0  0  0  0  0  0  0  0  0  0  0  0
    1.0050    5.6287   -1.0008 H   0  0  0  0  0  0  0  0  0  0  0  0
   -0.2463    3.5184   -1.1323 H   0  0  0  0  0  0  0  0  0  0  0  0
   -3.6031   -4.1480    2.5979 H   0  0  0  0  0  0  0  0  0  0  0  0
   -4.2943   -5.6031    1.9873 H   0  0  0  0  0  0  0  0  0  0  0  0
   -4.6931   -2.8621    0.6184 H   0  0  0  0  0  0  0  0  0  0  0  0
   -5.8079   -3.5873    1.7679 H   0  0  0  0  0  0  0  0  0  0  0  0
   -5.5141   -4.3715    0.2095 H   0  0  0  0  0  0  0  0  0  0  0  0
   -2.0254   -5.7644   -0.9823 H   0  0  0  0  0  0  0  0  0  0  0  0
   -3.6326   -5.0345   -1.1476 H   0  0  0  0  0  0  0  0  0  0  0  0
   -3.0115   -7.5349    0.5069 H   0  0  0  0  0  0  0  0  0  0  0  0
   -3.7338   -7.5100   -1.1170 H   0  0  0  0  0  0  0  0  0  0  0  0
   -4.6205   -6.8399    0.2419 H   0  0  0  0  0  0  0  0  0  0  0  0
    0.7453   -4.9023   -0.6246 H   0  0  0  0  0  0  0  0  0  0  0  0
    2.2330   -5.7094   -0.6693 H   0  0  0  0  0  0  0  0  0  0  0  0
    5.6347   -2.5124    0.9300 H   0  0  0  0  0  0  0  0  0  0  0  0
    4.0352   -2.2665    1.6429 H   0  0  0  0  0  0  0  0  0  0  0  0
    4.4019   -1.6389    0.0077 H   0  0  0  0  0  0  0  0  0  0  0  0
  1  5  1  0  0  0  0
  1  2  1  0  0  0  0
  1 19  1  0  0  0  0
  2  3  2  0  0  0  0
  3  4  1  0  0  0  0
  3 12  1  0  0  0  0
  4  5  1  0  0  0  0
  4  6  1  0  0  0  0
  4 34  1  6  0  0  0
  5 35  1  0  0  0  0
  5 36  1  0  0  0  0
  6 11  2  0  0  0  0
  6  7  1  0  0  0  0
  7  8  2  0  0  0  0
  7 37  1  0  0  0  0
  8  9  1  0  0  0  0
  8 38  1  0  0  0  0
  9 10  2  0  0  0  0
  9 39  1  0  0  0  0
 10 11  1  0  0  0  0
 10 40  1  0  0  0  0
 11 41  1  0  0  0  0
 12 17  2  0  0  0  0
 12 13  1  0  0  0  0
 13 14  2  0  0  0  0
 13 42  1  0  0  0  0
 14 15  1  0  0  0  0
 14 43  1  0  0  0  0
 15 16  2  0  0  0  0
 15 18  1  0  0  0  0
 16 17  1  0  0  0  0
 16 44  1  0  0  0  0
 17 45  1  0  0  0  0
 19 20  2  0  0  0  0
 19 29  1  0  0  0  0
 20 21  1  0  0  0  0
 21 22  2  0  0  0  0
 21 23  2  0  0  0  0
 21 24  1  0  0  0  0
 24 25  1  0  0  0  0
 24 27  1  0  0  0  0
 25 26  1  0  0  0  0
 25 46  1  0  0  0  0
 25 47  1  0  0  0  0
 26 48  1  0  0  0  0
 26 49  1  0  0  0  0
 26 50  1  0  0  0  0
 27 28  1  0  0  0  0
 27 51  1  0  0  0  0
 27 52  1  0  0  0  0
 28 53  1  0  0  0  0
 28 54  1  0  0  0  0
 28 55  1  0  0  0  0
 29 30  2  0  0  0  0
 30 31  1  0  0  0  0
 30 32  1  0  0  0  0
 31 56  1  0  0  0  0
 31 57  1  0  0  0  0
 32 33  1  0  0  0  0
 33 58  1  0  0  0  0
 33 59  1  0  0  0  0
 33 60  1  0  0  0  0
M  END
$$$$
CHEMBL5198892_5ZTY
 OpenBabel12022418133D

 57 61  0  0  1  0  0  0  0  0999 V2000
    1.1945   -0.9490    0.0557 C   0  0  0  0  0  0  0  0  0  0  0  0
    0.9165    0.5593    0.1829 C   0  0  1  0  0  0  0  0  0  0  0  0
    1.2259    1.2126   -1.1692 C   0  0  0  0  0  0  0  0  0  0  0  0
    0.3009    0.6326   -2.2510 C   0  0  1  0  0  0  0  0  0  0  0  0
    0.5061   -0.8859   -2.3697 C   0  0  0  0  0  0  0  0  0  0  0  0
    0.2731   -1.5652   -1.0098 C   0  0  2  0  0  0  0  0  0  0  0  0
   -1.1835   -1.3392   -0.5900 C   0  0  0  0  0  0  0  0  0  0  0  0
   -1.5045    0.1724   -0.5220 C   0  0  1  0  0  0  0  0  0  0  0  0
   -0.5664    0.7910    0.5545 C   0  0  0  0  0  0  0  0  0  0  0  0
   -1.1575    0.8877   -1.8545 C   0  0  0  0  0  0  0  0  0  0  0  0
   -2.9474    0.3317   -0.3058 N   0  0  0  0  0  0  0  0  0  0  0  0
   -3.5550    0.2272    0.9131 C   0  0  0  0  0  0  0  0  0  0  0  0
   -2.9505    0.2264    1.9791 O   0  0  0  0  0  0  0  0  0  0  0  0
   -5.0380    0.1575    0.9059 C   0  0  0  0  0  0  0  0  0  0  0  0
   -5.6051    0.6846    1.9971 C   0  0  0  0  0  0  0  0  0  0  0  0
   -7.0402    0.6556    2.1590 C   0  0  0  0  0  0  0  0  0  0  0  0
   -7.8492   -0.0004    1.2295 C   0  0  0  0  0  0  0  0  0  0  0  0
   -9.1915   -0.0492    1.3807 N   0  0  0  0  0  0  0  0  0  0  0  0
   -9.7334    0.5739    2.4499 C   0  0  0  0  0  0  0  0  0  0  0  0
   -8.9973    1.2447    3.4122 C   0  0  0  0  0  0  0  0  0  0  0  0
   -7.6201    1.2759    3.2657 C   0  0  0  0  0  0  0  0  0  0  0  0
   -7.2415   -0.6052    0.0938 N   0  0  0  0  0  0  0  0  0  0  0  0
   -5.8723   -0.4525   -0.1664 C   0  0  0  0  0  0  0  0  0  0  0  0
   -5.3343   -0.8105   -1.2165 O   0  0  0  0  0  0  0  0  0  0  0  0
   -8.0895   -1.2892   -0.8882 C   0  0  0  0  0  0  0  0  0  0  0  0
   -7.7690   -2.7819   -1.0723 C   0  0  0  0  0  0  0  0  0  0  0  0
   -7.8670   -3.6372    0.1940 C   0  0  0  0  0  0  0  0  0  0  0  0
   -9.2597   -3.6727    0.7978 C   0  0  0  0  0  0  0  0  0  0  0  0
  -10.1351   -4.1420   -0.1310 F   0  0  0  0  0  0  0  0  0  0  0  0
    2.2437   -1.1153   -0.2183 H   0  0  0  0  0  0  0  0  0  0  0  0
    1.0371   -1.4429    1.0224 H   0  0  0  0  0  0  0  0  0  0  0  0
    1.5590    0.9875    0.9608 H   0  0  0  0  0  0  0  0  0  0  0  0
    2.2746    1.0342   -1.4384 H   0  0  0  0  0  0  0  0  0  0  0  0
    1.0962    2.2991   -1.0974 H   0  0  0  0  0  0  0  0  0  0  0  0
    0.5140    1.1153   -3.2110 H   0  0  0  0  0  0  0  0  0  0  0  0
    1.5157   -1.1036   -2.7338 H   0  0  0  0  0  0  0  0  0  0  0  0
   -0.1961   -1.2933   -3.1093 H   0  0  0  0  0  0  0  0  0  0  0  0
    0.4701   -2.6397   -1.0926 H   0  0  0  0  0  0  0  0  0  0  0  0
   -1.3576   -1.7992    0.3933 H   0  0  0  0  0  0  0  0  0  0  0  0
   -1.8599   -1.8493   -1.2869 H   0  0  0  0  0  0  0  0  0  0  0  0
   -0.7703    1.8632    0.6675 H   0  0  0  0  0  0  0  0  0  0  0  0
   -0.7269    0.3344    1.5361 H   0  0  0  0  0  0  0  0  0  0  0  0
   -1.8261    0.5613   -2.6607 H   0  0  0  0  0  0  0  0  0  0  0  0
   -1.3234    1.9696   -1.7440 H   0  0  0  0  0  0  0  0  0  0  0  0
   -3.5394    0.0950   -1.1046 H   0  0  0  0  0  0  0  0  0  0  0  0
   -5.0110    1.1340    2.7876 H   0  0  0  0  0  0  0  0  0  0  0  0
  -10.8173    0.5330    2.5160 H   0  0  0  0  0  0  0  0  0  0  0  0
   -9.4767    1.7299    4.2549 H   0  0  0  0  0  0  0  0  0  0  0  0
   -7.0061    1.7838    4.0059 H   0  0  0  0  0  0  0  0  0  0  0  0
   -7.9419   -0.7850   -1.8512 H   0  0  0  0  0  0  0  0  0  0  0  0
   -9.1516   -1.1792   -0.6510 H   0  0  0  0  0  0  0  0  0  0  0  0
   -6.7604   -2.8988   -1.4848 H   0  0  0  0  0  0  0  0  0  0  0  0
   -8.4505   -3.1891   -1.8306 H   0  0  0  0  0  0  0  0  0  0  0  0
   -7.1442   -3.2956    0.9425 H   0  0  0  0  0  0  0  0  0  0  0  0
   -7.5856   -4.6629   -0.0764 H   0  0  0  0  0  0  0  0  0  0  0  0
   -9.6019   -2.6899    1.1238 H   0  0  0  0  0  0  0  0  0  0  0  0
   -9.2899   -4.3495    1.6566 H   0  0  0  0  0  0  0  0  0  0  0  0
  1  6  1  0  0  0  0
  1 30  1  0  0  0  0
  1 31  1  0  0  0  0
  2  1  1  0  0  0  0
  2  3  1  0  0  0  0
  2  9  1  0  0  0  0
  2 32  1  1  0  0  0
  3 33  1  0  0  0  0
  3 34  1  0  0  0  0
  4  3  1  0  0  0  0
  4  5  1  0  0  0  0
  4 10  1  0  0  0  0
  4 35  1  6  0  0  0
  5 36  1  0  0  0  0
  5 37  1  0  0  0  0
  6  5  1  0  0  0  0
  6  7  1  0  0  0  0
  6 38  1  6  0  0  0
  7  8  1  0  0  0  0
  7 39  1  0  0  0  0
  7 40  1  0  0  0  0
  8  9  1  0  0  0  0
  8 10  1  0  0  0  0
  8 11  1  1  0  0  0
  9 41  1  0  0  0  0
  9 42  1  0  0  0  0
 10 43  1  0  0  0  0
 10 44  1  0  0  0  0
 11 12  1  0  0  0  0
 11 45  1  0  0  0  0
 12 13  2  0  0  0  0
 12 14  1  0  0  0  0
 14 23  1  0  0  0  0
 14 15  2  0  0  0  0
 15 16  1  0  0  0  0
 15 46  1  0  0  0  0
 16 21  2  0  0  0  0
 16 17  1  0  0  0  0
 17 18  2  0  0  0  0
 17 22  1  0  0  0  0
 18 19  1  0  0  0  0
 19 20  2  0  0  0  0
 19 47  1  0  0  0  0
 20 21  1  0  0  0  0
 20 48  1  0  0  0  0
 21 49  1  0  0  0  0
 22 23  1  0  0  0  0
 22 25  1  0  0  0  0
 23 24  2  0  0  0  0
 25 26  1  0  0  0  0
 25 50  1  0  0  0  0
 25 51  1  0  0  0  0
 26 27  1  0  0  0  0
 26 52  1  0  0  0  0
 26 53  1  0  0  0  0
 27 28  1  0  0  0  0
 27 54  1  0  0  0  0
 27 55  1  0  0  0  0
 28 29  1  0  0  0  0
 28 56  1  0  0  0  0
 28 57  1  0  0  0  0
M  END
$$$$
CHEMBL5087041_5ZTY
 OpenBabel12022418133D

 60 63  0  0  1  0  0  0  0  0999 V2000
    0.2475   -1.1647   -0.2121 N   0  0  0  0  0  0  0  0  0  0  0  0
    1.2083   -0.1757   -0.2435 N   0  0  0  0  0  0  0  0  0  0  0  0
    0.6190    0.9702   -0.0862 C   0  0  0  0  0  0  0  0  0  0  0  0
   -0.8872    0.9061    0.0355 C   0  0  2  0  0  0  0  0  0  0  0  0
   -1.0804   -0.6141    0.0441 C   0  0  0  0  0  0  0  0  0  0  0  0
   -1.5942    1.6414   -1.0878 C   0  0  0  0  0  0  0  0  0  0  0  0
   -2.4434    2.7228   -0.8021 C   0  0  0  0  0  0  0  0  0  0  0  0
   -3.0861    3.4164   -1.8307 C   0  0  0  0  0  0  0  0  0  0  0  0
   -2.8916    3.0387   -3.1569 C   0  0  0  0  0  0  0  0  0  0  0  0
   -2.0429    1.9770   -3.4577 C   0  0  0  0  0  0  0  0  0  0  0  0
   -1.3947    1.2863   -2.4318 C   0  0  0  0  0  0  0  0  0  0  0  0
    1.3619    2.2523   -0.0746 C   0  0  0  0  0  0  0  0  0  0  0  0
    0.8525    3.3947    0.5621 C   0  0  0  0  0  0  0  0  0  0  0  0
    1.5619    4.5991    0.5197 C   0  0  0  0  0  0  0  0  0  0  0  0
    2.7788    4.6666   -0.1564 C   0  0  0  0  0  0  0  0  0  0  0  0
    3.3048    3.5334   -0.7746 C   0  0  0  0  0  0  0  0  0  0  0  0
    2.5996    2.3270   -0.7278 C   0  0  0  0  0  0  0  0  0  0  0  0
    3.6347    6.1571   -0.2279 Cl  0  0  0  0  0  0  0  0  0  0  0  0
    0.5468   -2.5283   -0.0904 C   0  0  0  0  0  0  0  0  0  0  0  0
   -0.2820   -3.3155    0.5513 N   0  0  0  0  0  0  0  0  0  0  0  0
    0.1285   -4.8605    0.8359 S   0  0  0  0  0  0  0  0  0  0  0  0
    0.1854   -5.5581   -0.4349 O   0  0  0  0  0  0  0  0  0  0  0  0
    1.2448   -4.9073    1.7590 O   0  0  0  0  0  0  0  0  0  0  0  0
   -1.1567   -5.6196    1.6588 N   0  0  0  0  0  0  0  0  0  0  0  0
   -1.1863   -5.7535    3.1239 C   0  0  0  0  0  0  0  0  0  0  0  0
   -2.0085   -4.6383    3.7352 C   0  0  0  0  0  0  0  0  0  0  0  0
   -3.3691   -4.5552    3.0690 C   0  0  0  0  0  0  0  0  0  0  0  0
   -3.3410   -4.5584    1.5514 C   0  0  0  0  0  0  0  0  0  0  0  0
   -2.4799   -5.6944    1.0319 C   0  0  0  0  0  0  0  0  0  0  0  0
   -4.0002   -3.4276    3.4948 F   0  0  0  0  0  0  0  0  0  0  0  0
   -4.1364   -5.5951    3.4963 F   0  0  0  0  0  0  0  0  0  0  0  0
    1.7343   -3.0456   -0.5500 N   0  0  0  0  0  0  0  0  0  0  0  0
    2.3281   -2.7154   -1.6602 C   0  0  0  0  0  0  0  0  0  0  0  0
    3.5146   -3.3497   -1.9293 N   0  0  0  0  0  0  0  0  0  0  0  0
    1.8807   -1.7141   -2.7038 C   0  0  0  0  0  0  0  0  0  0  0  0
   -1.1878    1.3123    1.0122 H   0  0  0  0  0  0  0  0  0  0  0  0
   -1.4503   -0.9385    1.0235 H   0  0  0  0  0  0  0  0  0  0  0  0
   -1.7914   -0.9556   -0.7169 H   0  0  0  0  0  0  0  0  0  0  0  0
   -2.6097    3.0461    0.2234 H   0  0  0  0  0  0  0  0  0  0  0  0
   -3.7395    4.2541   -1.5988 H   0  0  0  0  0  0  0  0  0  0  0  0
   -3.3980    3.5733   -3.9564 H   0  0  0  0  0  0  0  0  0  0  0  0
   -1.8829    1.6887   -4.4939 H   0  0  0  0  0  0  0  0  0  0  0  0
   -0.7240    0.4709   -2.6957 H   0  0  0  0  0  0  0  0  0  0  0  0
   -0.0878    3.3690    1.1029 H   0  0  0  0  0  0  0  0  0  0  0  0
    1.1591    5.4812    1.0123 H   0  0  0  0  0  0  0  0  0  0  0  0
    4.2573    3.5812   -1.2958 H   0  0  0  0  0  0  0  0  0  0  0  0
    3.0166    1.4469   -1.2146 H   0  0  0  0  0  0  0  0  0  0  0  0
   -0.1847   -5.7929    3.5600 H   0  0  0  0  0  0  0  0  0  0  0  0
   -1.6440   -6.7239    3.3661 H   0  0  0  0  0  0  0  0  0  0  0  0
   -1.4827   -3.6827    3.6426 H   0  0  0  0  0  0  0  0  0  0  0  0
   -2.1412   -4.8302    4.8077 H   0  0  0  0  0  0  0  0  0  0  0  0
   -2.9648   -3.5960    1.1894 H   0  0  0  0  0  0  0  0  0  0  0  0
   -4.3607   -4.6691    1.1656 H   0  0  0  0  0  0  0  0  0  0  0  0
   -2.9317   -6.6639    1.2808 H   0  0  0  0  0  0  0  0  0  0  0  0
   -2.4084   -5.6628   -0.0588 H   0  0  0  0  0  0  0  0  0  0  0  0
    3.6234   -4.2143   -1.4081 H   0  0  0  0  0  0  0  0  0  0  0  0
    3.8297   -3.3960   -2.8896 H   0  0  0  0  0  0  0  0  0  0  0  0
    0.8049   -1.5440   -2.7009 H   0  0  0  0  0  0  0  0  0  0  0  0
    2.1563   -2.0718   -3.7027 H   0  0  0  0  0  0  0  0  0  0  0  0
    2.4154   -0.7718   -2.5442 H   0  0  0  0  0  0  0  0  0  0  0  0
  1  5  1  0  0  0  0
  1  2  1  0  0  0  0
  1 19  1  0  0  0  0
  2  3  2  0  0  0  0
  3  4  1  0  0  0  0
  3 12  1  0  0  0  0
  4  5  1  0  0  0  0
  4  6  1  0  0  0  0
  4 36  1  1  0  0  0
  5 37  1  0  0  0  0
  5 38  1  0  0  0  0
  6 11  2  0  0  0  0
  6  7  1  0  0  0  0
  7  8  2  0  0  0  0
  7 39  1  0  0  0  0
  8  9  1  0  0  0  0
  8 40  1  0  0  0  0
  9 10  2  0  0  0  0
  9 41  1  0  0  0  0
 10 11  1  0  0  0  0
 10 42  1  0  0  0  0
 11 43  1  0  0  0  0
 12 17  2  0  0  0  0
 12 13  1  0  0  0  0
 13 14  2  0  0  0  0
 13 44  1  0  0  0  0
 14 15  1  0  0  0  0
 14 45  1  0  0  0  0
 15 16  2  0  0  0  0
 15 18  1  0  0  0  0
 16 17  1  0  0  0  0
 16 46  1  0  0  0  0
 17 47  1  0  0  0  0
 19 20  2  0  0  0  0
 19 32  1  0  0  0  0
 20 21  1  0  0  0  0
 21 22  2  0  0  0  0
 21 23  2  0  0  0  0
 21 24  1  0  0  0  0
 24 29  1  0  0  0  0
 24 25  1  0  0  0  0
 25 26  1  0  0  0  0
 25 48  1  0  0  0  0
 25 49  1  0  0  0  0
 26 27  1  0  0  0  0
 26 50  1  0  0  0  0
 26 51  1  0  0  0  0
 27 28  1  0  0  0  0
 27 30  1  0  0  0  0
 27 31  1  0  0  0  0
 28 29  1  0  0  0  0
 28 52  1  0  0  0  0
 28 53  1  0  0  0  0
 29 54  1  0  0  0  0
 29 55  1  0  0  0  0
 32 33  2  0  0  0  0
 33 34  1  0  0  0  0
 33 35  1  0  0  0  0
 34 56  1  0  0  0  0
 34 57  1  0  0  0  0
 35 58  1  0  0  0  0
 35 59  1  0  0  0  0
 35 60  1  0  0  0  0
M  END
$$$$
CHEMBL5076422_5ZTY
 OpenBabel12022418133D

 61 64  0  0  1  0  0  0  0  0999 V2000
    0.1355   -1.2023   -0.0957 N   0  0  0  0  0  0  0  0  0  0  0  0
   -0.8312   -0.7783   -0.9815 N   0  0  0  0  0  0  0  0  0  0  0  0
   -0.6946    0.5061   -1.1259 C   0  0  0  0  0  0  0  0  0  0  0  0
    0.3877    1.1495   -0.2823 C   0  0  2  0  0  0  0  0  0  0  0  0
    0.9684   -0.1042    0.3810 C   0  0  0  0  0  0  0  0  0  0  0  0
   -0.1463    2.1806    0.7003 C   0  0  0  0  0  0  0  0  0  0  0  0
    0.6368    3.2766    1.0978 C   0  0  0  0  0  0  0  0  0  0  0  0
    0.1502    4.1965    2.0339 C   0  0  0  0  0  0  0  0  0  0  0  0
   -1.1252    4.0409    2.5755 C   0  0  0  0  0  0  0  0  0  0  0  0
   -1.9242    2.9800    2.1666 C   0  0  0  0  0  0  0  0  0  0  0  0
   -1.4373    2.0572    1.2424 C   0  0  0  0  0  0  0  0  0  0  0  0
   -1.5715    1.3237   -2.0021 C   0  0  0  0  0  0  0  0  0  0  0  0
   -1.0840    2.5135   -2.5490 C   0  0  0  0  0  0  0  0  0  0  0  0
   -1.9126    3.3200   -3.3341 C   0  0  0  0  0  0  0  0  0  0  0  0
   -3.2324    2.9366   -3.5631 C   0  0  0  0  0  0  0  0  0  0  0  0
   -3.7297    1.7520   -3.0206 C   0  0  0  0  0  0  0  0  0  0  0  0
   -2.8987    0.9399   -2.2389 C   0  0  0  0  0  0  0  0  0  0  0  0
   -4.2528    3.9439   -4.5144 Cl  0  0  0  0  0  0  0  0  0  0  0  0
    0.4490   -2.5538    0.1467 C   0  0  0  0  0  0  0  0  0  0  0  0
    1.7316   -2.8859    0.1375 N   0  0  0  0  0  0  0  0  0  0  0  0
    2.1326   -4.4663    0.1694 S   0  0  0  0  0  0  0  0  0  0  0  0
    1.5297   -5.0040    1.3848 O   0  0  0  0  0  0  0  0  0  0  0  0
    1.8887   -5.0402   -1.1119 O   0  0  0  0  0  0  0  0  0  0  0  0
    3.8168   -4.7601    0.4691 N   0  0  0  0  0  0  0  0  0  0  0  0
    4.8205   -4.8343   -0.6096 C   0  0  0  0  0  0  0  0  0  0  0  0
    5.2382   -3.4274   -0.9668 C   0  0  0  0  0  0  0  0  0  0  0  0
    5.6714   -2.6774    0.2848 C   0  0  0  0  0  0  0  0  0  0  0  0
    4.7601   -2.7971    1.4949 C   0  0  0  0  0  0  0  0  0  0  0  0
    4.3687   -4.2422    1.7225 C   0  0  0  0  0  0  0  0  0  0  0  0
    5.8110   -1.3601   -0.0241 F   0  0  0  0  0  0  0  0  0  0  0  0
    6.9107   -3.1119    0.6469 F   0  0  0  0  0  0  0  0  0  0  0  0
   -0.5268   -3.5028    0.2535 N   0  0  0  0  0  0  0  0  0  0  0  0
   -1.6650   -3.4839    0.9020 C   0  0  0  0  0  0  0  0  0  0  0  0
   -2.5247   -4.5497    0.7885 N   0  0  0  0  0  0  0  0  0  0  0  0
   -2.4414   -2.3158    1.9458 S   0  0  0  0  0  0  0  0  0  0  0  0
   -1.1967   -1.6247    3.0280 C   0  0  0  0  0  0  0  0  0  0  0  0
    1.1389    1.6012   -0.9401 H   0  0  0  0  0  0  0  0  0  0  0  0
    2.0239   -0.2297    0.1044 H   0  0  0  0  0  0  0  0  0  0  0  0
    0.9187   -0.0637    1.4743 H   0  0  0  0  0  0  0  0  0  0  0  0
    1.6317    3.4353    0.6842 H   0  0  0  0  0  0  0  0  0  0  0  0
    0.7658    5.0367    2.3488 H   0  0  0  0  0  0  0  0  0  0  0  0
   -1.4982    4.7461    3.3144 H   0  0  0  0  0  0  0  0  0  0  0  0
   -2.9267    2.8604    2.5697 H   0  0  0  0  0  0  0  0  0  0  0  0
   -2.0913    1.2395    0.9440 H   0  0  0  0  0  0  0  0  0  0  0  0
   -0.0597    2.8314   -2.3806 H   0  0  0  0  0  0  0  0  0  0  0  0
   -1.5213    4.2407   -3.7534 H   0  0  0  0  0  0  0  0  0  0  0  0
   -4.7625    1.4605   -3.1955 H   0  0  0  0  0  0  0  0  0  0  0  0
   -3.2993    0.0267   -1.8028 H   0  0  0  0  0  0  0  0  0  0  0  0
    4.4753   -5.4020   -1.4806 H   0  0  0  0  0  0  0  0  0  0  0  0
    5.6985   -5.3914   -0.2484 H   0  0  0  0  0  0  0  0  0  0  0  0
    4.4102   -2.9110   -1.4647 H   0  0  0  0  0  0  0  0  0  0  0  0
    6.0737   -3.4602   -1.6754 H   0  0  0  0  0  0  0  0  0  0  0  0
    3.8827   -2.1589    1.3494 H   0  0  0  0  0  0  0  0  0  0  0  0
    5.2641   -2.4238    2.3901 H   0  0  0  0  0  0  0  0  0  0  0  0
    5.2287   -4.8488    2.0335 H   0  0  0  0  0  0  0  0  0  0  0  0
    3.6386   -4.3369    2.5321 H   0  0  0  0  0  0  0  0  0  0  0  0
   -2.0898   -5.4242    1.0526 H   0  0  0  0  0  0  0  0  0  0  0  0
   -3.3954   -4.4216    1.2931 H   0  0  0  0  0  0  0  0  0  0  0  0
   -1.2602   -2.0105    4.0514 H   0  0  0  0  0  0  0  0  0  0  0  0
   -1.3908   -0.5487    3.0907 H   0  0  0  0  0  0  0  0  0  0  0  0
   -0.1935   -1.7838    2.6519 H   0  0  0  0  0  0  0  0  0  0  0  0
  1  5  1  0  0  0  0
  1  2  1  0  0  0  0
  1 19  1  0  0  0  0
  2  3  2  0  0  0  0
  3  4  1  0  0  0  0
  3 12  1  0  0  0  0
  4  5  1  0  0  0  0
  4  6  1  0  0  0  0
  4 37  1  6  0  0  0
  5 38  1  0  0  0  0
  5 39  1  0  0  0  0
  6 11  2  0  0  0  0
  6  7  1  0  0  0  0
  7  8  2  0  0  0  0
  7 40  1  0  0  0  0
  8  9  1  0  0  0  0
  8 41  1  0  0  0  0
  9 10  2  0  0  0  0
  9 42  1  0  0  0  0
 10 11  1  0  0  0  0
 10 43  1  0  0  0  0
 11 44  1  0  0  0  0
 12 17  2  0  0  0  0
 12 13  1  0  0  0  0
 13 14  2  0  0  0  0
 13 45  1  0  0  0  0
 14 15  1  0  0  0  0
 14 46  1  0  0  0  0
 15 16  2  0  0  0  0
 15 18  1  0  0  0  0
 16 17  1  0  0  0  0
 16 47  1  0  0  0  0
 17 48  1  0  0  0  0
 19 20  2  0  0  0  0
 19 32  1  0  0  0  0
 20 21  1  0  0  0  0
 21 22  2  0  0  0  0
 21 23  2  0  0  0  0
 21 24  1  0  0  0  0
 24 29  1  0  0  0  0
 24 25  1  0  0  0  0
 25 26  1  0  0  0  0
 25 49  1  0  0  0  0
 25 50  1  0  0  0  0
 26 27  1  0  0  0  0
 26 51  1  0  0  0  0
 26 52  1  0  0  0  0
 27 28  1  0  0  0  0
 27 30  1  0  0  0  0
 27 31  1  0  0  0  0
 28 29  1  0  0  0  0
 28 53  1  0  0  0  0
 28 54  1  0  0  0  0
 29 55  1  0  0  0  0
 29 56  1  0  0  0  0
 32 33  2  0  0  0  0
 33 34  1  0  0  0  0
 33 35  1  0  0  0  0
 34 57  1  0  0  0  0
 34 58  1  0  0  0  0
 35 36  1  0  0  0  0
 36 59  1  0  0  0  0
 36 60  1  0  0  0  0
 36 61  1  0  0  0  0
M  END
$$$$
CHEMBL5084492_5ZTY
 OpenBabel12022418133D

 67 71  0  0  1  0  0  0  0  0999 V2000
    0.1261   -1.0741    0.0741 N   0  0  0  0  0  0  0  0  0  0  0  0
   -1.1294   -0.6409    0.4638 N   0  0  0  0  0  0  0  0  0  0  0  0
   -1.2586    0.6001    0.0988 C   0  0  0  0  0  0  0  0  0  0  0  0
   -0.0973    1.1972   -0.6401 C   0  0  2  0  0  0  0  0  0  0  0  0
    0.8186   -0.0139   -0.6602 C   0  0  0  0  0  0  0  0  0  0  0  0
    0.5176    2.4105    0.0356 C   0  0  0  0  0  0  0  0  0  0  0  0
    0.5947    3.6322   -0.6510 C   0  0  0  0  0  0  0  0  0  0  0  0
    1.1496    4.7588   -0.0402 C   0  0  0  0  0  0  0  0  0  0  0  0
    1.6479    4.6767    1.2578 C   0  0  0  0  0  0  0  0  0  0  0  0
    1.5914    3.4685    1.9474 C   0  0  0  0  0  0  0  0  0  0  0  0
    1.0257    2.3442    1.3441 C   0  0  0  0  0  0  0  0  0  0  0  0
   -2.4548    1.4117    0.3972 C   0  0  0  0  0  0  0  0  0  0  0  0
   -2.8234    2.4849   -0.4235 C   0  0  0  0  0  0  0  0  0  0  0  0
   -3.9168    3.2795   -0.0798 C   0  0  0  0  0  0  0  0  0  0  0  0
   -4.6394    2.9955    1.0775 C   0  0  0  0  0  0  0  0  0  0  0  0
   -4.2824    1.9207    1.8918 C   0  0  0  0  0  0  0  0  0  0  0  0
   -3.1896    1.1232    1.5499 C   0  0  0  0  0  0  0  0  0  0  0  0
   -5.9808    3.9828    1.5044 Cl  0  0  0  0  0  0  0  0  0  0  0  0
    0.5392   -2.4237    0.1184 C   0  0  0  0  0  0  0  0  0  0  0  0
    1.7388   -2.9255    0.0810 N   0  0  0  0  0  0  0  0  0  0  0  0
    3.0609   -2.0123    0.0372 S   0  0  0  0  0  0  0  0  0  0  0  0
    3.1150   -1.3318   -1.2419 O   0  0  0  0  0  0  0  0  0  0  0  0
    3.1663   -1.2593    1.2695 O   0  0  0  0  0  0  0  0  0  0  0  0
    4.4001   -3.0451   -0.0256 N   0  0  0  0  0  0  0  0  0  0  0  0
    4.8637   -3.6206    1.2487 C   0  0  0  0  0  0  0  0  0  0  0  0
    6.2305   -4.2705    1.0401 C   0  0  0  0  0  0  0  0  0  0  0  0
    6.1828   -5.3006   -0.0836 C   0  0  0  0  0  0  0  0  0  0  0  0
    5.6905   -4.6538   -1.3715 C   0  0  0  0  0  0  0  0  0  0  0  0
    4.3388   -3.9949   -1.1597 C   0  0  0  0  0  0  0  0  0  0  0  0
   -0.4804   -3.3836    0.1433 N   0  0  0  0  0  0  0  0  0  0  0  0
   -0.4198   -4.4855    0.8260 C   0  0  0  0  0  0  0  0  0  0  0  0
    0.6492   -4.8846    1.6019 N   0  0  0  0  0  0  0  0  0  0  0  0
   -1.5882   -5.4544    0.7544 C   0  0  0  0  0  0  0  0  0  0  0  0
   -1.7996   -6.3751    1.7998 C   0  0  0  0  0  0  0  0  0  0  0  0
   -2.8161   -7.3333    1.7149 C   0  0  0  0  0  0  0  0  0  0  0  0
   -3.6255   -7.3708    0.5885 C   0  0  0  0  0  0  0  0  0  0  0  0
   -3.4499   -6.4583   -0.4463 C   0  0  0  0  0  0  0  0  0  0  0  0
   -2.4336   -5.4936   -0.3627 C   0  0  0  0  0  0  0  0  0  0  0  0
   -4.5857   -8.3032    0.4971 F   0  0  0  0  0  0  0  0  0  0  0  0
   -0.3960    1.4341   -1.6680 H   0  0  0  0  0  0  0  0  0  0  0  0
    0.9852   -0.3203   -1.6985 H   0  0  0  0  0  0  0  0  0  0  0  0
    1.7648    0.2512   -0.1904 H   0  0  0  0  0  0  0  0  0  0  0  0
    0.2243    3.7213   -1.6698 H   0  0  0  0  0  0  0  0  0  0  0  0
    1.1970    5.7019   -0.5788 H   0  0  0  0  0  0  0  0  0  0  0  0
    2.0846    5.5523    1.7309 H   0  0  0  0  0  0  0  0  0  0  0  0
    1.9909    3.3978    2.9561 H   0  0  0  0  0  0  0  0  0  0  0  0
    0.9990    1.4099    1.9048 H   0  0  0  0  0  0  0  0  0  0  0  0
   -2.2744    2.7226   -1.3297 H   0  0  0  0  0  0  0  0  0  0  0  0
   -4.1930    4.1186   -0.7131 H   0  0  0  0  0  0  0  0  0  0  0  0
   -4.8416    1.7036    2.7973 H   0  0  0  0  0  0  0  0  0  0  0  0
   -2.8982    0.2963    2.1947 H   0  0  0  0  0  0  0  0  0  0  0  0
    4.1378   -4.3482    1.6243 H   0  0  0  0  0  0  0  0  0  0  0  0
    4.9852   -2.8310    1.9988 H   0  0  0  0  0  0  0  0  0  0  0  0
    6.5631   -4.7443    1.9695 H   0  0  0  0  0  0  0  0  0  0  0  0
    6.9701   -3.4983    0.7891 H   0  0  0  0  0  0  0  0  0  0  0  0
    5.5085   -6.1184    0.1978 H   0  0  0  0  0  0  0  0  0  0  0  0
    7.1759   -5.7324   -0.2418 H   0  0  0  0  0  0  0  0  0  0  0  0
    5.6085   -5.4050   -2.1643 H   0  0  0  0  0  0  0  0  0  0  0  0
    6.4166   -3.9034   -1.7088 H   0  0  0  0  0  0  0  0  0  0  0  0
    4.0712   -3.4695   -2.0833 H   0  0  0  0  0  0  0  0  0  0  0  0
    3.5703   -4.7510   -0.9639 H   0  0  0  0  0  0  0  0  0  0  0  0
    1.4864   -4.3470    1.3771 H   0  0  0  0  0  0  0  0  0  0  0  0
    0.8343   -5.8822    1.5875 H   0  0  0  0  0  0  0  0  0  0  0  0
   -1.1857   -6.3455    2.6952 H   0  0  0  0  0  0  0  0  0  0  0  0
   -2.9775   -8.0469    2.5173 H   0  0  0  0  0  0  0  0  0  0  0  0
   -4.0996   -6.5096   -1.3148 H   0  0  0  0  0  0  0  0  0  0  0  0
   -2.2961   -4.7893   -1.1796 H   0  0  0  0  0  0  0  0  0  0  0  0
  1  5  1  0  0  0  0
  1  2  1  0  0  0  0
  1 19  1  0  0  0  0
  2  3  2  0  0  0  0
  3  4  1  0  0  0  0
  3 12  1  0  0  0  0
  4  5  1  0  0  0  0
  4  6  1  0  0  0  0
  4 40  1  6  0  0  0
  5 41  1  0  0  0  0
  5 42  1  0  0  0  0
  6 11  2  0  0  0  0
  6  7  1  0  0  0  0
  7  8  2  0  0  0  0
  7 43  1  0  0  0  0
  8  9  1  0  0  0  0
  8 44  1  0  0  0  0
  9 10  2  0  0  0  0
  9 45  1  0  0  0  0
 10 11  1  0  0  0  0
 10 46  1  0  0  0  0
 11 47  1  0  0  0  0
 12 17  2  0  0  0  0
 12 13  1  0  0  0  0
 13 14  2  0  0  0  0
 13 48  1  0  0  0  0
 14 15  1  0  0  0  0
 14 49  1  0  0  0  0
 15 16  2  0  0  0  0
 15 18  1  0  0  0  0
 16 17  1  0  0  0  0
 16 50  1  0  0  0  0
 17 51  1  0  0  0  0
 19 20  2  0  0  0  0
 19 30  1  0  0  0  0
 20 21  1  0  0  0  0
 21 22  2  0  0  0  0
 21 23  2  0  0  0  0
 21 24  1  0  0  0  0
 24 29  1  0  0  0  0
 24 25  1  0  0  0  0
 25 26  1  0  0  0  0
 25 52  1  0  0  0  0
 25 53  1  0  0  0  0
 26 27  1  0  0  0  0
 26 54  1  0  0  0  0
 26 55  1  0  0  0  0
 27 28  1  0  0  0  0
 27 56  1  0  0  0  0
 27 57  1  0  0  0  0
 28 29  1  0  0  0  0
 28 58  1  0  0  0  0
 28 59  1  0  0  0  0
 29 60  1  0  0  0  0
 29 61  1  0  0  0  0
 30 31  2  0  0  0  0
 31 32  1  0  0  0  0
 31 33  1  0  0  0  0
 32 62  1  0  0  0  0
 32 63  1  0  0  0  0
 33 38  2  0  0  0  0
 33 34  1  0  0  0  0
 34 35  2  0  0  0  0
 34 64  1  0  0  0  0
 35 36  1  0  0  0  0
 35 65  1  0  0  0  0
 36 37  2  0  0  0  0
 36 39  1  0  0  0  0
 37 38  1  0  0  0  0
 37 66  1  0  0  0  0
 38 67  1  0  0  0  0
M  END
$$$$
CHEMBL5087110_5ZTY
 OpenBabel12022418133D

 60 63  0  0  1  0  0  0  0  0999 V2000
    0.2903   -1.2137   -0.1846 N   0  0  0  0  0  0  0  0  0  0  0  0
    1.2596   -0.2402   -0.2206 N   0  0  0  0  0  0  0  0  0  0  0  0
    0.6657    0.9093   -0.0878 C   0  0  0  0  0  0  0  0  0  0  0  0
   -0.8401    0.8652    0.0249 C   0  0  2  0  0  0  0  0  0  0  0  0
   -1.0474   -0.6491    0.0153 C   0  0  0  0  0  0  0  0  0  0  0  0
   -1.5504    1.6098   -1.0910 C   0  0  0  0  0  0  0  0  0  0  0  0
   -2.4026    2.6856   -0.7896 C   0  0  0  0  0  0  0  0  0  0  0  0
   -3.0513    3.3894   -1.8075 C   0  0  0  0  0  0  0  0  0  0  0  0
   -2.8634    3.0258   -3.1385 C   0  0  0  0  0  0  0  0  0  0  0  0
   -2.0179    1.9652   -3.4536 C   0  0  0  0  0  0  0  0  0  0  0  0
   -1.3619    1.2663   -2.4382 C   0  0  0  0  0  0  0  0  0  0  0  0
    1.4059    2.1922   -0.0654 C   0  0  0  0  0  0  0  0  0  0  0  0
    0.8967    3.3152    0.5947 C   0  0  0  0  0  0  0  0  0  0  0  0
    1.6028    4.5222    0.5689 C   0  0  0  0  0  0  0  0  0  0  0  0
    2.8127    4.6001   -0.1150 C   0  0  0  0  0  0  0  0  0  0  0  0
    3.3325    3.4810   -0.7633 C   0  0  0  0  0  0  0  0  0  0  0  0
    2.6333    2.2721   -0.7328 C   0  0  0  0  0  0  0  0  0  0  0  0
    3.6702    6.0900   -0.1619 Cl  0  0  0  0  0  0  0  0  0  0  0  0
    0.5080   -2.5904   -0.0762 C   0  0  0  0  0  0  0  0  0  0  0  0
   -0.3631   -3.2507    0.6234 N   0  0  0  0  0  0  0  0  0  0  0  0
   -0.4617   -4.8297    0.8506 S   0  0  0  0  0  0  0  0  0  0  0  0
   -1.6577   -5.0165    1.6492 O   0  0  0  0  0  0  0  0  0  0  0  0
   -0.4082   -5.5009   -0.4339 O   0  0  0  0  0  0  0  0  0  0  0  0
    0.7797   -5.4848    1.8173 N   0  0  0  0  0  0  0  0  0  0  0  0
    2.0498   -5.8046    1.1401 C   0  0  0  0  0  0  0  0  0  0  0  0
    2.8555   -6.7849    1.9882 C   0  0  0  0  0  0  0  0  0  0  0  0
    3.1287   -6.1911    3.3636 C   0  0  0  0  0  0  0  0  0  0  0  0
    1.8114   -5.8374    4.0463 C   0  0  0  0  0  0  0  0  0  0  0  0
    0.9351   -4.9250    3.1783 C   0  0  0  0  0  0  0  0  0  0  0  0
    1.6037   -3.2394   -0.5803 N   0  0  0  0  0  0  0  0  0  0  0  0
    2.2255   -2.9364   -1.6857 C   0  0  0  0  0  0  0  0  0  0  0  0
    3.3225   -3.7015   -2.0013 N   0  0  0  0  0  0  0  0  0  0  0  0
    1.9027   -1.8566   -2.6938 C   0  0  0  0  0  0  0  0  0  0  0  0
   -1.1450    1.2551    1.0033 H   0  0  0  0  0  0  0  0  0  0  0  0
   -1.4676   -0.9684    0.9761 H   0  0  0  0  0  0  0  0  0  0  0  0
   -1.7272   -0.9877   -0.7756 H   0  0  0  0  0  0  0  0  0  0  0  0
   -2.5703    2.9932    0.2404 H   0  0  0  0  0  0  0  0  0  0  0  0
   -3.7062    4.2228   -1.5633 H   0  0  0  0  0  0  0  0  0  0  0  0
   -3.3744    3.5678   -3.9300 H   0  0  0  0  0  0  0  0  0  0  0  0
   -1.8678    1.6812   -4.4921 H   0  0  0  0  0  0  0  0  0  0  0  0
   -0.6993    0.4483   -2.7143 H   0  0  0  0  0  0  0  0  0  0  0  0
   -0.0411    3.2766    1.1401 H   0  0  0  0  0  0  0  0  0  0  0  0
    1.2003    5.3932    1.0799 H   0  0  0  0  0  0  0  0  0  0  0  0
    4.2779    3.5408   -1.2953 H   0  0  0  0  0  0  0  0  0  0  0  0
    3.0404    1.4025   -1.2437 H   0  0  0  0  0  0  0  0  0  0  0  0
    2.6354   -4.8965    0.9815 H   0  0  0  0  0  0  0  0  0  0  0  0
    1.8597   -6.2819    0.1741 H   0  0  0  0  0  0  0  0  0  0  0  0
    3.8011   -7.0184    1.4872 H   0  0  0  0  0  0  0  0  0  0  0  0
    2.3060   -7.7290    2.0994 H   0  0  0  0  0  0  0  0  0  0  0  0
    3.7479   -5.2915    3.2619 H   0  0  0  0  0  0  0  0  0  0  0  0
    3.6931   -6.9041    3.9751 H   0  0  0  0  0  0  0  0  0  0  0  0
    2.0160   -5.3512    5.0073 H   0  0  0  0  0  0  0  0  0  0  0  0
    1.2690   -6.7652    4.2704 H   0  0  0  0  0  0  0  0  0  0  0  0
   -0.0402   -4.8394    3.6696 H   0  0  0  0  0  0  0  0  0  0  0  0
    1.3795   -3.9262    3.1184 H   0  0  0  0  0  0  0  0  0  0  0  0
    3.3217   -4.6078   -1.5485 H   0  0  0  0  0  0  0  0  0  0  0  0
    3.6109   -3.7281   -2.9719 H   0  0  0  0  0  0  0  0  0  0  0  0
    0.9316   -1.3907   -2.5583 H   0  0  0  0  0  0  0  0  0  0  0  0
    1.9139   -2.2921   -3.6999 H   0  0  0  0  0  0  0  0  0  0  0  0
    2.6917   -1.0957   -2.6603 H   0  0  0  0  0  0  0  0  0  0  0  0
  1  5  1  0  0  0  0
  1  2  1  0  0  0  0
  1 19  1  0  0  0  0
  2  3  2  0  0  0  0
  3  4  1  0  0  0  0
  3 12  1  0  0  0  0
  4  5  1  0  0  0  0
  4  6  1  0  0  0  0
  4 34  1  1  0  0  0
  5 35  1  0  0  0  0
  5 36  1  0  0  0  0
  6 11  2  0  0  0  0
  6  7  1  0  0  0  0
  7  8  2  0  0  0  0
  7 37  1  0  0  0  0
  8  9  1  0  0  0  0
  8 38  1  0  0  0  0
  9 10  2  0  0  0  0
  9 39  1  0  0  0  0
 10 11  1  0  0  0  0
 10 40  1  0  0  0  0
 11 41  1  0  0  0  0
 12 17  2  0  0  0  0
 12 13  1  0  0  0  0
 13 14  2  0  0  0  0
 13 42  1  0  0  0  0
 14 15  1  0  0  0  0
 14 43  1  0  0  0  0
 15 16  2  0  0  0  0
 15 18  1  0  0  0  0
 16 17  1  0  0  0  0
 16 44  1  0  0  0  0
 17 45  1  0  0  0  0
 19 20  2  0  0  0  0
 19 30  1  0  0  0  0
 20 21  1  0  0  0  0
 21 22  2  0  0  0  0
 21 23  2  0  0  0  0
 21 24  1  0  0  0  0
 24 29  1  0  0  0  0
 24 25  1  0  0  0  0
 25 26  1  0  0  0  0
 25 46  1  0  0  0  0
 25 47  1  0  0  0  0
 26 27  1  0  0  0  0
 26 48  1  0  0  0  0
 26 49  1  0  0  0  0
 27 28  1  0  0  0  0
 27 50  1  0  0  0  0
 27 51  1  0  0  0  0
 28 29  1  0  0  0  0
 28 52  1  0  0  0  0
 28 53  1  0  0  0  0
 29 54  1  0  0  0  0
 29 55  1  0  0  0  0
 30 31  2  0  0  0  0
 31 32  1  0  0  0  0
 31 33  1  0  0  0  0
 32 56  1  0  0  0  0
 32 57  1  0  0  0  0
 33 58  1  0  0  0  0
 33 59  1  0  0  0  0
 33 60  1  0  0  0  0
M  END
$$$$
CHEMBL4092467_5ZTY
 OpenBabel12022418133D

 50 51  0  0  0  0  0  0  0  0999 V2000
   -2.4792   -0.8312    0.1031 C   0  0  0  0  0  0  0  0  0  0  0  0
   -2.5187    0.5495   -0.0157 C   0  0  0  0  0  0  0  0  0  0  0  0
   -1.3310    1.2743   -0.0308 C   0  0  0  0  0  0  0  0  0  0  0  0
   -0.0800    0.6383    0.0635 C   0  0  0  0  0  0  0  0  0  0  0  0
   -0.0433   -0.7607    0.1757 C   0  0  0  0  0  0  0  0  0  0  0  0
   -1.2521   -1.5064    0.2144 C   0  0  0  0  0  0  0  0  0  0  0  0
   -1.3014   -3.0058    0.3452 C   0  0  0  0  0  0  0  0  0  0  0  0
    1.2951   -1.4147    0.2157 C   0  0  0  0  0  0  0  0  0  0  0  0
    1.4014   -2.6159    0.4504 O   0  0  0  0  0  0  0  0  0  0  0  0
    2.3927   -0.6186   -0.0788 N   0  0  0  0  0  0  0  0  0  0  0  0
    2.3376    0.7462   -0.3151 C   0  0  0  0  0  0  0  0  0  0  0  0
    3.3052    1.3545   -0.7792 O   0  0  0  0  0  0  0  0  0  0  0  0
    1.1322    1.3840   -0.0213 N   0  0  0  0  0  0  0  0  0  0  0  0
    1.1163    2.8597   -0.0106 C   0  0  0  0  0  0  0  0  0  0  0  0
    0.6075    3.4942    1.3041 C   0  0  0  0  0  0  0  0  0  0  0  0
    0.4889    4.9945    1.2044 C   0  0  0  0  0  0  0  0  0  0  0  0
   -0.6690    5.6677    1.2441 C   0  0  0  0  0  0  0  0  0  0  0  0
    3.7121   -1.2540   -0.1724 C   0  0  0  0  0  0  0  0  0  0  0  0
    4.5974   -0.9383    1.0510 C   0  0  0  0  0  0  0  0  0  0  0  0
    4.2011   -0.2610    1.9953 O   0  0  0  0  0  0  0  0  0  0  0  0
    5.8741   -1.4855    0.9865 N   0  0  0  0  0  0  0  0  0  0  0  0
    6.9188   -1.2968    2.0213 C   0  0  0  0  0  0  0  0  0  0  0  0
    6.4501   -1.8616    3.3715 C   0  0  0  0  0  0  0  0  0  0  0  0
    8.1969   -2.0603    1.6136 C   0  0  0  0  0  0  0  0  0  0  0  0
    7.2944    0.1878    2.1636 C   0  0  0  0  0  0  0  0  0  0  0  0
   -3.4177   -1.3834    0.0954 H   0  0  0  0  0  0  0  0  0  0  0  0
   -3.4719    1.0643   -0.1119 H   0  0  0  0  0  0  0  0  0  0  0  0
   -1.4211    2.3485   -0.1608 H   0  0  0  0  0  0  0  0  0  0  0  0
   -2.3353   -3.3682    0.3907 H   0  0  0  0  0  0  0  0  0  0  0  0
   -0.8191   -3.3283    1.2726 H   0  0  0  0  0  0  0  0  0  0  0  0
   -0.8320   -3.4825   -0.5204 H   0  0  0  0  0  0  0  0  0  0  0  0
    0.5425    3.2009   -0.8802 H   0  0  0  0  0  0  0  0  0  0  0  0
    2.1362    3.2330   -0.1639 H   0  0  0  0  0  0  0  0  0  0  0  0
    1.2990    3.2538    2.1198 H   0  0  0  0  0  0  0  0  0  0  0  0
   -0.3566    3.0797    1.6127 H   0  0  0  0  0  0  0  0  0  0  0  0
    1.4177    5.5533    1.1136 H   0  0  0  0  0  0  0  0  0  0  0  0
   -1.6248    5.1648    1.3457 H   0  0  0  0  0  0  0  0  0  0  0  0
   -0.6820    6.7540    1.1879 H   0  0  0  0  0  0  0  0  0  0  0  0
    4.2217   -0.9007   -1.0748 H   0  0  0  0  0  0  0  0  0  0  0  0
    3.6185   -2.3423   -0.2396 H   0  0  0  0  0  0  0  0  0  0  0  0
    6.1220   -2.0200    0.1637 H   0  0  0  0  0  0  0  0  0  0  0  0
    6.1923   -2.9232    3.2807 H   0  0  0  0  0  0  0  0  0  0  0  0
    5.5660   -1.3428    3.7528 H   0  0  0  0  0  0  0  0  0  0  0  0
    7.2334   -1.7705    4.1323 H   0  0  0  0  0  0  0  0  0  0  0  0
    8.0191   -3.1399    1.5554 H   0  0  0  0  0  0  0  0  0  0  0  0
    9.0016   -1.8984    2.3424 H   0  0  0  0  0  0  0  0  0  0  0  0
    8.5675   -1.7333    0.6353 H   0  0  0  0  0  0  0  0  0  0  0  0
    6.4442    0.8005    2.4761 H   0  0  0  0  0  0  0  0  0  0  0  0
    7.6623    0.5933    1.2136 H   0  0  0  0  0  0  0  0  0  0  0  0
    8.0855    0.3244    2.9109 H   0  0  0  0  0  0  0  0  0  0  0  0
  1  6  2  0  0  0  0
  1  2  1  0  0  0  0
  1 26  1  0  0  0  0
  2  3  2  0  0  0  0
  2 27  1  0  0  0  0
  3  4  1  0  0  0  0
  3 28  1  0  0  0  0
  4 13  1  0  0  0  0
  4  5  2  0  0  0  0
  5  6  1  0  0  0  0
  5  8  1  0  0  0  0
  6  7  1  0  0  0  0
  7 29  1  0  0  0  0
  7 30  1  0  0  0  0
  7 31  1  0  0  0  0
  8  9  2  0  0  0  0
  8 10  1  0  0  0  0
 10 11  1  0  0  0  0
 10 18  1  0  0  0  0
 11 12  2  0  0  0  0
 11 13  1  0  0  0  0
 13 14  1  0  0  0  0
 14 15  1  0  0  0  0
 14 32  1  0  0  0  0
 14 33  1  0  0  0  0
 15 16  1  0  0  0  0
 15 34  1  0  0  0  0
 15 35  1  0  0  0  0
 16 17  2  0  0  0  0
 16 36  1  0  0  0  0
 17 37  1  0  0  0  0
 17 38  1  0  0  0  0
 18 19  1  0  0  0  0
 18 39  1  0  0  0  0
 18 40  1  0  0  0  0
 19 20  2  0  0  0  0
 19 21  1  0  0  0  0
 21 22  1  0  0  0  0
 21 41  1  0  0  0  0
 22 23  1  0  0  0  0
 22 24  1  0  0  0  0
 22 25  1  0  0  0  0
 23 42  1  0  0  0  0
 23 43  1  0  0  0  0
 23 44  1  0  0  0  0
 24 45  1  0  0  0  0
 24 46  1  0  0  0  0
 24 47  1  0  0  0  0
 25 48  1  0  0  0  0
 25 49  1  0  0  0  0
 25 50  1  0  0  0  0
M  END
$$$$
CHEMBL5089095_5ZTY
 OpenBabel12022418133D

 67 71  0  0  1  0  0  0  0  0999 V2000
    0.1198   -1.0775    0.0474 N   0  0  0  0  0  0  0  0  0  0  0  0
   -1.1439   -0.6507    0.4129 N   0  0  0  0  0  0  0  0  0  0  0  0
   -1.2729    0.5882    0.0421 C   0  0  0  0  0  0  0  0  0  0  0  0
   -0.1007    1.1923   -0.6724 C   0  0  2  0  0  0  0  0  0  0  0  0
    0.8215   -0.0137   -0.6733 C   0  0  0  0  0  0  0  0  0  0  0  0
    0.4909    2.4097    0.0161 C   0  0  0  0  0  0  0  0  0  0  0  0
    0.5691    3.6333   -0.6670 C   0  0  0  0  0  0  0  0  0  0  0  0
    1.1007    4.7642   -0.0435 C   0  0  0  0  0  0  0  0  0  0  0  0
    1.5740    4.6847    1.2640 C   0  0  0  0  0  0  0  0  0  0  0  0
    1.5153    3.4750    1.9507 C   0  0  0  0  0  0  0  0  0  0  0  0
    0.9734    2.3462    1.3344 C   0  0  0  0  0  0  0  0  0  0  0  0
   -2.4808    1.3901    0.3125 C   0  0  0  0  0  0  0  0  0  0  0  0
   -2.8465    2.4487   -0.5279 C   0  0  0  0  0  0  0  0  0  0  0  0
   -3.9565    3.2330   -0.2130 C   0  0  0  0  0  0  0  0  0  0  0  0
   -4.6948    2.9533    0.9354 C   0  0  0  0  0  0  0  0  0  0  0  0
   -4.3376    1.8943    1.7697 C   0  0  0  0  0  0  0  0  0  0  0  0
   -3.2296    1.1060    1.4568 C   0  0  0  0  0  0  0  0  0  0  0  0
   -6.0576    3.9270    1.3244 Cl  0  0  0  0  0  0  0  0  0  0  0  0
    0.5373   -2.4242    0.1020 C   0  0  0  0  0  0  0  0  0  0  0  0
    1.7384   -2.9208    0.0785 N   0  0  0  0  0  0  0  0  0  0  0  0
    3.0579   -2.0021    0.0400 S   0  0  0  0  0  0  0  0  0  0  0  0
    3.1150   -1.3278   -1.2431 O   0  0  0  0  0  0  0  0  0  0  0  0
    3.1537   -1.2415    1.2706 O   0  0  0  0  0  0  0  0  0  0  0  0
    4.4023   -3.0262   -0.0133 N   0  0  0  0  0  0  0  0  0  0  0  0
    4.8691   -3.5846    1.2667 C   0  0  0  0  0  0  0  0  0  0  0  0
    6.2366   -4.2339    1.0643 C   0  0  0  0  0  0  0  0  0  0  0  0
    6.1897   -5.2772   -0.0470 C   0  0  0  0  0  0  0  0  0  0  0  0
    5.6984   -4.6456   -1.3425 C   0  0  0  0  0  0  0  0  0  0  0  0
    4.3462   -3.9859   -1.1396 C   0  0  0  0  0  0  0  0  0  0  0  0
   -0.4809   -3.3858    0.1249 N   0  0  0  0  0  0  0  0  0  0  0  0
   -0.4266   -4.4868    0.8160 C   0  0  0  0  0  0  0  0  0  0  0  0
    0.6380   -4.8803    1.5976 N   0  0  0  0  0  0  0  0  0  0  0  0
   -1.5962   -5.4537    0.7501 C   0  0  0  0  0  0  0  0  0  0  0  0
   -1.8090   -6.3635    1.8015 C   0  0  0  0  0  0  0  0  0  0  0  0
   -2.8223   -7.3257    1.7221 C   0  0  0  0  0  0  0  0  0  0  0  0
   -3.6356   -7.3802    0.5961 C   0  0  0  0  0  0  0  0  0  0  0  0
   -3.4539   -6.4720   -0.4483 C   0  0  0  0  0  0  0  0  0  0  0  0
   -2.4380   -5.5035   -0.3685 C   0  0  0  0  0  0  0  0  0  0  0  0
   -4.8573   -8.5883    0.4809 Cl  0  0  0  0  0  0  0  0  0  0  0  0
   -0.3783    1.4268   -1.7066 H   0  0  0  0  0  0  0  0  0  0  0  0
    1.0075   -0.3190   -1.7085 H   0  0  0  0  0  0  0  0  0  0  0  0
    1.7577    0.2568   -0.1865 H   0  0  0  0  0  0  0  0  0  0  0  0
    0.2171    3.7208   -1.6923 H   0  0  0  0  0  0  0  0  0  0  0  0
    1.1491    5.7088   -0.5794 H   0  0  0  0  0  0  0  0  0  0  0  0
    1.9924    5.5637    1.7472 H   0  0  0  0  0  0  0  0  0  0  0  0
    1.8942    3.4066    2.9675 H   0  0  0  0  0  0  0  0  0  0  0  0
    0.9437    1.4109    1.8932 H   0  0  0  0  0  0  0  0  0  0  0  0
   -2.2843    2.6827   -1.4260 H   0  0  0  0  0  0  0  0  0  0  0  0
   -4.2325    4.0597   -0.8614 H   0  0  0  0  0  0  0  0  0  0  0  0
   -4.9083    1.6823    2.6694 H   0  0  0  0  0  0  0  0  0  0  0  0
   -2.9377    0.2913    2.1167 H   0  0  0  0  0  0  0  0  0  0  0  0
    4.1447   -4.3086    1.6529 H   0  0  0  0  0  0  0  0  0  0  0  0
    4.9900   -2.7849    2.0059 H   0  0  0  0  0  0  0  0  0  0  0  0
    6.5715   -4.6955    1.9990 H   0  0  0  0  0  0  0  0  0  0  0  0
    6.9740   -3.4628    0.8031 H   0  0  0  0  0  0  0  0  0  0  0  0
    5.5148   -6.0913    0.2437 H   0  0  0  0  0  0  0  0  0  0  0  0
    7.1826   -5.7112   -0.1999 H   0  0  0  0  0  0  0  0  0  0  0  0
    5.6168   -5.4058   -2.1265 H   0  0  0  0  0  0  0  0  0  0  0  0
    6.4241   -3.8988   -1.6882 H   0  0  0  0  0  0  0  0  0  0  0  0
    4.0812   -3.4683   -2.0683 H   0  0  0  0  0  0  0  0  0  0  0  0
    3.5777   -4.7408   -0.9398 H   0  0  0  0  0  0  0  0  0  0  0  0
    1.4743   -4.3497    1.3708 H   0  0  0  0  0  0  0  0  0  0  0  0
    0.8247   -5.8774    1.5842 H   0  0  0  0  0  0  0  0  0  0  0  0
   -1.1947   -6.3257    2.6979 H   0  0  0  0  0  0  0  0  0  0  0  0
   -2.9681   -8.0261    2.5412 H   0  0  0  0  0  0  0  0  0  0  0  0
   -4.0902   -6.5154   -1.3269 H   0  0  0  0  0  0  0  0  0  0  0  0
   -2.2980   -4.8057   -1.1898 H   0  0  0  0  0  0  0  0  0  0  0  0
  1  5  1  0  0  0  0
  1  2  1  0  0  0  0
  1 19  1  0  0  0  0
  2  3  2  0  0  0  0
  3  4  1  0  0  0  0
  3 12  1  0  0  0  0
  4  5  1  0  0  0  0
  4  6  1  0  0  0  0
  4 40  1  6  0  0  0
  5 41  1  0  0  0  0
  5 42  1  0  0  0  0
  6 11  2  0  0  0  0
  6  7  1  0  0  0  0
  7  8  2  0  0  0  0
  7 43  1  0  0  0  0
  8  9  1  0  0  0  0
  8 44  1  0  0  0  0
  9 10  2  0  0  0  0
  9 45  1  0  0  0  0
 10 11  1  0  0  0  0
 10 46  1  0  0  0  0
 11 47  1  0  0  0  0
 12 17  2  0  0  0  0
 12 13  1  0  0  0  0
 13 14  2  0  0  0  0
 13 48  1  0  0  0  0
 14 15  1  0  0  0  0
 14 49  1  0  0  0  0
 15 16  2  0  0  0  0
 15 18  1  0  0  0  0
 16 17  1  0  0  0  0
 16 50  1  0  0  0  0
 17 51  1  0  0  0  0
 19 20  2  0  0  0  0
 19 30  1  0  0  0  0
 20 21  1  0  0  0  0
 21 22  2  0  0  0  0
 21 23  2  0  0  0  0
 21 24  1  0  0  0  0
 24 29  1  0  0  0  0
 24 25  1  0  0  0  0
 25 26  1  0  0  0  0
 25 52  1  0  0  0  0
 25 53  1  0  0  0  0
 26 27  1  0  0  0  0
 26 54  1  0  0  0  0
 26 55  1  0  0  0  0
 27 28  1  0  0  0  0
 27 56  1  0  0  0  0
 27 57  1  0  0  0  0
 28 29  1  0  0  0  0
 28 58  1  0  0  0  0
 28 59  1  0  0  0  0
 29 60  1  0  0  0  0
 29 61  1  0  0  0  0
 30 31  2  0  0  0  0
 31 32  1  0  0  0  0
 31 33  1  0  0  0  0
 32 62  1  0  0  0  0
 32 63  1  0  0  0  0
 33 38  2  0  0  0  0
 33 34  1  0  0  0  0
 34 35  2  0  0  0  0
 34 64  1  0  0  0  0
 35 36  1  0  0  0  0
 35 65  1  0  0  0  0
 36 37  2  0  0  0  0
 36 39  1  0  0  0  0
 37 38  1  0  0  0  0
 37 66  1  0  0  0  0
 38 67  1  0  0  0  0
M  END
$$$$
CHEMBL4175548	8GUQ	best_smi
 OpenBabel12022418133D

 40 44  0  0  1  0  0  0  0  0999 V2000
    1.9232    1.5365    0.2068 O   0  0  0  0  0  0  0  0  0  0  0  0
    2.5788    0.5926   -0.2301 C   0  0  0  0  0  0  0  0  0  0  0  0
    2.6217   -0.6379    0.3978 N   0  0  0  0  0  0  0  0  0  0  0  0
    1.8857   -0.9141    1.6274 C   0  0  0  0  0  0  0  0  0  0  0  0
    2.2447   -0.0659    2.8612 C   0  0  0  0  0  0  0  0  0  0  0  0
    3.2965    0.7543    2.6244 F   0  0  0  0  0  0  0  0  0  0  0  0
    1.1993    0.6919    3.2689 F   0  0  0  0  0  0  0  0  0  0  0  0
    2.5937   -0.8664    3.9008 F   0  0  0  0  0  0  0  0  0  0  0  0
    0.4252   -1.3507    1.5006 C   0  0  0  0  0  0  0  0  0  0  0  0
    1.4602   -2.3640    1.8595 C   0  0  0  0  0  0  0  0  0  0  0  0
    3.3175    0.6649   -1.5004 C   0  0  0  0  0  0  0  0  0  0  0  0
    4.0199   -0.3772   -2.0436 N   0  0  0  0  0  0  0  0  0  0  0  0
    4.4735    0.1239   -3.2566 N   0  0  0  0  0  0  0  0  0  0  0  0
    5.6367   -0.3173   -3.9311 C   0  0  0  0  0  0  0  0  0  0  0  0
    6.3020   -1.4361   -3.4873 C   0  0  0  0  0  0  0  0  0  0  0  0
    7.5414   -1.7214   -4.0185 N   0  3  0  0  0  0  0  0  0  0  0  0
    8.1943   -2.7352   -3.6218 O   0  5  0  0  0  0  0  0  0  0  0  0
    8.0838   -0.8816   -4.9684 C   0  0  0  0  0  0  0  0  0  0  0  0
    7.3609    0.2041   -5.3934 C   0  0  0  0  0  0  0  0  0  0  0  0
    6.1445    0.4883   -4.9097 N   0  0  0  0  0  0  0  0  0  0  0  0
    3.7706    1.2487   -3.5567 C   0  0  0  0  0  0  0  0  0  0  0  0
    3.3673    1.7720   -2.3624 C   0  0  0  0  0  0  0  0  0  0  0  0
    3.0764    3.2255   -2.4351 C   0  0  0  0  0  0  0  0  0  0  0  0
    3.1989    3.5160   -3.9503 C   0  0  2  0  0  0  0  0  0  0  0  0
    2.2253    2.8812   -4.8839 C   0  0  0  0  0  0  0  0  0  0  0  0
    3.5813    2.2208   -4.6887 C   0  0  2  0  0  0  0  0  0  0  0  0
    3.2349   -1.3372   -0.0106 H   0  0  0  0  0  0  0  0  0  0  0  0
   -0.0212   -1.3986    0.5145 H   0  0  0  0  0  0  0  0  0  0  0  0
   -0.2758   -1.0483    2.2730 H   0  0  0  0  0  0  0  0  0  0  0  0
    1.4573   -2.7504    2.8738 H   0  0  0  0  0  0  0  0  0  0  0  0
    1.7069   -3.1105    1.1140 H   0  0  0  0  0  0  0  0  0  0  0  0
    5.9858   -2.1180   -2.7171 H   0  0  0  0  0  0  0  0  0  0  0  0
    9.0708   -1.1551   -5.2980 H   0  0  0  0  0  0  0  0  0  0  0  0
    7.7557    0.9014   -6.1289 H   0  0  0  0  0  0  0  0  0  0  0  0
    3.8627    3.7822   -1.9119 H   0  0  0  0  0  0  0  0  0  0  0  0
    2.0968    3.5006   -2.0448 H   0  0  0  0  0  0  0  0  0  0  0  0
    3.7209    4.4218   -4.2151 H   0  0  0  0  0  0  0  0  0  0  0  0
    2.0280    3.3735   -5.8285 H   0  0  0  0  0  0  0  0  0  0  0  0
    1.3432    2.4115   -4.4571 H   0  0  0  0  0  0  0  0  0  0  0  0
    4.1898    2.1511   -5.5775 H   0  0  0  0  0  0  0  0  0  0  0  0
  1  2  2  0  0  0  0
  2  3  1  0  0  0  0
  2 11  1  0  0  0  0
  3  4  1  0  0  0  0
  3 27  1  0  0  0  0
  4 10  1  0  0  0  0
  4  5  1  0  0  0  0
  4  9  1  0  0  0  0
  5  6  1  0  0  0  0
  5  7  1  0  0  0  0
  5  8  1  0  0  0  0
  9 10  1  0  0  0  0
  9 28  1  0  0  0  0
  9 29  1  0  0  0  0
 10 30  1  0  0  0  0
 10 31  1  0  0  0  0
 11 22  1  0  0  0  0
 11 12  2  0  0  0  0
 12 13  1  0  0  0  0
 13 14  1  0  0  0  0
 13 21  1  0  0  0  0
 14 20  2  0  0  0  0
 14 15  1  0  0  0  0
 15 16  2  0  0  0  0
 15 32  1  0  0  0  0
 16 17  1  0  0  0  0
 16 18  1  0  0  0  0
 18 19  2  0  0  0  0
 18 33  1  0  0  0  0
 19 20  1  0  0  0  0
 19 34  1  0  0  0  0
 21 26  1  0  0  0  0
 21 22  2  0  0  0  0
 22 23  1  0  0  0  0
 23 35  1  0  0  0  0
 23 36  1  0  0  0  0
 24 23  1  0  0  0  0
 24 25  1  0  0  0  0
 24 26  1  0  0  0  0
 24 37  1  6  0  0  0
 25 38  1  0  0  0  0
 25 39  1  0  0  0  0
 26 25  1  0  0  0  0
 26 40  1  6  0  0  0
M  CHG  2  16   1  17  -1
M  END
$$$$
CHEMBL4164926	8GUQ	best_smi
 OpenBabel12022418133D

 40 44  0  0  1  0  0  0  0  0999 V2000
    3.4051    1.0249   -0.0942 C   0  0  0  0  0  0  0  0  0  0  0  0
    4.6554    1.1315    0.7518 C   0  0  0  0  0  0  0  0  0  0  0  0
    4.5015    0.8202    2.1526 N   0  0  0  0  0  0  0  0  0  0  0  0
    4.1434   -0.4100    2.6694 C   0  0  0  0  0  0  0  0  0  0  0  0
    3.9622   -1.4237    2.0046 O   0  0  0  0  0  0  0  0  0  0  0  0
    3.9364   -0.3755    4.1360 C   0  0  0  0  0  0  0  0  0  0  0  0
    4.2475    0.7182    4.8903 N   0  0  0  0  0  0  0  0  0  0  0  0
    3.9200    0.3503    6.1762 N   0  0  0  0  0  0  0  0  0  0  0  0
    4.5818    0.8477    7.3331 C   0  0  0  0  0  0  0  0  0  0  0  0
    5.7008    1.6368    7.1614 C   0  0  0  0  0  0  0  0  0  0  0  0
    6.5185    1.8609    8.2421 N   0  3  0  0  0  0  0  0  0  0  0  0
    7.6003    2.5112    8.1053 O   0  5  0  0  0  0  0  0  0  0  0  0
    6.1758    1.3457    9.4711 C   0  0  0  0  0  0  0  0  0  0  0  0
    5.0169    0.6179    9.5939 C   0  0  0  0  0  0  0  0  0  0  0  0
    4.2184    0.3571    8.5482 N   0  0  0  0  0  0  0  0  0  0  0  0
    3.1111   -0.7407    6.1434 C   0  0  0  0  0  0  0  0  0  0  0  0
    3.4118   -1.3803    4.9705 C   0  0  0  0  0  0  0  0  0  0  0  0
    3.1222   -2.8372    5.0197 C   0  0  0  0  0  0  0  0  0  0  0  0
    2.4357   -3.0036    6.3962 C   0  0  2  0  0  0  0  0  0  0  0  0
    1.1141   -2.3610    6.6483 C   0  0  0  0  0  0  0  0  0  0  0  0
    2.3657   -1.6343    7.0998 C   0  0  2  0  0  0  0  0  0  0  0  0
    5.9724    0.8371    0.0713 C   0  0  0  0  0  0  0  0  0  0  0  0
    5.6093    2.2556    0.3940 C   0  0  0  0  0  0  0  0  0  0  0  0
    2.5602    1.5170    0.3975 H   0  0  0  0  0  0  0  0  0  0  0  0
    3.1453   -0.0236   -0.2718 H   0  0  0  0  0  0  0  0  0  0  0  0
    3.5348    1.4990   -1.0755 H   0  0  0  0  0  0  0  0  0  0  0  0
    4.5818    1.5694    2.8338 H   0  0  0  0  0  0  0  0  0  0  0  0
    6.0827    2.0229    6.2309 H   0  0  0  0  0  0  0  0  0  0  0  0
    6.8849    1.5474   10.2547 H   0  0  0  0  0  0  0  0  0  0  0  0
    4.7102    0.1912   10.5443 H   0  0  0  0  0  0  0  0  0  0  0  0
    4.0610   -3.3977    5.0301 H   0  0  0  0  0  0  0  0  0  0  0  0
    2.4808   -3.1878    4.2067 H   0  0  0  0  0  0  0  0  0  0  0  0
    2.7599   -3.8534    6.9795 H   0  0  0  0  0  0  0  0  0  0  0  0
    0.4742   -2.7873    7.4138 H   0  0  0  0  0  0  0  0  0  0  0  0
    0.5591   -1.9791    5.7965 H   0  0  0  0  0  0  0  0  0  0  0  0
    2.4507   -1.4782    8.1652 H   0  0  0  0  0  0  0  0  0  0  0  0
    5.9591    0.5357   -0.9707 H   0  0  0  0  0  0  0  0  0  0  0  0
    6.7537    0.3612    0.6517 H   0  0  0  0  0  0  0  0  0  0  0  0
    6.1619    2.7462    1.1899 H   0  0  0  0  0  0  0  0  0  0  0  0
    5.3635    2.9146   -0.4282 H   0  0  0  0  0  0  0  0  0  0  0  0
  1  2  1  0  0  0  0
  1 24  1  0  0  0  0
  1 25  1  0  0  0  0
  1 26  1  0  0  0  0
  2 23  1  0  0  0  0
  2  3  1  0  0  0  0
  2 22  1  0  0  0  0
  3  4  1  0  0  0  0
  3 27  1  0  0  0  0
  4  5  2  0  0  0  0
  4  6  1  0  0  0  0
  6 17  1  0  0  0  0
  6  7  2  0  0  0  0
  7  8  1  0  0  0  0
  8  9  1  0  0  0  0
  8 16  1  0  0  0  0
  9 15  2  0  0  0  0
  9 10  1  0  0  0  0
 10 11  2  0  0  0  0
 10 28  1  0  0  0  0
 11 12  1  0  0  0  0
 11 13  1  0  0  0  0
 13 14  2  0  0  0  0
 13 29  1  0  0  0  0
 14 15  1  0  0  0  0
 14 30  1  0  0  0  0
 16 21  1  0  0  0  0
 16 17  2  0  0  0  0
 17 18  1  0  0  0  0
 18 31  1  0  0  0  0
 18 32  1  0  0  0  0
 19 18  1  0  0  0  0
 19 20  1  0  0  0  0
 19 21  1  0  0  0  0
 19 33  1  1  0  0  0
 20 34  1  0  0  0  0
 20 35  1  0  0  0  0
 21 20  1  0  0  0  0
 21 36  1  1  0  0  0
 22 23  1  0  0  0  0
 22 37  1  0  0  0  0
 22 38  1  0  0  0  0
 23 39  1  0  0  0  0
 23 40  1  0  0  0  0
M  CHG  2  11   1  12  -1
M  END
$$$$
CHEMBL4172104	8GUQ	best_smi
 OpenBabel12022418133D

 42 45  0  0  1  0  0  0  0  0999 V2000
   -0.9312    0.2401   -2.3398 C   0  0  0  0  0  0  0  0  0  0  0  0
    0.5512    0.1031   -1.9312 C   0  0  0  0  0  0  0  0  0  0  0  0
    1.0462   -1.2488   -2.4813 C   0  0  0  0  0  0  0  0  0  0  0  0
    1.2937    1.2099   -2.5882 N   0  0  0  0  0  0  0  0  0  0  0  0
    2.6324    1.4635   -2.3799 C   0  0  0  0  0  0  0  0  0  0  0  0
    3.3440    0.7606   -1.6686 O   0  0  0  0  0  0  0  0  0  0  0  0
    3.1381    2.6421   -3.1029 C   0  0  0  0  0  0  0  0  0  0  0  0
    2.3449    3.3936   -3.9159 N   0  0  0  0  0  0  0  0  0  0  0  0
    3.2040    4.2808   -4.5296 N   0  0  0  0  0  0  0  0  0  0  0  0
    2.7870    5.1745   -5.5526 C   0  0  0  0  0  0  0  0  0  0  0  0
    1.4504    5.2140   -5.8952 C   0  0  0  0  0  0  0  0  0  0  0  0
    1.0474    6.0495   -6.9073 N   0  3  0  0  0  0  0  0  0  0  0  0
   -0.1741    6.1038   -7.2507 O   0  5  0  0  0  0  0  0  0  0  0  0
    1.9823    6.8282   -7.5545 C   0  0  0  0  0  0  0  0  0  0  0  0
    3.2973    6.7581   -7.1630 C   0  0  0  0  0  0  0  0  0  0  0  0
    3.7173    5.9505   -6.1738 N   0  0  0  0  0  0  0  0  0  0  0  0
    4.4535    4.1568   -4.0134 C   0  0  0  0  0  0  0  0  0  0  0  0
    4.4579    3.1195   -3.1262 C   0  0  0  0  0  0  0  0  0  0  0  0
    5.8119    2.7428   -2.6497 C   0  0  0  0  0  0  0  0  0  0  0  0
    6.7225    3.6837   -3.4692 C   0  0  2  0  0  0  0  0  0  0  0  0
    6.7446    5.1496   -3.1803 C   0  0  0  0  0  0  0  0  0  0  0  0
    5.8471    4.6611   -4.2916 C   0  0  2  0  0  0  0  0  0  0  0  0
    0.6502    0.1134   -0.3644 C   0  0  0  0  0  0  0  0  0  0  0  0
   -0.5726   -0.0277    0.2099 F   0  0  0  0  0  0  0  0  0  0  0  0
    1.4183   -0.8899    0.1161 F   0  0  0  0  0  0  0  0  0  0  0  0
    1.1525    1.2797    0.1068 F   0  0  0  0  0  0  0  0  0  0  0  0
   -1.0489    0.2137   -3.4296 H   0  0  0  0  0  0  0  0  0  0  0  0
   -1.3561    1.1850   -1.9850 H   0  0  0  0  0  0  0  0  0  0  0  0
   -1.5339   -0.5790   -1.9279 H   0  0  0  0  0  0  0  0  0  0  0  0
    0.9571   -1.2869   -3.5734 H   0  0  0  0  0  0  0  0  0  0  0  0
    0.4708   -2.0832   -2.0656 H   0  0  0  0  0  0  0  0  0  0  0  0
    2.1005   -1.4224   -2.2410 H   0  0  0  0  0  0  0  0  0  0  0  0
    0.8092    1.8926   -3.1656 H   0  0  0  0  0  0  0  0  0  0  0  0
    0.6503    4.6480   -5.4490 H   0  0  0  0  0  0  0  0  0  0  0  0
    1.5834    7.4430   -8.3401 H   0  0  0  0  0  0  0  0  0  0  0  0
    4.0651    7.3568   -7.6447 H   0  0  0  0  0  0  0  0  0  0  0  0
    6.0416    1.6993   -2.8808 H   0  0  0  0  0  0  0  0  0  0  0  0
    5.9319    2.9259   -1.5781 H   0  0  0  0  0  0  0  0  0  0  0  0
    7.5658    3.2051   -3.9443 H   0  0  0  0  0  0  0  0  0  0  0  0
    7.6279    5.7108   -3.4690 H   0  0  0  0  0  0  0  0  0  0  0  0
    6.2787    5.5256   -2.2764 H   0  0  0  0  0  0  0  0  0  0  0  0
    6.0890    5.0334   -5.2770 H   0  0  0  0  0  0  0  0  0  0  0  0
  1  2  1  0  0  0  0
  1 27  1  0  0  0  0
  1 28  1  0  0  0  0
  1 29  1  0  0  0  0
  2  3  1  0  0  0  0
  2  4  1  0  0  0  0
  2 23  1  0  0  0  0
  3 30  1  0  0  0  0
  3 31  1  0  0  0  0
  3 32  1  0  0  0  0
  4  5  1  0  0  0  0
  4 33  1  0  0  0  0
  5  6  2  0  0  0  0
  5  7  1  0  0  0  0
  7 18  1  0  0  0  0
  7  8  2  0  0  0  0
  8  9  1  0  0  0  0
  9 17  1  0  0  0  0
  9 10  1  0  0  0  0
 10 16  2  0  0  0  0
 10 11  1  0  0  0  0
 11 12  2  0  0  0  0
 11 34  1  0  0  0  0
 12 13  1  0  0  0  0
 12 14  1  0  0  0  0
 14 15  2  0  0  0  0
 14 35  1  0  0  0  0
 15 16  1  0  0  0  0
 15 36  1  0  0  0  0
 17 22  1  0  0  0  0
 17 18  2  0  0  0  0
 18 19  1  0  0  0  0
 19 37  1  0  0  0  0
 19 38  1  0  0  0  0
 20 19  1  0  0  0  0
 20 21  1  0  0  0  0
 20 22  1  0  0  0  0
 20 39  1  6  0  0  0
 21 40  1  0  0  0  0
 21 41  1  0  0  0  0
 22 21  1  0  0  0  0
 22 42  1  6  0  0  0
 23 24  1  0  0  0  0
 23 25  1  0  0  0  0
 23 26  1  0  0  0  0
M  CHG  2  12   1  13  -1
M  END
$$$$
CHEMBL4161506	8GUQ	best_smi
 OpenBabel12022418133D

 43 47  0  0  1  0  0  0  0  0999 V2000
    1.3344   -0.5975   -0.0880 O   0  0  0  0  0  0  0  0  0  0  0  0
    2.3102    0.0402    0.2938 C   0  0  0  0  0  0  0  0  0  0  0  0
    2.7610    1.1647   -0.3719 N   0  0  0  0  0  0  0  0  0  0  0  0
    2.1759    1.6271   -1.6869 C   0  0  0  0  0  0  0  0  0  0  0  0
    2.6072    0.7635   -2.8856 C   0  0  0  0  0  0  0  0  0  0  0  0
    3.4776   -0.2072   -2.5135 F   0  0  0  0  0  0  0  0  0  0  0  0
    1.5533    0.1624   -3.4891 F   0  0  0  0  0  0  0  0  0  0  0  0
    3.2319    1.5132   -3.8274 F   0  0  0  0  0  0  0  0  0  0  0  0
    0.6433    1.9534   -1.6316 C   0  0  0  0  0  0  0  0  0  0  0  0
    0.9334    3.2753   -2.3620 C   0  0  0  0  0  0  0  0  0  0  0  0
    2.3819    3.1720   -1.8616 C   0  0  0  0  0  0  0  0  0  0  0  0
    3.0894   -0.3354    1.4933 C   0  0  0  0  0  0  0  0  0  0  0  0
    4.2071    0.3243    1.9154 N   0  0  0  0  0  0  0  0  0  0  0  0
    4.6697   -0.4100    2.9991 N   0  0  0  0  0  0  0  0  0  0  0  0
    5.8587   -0.1005    3.7208 C   0  0  0  0  0  0  0  0  0  0  0  0
    6.6169    0.9859    3.3369 C   0  0  0  0  0  0  0  0  0  0  0  0
    7.7774    1.2634    4.0249 N   0  3  0  0  0  0  0  0  0  0  0  0
    8.5015    2.2527    3.6888 O   0  5  0  0  0  0  0  0  0  0  0  0
    8.1498    0.4636    5.0772 C   0  0  0  0  0  0  0  0  0  0  0  0
    7.3495   -0.5961    5.4278 C   0  0  0  0  0  0  0  0  0  0  0  0
    6.2141   -0.8918    4.7693 N   0  0  0  0  0  0  0  0  0  0  0  0
    3.8150   -1.4319    3.2686 C   0  0  0  0  0  0  0  0  0  0  0  0
    2.8279   -1.4355    2.3291 C   0  0  0  0  0  0  0  0  0  0  0  0
    1.9392   -2.6225    2.3954 C   0  0  0  0  0  0  0  0  0  0  0  0
    2.5952   -3.4603    3.5143 C   0  0  2  0  0  0  0  0  0  0  0  0
    2.5127   -3.0065    4.9344 C   0  0  0  0  0  0  0  0  0  0  0  0
    3.7559   -2.6563    4.1510 C   0  0  2  0  0  0  0  0  0  0  0  0
    3.6406    1.5382   -0.0229 H   0  0  0  0  0  0  0  0  0  0  0  0
    0.2353    2.0958   -0.6233 H   0  0  0  0  0  0  0  0  0  0  0  0
   -0.0283    1.2811   -2.1744 H   0  0  0  0  0  0  0  0  0  0  0  0
    0.3717    4.1433   -2.0049 H   0  0  0  0  0  0  0  0  0  0  0  0
    0.8350    3.2162   -3.4516 H   0  0  0  0  0  0  0  0  0  0  0  0
    3.1432    3.4950   -2.5776 H   0  0  0  0  0  0  0  0  0  0  0  0
    2.5488    3.7153   -0.9233 H   0  0  0  0  0  0  0  0  0  0  0  0
    6.4090    1.6698    2.5331 H   0  0  0  0  0  0  0  0  0  0  0  0
    9.0739    0.7486    5.5547 H   0  0  0  0  0  0  0  0  0  0  0  0
    7.6019   -1.2502    6.2579 H   0  0  0  0  0  0  0  0  0  0  0  0
    1.9411   -3.1785    1.4535 H   0  0  0  0  0  0  0  0  0  0  0  0
    0.9162   -2.3481    2.6681 H   0  0  0  0  0  0  0  0  0  0  0  0
    2.7464   -4.5024    3.2777 H   0  0  0  0  0  0  0  0  0  0  0  0
    2.6083   -3.7598    5.7101 H   0  0  0  0  0  0  0  0  0  0  0  0
    1.8329   -2.2047    5.2005 H   0  0  0  0  0  0  0  0  0  0  0  0
    4.6742   -3.0814    4.5292 H   0  0  0  0  0  0  0  0  0  0  0  0
  1  2  2  0  0  0  0
  2  3  1  0  0  0  0
  2 12  1  0  0  0  0
  3  4  1  0  0  0  0
  3 28  1  0  0  0  0
  4 11  1  0  0  0  0
  4  5  1  0  0  0  0
  4  9  1  0  0  0  0
  5  6  1  0  0  0  0
  5  7  1  0  0  0  0
  5  8  1  0  0  0  0
  9 10  1  0  0  0  0
  9 29  1  0  0  0  0
  9 30  1  0  0  0  0
 10 11  1  0  0  0  0
 10 31  1  0  0  0  0
 10 32  1  0  0  0  0
 11 33  1  0  0  0  0
 11 34  1  0  0  0  0
 12 23  1  0  0  0  0
 12 13  2  0  0  0  0
 13 14  1  0  0  0  0
 14 22  1  0  0  0  0
 14 15  1  0  0  0  0
 15 21  2  0  0  0  0
 15 16  1  0  0  0  0
 16 17  2  0  0  0  0
 16 35  1  0  0  0  0
 17 18  1  0  0  0  0
 17 19  1  0  0  0  0
 19 20  2  0  0  0  0
 19 36  1  0  0  0  0
 20 21  1  0  0  0  0
 20 37  1  0  0  0  0
 22 27  1  0  0  0  0
 22 23  2  0  0  0  0
 23 24  1  0  0  0  0
 24 38  1  0  0  0  0
 24 39  1  0  0  0  0
 25 24  1  0  0  0  0
 25 26  1  0  0  0  0
 25 27  1  0  0  0  0
 25 40  1  6  0  0  0
 26 41  1  0  0  0  0
 26 42  1  0  0  0  0
 27 26  1  0  0  0  0
 27 43  1  1  0  0  0
M  CHG  2  17   1  18  -1
M  END
$$$$
CHEMBL4174510	8GUQ	best_smi
 OpenBabel12022418133D

 48 51  0  0  1  0  0  0  0  0999 V2000
    1.4822    2.3250    4.5417 C   0  0  0  0  0  0  0  0  0  0  0  0
    3.0184    2.3043    4.3657 C   0  0  0  0  0  0  0  0  0  0  0  0
    3.6273    3.2330    5.4323 C   0  0  0  0  0  0  0  0  0  0  0  0
    3.4866    0.8604    4.6512 C   0  0  0  0  0  0  0  0  0  0  0  0
    3.4166    2.7057    2.9002 C   0  0  1  0  0  0  0  0  0  0  0  0
    2.9624    4.1179    2.4750 C   0  0  0  0  0  0  0  0  0  0  0  0
    3.5547    5.0627    3.2512 F   0  0  0  0  0  0  0  0  0  0  0  0
    4.8567    2.5185    2.6449 N   0  0  0  0  0  0  0  0  0  0  0  0
    5.3718    2.2227    1.3947 C   0  0  0  0  0  0  0  0  0  0  0  0
    4.6639    2.0423    0.4079 O   0  0  0  0  0  0  0  0  0  0  0  0
    6.8506    2.1640    1.3396 C   0  0  0  0  0  0  0  0  0  0  0  0
    7.6324    2.4652    2.4136 N   0  0  0  0  0  0  0  0  0  0  0  0
    8.9250    2.4590    1.9318 N   0  0  0  0  0  0  0  0  0  0  0  0
   10.0473    2.8481    2.7139 C   0  0  0  0  0  0  0  0  0  0  0  0
    9.8483    3.1853    4.0369 C   0  0  0  0  0  0  0  0  0  0  0  0
   10.9204    3.6217    4.7782 N   0  3  0  0  0  0  0  0  0  0  0  0
   10.7714    3.9487    5.9955 O   0  5  0  0  0  0  0  0  0  0  0  0
   12.1583    3.7066    4.1877 C   0  0  0  0  0  0  0  0  0  0  0  0
   12.3037    3.3348    2.8722 C   0  0  0  0  0  0  0  0  0  0  0  0
   11.2722    2.9027    2.1269 N   0  0  0  0  0  0  0  0  0  0  0  0
    8.9427    2.0466    0.6402 C   0  0  0  0  0  0  0  0  0  0  0  0
    7.6551    1.8645    0.2224 C   0  0  0  0  0  0  0  0  0  0  0  0
    7.5406    1.5972   -1.2347 C   0  0  0  0  0  0  0  0  0  0  0  0
    9.0025    1.7475   -1.7195 C   0  0  2  0  0  0  0  0  0  0  0  0
   10.0282    0.7204   -1.3630 C   0  0  0  0  0  0  0  0  0  0  0  0
    9.9299    1.9514   -0.4981 C   0  0  2  0  0  0  0  0  0  0  0  0
    1.1953    1.9392    5.5269 H   0  0  0  0  0  0  0  0  0  0  0  0
    0.9866    1.7016    3.7893 H   0  0  0  0  0  0  0  0  0  0  0  0
    1.0733    3.3378    4.4674 H   0  0  0  0  0  0  0  0  0  0  0  0
    3.3834    2.8811    6.4419 H   0  0  0  0  0  0  0  0  0  0  0  0
    3.2363    4.2520    5.3564 H   0  0  0  0  0  0  0  0  0  0  0  0
    4.7184    3.2785    5.3574 H   0  0  0  0  0  0  0  0  0  0  0  0
    3.1864    0.5394    5.6556 H   0  0  0  0  0  0  0  0  0  0  0  0
    4.5758    0.7674    4.5945 H   0  0  0  0  0  0  0  0  0  0  0  0
    3.0475    0.1562    3.9353 H   0  0  0  0  0  0  0  0  0  0  0  0
    2.9024    2.0128    2.2223 H   0  0  0  0  0  0  0  0  0  0  0  0
    1.8768    4.2402    2.5618 H   0  0  0  0  0  0  0  0  0  0  0  0
    3.2390    4.3329    1.4393 H   0  0  0  0  0  0  0  0  0  0  0  0
    5.5396    2.8003    3.3411 H   0  0  0  0  0  0  0  0  0  0  0  0
    8.9207    3.1535    4.5816 H   0  0  0  0  0  0  0  0  0  0  0  0
   12.9386    4.0756    4.8333 H   0  0  0  0  0  0  0  0  0  0  0  0
   13.2657    3.3812    2.3721 H   0  0  0  0  0  0  0  0  0  0  0  0
    6.9013    2.3336   -1.7311 H   0  0  0  0  0  0  0  0  0  0  0  0
    7.1757    0.5863   -1.4380 H   0  0  0  0  0  0  0  0  0  0  0  0
    9.1350    2.3720   -2.5900 H   0  0  0  0  0  0  0  0  0  0  0  0
   10.9041    0.6350   -1.9999 H   0  0  0  0  0  0  0  0  0  0  0  0
    9.7176   -0.2278   -0.9389 H   0  0  0  0  0  0  0  0  0  0  0  0
   10.8105    2.5784   -0.4846 H   0  0  0  0  0  0  0  0  0  0  0  0
  1  2  1  0  0  0  0
  1 27  1  0  0  0  0
  1 28  1  0  0  0  0
  1 29  1  0  0  0  0
  2  3  1  0  0  0  0
  2  4  1  0  0  0  0
  2  5  1  0  0  0  0
  3 30  1  0  0  0  0
  3 31  1  0  0  0  0
  3 32  1  0  0  0  0
  4 33  1  0  0  0  0
  4 34  1  0  0  0  0
  4 35  1  0  0  0  0
  5  6  1  0  0  0  0
  5  8  1  0  0  0  0
  5 36  1  6  0  0  0
  6  7  1  0  0  0  0
  6 37  1  0  0  0  0
  6 38  1  0  0  0  0
  8  9  1  0  0  0  0
  8 39  1  0  0  0  0
  9 10  2  0  0  0  0
  9 11  1  0  0  0  0
 11 22  1  0  0  0  0
 11 12  2  0  0  0  0
 12 13  1  0  0  0  0
 13 21  1  0  0  0  0
 13 14  1  0  0  0  0
 14 20  2  0  0  0  0
 14 15  1  0  0  0  0
 15 16  2  0  0  0  0
 15 40  1  0  0  0  0
 16 17  1  0  0  0  0
 16 18  1  0  0  0  0
 18 19  2  0  0  0  0
 18 41  1  0  0  0  0
 19 20  1  0  0  0  0
 19 42  1  0  0  0  0
 21 26  1  0  0  0  0
 21 22  2  0  0  0  0
 22 23  1  0  0  0  0
 23 43  1  0  0  0  0
 23 44  1  0  0  0  0
 24 23  1  0  0  0  0
 24 25  1  0  0  0  0
 24 26  1  0  0  0  0
 24 45  1  6  0  0  0
 25 46  1  0  0  0  0
 25 47  1  0  0  0  0
 26 25  1  0  0  0  0
 26 48  1  6  0  0  0
M  CHG  2  16   1  17  -1
M  END
$$$$
CHEMBL4161266	8GUQ	best_smi
 OpenBabel12022418133D

 47 51  0  0  1  0  0  0  0  0999 V2000
    1.2453   -0.3163   -0.9218 O   0  0  0  0  0  0  0  0  0  0  0  0
    2.2422   -0.2474   -0.2107 C   0  0  0  0  0  0  0  0  0  0  0  0
    2.6797    0.9537    0.3171 N   0  0  0  0  0  0  0  0  0  0  0  0
    1.9710    2.2203    0.0322 C   0  0  0  0  0  0  0  0  0  0  0  0
    0.5216    2.2005    0.6020 C   0  0  0  0  0  0  0  0  0  0  0  0
    0.5256    2.0086    2.0170 O   0  0  0  0  0  0  0  0  0  0  0  0
    2.7486    3.4388    0.5678 C   0  0  0  0  0  0  0  0  0  0  0  0
    2.2379    4.6277   -0.2518 C   0  0  0  0  0  0  0  0  0  0  0  0
    1.7600    4.0497   -1.5818 C   0  0  0  0  0  0  0  0  0  0  0  0
    1.9607    2.5398   -1.4785 C   0  0  0  0  0  0  0  0  0  0  0  0
    3.0269   -1.4613    0.0971 C   0  0  0  0  0  0  0  0  0  0  0  0
    4.1424   -1.5285    0.8746 N   0  0  0  0  0  0  0  0  0  0  0  0
    4.5742   -2.8468    0.7579 N   0  0  0  0  0  0  0  0  0  0  0  0
    5.7656   -3.3579    1.3515 C   0  0  0  0  0  0  0  0  0  0  0  0
    6.5771   -2.5173    2.0828 C   0  0  0  0  0  0  0  0  0  0  0  0
    7.7461   -3.0178    2.6109 N   0  3  0  0  0  0  0  0  0  0  0  0
    8.5270   -2.2672    3.2750 O   0  5  0  0  0  0  0  0  0  0  0  0
    8.0719   -4.3402    2.4108 C   0  0  0  0  0  0  0  0  0  0  0  0
    7.2157   -5.1377    1.6924 C   0  0  0  0  0  0  0  0  0  0  0  0
    6.0743   -4.6703    1.1596 N   0  0  0  0  0  0  0  0  0  0  0  0
    3.7021   -3.5639    0.0015 C   0  0  0  0  0  0  0  0  0  0  0  0
    2.7310   -2.7230   -0.4476 C   0  0  0  0  0  0  0  0  0  0  0  0
    1.8349   -3.3161   -1.4699 C   0  0  0  0  0  0  0  0  0  0  0  0
    2.4785   -4.6958   -1.6996 C   0  0  2  0  0  0  0  0  0  0  0  0
    2.3687   -5.7526   -0.6532 C   0  0  0  0  0  0  0  0  0  0  0  0
    3.6243   -4.9125   -0.6772 C   0  0  2  0  0  0  0  0  0  0  0  0
    3.4934    0.9316    0.9179 H   0  0  0  0  0  0  0  0  0  0  0  0
   -0.0885    1.4080    0.1586 H   0  0  0  0  0  0  0  0  0  0  0  0
   -0.0028    3.1408    0.4070 H   0  0  0  0  0  0  0  0  0  0  0  0
    0.7215    1.0666    2.1620 H   0  0  0  0  0  0  0  0  0  0  0  0
    3.8250    3.3198    0.3885 H   0  0  0  0  0  0  0  0  0  0  0  0
    2.6159    3.6038    1.6416 H   0  0  0  0  0  0  0  0  0  0  0  0
    3.0153    5.3848   -0.3953 H   0  0  0  0  0  0  0  0  0  0  0  0
    1.4008    5.1188    0.2591 H   0  0  0  0  0  0  0  0  0  0  0  0
    2.3130    4.4661   -2.4302 H   0  0  0  0  0  0  0  0  0  0  0  0
    0.7012    4.2879   -1.7389 H   0  0  0  0  0  0  0  0  0  0  0  0
    1.1866    1.9997   -2.0328 H   0  0  0  0  0  0  0  0  0  0  0  0
    2.9263    2.2766   -1.9305 H   0  0  0  0  0  0  0  0  0  0  0  0
    6.4110   -1.4749    2.2914 H   0  0  0  0  0  0  0  0  0  0  0  0
    9.0054   -4.6456    2.8514 H   0  0  0  0  0  0  0  0  0  0  0  0
    7.4289   -6.1884    1.5160 H   0  0  0  0  0  0  0  0  0  0  0  0
    1.8409   -2.7322   -2.3943 H   0  0  0  0  0  0  0  0  0  0  0  0
    0.8111   -3.4195   -1.0982 H   0  0  0  0  0  0  0  0  0  0  0  0
    2.6481   -4.9527   -2.7340 H   0  0  0  0  0  0  0  0  0  0  0  0
    2.4517   -6.7855   -0.9758 H   0  0  0  0  0  0  0  0  0  0  0  0
    1.6757   -5.6164    0.1694 H   0  0  0  0  0  0  0  0  0  0  0  0
    4.5386   -5.4518   -0.8810 H   0  0  0  0  0  0  0  0  0  0  0  0
  1  2  2  0  0  0  0
  2  3  1  0  0  0  0
  2 11  1  0  0  0  0
  3  4  1  0  0  0  0
  3 27  1  0  0  0  0
  4 10  1  0  0  0  0
  4  5  1  0  0  0  0
  4  7  1  0  0  0  0
  5  6  1  0  0  0  0
  5 28  1  0  0  0  0
  5 29  1  0  0  0  0
  6 30  1  0  0  0  0
  7  8  1  0  0  0  0
  7 31  1  0  0  0  0
  7 32  1  0  0  0  0
  8  9  1  0  0  0  0
  8 33  1  0  0  0  0
  8 34  1  0  0  0  0
  9 10  1  0  0  0  0
  9 35  1  0  0  0  0
  9 36  1  0  0  0  0
 10 37  1  0  0  0  0
 10 38  1  0  0  0  0
 11 22  1  0  0  0  0
 11 12  2  0  0  0  0
 12 13  1  0  0  0  0
 13 21  1  0  0  0  0
 13 14  1  0  0  0  0
 14 20  2  0  0  0  0
 14 15  1  0  0  0  0
 15 16  2  0  0  0  0
 15 39  1  0  0  0  0
 16 17  1  0  0  0  0
 16 18  1  0  0  0  0
 18 19  2  0  0  0  0
 18 40  1  0  0  0  0
 19 20  1  0  0  0  0
 19 41  1  0  0  0  0
 21 26  1  0  0  0  0
 21 22  2  0  0  0  0
 22 23  1  0  0  0  0
 23 42  1  0  0  0  0
 23 43  1  0  0  0  0
 24 23  1  0  0  0  0
 24 25  1  0  0  0  0
 24 26  1  0  0  0  0
 24 44  1  6  0  0  0
 25 45  1  0  0  0  0
 25 46  1  0  0  0  0
 26 25  1  0  0  0  0
 26 47  1  6  0  0  0
M  CHG  2  16   1  17  -1
M  END
$$$$
CHEMBL4168131	8GUQ	best_smi
 OpenBabel12022418133D

 46 49  0  0  1  0  0  0  0  0999 V2000
    1.5167    3.2790    3.8471 C   0  0  0  0  0  0  0  0  0  0  0  0
    3.0355    3.1807    3.6349 C   0  0  0  0  0  0  0  0  0  0  0  0
    3.5232    1.8853    4.2966 C   0  0  0  0  0  0  0  0  0  0  0  0
    3.4372    3.2440    2.1308 C   0  0  1  0  0  0  0  0  0  0  0  0
    2.9913    4.5621    1.4495 C   0  0  0  0  0  0  0  0  0  0  0  0
    3.5665    5.7088    2.0756 O   0  0  0  0  0  0  0  0  0  0  0  0
    4.8860    3.0411    1.9586 N   0  0  0  0  0  0  0  0  0  0  0  0
    5.4389    2.4677    0.8262 C   0  0  0  0  0  0  0  0  0  0  0  0
    4.7563    2.0328   -0.0984 O   0  0  0  0  0  0  0  0  0  0  0  0
    6.9263    2.4164    0.8030 C   0  0  0  0  0  0  0  0  0  0  0  0
    7.6985    2.9547    1.7854 N   0  0  0  0  0  0  0  0  0  0  0  0
    8.9939    2.8391    1.3236 N   0  0  0  0  0  0  0  0  0  0  0  0
   10.1185    3.3960    1.9915 C   0  0  0  0  0  0  0  0  0  0  0  0
    9.9263    4.0408    3.1960 C   0  0  0  0  0  0  0  0  0  0  0  0
   11.0009    4.6418    3.8024 N   0  3  0  0  0  0  0  0  0  0  0  0
   10.8572    5.2584    4.9054 O   0  5  0  0  0  0  0  0  0  0  0  0
   12.2399    4.5818    3.2064 C   0  0  0  0  0  0  0  0  0  0  0  0
   12.3812    3.8984    2.0192 C   0  0  0  0  0  0  0  0  0  0  0  0
   11.3436    3.3028    1.4066 N   0  0  0  0  0  0  0  0  0  0  0  0
    9.0194    2.1374    0.1634 C   0  0  0  0  0  0  0  0  0  0  0  0
    7.7357    1.8570   -0.2058 C   0  0  0  0  0  0  0  0  0  0  0  0
    7.6306    1.2616   -1.5638 C   0  0  0  0  0  0  0  0  0  0  0  0
    9.0937    1.3092   -2.0663 C   0  0  2  0  0  0  0  0  0  0  0  0
   10.1262    0.3990   -1.4844 C   0  0  0  0  0  0  0  0  0  0  0  0
   10.0133    1.7952   -0.9197 C   0  0  2  0  0  0  0  0  0  0  0  0
    1.2623    3.1482    4.9058 H   0  0  0  0  0  0  0  0  0  0  0  0
    0.9833    2.5061    3.2819 H   0  0  0  0  0  0  0  0  0  0  0  0
    1.1230    4.2557    3.5466 H   0  0  0  0  0  0  0  0  0  0  0  0
    3.5064    4.0105    4.1723 H   0  0  0  0  0  0  0  0  0  0  0  0
    3.0853    1.0054    3.8137 H   0  0  0  0  0  0  0  0  0  0  0  0
    3.2429    1.8669    5.3543 H   0  0  0  0  0  0  0  0  0  0  0  0
    4.6132    1.7994    4.2499 H   0  0  0  0  0  0  0  0  0  0  0  0
    2.9332    2.4248    1.6030 H   0  0  0  0  0  0  0  0  0  0  0  0
    1.9017    4.6721    1.4672 H   0  0  0  0  0  0  0  0  0  0  0  0
    3.2962    4.5766    0.3990 H   0  0  0  0  0  0  0  0  0  0  0  0
    3.2021    5.7782    2.9736 H   0  0  0  0  0  0  0  0  0  0  0  0
    5.5409    3.5209    2.5691 H   0  0  0  0  0  0  0  0  0  0  0  0
    8.9998    4.1454    3.7337 H   0  0  0  0  0  0  0  0  0  0  0  0
   13.0202    5.0970    3.7405 H   0  0  0  0  0  0  0  0  0  0  0  0
   13.3361    3.8221    1.5226 H   0  0  0  0  0  0  0  0  0  0  0  0
    6.9861    1.8555   -2.2184 H   0  0  0  0  0  0  0  0  0  0  0  0
    7.2762    0.2254   -1.5271 H   0  0  0  0  0  0  0  0  0  0  0  0
    9.2240    1.7215   -3.0555 H   0  0  0  0  0  0  0  0  0  0  0  0
   11.0061    0.1816   -2.0825 H   0  0  0  0  0  0  0  0  0  0  0  0
    9.8236   -0.4295   -0.8552 H   0  0  0  0  0  0  0  0  0  0  0  0
   10.8881    2.4160   -1.0491 H   0  0  0  0  0  0  0  0  0  0  0  0
  1  2  1  0  0  0  0
  1 26  1  0  0  0  0
  1 27  1  0  0  0  0
  1 28  1  0  0  0  0
  2  3  1  0  0  0  0
  2  4  1  0  0  0  0
  2 29  1  0  0  0  0
  3 30  1  0  0  0  0
  3 31  1  0  0  0  0
  3 32  1  0  0  0  0
  4  5  1  0  0  0  0
  4  7  1  0  0  0  0
  4 33  1  6  0  0  0
  5  6  1  0  0  0  0
  5 34  1  0  0  0  0
  5 35  1  0  0  0  0
  6 36  1  0  0  0  0
  7  8  1  0  0  0  0
  7 37  1  0  0  0  0
  8  9  2  0  0  0  0
  8 10  1  0  0  0  0
 10 21  1  0  0  0  0
 10 11  2  0  0  0  0
 11 12  1  0  0  0  0
 12 20  1  0  0  0  0
 12 13  1  0  0  0  0
 13 19  2  0  0  0  0
 13 14  1  0  0  0  0
 14 15  2  0  0  0  0
 14 38  1  0  0  0  0
 15 16  1  0  0  0  0
 15 17  1  0  0  0  0
 17 18  2  0  0  0  0
 17 39  1  0  0  0  0
 18 19  1  0  0  0  0
 18 40  1  0  0  0  0
 20 25  1  0  0  0  0
 20 21  2  0  0  0  0
 21 22  1  0  0  0  0
 22 41  1  0  0  0  0
 22 42  1  0  0  0  0
 23 22  1  0  0  0  0
 23 24  1  0  0  0  0
 23 25  1  0  0  0  0
 23 43  1  6  0  0  0
 24 44  1  0  0  0  0
 24 45  1  0  0  0  0
 25 24  1  0  0  0  0
 25 46  1  6  0  0  0
M  CHG  2  15   1  16  -1
M  END
$$$$
CHEMBL4175981	8GUQ	best_smi
 OpenBabel12022418133D

 49 52  0  0  1  0  0  0  0  0999 V2000
    1.4502   -1.1462   -4.9454 C   0  0  0  0  0  0  0  0  0  0  0  0
    2.9851   -1.2003   -4.7598 C   0  0  0  0  0  0  0  0  0  0  0  0
    3.5876   -1.8200   -6.0370 C   0  0  0  0  0  0  0  0  0  0  0  0
    3.4744    0.2587   -4.6431 C   0  0  0  0  0  0  0  0  0  0  0  0
    3.3726   -2.0099   -3.4639 C   0  0  1  0  0  0  0  0  0  0  0  0
    2.8842   -3.4830   -3.5147 C   0  0  0  0  0  0  0  0  0  0  0  0
    3.1713   -4.2098   -2.3257 O   0  0  0  0  0  0  0  0  0  0  0  0
    4.8218   -1.9417   -3.1812 N   0  0  0  0  0  0  0  0  0  0  0  0
    5.3590   -1.9040   -1.9044 C   0  0  0  0  0  0  0  0  0  0  0  0
    4.6756   -1.9541   -0.8874 O   0  0  0  0  0  0  0  0  0  0  0  0
    6.8339   -1.8650   -1.8555 C   0  0  0  0  0  0  0  0  0  0  0  0
    7.6082   -1.8775   -2.9757 N   0  0  0  0  0  0  0  0  0  0  0  0
    8.9037   -2.0013   -2.5137 N   0  0  0  0  0  0  0  0  0  0  0  0
   10.0210   -2.1661   -3.3742 C   0  0  0  0  0  0  0  0  0  0  0  0
    9.8206   -2.1309   -4.7381 C   0  0  0  0  0  0  0  0  0  0  0  0
   10.8878   -2.3544   -5.5727 N   0  3  0  0  0  0  0  0  0  0  0  0
   10.7340   -2.3462   -6.8311 O   0  5  0  0  0  0  0  0  0  0  0  0
   12.1288   -2.5974   -5.0315 C   0  0  0  0  0  0  0  0  0  0  0  0
   12.2791   -2.5941   -3.6623 C   0  0  0  0  0  0  0  0  0  0  0  0
   11.2482   -2.3768   -2.8274 N   0  0  0  0  0  0  0  0  0  0  0  0
    8.9275   -1.9589   -1.1566 C   0  0  0  0  0  0  0  0  0  0  0  0
    7.6407   -1.8887   -0.7027 C   0  0  0  0  0  0  0  0  0  0  0  0
    7.5230   -2.0461    0.7708 C   0  0  0  0  0  0  0  0  0  0  0  0
    8.9820   -2.3352    1.1910 C   0  0  2  0  0  0  0  0  0  0  0  0
   10.0137   -1.2550    1.1376 C   0  0  0  0  0  0  0  0  0  0  0  0
    9.9108   -2.1946   -0.0391 C   0  0  2  0  0  0  0  0  0  0  0  0
    1.1784   -0.4816   -5.7752 H   0  0  0  0  0  0  0  0  0  0  0  0
    0.9529   -0.7677   -4.0460 H   0  0  0  0  0  0  0  0  0  0  0  0
    1.0281   -2.1284   -5.1810 H   0  0  0  0  0  0  0  0  0  0  0  0
    3.3268   -1.2259   -6.9212 H   0  0  0  0  0  0  0  0  0  0  0  0
    3.2075   -2.8312   -6.2156 H   0  0  0  0  0  0  0  0  0  0  0  0
    4.6791   -1.8711   -5.9883 H   0  0  0  0  0  0  0  0  0  0  0  0
    3.1956    0.8387   -5.5315 H   0  0  0  0  0  0  0  0  0  0  0  0
    4.5630    0.3178   -4.5493 H   0  0  0  0  0  0  0  0  0  0  0  0
    3.0287    0.7545   -3.7738 H   0  0  0  0  0  0  0  0  0  0  0  0
    2.8781   -1.5376   -2.6042 H   0  0  0  0  0  0  0  0  0  0  0  0
    3.3417   -4.0294   -4.3431 H   0  0  0  0  0  0  0  0  0  0  0  0
    1.7979   -3.5220   -3.6389 H   0  0  0  0  0  0  0  0  0  0  0  0
    4.1138   -4.0732   -2.1268 H   0  0  0  0  0  0  0  0  0  0  0  0
    5.5001   -1.9563   -3.9357 H   0  0  0  0  0  0  0  0  0  0  0  0
    8.8913   -1.9516   -5.2516 H   0  0  0  0  0  0  0  0  0  0  0  0
   12.9065   -2.7768   -5.7535 H   0  0  0  0  0  0  0  0  0  0  0  0
   13.2401   -2.7693   -3.1972 H   0  0  0  0  0  0  0  0  0  0  0  0
    6.8795   -2.8892    1.0357 H   0  0  0  0  0  0  0  0  0  0  0  0
    7.1614   -1.1317    1.2502 H   0  0  0  0  0  0  0  0  0  0  0  0
    9.1097   -3.1796    1.8525 H   0  0  0  0  0  0  0  0  0  0  0  0
   10.8869   -1.3559    1.7750 H   0  0  0  0  0  0  0  0  0  0  0  0
    9.7053   -0.2253    0.9978 H   0  0  0  0  0  0  0  0  0  0  0  0
   10.7882   -2.7973   -0.2249 H   0  0  0  0  0  0  0  0  0  0  0  0
  1  2  1  0  0  0  0
  1 27  1  0  0  0  0
  1 28  1  0  0  0  0
  1 29  1  0  0  0  0
  2  3  1  0  0  0  0
  2  4  1  0  0  0  0
  2  5  1  0  0  0  0
  3 30  1  0  0  0  0
  3 31  1  0  0  0  0
  3 32  1  0  0  0  0
  4 33  1  0  0  0  0
  4 34  1  0  0  0  0
  4 35  1  0  0  0  0
  5  6  1  0  0  0  0
  5  8  1  0  0  0  0
  5 36  1  1  0  0  0
  6  7  1  0  0  0  0
  6 37  1  0  0  0  0
  6 38  1  0  0  0  0
  7 39  1  0  0  0  0
  8  9  1  0  0  0  0
  8 40  1  0  0  0  0
  9 10  2  0  0  0  0
  9 11  1  0  0  0  0
 11 22  1  0  0  0  0
 11 12  2  0  0  0  0
 12 13  1  0  0  0  0
 13 21  1  0  0  0  0
 13 14  1  0  0  0  0
 14 20  2  0  0  0  0
 14 15  1  0  0  0  0
 15 16  2  0  0  0  0
 15 41  1  0  0  0  0
 16 17  1  0  0  0  0
 16 18  1  0  0  0  0
 18 19  2  0  0  0  0
 18 42  1  0  0  0  0
 19 20  1  0  0  0  0
 19 43  1  0  0  0  0
 21 26  1  0  0  0  0
 21 22  2  0  0  0  0
 22 23  1  0  0  0  0
 23 44  1  0  0  0  0
 23 45  1  0  0  0  0
 24 23  1  0  0  0  0
 24 25  1  0  0  0  0
 24 26  1  0  0  0  0
 24 46  1  1  0  0  0
 25 47  1  0  0  0  0
 25 48  1  0  0  0  0
 26 25  1  0  0  0  0
 26 49  1  6  0  0  0
M  CHG  2  16   1  17  -1
M  END
$$$$
CHEMBL4171474	8GUQ	best_smi
 OpenBabel12022418133D

 48 51  0  0  1  0  0  0  0  0999 V2000
    1.1538    0.7749    0.6509 C   0  0  0  0  0  0  0  0  0  0  0  0
    2.6853    0.6165    0.5115 C   0  0  0  0  0  0  0  0  0  0  0  0
    3.0136    0.4969   -0.9902 C   0  0  0  0  0  0  0  0  0  0  0  0
    3.3264    1.9125    1.0510 C   0  0  0  0  0  0  0  0  0  0  0  0
    3.1946   -0.6231    1.3338 C   0  0  1  0  0  0  0  0  0  0  0  0
    2.5712   -1.9621    0.8502 C   0  0  0  0  0  0  0  0  0  0  0  0
    2.9539   -3.0775    1.6476 O   0  0  0  0  0  0  0  0  0  0  0  0
    4.6676   -0.7071    1.3502 N   0  0  0  0  0  0  0  0  0  0  0  0
    5.4025   -1.1435    2.4369 C   0  0  0  0  0  0  0  0  0  0  0  0
    4.8902   -1.5232    3.4842 O   0  0  0  0  0  0  0  0  0  0  0  0
    6.8600   -1.1803    2.2160 C   0  0  0  0  0  0  0  0  0  0  0  0
    7.4324   -0.8103    1.0376 N   0  0  0  0  0  0  0  0  0  0  0  0
    8.7697   -1.1373    1.1715 N   0  0  0  0  0  0  0  0  0  0  0  0
    9.7069   -1.0154    0.1128 C   0  0  0  0  0  0  0  0  0  0  0  0
    9.2931   -0.4846   -1.1020 C   0  0  0  0  0  0  0  0  0  0  0  0
   10.1234   -0.3741   -2.1725 N   0  0  0  0  0  0  0  0  0  0  0  0
   11.3872   -0.8145   -1.9772 C   0  0  0  0  0  0  0  0  0  0  0  0
   11.8124   -1.3297   -0.7662 C   0  0  0  0  0  0  0  0  0  0  0  0
   10.9907   -1.4392    0.3021 N   0  0  0  0  0  0  0  0  0  0  0  0
    9.0165   -1.5846    2.4312 C   0  0  0  0  0  0  0  0  0  0  0  0
    7.8348   -1.6553    3.1107 C   0  0  0  0  0  0  0  0  0  0  0  0
    7.9400   -2.3434    4.4214 C   0  0  0  0  0  0  0  0  0  0  0  0
    9.4158   -2.8049    4.4362 C   0  0  2  0  0  0  0  0  0  0  0  0
   10.5142   -1.8052    4.5911 C   0  0  0  0  0  0  0  0  0  0  0  0
   10.1454   -2.2403    3.1925 C   0  0  2  0  0  0  0  0  0  0  0  0
    0.8099    1.7045    0.1807 H   0  0  0  0  0  0  0  0  0  0  0  0
    0.8520    0.8071    1.7033 H   0  0  0  0  0  0  0  0  0  0  0  0
    0.6095   -0.0411    0.1652 H   0  0  0  0  0  0  0  0  0  0  0  0
    2.6734    1.3844   -1.5369 H   0  0  0  0  0  0  0  0  0  0  0  0
    2.5168   -0.3649   -1.4477 H   0  0  0  0  0  0  0  0  0  0  0  0
    4.0893    0.3998   -1.1652 H   0  0  0  0  0  0  0  0  0  0  0  0
    2.9597    2.7897    0.5047 H   0  0  0  0  0  0  0  0  0  0  0  0
    4.4160    1.9018    0.9471 H   0  0  0  0  0  0  0  0  0  0  0  0
    3.0865    2.0599    2.1097 H   0  0  0  0  0  0  0  0  0  0  0  0
    2.8898   -0.4902    2.3811 H   0  0  0  0  0  0  0  0  0  0  0  0
    2.8614   -2.1879   -0.1803 H   0  0  0  0  0  0  0  0  0  0  0  0
    1.4812   -1.9178    0.8968 H   0  0  0  0  0  0  0  0  0  0  0  0
    3.9156   -3.0265    1.7761 H   0  0  0  0  0  0  0  0  0  0  0  0
    5.2114   -0.4833    0.5219 H   0  0  0  0  0  0  0  0  0  0  0  0
    8.2828   -0.1256   -1.2674 H   0  0  0  0  0  0  0  0  0  0  0  0
   12.0544   -0.7445   -2.8286 H   0  0  0  0  0  0  0  0  0  0  0  0
   12.8297   -1.6762   -0.6219 H   0  0  0  0  0  0  0  0  0  0  0  0
    7.2747   -3.2083    4.4764 H   0  0  0  0  0  0  0  0  0  0  0  0
    7.7425   -1.6636    5.2558 H   0  0  0  0  0  0  0  0  0  0  0  0
    9.5696   -3.8377    4.7109 H   0  0  0  0  0  0  0  0  0  0  0  0
   11.4627   -2.1552    4.9873 H   0  0  0  0  0  0  0  0  0  0  0  0
   10.2778   -0.7901    4.8899 H   0  0  0  0  0  0  0  0  0  0  0  0
   10.9276   -2.7504    2.6453 H   0  0  0  0  0  0  0  0  0  0  0  0
  1  2  1  0  0  0  0
  1 26  1  0  0  0  0
  1 27  1  0  0  0  0
  1 28  1  0  0  0  0
  2  3  1  0  0  0  0
  2  4  1  0  0  0  0
  2  5  1  0  0  0  0
  3 29  1  0  0  0  0
  3 30  1  0  0  0  0
  3 31  1  0  0  0  0
  4 32  1  0  0  0  0
  4 33  1  0  0  0  0
  4 34  1  0  0  0  0
  5  6  1  0  0  0  0
  5  8  1  0  0  0  0
  5 35  1  1  0  0  0
  6  7  1  0  0  0  0
  6 36  1  0  0  0  0
  6 37  1  0  0  0  0
  7 38  1  0  0  0  0
  8  9  1  0  0  0  0
  8 39  1  0  0  0  0
  9 10  2  0  0  0  0
  9 11  1  0  0  0  0
 11 21  1  0  0  0  0
 11 12  2  0  0  0  0
 12 13  1  0  0  0  0
 13 20  1  0  0  0  0
 13 14  1  0  0  0  0
 14 19  2  0  0  0  0
 14 15  1  0  0  0  0
 15 16  2  0  0  0  0
 15 40  1  0  0  0  0
 16 17  1  0  0  0  0
 17 18  2  0  0  0  0
 17 41  1  0  0  0  0
 18 19  1  0  0  0  0
 18 42  1  0  0  0  0
 20 25  1  0  0  0  0
 20 21  2  0  0  0  0
 21 22  1  0  0  0  0
 22 43  1  0  0  0  0
 22 44  1  0  0  0  0
 23 22  1  0  0  0  0
 23 24  1  0  0  0  0
 23 25  1  0  0  0  0
 23 45  1  1  0  0  0
 24 46  1  0  0  0  0
 24 47  1  0  0  0  0
 25 24  1  0  0  0  0
 25 48  1  6  0  0  0
M  END
$$$$
CHEMBL3900220	8GUQ	best_smi
 OpenBabel12022418133D

 49 52  0  0  1  0  0  0  0  0999 V2000
    1.5650    1.6910    4.7820 C   0  0  0  0  0  0  0  0  0  0  0  0
    3.1005    1.7052    4.6002 C   0  0  0  0  0  0  0  0  0  0  0  0
    3.7112    2.4322    5.8115 C   0  0  0  0  0  0  0  0  0  0  0  0
    3.5734    0.2361    4.6224 C   0  0  0  0  0  0  0  0  0  0  0  0
    3.4937    2.3830    3.2348 C   0  0  3  0  0  0  0  0  0  0  0  0
    3.0319    3.8626    3.1459 C   0  0  0  0  0  0  0  0  0  0  0  0
    3.3044    4.4578    1.8815 O   0  0  0  0  0  0  0  0  0  0  0  0
    4.9391    2.2667    2.9599 N   0  0  0  0  0  0  0  0  0  0  0  0
    5.4703    2.0885    1.6965 C   0  0  0  0  0  0  0  0  0  0  0  0
    4.7869    2.0247    0.6822 O   0  0  0  0  0  0  0  0  0  0  0  0
    6.9463    2.0485    1.6528 C   0  0  0  0  0  0  0  0  0  0  0  0
    7.7168    2.1877    2.7667 N   0  0  0  0  0  0  0  0  0  0  0  0
    9.0125    2.2629    2.2944 N   0  0  0  0  0  0  0  0  0  0  0  0
   10.1289    2.5208    3.1352 C   0  0  0  0  0  0  0  0  0  0  0  0
    9.9235    2.6423    4.4945 C   0  0  0  0  0  0  0  0  0  0  0  0
   10.9938    2.9354    5.3029 N   0  3  0  0  0  0  0  0  0  0  0  0
   10.8379    3.0634    6.5568 O   0  5  0  0  0  0  0  0  0  0  0  0
   12.2411    3.0966    4.7426 C   0  0  0  0  0  0  0  0  0  0  0  0
   12.3889    2.9455    3.3847 C   0  0  0  0  0  0  0  0  0  0  0  0
   11.3580    2.6581    2.5717 N   0  0  0  0  0  0  0  0  0  0  0  0
    9.0375    2.0681    0.9519 C   0  0  0  0  0  0  0  0  0  0  0  0
    7.7513    1.9523    0.5061 C   0  0  0  0  0  0  0  0  0  0  0  0
    7.6319    1.9529   -0.9751 C   0  0  0  0  0  0  0  0  0  0  0  0
    9.0910    2.1848   -1.4241 C   0  0  2  0  0  0  0  0  0  0  0  0
   10.1127    1.1063   -1.2550 C   0  0  0  0  0  0  0  0  0  0  0  0
   10.0222    2.1699   -0.1865 C   0  0  2  0  0  0  0  0  0  0  0  0
    1.2790    1.1145    5.6701 H   0  0  0  0  0  0  0  0  0  0  0  0
    1.0673    1.2354    3.9190 H   0  0  0  0  0  0  0  0  0  0  0  0
    1.1573    2.6976    4.9179 H   0  0  0  0  0  0  0  0  0  0  0  0
    3.4467    1.9269    6.7490 H   0  0  0  0  0  0  0  0  0  0  0  0
    3.3459    3.4619    5.8973 H   0  0  0  0  0  0  0  0  0  0  0  0
    4.8048    2.4665    5.7599 H   0  0  0  0  0  0  0  0  0  0  0  0
    3.2809   -0.2571    5.5569 H   0  0  0  0  0  0  0  0  0  0  0  0
    4.6628    0.1578    4.5450 H   0  0  0  0  0  0  0  0  0  0  0  0
    3.1314   -0.3325    3.7971 H   0  0  0  0  0  0  0  0  0  0  0  0
    2.9885    1.8399    2.4245 H   0  0  0  0  0  0  0  0  0  0  0  0
    3.5196    4.4800    3.9044 H   0  0  0  0  0  0  0  0  0  0  0  0
    1.9502    3.9378    3.2878 H   0  0  0  0  0  0  0  0  0  0  0  0
    4.2236    4.2412    1.6517 H   0  0  0  0  0  0  0  0  0  0  0  0
    5.6197    2.3671    3.7068 H   0  0  0  0  0  0  0  0  0  0  0  0
    8.9907    2.5345    5.0214 H   0  0  0  0  0  0  0  0  0  0  0  0
   13.0192    3.3366    5.4449 H   0  0  0  0  0  0  0  0  0  0  0  0
   13.3568    3.0591    2.9028 H   0  0  0  0  0  0  0  0  0  0  0  0
    6.9948    2.7699   -1.3256 H   0  0  0  0  0  0  0  0  0  0  0  0
    7.2593    0.9974   -1.3557 H   0  0  0  0  0  0  0  0  0  0  0  0
    9.2248    2.9521   -2.1719 H   0  0  0  0  0  0  0  0  0  0  0  0
   10.9833    1.1281   -1.9022 H   0  0  0  0  0  0  0  0  0  0  0  0
    9.7922    0.1009   -1.0059 H   0  0  0  0  0  0  0  0  0  0  0  0
   10.9059    2.7803   -0.0670 H   0  0  0  0  0  0  0  0  0  0  0  0
  1  2  1  0  0  0  0
  1 27  1  0  0  0  0
  1 28  1  0  0  0  0
  1 29  1  0  0  0  0
  2  3  1  0  0  0  0
  2  4  1  0  0  0  0
  2  5  1  0  0  0  0
  3 30  1  0  0  0  0
  3 31  1  0  0  0  0
  3 32  1  0  0  0  0
  4 33  1  0  0  0  0
  4 34  1  0  0  0  0
  4 35  1  0  0  0  0
  5  6  1  0  0  0  0
  5  8  1  0  0  0  0
  5 36  1  0  0  0  0
  6  7  1  0  0  0  0
  6 37  1  0  0  0  0
  6 38  1  0  0  0  0
  7 39  1  0  0  0  0
  8  9  1  0  0  0  0
  8 40  1  0  0  0  0
  9 10  2  0  0  0  0
  9 11  1  0  0  0  0
 11 22  1  0  0  0  0
 11 12  2  0  0  0  0
 12 13  1  0  0  0  0
 13 21  1  0  0  0  0
 13 14  1  0  0  0  0
 14 20  2  0  0  0  0
 14 15  1  0  0  0  0
 15 16  2  0  0  0  0
 15 41  1  0  0  0  0
 16 17  1  0  0  0  0
 16 18  1  0  0  0  0
 18 19  2  0  0  0  0
 18 42  1  0  0  0  0
 19 20  1  0  0  0  0
 19 43  1  0  0  0  0
 21 26  1  0  0  0  0
 21 22  2  0  0  0  0
 22 23  1  0  0  0  0
 23 44  1  0  0  0  0
 23 45  1  0  0  0  0
 24 23  1  0  0  0  0
 24 25  1  0  0  0  0
 24 26  1  0  0  0  0
 24 46  1  6  0  0  0
 25 47  1  0  0  0  0
 25 48  1  0  0  0  0
 26 25  1  0  0  0  0
 26 49  1  1  0  0  0
M  CHG  2  16   1  17  -1
M  END
$$$$
CHEMBL4162987	8GUQ	best_smi
 OpenBabel12022418133D

 48 51  0  0  1  0  0  0  0  0999 V2000
    1.0321    0.3542    1.9686 C   0  0  0  0  0  0  0  0  0  0  0  0
    2.5749    0.4531    1.9129 C   0  0  0  0  0  0  0  0  0  0  0  0
    2.9386    1.7816    1.2230 C   0  0  0  0  0  0  0  0  0  0  0  0
    3.0645    0.5119    3.3744 C   0  0  0  0  0  0  0  0  0  0  0  0
    3.1928   -0.7844    1.1552 C   0  0  1  0  0  0  0  0  0  0  0  0
    2.6999   -0.9061   -0.3080 C   0  0  0  0  0  0  0  0  0  0  0  0
    3.2464   -2.0593   -0.9475 O   0  0  0  0  0  0  0  0  0  0  0  0
    4.6728   -0.8207    1.1928 N   0  0  0  0  0  0  0  0  0  0  0  0
    5.3717   -1.5037    2.1783 C   0  0  0  0  0  0  0  0  0  0  0  0
    4.8092   -2.1216    3.0793 O   0  0  0  0  0  0  0  0  0  0  0  0
    6.8441   -1.4280    2.1018 C   0  0  0  0  0  0  0  0  0  0  0  0
    7.5345   -0.7797    1.1156 N   0  0  0  0  0  0  0  0  0  0  0  0
    8.8712   -0.8962    1.4775 N   0  0  0  0  0  0  0  0  0  0  0  0
    9.9522   -0.4125    0.6945 C   0  0  0  0  0  0  0  0  0  0  0  0
    9.6968    0.1762   -0.5353 C   0  0  0  0  0  0  0  0  0  0  0  0
   10.6893    0.5814   -1.3720 N   0  0  0  0  0  0  0  0  0  0  0  0
   11.9504    0.3768   -0.9280 C   0  0  0  0  0  0  0  0  0  0  0  0
   12.2141   -0.1910    0.3060 C   0  0  0  0  0  0  0  0  0  0  0  0
   11.2314   -0.5948    1.1397 N   0  0  0  0  0  0  0  0  0  0  0  0
    8.9830   -1.6122    2.6281 C   0  0  0  0  0  0  0  0  0  0  0  0
    7.7411   -1.9801    3.0373 C   0  0  0  0  0  0  0  0  0  0  0  0
    7.7247   -2.6574    4.3601 C   0  0  0  0  0  0  0  0  0  0  0  0
    9.1986   -2.5375    4.8062 C   0  0  1  0  0  0  0  0  0  0  0  0
   10.2566   -3.3627    4.1526 C   0  0  0  0  0  0  0  0  0  0  0  0
   10.0474   -1.9593    3.6411 C   0  0  1  0  0  0  0  0  0  0  0  0
    0.6106    1.1421    2.6061 H   0  0  0  0  0  0  0  0  0  0  0  0
    0.7089   -0.6073    2.3832 H   0  0  0  0  0  0  0  0  0  0  0  0
    0.5730    0.4717    0.9820 H   0  0  0  0  0  0  0  0  0  0  0  0
    2.5297    2.6355    1.7781 H   0  0  0  0  0  0  0  0  0  0  0  0
    2.5275    1.8390    0.2108 H   0  0  0  0  0  0  0  0  0  0  0  0
    4.0230    1.9171    1.1595 H   0  0  0  0  0  0  0  0  0  0  0  0
    2.6068    1.3496    3.9123 H   0  0  0  0  0  0  0  0  0  0  0  0
    4.1487    0.6500    3.4380 H   0  0  0  0  0  0  0  0  0  0  0  0
    2.7988   -0.4054    3.9140 H   0  0  0  0  0  0  0  0  0  0  0  0
    2.8568   -1.6929    1.6730 H   0  0  0  0  0  0  0  0  0  0  0  0
    2.9842   -0.0393   -0.9088 H   0  0  0  0  0  0  0  0  0  0  0  0
    1.6118   -1.0108   -0.3470 H   0  0  0  0  0  0  0  0  0  0  0  0
    4.2138   -1.9967   -0.8584 H   0  0  0  0  0  0  0  0  0  0  0  0
    5.2294   -0.2498    0.5645 H   0  0  0  0  0  0  0  0  0  0  0  0
    8.6898    0.3225   -0.9122 H   0  0  0  0  0  0  0  0  0  0  0  0
   12.7482    0.6785   -1.5960 H   0  0  0  0  0  0  0  0  0  0  0  0
   13.2320   -0.3415    0.6538 H   0  0  0  0  0  0  0  0  0  0  0  0
    7.4366   -3.7074    4.2693 H   0  0  0  0  0  0  0  0  0  0  0  0
    7.0667   -2.1464    5.0700 H   0  0  0  0  0  0  0  0  0  0  0  0
    9.3415   -2.1453    5.8020 H   0  0  0  0  0  0  0  0  0  0  0  0
    9.9749   -4.1887    3.5090 H   0  0  0  0  0  0  0  0  0  0  0  0
   11.1653   -3.5540    4.7150 H   0  0  0  0  0  0  0  0  0  0  0  0
   10.8939   -1.2986    3.7558 H   0  0  0  0  0  0  0  0  0  0  0  0
  1  2  1  0  0  0  0
  1 26  1  0  0  0  0
  1 27  1  0  0  0  0
  1 28  1  0  0  0  0
  2  3  1  0  0  0  0
  2  4  1  0  0  0  0
  2  5  1  0  0  0  0
  3 29  1  0  0  0  0
  3 30  1  0  0  0  0
  3 31  1  0  0  0  0
  4 32  1  0  0  0  0
  4 33  1  0  0  0  0
  4 34  1  0  0  0  0
  5  6  1  0  0  0  0
  5  8  1  0  0  0  0
  5 35  1  1  0  0  0
  6  7  1  0  0  0  0
  6 36  1  0  0  0  0
  6 37  1  0  0  0  0
  7 38  1  0  0  0  0
  8  9  1  0  0  0  0
  8 39  1  0  0  0  0
  9 10  2  0  0  0  0
  9 11  1  0  0  0  0
 11 21  1  0  0  0  0
 11 12  2  0  0  0  0
 12 13  1  0  0  0  0
 13 14  1  0  0  0  0
 13 20  1  0  0  0  0
 14 19  2  0  0  0  0
 14 15  1  0  0  0  0
 15 16  2  0  0  0  0
 15 40  1  0  0  0  0
 16 17  1  0  0  0  0
 17 18  2  0  0  0  0
 17 41  1  0  0  0  0
 18 19  1  0  0  0  0
 18 42  1  0  0  0  0
 20 25  1  0  0  0  0
 20 21  2  0  0  0  0
 21 22  1  0  0  0  0
 22 43  1  0  0  0  0
 22 44  1  0  0  0  0
 23 22  1  0  0  0  0
 23 24  1  0  0  0  0
 23 25  1  0  0  0  0
 23 45  1  1  0  0  0
 24 46  1  0  0  0  0
 24 47  1  0  0  0  0
 25 24  1  0  0  0  0
 25 48  1  1  0  0  0
M  END
$$$$
CHEMBL4166597	8GUQ	best_smi
 OpenBabel12022418133D

 45 48  0  0  1  0  0  0  0  0999 V2000
    1.5467    1.8180    4.8574 C   0  0  0  0  0  0  0  0  0  0  0  0
    3.0621    1.7837    4.6149 C   0  0  0  0  0  0  0  0  0  0  0  0
    3.5386    0.3304    4.7389 C   0  0  0  0  0  0  0  0  0  0  0  0
    3.4508    2.3934    3.2405 C   0  0  1  0  0  0  0  0  0  0  0  0
    3.0252    3.8658    3.1123 C   0  0  0  0  0  0  0  0  0  0  0  0
    3.5777    4.5873    4.1280 F   0  0  0  0  0  0  0  0  0  0  0  0
    4.8893    2.2548    2.9909 N   0  0  0  0  0  0  0  0  0  0  0  0
    5.4166    2.1587    1.7188 C   0  0  0  0  0  0  0  0  0  0  0  0
    4.7190    2.1157    0.7096 O   0  0  0  0  0  0  0  0  0  0  0  0
    6.8921    2.1274    1.6648 C   0  0  0  0  0  0  0  0  0  0  0  0
    7.6730    2.2708    2.7734 N   0  0  0  0  0  0  0  0  0  0  0  0
    8.9636    2.3388    2.2923 N   0  0  0  0  0  0  0  0  0  0  0  0
   10.0872    2.6013    3.1235 C   0  0  0  0  0  0  0  0  0  0  0  0
    9.8938    2.7260    4.4848 C   0  0  0  0  0  0  0  0  0  0  0  0
   10.9736    3.0179    5.2838 N   0  3  0  0  0  0  0  0  0  0  0  0
   10.8315    3.1423    6.5400 O   0  5  0  0  0  0  0  0  0  0  0  0
   12.2137    3.1796    4.7119 C   0  0  0  0  0  0  0  0  0  0  0  0
   12.3497    3.0293    3.3518 C   0  0  0  0  0  0  0  0  0  0  0  0
   11.3117    2.7384    2.5487 N   0  0  0  0  0  0  0  0  0  0  0  0
    8.9798    2.1220    0.9534 C   0  0  0  0  0  0  0  0  0  0  0  0
    7.6909    2.0068    0.5145 C   0  0  0  0  0  0  0  0  0  0  0  0
    7.5650    1.9702   -0.9630 C   0  0  0  0  0  0  0  0  0  0  0  0
    9.0243    2.1813   -1.4253 C   0  0  2  0  0  0  0  0  0  0  0  0
   10.0406    1.1010   -1.2353 C   0  0  0  0  0  0  0  0  0  0  0  0
    9.9594    2.1930   -0.1915 C   0  0  2  0  0  0  0  0  0  0  0  0
    1.2905    1.3139    5.7961 H   0  0  0  0  0  0  0  0  0  0  0  0
    1.0051    1.3137    4.0494 H   0  0  0  0  0  0  0  0  0  0  0  0
    1.1713    2.8425    4.9340 H   0  0  0  0  0  0  0  0  0  0  0  0
    3.5479    2.3604    5.4127 H   0  0  0  0  0  0  0  0  0  0  0  0
    3.0990   -0.2975    3.9566 H   0  0  0  0  0  0  0  0  0  0  0  0
    3.2525   -0.0889    5.7098 H   0  0  0  0  0  0  0  0  0  0  0  0
    4.6279    0.2580    4.6651 H   0  0  0  0  0  0  0  0  0  0  0  0
    2.9315    1.8348    2.4512 H   0  0  0  0  0  0  0  0  0  0  0  0
    1.9397    3.9861    3.1682 H   0  0  0  0  0  0  0  0  0  0  0  0
    3.3650    4.3063    2.1703 H   0  0  0  0  0  0  0  0  0  0  0  0
    5.5563    2.4493    3.7325 H   0  0  0  0  0  0  0  0  0  0  0  0
    8.9664    2.6190    5.0203 H   0  0  0  0  0  0  0  0  0  0  0  0
   12.9992    3.4196    5.4064 H   0  0  0  0  0  0  0  0  0  0  0  0
   13.3108    3.1452    2.8612 H   0  0  0  0  0  0  0  0  0  0  0  0
    6.9301    2.7816   -1.3316 H   0  0  0  0  0  0  0  0  0  0  0  0
    7.1854    1.0067   -1.3158 H   0  0  0  0  0  0  0  0  0  0  0  0
    9.1580    2.9306   -2.1906 H   0  0  0  0  0  0  0  0  0  0  0  0
   10.9078    1.1019   -1.8855 H   0  0  0  0  0  0  0  0  0  0  0  0
    9.7153    0.1039   -0.9577 H   0  0  0  0  0  0  0  0  0  0  0  0
   10.8485    2.7984   -0.0904 H   0  0  0  0  0  0  0  0  0  0  0  0
  1  2  1  0  0  0  0
  1 26  1  0  0  0  0
  1 27  1  0  0  0  0
  1 28  1  0  0  0  0
  2  3  1  0  0  0  0
  2  4  1  0  0  0  0
  2 29  1  0  0  0  0
  3 30  1  0  0  0  0
  3 31  1  0  0  0  0
  3 32  1  0  0  0  0
  4  5  1  0  0  0  0
  4  7  1  0  0  0  0
  4 33  1  6  0  0  0
  5  6  1  0  0  0  0
  5 34  1  0  0  0  0
  5 35  1  0  0  0  0
  7  8  1  0  0  0  0
  7 36  1  0  0  0  0
  8  9  2  0  0  0  0
  8 10  1  0  0  0  0
 10 21  1  0  0  0  0
 10 11  2  0  0  0  0
 11 12  1  0  0  0  0
 12 20  1  0  0  0  0
 12 13  1  0  0  0  0
 13 19  2  0  0  0  0
 13 14  1  0  0  0  0
 14 15  2  0  0  0  0
 14 37  1  0  0  0  0
 15 16  1  0  0  0  0
 15 17  1  0  0  0  0
 17 18  2  0  0  0  0
 17 38  1  0  0  0  0
 18 19  1  0  0  0  0
 18 39  1  0  0  0  0
 20 25  1  0  0  0  0
 20 21  2  0  0  0  0
 21 22  1  0  0  0  0
 22 40  1  0  0  0  0
 22 41  1  0  0  0  0
 23 22  1  0  0  0  0
 23 24  1  0  0  0  0
 23 25  1  0  0  0  0
 23 42  1  6  0  0  0
 24 43  1  0  0  0  0
 24 44  1  0  0  0  0
 25 24  1  0  0  0  0
 25 45  1  1  0  0  0
M  CHG  2  15   1  16  -1
M  END
$$$$
CHEMBL4164688	8GUQ	best_smi
 OpenBabel12022418133D

 40 43  0  0  1  0  0  0  0  0999 V2000
    1.1720    0.3822   -0.5277 O   0  0  0  0  0  0  0  0  0  0  0  0
    2.2218   -0.1035   -0.1032 C   0  0  0  0  0  0  0  0  0  0  0  0
    2.7652    0.3234    1.0917 N   0  0  0  0  0  0  0  0  0  0  0  0
    2.1476    1.4420    1.8257 C   0  0  1  0  0  0  0  0  0  0  0  0
    2.8137    1.6458    3.1895 C   0  0  0  0  0  0  0  0  0  0  0  0
    2.8453    0.4328    3.9430 O   0  0  0  0  0  0  0  0  0  0  0  0
    2.0841    2.7934    1.0675 C   0  0  0  0  0  0  0  0  0  0  0  0
    2.6669    2.7378   -0.1513 F   0  0  0  0  0  0  0  0  0  0  0  0
    0.8038    3.1909    0.8932 F   0  0  0  0  0  0  0  0  0  0  0  0
    2.7118    3.7831    1.7482 F   0  0  0  0  0  0  0  0  0  0  0  0
    2.9616   -1.1424   -0.8347 C   0  0  0  0  0  0  0  0  0  0  0  0
    4.0732   -1.7756   -0.3673 N   0  0  0  0  0  0  0  0  0  0  0  0
    4.4897   -2.5772   -1.4181 N   0  0  0  0  0  0  0  0  0  0  0  0
    5.6630   -3.3853   -1.3834 C   0  0  0  0  0  0  0  0  0  0  0  0
    6.4494   -3.3845   -0.2491 C   0  0  0  0  0  0  0  0  0  0  0  0
    7.5980   -4.1435   -0.2410 N   0  3  0  0  0  0  0  0  0  0  0  0
    8.3545   -4.1572    0.7810 O   0  5  0  0  0  0  0  0  0  0  0  0
    7.9298   -4.8887   -1.3496 C   0  0  0  0  0  0  0  0  0  0  0  0
    7.0987   -4.8653   -2.4415 C   0  0  0  0  0  0  0  0  0  0  0  0
    5.9764   -4.1282   -2.4803 N   0  0  0  0  0  0  0  0  0  0  0  0
    3.6214   -2.4784   -2.4591 C   0  0  0  0  0  0  0  0  0  0  0  0
    2.6637   -1.5636   -2.1372 C   0  0  0  0  0  0  0  0  0  0  0  0
    1.7772   -1.1887   -3.2656 C   0  0  0  0  0  0  0  0  0  0  0  0
    2.4004   -1.9711   -4.4385 C   0  0  2  0  0  0  0  0  0  0  0  0
    2.2651   -3.4554   -4.5009 C   0  0  0  0  0  0  0  0  0  0  0  0
    3.5353   -2.8861   -3.9092 C   0  0  2  0  0  0  0  0  0  0  0  0
    3.6231   -0.1226    1.4143 H   0  0  0  0  0  0  0  0  0  0  0  0
    1.1145    1.1164    2.0073 H   0  0  0  0  0  0  0  0  0  0  0  0
    2.2778    2.3990    3.7788 H   0  0  0  0  0  0  0  0  0  0  0  0
    3.8509    1.9793    3.0740 H   0  0  0  0  0  0  0  0  0  0  0  0
    1.9921   -0.0231    3.8337 H   0  0  0  0  0  0  0  0  0  0  0  0
    6.2763   -2.8387    0.6605 H   0  0  0  0  0  0  0  0  0  0  0  0
    8.8456   -5.4458   -1.2579 H   0  0  0  0  0  0  0  0  0  0  0  0
    7.3181   -5.4433   -3.3345 H   0  0  0  0  0  0  0  0  0  0  0  0
    1.8135   -0.1138   -3.4625 H   0  0  0  0  0  0  0  0  0  0  0  0
    0.7442   -1.5039   -3.0934 H   0  0  0  0  0  0  0  0  0  0  0  0
    2.5723   -1.3938   -5.3346 H   0  0  0  0  0  0  0  0  0  0  0  0
    2.3353   -3.9279   -5.4758 H   0  0  0  0  0  0  0  0  0  0  0  0
    1.5679   -3.9524   -3.8358 H   0  0  0  0  0  0  0  0  0  0  0  0
    4.4416   -3.1244   -4.4460 H   0  0  0  0  0  0  0  0  0  0  0  0
  1  2  2  0  0  0  0
  2  3  1  0  0  0  0
  2 11  1  0  0  0  0
  3  4  1  0  0  0  0
  3 27  1  0  0  0  0
  4  5  1  0  0  0  0
  4  7  1  0  0  0  0
  4 28  1  1  0  0  0
  5  6  1  0  0  0  0
  5 29  1  0  0  0  0
  5 30  1  0  0  0  0
  6 31  1  0  0  0  0
  7  8  1  0  0  0  0
  7  9  1  0  0  0  0
  7 10  1  0  0  0  0
 11 22  1  0  0  0  0
 11 12  2  0  0  0  0
 12 13  1  0  0  0  0
 13 21  1  0  0  0  0
 13 14  1  0  0  0  0
 14 20  2  0  0  0  0
 14 15  1  0  0  0  0
 15 16  2  0  0  0  0
 15 32  1  0  0  0  0
 16 17  1  0  0  0  0
 16 18  1  0  0  0  0
 18 19  2  0  0  0  0
 18 33  1  0  0  0  0
 19 20  1  0  0  0  0
 19 34  1  0  0  0  0
 21 26  1  0  0  0  0
 21 22  2  0  0  0  0
 22 23  1  0  0  0  0
 23 35  1  0  0  0  0
 23 36  1  0  0  0  0
 24 23  1  0  0  0  0
 24 25  1  0  0  0  0
 24 26  1  0  0  0  0
 24 37  1  6  0  0  0
 25 38  1  0  0  0  0
 25 39  1  0  0  0  0
 26 25  1  0  0  0  0
 26 40  1  6  0  0  0
M  CHG  2  16   1  17  -1
M  END
$$$$
