CHEMBL234239
 OpenBabel12022418133D

 57 58  0  0  0  0  0  0  0  0999 V2000
    7.4060    0.7624  -11.9257 C   0  0  0  0  0  0  0  0  0  0  0  0
    6.8457    0.0014  -10.7354 C   0  0  0  0  0  0  0  0  0  0  0  0
    7.2455    0.6746   -9.4281 C   0  0  0  0  0  0  0  0  0  0  0  0
    6.6963   -0.0644   -8.2066 C   0  0  0  0  0  0  0  0  0  0  0  0
    7.1132    0.6767   -6.9380 C   0  0  0  0  0  0  0  0  0  0  0  0
    6.5853    0.0129   -5.6571 C   0  0  0  0  0  0  0  0  0  0  0  0
    7.0442    0.7274   -4.3478 C   0  0  0  0  0  0  0  0  0  0  0  0
    6.4377    2.1512   -4.2960 C   0  0  0  0  0  0  0  0  0  0  0  0
    6.4647   -0.0308   -3.1302 C   0  0  0  0  0  0  0  0  0  0  0  0
    8.5807    0.7162   -4.2656 C   0  0  0  0  0  0  0  0  0  0  0  0
    9.3325    1.8930   -4.2716 C   0  0  0  0  0  0  0  0  0  0  0  0
   10.7267    1.8497   -4.3164 C   0  0  0  0  0  0  0  0  0  0  0  0
   11.4478    0.6415   -4.3150 C   0  0  0  0  0  0  0  0  0  0  0  0
   12.9345    0.6933   -4.3853 C   0  0  0  0  0  0  0  0  0  0  0  0
   13.6848   -0.2587   -5.0910 C   0  0  0  0  0  0  0  0  0  0  0  0
   15.0832   -0.2703   -5.0672 C   0  0  0  0  0  0  0  0  0  0  0  0
   15.8350   -1.3998   -5.7042 C   0  0  0  0  0  0  0  0  0  0  0  0
   15.7648    0.7715   -4.4290 C   0  0  0  0  0  0  0  0  0  0  0  0
   15.0547    1.7897   -3.7884 C   0  0  0  0  0  0  0  0  0  0  0  0
   15.7543    2.9528   -3.1525 C   0  0  0  0  0  0  0  0  0  0  0  0
   13.6538    1.7224   -3.7435 C   0  0  0  0  0  0  0  0  0  0  0  0
   10.6953   -0.5598   -4.2242 C   0  0  0  0  0  0  0  0  0  0  0  0
    9.2885   -0.4960   -4.2604 C   0  0  0  0  0  0  0  0  0  0  0  0
   11.2792   -1.8406   -4.3039 N   0  0  0  0  0  0  0  0  0  0  0  0
    7.1152    0.2740  -12.8615 H   0  0  0  0  0  0  0  0  0  0  0  0
    8.4992    0.8010  -11.8875 H   0  0  0  0  0  0  0  0  0  0  0  0
    7.0284    1.7896  -11.9470 H   0  0  0  0  0  0  0  0  0  0  0  0
    7.2171   -1.0297  -10.7544 H   0  0  0  0  0  0  0  0  0  0  0  0
    5.7531   -0.0421  -10.8138 H   0  0  0  0  0  0  0  0  0  0  0  0
    6.8777    1.7090   -9.4242 H   0  0  0  0  0  0  0  0  0  0  0  0
    8.3400    0.7258   -9.3619 H   0  0  0  0  0  0  0  0  0  0  0  0
    7.0802   -1.0909   -8.1854 H   0  0  0  0  0  0  0  0  0  0  0  0
    5.6028   -0.1211   -8.2627 H   0  0  0  0  0  0  0  0  0  0  0  0
    6.7444    1.7050   -7.0041 H   0  0  0  0  0  0  0  0  0  0  0  0
    8.2068    0.7277   -6.9131 H   0  0  0  0  0  0  0  0  0  0  0  0
    6.9032   -1.0370   -5.6515 H   0  0  0  0  0  0  0  0  0  0  0  0
    5.4860   -0.0094   -5.6949 H   0  0  0  0  0  0  0  0  0  0  0  0
    5.3443    2.1179   -4.3079 H   0  0  0  0  0  0  0  0  0  0  0  0
    6.7524    2.7711   -5.1429 H   0  0  0  0  0  0  0  0  0  0  0  0
    6.7391    2.6797   -3.3824 H   0  0  0  0  0  0  0  0  0  0  0  0
    5.3705    0.0390   -3.1084 H   0  0  0  0  0  0  0  0  0  0  0  0
    6.8428    0.3860   -2.1890 H   0  0  0  0  0  0  0  0  0  0  0  0
    6.7176   -1.0962   -3.1442 H   0  0  0  0  0  0  0  0  0  0  0  0
    8.8675    2.8725   -4.2852 H   0  0  0  0  0  0  0  0  0  0  0  0
   11.2488    2.8042   -4.3834 H   0  0  0  0  0  0  0  0  0  0  0  0
   13.1695   -1.0265   -5.6666 H   0  0  0  0  0  0  0  0  0  0  0  0
   15.1560   -2.1566   -6.1056 H   0  0  0  0  0  0  0  0  0  0  0  0
   16.4683   -1.8941   -4.9560 H   0  0  0  0  0  0  0  0  0  0  0  0
   16.4613   -1.0320   -6.5230 H   0  0  0  0  0  0  0  0  0  0  0  0
   16.8514    0.7867   -4.4350 H   0  0  0  0  0  0  0  0  0  0  0  0
   16.8436    2.8600   -3.2282 H   0  0  0  0  0  0  0  0  0  0  0  0
   15.4942    3.0200   -2.0909 H   0  0  0  0  0  0  0  0  0  0  0  0
   15.4631    3.8832   -3.6513 H   0  0  0  0  0  0  0  0  0  0  0  0
   13.1251    2.4968   -3.1944 H   0  0  0  0  0  0  0  0  0  0  0  0
    8.7370   -1.4343   -4.2906 H   0  0  0  0  0  0  0  0  0  0  0  0
   12.1979   -1.8725   -3.8684 H   0  0  0  0  0  0  0  0  0  0  0  0
   10.6812   -2.5866   -3.9599 H   0  0  0  0  0  0  0  0  0  0  0  0
  1  2  1  0  0  0  0
  1 25  1  0  0  0  0
  1 26  1  0  0  0  0
  1 27  1  0  0  0  0
  2  3  1  0  0  0  0
  2 28  1  0  0  0  0
  2 29  1  0  0  0  0
  3  4  1  0  0  0  0
  3 30  1  0  0  0  0
  3 31  1  0  0  0  0
  4  5  1  0  0  0  0
  4 32  1  0  0  0  0
  4 33  1  0  0  0  0
  5  6  1  0  0  0  0
  5 34  1  0  0  0  0
  5 35  1  0  0  0  0
  6  7  1  0  0  0  0
  6 36  1  0  0  0  0
  6 37  1  0  0  0  0
  7  8  1  0  0  0  0
  7  9  1  0  0  0  0
  7 10  1  0  0  0  0
  8 38  1  0  0  0  0
  8 39  1  0  0  0  0
  8 40  1  0  0  0  0
  9 41  1  0  0  0  0
  9 42  1  0  0  0  0
  9 43  1  0  0  0  0
 10 23  2  0  0  0  0
 10 11  1  0  0  0  0
 11 12  2  0  0  0  0
 11 44  1  0  0  0  0
 12 13  1  0  0  0  0
 12 45  1  0  0  0  0
 13 14  1  0  0  0  0
 13 22  2  0  0  0  0
 14 21  2  0  0  0  0
 14 15  1  0  0  0  0
 15 16  2  0  0  0  0
 15 46  1  0  0  0  0
 16 17  1  0  0  0  0
 16 18  1  0  0  0  0
 17 47  1  0  0  0  0
 17 48  1  0  0  0  0
 17 49  1  0  0  0  0
 18 19  2  0  0  0  0
 18 50  1  0  0  0  0
 19 20  1  0  0  0  0
 19 21  1  0  0  0  0
 20 51  1  0  0  0  0
 20 52  1  0  0  0  0
 20 53  1  0  0  0  0
 21 54  1  0  0  0  0
 22 23  1  0  0  0  0
 22 24  1  0  0  0  0
 23 55  1  0  0  0  0
 24 56  1  0  0  0  0
 24 57  1  0  0  0  0
M  END
$$$$
CHEMBL294013
 OpenBabel12022418143D

 68 70  0  0  1  0  0  0  0  0999 V2000
    6.5872    0.1088    8.0267 C   0  0  0  0  0  0  0  0  0  0  0  0
    6.1501    1.3816    7.3190 C   0  0  0  0  0  0  0  0  0  0  0  0
    6.7079    1.4226    5.8998 C   0  0  0  0  0  0  0  0  0  0  0  0
    6.2931    2.6905    5.1560 C   0  0  0  0  0  0  0  0  0  0  0  0
    6.8800    2.6854    3.7424 C   0  0  0  0  0  0  0  0  0  0  0  0
    6.4887    3.9502    2.9717 C   0  0  0  0  0  0  0  0  0  0  0  0
    7.0194    4.0228    1.5081 C   0  0  0  0  0  0  0  0  0  0  0  0
    6.3802    2.8747    0.6829 C   0  0  0  0  0  0  0  0  0  0  0  0
    6.5084    5.3456    0.8897 C   0  0  0  0  0  0  0  0  0  0  0  0
    8.5583    3.9953    1.4593 C   0  0  0  0  0  0  0  0  0  0  0  0
    9.3415    4.9694    2.1040 C   0  0  0  0  0  0  0  0  0  0  0  0
   10.7385    4.9201    2.0613 C   0  0  0  0  0  0  0  0  0  0  0  0
   11.4158    3.8690    1.4116 C   0  0  0  0  0  0  0  0  0  0  0  0
   12.9325    3.7874    1.4750 C   0  0  2  0  0  0  0  0  0  0  0  0
   13.5131    2.3606    1.6082 C   0  0  0  0  0  0  0  0  0  0  0  0
   15.0131    2.4149    1.7229 C   0  0  0  0  0  0  0  0  0  0  0  0
   15.8253    1.8546    0.8137 C   0  0  0  0  0  0  0  0  0  0  0  0
   15.5009    3.2011    2.8996 C   0  0  0  0  0  0  0  0  0  0  0  0
   14.9531    4.6276    2.8293 C   0  0  0  0  0  0  0  0  0  0  0  0
   13.4209    4.6582    2.6627 C   0  0  1  0  0  0  0  0  0  0  0  0
   12.7993    6.0709    2.5299 C   0  0  0  0  0  0  0  0  0  0  0  0
   13.2805    6.9973    3.6609 C   0  0  0  0  0  0  0  0  0  0  0  0
   13.0887    6.7902    1.1965 C   0  0  0  0  0  0  0  0  0  0  0  0
   11.3683    5.9653    2.6985 O   0  0  0  0  0  0  0  0  0  0  0  0
   10.6408    2.9428    0.6958 C   0  0  0  0  0  0  0  0  0  0  0  0
    9.2455    3.0056    0.7420 C   0  0  0  0  0  0  0  0  0  0  0  0
   11.2866    2.0571   -0.1240 O   0  0  0  0  0  0  0  0  0  0  0  0
   10.6831    0.7763   -0.2815 C   0  0  0  0  0  0  0  0  0  0  0  0
    6.1877    0.0796    9.0444 H   0  0  0  0  0  0  0  0  0  0  0  0
    7.6791    0.0517    8.0861 H   0  0  0  0  0  0  0  0  0  0  0  0
    6.2281   -0.7770    7.4925 H   0  0  0  0  0  0  0  0  0  0  0  0
    6.5006    2.2518    7.8859 H   0  0  0  0  0  0  0  0  0  0  0  0
    5.0552    1.4267    7.2945 H   0  0  0  0  0  0  0  0  0  0  0  0
    6.3573    0.5438    5.3447 H   0  0  0  0  0  0  0  0  0  0  0  0
    7.8026    1.3645    5.9359 H   0  0  0  0  0  0  0  0  0  0  0  0
    6.6420    3.5753    5.7015 H   0  0  0  0  0  0  0  0  0  0  0  0
    5.1992    2.7497    5.1039 H   0  0  0  0  0  0  0  0  0  0  0  0
    6.5181    1.7930    3.2209 H   0  0  0  0  0  0  0  0  0  0  0  0
    7.9708    2.6054    3.8063 H   0  0  0  0  0  0  0  0  0  0  0  0
    6.8306    4.8257    3.5388 H   0  0  0  0  0  0  0  0  0  0  0  0
    5.3917    4.0155    2.9528 H   0  0  0  0  0  0  0  0  0  0  0  0
    5.2873    2.9104    0.7182 H   0  0  0  0  0  0  0  0  0  0  0  0
    6.6856    1.8864    1.0467 H   0  0  0  0  0  0  0  0  0  0  0  0
    6.6706    2.9357   -0.3732 H   0  0  0  0  0  0  0  0  0  0  0  0
    5.4117    5.3750    0.8822 H   0  0  0  0  0  0  0  0  0  0  0  0
    6.8512    5.4627   -0.1445 H   0  0  0  0  0  0  0  0  0  0  0  0
    6.8475    6.2219    1.4530 H   0  0  0  0  0  0  0  0  0  0  0  0
    8.8675    5.7878    2.6405 H   0  0  0  0  0  0  0  0  0  0  0  0
   13.3158    4.2063    0.5341 H   0  0  0  0  0  0  0  0  0  0  0  0
   13.2719    1.7393    0.7446 H   0  0  0  0  0  0  0  0  0  0  0  0
   13.0890    1.8526    2.4837 H   0  0  0  0  0  0  0  0  0  0  0  0
   15.4277    1.3251   -0.0481 H   0  0  0  0  0  0  0  0  0  0  0  0
   16.9052    1.9255    0.8920 H   0  0  0  0  0  0  0  0  0  0  0  0
   16.5955    3.2292    2.9401 H   0  0  0  0  0  0  0  0  0  0  0  0
   15.1607    2.7118    3.8213 H   0  0  0  0  0  0  0  0  0  0  0  0
   15.4356    5.1655    2.0063 H   0  0  0  0  0  0  0  0  0  0  0  0
   15.2373    5.1342    3.7586 H   0  0  0  0  0  0  0  0  0  0  0  0
   13.0057    4.2111    3.5827 H   0  0  0  0  0  0  0  0  0  0  0  0
   14.3490    7.2219    3.5799 H   0  0  0  0  0  0  0  0  0  0  0  0
   13.0870    6.5517    4.6429 H   0  0  0  0  0  0  0  0  0  0  0  0
   12.7397    7.9515    3.6419 H   0  0  0  0  0  0  0  0  0  0  0  0
   14.1616    6.8522    0.9914 H   0  0  0  0  0  0  0  0  0  0  0  0
   12.6884    7.8110    1.2150 H   0  0  0  0  0  0  0  0  0  0  0  0
   12.5997    6.3084    0.3437 H   0  0  0  0  0  0  0  0  0  0  0  0
    8.6920    2.2688    0.1756 H   0  0  0  0  0  0  0  0  0  0  0  0
   11.4354    0.1091   -0.7124 H   0  0  0  0  0  0  0  0  0  0  0  0
    9.8459    0.8225   -0.9834 H   0  0  0  0  0  0  0  0  0  0  0  0
   10.3716    0.3532    0.6804 H   0  0  0  0  0  0  0  0  0  0  0  0
  1  2  1  0  0  0  0
  1 29  1  0  0  0  0
  1 30  1  0  0  0  0
  1 31  1  0  0  0  0
  2  3  1  0  0  0  0
  2 32  1  0  0  0  0
  2 33  1  0  0  0  0
  3  4  1  0  0  0  0
  3 34  1  0  0  0  0
  3 35  1  0  0  0  0
  4  5  1  0  0  0  0
  4 36  1  0  0  0  0
  4 37  1  0  0  0  0
  5  6  1  0  0  0  0
  5 38  1  0  0  0  0
  5 39  1  0  0  0  0
  6  7  1  0  0  0  0
  6 40  1  0  0  0  0
  6 41  1  0  0  0  0
  7  8  1  0  0  0  0
  7  9  1  0  0  0  0
  7 10  1  0  0  0  0
  8 42  1  0  0  0  0
  8 43  1  0  0  0  0
  8 44  1  0  0  0  0
  9 45  1  0  0  0  0
  9 46  1  0  0  0  0
  9 47  1  0  0  0  0
 10 26  2  0  0  0  0
 10 11  1  0  0  0  0
 11 12  2  0  0  0  0
 11 48  1  0  0  0  0
 12 24  1  0  0  0  0
 12 13  1  0  0  0  0
 13 14  1  0  0  0  0
 13 25  2  0  0  0  0
 14 15  1  0  0  0  0
 14 20  1  0  0  0  0
 14 49  1  6  0  0  0
 15 16  1  0  0  0  0
 15 50  1  0  0  0  0
 15 51  1  0  0  0  0
 16 17  2  0  0  0  0
 16 18  1  0  0  0  0
 17 52  1  0  0  0  0
 17 53  1  0  0  0  0
 18 19  1  0  0  0  0
 18 54  1  0  0  0  0
 18 55  1  0  0  0  0
 19 56  1  0  0  0  0
 19 57  1  0  0  0  0
 20 19  1  0  0  0  0
 20 21  1  0  0  0  0
 20 58  1  1  0  0  0
 21 22  1  0  0  0  0
 21 23  1  0  0  0  0
 21 24  1  0  0  0  0
 22 59  1  0  0  0  0
 22 60  1  0  0  0  0
 22 61  1  0  0  0  0
 23 62  1  0  0  0  0
 23 63  1  0  0  0  0
 23 64  1  0  0  0  0
 25 26  1  0  0  0  0
 25 27  1  0  0  0  0
 26 65  1  0  0  0  0
 27 28  1  0  0  0  0
 28 66  1  0  0  0  0
 28 67  1  0  0  0  0
 28 68  1  0  0  0  0
M  END
$$$$
CHEMBL57367
 OpenBabel12022418143D

 68 70  0  0  1  0  0  0  0  0999 V2000
    7.5718    5.5063   -3.3718 C   0  0  0  0  0  0  0  0  0  0  0  0
    6.1416    4.9916   -3.4089 C   0  0  0  0  0  0  0  0  0  0  0  0
    5.9608    3.7270   -2.5645 C   0  0  0  0  0  0  0  0  0  0  0  0
    4.5225    3.2176   -2.6536 C   0  0  0  0  0  0  0  0  0  0  0  0
    4.2801    1.9633   -1.7987 C   0  0  0  0  0  0  0  0  0  0  0  0
    2.8208    1.5131   -1.9570 C   0  0  0  0  0  0  0  0  0  0  0  0
    2.3648    0.2196   -1.2041 C   0  0  0  0  0  0  0  0  0  0  0  0
    3.1760   -0.9924   -1.6958 C   0  0  0  0  0  0  0  0  0  0  0  0
    2.6412    0.3427    0.3206 C   0  0  0  0  0  0  0  0  0  0  0  0
    0.8378    0.0645   -1.3930 C   0  0  0  0  0  0  0  0  0  0  0  0
    0.0328    1.1015   -0.9379 C   0  0  0  0  0  0  0  0  0  0  0  0
   -1.3365    0.9733   -0.8329 C   0  0  0  0  0  0  0  0  0  0  0  0
   -1.9902   -0.2143   -1.1542 C   0  0  0  0  0  0  0  0  0  0  0  0
   -3.1712   -0.5054   -0.2387 C   0  0  2  0  0  0  0  0  0  0  0  0
   -4.2579   -1.5963   -0.2188 C   0  0  0  0  0  0  0  0  0  0  0  0
   -4.6775   -1.7459    1.2729 C   0  0  0  0  0  0  0  0  0  0  0  0
   -4.4779   -0.7595    2.1850 C   0  0  0  0  0  0  0  0  0  0  0  0
   -3.8351    0.5765    1.8524 C   0  0  0  0  0  0  0  0  0  0  0  0
   -3.8820    0.7668    0.3298 C   0  0  1  0  0  0  0  0  0  0  0  0
   -3.3420    2.0662   -0.2643 C   0  0  0  0  0  0  0  0  0  0  0  0
   -3.8975    2.2512   -1.6974 C   0  0  0  0  0  0  0  0  0  0  0  0
   -3.7215    3.3104    0.5483 C   0  0  0  0  0  0  0  0  0  0  0  0
   -1.9221    2.0628   -0.2531 O   0  0  0  0  0  0  0  0  0  0  0  0
   -5.1219   -3.1038    1.7256 C   0  0  0  0  0  0  0  0  0  0  0  0
   -1.2545   -1.1747   -1.8719 C   0  0  0  0  0  0  0  0  0  0  0  0
    0.1561   -1.0389   -1.9559 C   0  0  0  0  0  0  0  0  0  0  0  0
   -1.9647   -2.2050   -2.4214 O   0  0  0  0  0  0  0  0  0  0  0  0
   -1.2778   -3.0349   -3.3590 C   0  0  0  0  0  0  0  0  0  0  0  0
    7.6127    6.5337   -3.7482 H   0  0  0  0  0  0  0  0  0  0  0  0
    8.2215    4.8919   -4.0036 H   0  0  0  0  0  0  0  0  0  0  0  0
    7.9752    5.5014   -2.3545 H   0  0  0  0  0  0  0  0  0  0  0  0
    5.8594    4.7953   -4.4504 H   0  0  0  0  0  0  0  0  0  0  0  0
    5.4706    5.7752   -3.0376 H   0  0  0  0  0  0  0  0  0  0  0  0
    6.6526    2.9480   -2.9059 H   0  0  0  0  0  0  0  0  0  0  0  0
    6.2072    3.9486   -1.5188 H   0  0  0  0  0  0  0  0  0  0  0  0
    4.2841    2.9932   -3.7005 H   0  0  0  0  0  0  0  0  0  0  0  0
    3.8369    4.0135   -2.3338 H   0  0  0  0  0  0  0  0  0  0  0  0
    4.9664    1.1705   -2.1086 H   0  0  0  0  0  0  0  0  0  0  0  0
    4.4903    2.2005   -0.7505 H   0  0  0  0  0  0  0  0  0  0  0  0
    2.6026    1.3826   -3.0259 H   0  0  0  0  0  0  0  0  0  0  0  0
    2.2119    2.3673   -1.6372 H   0  0  0  0  0  0  0  0  0  0  0  0
    2.8261   -1.9237   -1.2334 H   0  0  0  0  0  0  0  0  0  0  0  0
    4.2358   -0.8945   -1.4300 H   0  0  0  0  0  0  0  0  0  0  0  0
    3.1141   -1.1067   -2.7813 H   0  0  0  0  0  0  0  0  0  0  0  0
    3.7123    0.4068    0.5395 H   0  0  0  0  0  0  0  0  0  0  0  0
    2.1734    1.2293    0.7649 H   0  0  0  0  0  0  0  0  0  0  0  0
    2.2517   -0.5300    0.8624 H   0  0  0  0  0  0  0  0  0  0  0  0
    0.4744    2.0146   -0.5223 H   0  0  0  0  0  0  0  0  0  0  0  0
   -2.5195   -0.8994    0.5645 H   0  0  0  0  0  0  0  0  0  0  0  0
   -3.9003   -2.5463   -0.6188 H   0  0  0  0  0  0  0  0  0  0  0  0
   -5.1357   -1.3005   -0.8116 H   0  0  0  0  0  0  0  0  0  0  0  0
   -4.7135   -0.9197    3.2350 H   0  0  0  0  0  0  0  0  0  0  0  0
   -2.7971    0.5575    2.2152 H   0  0  0  0  0  0  0  0  0  0  0  0
   -4.3473    1.3830    2.3828 H   0  0  0  0  0  0  0  0  0  0  0  0
   -4.9507    0.7562    0.0657 H   0  0  0  0  0  0  0  0  0  0  0  0
   -4.9663    2.4906   -1.6702 H   0  0  0  0  0  0  0  0  0  0  0  0
   -3.3667    3.0451   -2.2318 H   0  0  0  0  0  0  0  0  0  0  0  0
   -3.7965    1.3448   -2.3043 H   0  0  0  0  0  0  0  0  0  0  0  0
   -4.7950    3.3574    0.7535 H   0  0  0  0  0  0  0  0  0  0  0  0
   -3.1648    3.3476    1.4913 H   0  0  0  0  0  0  0  0  0  0  0  0
   -3.4350    4.2169    0.0028 H   0  0  0  0  0  0  0  0  0  0  0  0
   -4.3839   -3.8490    1.4115 H   0  0  0  0  0  0  0  0  0  0  0  0
   -6.0996   -3.3675    1.3170 H   0  0  0  0  0  0  0  0  0  0  0  0
   -5.1800   -3.1613    2.8195 H   0  0  0  0  0  0  0  0  0  0  0  0
    0.7500   -1.8180   -2.4304 H   0  0  0  0  0  0  0  0  0  0  0  0
   -0.6763   -2.4668   -4.0799 H   0  0  0  0  0  0  0  0  0  0  0  0
   -2.0218   -3.5919   -3.9390 H   0  0  0  0  0  0  0  0  0  0  0  0
   -0.6592   -3.7597   -2.8218 H   0  0  0  0  0  0  0  0  0  0  0  0
  1  2  1  0  0  0  0
  1 29  1  0  0  0  0
  1 30  1  0  0  0  0
  1 31  1  0  0  0  0
  2  3  1  0  0  0  0
  2 32  1  0  0  0  0
  2 33  1  0  0  0  0
  3  4  1  0  0  0  0
  3 34  1  0  0  0  0
  3 35  1  0  0  0  0
  4  5  1  0  0  0  0
  4 36  1  0  0  0  0
  4 37  1  0  0  0  0
  5  6  1  0  0  0  0
  5 38  1  0  0  0  0
  5 39  1  0  0  0  0
  6  7  1  0  0  0  0
  6 40  1  0  0  0  0
  6 41  1  0  0  0  0
  7  8  1  0  0  0  0
  7  9  1  0  0  0  0
  7 10  1  0  0  0  0
  8 42  1  0  0  0  0
  8 43  1  0  0  0  0
  8 44  1  0  0  0  0
  9 45  1  0  0  0  0
  9 46  1  0  0  0  0
  9 47  1  0  0  0  0
 10 26  2  0  0  0  0
 10 11  1  0  0  0  0
 11 12  2  0  0  0  0
 11 48  1  0  0  0  0
 12 23  1  0  0  0  0
 12 13  1  0  0  0  0
 13 14  1  0  0  0  0
 13 25  2  0  0  0  0
 14 15  1  0  0  0  0
 14 19  1  0  0  0  0
 14 49  1  1  0  0  0
 15 16  1  0  0  0  0
 15 50  1  0  0  0  0
 15 51  1  0  0  0  0
 16 17  2  0  0  0  0
 16 24  1  0  0  0  0
 17 18  1  0  0  0  0
 17 52  1  0  0  0  0
 18 53  1  0  0  0  0
 18 54  1  0  0  0  0
 19 18  1  0  0  0  0
 19 20  1  0  0  0  0
 19 55  1  6  0  0  0
 20 23  1  0  0  0  0
 20 21  1  0  0  0  0
 20 22  1  0  0  0  0
 21 56  1  0  0  0  0
 21 57  1  0  0  0  0
 21 58  1  0  0  0  0
 22 59  1  0  0  0  0
 22 60  1  0  0  0  0
 22 61  1  0  0  0  0
 24 62  1  0  0  0  0
 24 63  1  0  0  0  0
 24 64  1  0  0  0  0
 25 26  1  0  0  0  0
 25 27  1  0  0  0  0
 26 65  1  0  0  0  0
 27 28  1  0  0  0  0
 28 66  1  0  0  0  0
 28 67  1  0  0  0  0
 28 68  1  0  0  0  0
M  END
$$$$
CHEMBL56288
 OpenBabel12022418143D

 57 58  0  0  0  0  0  0  0  0999 V2000
    7.0126   -3.8649    2.4719 C   0  0  0  0  0  0  0  0  0  0  0  0
    6.5052   -2.6266    3.1929 C   0  0  0  0  0  0  0  0  0  0  0  0
    7.0101   -1.3618    2.5102 C   0  0  0  0  0  0  0  0  0  0  0  0
    6.5163   -0.0963    3.2112 C   0  0  0  0  0  0  0  0  0  0  0  0
    7.0542    1.1277    2.4745 C   0  0  0  0  0  0  0  0  0  0  0  0
    6.6016    2.4469    3.1102 C   0  0  0  0  0  0  0  0  0  0  0  0
    7.1405    3.7165    2.3796 C   0  0  0  0  0  0  0  0  0  0  0  0
    6.5792    3.7781    0.9374 C   0  0  0  0  0  0  0  0  0  0  0  0
    6.6066    4.9691    3.1121 C   0  0  0  0  0  0  0  0  0  0  0  0
    8.6760    3.7257    2.3864 C   0  0  0  0  0  0  0  0  0  0  0  0
    9.4013    3.7161    3.5836 C   0  0  0  0  0  0  0  0  0  0  0  0
   10.8025    3.7067    3.5653 C   0  0  0  0  0  0  0  0  0  0  0  0
   11.5512    3.6782    2.3625 C   0  0  0  0  0  0  0  0  0  0  0  0
   13.0351    3.6673    2.3615 C   0  0  0  0  0  0  0  0  0  0  0  0
   13.7848    4.3161    1.3652 C   0  0  0  0  0  0  0  0  0  0  0  0
   15.1815    4.2501    1.3228 C   0  0  0  0  0  0  0  0  0  0  0  0
   15.9237    4.8751    0.1841 C   0  0  0  0  0  0  0  0  0  0  0  0
   15.8627    3.6031    2.3596 C   0  0  0  0  0  0  0  0  0  0  0  0
   15.1482    2.9930    3.3985 C   0  0  0  0  0  0  0  0  0  0  0  0
   15.8436    2.3754    4.5773 C   0  0  0  0  0  0  0  0  0  0  0  0
   13.7591    2.9989    3.3560 C   0  0  0  0  0  0  0  0  0  0  0  0
   10.7969    3.6622    1.1760 C   0  0  0  0  0  0  0  0  0  0  0  0
    9.4074    3.7039    1.1925 C   0  0  0  0  0  0  0  0  0  0  0  0
   11.3171    3.5844   -0.0908 O   0  0  0  0  0  0  0  0  0  0  0  0
   11.4462    3.7517    4.7787 O   0  0  0  0  0  0  0  0  0  0  0  0
    6.6479   -4.7696    2.9665 H   0  0  0  0  0  0  0  0  0  0  0  0
    8.1072   -3.8941    2.4687 H   0  0  0  0  0  0  0  0  0  0  0  0
    6.6680   -3.8806    1.4326 H   0  0  0  0  0  0  0  0  0  0  0  0
    6.8424   -2.6481    4.2354 H   0  0  0  0  0  0  0  0  0  0  0  0
    5.4094   -2.6339    3.2019 H   0  0  0  0  0  0  0  0  0  0  0  0
    6.6774   -1.3526    1.4646 H   0  0  0  0  0  0  0  0  0  0  0  0
    8.1073   -1.3660    2.4954 H   0  0  0  0  0  0  0  0  0  0  0  0
    6.8542   -0.0876    4.2544 H   0  0  0  0  0  0  0  0  0  0  0  0
    5.4200   -0.0755    3.2195 H   0  0  0  0  0  0  0  0  0  0  0  0
    6.7142    1.0758    1.4357 H   0  0  0  0  0  0  0  0  0  0  0  0
    8.1487    1.0726    2.4604 H   0  0  0  0  0  0  0  0  0  0  0  0
    6.9163    2.4526    4.1628 H   0  0  0  0  0  0  0  0  0  0  0  0
    5.5043    2.4772    3.1260 H   0  0  0  0  0  0  0  0  0  0  0  0
    5.4905    3.8510    0.9226 H   0  0  0  0  0  0  0  0  0  0  0  0
    6.8600    2.8962    0.3500 H   0  0  0  0  0  0  0  0  0  0  0  0
    6.9701    4.6541    0.4027 H   0  0  0  0  0  0  0  0  0  0  0  0
    5.5114    5.0085    3.0671 H   0  0  0  0  0  0  0  0  0  0  0  0
    6.9892    5.8898    2.6558 H   0  0  0  0  0  0  0  0  0  0  0  0
    6.8856    4.9846    4.1711 H   0  0  0  0  0  0  0  0  0  0  0  0
    8.8796    3.7056    4.5338 H   0  0  0  0  0  0  0  0  0  0  0  0
   13.2790    4.8970    0.5951 H   0  0  0  0  0  0  0  0  0  0  0  0
   15.2363    5.2840   -0.5654 H   0  0  0  0  0  0  0  0  0  0  0  0
   16.5393    4.1212   -0.3163 H   0  0  0  0  0  0  0  0  0  0  0  0
   16.5540    5.6902    0.5467 H   0  0  0  0  0  0  0  0  0  0  0  0
   16.9445    3.5940    2.3645 H   0  0  0  0  0  0  0  0  0  0  0  0
   16.9214    2.4091    4.4697 H   0  0  0  0  0  0  0  0  0  0  0  0
   15.5401    1.3309    4.6730 H   0  0  0  0  0  0  0  0  0  0  0  0
   15.5667    2.9144    5.4960 H   0  0  0  0  0  0  0  0  0  0  0  0
   13.2338    2.4729    4.1574 H   0  0  0  0  0  0  0  0  0  0  0  0
    8.9239    3.6917    0.2248 H   0  0  0  0  0  0  0  0  0  0  0  0
   12.2252    3.2561   -0.0390 H   0  0  0  0  0  0  0  0  0  0  0  0
   10.7959    3.7502    5.4988 H   0  0  0  0  0  0  0  0  0  0  0  0
  1  2  1  0  0  0  0
  1 26  1  0  0  0  0
  1 27  1  0  0  0  0
  1 28  1  0  0  0  0
  2  3  1  0  0  0  0
  2 29  1  0  0  0  0
  2 30  1  0  0  0  0
  3  4  1  0  0  0  0
  3 31  1  0  0  0  0
  3 32  1  0  0  0  0
  4  5  1  0  0  0  0
  4 33  1  0  0  0  0
  4 34  1  0  0  0  0
  5  6  1  0  0  0  0
  5 35  1  0  0  0  0
  5 36  1  0  0  0  0
  6  7  1  0  0  0  0
  6 37  1  0  0  0  0
  6 38  1  0  0  0  0
  7  8  1  0  0  0  0
  7  9  1  0  0  0  0
  7 10  1  0  0  0  0
  8 39  1  0  0  0  0
  8 40  1  0  0  0  0
  8 41  1  0  0  0  0
  9 42  1  0  0  0  0
  9 43  1  0  0  0  0
  9 44  1  0  0  0  0
 10 23  2  0  0  0  0
 10 11  1  0  0  0  0
 11 12  2  0  0  0  0
 11 45  1  0  0  0  0
 12 13  1  0  0  0  0
 12 25  1  0  0  0  0
 13 14  1  0  0  0  0
 13 22  2  0  0  0  0
 14 21  2  0  0  0  0
 14 15  1  0  0  0  0
 15 16  2  0  0  0  0
 15 46  1  0  0  0  0
 16 17  1  0  0  0  0
 16 18  1  0  0  0  0
 17 47  1  0  0  0  0
 17 48  1  0  0  0  0
 17 49  1  0  0  0  0
 18 19  2  0  0  0  0
 18 50  1  0  0  0  0
 19 20  1  0  0  0  0
 19 21  1  0  0  0  0
 20 51  1  0  0  0  0
 20 52  1  0  0  0  0
 20 53  1  0  0  0  0
 21 54  1  0  0  0  0
 22 23  1  0  0  0  0
 22 24  1  0  0  0  0
 23 55  1  0  0  0  0
 24 56  1  0  0  0  0
 25 57  1  0  0  0  0
M  END
$$$$
CHEMBL111148
 OpenBabel12022418143D

 65 67  0  0  1  0  0  0  0  0999 V2000
    6.4678   -0.3139   -3.2550 C   0  0  0  0  0  0  0  0  0  0  0  0
    6.1604   -0.9951   -1.9331 C   0  0  0  0  0  0  0  0  0  0  0  0
    6.7559   -0.2276   -0.7559 C   0  0  0  0  0  0  0  0  0  0  0  0
    6.4615   -0.9068    0.5835 C   0  0  0  0  0  0  0  0  0  0  0  0
    7.0876   -0.1100    1.7294 C   0  0  0  0  0  0  0  0  0  0  0  0
    6.8252   -0.7658    3.0955 C   0  0  0  0  0  0  0  0  0  0  0  0
    7.4125    0.0005    4.3161 C   0  0  0  0  0  0  0  0  0  0  0  0
    6.7147    1.3901    4.4171 C   0  0  0  0  0  0  0  0  0  0  0  0
    7.0098   -0.7459    5.6112 C   0  0  0  0  0  0  0  0  0  0  0  0
    8.9537    0.0988    4.2378 C   0  0  0  0  0  0  0  0  0  0  0  0
    9.8158   -1.0325    4.2283 C   0  0  0  0  0  0  0  0  0  0  0  0
   11.2331   -0.9157    4.2022 C   0  0  0  0  0  0  0  0  0  0  0  0
   11.8456    0.3375    4.1484 C   0  0  0  0  0  0  0  0  0  0  0  0
   10.9361    1.4755    4.0850 C   0  0  0  0  0  0  0  0  0  0  0  0
    9.5565    1.3548    4.1542 C   0  0  0  0  0  0  0  0  0  0  0  0
   11.3662    2.8287    3.8726 O   0  0  0  0  0  0  0  0  0  0  0  0
   12.7281    2.7273    3.3793 C   0  0  0  0  0  0  0  0  0  0  0  0
   13.5321    3.9872    3.0180 C   0  0  0  0  0  0  0  0  0  0  0  0
   12.3591    2.1511    1.9273 C   0  0  0  0  0  0  0  0  0  0  0  0
   13.3122    2.0798    4.7220 C   0  0  2  0  0  0  0  0  0  0  0  0
   14.4947    2.6352    5.5115 C   0  0  0  0  0  0  0  0  0  0  0  0
   15.8418    2.2387    4.9744 C   0  0  0  0  0  0  0  0  0  0  0  0
   15.7785    1.1031    3.9701 C   0  0  0  0  0  0  0  0  0  0  0  0
   14.6526    0.3767    3.7026 C   0  0  0  0  0  0  0  0  0  0  0  0
   13.3479    0.5916    4.5069 C   0  0  2  0  0  0  0  0  0  0  0  0
   17.1599    0.9391    3.3561 C   0  0  0  0  0  0  0  0  0  0  0  0
   12.0138   -2.0368    4.2844 O   0  0  0  0  0  0  0  0  0  0  0  0
    6.0253   -0.8703   -4.0837 H   0  0  0  0  0  0  0  0  0  0  0  0
    7.5510   -0.2558   -3.4071 H   0  0  0  0  0  0  0  0  0  0  0  0
    6.0512    0.6994   -3.2747 H   0  0  0  0  0  0  0  0  0  0  0  0
    6.5510   -2.0161   -1.9532 H   0  0  0  0  0  0  0  0  0  0  0  0
    5.0753   -1.0722   -1.8238 H   0  0  0  0  0  0  0  0  0  0  0  0
    6.3606    0.7946   -0.7452 H   0  0  0  0  0  0  0  0  0  0  0  0
    7.8392   -0.1537   -0.8964 H   0  0  0  0  0  0  0  0  0  0  0  0
    6.8602   -1.9284    0.5775 H   0  0  0  0  0  0  0  0  0  0  0  0
    5.3778   -0.9768    0.7298 H   0  0  0  0  0  0  0  0  0  0  0  0
    6.6737    0.9043    1.7079 H   0  0  0  0  0  0  0  0  0  0  0  0
    8.1656   -0.0306    1.5639 H   0  0  0  0  0  0  0  0  0  0  0  0
    7.2052   -1.7966    3.0770 H   0  0  0  0  0  0  0  0  0  0  0  0
    5.7360   -0.8539    3.2248 H   0  0  0  0  0  0  0  0  0  0  0  0
    5.6271    1.2875    4.4941 H   0  0  0  0  0  0  0  0  0  0  0  0
    6.9087    2.0238    3.5455 H   0  0  0  0  0  0  0  0  0  0  0  0
    7.0495    1.9428    5.3058 H   0  0  0  0  0  0  0  0  0  0  0  0
    5.9192   -0.7436    5.7398 H   0  0  0  0  0  0  0  0  0  0  0  0
    7.4408   -0.2627    6.4974 H   0  0  0  0  0  0  0  0  0  0  0  0
    7.3333   -1.7901    5.6082 H   0  0  0  0  0  0  0  0  0  0  0  0
    9.3685   -2.0239    4.2702 H   0  0  0  0  0  0  0  0  0  0  0  0
    8.9921    2.2773    4.1297 H   0  0  0  0  0  0  0  0  0  0  0  0
   14.5496    3.9450    3.4095 H   0  0  0  0  0  0  0  0  0  0  0  0
   13.0534    4.9169    3.2959 H   0  0  0  0  0  0  0  0  0  0  0  0
   13.7603    4.0184    1.9391 H   0  0  0  0  0  0  0  0  0  0  0  0
   11.3767    1.6540    1.8455 H   0  0  0  0  0  0  0  0  0  0  0  0
   13.1079    1.5151    1.4727 H   0  0  0  0  0  0  0  0  0  0  0  0
   12.1555    3.0005    1.2623 H   0  0  0  0  0  0  0  0  0  0  0  0
   12.5643    2.2464    5.5251 H   0  0  0  0  0  0  0  0  0  0  0  0
   14.4033    3.7223    5.6340 H   0  0  0  0  0  0  0  0  0  0  0  0
   14.4261    2.2386    6.5326 H   0  0  0  0  0  0  0  0  0  0  0  0
   16.4977    1.9508    5.8210 H   0  0  0  0  0  0  0  0  0  0  0  0
   16.2938    3.1251    4.5006 H   0  0  0  0  0  0  0  0  0  0  0  0
   14.6908   -0.4448    2.9866 H   0  0  0  0  0  0  0  0  0  0  0  0
   13.5064    0.0614    5.4588 H   0  0  0  0  0  0  0  0  0  0  0  0
   17.7092    1.8946    3.3967 H   0  0  0  0  0  0  0  0  0  0  0  0
   17.1402    0.6427    2.3104 H   0  0  0  0  0  0  0  0  0  0  0  0
   17.7526    0.2366    3.9509 H   0  0  0  0  0  0  0  0  0  0  0  0
   11.4339   -2.7981    4.3336 H   0  0  0  0  0  0  0  0  0  0  0  0
  1  2  1  0  0  0  0
  1 28  1  0  0  0  0
  1 29  1  0  0  0  0
  1 30  1  0  0  0  0
  2  3  1  0  0  0  0
  2 31  1  0  0  0  0
  2 32  1  0  0  0  0
  3  4  1  0  0  0  0
  3 33  1  0  0  0  0
  3 34  1  0  0  0  0
  4  5  1  0  0  0  0
  4 35  1  0  0  0  0
  4 36  1  0  0  0  0
  5  6  1  0  0  0  0
  5 37  1  0  0  0  0
  5 38  1  0  0  0  0
  6  7  1  0  0  0  0
  6 39  1  0  0  0  0
  6 40  1  0  0  0  0
  7  8  1  0  0  0  0
  7  9  1  0  0  0  0
  7 10  1  0  0  0  0
  8 41  1  0  0  0  0
  8 42  1  0  0  0  0
  8 43  1  0  0  0  0
  9 44  1  0  0  0  0
  9 45  1  0  0  0  0
  9 46  1  0  0  0  0
 10 15  2  0  0  0  0
 10 11  1  0  0  0  0
 11 12  2  0  0  0  0
 11 47  1  0  0  0  0
 12 13  1  0  0  0  0
 12 27  1  0  0  0  0
 13 25  1  0  0  0  0
 13 14  2  0  0  0  0
 14 15  1  0  0  0  0
 14 16  1  0  0  0  0
 15 48  1  0  0  0  0
 16 17  1  0  0  0  0
 17 20  1  0  0  0  0
 17 18  1  0  0  0  0
 17 19  1  0  0  0  0
 18 49  1  0  0  0  0
 18 50  1  0  0  0  0
 18 51  1  0  0  0  0
 19 52  1  0  0  0  0
 19 53  1  0  0  0  0
 19 54  1  0  0  0  0
 20 21  1  0  0  0  0
 20 25  1  0  0  0  0
 20 55  1  1  0  0  0
 21 22  1  0  0  0  0
 21 56  1  0  0  0  0
 21 57  1  0  0  0  0
 22 23  1  0  0  0  0
 22 58  1  0  0  0  0
 22 59  1  0  0  0  0
 23 24  2  0  0  0  0
 23 26  1  0  0  0  0
 24 60  1  0  0  0  0
 25 24  1  0  0  0  0
 25 61  1  1  0  0  0
 26 62  1  0  0  0  0
 26 63  1  0  0  0  0
 26 64  1  0  0  0  0
 27 65  1  0  0  0  0
M  END
$$$$
CHEMBL233633
 OpenBabel12022418143D

 54 56  0  0  0  0  0  0  0  0999 V2000
    6.4348   -0.5601    3.9294 C   0  0  0  0  0  0  0  0  0  0  0  0
    5.7912   -0.1988    2.6044 C   0  0  0  0  0  0  0  0  0  0  0  0
    6.6926    0.7571    1.8340 C   0  0  0  0  0  0  0  0  0  0  0  0
    6.0581    1.1291    0.5059 C   0  0  0  0  0  0  0  0  0  0  0  0
    6.9617    2.0832   -0.2625 C   0  0  0  0  0  0  0  0  0  0  0  0
    6.2765    2.4615   -1.5738 C   0  0  0  0  0  0  0  0  0  0  0  0
    7.1208    3.3840   -2.4392 C   0  0  0  0  0  0  0  0  0  0  0  0
    8.1697    2.6123   -3.1891 C   0  0  0  0  0  0  0  0  0  0  0  0
    9.3199    2.1873   -2.5065 C   0  0  0  0  0  0  0  0  0  0  0  0
   10.1171    1.1703   -2.9940 C   0  0  0  0  0  0  0  0  0  0  0  0
    9.8445    0.5689   -4.2356 C   0  0  0  0  0  0  0  0  0  0  0  0
   10.7364   -0.4768   -4.7302 C   0  0  0  0  0  0  0  0  0  0  0  0
   10.9746   -0.6096   -6.1108 C   0  0  0  0  0  0  0  0  0  0  0  0
   11.8020   -1.5607   -6.6330 C   0  0  0  0  0  0  0  0  0  0  0  0
   11.9939   -1.6698   -8.1068 C   0  0  0  0  0  0  0  0  0  0  0  0
   12.4970   -2.4086   -5.7561 C   0  0  0  0  0  0  0  0  0  0  0  0
   12.3241   -2.2964   -4.3739 C   0  0  0  0  0  0  0  0  0  0  0  0
   13.0910   -3.1885   -3.4356 C   0  0  0  0  0  0  0  0  0  0  0  0
   11.4407   -1.3502   -3.8713 C   0  0  0  0  0  0  0  0  0  0  0  0
    8.7289    1.0521   -4.9554 C   0  0  0  0  0  0  0  0  0  0  0  0
    7.9222    2.0643   -4.4563 C   0  0  0  0  0  0  0  0  0  0  0  0
    8.3202    0.5302   -6.1544 O   0  0  0  0  0  0  0  0  0  0  0  0
    6.4879    4.6391   -3.0344 C   0  0  0  0  0  0  0  0  0  0  0  0
    7.4325    4.7608   -1.8734 C   0  0  0  0  0  0  0  0  0  0  0  0
    5.7985   -1.2553    4.4876 H   0  0  0  0  0  0  0  0  0  0  0  0
    6.5874    0.3344    4.5421 H   0  0  0  0  0  0  0  0  0  0  0  0
    7.4084   -1.0352    3.7693 H   0  0  0  0  0  0  0  0  0  0  0  0
    4.8150    0.2647    2.7801 H   0  0  0  0  0  0  0  0  0  0  0  0
    5.6221   -1.1071    2.0167 H   0  0  0  0  0  0  0  0  0  0  0  0
    7.6689    0.2901    1.6563 H   0  0  0  0  0  0  0  0  0  0  0  0
    6.8685    1.6648    2.4235 H   0  0  0  0  0  0  0  0  0  0  0  0
    5.0851    1.6016    0.6777 H   0  0  0  0  0  0  0  0  0  0  0  0
    5.8824    0.2277   -0.0928 H   0  0  0  0  0  0  0  0  0  0  0  0
    7.9295    1.6032   -0.4214 H   0  0  0  0  0  0  0  0  0  0  0  0
    7.1456    2.9838    0.3400 H   0  0  0  0  0  0  0  0  0  0  0  0
    5.3262    2.9264   -1.3353 H   0  0  0  0  0  0  0  0  0  0  0  0
    6.0473    1.5392   -2.1387 H   0  0  0  0  0  0  0  0  0  0  0  0
    9.5231    2.5839   -1.5117 H   0  0  0  0  0  0  0  0  0  0  0  0
   10.9480    0.8321   -2.3796 H   0  0  0  0  0  0  0  0  0  0  0  0
   10.4967    0.0803   -6.8056 H   0  0  0  0  0  0  0  0  0  0  0  0
   11.3611   -0.9321   -8.6462 H   0  0  0  0  0  0  0  0  0  0  0  0
   11.6991   -2.6587   -8.4691 H   0  0  0  0  0  0  0  0  0  0  0  0
   13.0281   -1.4640   -8.3838 H   0  0  0  0  0  0  0  0  0  0  0  0
   13.1843   -3.1421   -6.1674 H   0  0  0  0  0  0  0  0  0  0  0  0
   13.7481   -3.8727   -3.9789 H   0  0  0  0  0  0  0  0  0  0  0  0
   12.3985   -3.7886   -2.8376 H   0  0  0  0  0  0  0  0  0  0  0  0
   13.7135   -2.5833   -2.7686 H   0  0  0  0  0  0  0  0  0  0  0  0
   11.3051   -1.2727   -2.7940 H   0  0  0  0  0  0  0  0  0  0  0  0
    7.0350    2.3553   -5.0128 H   0  0  0  0  0  0  0  0  0  0  0  0
    8.7609   -0.3140   -6.2929 H   0  0  0  0  0  0  0  0  0  0  0  0
    5.4465    4.8610   -2.8450 H   0  0  0  0  0  0  0  0  0  0  0  0
    6.8402    5.0117   -3.9905 H   0  0  0  0  0  0  0  0  0  0  0  0
    8.4030    5.1979   -2.0615 H   0  0  0  0  0  0  0  0  0  0  0  0
    7.0109    5.0224   -0.9120 H   0  0  0  0  0  0  0  0  0  0  0  0
  1  2  1  0  0  0  0
  1 25  1  0  0  0  0
  1 26  1  0  0  0  0
  1 27  1  0  0  0  0
  2  3  1  0  0  0  0
  2 28  1  0  0  0  0
  2 29  1  0  0  0  0
  3  4  1  0  0  0  0
  3 30  1  0  0  0  0
  3 31  1  0  0  0  0
  4  5  1  0  0  0  0
  4 32  1  0  0  0  0
  4 33  1  0  0  0  0
  5  6  1  0  0  0  0
  5 34  1  0  0  0  0
  5 35  1  0  0  0  0
  6  7  1  0  0  0  0
  6 36  1  0  0  0  0
  6 37  1  0  0  0  0
  7 24  1  0  0  0  0
  7  8  1  0  0  0  0
  7 23  1  0  0  0  0
  8 21  2  0  0  0  0
  8  9  1  0  0  0  0
  9 10  2  0  0  0  0
  9 38  1  0  0  0  0
 10 11  1  0  0  0  0
 10 39  1  0  0  0  0
 11 12  1  0  0  0  0
 11 20  2  0  0  0  0
 12 19  2  0  0  0  0
 12 13  1  0  0  0  0
 13 14  2  0  0  0  0
 13 40  1  0  0  0  0
 14 15  1  0  0  0  0
 14 16  1  0  0  0  0
 15 41  1  0  0  0  0
 15 42  1  0  0  0  0
 15 43  1  0  0  0  0
 16 17  2  0  0  0  0
 16 44  1  0  0  0  0
 17 18  1  0  0  0  0
 17 19  1  0  0  0  0
 18 45  1  0  0  0  0
 18 46  1  0  0  0  0
 18 47  1  0  0  0  0
 19 48  1  0  0  0  0
 20 21  1  0  0  0  0
 20 22  1  0  0  0  0
 21 49  1  0  0  0  0
 22 50  1  0  0  0  0
 23 24  1  0  0  0  0
 23 51  1  0  0  0  0
 23 52  1  0  0  0  0
 24 53  1  0  0  0  0
 24 54  1  0  0  0  0
M  END
$$$$
CHEMBL604746
 OpenBabel12022418143D

 66 68  0  0  1  0  0  0  0  0999 V2000
    1.8488   -3.7497   -8.8515 C   0  0  0  0  0  0  0  0  0  0  0  0
    2.5052   -3.0726   -7.6576 C   0  0  0  0  0  0  0  0  0  0  0  0
    1.8851   -3.5500   -6.3445 C   0  0  0  0  0  0  0  0  0  0  0  0
    2.5244   -2.8730   -5.1306 C   0  0  0  0  0  0  0  0  0  0  0  0
    1.8765   -3.3576   -3.8260 C   0  0  0  0  0  0  0  0  0  0  0  0
    2.5308   -2.7021   -2.6035 C   0  0  0  0  0  0  0  0  0  0  0  0
    2.0203   -3.2013   -1.2111 C   0  0  0  0  0  0  0  0  0  0  0  0
    2.2564   -4.7230   -1.1065 C   0  0  0  0  0  0  0  0  0  0  0  0
    2.9143   -2.5330   -0.1207 C   0  0  0  0  0  0  0  0  0  0  0  0
    0.5803   -2.7694   -0.8863 C   0  0  0  0  0  0  0  0  0  0  0  0
   -0.3925   -3.5986   -0.2917 C   0  0  0  0  0  0  0  0  0  0  0  0
   -1.6070   -3.0732    0.2313 C   0  0  0  0  0  0  0  0  0  0  0  0
   -1.8618   -1.6894    0.2205 C   0  0  0  0  0  0  0  0  0  0  0  0
   -0.8306   -0.8995   -0.2772 C   0  0  0  0  0  0  0  0  0  0  0  0
    0.2967   -1.4069   -0.9106 C   0  0  0  0  0  0  0  0  0  0  0  0
   -0.6679    0.4079    0.0613 O   0  0  0  0  0  0  0  0  0  0  0  0
   -1.8194    1.2332    0.0733 C   0  0  0  0  0  0  0  0  0  0  0  0
   -1.7687    1.9255   -1.3120 C   0  0  0  0  0  0  0  0  0  0  0  0
   -1.5489    2.2912    1.1475 C   0  0  0  0  0  0  0  0  0  0  0  0
   -3.1479    0.4728    0.2461 C   0  0  2  0  0  0  0  0  0  0  0  0
   -4.2435    1.2791    0.9764 C   0  0  0  0  0  0  0  0  0  0  0  0
   -5.5331    0.4775    1.1291 C   0  0  0  0  0  0  0  0  0  0  0  0
   -5.4937   -0.7532    0.2657 C   0  0  0  0  0  0  0  0  0  0  0  0
   -4.4508   -1.6034    0.4413 C   0  0  0  0  0  0  0  0  0  0  0  0
   -3.0747   -0.9884    0.8216 C   0  0  1  0  0  0  0  0  0  0  0  0
   -6.1805   -0.6301   -1.0747 C   0  0  0  0  0  0  0  0  0  0  0  0
   -2.3454   -3.9243    1.1021 N   0  0  0  0  0  0  0  0  0  0  0  0
    2.2718   -3.3696   -9.7865 H   0  0  0  0  0  0  0  0  0  0  0  0
    0.7703   -3.5612   -8.8653 H   0  0  0  0  0  0  0  0  0  0  0  0
    2.0064   -4.8327   -8.8225 H   0  0  0  0  0  0  0  0  0  0  0  0
    2.3906   -1.9867   -7.7518 H   0  0  0  0  0  0  0  0  0  0  0  0
    3.5803   -3.2878   -7.6662 H   0  0  0  0  0  0  0  0  0  0  0  0
    2.0045   -4.6373   -6.2608 H   0  0  0  0  0  0  0  0  0  0  0  0
    0.8082   -3.3434   -6.3520 H   0  0  0  0  0  0  0  0  0  0  0  0
    2.4221   -1.7843   -5.2150 H   0  0  0  0  0  0  0  0  0  0  0  0
    3.5984   -3.0979   -5.1136 H   0  0  0  0  0  0  0  0  0  0  0  0
    0.8043   -3.1347   -3.8395 H   0  0  0  0  0  0  0  0  0  0  0  0
    1.9876   -4.4458   -3.7767 H   0  0  0  0  0  0  0  0  0  0  0  0
    2.4298   -1.6133   -2.6907 H   0  0  0  0  0  0  0  0  0  0  0  0
    3.6109   -2.8971   -2.6625 H   0  0  0  0  0  0  0  0  0  0  0  0
    2.1082   -5.0856   -0.0832 H   0  0  0  0  0  0  0  0  0  0  0  0
    3.2853   -4.9753   -1.3889 H   0  0  0  0  0  0  0  0  0  0  0  0
    1.5810   -5.2902   -1.7545 H   0  0  0  0  0  0  0  0  0  0  0  0
    2.7170   -1.4597   -0.0095 H   0  0  0  0  0  0  0  0  0  0  0  0
    2.7381   -2.9850    0.8626 H   0  0  0  0  0  0  0  0  0  0  0  0
    3.9789   -2.6314   -0.3546 H   0  0  0  0  0  0  0  0  0  0  0  0
   -0.1869   -4.6514   -0.1642 H   0  0  0  0  0  0  0  0  0  0  0  0
    1.0181   -0.6896   -1.2851 H   0  0  0  0  0  0  0  0  0  0  0  0
   -1.8341    1.1830   -2.1219 H   0  0  0  0  0  0  0  0  0  0  0  0
   -0.8032    2.4283   -1.4629 H   0  0  0  0  0  0  0  0  0  0  0  0
   -2.5725    2.6547   -1.4372 H   0  0  0  0  0  0  0  0  0  0  0  0
   -2.2498    3.1280    1.0774 H   0  0  0  0  0  0  0  0  0  0  0  0
   -0.5339    2.6917    1.0522 H   0  0  0  0  0  0  0  0  0  0  0  0
   -1.6117    1.8477    2.1467 H   0  0  0  0  0  0  0  0  0  0  0  0
   -3.5065    0.3585   -0.7934 H   0  0  0  0  0  0  0  0  0  0  0  0
   -3.9134    1.5641    1.9816 H   0  0  0  0  0  0  0  0  0  0  0  0
   -4.4556    2.2031    0.4314 H   0  0  0  0  0  0  0  0  0  0  0  0
   -5.6398    0.1527    2.1741 H   0  0  0  0  0  0  0  0  0  0  0  0
   -6.4118    1.1012    0.9286 H   0  0  0  0  0  0  0  0  0  0  0  0
   -4.4377   -2.5692   -0.0558 H   0  0  0  0  0  0  0  0  0  0  0  0
   -2.9540   -0.9779    1.9112 H   0  0  0  0  0  0  0  0  0  0  0  0
   -6.4131    0.4270   -1.2756 H   0  0  0  0  0  0  0  0  0  0  0  0
   -5.4980   -0.9188   -1.8856 H   0  0  0  0  0  0  0  0  0  0  0  0
   -7.1049   -1.1997   -1.1480 H   0  0  0  0  0  0  0  0  0  0  0  0
   -1.9832   -3.7999    2.0514 H   0  0  0  0  0  0  0  0  0  0  0  0
   -2.2358   -4.9063    0.8546 H   0  0  0  0  0  0  0  0  0  0  0  0
  1  2  1  0  0  0  0
  1 28  1  0  0  0  0
  1 29  1  0  0  0  0
  1 30  1  0  0  0  0
  2  3  1  0  0  0  0
  2 31  1  0  0  0  0
  2 32  1  0  0  0  0
  3  4  1  0  0  0  0
  3 33  1  0  0  0  0
  3 34  1  0  0  0  0
  4  5  1  0  0  0  0
  4 35  1  0  0  0  0
  4 36  1  0  0  0  0
  5  6  1  0  0  0  0
  5 37  1  0  0  0  0
  5 38  1  0  0  0  0
  6  7  1  0  0  0  0
  6 39  1  0  0  0  0
  6 40  1  0  0  0  0
  7  8  1  0  0  0  0
  7  9  1  0  0  0  0
  7 10  1  0  0  0  0
  8 41  1  0  0  0  0
  8 42  1  0  0  0  0
  8 43  1  0  0  0  0
  9 44  1  0  0  0  0
  9 45  1  0  0  0  0
  9 46  1  0  0  0  0
 10 15  2  0  0  0  0
 10 11  1  0  0  0  0
 11 12  2  0  0  0  0
 11 47  1  0  0  0  0
 12 13  1  0  0  0  0
 12 27  1  0  0  0  0
 13 25  1  0  0  0  0
 13 14  2  0  0  0  0
 14 15  1  0  0  0  0
 14 16  1  0  0  0  0
 15 48  1  0  0  0  0
 16 17  1  0  0  0  0
 17 18  1  0  0  0  0
 17 19  1  0  0  0  0
 17 20  1  0  0  0  0
 18 49  1  0  0  0  0
 18 50  1  0  0  0  0
 18 51  1  0  0  0  0
 19 52  1  0  0  0  0
 19 53  1  0  0  0  0
 19 54  1  0  0  0  0
 20 21  1  0  0  0  0
 20 25  1  0  0  0  0
 20 55  1  6  0  0  0
 21 22  1  0  0  0  0
 21 56  1  0  0  0  0
 21 57  1  0  0  0  0
 22 23  1  0  0  0  0
 22 58  1  0  0  0  0
 22 59  1  0  0  0  0
 23 24  2  0  0  0  0
 23 26  1  0  0  0  0
 24 60  1  0  0  0  0
 25 24  1  0  0  0  0
 25 61  1  1  0  0  0
 26 62  1  0  0  0  0
 26 63  1  0  0  0  0
 26 64  1  0  0  0  0
 27 65  1  0  0  0  0
 27 66  1  0  0  0  0
M  END
$$$$
CHEMBL57840	8GUS	best_smi
 OpenBabel12022418143D

 65 67  0  0  1  0  0  0  0  0999 V2000
    0.8843    1.7847    1.0814 C   0  0  0  0  0  0  0  0  0  0  0  0
    2.4042    1.7283    1.0560 C   0  0  0  0  0  0  0  0  0  0  0  0
    2.9310    2.1881   -0.2975 C   0  0  0  0  0  0  0  0  0  0  0  0
    4.4562    2.1408   -0.3752 C   0  0  0  0  0  0  0  0  0  0  0  0
    4.9077    2.6029   -1.7629 C   0  0  0  0  0  0  0  0  0  0  0  0
    6.4290    2.5792   -1.9091 C   0  0  0  0  0  0  0  0  0  0  0  0
    6.9716    3.0687   -3.2936 C   0  0  0  0  0  0  0  0  0  0  0  0
    6.3910    2.1787   -4.4167 C   0  0  0  0  0  0  0  0  0  0  0  0
    6.5165    4.5193   -3.5800 C   0  0  0  0  0  0  0  0  0  0  0  0
    8.5110    3.0409   -3.2475 C   0  0  0  0  0  0  0  0  0  0  0  0
    9.1887    3.7912   -2.2788 C   0  0  0  0  0  0  0  0  0  0  0  0
   10.5819    3.7842   -2.1885 C   0  0  0  0  0  0  0  0  0  0  0  0
   11.1384    4.5330   -1.1865 O   0  0  0  0  0  0  0  0  0  0  0  0
   11.3926    3.0434   -3.0717 C   0  0  0  0  0  0  0  0  0  0  0  0
   12.9177    3.0507   -2.9977 C   0  0  2  0  0  0  0  0  0  0  0  0
   13.4816    3.2325   -1.5994 C   0  0  0  0  0  0  0  0  0  0  0  0
   14.2967    4.2689   -1.3038 C   0  0  0  0  0  0  0  0  0  0  0  0
   14.7909    4.5745    0.0669 C   0  0  0  0  0  0  0  0  0  0  0  0
   14.6674    5.1676   -2.4551 C   0  0  3  0  0  0  0  0  0  0  0  0
   13.4025    5.5858   -3.2883 C   0  0  0  0  0  0  0  0  0  0  0  0
   13.5203    4.1530   -3.9187 C   0  0  1  0  0  0  0  0  0  0  0  0
   15.1091    4.3660   -3.7607 C   0  0  0  0  0  0  0  0  0  0  0  0
   15.7931    5.2321   -4.8392 C   0  0  0  0  0  0  0  0  0  0  0  0
   15.9961    3.1283   -3.5579 C   0  0  0  0  0  0  0  0  0  0  0  0
   10.7050    2.3021   -4.0503 C   0  0  0  0  0  0  0  0  0  0  0  0
   11.3197    1.5288   -4.9995 O   0  0  0  0  0  0  0  0  0  0  0  0
    9.3025    2.2991   -4.1327 C   0  0  0  0  0  0  0  0  0  0  0  0
    0.5057    1.4538    2.0515 H   0  0  0  0  0  0  0  0  0  0  0  0
    0.4566    1.1382    0.3081 H   0  0  0  0  0  0  0  0  0  0  0  0
    0.5289    2.8055    0.9050 H   0  0  0  0  0  0  0  0  0  0  0  0
    2.7331    0.7030    1.2591 H   0  0  0  0  0  0  0  0  0  0  0  0
    2.8055    2.3652    1.8523 H   0  0  0  0  0  0  0  0  0  0  0  0
    2.5905    3.2128   -0.4926 H   0  0  0  0  0  0  0  0  0  0  0  0
    2.5088    1.5545   -1.0874 H   0  0  0  0  0  0  0  0  0  0  0  0
    4.8118    1.1203   -0.1869 H   0  0  0  0  0  0  0  0  0  0  0  0
    4.8917    2.7871    0.3964 H   0  0  0  0  0  0  0  0  0  0  0  0
    4.5324    3.6182   -1.9288 H   0  0  0  0  0  0  0  0  0  0  0  0
    4.4451    1.9531   -2.5125 H   0  0  0  0  0  0  0  0  0  0  0  0
    6.7920    1.5586   -1.7219 H   0  0  0  0  0  0  0  0  0  0  0  0
    6.8407    3.1941   -1.0999 H   0  0  0  0  0  0  0  0  0  0  0  0
    5.3039    2.2816   -4.4968 H   0  0  0  0  0  0  0  0  0  0  0  0
    6.6095    1.1191   -4.2375 H   0  0  0  0  0  0  0  0  0  0  0  0
    6.7954    2.4511   -5.3974 H   0  0  0  0  0  0  0  0  0  0  0  0
    5.4384    4.5765   -3.7656 H   0  0  0  0  0  0  0  0  0  0  0  0
    7.0178    4.9236   -4.4675 H   0  0  0  0  0  0  0  0  0  0  0  0
    6.7359    5.1914   -2.7427 H   0  0  0  0  0  0  0  0  0  0  0  0
    8.6194    4.3899   -1.5719 H   0  0  0  0  0  0  0  0  0  0  0  0
   10.4512    5.0449   -0.7323 H   0  0  0  0  0  0  0  0  0  0  0  0
   13.2913    2.0752   -3.3274 H   0  0  0  0  0  0  0  0  0  0  0  0
   13.1566    2.5380   -0.8308 H   0  0  0  0  0  0  0  0  0  0  0  0
   14.5021    3.7976    0.7815 H   0  0  0  0  0  0  0  0  0  0  0  0
   14.3659    5.5221    0.4145 H   0  0  0  0  0  0  0  0  0  0  0  0
   15.8787    4.6530    0.0742 H   0  0  0  0  0  0  0  0  0  0  0  0
   15.3167    5.9987   -2.1597 H   0  0  0  0  0  0  0  0  0  0  0  0
   13.5482    6.4196   -3.9832 H   0  0  0  0  0  0  0  0  0  0  0  0
   12.4976    5.8324   -2.7314 H   0  0  0  0  0  0  0  0  0  0  0  0
   13.1805    4.0746   -4.9591 H   0  0  0  0  0  0  0  0  0  0  0  0
   15.2445    6.1417   -5.0928 H   0  0  0  0  0  0  0  0  0  0  0  0
   15.9159    4.6633   -5.7673 H   0  0  0  0  0  0  0  0  0  0  0  0
   16.7885    5.5430   -4.5003 H   0  0  0  0  0  0  0  0  0  0  0  0
   15.6107    2.4153   -2.8271 H   0  0  0  0  0  0  0  0  0  0  0  0
   16.9925    3.4271   -3.2125 H   0  0  0  0  0  0  0  0  0  0  0  0
   16.1140    2.5811   -4.4994 H   0  0  0  0  0  0  0  0  0  0  0  0
   12.2527    1.3977   -4.7795 H   0  0  0  0  0  0  0  0  0  0  0  0
    8.8569    1.6887   -4.9129 H   0  0  0  0  0  0  0  0  0  0  0  0
  1  2  1  0  0  0  0
  1 28  1  0  0  0  0
  1 29  1  0  0  0  0
  1 30  1  0  0  0  0
  2  3  1  0  0  0  0
  2 31  1  0  0  0  0
  2 32  1  0  0  0  0
  3  4  1  0  0  0  0
  3 33  1  0  0  0  0
  3 34  1  0  0  0  0
  4  5  1  0  0  0  0
  4 35  1  0  0  0  0
  4 36  1  0  0  0  0
  5  6  1  0  0  0  0
  5 37  1  0  0  0  0
  5 38  1  0  0  0  0
  6  7  1  0  0  0  0
  6 39  1  0  0  0  0
  6 40  1  0  0  0  0
  7  8  1  0  0  0  0
  7  9  1  0  0  0  0
  7 10  1  0  0  0  0
  8 41  1  0  0  0  0
  8 42  1  0  0  0  0
  8 43  1  0  0  0  0
  9 44  1  0  0  0  0
  9 45  1  0  0  0  0
  9 46  1  0  0  0  0
 10 27  2  0  0  0  0
 10 11  1  0  0  0  0
 11 12  2  0  0  0  0
 11 47  1  0  0  0  0
 12 13  1  0  0  0  0
 12 14  1  0  0  0  0
 13 48  1  0  0  0  0
 14 25  2  0  0  0  0
 15 14  1  0  0  0  0
 15 16  1  0  0  0  0
 15 21  1  0  0  0  0
 15 49  1  6  0  0  0
 16 17  2  0  0  0  0
 16 50  1  0  0  0  0
 17 18  1  0  0  0  0
 17 19  1  0  0  0  0
 18 51  1  0  0  0  0
 18 52  1  0  0  0  0
 18 53  1  0  0  0  0
 19 22  1  0  0  0  0
 19 20  1  0  0  0  0
 19 54  1  0  0  0  0
 20 55  1  0  0  0  0
 20 56  1  0  0  0  0
 21 20  1  0  0  0  0
 21 22  1  0  0  0  0
 21 57  1  6  0  0  0
 22 23  1  0  0  0  0
 22 24  1  0  0  0  0
 23 58  1  0  0  0  0
 23 59  1  0  0  0  0
 23 60  1  0  0  0  0
 24 61  1  0  0  0  0
 24 62  1  0  0  0  0
 24 63  1  0  0  0  0
 25 26  1  0  0  0  0
 25 27  1  0  0  0  0
 26 64  1  0  0  0  0
 27 65  1  0  0  0  0
M  END
$$$$
CHEMBL2179724	8GUS	best_smi
 OpenBabel12022418143D

 72 74  0  0  1  0  0  0  0  0999 V2000
   21.0364    7.9745    4.4766 C   0  0  0  0  0  0  0  0  0  0  0  0
   19.9236    8.0587    5.5116 C   0  0  0  0  0  0  0  0  0  0  0  0
   18.9970    6.8511    5.4069 C   0  0  0  0  0  0  0  0  0  0  0  0
   17.8609    6.8873    6.4338 C   0  0  0  0  0  0  0  0  0  0  0  0
   16.9880    5.6401    6.2725 C   0  0  0  0  0  0  0  0  0  0  0  0
   15.8222    5.5876    7.2722 C   0  0  0  0  0  0  0  0  0  0  0  0
   14.9252    4.3117    7.1415 C   0  0  0  0  0  0  0  0  0  0  0  0
   15.7635    3.0697    7.5468 C   0  0  0  0  0  0  0  0  0  0  0  0
   13.7724    4.3994    8.1685 C   0  0  0  0  0  0  0  0  0  0  0  0
   14.3300    4.2104    5.7241 C   0  0  0  0  0  0  0  0  0  0  0  0
   13.5212    5.2274    5.1983 C   0  0  0  0  0  0  0  0  0  0  0  0
   13.0772    5.2025    3.8646 C   0  0  0  0  0  0  0  0  0  0  0  0
   12.3362    6.2245    3.3150 O   0  0  0  0  0  0  0  0  0  0  0  0
   12.4395    7.4973    3.9476 C   0  0  0  0  0  0  0  0  0  0  0  0
   13.3864    4.1100    3.0165 C   0  0  0  0  0  0  0  0  0  0  0  0
   12.9810    4.1648    1.5351 C   0  0  1  0  0  0  0  0  0  0  0  0
   13.9569    3.4871    0.5759 C   0  0  0  0  0  0  0  0  0  0  0  0
   13.5445    2.5463   -0.3008 C   0  0  0  0  0  0  0  0  0  0  0  0
   14.4504    1.7910   -1.2163 C   0  0  0  0  0  0  0  0  0  0  0  0
   14.3339    0.3992   -0.9584 O   0  0  0  0  0  0  0  0  0  0  0  0
   12.0642    2.2491   -0.2972 C   0  0  1  0  0  0  0  0  0  0  0  0
   11.5569    2.0086    1.1687 C   0  0  0  0  0  0  0  0  0  0  0  0
   11.5649    3.5768    1.2819 C   0  0  2  0  0  0  0  0  0  0  0  0
   11.1464    3.5520   -0.2729 C   0  0  0  0  0  0  0  0  0  0  0  0
   11.5714    4.7227   -1.1730 C   0  0  0  0  0  0  0  0  0  0  0  0
    9.6494    3.2991   -0.5506 C   0  0  0  0  0  0  0  0  0  0  0  0
   14.1299    3.0462    3.5706 C   0  0  0  0  0  0  0  0  0  0  0  0
   14.3965    1.9642    2.7716 O   0  0  0  0  0  0  0  0  0  0  0  0
   15.1394    0.8812    3.3077 C   0  0  0  0  0  0  0  0  0  0  0  0
   14.6013    3.1218    4.8888 C   0  0  0  0  0  0  0  0  0  0  0  0
   21.6963    8.8436    4.5522 H   0  0  0  0  0  0  0  0  0  0  0  0
   20.6262    7.9454    3.4616 H   0  0  0  0  0  0  0  0  0  0  0  0
   21.6416    7.0739    4.6250 H   0  0  0  0  0  0  0  0  0  0  0  0
   19.3548    8.9826    5.3579 H   0  0  0  0  0  0  0  0  0  0  0  0
   20.3648    8.1076    6.5136 H   0  0  0  0  0  0  0  0  0  0  0  0
   19.5822    5.9335    5.5461 H   0  0  0  0  0  0  0  0  0  0  0  0
   18.5708    6.8074    4.3967 H   0  0  0  0  0  0  0  0  0  0  0  0
   17.2562    7.7905    6.2916 H   0  0  0  0  0  0  0  0  0  0  0  0
   18.2758    6.9248    7.4481 H   0  0  0  0  0  0  0  0  0  0  0  0
   17.6256    4.7589    6.3946 H   0  0  0  0  0  0  0  0  0  0  0  0
   16.6012    5.6184    5.2474 H   0  0  0  0  0  0  0  0  0  0  0  0
   15.2126    6.4919    7.1477 H   0  0  0  0  0  0  0  0  0  0  0  0
   16.2282    5.6374    8.2915 H   0  0  0  0  0  0  0  0  0  0  0  0
   16.1496    3.1676    8.5671 H   0  0  0  0  0  0  0  0  0  0  0  0
   16.6267    2.9137    6.8906 H   0  0  0  0  0  0  0  0  0  0  0  0
   15.1612    2.1535    7.5142 H   0  0  0  0  0  0  0  0  0  0  0  0
   14.1571    4.3689    9.1947 H   0  0  0  0  0  0  0  0  0  0  0  0
   13.0753    3.5612    8.0504 H   0  0  0  0  0  0  0  0  0  0  0  0
   13.1974    5.3253    8.0664 H   0  0  0  0  0  0  0  0  0  0  0  0
   13.2596    6.0624    5.8412 H   0  0  0  0  0  0  0  0  0  0  0  0
   12.0475    8.2523    3.2584 H   0  0  0  0  0  0  0  0  0  0  0  0
   13.4833    7.7591    4.1595 H   0  0  0  0  0  0  0  0  0  0  0  0
   11.8345    7.5308    4.8581 H   0  0  0  0  0  0  0  0  0  0  0  0
   12.9744    5.2211    1.2356 H   0  0  0  0  0  0  0  0  0  0  0  0
   15.0036    3.7652    0.6536 H   0  0  0  0  0  0  0  0  0  0  0  0
   15.4995    2.0705   -1.0691 H   0  0  0  0  0  0  0  0  0  0  0  0
   14.1908    1.9779   -2.2617 H   0  0  0  0  0  0  0  0  0  0  0  0
   14.3927    0.2965    0.0072 H   0  0  0  0  0  0  0  0  0  0  0  0
   11.7754    1.4816   -1.0218 H   0  0  0  0  0  0  0  0  0  0  0  0
   12.2119    1.4432    1.8337 H   0  0  0  0  0  0  0  0  0  0  0  0
   10.5740    1.5319    1.2521 H   0  0  0  0  0  0  0  0  0  0  0  0
   10.7984    3.9959    1.9431 H   0  0  0  0  0  0  0  0  0  0  0  0
   12.6291    4.9834   -1.0990 H   0  0  0  0  0  0  0  0  0  0  0  0
   11.0024    5.6243   -0.9225 H   0  0  0  0  0  0  0  0  0  0  0  0
   11.3821    4.4848   -2.2262 H   0  0  0  0  0  0  0  0  0  0  0  0
    9.2228    2.4803    0.0326 H   0  0  0  0  0  0  0  0  0  0  0  0
    9.4934    3.0530   -1.6077 H   0  0  0  0  0  0  0  0  0  0  0  0
    9.0617    4.1955   -0.3227 H   0  0  0  0  0  0  0  0  0  0  0  0
   15.1888    0.0971    2.5475 H   0  0  0  0  0  0  0  0  0  0  0  0
   14.6457    0.4532    4.1891 H   0  0  0  0  0  0  0  0  0  0  0  0
   16.1647    1.1893    3.5365 H   0  0  0  0  0  0  0  0  0  0  0  0
   15.2203    2.3209    5.2662 H   0  0  0  0  0  0  0  0  0  0  0  0
  1  2  1  0  0  0  0
  1 31  1  0  0  0  0
  1 32  1  0  0  0  0
  1 33  1  0  0  0  0
  2  3  1  0  0  0  0
  2 34  1  0  0  0  0
  2 35  1  0  0  0  0
  3  4  1  0  0  0  0
  3 36  1  0  0  0  0
  3 37  1  0  0  0  0
  4  5  1  0  0  0  0
  4 38  1  0  0  0  0
  4 39  1  0  0  0  0
  5  6  1  0  0  0  0
  5 40  1  0  0  0  0
  5 41  1  0  0  0  0
  6  7  1  0  0  0  0
  6 42  1  0  0  0  0
  6 43  1  0  0  0  0
  7  8  1  0  0  0  0
  7  9  1  0  0  0  0
  7 10  1  0  0  0  0
  8 44  1  0  0  0  0
  8 45  1  0  0  0  0
  8 46  1  0  0  0  0
  9 47  1  0  0  0  0
  9 48  1  0  0  0  0
  9 49  1  0  0  0  0
 10 30  2  0  0  0  0
 10 11  1  0  0  0  0
 11 12  2  0  0  0  0
 11 50  1  0  0  0  0
 12 13  1  0  0  0  0
 12 15  1  0  0  0  0
 13 14  1  0  0  0  0
 14 51  1  0  0  0  0
 14 52  1  0  0  0  0
 14 53  1  0  0  0  0
 15 27  2  0  0  0  0
 16 17  1  0  0  0  0
 16 23  1  0  0  0  0
 16 15  1  0  0  0  0
 16 54  1  6  0  0  0
 17 18  2  0  0  0  0
 17 55  1  0  0  0  0
 18 19  1  0  0  0  0
 18 21  1  0  0  0  0
 19 20  1  0  0  0  0
 19 56  1  0  0  0  0
 19 57  1  0  0  0  0
 20 58  1  0  0  0  0
 21 22  1  0  0  0  0
 21 24  1  0  0  0  0
 21 59  1  6  0  0  0
 22 60  1  0  0  0  0
 22 61  1  0  0  0  0
 23 22  1  0  0  0  0
 23 24  1  0  0  0  0
 23 62  1  1  0  0  0
 24 25  1  0  0  0  0
 24 26  1  0  0  0  0
 25 63  1  0  0  0  0
 25 64  1  0  0  0  0
 25 65  1  0  0  0  0
 26 66  1  0  0  0  0
 26 67  1  0  0  0  0
 26 68  1  0  0  0  0
 27 28  1  0  0  0  0
 27 30  1  0  0  0  0
 28 29  1  0  0  0  0
 29 69  1  0  0  0  0
 29 70  1  0  0  0  0
 29 71  1  0  0  0  0
 30 72  1  0  0  0  0
M  END
$$$$
CHEMBL497392	8GUS	best_smi
 OpenBabel12022418143D

 72 74  0  0  1  0  0  0  0  0999 V2000
    1.6220   -3.2621   -8.9257 C   0  0  0  0  0  0  0  0  0  0  0  0
    3.1255   -3.1445   -8.7312 C   0  0  0  0  0  0  0  0  0  0  0  0
    3.4352   -2.3726   -7.4547 C   0  0  0  0  0  0  0  0  0  0  0  0
    4.9362   -2.2197   -7.2148 C   0  0  0  0  0  0  0  0  0  0  0  0
    5.1552   -1.4301   -5.9257 C   0  0  0  0  0  0  0  0  0  0  0  0
    6.6372   -1.2339   -5.6052 C   0  0  0  0  0  0  0  0  0  0  0  0
    6.9147   -0.4610   -4.2765 C   0  0  0  0  0  0  0  0  0  0  0  0
    6.1894    0.9106   -4.3222 C   0  0  0  0  0  0  0  0  0  0  0  0
    6.3453   -1.2258   -3.0631 C   0  0  0  0  0  0  0  0  0  0  0  0
    8.4432   -0.3138   -4.1355 C   0  0  0  0  0  0  0  0  0  0  0  0
    9.2848   -1.4232   -3.9927 C   0  0  0  0  0  0  0  0  0  0  0  0
   10.6895   -1.2895   -4.0067 C   0  0  0  0  0  0  0  0  0  0  0  0
   11.5199   -2.3894   -3.9651 O   0  0  0  0  0  0  0  0  0  0  0  0
   10.9609   -3.6166   -4.4390 C   0  0  0  0  0  0  0  0  0  0  0  0
   11.3038   -0.0108   -4.0866 C   0  0  0  0  0  0  0  0  0  0  0  0
   12.8368    0.0902   -4.1628 C   0  0  1  0  0  0  0  0  0  0  0  0
   13.4145    1.2730   -4.9281 C   0  0  0  0  0  0  0  0  0  0  0  0
   14.4014    2.0403   -4.4158 C   0  0  0  0  0  0  0  0  0  0  0  0
   14.9400    3.2572   -5.0934 C   0  0  0  0  0  0  0  0  0  0  0  0
   14.7902    4.3822   -4.2371 O   0  0  0  0  0  0  0  0  0  0  0  0
   14.9520    1.6017   -3.0691 C   0  0  2  0  0  0  0  0  0  0  0  0
   15.0909    0.0396   -3.0323 C   0  0  0  0  0  0  0  0  0  0  0  0
   13.5273    0.0496   -2.7703 C   0  0  1  0  0  0  0  0  0  0  0  0
   13.8367    1.4029   -1.9431 C   0  0  0  0  0  0  0  0  0  0  0  0
   14.3008    1.0933   -0.4990 C   0  0  0  0  0  0  0  0  0  0  0  0
   12.8513    2.5644   -1.8295 C   0  0  0  0  0  0  0  0  0  0  0  0
   10.4520    1.1060   -4.1909 C   0  0  0  0  0  0  0  0  0  0  0  0
   10.9992    2.3515   -4.3507 O   0  0  0  0  0  0  0  0  0  0  0  0
   10.1852    3.4772   -4.0366 C   0  0  0  0  0  0  0  0  0  0  0  0
    9.0617    0.9347   -4.2247 C   0  0  0  0  0  0  0  0  0  0  0  0
    1.3967   -3.8148   -9.8419 H   0  0  0  0  0  0  0  0  0  0  0  0
    1.1600   -2.2718   -9.0003 H   0  0  0  0  0  0  0  0  0  0  0  0
    1.1603   -3.7898   -8.0844 H   0  0  0  0  0  0  0  0  0  0  0  0
    3.5662   -2.6340   -9.5949 H   0  0  0  0  0  0  0  0  0  0  0  0
    3.5669   -4.1461   -8.6806 H   0  0  0  0  0  0  0  0  0  0  0  0
    2.9825   -2.8877   -6.5981 H   0  0  0  0  0  0  0  0  0  0  0  0
    2.9739   -1.3788   -7.5097 H   0  0  0  0  0  0  0  0  0  0  0  0
    5.4011   -1.6959   -8.0586 H   0  0  0  0  0  0  0  0  0  0  0  0
    5.4090   -3.2059   -7.1384 H   0  0  0  0  0  0  0  0  0  0  0  0
    4.6625   -1.9561   -5.1010 H   0  0  0  0  0  0  0  0  0  0  0  0
    4.6642   -0.4576   -6.0353 H   0  0  0  0  0  0  0  0  0  0  0  0
    7.1114   -0.7000   -6.4410 H   0  0  0  0  0  0  0  0  0  0  0  0
    7.1146   -2.2224   -5.5716 H   0  0  0  0  0  0  0  0  0  0  0  0
    5.1001    0.8060   -4.3214 H   0  0  0  0  0  0  0  0  0  0  0  0
    6.4563    1.4733   -5.2258 H   0  0  0  0  0  0  0  0  0  0  0  0
    6.4380    1.5250   -3.4479 H   0  0  0  0  0  0  0  0  0  0  0  0
    5.2509   -1.1667   -3.0297 H   0  0  0  0  0  0  0  0  0  0  0  0
    6.7180   -0.8087   -2.1204 H   0  0  0  0  0  0  0  0  0  0  0  0
    6.6090   -2.2886   -3.0870 H   0  0  0  0  0  0  0  0  0  0  0  0
    8.8298   -2.4053   -3.9010 H   0  0  0  0  0  0  0  0  0  0  0  0
   11.7815   -4.3070   -4.6567 H   0  0  0  0  0  0  0  0  0  0  0  0
   10.3946   -3.4816   -5.3691 H   0  0  0  0  0  0  0  0  0  0  0  0
   10.3349   -4.0780   -3.6675 H   0  0  0  0  0  0  0  0  0  0  0  0
   13.1734   -0.7896   -4.7329 H   0  0  0  0  0  0  0  0  0  0  0  0
   12.9730    1.5005   -5.8942 H   0  0  0  0  0  0  0  0  0  0  0  0
   14.4072    3.4740   -6.0238 H   0  0  0  0  0  0  0  0  0  0  0  0
   16.0010    3.1365   -5.3291 H   0  0  0  0  0  0  0  0  0  0  0  0
   13.8532    4.4004   -3.9780 H   0  0  0  0  0  0  0  0  0  0  0  0
   15.8418    2.1608   -2.7651 H   0  0  0  0  0  0  0  0  0  0  0  0
   15.7211   -0.3534   -2.2282 H   0  0  0  0  0  0  0  0  0  0  0  0
   15.4450   -0.4411   -3.9515 H   0  0  0  0  0  0  0  0  0  0  0  0
   13.1902   -0.7954   -2.1590 H   0  0  0  0  0  0  0  0  0  0  0  0
   15.1644    0.4280   -0.4406 H   0  0  0  0  0  0  0  0  0  0  0  0
   13.4851    0.6184    0.0592 H   0  0  0  0  0  0  0  0  0  0  0  0
   14.5782    2.0103    0.0334 H   0  0  0  0  0  0  0  0  0  0  0  0
   12.5810    2.9923   -2.7882 H   0  0  0  0  0  0  0  0  0  0  0  0
   13.2988    3.3939   -1.2665 H   0  0  0  0  0  0  0  0  0  0  0  0
   11.9372    2.2622   -1.3101 H   0  0  0  0  0  0  0  0  0  0  0  0
   10.8291    4.3614   -4.0215 H   0  0  0  0  0  0  0  0  0  0  0  0
    9.7302    3.3773   -3.0443 H   0  0  0  0  0  0  0  0  0  0  0  0
    9.4280    3.6385   -4.8090 H   0  0  0  0  0  0  0  0  0  0  0  0
    8.4443    1.8079   -4.3736 H   0  0  0  0  0  0  0  0  0  0  0  0
  1  2  1  0  0  0  0
  1 31  1  0  0  0  0
  1 32  1  0  0  0  0
  1 33  1  0  0  0  0
  2  3  1  0  0  0  0
  2 34  1  0  0  0  0
  2 35  1  0  0  0  0
  3  4  1  0  0  0  0
  3 36  1  0  0  0  0
  3 37  1  0  0  0  0
  4  5  1  0  0  0  0
  4 38  1  0  0  0  0
  4 39  1  0  0  0  0
  5  6  1  0  0  0  0
  5 40  1  0  0  0  0
  5 41  1  0  0  0  0
  6  7  1  0  0  0  0
  6 42  1  0  0  0  0
  6 43  1  0  0  0  0
  7  8  1  0  0  0  0
  7  9  1  0  0  0  0
  7 10  1  0  0  0  0
  8 44  1  0  0  0  0
  8 45  1  0  0  0  0
  8 46  1  0  0  0  0
  9 47  1  0  0  0  0
  9 48  1  0  0  0  0
  9 49  1  0  0  0  0
 10 30  2  0  0  0  0
 10 11  1  0  0  0  0
 11 12  2  0  0  0  0
 11 50  1  0  0  0  0
 12 13  1  0  0  0  0
 12 15  1  0  0  0  0
 13 14  1  0  0  0  0
 14 51  1  0  0  0  0
 14 52  1  0  0  0  0
 14 53  1  0  0  0  0
 15 27  2  0  0  0  0
 16 15  1  0  0  0  0
 16 17  1  0  0  0  0
 16 23  1  0  0  0  0
 16 54  1  6  0  0  0
 17 18  2  0  0  0  0
 17 55  1  0  0  0  0
 18 19  1  0  0  0  0
 18 21  1  0  0  0  0
 19 20  1  0  0  0  0
 19 56  1  0  0  0  0
 19 57  1  0  0  0  0
 20 58  1  0  0  0  0
 21 22  1  0  0  0  0
 21 24  1  0  0  0  0
 21 59  1  1  0  0  0
 22 60  1  0  0  0  0
 22 61  1  0  0  0  0
 23 22  1  0  0  0  0
 23 24  1  0  0  0  0
 23 62  1  1  0  0  0
 24 25  1  0  0  0  0
 24 26  1  0  0  0  0
 25 63  1  0  0  0  0
 25 64  1  0  0  0  0
 25 65  1  0  0  0  0
 26 66  1  0  0  0  0
 26 67  1  0  0  0  0
 26 68  1  0  0  0  0
 27 28  1  0  0  0  0
 27 30  1  0  0  0  0
 28 29  1  0  0  0  0
 29 69  1  0  0  0  0
 29 70  1  0  0  0  0
 29 71  1  0  0  0  0
 30 72  1  0  0  0  0
M  END
$$$$
CHEMBL2331607	8GUS	best_smi
 OpenBabel12022418143D

 72 74  0  0  1  0  0  0  0  0999 V2000
    6.8550    3.0320   10.2947 C   0  0  0  0  0  0  0  0  0  0  0  0
    6.3843    3.8611    9.1094 C   0  0  0  0  0  0  0  0  0  0  0  0
    6.8478    3.2414    7.7927 C   0  0  0  0  0  0  0  0  0  0  0  0
    6.3971    4.0589    6.5821 C   0  0  0  0  0  0  0  0  0  0  0  0
    6.8735    3.4014    5.2851 C   0  0  0  0  0  0  0  0  0  0  0  0
    6.4280    4.1925    4.0453 C   0  0  0  0  0  0  0  0  0  0  0  0
    6.8431    3.5518    2.6869 C   0  0  0  0  0  0  0  0  0  0  0  0
    6.1007    2.1977    2.5293 C   0  0  0  0  0  0  0  0  0  0  0  0
    6.3445    4.4538    1.5367 C   0  0  0  0  0  0  0  0  0  0  0  0
    8.3728    3.4308    2.5655 C   0  0  0  0  0  0  0  0  0  0  0  0
    9.2193    4.5375    2.7327 C   0  0  0  0  0  0  0  0  0  0  0  0
   10.6227    4.4173    2.6762 C   0  0  0  0  0  0  0  0  0  0  0  0
   11.4705    5.4818    2.8872 O   0  0  0  0  0  0  0  0  0  0  0  0
   10.9016    6.6846    3.3984 C   0  0  0  0  0  0  0  0  0  0  0  0
   11.2292    3.1756    2.3550 C   0  0  0  0  0  0  0  0  0  0  0  0
   12.7601    3.0602    2.3229 C   0  0  3  0  0  0  0  0  0  0  0  0
   13.3337    2.0321    1.3623 C   0  0  0  0  0  0  0  0  0  0  0  0
   14.1835    1.0725    1.7836 C   0  0  0  0  0  0  0  0  0  0  0  0
   14.6418   -0.0469    0.9097 C   0  0  0  0  0  0  0  0  0  0  0  0
   16.0503    0.0056    0.7699 O   0  0  0  0  0  0  0  0  0  0  0  0
   14.6283    1.1544    3.2313 C   0  0  1  0  0  0  0  0  0  0  0  0
   14.9284    2.6533    3.5915 C   0  0  0  0  0  0  0  0  0  0  0  0
   13.3552    2.7747    3.7377 C   0  0  2  0  0  0  0  0  0  0  0  0
   13.4509    1.2707    4.3080 C   0  0  0  0  0  0  0  0  0  0  0  0
   12.3128    0.2700    4.1403 C   0  0  0  0  0  0  0  0  0  0  0  0
   13.8367    1.2237    5.8063 C   0  0  0  0  0  0  0  0  0  0  0  0
   10.3638    2.0896    2.0866 C   0  0  0  0  0  0  0  0  0  0  0  0
   10.8999    0.9332    1.5827 O   0  0  0  0  0  0  0  0  0  0  0  0
   10.1372   -0.2664    1.6686 C   0  0  0  0  0  0  0  0  0  0  0  0
    8.9807    2.2166    2.2512 C   0  0  0  0  0  0  0  0  0  0  0  0
    6.5175    3.4816   11.2333 H   0  0  0  0  0  0  0  0  0  0  0  0
    7.9480    2.9712   10.3197 H   0  0  0  0  0  0  0  0  0  0  0  0
    6.4572    2.0132   10.2423 H   0  0  0  0  0  0  0  0  0  0  0  0
    6.7763    4.8803    9.2025 H   0  0  0  0  0  0  0  0  0  0  0  0
    5.2905    3.9290    9.1272 H   0  0  0  0  0  0  0  0  0  0  0  0
    6.4522    2.2214    7.7126 H   0  0  0  0  0  0  0  0  0  0  0  0
    7.9415    3.1630    7.7915 H   0  0  0  0  0  0  0  0  0  0  0  0
    6.7929    5.0784    6.6512 H   0  0  0  0  0  0  0  0  0  0  0  0
    5.3021    4.1359    6.5761 H   0  0  0  0  0  0  0  0  0  0  0  0
    6.4783    2.3808    5.2501 H   0  0  0  0  0  0  0  0  0  0  0  0
    7.9668    3.3238    5.3097 H   0  0  0  0  0  0  0  0  0  0  0  0
    6.8155    5.2139    4.1219 H   0  0  0  0  0  0  0  0  0  0  0  0
    5.3307    4.2868    4.0714 H   0  0  0  0  0  0  0  0  0  0  0  0
    5.0220    2.3177    2.6456 H   0  0  0  0  0  0  0  0  0  0  0  0
    6.4290    1.4559    3.2666 H   0  0  0  0  0  0  0  0  0  0  0  0
    6.2697    1.7614    1.5353 H   0  0  0  0  0  0  0  0  0  0  0  0
    5.2500    4.5021    1.5225 H   0  0  0  0  0  0  0  0  0  0  0  0
    6.6724    4.0702    0.5623 H   0  0  0  0  0  0  0  0  0  0  0  0
    6.7169    5.4795    1.6269 H   0  0  0  0  0  0  0  0  0  0  0  0
    8.7614    5.5075    2.9050 H   0  0  0  0  0  0  0  0  0  0  0  0
   11.7193    7.3341    3.7259 H   0  0  0  0  0  0  0  0  0  0  0  0
   10.2687    6.4949    4.2722 H   0  0  0  0  0  0  0  0  0  0  0  0
   10.3454    7.2158    2.6180 H   0  0  0  0  0  0  0  0  0  0  0  0
   13.1560    4.0266    1.9752 H   0  0  0  0  0  0  0  0  0  0  0  0
   12.9753    2.0681    0.3391 H   0  0  0  0  0  0  0  0  0  0  0  0
   14.1973    0.0063   -0.0910 H   0  0  0  0  0  0  0  0  0  0  0  0
   14.3604   -1.0135    1.3410 H   0  0  0  0  0  0  0  0  0  0  0  0
   16.2568    0.9030    0.4574 H   0  0  0  0  0  0  0  0  0  0  0  0
   15.4162    0.4358    3.4771 H   0  0  0  0  0  0  0  0  0  0  0  0
   15.4087    3.2582    2.8140 H   0  0  0  0  0  0  0  0  0  0  0  0
   15.5219    2.8049    4.4989 H   0  0  0  0  0  0  0  0  0  0  0  0
   13.0448    3.5253    4.4747 H   0  0  0  0  0  0  0  0  0  0  0  0
   12.2694   -0.1355    3.1340 H   0  0  0  0  0  0  0  0  0  0  0  0
   11.3530    0.7172    4.4156 H   0  0  0  0  0  0  0  0  0  0  0  0
   12.4484   -0.6116    4.7789 H   0  0  0  0  0  0  0  0  0  0  0  0
   14.7145    1.8189    6.0641 H   0  0  0  0  0  0  0  0  0  0  0  0
   14.0553    0.1952    6.1173 H   0  0  0  0  0  0  0  0  0  0  0  0
   13.0038    1.5876    6.4189 H   0  0  0  0  0  0  0  0  0  0  0  0
   10.7856   -1.0918    1.3598 H   0  0  0  0  0  0  0  0  0  0  0  0
    9.2827   -0.2453    0.9874 H   0  0  0  0  0  0  0  0  0  0  0  0
    9.8205   -0.4600    2.6997 H   0  0  0  0  0  0  0  0  0  0  0  0
    8.3602    1.3462    2.0952 H   0  0  0  0  0  0  0  0  0  0  0  0
  1  2  1  0  0  0  0
  1 31  1  0  0  0  0
  1 32  1  0  0  0  0
  1 33  1  0  0  0  0
  2  3  1  0  0  0  0
  2 34  1  0  0  0  0
  2 35  1  0  0  0  0
  3  4  1  0  0  0  0
  3 36  1  0  0  0  0
  3 37  1  0  0  0  0
  4  5  1  0  0  0  0
  4 38  1  0  0  0  0
  4 39  1  0  0  0  0
  5  6  1  0  0  0  0
  5 40  1  0  0  0  0
  5 41  1  0  0  0  0
  6  7  1  0  0  0  0
  6 42  1  0  0  0  0
  6 43  1  0  0  0  0
  7  8  1  0  0  0  0
  7  9  1  0  0  0  0
  7 10  1  0  0  0  0
  8 44  1  0  0  0  0
  8 45  1  0  0  0  0
  8 46  1  0  0  0  0
  9 47  1  0  0  0  0
  9 48  1  0  0  0  0
  9 49  1  0  0  0  0
 10 30  2  0  0  0  0
 10 11  1  0  0  0  0
 11 12  2  0  0  0  0
 11 50  1  0  0  0  0
 12 13  1  0  0  0  0
 12 15  1  0  0  0  0
 13 14  1  0  0  0  0
 14 51  1  0  0  0  0
 14 52  1  0  0  0  0
 14 53  1  0  0  0  0
 15 16  1  0  0  0  0
 15 27  2  0  0  0  0
 16 23  1  0  0  0  0
 16 17  1  0  0  0  0
 16 54  1  0  0  0  0
 17 18  2  0  0  0  0
 17 55  1  0  0  0  0
 18 19  1  0  0  0  0
 18 21  1  0  0  0  0
 19 20  1  0  0  0  0
 19 56  1  0  0  0  0
 19 57  1  0  0  0  0
 20 58  1  0  0  0  0
 21 22  1  0  0  0  0
 21 24  1  0  0  0  0
 21 59  1  1  0  0  0
 22 60  1  0  0  0  0
 22 61  1  0  0  0  0
 23 22  1  0  0  0  0
 23 24  1  0  0  0  0
 23 62  1  1  0  0  0
 24 25  1  0  0  0  0
 24 26  1  0  0  0  0
 25 63  1  0  0  0  0
 25 64  1  0  0  0  0
 25 65  1  0  0  0  0
 26 66  1  0  0  0  0
 26 67  1  0  0  0  0
 26 68  1  0  0  0  0
 27 28  1  0  0  0  0
 27 30  1  0  0  0  0
 28 29  1  0  0  0  0
 29 69  1  0  0  0  0
 29 70  1  0  0  0  0
 29 71  1  0  0  0  0
 30 72  1  0  0  0  0
M  END
$$$$
CHEMBL5269105	8GUS	best_smi
 OpenBabel12022418143D

 66 68  0  0  1  0  0  0  0  0999 V2000
    4.8012   -5.2841    2.6661 C   0  0  0  0  0  0  0  0  0  0  0  0
    4.3920   -4.0151    3.3985 C   0  0  0  0  0  0  0  0  0  0  0  0
    4.9659   -2.7628    2.7248 C   0  0  0  0  0  0  0  0  0  0  0  0
    4.5422   -1.4895    3.4737 C   0  0  0  0  0  0  0  0  0  0  0  0
    5.0164   -0.1374    2.8484 C   0  0  0  0  0  0  0  0  0  0  0  0
    4.3637    0.0360    1.4580 C   0  0  0  0  0  0  0  0  0  0  0  0
    4.4632    1.0063    3.7395 C   0  0  0  0  0  0  0  0  0  0  0  0
    6.5506   -0.0160    2.8134 C   0  0  0  0  0  0  0  0  0  0  0  0
    7.2958   -0.1172    3.9967 C   0  0  0  0  0  0  0  0  0  0  0  0
    8.7015   -0.0597    4.0132 C   0  0  0  0  0  0  0  0  0  0  0  0
    9.3972   -0.1700    5.1890 O   0  0  0  0  0  0  0  0  0  0  0  0
    8.7551   -0.8083    6.2877 C   0  0  0  0  0  0  0  0  0  0  0  0
    9.4288    0.1525    2.8186 C   0  0  0  0  0  0  0  0  0  0  0  0
   10.9539    0.0847    2.6978 C   0  0  3  0  0  0  0  0  0  0  0  0
   11.3886   -1.0299    1.7335 C   0  0  0  0  0  0  0  0  0  0  0  0
   12.3708   -1.8928    2.0328 C   0  0  0  0  0  0  0  0  0  0  0  0
   12.8458   -2.9817    1.1271 C   0  0  0  0  0  0  0  0  0  0  0  0
   14.2311   -2.8123    0.8760 O   0  0  0  0  0  0  0  0  0  0  0  0
   12.9946   -1.7177    3.3976 C   0  0  3  0  0  0  0  0  0  0  0  0
   11.8667   -1.5731    4.4746 C   0  0  0  0  0  0  0  0  0  0  0  0
   11.7857   -0.0790    3.9904 C   0  0  3  0  0  0  0  0  0  0  0  0
   13.3591   -0.2055    3.7290 C   0  0  0  0  0  0  0  0  0  0  0  0
   14.2172    0.0200    4.9898 C   0  0  0  0  0  0  0  0  0  0  0  0
   13.9859    0.6318    2.6006 C   0  0  0  0  0  0  0  0  0  0  0  0
    8.6663    0.3729    1.6420 C   0  0  0  0  0  0  0  0  0  0  0  0
    9.1764    0.5979    0.3813 O   0  0  0  0  0  0  0  0  0  0  0  0
   10.0807    1.6937    0.2492 C   0  0  0  0  0  0  0  0  0  0  0  0
    7.2702    0.2323    1.6420 C   0  0  0  0  0  0  0  0  0  0  0  0
    4.3717   -6.1625    3.1588 H   0  0  0  0  0  0  0  0  0  0  0  0
    5.8895   -5.3983    2.6570 H   0  0  0  0  0  0  0  0  0  0  0  0
    4.4473   -5.2710    1.6301 H   0  0  0  0  0  0  0  0  0  0  0  0
    4.7361   -4.0734    4.4375 H   0  0  0  0  0  0  0  0  0  0  0  0
    3.2976   -3.9557    3.4229 H   0  0  0  0  0  0  0  0  0  0  0  0
    4.6118   -2.7312    1.6895 H   0  0  0  0  0  0  0  0  0  0  0  0
    6.0588   -2.8357    2.6962 H   0  0  0  0  0  0  0  0  0  0  0  0
    4.8904   -1.5687    4.5114 H   0  0  0  0  0  0  0  0  0  0  0  0
    3.4443   -1.4796    3.5328 H   0  0  0  0  0  0  0  0  0  0  0  0
    3.2722   -0.0440    1.5205 H   0  0  0  0  0  0  0  0  0  0  0  0
    4.7059   -0.7193    0.7422 H   0  0  0  0  0  0  0  0  0  0  0  0
    4.5891    1.0196    1.0308 H   0  0  0  0  0  0  0  0  0  0  0  0
    3.3663    1.0099    3.7402 H   0  0  0  0  0  0  0  0  0  0  0  0
    4.8010    1.9867    3.3837 H   0  0  0  0  0  0  0  0  0  0  0  0
    4.7808    0.9084    4.7825 H   0  0  0  0  0  0  0  0  0  0  0  0
    6.7545   -0.2452    4.9291 H   0  0  0  0  0  0  0  0  0  0  0  0
    9.5333   -1.1350    6.9841 H   0  0  0  0  0  0  0  0  0  0  0  0
    8.1971   -1.6994    5.9814 H   0  0  0  0  0  0  0  0  0  0  0  0
    8.1090   -0.0988    6.8137 H   0  0  0  0  0  0  0  0  0  0  0  0
   11.2640    1.0561    2.3064 H   0  0  0  0  0  0  0  0  0  0  0  0
   10.8897   -1.1056    0.7710 H   0  0  0  0  0  0  0  0  0  0  0  0
   12.3224   -2.9613    0.1628 H   0  0  0  0  0  0  0  0  0  0  0  0
   12.6836   -3.9627    1.5795 H   0  0  0  0  0  0  0  0  0  0  0  0
   14.3435   -1.9035    0.5477 H   0  0  0  0  0  0  0  0  0  0  0  0
   13.7625   -2.4595    3.6242 H   0  0  0  0  0  0  0  0  0  0  0  0
   12.1841   -1.7197    5.5121 H   0  0  0  0  0  0  0  0  0  0  0  0
   10.9736   -2.1899    4.3304 H   0  0  0  0  0  0  0  0  0  0  0  0
   11.5615    0.6745    4.7558 H   0  0  0  0  0  0  0  0  0  0  0  0
   13.8334   -0.4887    5.8748 H   0  0  0  0  0  0  0  0  0  0  0  0
   14.2649    1.0884    5.2308 H   0  0  0  0  0  0  0  0  0  0  0  0
   15.2396   -0.3353    4.8235 H   0  0  0  0  0  0  0  0  0  0  0  0
   13.4617    0.5621    1.6456 H   0  0  0  0  0  0  0  0  0  0  0  0
   15.0174    0.3110    2.4147 H   0  0  0  0  0  0  0  0  0  0  0  0
   14.0047    1.6933    2.8720 H   0  0  0  0  0  0  0  0  0  0  0  0
    9.9041    2.1670   -0.7214 H   0  0  0  0  0  0  0  0  0  0  0  0
   11.1107    1.3277    0.2220 H   0  0  0  0  0  0  0  0  0  0  0  0
    9.9563    2.4540    1.0290 H   0  0  0  0  0  0  0  0  0  0  0  0
    6.7671    0.3277    0.6832 H   0  0  0  0  0  0  0  0  0  0  0  0
  1  2  1  0  0  0  0
  1 29  1  0  0  0  0
  1 30  1  0  0  0  0
  1 31  1  0  0  0  0
  2  3  1  0  0  0  0
  2 32  1  0  0  0  0
  2 33  1  0  0  0  0
  3  4  1  0  0  0  0
  3 34  1  0  0  0  0
  3 35  1  0  0  0  0
  4  5  1  0  0  0  0
  4 36  1  0  0  0  0
  4 37  1  0  0  0  0
  5  6  1  0  0  0  0
  5  7  1  0  0  0  0
  5  8  1  0  0  0  0
  6 38  1  0  0  0  0
  6 39  1  0  0  0  0
  6 40  1  0  0  0  0
  7 41  1  0  0  0  0
  7 42  1  0  0  0  0
  7 43  1  0  0  0  0
  8 28  2  0  0  0  0
  8  9  1  0  0  0  0
  9 10  2  0  0  0  0
  9 44  1  0  0  0  0
 10 11  1  0  0  0  0
 10 13  1  0  0  0  0
 11 12  1  0  0  0  0
 12 45  1  0  0  0  0
 12 46  1  0  0  0  0
 12 47  1  0  0  0  0
 13 14  1  0  0  0  0
 13 25  2  0  0  0  0
 14 21  1  0  0  0  0
 14 15  1  0  0  0  0
 14 48  1  0  0  0  0
 15 16  2  0  0  0  0
 15 49  1  0  0  0  0
 16 17  1  0  0  0  0
 16 19  1  0  0  0  0
 17 18  1  0  0  0  0
 17 50  1  0  0  0  0
 17 51  1  0  0  0  0
 18 52  1  0  0  0  0
 19 22  1  0  0  0  0
 19 20  1  0  0  0  0
 19 53  1  0  0  0  0
 20 21  1  0  0  0  0
 20 54  1  0  0  0  0
 20 55  1  0  0  0  0
 21 22  1  0  0  0  0
 21 56  1  0  0  0  0
 22 23  1  0  0  0  0
 22 24  1  0  0  0  0
 23 57  1  0  0  0  0
 23 58  1  0  0  0  0
 23 59  1  0  0  0  0
 24 60  1  0  0  0  0
 24 61  1  0  0  0  0
 24 62  1  0  0  0  0
 25 26  1  0  0  0  0
 25 28  1  0  0  0  0
 26 27  1  0  0  0  0
 27 63  1  0  0  0  0
 27 64  1  0  0  0  0
 27 65  1  0  0  0  0
 28 66  1  0  0  0  0
M  END
$$$$
