CHEMBL396628_8GUR
 OpenBabel12022418143D

 48 49  0  0  0  0  0  0  0  0999 V2000
   -2.1732    1.1271   -1.2874 C   0  0  0  0  0  0  0  0  0  0  0  0
   -1.0472    0.4023   -0.6113 C   0  0  0  0  0  0  0  0  0  0  0  0
    0.0171    1.1131   -0.0472 C   0  0  0  0  0  0  0  0  0  0  0  0
    1.0941    0.4327    0.5213 C   0  0  0  0  0  0  0  0  0  0  0  0
    2.2325    1.1602    1.1694 C   0  0  0  0  0  0  0  0  0  0  0  0
    1.1119   -0.9669    0.5045 C   0  0  0  0  0  0  0  0  0  0  0  0
    0.0313   -1.7161    0.0165 C   0  0  0  0  0  0  0  0  0  0  0  0
    0.0255   -3.1971    0.0599 C   0  0  0  0  0  0  0  0  0  0  0  0
   -0.5762   -3.9167   -0.9872 C   0  0  0  0  0  0  0  0  0  0  0  0
   -0.6092   -5.3144   -1.0109 C   0  0  0  0  0  0  0  0  0  0  0  0
   -0.0120   -6.0746    0.0044 C   0  0  0  0  0  0  0  0  0  0  0  0
    0.0081   -7.6177   -0.0192 C   0  0  0  0  0  0  0  0  0  0  0  0
   -0.7208   -8.1777   -1.2637 C   0  0  0  0  0  0  0  0  0  0  0  0
    1.4819   -8.0777   -0.0858 C   0  0  0  0  0  0  0  0  0  0  0  0
   -0.6809   -8.1643    1.2725 C   0  0  0  0  0  0  0  0  0  0  0  0
   -0.7223   -9.6921    1.3993 C   0  0  0  0  0  0  0  0  0  0  0  0
   -1.4089  -10.1379    2.6843 C   0  0  0  0  0  0  0  0  0  0  0  0
   -1.4155  -11.5578    2.7509 O   0  0  0  0  0  0  0  0  0  0  0  0
    0.5979   -5.3691    1.0457 C   0  0  0  0  0  0  0  0  0  0  0  0
    0.5992   -3.9718    1.0868 C   0  0  0  0  0  0  0  0  0  0  0  0
    1.1779   -3.4407    2.2106 O   0  0  0  0  0  0  0  0  0  0  0  0
   -1.0430   -0.9980   -0.5440 C   0  0  0  0  0  0  0  0  0  0  0  0
   -2.9207    0.4312   -1.6832 H   0  0  0  0  0  0  0  0  0  0  0  0
   -1.7881    1.7108   -2.1300 H   0  0  0  0  0  0  0  0  0  0  0  0
   -2.6728    1.7962   -0.5802 H   0  0  0  0  0  0  0  0  0  0  0  0
    0.0040    2.2001   -0.0648 H   0  0  0  0  0  0  0  0  0  0  0  0
    2.1297    2.2415    1.0659 H   0  0  0  0  0  0  0  0  0  0  0  0
    3.1833    0.8662    0.7148 H   0  0  0  0  0  0  0  0  0  0  0  0
    2.2617    0.9279    2.2441 H   0  0  0  0  0  0  0  0  0  0  0  0
    1.9992   -1.4728    0.8845 H   0  0  0  0  0  0  0  0  0  0  0  0
   -1.0266   -3.3966   -1.8300 H   0  0  0  0  0  0  0  0  0  0  0  0
   -1.1049   -5.7735   -1.8599 H   0  0  0  0  0  0  0  0  0  0  0  0
   -0.2736   -7.8030   -2.1925 H   0  0  0  0  0  0  0  0  0  0  0  0
   -1.7809   -7.8957   -1.2592 H   0  0  0  0  0  0  0  0  0  0  0  0
   -0.6705   -9.2685   -1.3225 H   0  0  0  0  0  0  0  0  0  0  0  0
    1.9900   -7.6508   -0.9586 H   0  0  0  0  0  0  0  0  0  0  0  0
    1.5650   -9.1661   -0.1631 H   0  0  0  0  0  0  0  0  0  0  0  0
    2.0459   -7.7714    0.8028 H   0  0  0  0  0  0  0  0  0  0  0  0
   -1.7087   -7.7781    1.3199 H   0  0  0  0  0  0  0  0  0  0  0  0
   -0.1734   -7.7727    2.1638 H   0  0  0  0  0  0  0  0  0  0  0  0
    0.2884  -10.1145    1.3855 H   0  0  0  0  0  0  0  0  0  0  0  0
   -1.2518  -10.1412    0.5529 H   0  0  0  0  0  0  0  0  0  0  0  0
   -2.4438   -9.7831    2.7259 H   0  0  0  0  0  0  0  0  0  0  0  0
   -0.8771   -9.7608    3.5623 H   0  0  0  0  0  0  0  0  0  0  0  0
   -1.8502  -11.8894    1.9468 H   0  0  0  0  0  0  0  0  0  0  0  0
    1.0844   -5.8984    1.8662 H   0  0  0  0  0  0  0  0  0  0  0  0
    0.8313   -2.5416    2.3306 H   0  0  0  0  0  0  0  0  0  0  0  0
   -1.9011   -1.5332   -0.9471 H   0  0  0  0  0  0  0  0  0  0  0  0
  1  2  1  0  0  0  0
  1 23  1  0  0  0  0
  1 24  1  0  0  0  0
  1 25  1  0  0  0  0
  2 22  2  0  0  0  0
  2  3  1  0  0  0  0
  3  4  2  0  0  0  0
  3 26  1  0  0  0  0
  4  5  1  0  0  0  0
  4  6  1  0  0  0  0
  5 27  1  0  0  0  0
  5 28  1  0  0  0  0
  5 29  1  0  0  0  0
  6  7  2  0  0  0  0
  6 30  1  0  0  0  0
  7  8  1  0  0  0  0
  7 22  1  0  0  0  0
  8 20  2  0  0  0  0
  8  9  1  0  0  0  0
  9 10  2  0  0  0  0
  9 31  1  0  0  0  0
 10 11  1  0  0  0  0
 10 32  1  0  0  0  0
 11 12  1  0  0  0  0
 11 19  2  0  0  0  0
 12 13  1  0  0  0  0
 12 14  1  0  0  0  0
 12 15  1  0  0  0  0
 13 33  1  0  0  0  0
 13 34  1  0  0  0  0
 13 35  1  0  0  0  0
 14 36  1  0  0  0  0
 14 37  1  0  0  0  0
 14 38  1  0  0  0  0
 15 16  1  0  0  0  0
 15 39  1  0  0  0  0
 15 40  1  0  0  0  0
 16 17  1  0  0  0  0
 16 41  1  0  0  0  0
 16 42  1  0  0  0  0
 17 18  1  0  0  0  0
 17 43  1  0  0  0  0
 17 44  1  0  0  0  0
 18 45  1  0  0  0  0
 19 20  1  0  0  0  0
 19 46  1  0  0  0  0
 20 21  1  0  0  0  0
 21 47  1  0  0  0  0
 22 48  1  0  0  0  0
M  END
$$$$
CHEMBL234675_8GUR
 OpenBabel12022418143D

 54 55  0  0  0  0  0  0  0  0999 V2000
   -2.1686    1.1598   -1.2473 C   0  0  0  0  0  0  0  0  0  0  0  0
   -1.0377    0.4276   -0.5868 C   0  0  0  0  0  0  0  0  0  0  0  0
    0.0351    1.1367   -0.0405 C   0  0  0  0  0  0  0  0  0  0  0  0
    1.1197    0.4583    0.5207 C   0  0  0  0  0  0  0  0  0  0  0  0
    2.2546    1.1995    1.1610 C   0  0  0  0  0  0  0  0  0  0  0  0
    1.1320   -0.9459    0.5083 C   0  0  0  0  0  0  0  0  0  0  0  0
    0.0428   -1.6932    0.0310 C   0  0  0  0  0  0  0  0  0  0  0  0
    0.0310   -3.1803    0.0688 C   0  0  0  0  0  0  0  0  0  0  0  0
   -0.5510   -3.9004   -0.9905 C   0  0  0  0  0  0  0  0  0  0  0  0
   -0.5848   -5.3018   -1.0167 C   0  0  0  0  0  0  0  0  0  0  0  0
   -0.0026   -6.0642    0.0022 C   0  0  0  0  0  0  0  0  0  0  0  0
    0.0229   -7.6079   -0.0192 C   0  0  0  0  0  0  0  0  0  0  0  0
   -0.6868   -8.1908   -1.2662 C   0  0  0  0  0  0  0  0  0  0  0  0
    1.4987   -8.0631   -0.0805 C   0  0  0  0  0  0  0  0  0  0  0  0
   -0.6744   -8.1524    1.2715 C   0  0  0  0  0  0  0  0  0  0  0  0
   -0.7152   -9.6810    1.3982 C   0  0  0  0  0  0  0  0  0  0  0  0
   -1.3975  -10.1356    2.6901 C   0  0  0  0  0  0  0  0  0  0  0  0
   -1.4138  -11.6616    2.7715 C   0  0  0  0  0  0  0  0  0  0  0  0
   -2.0954  -12.1587    4.0362 C   0  0  0  0  0  0  0  0  0  0  0  0
   -2.0796  -13.5807    4.0600 O   0  0  0  0  0  0  0  0  0  0  0  0
    0.5904   -5.3557    1.0600 C   0  0  0  0  0  0  0  0  0  0  0  0
    0.5819   -3.9550    1.1039 C   0  0  0  0  0  0  0  0  0  0  0  0
    1.1200   -3.4165    2.2450 O   0  0  0  0  0  0  0  0  0  0  0  0
   -1.0377   -0.9728   -0.5156 C   0  0  0  0  0  0  0  0  0  0  0  0
   -2.9201    0.4668   -1.6428 H   0  0  0  0  0  0  0  0  0  0  0  0
   -1.7896    1.7497   -2.0885 H   0  0  0  0  0  0  0  0  0  0  0  0
   -2.6626    1.8234   -0.5326 H   0  0  0  0  0  0  0  0  0  0  0  0
    0.0254    2.2247   -0.0585 H   0  0  0  0  0  0  0  0  0  0  0  0
    2.1454    2.2823    1.0439 H   0  0  0  0  0  0  0  0  0  0  0  0
    3.2071    0.9035    0.7084 H   0  0  0  0  0  0  0  0  0  0  0  0
    2.2818    0.9783    2.2322 H   0  0  0  0  0  0  0  0  0  0  0  0
    2.0158   -1.4542    0.8856 H   0  0  0  0  0  0  0  0  0  0  0  0
   -0.9863   -3.3761   -1.8398 H   0  0  0  0  0  0  0  0  0  0  0  0
   -1.0708   -5.7640   -1.8711 H   0  0  0  0  0  0  0  0  0  0  0  0
   -0.2467   -7.8109   -2.1959 H   0  0  0  0  0  0  0  0  0  0  0  0
   -1.7555   -7.9449   -1.2678 H   0  0  0  0  0  0  0  0  0  0  0  0
   -0.5996   -9.2803   -1.3181 H   0  0  0  0  0  0  0  0  0  0  0  0
    2.0153   -7.6094   -0.9353 H   0  0  0  0  0  0  0  0  0  0  0  0
    1.5846   -9.1489   -0.1935 H   0  0  0  0  0  0  0  0  0  0  0  0
    2.0520   -7.7848    0.8234 H   0  0  0  0  0  0  0  0  0  0  0  0
   -1.7031   -7.7666    1.3105 H   0  0  0  0  0  0  0  0  0  0  0  0
   -0.1728   -7.7589    2.1646 H   0  0  0  0  0  0  0  0  0  0  0  0
    0.3019  -10.0847    1.3801 H   0  0  0  0  0  0  0  0  0  0  0  0
   -1.2576  -10.1168    0.5531 H   0  0  0  0  0  0  0  0  0  0  0  0
   -2.4242   -9.7518    2.7209 H   0  0  0  0  0  0  0  0  0  0  0  0
   -0.8668   -9.7231    3.5565 H   0  0  0  0  0  0  0  0  0  0  0  0
   -0.3891  -12.0539    2.7326 H   0  0  0  0  0  0  0  0  0  0  0  0
   -1.9246  -12.0786    1.8940 H   0  0  0  0  0  0  0  0  0  0  0  0
   -3.1348  -11.8228    4.0865 H   0  0  0  0  0  0  0  0  0  0  0  0
   -1.5728  -11.7997    4.9277 H   0  0  0  0  0  0  0  0  0  0  0  0
   -2.5299  -13.8919    3.2555 H   0  0  0  0  0  0  0  0  0  0  0  0
    1.0645   -5.8844    1.8844 H   0  0  0  0  0  0  0  0  0  0  0  0
    0.7351   -2.5316    2.3627 H   0  0  0  0  0  0  0  0  0  0  0  0
   -1.9043   -1.5078   -0.9003 H   0  0  0  0  0  0  0  0  0  0  0  0
  1  2  1  0  0  0  0
  1 25  1  0  0  0  0
  1 26  1  0  0  0  0
  1 27  1  0  0  0  0
  2 24  2  0  0  0  0
  2  3  1  0  0  0  0
  3  4  2  0  0  0  0
  3 28  1  0  0  0  0
  4  5  1  0  0  0  0
  4  6  1  0  0  0  0
  5 29  1  0  0  0  0
  5 30  1  0  0  0  0
  5 31  1  0  0  0  0
  6  7  2  0  0  0  0
  6 32  1  0  0  0  0
  7  8  1  0  0  0  0
  7 24  1  0  0  0  0
  8 22  2  0  0  0  0
  8  9  1  0  0  0  0
  9 10  2  0  0  0  0
  9 33  1  0  0  0  0
 10 11  1  0  0  0  0
 10 34  1  0  0  0  0
 11 12  1  0  0  0  0
 11 21  2  0  0  0  0
 12 13  1  0  0  0  0
 12 14  1  0  0  0  0
 12 15  1  0  0  0  0
 13 35  1  0  0  0  0
 13 36  1  0  0  0  0
 13 37  1  0  0  0  0
 14 38  1  0  0  0  0
 14 39  1  0  0  0  0
 14 40  1  0  0  0  0
 15 16  1  0  0  0  0
 15 41  1  0  0  0  0
 15 42  1  0  0  0  0
 16 17  1  0  0  0  0
 16 43  1  0  0  0  0
 16 44  1  0  0  0  0
 17 18  1  0  0  0  0
 17 45  1  0  0  0  0
 17 46  1  0  0  0  0
 18 19  1  0  0  0  0
 18 47  1  0  0  0  0
 18 48  1  0  0  0  0
 19 20  1  0  0  0  0
 19 49  1  0  0  0  0
 19 50  1  0  0  0  0
 20 51  1  0  0  0  0
 21 22  1  0  0  0  0
 21 52  1  0  0  0  0
 22 23  1  0  0  0  0
 23 53  1  0  0  0  0
 24 54  1  0  0  0  0
M  END
$$$$
CHEMBL334533_6KPF
 OpenBabel12022418143D

 66 68  0  0  1  0  0  0  0  0999 V2000
   -0.6752   11.2707   -1.8675 C   0  0  0  0  0  0  0  0  0  0  0  0
    0.3201   10.1764   -2.2204 C   0  0  0  0  0  0  0  0  0  0  0  0
    0.2531    9.0416   -1.2043 C   0  0  0  0  0  0  0  0  0  0  0  0
    1.2292    7.9130   -1.5357 C   0  0  0  0  0  0  0  0  0  0  0  0
    1.1438    6.8283   -0.4616 C   0  0  0  0  0  0  0  0  0  0  0  0
    2.1481    5.7000   -0.7057 C   0  0  0  0  0  0  0  0  0  0  0  0
    2.1025    4.5635    0.3625 C   0  0  0  0  0  0  0  0  0  0  0  0
    2.4771    5.1390    1.7616 C   0  0  0  0  0  0  0  0  0  0  0  0
    3.2508    3.5570    0.0355 C   0  0  0  0  0  0  0  0  0  0  0  0
    0.7780    3.8179    0.3212 C   0  0  0  0  0  0  0  0  0  0  0  0
    0.5031    3.0195   -0.7944 C   0  0  0  0  0  0  0  0  0  0  0  0
   -0.5705    2.1461   -0.7946 C   0  0  0  0  0  0  0  0  0  0  0  0
   -1.4326    2.0641    0.3238 C   0  0  0  0  0  0  0  0  0  0  0  0
   -2.3714    0.8856    0.2268 C   0  0  1  0  0  0  0  0  0  0  0  0
   -3.1729    0.0873    1.2468 C   0  0  0  0  0  0  0  0  0  0  0  0
   -4.6581    0.2004    1.1490 C   0  0  0  0  0  0  0  0  0  0  0  0
   -5.2435    0.4370   -0.0377 C   0  0  0  0  0  0  0  0  0  0  0  0
   -4.5028    0.7445   -1.3035 C   0  0  0  0  0  0  0  0  0  0  0  0
   -3.0178    1.0866   -1.1434 C   0  0  2  0  0  0  0  0  0  0  0  0
   -1.9378    0.6122   -2.1483 C   0  0  0  0  0  0  0  0  0  0  0  0
   -2.3987    0.8312   -3.5921 C   0  0  0  0  0  0  0  0  0  0  0  0
   -1.4757   -0.8643   -2.0456 C   0  0  0  0  0  0  0  0  0  0  0  0
   -0.7257    1.4163   -1.9588 O   0  0  0  0  0  0  0  0  0  0  0  0
   -5.3977   -0.0367    2.4356 C   0  0  0  0  0  0  0  0  0  0  0  0
   -6.6484    0.6333    2.4153 O   0  0  0  0  0  0  0  0  0  0  0  0
   -1.3531    3.0394    1.2789 C   0  0  0  0  0  0  0  0  0  0  0  0
   -0.2353    3.8860    1.3317 C   0  0  0  0  0  0  0  0  0  0  0  0
   -2.3926    3.2643    2.1304 O   0  0  0  0  0  0  0  0  0  0  0  0
   -0.4905   11.6578   -0.8598 H   0  0  0  0  0  0  0  0  0  0  0  0
   -0.5948   12.1022   -2.5729 H   0  0  0  0  0  0  0  0  0  0  0  0
   -1.7010   10.8893   -1.9032 H   0  0  0  0  0  0  0  0  0  0  0  0
    1.3312   10.5987   -2.2420 H   0  0  0  0  0  0  0  0  0  0  0  0
    0.1023    9.7963   -3.2250 H   0  0  0  0  0  0  0  0  0  0  0  0
    0.4800    9.4365   -0.2059 H   0  0  0  0  0  0  0  0  0  0  0  0
   -0.7672    8.6408   -1.1657 H   0  0  0  0  0  0  0  0  0  0  0  0
    0.9923    7.4876   -2.5181 H   0  0  0  0  0  0  0  0  0  0  0  0
    2.2509    8.3076   -1.5869 H   0  0  0  0  0  0  0  0  0  0  0  0
    1.3347    7.2938    0.5105 H   0  0  0  0  0  0  0  0  0  0  0  0
    0.1230    6.4299   -0.4376 H   0  0  0  0  0  0  0  0  0  0  0  0
    1.9687    5.2773   -1.7027 H   0  0  0  0  0  0  0  0  0  0  0  0
    3.1567    6.1313   -0.7387 H   0  0  0  0  0  0  0  0  0  0  0  0
    2.4779    4.3499    2.5230 H   0  0  0  0  0  0  0  0  0  0  0  0
    1.7843    5.9132    2.1008 H   0  0  0  0  0  0  0  0  0  0  0  0
    3.4807    5.5794    1.7470 H   0  0  0  0  0  0  0  0  0  0  0  0
    3.1115    3.0495   -0.9229 H   0  0  0  0  0  0  0  0  0  0  0  0
    3.3180    2.7769    0.8044 H   0  0  0  0  0  0  0  0  0  0  0  0
    4.2242    4.0572   -0.0236 H   0  0  0  0  0  0  0  0  0  0  0  0
    1.1400    3.0289   -1.6611 H   0  0  0  0  0  0  0  0  0  0  0  0
   -1.5602    0.1522    0.1778 H   0  0  0  0  0  0  0  0  0  0  0  0
   -2.9949   -0.9808    1.0073 H   0  0  0  0  0  0  0  0  0  0  0  0
   -2.7851    0.2100    2.2599 H   0  0  0  0  0  0  0  0  0  0  0  0
   -6.3308    0.4322   -0.1111 H   0  0  0  0  0  0  0  0  0  0  0  0
   -4.9895    1.6673   -1.6678 H   0  0  0  0  0  0  0  0  0  0  0  0
   -4.6966    0.0015   -2.0795 H   0  0  0  0  0  0  0  0  0  0  0  0
   -3.0677    2.1804   -1.3132 H   0  0  0  0  0  0  0  0  0  0  0  0
   -3.2243    0.1576   -3.8487 H   0  0  0  0  0  0  0  0  0  0  0  0
   -1.5777    0.6425   -4.2916 H   0  0  0  0  0  0  0  0  0  0  0  0
   -2.7277    1.8614   -3.7495 H   0  0  0  0  0  0  0  0  0  0  0  0
   -0.4806   -0.9726   -2.4991 H   0  0  0  0  0  0  0  0  0  0  0  0
   -1.3461   -1.2409   -1.0264 H   0  0  0  0  0  0  0  0  0  0  0  0
   -2.1640   -1.5513   -2.5390 H   0  0  0  0  0  0  0  0  0  0  0  0
   -4.8289    0.3655    3.2801 H   0  0  0  0  0  0  0  0  0  0  0  0
   -5.5612   -1.1047    2.6111 H   0  0  0  0  0  0  0  0  0  0  0  0
   -6.4580    1.5316    2.0929 H   0  0  0  0  0  0  0  0  0  0  0  0
   -0.1335    4.5793    2.1613 H   0  0  0  0  0  0  0  0  0  0  0  0
   -2.7296    4.1427    1.8717 H   0  0  0  0  0  0  0  0  0  0  0  0
  1  2  1  0  0  0  0
  1 29  1  0  0  0  0
  1 30  1  0  0  0  0
  1 31  1  0  0  0  0
  2  3  1  0  0  0  0
  2 32  1  0  0  0  0
  2 33  1  0  0  0  0
  3  4  1  0  0  0  0
  3 34  1  0  0  0  0
  3 35  1  0  0  0  0
  4  5  1  0  0  0  0
  4 36  1  0  0  0  0
  4 37  1  0  0  0  0
  5  6  1  0  0  0  0
  5 38  1  0  0  0  0
  5 39  1  0  0  0  0
  6  7  1  0  0  0  0
  6 40  1  0  0  0  0
  6 41  1  0  0  0  0
  7  8  1  0  0  0  0
  7  9  1  0  0  0  0
  7 10  1  0  0  0  0
  8 42  1  0  0  0  0
  8 43  1  0  0  0  0
  8 44  1  0  0  0  0
  9 45  1  0  0  0  0
  9 46  1  0  0  0  0
  9 47  1  0  0  0  0
 10 27  2  0  0  0  0
 10 11  1  0  0  0  0
 11 12  2  0  0  0  0
 11 48  1  0  0  0  0
 12 23  1  0  0  0  0
 12 13  1  0  0  0  0
 13 14  1  0  0  0  0
 13 26  2  0  0  0  0
 14 15  1  0  0  0  0
 14 19  1  0  0  0  0
 14 49  1  6  0  0  0
 15 16  1  0  0  0  0
 15 50  1  0  0  0  0
 15 51  1  0  0  0  0
 16 17  2  0  0  0  0
 16 24  1  0  0  0  0
 17 18  1  0  0  0  0
 17 52  1  0  0  0  0
 18 53  1  0  0  0  0
 18 54  1  0  0  0  0
 19 18  1  0  0  0  0
 19 20  1  0  0  0  0
 19 55  1  6  0  0  0
 20 21  1  0  0  0  0
 20 22  1  0  0  0  0
 20 23  1  0  0  0  0
 21 56  1  0  0  0  0
 21 57  1  0  0  0  0
 21 58  1  0  0  0  0
 22 59  1  0  0  0  0
 22 60  1  0  0  0  0
 22 61  1  0  0  0  0
 24 25  1  0  0  0  0
 24 62  1  0  0  0  0
 24 63  1  0  0  0  0
 25 64  1  0  0  0  0
 26 27  1  0  0  0  0
 26 28  1  0  0  0  0
 27 65  1  0  0  0  0
 28 66  1  0  0  0  0
M  END
$$$$
CHEMBL261495_8GUR
 OpenBabel12022418143D

 53 54  0  0  1  0  0  0  0  0999 V2000
   12.2902   -2.2768   -1.1887 C   0  0  0  0  0  0  0  0  0  0  0  0
   11.3691   -2.1979    0.0161 C   0  0  0  0  0  0  0  0  0  0  0  0
    9.8974   -2.3146   -0.3836 C   0  0  0  0  0  0  0  0  0  0  0  0
    9.0019   -2.2143    0.8522 C   0  0  0  0  0  0  0  0  0  0  0  0
    7.5114   -2.3121    0.4963 C   0  0  0  0  0  0  0  0  0  0  0  0
    6.5506   -2.2716    1.7267 C   0  0  0  0  0  0  0  0  0  0  0  0
    6.6482   -0.8867    2.4111 C   0  0  0  0  0  0  0  0  0  0  0  0
    5.0924   -2.3940    1.2163 C   0  0  0  0  0  0  0  0  0  0  0  0
    6.8511   -3.4456    2.6750 C   0  0  0  0  0  0  0  0  0  0  0  0
    6.7004   -4.7697    2.2252 C   0  0  0  0  0  0  0  0  0  0  0  0
    6.9831   -5.8551    3.0552 C   0  0  0  0  0  0  0  0  0  0  0  0
    7.4326   -5.6601    4.3662 C   0  0  0  0  0  0  0  0  0  0  0  0
    7.7234   -6.8300    5.2882 C   0  0  2  0  0  0  0  0  0  0  0  0
    8.8531   -7.7126    4.7309 C   0  0  0  0  0  0  0  0  0  0  0  0
    9.0885   -8.9613    5.5762 C   0  0  0  0  0  0  0  0  0  0  0  0
    7.7979   -9.7508    5.7810 C   0  0  0  0  0  0  0  0  0  0  0  0
    6.6830   -8.8975    6.3829 C   0  0  2  0  0  0  0  0  0  0  0  0
    6.4359   -7.6300    5.5675 C   0  0  0  0  0  0  0  0  0  0  0  0
    6.9831   -8.5693    7.7371 O   0  0  0  0  0  0  0  0  0  0  0  0
    7.5959   -4.3490    4.8210 C   0  0  0  0  0  0  0  0  0  0  0  0
    7.3106   -3.2616    3.9878 C   0  0  0  0  0  0  0  0  0  0  0  0
   13.3338   -2.1869   -0.8710 H   0  0  0  0  0  0  0  0  0  0  0  0
   12.0795   -1.4690   -1.8964 H   0  0  0  0  0  0  0  0  0  0  0  0
   12.1740   -3.2323   -1.7094 H   0  0  0  0  0  0  0  0  0  0  0  0
   11.5380   -1.2468    0.5347 H   0  0  0  0  0  0  0  0  0  0  0  0
   11.6273   -2.9987    0.7192 H   0  0  0  0  0  0  0  0  0  0  0  0
    9.7259   -3.2724   -0.8899 H   0  0  0  0  0  0  0  0  0  0  0  0
    9.6404   -1.5195   -1.0933 H   0  0  0  0  0  0  0  0  0  0  0  0
    9.2044   -1.2622    1.3543 H   0  0  0  0  0  0  0  0  0  0  0  0
    9.2784   -3.0136    1.5486 H   0  0  0  0  0  0  0  0  0  0  0  0
    7.3493   -3.2360   -0.0763 H   0  0  0  0  0  0  0  0  0  0  0  0
    7.2572   -1.4908   -0.1873 H   0  0  0  0  0  0  0  0  0  0  0  0
    6.3927   -0.0823    1.7117 H   0  0  0  0  0  0  0  0  0  0  0  0
    7.6527   -0.6769    2.7913 H   0  0  0  0  0  0  0  0  0  0  0  0
    5.9560   -0.8134    3.2584 H   0  0  0  0  0  0  0  0  0  0  0  0
    4.8127   -1.5266    0.6071 H   0  0  0  0  0  0  0  0  0  0  0  0
    4.3853   -2.4559    2.0522 H   0  0  0  0  0  0  0  0  0  0  0  0
    4.9421   -3.2817    0.5921 H   0  0  0  0  0  0  0  0  0  0  0  0
    6.3597   -4.9758    1.2133 H   0  0  0  0  0  0  0  0  0  0  0  0
    6.8456   -6.8594    2.6592 H   0  0  0  0  0  0  0  0  0  0  0  0
    8.0769   -6.4289    6.2491 H   0  0  0  0  0  0  0  0  0  0  0  0
    9.7829   -7.1328    4.6772 H   0  0  0  0  0  0  0  0  0  0  0  0
    8.6295   -8.0289    3.7036 H   0  0  0  0  0  0  0  0  0  0  0  0
    9.5138   -8.6762    6.5454 H   0  0  0  0  0  0  0  0  0  0  0  0
    9.8319   -9.5985    5.0836 H   0  0  0  0  0  0  0  0  0  0  0  0
    8.0070  -10.6066    6.4331 H   0  0  0  0  0  0  0  0  0  0  0  0
    7.4654  -10.1471    4.8135 H   0  0  0  0  0  0  0  0  0  0  0  0
    5.7594   -9.4853    6.4085 H   0  0  0  0  0  0  0  0  0  0  0  0
    5.9599   -7.9215    4.6225 H   0  0  0  0  0  0  0  0  0  0  0  0
    5.7229   -6.9842    6.0958 H   0  0  0  0  0  0  0  0  0  0  0  0
    7.8000   -8.0473    7.7661 H   0  0  0  0  0  0  0  0  0  0  0  0
    7.9468   -4.1547    5.8322 H   0  0  0  0  0  0  0  0  0  0  0  0
    7.4663   -2.2677    4.3999 H   0  0  0  0  0  0  0  0  0  0  0  0
  1  2  1  0  0  0  0
  1 22  1  0  0  0  0
  1 23  1  0  0  0  0
  1 24  1  0  0  0  0
  2  3  1  0  0  0  0
  2 25  1  0  0  0  0
  2 26  1  0  0  0  0
  3  4  1  0  0  0  0
  3 27  1  0  0  0  0
  3 28  1  0  0  0  0
  4  5  1  0  0  0  0
  4 29  1  0  0  0  0
  4 30  1  0  0  0  0
  5  6  1  0  0  0  0
  5 31  1  0  0  0  0
  5 32  1  0  0  0  0
  6  7  1  0  0  0  0
  6  8  1  0  0  0  0
  6  9  1  0  0  0  0
  7 33  1  0  0  0  0
  7 34  1  0  0  0  0
  7 35  1  0  0  0  0
  8 36  1  0  0  0  0
  8 37  1  0  0  0  0
  8 38  1  0  0  0  0
  9 21  2  0  0  0  0
  9 10  1  0  0  0  0
 10 11  2  0  0  0  0
 10 39  1  0  0  0  0
 11 12  1  0  0  0  0
 11 40  1  0  0  0  0
 12 20  2  0  0  0  0
 13 12  1  0  0  0  0
 13 14  1  0  0  0  0
 13 18  1  0  0  0  0
 13 41  1  1  0  0  0
 14 15  1  0  0  0  0
 14 42  1  0  0  0  0
 14 43  1  0  0  0  0
 15 16  1  0  0  0  0
 15 44  1  0  0  0  0
 15 45  1  0  0  0  0
 16 17  1  0  0  0  0
 16 46  1  0  0  0  0
 16 47  1  0  0  0  0
 17 18  1  0  0  0  0
 17 19  1  0  0  0  0
 17 48  1  6  0  0  0
 18 49  1  0  0  0  0
 18 50  1  0  0  0  0
 19 51  1  0  0  0  0
 20 21  1  0  0  0  0
 20 52  1  0  0  0  0
 21 53  1  0  0  0  0
M  END
$$$$
CHEMBL4578071_5ZTY
 OpenBabel12022418143D

 59 63  0  0  1  0  0  0  0  0999 V2000
   11.7937   -1.4282   -1.1085 O   0  0  0  0  0  0  0  0  0  0  0  0
   10.8169   -2.2436   -0.4748 C   0  0  0  0  0  0  0  0  0  0  0  0
    9.7772   -1.3388    0.1686 C   0  0  0  0  0  0  0  0  0  0  0  0
    8.6867   -2.1380    0.8761 C   0  0  0  0  0  0  0  0  0  0  0  0
    7.6658   -1.2037    1.5327 C   0  0  0  0  0  0  0  0  0  0  0  0
    6.5616   -1.9608    2.2663 C   0  0  0  0  0  0  0  0  0  0  0  0
    7.0414   -2.8212    3.3349 N   0  0  0  0  0  0  0  0  0  0  0  0
    6.8427   -4.1772    3.3603 C   0  0  0  0  0  0  0  0  0  0  0  0
    7.3654   -4.6565    4.5531 C   0  0  0  0  0  0  0  0  0  0  0  0
    7.1940   -6.0292    4.8103 C   0  0  0  0  0  0  0  0  0  0  0  0
    6.5528   -6.8120    3.8511 C   0  0  0  0  0  0  0  0  0  0  0  0
    6.1196   -6.2085    2.6824 C   0  0  0  0  0  0  0  0  0  0  0  0
    6.2309   -4.8946    2.3905 N   0  0  0  0  0  0  0  0  0  0  0  0
    8.0040   -3.5460    5.2359 C   0  0  0  0  0  0  0  0  0  0  0  0
    8.7653   -3.6898    6.4892 C   0  0  0  0  0  0  0  0  0  0  0  0
    8.9198   -4.8073    6.9818 O   0  0  0  0  0  0  0  0  0  0  0  0
    9.2985   -2.5496    7.1003 N   0  0  0  0  0  0  0  0  0  0  0  0
    9.9989   -2.6080    8.4100 C   0  0  2  0  0  0  0  0  0  0  0  0
   10.4486   -1.1993    8.9169 C   0  0  0  0  0  0  0  0  0  0  0  0
   11.1658   -1.3067   10.2909 C   0  0  2  0  0  0  0  0  0  0  0  0
   12.4006   -2.2143   10.1613 C   0  0  0  0  0  0  0  0  0  0  0  0
   11.9675   -3.6121    9.6986 C   0  0  2  0  0  0  0  0  0  0  0  0
   11.2835   -3.4850    8.3276 C   0  0  0  0  0  0  0  0  0  0  0  0
   10.9764   -4.2190   10.7056 C   0  0  0  0  0  0  0  0  0  0  0  0
    9.7506   -3.3047   10.8552 C   0  0  1  0  0  0  0  0  0  0  0  0
   10.2129   -1.9217   11.3299 C   0  0  0  0  0  0  0  0  0  0  0  0
    9.0450   -3.1697    9.4985 C   0  0  0  0  0  0  0  0  0  0  0  0
    7.7408   -2.4252    4.4621 C   0  0  0  0  0  0  0  0  0  0  0  0
   12.4368   -2.0271   -1.5250 H   0  0  0  0  0  0  0  0  0  0  0  0
   11.3150   -2.8654    0.2757 H   0  0  0  0  0  0  0  0  0  0  0  0
   10.3595   -2.8911   -1.2295 H   0  0  0  0  0  0  0  0  0  0  0  0
    9.3348   -0.6896   -0.5961 H   0  0  0  0  0  0  0  0  0  0  0  0
   10.2737   -0.6684    0.8818 H   0  0  0  0  0  0  0  0  0  0  0  0
    9.1495   -2.7814    1.6329 H   0  0  0  0  0  0  0  0  0  0  0  0
    8.1801   -2.7950    0.1589 H   0  0  0  0  0  0  0  0  0  0  0  0
    7.2059   -0.5710    0.7623 H   0  0  0  0  0  0  0  0  0  0  0  0
    8.1757   -0.5299    2.2306 H   0  0  0  0  0  0  0  0  0  0  0  0
    5.9972   -2.5658    1.5472 H   0  0  0  0  0  0  0  0  0  0  0  0
    5.8480   -1.2624    2.7187 H   0  0  0  0  0  0  0  0  0  0  0  0
    7.5483   -6.4726    5.7355 H   0  0  0  0  0  0  0  0  0  0  0  0
    6.4039   -7.8730    4.0165 H   0  0  0  0  0  0  0  0  0  0  0  0
    5.6358   -6.8033    1.9112 H   0  0  0  0  0  0  0  0  0  0  0  0
    9.0670   -1.6529    6.7003 H   0  0  0  0  0  0  0  0  0  0  0  0
    9.5799   -0.5353    9.0181 H   0  0  0  0  0  0  0  0  0  0  0  0
   11.1197   -0.7203    8.1921 H   0  0  0  0  0  0  0  0  0  0  0  0
   11.4807   -0.3135   10.6331 H   0  0  0  0  0  0  0  0  0  0  0  0
   12.9301   -2.2831   11.1207 H   0  0  0  0  0  0  0  0  0  0  0  0
   13.1075   -1.7834    9.4419 H   0  0  0  0  0  0  0  0  0  0  0  0
   12.8472   -4.2611    9.6154 H   0  0  0  0  0  0  0  0  0  0  0  0
   11.9893   -3.0498    7.6077 H   0  0  0  0  0  0  0  0  0  0  0  0
   11.0578   -4.4917    7.9617 H   0  0  0  0  0  0  0  0  0  0  0  0
   11.4630   -4.3521   11.6797 H   0  0  0  0  0  0  0  0  0  0  0  0
   10.6635   -5.2155   10.3693 H   0  0  0  0  0  0  0  0  0  0  0  0
    9.0547   -3.7359   11.5834 H   0  0  0  0  0  0  0  0  0  0  0  0
    9.3475   -1.2668   11.4857 H   0  0  0  0  0  0  0  0  0  0  0  0
   10.7170   -2.0163   12.3010 H   0  0  0  0  0  0  0  0  0  0  0  0
    8.6547   -4.1517    9.2176 H   0  0  0  0  0  0  0  0  0  0  0  0
    8.1703   -2.5123    9.5940 H   0  0  0  0  0  0  0  0  0  0  0  0
    8.0060   -1.3853    4.5951 H   0  0  0  0  0  0  0  0  0  0  0  0
  1  2  1  0  0  0  0
  1 29  1  0  0  0  0
  2  3  1  0  0  0  0
  2 30  1  0  0  0  0
  2 31  1  0  0  0  0
  3  4  1  0  0  0  0
  3 32  1  0  0  0  0
  3 33  1  0  0  0  0
  4  5  1  0  0  0  0
  4 34  1  0  0  0  0
  4 35  1  0  0  0  0
  5  6  1  0  0  0  0
  5 36  1  0  0  0  0
  5 37  1  0  0  0  0
  6  7  1  0  0  0  0
  6 38  1  0  0  0  0
  6 39  1  0  0  0  0
  7 28  1  0  0  0  0
  7  8  1  0  0  0  0
  8 13  2  0  0  0  0
  8  9  1  0  0  0  0
  9 10  2  0  0  0  0
  9 14  1  0  0  0  0
 10 11  1  0  0  0  0
 10 40  1  0  0  0  0
 11 12  2  0  0  0  0
 11 41  1  0  0  0  0
 12 13  1  0  0  0  0
 12 42  1  0  0  0  0
 14 15  1  0  0  0  0
 14 28  2  0  0  0  0
 15 16  2  0  0  0  0
 15 17  1  0  0  0  0
 17 43  1  0  0  0  0
 18 17  1  6  0  0  0
 18 23  1  0  0  0  0
 18 27  1  0  0  0  0
 18 19  1  0  0  0  0
 19 44  1  0  0  0  0
 19 45  1  0  0  0  0
 20 19  1  0  0  0  0
 20 21  1  0  0  0  0
 20 26  1  0  0  0  0
 20 46  1  1  0  0  0
 21 47  1  0  0  0  0
 21 48  1  0  0  0  0
 22 21  1  0  0  0  0
 22 23  1  0  0  0  0
 22 24  1  0  0  0  0
 22 49  1  6  0  0  0
 23 50  1  0  0  0  0
 23 51  1  0  0  0  0
 24 52  1  0  0  0  0
 24 53  1  0  0  0  0
 25 24  1  0  0  0  0
 25 26  1  0  0  0  0
 25 27  1  0  0  0  0
 25 54  1  1  0  0  0
 26 55  1  0  0  0  0
 26 56  1  0  0  0  0
 27 57  1  0  0  0  0
 27 58  1  0  0  0  0
 28 59  1  0  0  0  0
M  END
$$$$
CHEMBL234897_8GUR
 OpenBabel12022418143D

 52 53  0  0  0  0  0  0  0  0999 V2000
    6.9306   -3.1401   -3.0597 C   0  0  0  0  0  0  0  0  0  0  0  0
    6.4519   -2.1535   -2.0045 C   0  0  0  0  0  0  0  0  0  0  0  0
    6.9413   -0.7435   -2.3253 C   0  0  0  0  0  0  0  0  0  0  0  0
    6.4730    0.2722   -1.2833 C   0  0  0  0  0  0  0  0  0  0  0  0
    6.9713    1.6620   -1.6710 C   0  0  0  0  0  0  0  0  0  0  0  0
    6.5214    2.7508   -0.6869 C   0  0  0  0  0  0  0  0  0  0  0  0
    7.0539    4.1773   -1.0431 C   0  0  0  0  0  0  0  0  0  0  0  0
    6.4531    4.6233   -2.3975 C   0  0  0  0  0  0  0  0  0  0  0  0
    6.5393    5.1853    0.0123 C   0  0  0  0  0  0  0  0  0  0  0  0
    8.5897    4.1737   -1.0245 C   0  0  0  0  0  0  0  0  0  0  0  0
    9.3638    4.3924   -2.1656 C   0  0  0  0  0  0  0  0  0  0  0  0
   10.7597    4.2521   -2.1306 C   0  0  0  0  0  0  0  0  0  0  0  0
   11.4629    3.9330   -0.9512 C   0  0  0  0  0  0  0  0  0  0  0  0
   12.9479    3.7547   -1.0050 C   0  0  0  0  0  0  0  0  0  0  0  0
   13.7109    4.5864   -1.8633 C   0  0  0  0  0  0  0  0  0  0  0  0
   15.0993    4.4826   -1.9664 C   0  0  0  0  0  0  0  0  0  0  0  0
   15.7778    3.5681   -1.1756 C   0  0  0  0  0  0  0  0  0  0  0  0
   15.0664    2.7424   -0.3184 C   0  0  0  0  0  0  0  0  0  0  0  0
   13.6632    2.7686   -0.2728 C   0  0  0  0  0  0  0  0  0  0  0  0
   13.0305    1.9423    0.6839 N   0  0  0  0  0  0  0  0  0  0  0  0
   10.6740    3.8037    0.2050 C   0  0  0  0  0  0  0  0  0  0  0  0
    9.2774    3.8862    0.1635 C   0  0  0  0  0  0  0  0  0  0  0  0
   11.1742    3.5880    1.4630 O   0  0  0  0  0  0  0  0  0  0  0  0
    6.5787   -4.1502   -2.8239 H   0  0  0  0  0  0  0  0  0  0  0  0
    8.0252   -3.1642   -3.1095 H   0  0  0  0  0  0  0  0  0  0  0  0
    6.5506   -2.8703   -4.0512 H   0  0  0  0  0  0  0  0  0  0  0  0
    6.8269   -2.4637   -1.0241 H   0  0  0  0  0  0  0  0  0  0  0  0
    5.3590   -2.1711   -1.9620 H   0  0  0  0  0  0  0  0  0  0  0  0
    6.5741   -0.4485   -3.3162 H   0  0  0  0  0  0  0  0  0  0  0  0
    8.0374   -0.7382   -2.3767 H   0  0  0  0  0  0  0  0  0  0  0  0
    6.8559   -0.0021   -0.2931 H   0  0  0  0  0  0  0  0  0  0  0  0
    5.3781    0.2710   -1.2254 H   0  0  0  0  0  0  0  0  0  0  0  0
    6.6030    1.8912   -2.6747 H   0  0  0  0  0  0  0  0  0  0  0  0
    8.0658    1.6325   -1.7271 H   0  0  0  0  0  0  0  0  0  0  0  0
    6.8455    2.4670    0.3236 H   0  0  0  0  0  0  0  0  0  0  0  0
    5.4242    2.7700   -0.6543 H   0  0  0  0  0  0  0  0  0  0  0  0
    5.3585    4.6311   -2.3610 H   0  0  0  0  0  0  0  0  0  0  0  0
    6.7405    3.9628   -3.2242 H   0  0  0  0  0  0  0  0  0  0  0  0
    6.7811    5.6330   -2.6672 H   0  0  0  0  0  0  0  0  0  0  0  0
    5.4475    5.2697   -0.0184 H   0  0  0  0  0  0  0  0  0  0  0  0
    6.9574    6.1840   -0.1626 H   0  0  0  0  0  0  0  0  0  0  0  0
    6.8073    4.8934    1.0339 H   0  0  0  0  0  0  0  0  0  0  0  0
    8.9114    4.6475   -3.1201 H   0  0  0  0  0  0  0  0  0  0  0  0
   11.2881    4.3856   -3.0730 H   0  0  0  0  0  0  0  0  0  0  0  0
   13.2229    5.3531   -2.4655 H   0  0  0  0  0  0  0  0  0  0  0  0
   15.6433    5.1289   -2.6473 H   0  0  0  0  0  0  0  0  0  0  0  0
   16.8603    3.5077   -1.2178 H   0  0  0  0  0  0  0  0  0  0  0  0
   15.6171    2.0487    0.3187 H   0  0  0  0  0  0  0  0  0  0  0  0
   12.0956    1.6541    0.3913 H   0  0  0  0  0  0  0  0  0  0  0  0
   13.5855    1.1268    0.9378 H   0  0  0  0  0  0  0  0  0  0  0  0
    8.7347    3.7006    1.0877 H   0  0  0  0  0  0  0  0  0  0  0  0
   12.1273    3.3738    1.3866 H   0  0  0  0  0  0  0  0  0  0  0  0
  1  2  1  0  0  0  0
  1 24  1  0  0  0  0
  1 25  1  0  0  0  0
  1 26  1  0  0  0  0
  2  3  1  0  0  0  0
  2 27  1  0  0  0  0
  2 28  1  0  0  0  0
  3  4  1  0  0  0  0
  3 29  1  0  0  0  0
  3 30  1  0  0  0  0
  4  5  1  0  0  0  0
  4 31  1  0  0  0  0
  4 32  1  0  0  0  0
  5  6  1  0  0  0  0
  5 33  1  0  0  0  0
  5 34  1  0  0  0  0
  6  7  1  0  0  0  0
  6 35  1  0  0  0  0
  6 36  1  0  0  0  0
  7  8  1  0  0  0  0
  7  9  1  0  0  0  0
  7 10  1  0  0  0  0
  8 37  1  0  0  0  0
  8 38  1  0  0  0  0
  8 39  1  0  0  0  0
  9 40  1  0  0  0  0
  9 41  1  0  0  0  0
  9 42  1  0  0  0  0
 10 22  2  0  0  0  0
 10 11  1  0  0  0  0
 11 12  2  0  0  0  0
 11 43  1  0  0  0  0
 12 13  1  0  0  0  0
 12 44  1  0  0  0  0
 13 14  1  0  0  0  0
 13 21  2  0  0  0  0
 14 19  2  0  0  0  0
 14 15  1  0  0  0  0
 15 16  2  0  0  0  0
 15 45  1  0  0  0  0
 16 17  1  0  0  0  0
 16 46  1  0  0  0  0
 17 18  2  0  0  0  0
 17 47  1  0  0  0  0
 18 19  1  0  0  0  0
 18 48  1  0  0  0  0
 19 20  1  0  0  0  0
 20 49  1  0  0  0  0
 20 50  1  0  0  0  0
 21 22  1  0  0  0  0
 21 23  1  0  0  0  0
 22 51  1  0  0  0  0
 23 52  1  0  0  0  0
M  END
$$$$
CHEMBL307696_6KPF
 OpenBabel12022418143D

 66 68  0  0  1  0  0  0  0  0999 V2000
    6.1654    7.3725   -5.3795 C   0  0  0  0  0  0  0  0  0  0  0  0
    4.8701    7.0167   -4.6687 C   0  0  0  0  0  0  0  0  0  0  0  0
    4.9658    5.6587   -3.9739 C   0  0  0  0  0  0  0  0  0  0  0  0
    3.6676    5.3260   -3.2378 C   0  0  0  0  0  0  0  0  0  0  0  0
    3.7482    3.9640   -2.5425 C   0  0  0  0  0  0  0  0  0  0  0  0
    2.4404    3.6521   -1.8039 C   0  0  0  0  0  0  0  0  0  0  0  0
    2.4015    2.2865   -1.0468 C   0  0  0  0  0  0  0  0  0  0  0  0
    2.7092    1.1235   -2.0334 C   0  0  0  0  0  0  0  0  0  0  0  0
    3.4664    2.2400    0.0608 C   0  0  0  0  0  0  0  0  0  0  0  0
    0.9776    2.1402   -0.4642 C   0  0  0  0  0  0  0  0  0  0  0  0
   -0.0257    1.6314   -1.2866 C   0  0  0  0  0  0  0  0  0  0  0  0
   -1.3534    1.5930   -0.8839 C   0  0  0  0  0  0  0  0  0  0  0  0
   -1.7560    1.9641    0.3947 C   0  0  0  0  0  0  0  0  0  0  0  0
   -3.2155    2.2500    0.6109 C   0  0  2  0  0  0  0  0  0  0  0  0
   -4.0301    2.0807    1.8962 C   0  0  0  0  0  0  0  0  0  0  0  0
   -5.2047    3.0790    1.7435 C   0  0  0  0  0  0  0  0  0  0  0  0
   -5.6213    3.5107    0.5189 C   0  0  0  0  0  0  0  0  0  0  0  0
   -5.0242    3.0127   -0.8107 C   0  0  0  0  0  0  0  0  0  0  0  0
   -4.1796    1.7641   -0.5061 C   0  0  1  0  0  0  0  0  0  0  0  0
   -3.5134    0.9154   -1.5983 C   0  0  0  0  0  0  0  0  0  0  0  0
   -3.4560   -0.5616   -1.1284 C   0  0  0  0  0  0  0  0  0  0  0  0
   -4.2410    0.9651   -2.9427 C   0  0  0  0  0  0  0  0  0  0  0  0
   -2.1955    1.3285   -1.9200 O   0  0  0  0  0  0  0  0  0  0  0  0
   -5.6914    3.6914    3.0235 C   0  0  0  0  0  0  0  0  0  0  0  0
   -6.5855    2.8061    3.6717 O   0  0  0  0  0  0  0  0  0  0  0  0
   -0.7513    2.4590    1.2458 C   0  0  0  0  0  0  0  0  0  0  0  0
    0.5872    2.5795    0.8125 C   0  0  0  0  0  0  0  0  0  0  0  0
   -1.1090    2.9587    2.4677 O   0  0  0  0  0  0  0  0  0  0  0  0
    6.9861    7.4814   -4.6634 H   0  0  0  0  0  0  0  0  0  0  0  0
    6.0545    8.3201   -5.9158 H   0  0  0  0  0  0  0  0  0  0  0  0
    6.4414    6.6009   -6.1051 H   0  0  0  0  0  0  0  0  0  0  0  0
    4.6366    7.7971   -3.9351 H   0  0  0  0  0  0  0  0  0  0  0  0
    4.0517    7.0021   -5.3980 H   0  0  0  0  0  0  0  0  0  0  0  0
    5.8012    5.6638   -3.2635 H   0  0  0  0  0  0  0  0  0  0  0  0
    5.1780    4.8806   -4.7174 H   0  0  0  0  0  0  0  0  0  0  0  0
    3.4569    6.1055   -2.4959 H   0  0  0  0  0  0  0  0  0  0  0  0
    2.8337    5.3248   -3.9511 H   0  0  0  0  0  0  0  0  0  0  0  0
    3.9472    3.1962   -3.2980 H   0  0  0  0  0  0  0  0  0  0  0  0
    4.5883    3.9625   -1.8401 H   0  0  0  0  0  0  0  0  0  0  0  0
    1.6228    3.6879   -2.5378 H   0  0  0  0  0  0  0  0  0  0  0  0
    2.2347    4.4671   -1.0947 H   0  0  0  0  0  0  0  0  0  0  0  0
    2.4865    0.1486   -1.5818 H   0  0  0  0  0  0  0  0  0  0  0  0
    2.1416    1.2070   -2.9696 H   0  0  0  0  0  0  0  0  0  0  0  0
    3.7658    1.1115   -2.3239 H   0  0  0  0  0  0  0  0  0  0  0  0
    4.4647    2.0502   -0.3494 H   0  0  0  0  0  0  0  0  0  0  0  0
    3.5209    3.1845    0.6147 H   0  0  0  0  0  0  0  0  0  0  0  0
    3.2573    1.4399    0.7806 H   0  0  0  0  0  0  0  0  0  0  0  0
    0.1780    1.3279   -2.3091 H   0  0  0  0  0  0  0  0  0  0  0  0
   -3.1194    3.3454    0.5085 H   0  0  0  0  0  0  0  0  0  0  0  0
   -3.4492    2.2877    2.7943 H   0  0  0  0  0  0  0  0  0  0  0  0
   -4.4251    1.0604    2.0081 H   0  0  0  0  0  0  0  0  0  0  0  0
   -6.3755    4.2898    0.4379 H   0  0  0  0  0  0  0  0  0  0  0  0
   -4.4057    3.8107   -1.2437 H   0  0  0  0  0  0  0  0  0  0  0  0
   -5.8269    2.7962   -1.5203 H   0  0  0  0  0  0  0  0  0  0  0  0
   -4.9290    1.0714   -0.0885 H   0  0  0  0  0  0  0  0  0  0  0  0
   -2.9277   -1.1923   -1.8522 H   0  0  0  0  0  0  0  0  0  0  0  0
   -4.4611   -0.9724   -0.9801 H   0  0  0  0  0  0  0  0  0  0  0  0
   -2.9147   -0.6632   -0.1802 H   0  0  0  0  0  0  0  0  0  0  0  0
   -5.2956    0.7008   -2.8576 H   0  0  0  0  0  0  0  0  0  0  0  0
   -4.1480    1.9594   -3.3957 H   0  0  0  0  0  0  0  0  0  0  0  0
   -3.7670    0.2759   -3.6560 H   0  0  0  0  0  0  0  0  0  0  0  0
   -6.1905    4.6507    2.8573 H   0  0  0  0  0  0  0  0  0  0  0  0
   -4.8458    3.8817    3.6924 H   0  0  0  0  0  0  0  0  0  0  0  0
   -7.4348    2.8899    3.2070 H   0  0  0  0  0  0  0  0  0  0  0  0
    1.3050    3.0895    1.4491 H   0  0  0  0  0  0  0  0  0  0  0  0
   -0.3076    3.1680    2.9631 H   0  0  0  0  0  0  0  0  0  0  0  0
  1  2  1  0  0  0  0
  1 29  1  0  0  0  0
  1 30  1  0  0  0  0
  1 31  1  0  0  0  0
  2  3  1  0  0  0  0
  2 32  1  0  0  0  0
  2 33  1  0  0  0  0
  3  4  1  0  0  0  0
  3 34  1  0  0  0  0
  3 35  1  0  0  0  0
  4  5  1  0  0  0  0
  4 36  1  0  0  0  0
  4 37  1  0  0  0  0
  5  6  1  0  0  0  0
  5 38  1  0  0  0  0
  5 39  1  0  0  0  0
  6  7  1  0  0  0  0
  6 40  1  0  0  0  0
  6 41  1  0  0  0  0
  7  8  1  0  0  0  0
  7  9  1  0  0  0  0
  7 10  1  0  0  0  0
  8 42  1  0  0  0  0
  8 43  1  0  0  0  0
  8 44  1  0  0  0  0
  9 45  1  0  0  0  0
  9 46  1  0  0  0  0
  9 47  1  0  0  0  0
 10 27  2  0  0  0  0
 10 11  1  0  0  0  0
 11 12  2  0  0  0  0
 11 48  1  0  0  0  0
 12 23  1  0  0  0  0
 12 13  1  0  0  0  0
 13 14  1  0  0  0  0
 13 26  2  0  0  0  0
 14 15  1  0  0  0  0
 14 19  1  0  0  0  0
 14 49  1  6  0  0  0
 15 16  1  0  0  0  0
 15 50  1  0  0  0  0
 15 51  1  0  0  0  0
 16 17  2  0  0  0  0
 16 24  1  0  0  0  0
 17 18  1  0  0  0  0
 17 52  1  0  0  0  0
 18 53  1  0  0  0  0
 18 54  1  0  0  0  0
 19 18  1  0  0  0  0
 19 20  1  0  0  0  0
 19 55  1  1  0  0  0
 20 23  1  0  0  0  0
 20 21  1  0  0  0  0
 20 22  1  0  0  0  0
 21 56  1  0  0  0  0
 21 57  1  0  0  0  0
 21 58  1  0  0  0  0
 22 59  1  0  0  0  0
 22 60  1  0  0  0  0
 22 61  1  0  0  0  0
 24 25  1  0  0  0  0
 24 62  1  0  0  0  0
 24 63  1  0  0  0  0
 25 64  1  0  0  0  0
 26 27  1  0  0  0  0
 26 28  1  0  0  0  0
 27 65  1  0  0  0  0
 28 66  1  0  0  0  0
M  END
$$$$
CHEMBL432107_6KPF
 OpenBabel12022418143D

 66 68  0  0  1  0  0  0  0  0999 V2000
    7.1323   -2.7771   -5.2531 C   0  0  0  0  0  0  0  0  0  0  0  0
    6.6188   -3.5863   -4.0700 C   0  0  0  0  0  0  0  0  0  0  0  0
    7.1705   -3.0447   -2.7497 C   0  0  0  0  0  0  0  0  0  0  0  0
    6.6830   -3.8399   -1.5315 C   0  0  0  0  0  0  0  0  0  0  0  0
    7.2686   -3.2442   -0.2398 C   0  0  0  0  0  0  0  0  0  0  0  0
    6.8061   -3.9966    1.0166 C   0  0  0  0  0  0  0  0  0  0  0  0
    7.3296   -3.4209    2.3824 C   0  0  0  0  0  0  0  0  0  0  0  0
    6.7726   -1.9943    2.5758 C   0  0  0  0  0  0  0  0  0  0  0  0
    6.6899   -4.2880    3.5044 C   0  0  0  0  0  0  0  0  0  0  0  0
    8.8680   -3.4998    2.5033 C   0  0  0  0  0  0  0  0  0  0  0  0
    9.7301   -2.3871    2.6641 C   0  0  0  0  0  0  0  0  0  0  0  0
   11.1465   -2.5138    2.6945 C   0  0  0  0  0  0  0  0  0  0  0  0
   11.7747   -3.7519    2.5941 C   0  0  0  0  0  0  0  0  0  0  0  0
   10.8731   -4.8813    2.5201 C   0  0  0  0  0  0  0  0  0  0  0  0
    9.4811   -4.7576    2.4528 C   0  0  0  0  0  0  0  0  0  0  0  0
   11.2876   -6.2241    2.4161 O   0  0  0  0  0  0  0  0  0  0  0  0
   12.7147   -6.2823    2.6391 C   0  0  0  0  0  0  0  0  0  0  0  0
   13.3180   -7.6754    2.4556 C   0  0  0  0  0  0  0  0  0  0  0  0
   12.7670   -6.0759    4.2056 C   0  0  0  0  0  0  0  0  0  0  0  0
   13.1845   -5.2808    1.5042 C   0  0  2  0  0  0  0  0  0  0  0  0
   14.3036   -5.5407    0.5141 C   0  0  0  0  0  0  0  0  0  0  0  0
   15.6160   -5.4602    1.1492 C   0  0  0  0  0  0  0  0  0  0  0  0
   15.7997   -4.8450    2.3297 C   0  0  0  0  0  0  0  0  0  0  0  0
   17.1461   -5.0692    2.9713 C   0  0  0  0  0  0  0  0  0  0  0  0
   16.9866   -5.9749    4.0470 O   0  0  0  0  0  0  0  0  0  0  0  0
   14.6698   -3.9840    3.0106 C   0  0  0  0  0  0  0  0  0  0  0  0
   13.2889   -3.9250    2.1780 C   0  0  2  0  0  0  0  0  0  0  0  0
   11.9157   -1.3816    2.7475 O   0  0  0  0  0  0  0  0  0  0  0  0
    6.7330   -3.1749   -6.1915 H   0  0  0  0  0  0  0  0  0  0  0  0
    8.2250   -2.8141   -5.3098 H   0  0  0  0  0  0  0  0  0  0  0  0
    6.8279   -1.7279   -5.1724 H   0  0  0  0  0  0  0  0  0  0  0  0
    6.9190   -4.6327   -4.1978 H   0  0  0  0  0  0  0  0  0  0  0  0
    5.5232   -3.5568   -4.0628 H   0  0  0  0  0  0  0  0  0  0  0  0
    6.8708   -1.9968   -2.6388 H   0  0  0  0  0  0  0  0  0  0  0  0
    8.2662   -3.0666   -2.7834 H   0  0  0  0  0  0  0  0  0  0  0  0
    6.9789   -4.8902   -1.6282 H   0  0  0  0  0  0  0  0  0  0  0  0
    5.5878   -3.8137   -1.4893 H   0  0  0  0  0  0  0  0  0  0  0  0
    6.9700   -2.1938   -0.1800 H   0  0  0  0  0  0  0  0  0  0  0  0
    8.3613   -3.2680   -0.3010 H   0  0  0  0  0  0  0  0  0  0  0  0
    7.0907   -5.0522    0.9160 H   0  0  0  0  0  0  0  0  0  0  0  0
    5.7062   -3.9898    1.0297 H   0  0  0  0  0  0  0  0  0  0  0  0
    5.6778   -1.9876    2.5091 H   0  0  0  0  0  0  0  0  0  0  0  0
    7.1496   -1.2953    1.8229 H   0  0  0  0  0  0  0  0  0  0  0  0
    7.0396   -1.5936    3.5609 H   0  0  0  0  0  0  0  0  0  0  0  0
    5.5955   -4.2238    3.4771 H   0  0  0  0  0  0  0  0  0  0  0  0
    7.0194   -3.9591    4.4980 H   0  0  0  0  0  0  0  0  0  0  0  0
    6.9421   -5.3493    3.4079 H   0  0  0  0  0  0  0  0  0  0  0  0
    9.3022   -1.3919    2.7333 H   0  0  0  0  0  0  0  0  0  0  0  0
    8.8985   -5.6571    2.3165 H   0  0  0  0  0  0  0  0  0  0  0  0
   13.4849   -7.9429    1.4159 H   0  0  0  0  0  0  0  0  0  0  0  0
   12.6787   -8.4449    2.8917 H   0  0  0  0  0  0  0  0  0  0  0  0
   14.2942   -7.7126    2.9668 H   0  0  0  0  0  0  0  0  0  0  0  0
   12.1705   -5.2387    4.5931 H   0  0  0  0  0  0  0  0  0  0  0  0
   13.7625   -6.0231    4.6366 H   0  0  0  0  0  0  0  0  0  0  0  0
   12.2845   -6.9472    4.6851 H   0  0  0  0  0  0  0  0  0  0  0  0
   12.3669   -5.2199    0.7613 H   0  0  0  0  0  0  0  0  0  0  0  0
   14.1653   -6.4951    0.0197 H   0  0  0  0  0  0  0  0  0  0  0  0
   14.2684   -4.7756   -0.2829 H   0  0  0  0  0  0  0  0  0  0  0  0
   16.4190   -6.0009    0.6410 H   0  0  0  0  0  0  0  0  0  0  0  0
   17.8524   -5.5581    2.2524 H   0  0  0  0  0  0  0  0  0  0  0  0
   17.6231   -4.1619    3.2918 H   0  0  0  0  0  0  0  0  0  0  0  0
   16.9666   -6.8769    3.6664 H   0  0  0  0  0  0  0  0  0  0  0  0
   15.0569   -2.9645    3.1330 H   0  0  0  0  0  0  0  0  0  0  0  0
   14.5348   -4.3436    4.0292 H   0  0  0  0  0  0  0  0  0  0  0  0
   13.4631   -3.1529    1.4150 H   0  0  0  0  0  0  0  0  0  0  0  0
   11.3431   -0.6061    2.8299 H   0  0  0  0  0  0  0  0  0  0  0  0
  1  2  1  0  0  0  0
  1 29  1  0  0  0  0
  1 30  1  0  0  0  0
  1 31  1  0  0  0  0
  2  3  1  0  0  0  0
  2 32  1  0  0  0  0
  2 33  1  0  0  0  0
  3  4  1  0  0  0  0
  3 34  1  0  0  0  0
  3 35  1  0  0  0  0
  4  5  1  0  0  0  0
  4 36  1  0  0  0  0
  4 37  1  0  0  0  0
  5  6  1  0  0  0  0
  5 38  1  0  0  0  0
  5 39  1  0  0  0  0
  6  7  1  0  0  0  0
  6 40  1  0  0  0  0
  6 41  1  0  0  0  0
  7  8  1  0  0  0  0
  7  9  1  0  0  0  0
  7 10  1  0  0  0  0
  8 42  1  0  0  0  0
  8 43  1  0  0  0  0
  8 44  1  0  0  0  0
  9 45  1  0  0  0  0
  9 46  1  0  0  0  0
  9 47  1  0  0  0  0
 10 15  2  0  0  0  0
 10 11  1  0  0  0  0
 11 12  2  0  0  0  0
 11 48  1  0  0  0  0
 12 13  1  0  0  0  0
 12 28  1  0  0  0  0
 13 27  1  0  0  0  0
 13 14  2  0  0  0  0
 14 15  1  0  0  0  0
 14 16  1  0  0  0  0
 15 49  1  0  0  0  0
 16 17  1  0  0  0  0
 17 20  1  0  0  0  0
 17 18  1  0  0  0  0
 17 19  1  0  0  0  0
 18 50  1  0  0  0  0
 18 51  1  0  0  0  0
 18 52  1  0  0  0  0
 19 53  1  0  0  0  0
 19 54  1  0  0  0  0
 19 55  1  0  0  0  0
 20 21  1  0  0  0  0
 20 27  1  0  0  0  0
 20 56  1  6  0  0  0
 21 22  1  0  0  0  0
 21 57  1  0  0  0  0
 21 58  1  0  0  0  0
 22 23  2  0  0  0  0
 22 59  1  0  0  0  0
 23 26  1  0  0  0  0
 23 24  1  0  0  0  0
 24 25  1  0  0  0  0
 24 60  1  0  0  0  0
 24 61  1  0  0  0  0
 25 62  1  0  0  0  0
 26 63  1  0  0  0  0
 26 64  1  0  0  0  0
 27 26  1  0  0  0  0
 27 65  1  6  0  0  0
 28 66  1  0  0  0  0
M  END
$$$$
CHEMBL1800166_8GUQ
 OpenBabel12022418143D

 56 58  0  0  0  0  0  0  0  0999 V2000
    2.7485    2.4439   -0.6724 C   0  0  0  0  0  0  0  0  0  0  0  0
    2.3976    1.9990    0.7587 C   0  0  0  0  0  0  0  0  0  0  0  0
    2.6356    3.1569    1.7474 C   0  0  0  0  0  0  0  0  0  0  0  0
    0.8852    1.6777    0.7906 C   0  0  0  0  0  0  0  0  0  0  0  0
    3.1712    0.7107    1.1640 C   0  0  0  0  0  0  0  0  0  0  0  0
    4.6788    0.7827    1.1472 C   0  0  0  0  0  0  0  0  0  0  0  0
    5.4025    1.8730    0.9748 N   0  0  0  0  0  0  0  0  0  0  0  0
    6.7113    1.5028    1.1070 C   0  0  0  0  0  0  0  0  0  0  0  0
    7.8671    2.3026    1.0541 C   0  0  0  0  0  0  0  0  0  0  0  0
    9.1152    1.6850    1.1808 C   0  0  0  0  0  0  0  0  0  0  0  0
    9.1999    0.3133    1.4589 C   0  0  0  0  0  0  0  0  0  0  0  0
    8.0493   -0.4798    1.5810 C   0  0  0  0  0  0  0  0  0  0  0  0
    6.8131    0.1396    1.3597 C   0  0  0  0  0  0  0  0  0  0  0  0
    5.5053   -0.3104    1.3658 N   0  0  0  0  0  0  0  0  0  0  0  0
    5.0732   -1.6485    1.7657 C   0  0  0  0  0  0  0  0  0  0  0  0
    5.0293   -2.7262    0.7165 C   0  0  0  0  0  0  0  0  0  0  0  0
    5.0125   -2.4994   -0.7752 C   0  0  0  0  0  0  0  0  0  0  0  0
    6.2271   -3.1013   -0.1223 C   0  0  0  0  0  0  0  0  0  0  0  0
   10.6176    2.6600    1.1718 S   0  0  0  0  0  0  0  0  0  0  0  0
   10.4482    3.6423    2.2185 O   0  0  0  0  0  0  0  0  0  0  0  0
   11.7113    1.7051    1.2618 O   0  0  0  0  0  0  0  0  0  0  0  0
   10.8077    3.5210   -0.4158 C   0  0  0  0  0  0  0  0  0  0  0  0
   10.6591    2.5516   -1.5964 C   0  0  0  0  0  0  0  0  0  0  0  0
    9.8059    4.6759   -0.5601 C   0  0  0  0  0  0  0  0  0  0  0  0
   12.2382    4.1159   -0.4167 C   0  0  0  0  0  0  0  0  0  0  0  0
   12.5037    4.8786   -1.5966 O   0  0  0  0  0  0  0  0  0  0  0  0
    2.1780    3.3356   -0.9572 H   0  0  0  0  0  0  0  0  0  0  0  0
    2.5117    1.6563   -1.3966 H   0  0  0  0  0  0  0  0  0  0  0  0
    3.8067    2.6929   -0.7849 H   0  0  0  0  0  0  0  0  0  0  0  0
    2.1529    4.0766    1.3946 H   0  0  0  0  0  0  0  0  0  0  0  0
    3.6940    3.3879    1.8858 H   0  0  0  0  0  0  0  0  0  0  0  0
    2.2158    2.9265    2.7334 H   0  0  0  0  0  0  0  0  0  0  0  0
    0.2851    2.5714    0.5796 H   0  0  0  0  0  0  0  0  0  0  0  0
    0.5797    1.3011    1.7741 H   0  0  0  0  0  0  0  0  0  0  0  0
    0.6219    0.9180    0.0469 H   0  0  0  0  0  0  0  0  0  0  0  0
    2.8667   -0.1059    0.4953 H   0  0  0  0  0  0  0  0  0  0  0  0
    2.8597    0.4243    2.1772 H   0  0  0  0  0  0  0  0  0  0  0  0
    7.7484    3.3733    0.9541 H   0  0  0  0  0  0  0  0  0  0  0  0
   10.1683   -0.1553    1.6304 H   0  0  0  0  0  0  0  0  0  0  0  0
    8.1268   -1.5306    1.8399 H   0  0  0  0  0  0  0  0  0  0  0  0
    4.0725   -1.5512    2.1969 H   0  0  0  0  0  0  0  0  0  0  0  0
    5.7261   -1.9651    2.5868 H   0  0  0  0  0  0  0  0  0  0  0  0
    4.4368   -3.5613    1.0866 H   0  0  0  0  0  0  0  0  0  0  0  0
    5.1037   -1.4957   -1.1742 H   0  0  0  0  0  0  0  0  0  0  0  0
    4.4044   -3.1590   -1.3867 H   0  0  0  0  0  0  0  0  0  0  0  0
    6.4212   -4.1587   -0.2768 H   0  0  0  0  0  0  0  0  0  0  0  0
    7.1248   -2.4988   -0.1113 H   0  0  0  0  0  0  0  0  0  0  0  0
    9.7034    2.0231   -1.5740 H   0  0  0  0  0  0  0  0  0  0  0  0
   11.4567    1.7998   -1.5950 H   0  0  0  0  0  0  0  0  0  0  0  0
   10.7140    3.0829   -2.5556 H   0  0  0  0  0  0  0  0  0  0  0  0
    8.7756    4.3230   -0.6083 H   0  0  0  0  0  0  0  0  0  0  0  0
    9.9775    5.2437   -1.4821 H   0  0  0  0  0  0  0  0  0  0  0  0
    9.8861    5.3800    0.2756 H   0  0  0  0  0  0  0  0  0  0  0  0
   13.0089    3.3408   -0.3412 H   0  0  0  0  0  0  0  0  0  0  0  0
   12.3775    4.7899    0.4365 H   0  0  0  0  0  0  0  0  0  0  0  0
   12.7183    4.2602   -2.3158 H   0  0  0  0  0  0  0  0  0  0  0  0
  1  2  1  0  0  0  0
  1 27  1  0  0  0  0
  1 28  1  0  0  0  0
  1 29  1  0  0  0  0
  2  3  1  0  0  0  0
  2  4  1  0  0  0  0
  2  5  1  0  0  0  0
  3 30  1  0  0  0  0
  3 31  1  0  0  0  0
  3 32  1  0  0  0  0
  4 33  1  0  0  0  0
  4 34  1  0  0  0  0
  4 35  1  0  0  0  0
  5  6  1  0  0  0  0
  5 36  1  0  0  0  0
  5 37  1  0  0  0  0
  6 14  1  0  0  0  0
  6  7  2  0  0  0  0
  7  8  1  0  0  0  0
  8 13  2  0  0  0  0
  8  9  1  0  0  0  0
  9 10  2  0  0  0  0
  9 38  1  0  0  0  0
 10 11  1  0  0  0  0
 10 19  1  0  0  0  0
 11 12  2  0  0  0  0
 11 39  1  0  0  0  0
 12 13  1  0  0  0  0
 12 40  1  0  0  0  0
 13 14  1  0  0  0  0
 14 15  1  0  0  0  0
 15 16  1  0  0  0  0
 15 41  1  0  0  0  0
 15 42  1  0  0  0  0
 16 18  1  0  0  0  0
 16 17  1  0  0  0  0
 16 43  1  0  0  0  0
 17 18  1  0  0  0  0
 17 44  1  0  0  0  0
 17 45  1  0  0  0  0
 18 46  1  0  0  0  0
 18 47  1  0  0  0  0
 19 20  2  0  0  0  0
 19 21  2  0  0  0  0
 19 22  1  0  0  0  0
 22 23  1  0  0  0  0
 22 24  1  0  0  0  0
 22 25  1  0  0  0  0
 23 48  1  0  0  0  0
 23 49  1  0  0  0  0
 23 50  1  0  0  0  0
 24 51  1  0  0  0  0
 24 52  1  0  0  0  0
 24 53  1  0  0  0  0
 25 26  1  0  0  0  0
 25 54  1  0  0  0  0
 25 55  1  0  0  0  0
 26 56  1  0  0  0  0
M  END
$$$$
CHEMBL1277685_8GUR
 OpenBabel12022418143D

 65 67  0  0  1  0  0  0  0  0999 V2000
    5.8664    3.8052    0.3741 C   0  0  0  0  0  0  0  0  0  0  0  0
    4.5158    3.1054    0.3450 C   0  0  0  0  0  0  0  0  0  0  0  0
    4.6954    1.5922    0.2640 C   0  0  0  0  0  0  0  0  0  0  0  0
    3.3589    0.8528    0.2521 C   0  0  0  0  0  0  0  0  0  0  0  0
    3.5938   -0.6601    0.1644 C   0  0  0  0  0  0  0  0  0  0  0  0
    2.2708   -1.4295    0.1508 C   0  0  0  0  0  0  0  0  0  0  0  0
    2.3823   -2.9880    0.0208 C   0  0  0  0  0  0  0  0  0  0  0  0
    3.2586   -3.5380    1.1679 C   0  0  0  0  0  0  0  0  0  0  0  0
    3.0319   -3.3941   -1.3281 C   0  0  0  0  0  0  0  0  0  0  0  0
    0.9448   -3.5362    0.0661 C   0  0  0  0  0  0  0  0  0  0  0  0
    0.4523   -4.3485    1.0962 C   0  0  0  0  0  0  0  0  0  0  0  0
   -0.9048   -4.6812    1.1609 C   0  0  0  0  0  0  0  0  0  0  0  0
   -1.7984   -4.2156    0.1894 C   0  0  0  0  0  0  0  0  0  0  0  0
   -1.2942   -3.5518   -0.9197 C   0  0  0  0  0  0  0  0  0  0  0  0
    0.0526   -3.1844   -0.9590 C   0  0  0  0  0  0  0  0  0  0  0  0
   -2.0092   -3.1823   -2.0181 O   0  0  0  0  0  0  0  0  0  0  0  0
   -3.3733   -3.6465   -2.0940 C   0  0  0  0  0  0  0  0  0  0  0  0
   -3.3667   -5.0678   -2.6819 C   0  0  0  0  0  0  0  0  0  0  0  0
   -4.0195   -2.6661   -3.0947 C   0  0  0  0  0  0  0  0  0  0  0  0
   -4.0320   -3.5410   -0.7029 C   0  0  1  0  0  0  0  0  0  0  0  0
   -5.5262   -3.9001   -0.6333 C   0  0  0  0  0  0  0  0  0  0  0  0
   -6.0544   -3.6395    0.7466 C   0  0  0  0  0  0  0  0  0  0  0  0
   -5.2725   -3.6845    1.8405 C   0  0  0  0  0  0  0  0  0  0  0  0
   -5.7815   -3.2925    3.1990 C   0  0  0  0  0  0  0  0  0  0  0  0
   -5.7600   -4.4264    4.0485 O   0  0  0  0  0  0  0  0  0  0  0  0
   -3.8081   -4.0745    1.7607 C   0  0  0  0  0  0  0  0  0  0  0  0
   -3.2898   -4.4130    0.3343 C   0  0  2  0  0  0  0  0  0  0  0  0
    6.5004    3.4739   -0.4548 H   0  0  0  0  0  0  0  0  0  0  0  0
    6.3917    3.5927    1.3111 H   0  0  0  0  0  0  0  0  0  0  0  0
    5.7382    4.8886    0.2934 H   0  0  0  0  0  0  0  0  0  0  0  0
    3.9431    3.4585   -0.5206 H   0  0  0  0  0  0  0  0  0  0  0  0
    3.9485    3.3739    1.2430 H   0  0  0  0  0  0  0  0  0  0  0  0
    5.2544    1.3414   -0.6460 H   0  0  0  0  0  0  0  0  0  0  0  0
    5.2952    1.2484    1.1154 H   0  0  0  0  0  0  0  0  0  0  0  0
    2.7550    1.1879   -0.5996 H   0  0  0  0  0  0  0  0  0  0  0  0
    2.7958    1.0886    1.1636 H   0  0  0  0  0  0  0  0  0  0  0  0
    4.2004   -0.9663    1.0224 H   0  0  0  0  0  0  0  0  0  0  0  0
    4.1679   -0.8821   -0.7417 H   0  0  0  0  0  0  0  0  0  0  0  0
    1.7160   -1.1847    1.0679 H   0  0  0  0  0  0  0  0  0  0  0  0
    1.6672   -1.0292   -0.6753 H   0  0  0  0  0  0  0  0  0  0  0  0
    4.2826   -3.1544    1.1189 H   0  0  0  0  0  0  0  0  0  0  0  0
    3.3312   -4.6310    1.1239 H   0  0  0  0  0  0  0  0  0  0  0  0
    2.8556   -3.2634    2.1499 H   0  0  0  0  0  0  0  0  0  0  0  0
    3.1453   -2.5374   -2.0012 H   0  0  0  0  0  0  0  0  0  0  0  0
    2.4430   -4.1439   -1.8710 H   0  0  0  0  0  0  0  0  0  0  0  0
    4.0271   -3.8299   -1.1873 H   0  0  0  0  0  0  0  0  0  0  0  0
    1.0972   -4.7171    1.8903 H   0  0  0  0  0  0  0  0  0  0  0  0
   -1.2536   -5.2830    1.9965 H   0  0  0  0  0  0  0  0  0  0  0  0
    0.3935   -2.5894   -1.8066 H   0  0  0  0  0  0  0  0  0  0  0  0
   -2.6130   -5.7037   -2.2043 H   0  0  0  0  0  0  0  0  0  0  0  0
   -3.0964   -5.0530   -3.7444 H   0  0  0  0  0  0  0  0  0  0  0  0
   -4.3390   -5.5601   -2.5933 H   0  0  0  0  0  0  0  0  0  0  0  0
   -3.7874   -2.9476   -4.1278 H   0  0  0  0  0  0  0  0  0  0  0  0
   -5.1034   -2.6057   -3.0108 H   0  0  0  0  0  0  0  0  0  0  0  0
   -3.6095   -1.6567   -2.9607 H   0  0  0  0  0  0  0  0  0  0  0  0
   -3.9148   -2.4910   -0.3866 H   0  0  0  0  0  0  0  0  0  0  0  0
   -5.7036   -4.9529   -0.8814 H   0  0  0  0  0  0  0  0  0  0  0  0
   -6.1081   -3.2985   -1.3351 H   0  0  0  0  0  0  0  0  0  0  0  0
   -7.0990   -3.3475    0.8231 H   0  0  0  0  0  0  0  0  0  0  0  0
   -5.1529   -2.5100    3.6372 H   0  0  0  0  0  0  0  0  0  0  0  0
   -6.8068   -2.9091    3.1602 H   0  0  0  0  0  0  0  0  0  0  0  0
   -6.1808   -5.1492    3.5531 H   0  0  0  0  0  0  0  0  0  0  0  0
   -3.2205   -3.2495    2.1837 H   0  0  0  0  0  0  0  0  0  0  0  0
   -3.6408   -4.9450    2.4070 H   0  0  0  0  0  0  0  0  0  0  0  0
   -3.4993   -5.4740    0.1337 H   0  0  0  0  0  0  0  0  0  0  0  0
  1  2  1  0  0  0  0
  1 28  1  0  0  0  0
  1 29  1  0  0  0  0
  1 30  1  0  0  0  0
  2  3  1  0  0  0  0
  2 31  1  0  0  0  0
  2 32  1  0  0  0  0
  3  4  1  0  0  0  0
  3 33  1  0  0  0  0
  3 34  1  0  0  0  0
  4  5  1  0  0  0  0
  4 35  1  0  0  0  0
  4 36  1  0  0  0  0
  5  6  1  0  0  0  0
  5 37  1  0  0  0  0
  5 38  1  0  0  0  0
  6  7  1  0  0  0  0
  6 39  1  0  0  0  0
  6 40  1  0  0  0  0
  7  8  1  0  0  0  0
  7  9  1  0  0  0  0
  7 10  1  0  0  0  0
  8 41  1  0  0  0  0
  8 42  1  0  0  0  0
  8 43  1  0  0  0  0
  9 44  1  0  0  0  0
  9 45  1  0  0  0  0
  9 46  1  0  0  0  0
 10 15  2  0  0  0  0
 10 11  1  0  0  0  0
 11 12  2  0  0  0  0
 11 47  1  0  0  0  0
 12 13  1  0  0  0  0
 12 48  1  0  0  0  0
 13 27  1  0  0  0  0
 13 14  2  0  0  0  0
 14 15  1  0  0  0  0
 14 16  1  0  0  0  0
 15 49  1  0  0  0  0
 16 17  1  0  0  0  0
 17 18  1  0  0  0  0
 17 19  1  0  0  0  0
 17 20  1  0  0  0  0
 18 50  1  0  0  0  0
 18 51  1  0  0  0  0
 18 52  1  0  0  0  0
 19 53  1  0  0  0  0
 19 54  1  0  0  0  0
 19 55  1  0  0  0  0
 20 21  1  0  0  0  0
 20 27  1  0  0  0  0
 20 56  1  1  0  0  0
 21 22  1  0  0  0  0
 21 57  1  0  0  0  0
 21 58  1  0  0  0  0
 22 23  2  0  0  0  0
 22 59  1  0  0  0  0
 23 24  1  0  0  0  0
 23 26  1  0  0  0  0
 24 25  1  0  0  0  0
 24 60  1  0  0  0  0
 24 61  1  0  0  0  0
 25 62  1  0  0  0  0
 26 63  1  0  0  0  0
 26 64  1  0  0  0  0
 27 26  1  0  0  0  0
 27 65  1  6  0  0  0
M  END
$$$$
CHEMBL4783200_5ZTY
 OpenBabel12022418143D

 53 53  0  0  0  0  0  0  0  0999 V2000
   -0.2215   -1.1362   -0.0555 C   0  0  0  0  0  0  0  0  0  0  0  0
   -1.0947   -0.0435   -0.1445 C   0  0  0  0  0  0  0  0  0  0  0  0
   -0.3140    1.1438   -0.0752 C   0  0  0  0  0  0  0  0  0  0  0  0
   -0.7837    2.5448   -0.0086 C   0  0  0  0  0  0  0  0  0  0  0  0
   -1.9734    2.8464    0.0325 O   0  0  0  0  0  0  0  0  0  0  0  0
    0.2152    3.5017    0.0187 N   0  0  0  0  0  0  0  0  0  0  0  0
   -0.0356    4.9609    0.0255 C   0  0  0  0  0  0  0  0  0  0  0  0
    1.3169    5.7003    0.0216 C   0  0  0  0  0  0  0  0  0  0  0  0
   -0.8103    5.3903   -1.2355 C   0  0  0  0  0  0  0  0  0  0  0  0
   -0.8373    5.3962    1.2851 C   0  0  0  0  0  0  0  0  0  0  0  0
   -0.1406    5.0606    2.4849 O   0  0  0  0  0  0  0  0  0  0  0  0
    0.9894    0.8312   -0.0481 N   0  0  0  0  0  0  0  0  0  0  0  0
    1.0350   -0.5279   -0.0675 N   0  0  0  0  0  0  0  0  0  0  0  0
    2.3841   -1.0638    0.0024 C   0  0  0  0  0  0  0  0  0  0  0  0
    3.0252   -1.4553   -1.3316 C   0  0  0  0  0  0  0  0  0  0  0  0
    3.2302   -0.3066   -2.3337 C   0  0  0  0  0  0  0  0  0  0  0  0
    3.9148   -0.8389   -3.6004 C   0  0  0  0  0  0  0  0  0  0  0  0
    4.1020    0.2144   -4.6812 C   0  0  0  0  0  0  0  0  0  0  0  0
   -2.7945   -0.0345   -0.2808 Cl  0  0  0  0  0  0  0  0  0  0  0  0
   -0.5661   -2.6578    0.0160 C   0  0  0  0  0  0  0  0  0  0  0  0
    0.4602   -3.5124    0.7809 C   0  0  0  0  0  0  0  0  0  0  0  0
   -1.9073   -2.9034    0.7638 C   0  0  0  0  0  0  0  0  0  0  0  0
   -0.7278   -3.2645   -1.3924 C   0  0  0  0  0  0  0  0  0  0  0  0
    1.1650    3.1366   -0.0493 H   0  0  0  0  0  0  0  0  0  0  0  0
    1.9061    5.4429   -0.8658 H   0  0  0  0  0  0  0  0  0  0  0  0
    1.9211    5.4468    0.8991 H   0  0  0  0  0  0  0  0  0  0  0  0
    1.1713    6.7878    0.0191 H   0  0  0  0  0  0  0  0  0  0  0  0
   -0.2750    5.0998   -2.1459 H   0  0  0  0  0  0  0  0  0  0  0  0
   -0.9530    6.4776   -1.2603 H   0  0  0  0  0  0  0  0  0  0  0  0
   -1.8059    4.9375   -1.2827 H   0  0  0  0  0  0  0  0  0  0  0  0
   -1.8282    4.9349    1.3315 H   0  0  0  0  0  0  0  0  0  0  0  0
   -0.9884    6.4820    1.2875 H   0  0  0  0  0  0  0  0  0  0  0  0
   -0.0729    4.0894    2.4886 H   0  0  0  0  0  0  0  0  0  0  0  0
    2.3912   -1.8978    0.7021 H   0  0  0  0  0  0  0  0  0  0  0  0
    3.0104   -0.3013    0.4855 H   0  0  0  0  0  0  0  0  0  0  0  0
    2.4381   -2.2481   -1.8059 H   0  0  0  0  0  0  0  0  0  0  0  0
    4.0117   -1.8830   -1.1070 H   0  0  0  0  0  0  0  0  0  0  0  0
    3.8471    0.4820   -1.8843 H   0  0  0  0  0  0  0  0  0  0  0  0
    2.2672    0.1433   -2.5994 H   0  0  0  0  0  0  0  0  0  0  0  0
    3.3197   -1.6603   -4.0159 H   0  0  0  0  0  0  0  0  0  0  0  0
    4.8963   -1.2530   -3.3400 H   0  0  0  0  0  0  0  0  0  0  0  0
    3.1424    0.6331   -4.9991 H   0  0  0  0  0  0  0  0  0  0  0  0
    4.5767   -0.2376   -5.5597 H   0  0  0  0  0  0  0  0  0  0  0  0
    4.7435    1.0313   -4.3374 H   0  0  0  0  0  0  0  0  0  0  0  0
    0.6425   -3.1180    1.7863 H   0  0  0  0  0  0  0  0  0  0  0  0
    1.4073   -3.6019    0.2445 H   0  0  0  0  0  0  0  0  0  0  0  0
    0.1027   -4.5448    0.8990 H   0  0  0  0  0  0  0  0  0  0  0  0
   -1.9164   -2.4189    1.7463 H   0  0  0  0  0  0  0  0  0  0  0  0
   -2.0901   -3.9743    0.9209 H   0  0  0  0  0  0  0  0  0  0  0  0
   -2.7737   -2.5606    0.1938 H   0  0  0  0  0  0  0  0  0  0  0  0
    0.2119   -3.2548   -1.9525 H   0  0  0  0  0  0  0  0  0  0  0  0
   -1.4822   -2.7337   -1.9829 H   0  0  0  0  0  0  0  0  0  0  0  0
   -1.0526   -4.3130   -1.3253 H   0  0  0  0  0  0  0  0  0  0  0  0
  1 13  1  0  0  0  0
  1  2  2  0  0  0  0
  1 20  1  0  0  0  0
  2  3  1  0  0  0  0
  2 19  1  0  0  0  0
  3  4  1  0  0  0  0
  3 12  2  0  0  0  0
  4  5  2  0  0  0  0
  4  6  1  0  0  0  0
  6  7  1  0  0  0  0
  6 24  1  0  0  0  0
  7  8  1  0  0  0  0
  7  9  1  0  0  0  0
  7 10  1  0  0  0  0
  8 25  1  0  0  0  0
  8 26  1  0  0  0  0
  8 27  1  0  0  0  0
  9 28  1  0  0  0  0
  9 29  1  0  0  0  0
  9 30  1  0  0  0  0
 10 11  1  0  0  0  0
 10 31  1  0  0  0  0
 10 32  1  0  0  0  0
 11 33  1  0  0  0  0
 12 13  1  0  0  0  0
 13 14  1  0  0  0  0
 14 15  1  0  0  0  0
 14 34  1  0  0  0  0
 14 35  1  0  0  0  0
 15 16  1  0  0  0  0
 15 36  1  0  0  0  0
 15 37  1  0  0  0  0
 16 17  1  0  0  0  0
 16 38  1  0  0  0  0
 16 39  1  0  0  0  0
 17 18  1  0  0  0  0
 17 40  1  0  0  0  0
 17 41  1  0  0  0  0
 18 42  1  0  0  0  0
 18 43  1  0  0  0  0
 18 44  1  0  0  0  0
 20 21  1  0  0  0  0
 20 22  1  0  0  0  0
 20 23  1  0  0  0  0
 21 45  1  0  0  0  0
 21 46  1  0  0  0  0
 21 47  1  0  0  0  0
 22 48  1  0  0  0  0
 22 49  1  0  0  0  0
 22 50  1  0  0  0  0
 23 51  1  0  0  0  0
 23 52  1  0  0  0  0
 23 53  1  0  0  0  0
M  END
$$$$
CHEMBL331838_8GUR
 OpenBabel12022418143D

 61 63  0  0  0  0  0  0  0  0999 V2000
    7.3490  -11.7318   -1.4920 C   0  0  0  0  0  0  0  0  0  0  0  0
    6.7650  -10.5281   -0.7689 C   0  0  0  0  0  0  0  0  0  0  0  0
    7.1931   -9.2336   -1.4488 C   0  0  0  0  0  0  0  0  0  0  0  0
    6.6207   -7.9997   -0.7492 C   0  0  0  0  0  0  0  0  0  0  0  0
    7.0800   -6.7446   -1.4875 C   0  0  0  0  0  0  0  0  0  0  0  0
    6.5423   -5.4545   -0.8564 C   0  0  0  0  0  0  0  0  0  0  0  0
    7.0250   -4.1527   -1.5768 C   0  0  0  0  0  0  0  0  0  0  0  0
    6.4700   -4.1246   -3.0246 C   0  0  0  0  0  0  0  0  0  0  0  0
    6.4022   -2.9348   -0.8548 C   0  0  0  0  0  0  0  0  0  0  0  0
    8.5570   -4.0638   -1.5250 C   0  0  0  0  0  0  0  0  0  0  0  0
    9.2492   -4.0519   -0.3060 C   0  0  0  0  0  0  0  0  0  0  0  0
   10.6515   -4.0483   -0.2656 C   0  0  0  0  0  0  0  0  0  0  0  0
   11.4282   -4.0462   -1.4370 C   0  0  0  0  0  0  0  0  0  0  0  0
   12.8980   -4.0418   -1.4513 C   0  0  0  0  0  0  0  0  0  0  0  0
   13.5562   -4.0433   -2.6905 C   0  0  0  0  0  0  0  0  0  0  0  0
   12.7482   -4.1005   -3.9881 C   0  0  0  0  0  0  0  0  0  0  0  0
   13.0191   -5.4292   -4.7165 C   0  0  0  0  0  0  0  0  0  0  0  0
   13.1065   -2.9105   -4.8955 C   0  0  0  0  0  0  0  0  0  0  0  0
   11.3168   -4.0282   -3.8757 O   0  0  0  0  0  0  0  0  0  0  0  0
   10.7354   -4.0426   -2.6443 C   0  0  0  0  0  0  0  0  0  0  0  0
    9.3379   -4.0504   -2.6870 C   0  0  0  0  0  0  0  0  0  0  0  0
   14.9651   -4.0297   -2.7378 C   0  0  0  0  0  0  0  0  0  0  0  0
   15.7254   -4.0151   -1.5718 C   0  0  0  0  0  0  0  0  0  0  0  0
   15.0918   -4.0294   -0.3277 C   0  0  0  0  0  0  0  0  0  0  0  0
   15.8907   -4.0723    0.9435 C   0  0  0  0  0  0  0  0  0  0  0  0
   15.5889   -2.9523    1.7631 O   0  0  0  0  0  0  0  0  0  0  0  0
   13.6861   -4.0414   -0.2851 C   0  0  0  0  0  0  0  0  0  0  0  0
    7.0385  -12.6565   -0.9986 H   0  0  0  0  0  0  0  0  0  0  0  0
    8.4417  -11.6959   -1.4917 H   0  0  0  0  0  0  0  0  0  0  0  0
    7.0077  -11.7683   -2.5301 H   0  0  0  0  0  0  0  0  0  0  0  0
    7.1012  -10.5310    0.2740 H   0  0  0  0  0  0  0  0  0  0  0  0
    5.6718  -10.6025   -0.7619 H   0  0  0  0  0  0  0  0  0  0  0  0
    6.8636   -9.2442   -2.4957 H   0  0  0  0  0  0  0  0  0  0  0  0
    8.2888   -9.1705   -1.4605 H   0  0  0  0  0  0  0  0  0  0  0  0
    6.9584   -7.9686    0.2933 H   0  0  0  0  0  0  0  0  0  0  0  0
    5.5256   -8.0481   -0.7403 H   0  0  0  0  0  0  0  0  0  0  0  0
    6.7472   -6.8196   -2.5274 H   0  0  0  0  0  0  0  0  0  0  0  0
    8.1757   -6.7303   -1.4991 H   0  0  0  0  0  0  0  0  0  0  0  0
    6.8391   -5.4325    0.2011 H   0  0  0  0  0  0  0  0  0  0  0  0
    5.4445   -5.4876   -0.8568 H   0  0  0  0  0  0  0  0  0  0  0  0
    5.3758   -4.1208   -3.0383 H   0  0  0  0  0  0  0  0  0  0  0  0
    6.8001   -4.9869   -3.6139 H   0  0  0  0  0  0  0  0  0  0  0  0
    6.8035   -3.2258   -3.5579 H   0  0  0  0  0  0  0  0  0  0  0  0
    5.3090   -2.9365   -0.9542 H   0  0  0  0  0  0  0  0  0  0  0  0
    6.7700   -1.9929   -1.2788 H   0  0  0  0  0  0  0  0  0  0  0  0
    6.6258   -2.9269    0.2171 H   0  0  0  0  0  0  0  0  0  0  0  0
    8.7073   -4.0658    0.6383 H   0  0  0  0  0  0  0  0  0  0  0  0
   11.1150   -4.0530    0.7178 H   0  0  0  0  0  0  0  0  0  0  0  0
   14.0809   -5.5918   -4.9263 H   0  0  0  0  0  0  0  0  0  0  0  0
   12.4739   -5.4746   -5.6669 H   0  0  0  0  0  0  0  0  0  0  0  0
   12.6590   -6.2753   -4.1177 H   0  0  0  0  0  0  0  0  0  0  0  0
   14.1739   -2.8469   -5.1256 H   0  0  0  0  0  0  0  0  0  0  0  0
   12.8040   -1.9678   -4.4225 H   0  0  0  0  0  0  0  0  0  0  0  0
   12.5608   -2.9649   -5.8455 H   0  0  0  0  0  0  0  0  0  0  0  0
    8.8839   -4.0677   -3.6749 H   0  0  0  0  0  0  0  0  0  0  0  0
   15.4890   -4.0405   -3.6896 H   0  0  0  0  0  0  0  0  0  0  0  0
   16.8084   -4.0075   -1.6429 H   0  0  0  0  0  0  0  0  0  0  0  0
   16.9674   -4.0626    0.7423 H   0  0  0  0  0  0  0  0  0  0  0  0
   15.6638   -4.9888    1.5000 H   0  0  0  0  0  0  0  0  0  0  0  0
   15.6719   -2.1630    1.2009 H   0  0  0  0  0  0  0  0  0  0  0  0
   13.2232   -4.0575    0.6996 H   0  0  0  0  0  0  0  0  0  0  0  0
  1  2  1  0  0  0  0
  1 28  1  0  0  0  0
  1 29  1  0  0  0  0
  1 30  1  0  0  0  0
  2  3  1  0  0  0  0
  2 31  1  0  0  0  0
  2 32  1  0  0  0  0
  3  4  1  0  0  0  0
  3 33  1  0  0  0  0
  3 34  1  0  0  0  0
  4  5  1  0  0  0  0
  4 35  1  0  0  0  0
  4 36  1  0  0  0  0
  5  6  1  0  0  0  0
  5 37  1  0  0  0  0
  5 38  1  0  0  0  0
  6  7  1  0  0  0  0
  6 39  1  0  0  0  0
  6 40  1  0  0  0  0
  7  8  1  0  0  0  0
  7  9  1  0  0  0  0
  7 10  1  0  0  0  0
  8 41  1  0  0  0  0
  8 42  1  0  0  0  0
  8 43  1  0  0  0  0
  9 44  1  0  0  0  0
  9 45  1  0  0  0  0
  9 46  1  0  0  0  0
 10 21  2  0  0  0  0
 10 11  1  0  0  0  0
 11 12  2  0  0  0  0
 11 47  1  0  0  0  0
 12 13  1  0  0  0  0
 12 48  1  0  0  0  0
 13 20  2  0  0  0  0
 13 14  1  0  0  0  0
 14 27  2  0  0  0  0
 14 15  1  0  0  0  0
 15 16  1  0  0  0  0
 15 22  2  0  0  0  0
 16 17  1  0  0  0  0
 16 18  1  0  0  0  0
 16 19  1  0  0  0  0
 17 49  1  0  0  0  0
 17 50  1  0  0  0  0
 17 51  1  0  0  0  0
 18 52  1  0  0  0  0
 18 53  1  0  0  0  0
 18 54  1  0  0  0  0
 19 20  1  0  0  0  0
 20 21  1  0  0  0  0
 21 55  1  0  0  0  0
 22 23  1  0  0  0  0
 22 56  1  0  0  0  0
 23 24  2  0  0  0  0
 23 57  1  0  0  0  0
 24 25  1  0  0  0  0
 24 27  1  0  0  0  0
 25 26  1  0  0  0  0
 25 58  1  0  0  0  0
 25 59  1  0  0  0  0
 26 60  1  0  0  0  0
 27 61  1  0  0  0  0
M  END
$$$$
CHEMBL4791274_5ZTY
 OpenBabel12022418143D

 55 55  0  0  0  0  0  0  0  0999 V2000
   -0.2536   -1.1501   -0.0673 C   0  0  0  0  0  0  0  0  0  0  0  0
   -1.1145   -0.0514   -0.1143 C   0  0  0  0  0  0  0  0  0  0  0  0
   -0.3286    1.1337   -0.0726 C   0  0  0  0  0  0  0  0  0  0  0  0
   -0.8048    2.5231   -0.0014 C   0  0  0  0  0  0  0  0  0  0  0  0
   -2.0086    2.7994    0.0210 O   0  0  0  0  0  0  0  0  0  0  0  0
    0.1804    3.4938    0.0520 N   0  0  0  0  0  0  0  0  0  0  0  0
   -0.0569    4.9545    0.0621 C   0  0  0  0  0  0  0  0  0  0  0  0
    1.3053    5.6756    0.0765 C   0  0  0  0  0  0  0  0  0  0  0  0
   -0.8121    5.3940   -1.2053 C   0  0  0  0  0  0  0  0  0  0  0  0
   -0.8722    5.3975    1.3087 C   0  0  0  0  0  0  0  0  0  0  0  0
   -0.1965    5.0654    2.5220 O   0  0  0  0  0  0  0  0  0  0  0  0
    0.9688    0.8269   -0.0714 N   0  0  0  0  0  0  0  0  0  0  0  0
    1.0074   -0.5359   -0.0930 N   0  0  0  0  0  0  0  0  0  0  0  0
    2.3598   -1.0629   -0.0374 C   0  0  0  0  0  0  0  0  0  0  0  0
    2.9926   -1.4217   -1.3820 C   0  0  0  0  0  0  0  0  0  0  0  0
    3.1727   -0.2574   -2.3738 C   0  0  0  0  0  0  0  0  0  0  0  0
    3.8474   -0.7802   -3.6494 C   0  0  0  0  0  0  0  0  0  0  0  0
    4.0131    0.2700   -4.7351 C   0  0  0  0  0  0  0  0  0  0  0  0
   -2.4583   -0.0335   -0.1514 N   0  0  0  0  0  0  0  0  0  0  0  0
   -0.5830   -2.6791    0.0103 C   0  0  0  0  0  0  0  0  0  0  0  0
    0.4527   -3.5170    0.7814 C   0  0  0  0  0  0  0  0  0  0  0  0
   -1.9233   -2.9355    0.7544 C   0  0  0  0  0  0  0  0  0  0  0  0
   -0.7395   -3.3127   -1.3872 C   0  0  0  0  0  0  0  0  0  0  0  0
    1.1288    3.1292   -0.0095 H   0  0  0  0  0  0  0  0  0  0  0  0
    1.9116    5.3947   -0.7928 H   0  0  0  0  0  0  0  0  0  0  0  0
    1.8874    5.4290    0.9715 H   0  0  0  0  0  0  0  0  0  0  0  0
    1.1761    6.7649    0.0527 H   0  0  0  0  0  0  0  0  0  0  0  0
   -0.2726    5.0964   -2.1111 H   0  0  0  0  0  0  0  0  0  0  0  0
   -0.9375    6.4834   -1.2311 H   0  0  0  0  0  0  0  0  0  0  0  0
   -1.8136    4.9554   -1.2596 H   0  0  0  0  0  0  0  0  0  0  0  0
   -1.8650    4.9397    1.3418 H   0  0  0  0  0  0  0  0  0  0  0  0
   -1.0170    6.4840    1.3052 H   0  0  0  0  0  0  0  0  0  0  0  0
   -0.1132    4.0944    2.5217 H   0  0  0  0  0  0  0  0  0  0  0  0
    2.3828   -1.9054    0.6497 H   0  0  0  0  0  0  0  0  0  0  0  0
    2.9826   -0.3017    0.4544 H   0  0  0  0  0  0  0  0  0  0  0  0
    2.4111   -2.2145   -1.8606 H   0  0  0  0  0  0  0  0  0  0  0  0
    3.9877   -1.8368   -1.1728 H   0  0  0  0  0  0  0  0  0  0  0  0
    3.7870    0.5344   -1.9265 H   0  0  0  0  0  0  0  0  0  0  0  0
    2.2025    0.1851   -2.6258 H   0  0  0  0  0  0  0  0  0  0  0  0
    3.2549   -1.6081   -4.0568 H   0  0  0  0  0  0  0  0  0  0  0  0
    4.8351   -1.1855   -3.3992 H   0  0  0  0  0  0  0  0  0  0  0  0
    3.0463    0.6753   -5.0482 H   0  0  0  0  0  0  0  0  0  0  0  0
    4.4858   -0.1828   -5.6147 H   0  0  0  0  0  0  0  0  0  0  0  0
    4.6486    1.0956   -4.4015 H   0  0  0  0  0  0  0  0  0  0  0  0
   -3.0736   -0.8308   -0.1213 H   0  0  0  0  0  0  0  0  0  0  0  0
   -2.9548    0.8601   -0.0925 H   0  0  0  0  0  0  0  0  0  0  0  0
    0.6226   -3.1230    1.7884 H   0  0  0  0  0  0  0  0  0  0  0  0
    1.4026   -3.5925    0.2490 H   0  0  0  0  0  0  0  0  0  0  0  0
    0.1129   -4.5567    0.8932 H   0  0  0  0  0  0  0  0  0  0  0  0
   -1.9590   -2.4207    1.7198 H   0  0  0  0  0  0  0  0  0  0  0  0
   -2.0794   -4.0052    0.9433 H   0  0  0  0  0  0  0  0  0  0  0  0
   -2.7899   -2.6418    0.1593 H   0  0  0  0  0  0  0  0  0  0  0  0
    0.1974   -3.3147   -1.9494 H   0  0  0  0  0  0  0  0  0  0  0  0
   -1.5027   -2.8045   -1.9876 H   0  0  0  0  0  0  0  0  0  0  0  0
   -1.0584   -4.3636   -1.2963 H   0  0  0  0  0  0  0  0  0  0  0  0
  1 13  1  0  0  0  0
  1  2  2  0  0  0  0
  1 20  1  0  0  0  0
  2  3  1  0  0  0  0
  2 19  1  0  0  0  0
  3  4  1  0  0  0  0
  3 12  2  0  0  0  0
  4  5  2  0  0  0  0
  4  6  1  0  0  0  0
  6  7  1  0  0  0  0
  6 24  1  0  0  0  0
  7  8  1  0  0  0  0
  7  9  1  0  0  0  0
  7 10  1  0  0  0  0
  8 25  1  0  0  0  0
  8 26  1  0  0  0  0
  8 27  1  0  0  0  0
  9 28  1  0  0  0  0
  9 29  1  0  0  0  0
  9 30  1  0  0  0  0
 10 11  1  0  0  0  0
 10 31  1  0  0  0  0
 10 32  1  0  0  0  0
 11 33  1  0  0  0  0
 12 13  1  0  0  0  0
 13 14  1  0  0  0  0
 14 15  1  0  0  0  0
 14 34  1  0  0  0  0
 14 35  1  0  0  0  0
 15 16  1  0  0  0  0
 15 36  1  0  0  0  0
 15 37  1  0  0  0  0
 16 17  1  0  0  0  0
 16 38  1  0  0  0  0
 16 39  1  0  0  0  0
 17 18  1  0  0  0  0
 17 40  1  0  0  0  0
 17 41  1  0  0  0  0
 18 42  1  0  0  0  0
 18 43  1  0  0  0  0
 18 44  1  0  0  0  0
 19 45  1  0  0  0  0
 19 46  1  0  0  0  0
 20 21  1  0  0  0  0
 20 22  1  0  0  0  0
 20 23  1  0  0  0  0
 21 47  1  0  0  0  0
 21 48  1  0  0  0  0
 21 49  1  0  0  0  0
 22 50  1  0  0  0  0
 22 51  1  0  0  0  0
 22 52  1  0  0  0  0
 23 53  1  0  0  0  0
 23 54  1  0  0  0  0
 23 55  1  0  0  0  0
M  END
$$$$
CHEMBL2181544_8GUR
 OpenBabel12022418143D

 57 60  0  0  0  0  0  0  0  0999 V2000
    1.5668    0.9045    0.8658 C   0  0  0  0  0  0  0  0  0  0  0  0
    2.9040    0.4455    0.3046 C   0  0  0  0  0  0  0  0  0  0  0  0
    3.3019   -0.9127    0.8827 C   0  0  0  0  0  0  0  0  0  0  0  0
    4.6670   -1.3771    0.3552 C   0  0  0  0  0  0  0  0  0  0  0  0
    5.1360   -2.7436    0.9395 C   0  0  0  0  0  0  0  0  0  0  0  0
    5.2420   -2.6601    2.4738 C   0  0  0  0  0  0  0  0  0  0  0  0
    6.1021   -1.7093    3.0634 C   0  0  0  0  0  0  0  0  0  0  0  0
    6.1874   -1.5659    4.4541 C   0  0  0  0  0  0  0  0  0  0  0  0
    5.4345   -2.3775    5.3030 C   0  0  0  0  0  0  0  0  0  0  0  0
    5.4594   -2.2622    6.7534 C   0  0  0  0  0  0  0  0  0  0  0  0
    4.6732   -3.0305    7.5214 C   0  0  0  0  0  0  0  0  0  0  0  0
    4.5636   -2.8490    9.0111 C   0  0  0  0  0  0  0  0  0  0  0  0
    5.4855   -3.7151    9.8371 C   0  0  0  0  0  0  0  0  0  0  0  0
    6.7169   -3.1730   10.2555 C   0  0  0  0  0  0  0  0  0  0  0  0
    7.5625   -3.8777   11.1153 C   0  0  0  0  0  0  0  0  0  0  0  0
    7.2030   -5.1473   11.5548 C   0  0  0  0  0  0  0  0  0  0  0  0
    6.0055   -5.7132   11.1225 C   0  0  0  0  0  0  0  0  0  0  0  0
    5.1548   -5.0048   10.2712 C   0  0  0  0  0  0  0  0  0  0  0  0
    3.9923   -5.6440    9.9476 O   0  0  0  0  0  0  0  0  0  0  0  0
    3.7652   -4.0275    6.9084 C   0  0  0  0  0  0  0  0  0  0  0  0
    3.0319   -4.7228    7.6077 O   0  0  0  0  0  0  0  0  0  0  0  0
    3.7707   -4.1366    5.5248 O   0  0  0  0  0  0  0  0  0  0  0  0
    4.5849   -3.3104    4.7243 C   0  0  0  0  0  0  0  0  0  0  0  0
    4.4742   -3.4558    3.3407 C   0  0  0  0  0  0  0  0  0  0  0  0
    6.9960   -0.6010    4.9915 O   0  0  0  0  0  0  0  0  0  0  0  0
    4.2611   -3.8922    0.3821 C   0  0  0  0  0  0  0  0  0  0  0  0
    5.1143   -5.1496    0.5261 C   0  0  0  0  0  0  0  0  0  0  0  0
    6.5592   -4.6754    0.4068 C   0  0  0  0  0  0  0  0  0  0  0  0
    6.5040   -3.1482    0.3300 C   0  0  0  0  0  0  0  0  0  0  0  0
    1.2876    1.8742    0.4429 H   0  0  0  0  0  0  0  0  0  0  0  0
    1.6157    1.0102    1.9547 H   0  0  0  0  0  0  0  0  0  0  0  0
    0.7752    0.1871    0.6273 H   0  0  0  0  0  0  0  0  0  0  0  0
    3.6692    1.1932    0.5444 H   0  0  0  0  0  0  0  0  0  0  0  0
    2.8385    0.3840   -0.7876 H   0  0  0  0  0  0  0  0  0  0  0  0
    2.5339   -1.6530    0.6311 H   0  0  0  0  0  0  0  0  0  0  0  0
    3.3265   -0.8303    1.9749 H   0  0  0  0  0  0  0  0  0  0  0  0
    5.4143   -0.6011    0.5617 H   0  0  0  0  0  0  0  0  0  0  0  0
    4.6118   -1.4466   -0.7398 H   0  0  0  0  0  0  0  0  0  0  0  0
    6.7001   -1.0621    2.4266 H   0  0  0  0  0  0  0  0  0  0  0  0
    6.1125   -1.5101    7.1864 H   0  0  0  0  0  0  0  0  0  0  0  0
    3.5290   -2.9879    9.3492 H   0  0  0  0  0  0  0  0  0  0  0  0
    4.7663   -1.7963    9.2554 H   0  0  0  0  0  0  0  0  0  0  0  0
    7.0140   -2.1753    9.9378 H   0  0  0  0  0  0  0  0  0  0  0  0
    8.4925   -3.4284   11.4540 H   0  0  0  0  0  0  0  0  0  0  0  0
    7.8479   -5.6945   12.2368 H   0  0  0  0  0  0  0  0  0  0  0  0
    5.7231   -6.7073   11.4597 H   0  0  0  0  0  0  0  0  0  0  0  0
    3.5525   -5.2245    9.1806 H   0  0  0  0  0  0  0  0  0  0  0  0
    3.7650   -4.1929    2.9685 H   0  0  0  0  0  0  0  0  0  0  0  0
    7.3574   -0.0577    4.2717 H   0  0  0  0  0  0  0  0  0  0  0  0
    4.0676   -3.7329   -0.6877 H   0  0  0  0  0  0  0  0  0  0  0  0
    3.2834   -3.9937    0.8616 H   0  0  0  0  0  0  0  0  0  0  0  0
    4.8625   -5.8970   -0.2324 H   0  0  0  0  0  0  0  0  0  0  0  0
    4.9584   -5.6208    1.5028 H   0  0  0  0  0  0  0  0  0  0  0  0
    7.0431   -5.0915   -0.4832 H   0  0  0  0  0  0  0  0  0  0  0  0
    7.1383   -5.0023    1.2776 H   0  0  0  0  0  0  0  0  0  0  0  0
    7.3717   -2.6970    0.8212 H   0  0  0  0  0  0  0  0  0  0  0  0
    6.5514   -2.8534   -0.7267 H   0  0  0  0  0  0  0  0  0  0  0  0
  1  2  1  0  0  0  0
  1 30  1  0  0  0  0
  1 31  1  0  0  0  0
  1 32  1  0  0  0  0
  2  3  1  0  0  0  0
  2 33  1  0  0  0  0
  2 34  1  0  0  0  0
  3  4  1  0  0  0  0
  3 35  1  0  0  0  0
  3 36  1  0  0  0  0
  4  5  1  0  0  0  0
  4 37  1  0  0  0  0
  4 38  1  0  0  0  0
  5 29  1  0  0  0  0
  5  6  1  0  0  0  0
  5 26  1  0  0  0  0
  6 24  2  0  0  0  0
  6  7  1  0  0  0  0
  7  8  2  0  0  0  0
  7 39  1  0  0  0  0
  8  9  1  0  0  0  0
  8 25  1  0  0  0  0
  9 23  2  0  0  0  0
  9 10  1  0  0  0  0
 10 11  2  0  0  0  0
 10 40  1  0  0  0  0
 11 12  1  0  0  0  0
 11 20  1  0  0  0  0
 12 13  1  0  0  0  0
 12 41  1  0  0  0  0
 12 42  1  0  0  0  0
 13 18  2  0  0  0  0
 13 14  1  0  0  0  0
 14 15  2  0  0  0  0
 14 43  1  0  0  0  0
 15 16  1  0  0  0  0
 15 44  1  0  0  0  0
 16 17  2  0  0  0  0
 16 45  1  0  0  0  0
 17 18  1  0  0  0  0
 17 46  1  0  0  0  0
 18 19  1  0  0  0  0
 19 47  1  0  0  0  0
 20 21  2  0  0  0  0
 20 22  1  0  0  0  0
 22 23  1  0  0  0  0
 23 24  1  0  0  0  0
 24 48  1  0  0  0  0
 25 49  1  0  0  0  0
 26 27  1  0  0  0  0
 26 50  1  0  0  0  0
 26 51  1  0  0  0  0
 27 28  1  0  0  0  0
 27 52  1  0  0  0  0
 27 53  1  0  0  0  0
 28 29  1  0  0  0  0
 28 54  1  0  0  0  0
 28 55  1  0  0  0  0
 29 56  1  0  0  0  0
 29 57  1  0  0  0  0
M  END
$$$$
CHEMBL3911641_8GUQ
 OpenBabel12022418143D

 42 43  0  0  1  0  0  0  0  0999 V2000
    3.1097    1.3880   -0.7078 C   0  0  0  0  0  0  0  0  0  0  0  0
    2.5976    0.1499    0.0230 C   0  0  0  0  0  0  0  0  0  0  0  0
    3.0692    0.0034    1.4983 C   0  0  1  0  0  0  0  0  0  0  0  0
    2.5890    1.2306    2.3052 C   0  0  0  0  0  0  0  0  0  0  0  0
    2.4417   -1.2950    2.0904 C   0  0  0  0  0  0  0  0  0  0  0  0
    1.0168   -1.2855    2.0553 O   0  0  0  0  0  0  0  0  0  0  0  0
    4.5413   -0.1071    1.5339 N   0  0  0  0  0  0  0  0  0  0  0  0
    5.2693   -0.2035    2.7030 C   0  0  0  0  0  0  0  0  0  0  0  0
    4.7818   -0.1274    3.8240 O   0  0  0  0  0  0  0  0  0  0  0  0
    6.7381   -0.3773    2.5423 C   0  0  0  0  0  0  0  0  0  0  0  0
    7.5442   -0.0023    3.6088 C   0  0  0  0  0  0  0  0  0  0  0  0
    8.9266   -0.0981    3.4761 C   0  0  0  0  0  0  0  0  0  0  0  0
    9.4444   -0.6692    2.3111 C   0  0  0  0  0  0  0  0  0  0  0  0
    8.5548   -1.0261    1.2985 C   0  0  0  0  0  0  0  0  0  0  0  0
    7.2069   -0.8648    1.3653 N   0  0  0  0  0  0  0  0  0  0  0  0
   11.1310   -0.9328    2.0871 Cl  0  0  0  0  0  0  0  0  0  0  0  0
    9.8035    0.3506    4.4365 O   0  0  0  0  0  0  0  0  0  0  0  0
    9.2504    1.2827    5.3745 C   0  0  0  0  0  0  0  0  0  0  0  0
   10.3500    1.9823    6.1077 C   0  0  0  0  0  0  0  0  0  0  0  0
   10.7822    3.3739    5.7180 C   0  0  0  0  0  0  0  0  0  0  0  0
    9.9999    3.1605    6.9835 C   0  0  0  0  0  0  0  0  0  0  0  0
    2.7840    1.3605   -1.7529 H   0  0  0  0  0  0  0  0  0  0  0  0
    4.2021    1.4410   -0.7009 H   0  0  0  0  0  0  0  0  0  0  0  0
    2.7133    2.3086   -0.2693 H   0  0  0  0  0  0  0  0  0  0  0  0
    2.9122   -0.7341   -0.5457 H   0  0  0  0  0  0  0  0  0  0  0  0
    1.5008    0.1720   -0.0158 H   0  0  0  0  0  0  0  0  0  0  0  0
    1.5106    1.3860    2.1962 H   0  0  0  0  0  0  0  0  0  0  0  0
    3.0970    2.1471    1.9859 H   0  0  0  0  0  0  0  0  0  0  0  0
    2.7850    1.1226    3.3771 H   0  0  0  0  0  0  0  0  0  0  0  0
    2.7495   -1.4648    3.1276 H   0  0  0  0  0  0  0  0  0  0  0  0
    2.7798   -2.1656    1.5163 H   0  0  0  0  0  0  0  0  0  0  0  0
    0.7208   -0.7378    2.8032 H   0  0  0  0  0  0  0  0  0  0  0  0
    5.0520   -0.3023    0.6758 H   0  0  0  0  0  0  0  0  0  0  0  0
    7.0698    0.3710    4.5067 H   0  0  0  0  0  0  0  0  0  0  0  0
    8.9172   -1.4631    0.3705 H   0  0  0  0  0  0  0  0  0  0  0  0
    8.6366    0.7398    6.1025 H   0  0  0  0  0  0  0  0  0  0  0  0
    8.6349    2.0301    4.8562 H   0  0  0  0  0  0  0  0  0  0  0  0
   11.1000    1.2925    6.4762 H   0  0  0  0  0  0  0  0  0  0  0  0
   10.2833    3.8647    4.8898 H   0  0  0  0  0  0  0  0  0  0  0  0
   11.8325    3.6250    5.8100 H   0  0  0  0  0  0  0  0  0  0  0  0
   10.5192    3.2623    7.9300 H   0  0  0  0  0  0  0  0  0  0  0  0
    8.9715    3.5059    7.0075 H   0  0  0  0  0  0  0  0  0  0  0  0
  1  2  1  0  0  0  0
  1 22  1  0  0  0  0
  1 23  1  0  0  0  0
  1 24  1  0  0  0  0
  2 25  1  0  0  0  0
  2 26  1  0  0  0  0
  3  2  1  6  0  0  0
  3  4  1  0  0  0  0
  3  5  1  0  0  0  0
  3  7  1  0  0  0  0
  4 27  1  0  0  0  0
  4 28  1  0  0  0  0
  4 29  1  0  0  0  0
  5  6  1  0  0  0  0
  5 30  1  0  0  0  0
  5 31  1  0  0  0  0
  6 32  1  0  0  0  0
  7  8  1  0  0  0  0
  7 33  1  0  0  0  0
  8  9  2  0  0  0  0
  8 10  1  0  0  0  0
 10 15  2  0  0  0  0
 10 11  1  0  0  0  0
 11 12  2  0  0  0  0
 11 34  1  0  0  0  0
 12 13  1  0  0  0  0
 12 17  1  0  0  0  0
 13 14  2  0  0  0  0
 13 16  1  0  0  0  0
 14 15  1  0  0  0  0
 14 35  1  0  0  0  0
 17 18  1  0  0  0  0
 18 19  1  0  0  0  0
 18 36  1  0  0  0  0
 18 37  1  0  0  0  0
 19 21  1  0  0  0  0
 19 20  1  0  0  0  0
 19 38  1  0  0  0  0
 20 21  1  0  0  0  0
 20 39  1  0  0  0  0
 20 40  1  0  0  0  0
 21 41  1  0  0  0  0
 21 42  1  0  0  0  0
M  END
$$$$
CHEMBL3669057_8GUS
 OpenBabel12022418143D

 51 53  0  0  0  0  0  0  0  0999 V2000
    2.9711    1.3087    3.4771 C   0  0  0  0  0  0  0  0  0  0  0  0
    3.4764    0.7468    2.1372 C   0  0  0  0  0  0  0  0  0  0  0  0
    2.6586   -0.5001    1.7763 C   0  0  0  0  0  0  0  0  0  0  0  0
    3.4701    1.7581    0.9967 C   0  0  0  0  0  0  0  0  0  0  0  0
    4.4278    1.6910   -0.0319 C   0  0  0  0  0  0  0  0  0  0  0  0
    4.4498    2.6199   -1.0683 C   0  0  0  0  0  0  0  0  0  0  0  0
    3.5105    3.6551   -1.1049 C   0  0  0  0  0  0  0  0  0  0  0  0
    2.5386    3.7644   -0.0956 C   0  0  0  0  0  0  0  0  0  0  0  0
    2.5280    2.8009    0.9265 C   0  0  0  0  0  0  0  0  0  0  0  0
    1.5529    4.8626   -0.0908 C   0  0  0  0  0  0  0  0  0  0  0  0
    0.6658    4.8770    0.9073 N   0  0  0  0  0  0  0  0  0  0  0  0
   -0.2433    5.8374    0.8681 C   0  0  0  0  0  0  0  0  0  0  0  0
   -0.2864    6.7703   -0.0695 N   0  0  0  0  0  0  0  0  0  0  0  0
    0.6566    6.6784   -1.0053 C   0  0  0  0  0  0  0  0  0  0  0  0
    1.6031    5.7528   -1.0715 N   0  0  0  0  0  0  0  0  0  0  0  0
    0.5866    7.6408   -1.9924 O   0  0  0  0  0  0  0  0  0  0  0  0
    1.5824    7.4903   -2.9985 C   0  0  0  0  0  0  0  0  0  0  0  0
   -1.2551    5.8477    1.8154 N   0  0  0  0  0  0  0  0  0  0  0  0
   -0.9163    5.3468    3.1418 C   0  0  0  0  0  0  0  0  0  0  0  0
   -2.1054    5.5162    4.0944 C   0  0  0  0  0  0  0  0  0  0  0  0
   -1.8326    4.9610    5.4739 C   0  0  0  0  0  0  0  0  0  0  0  0
   -2.1595    3.6306    5.7801 C   0  0  0  0  0  0  0  0  0  0  0  0
   -1.9637    3.1341    7.0696 C   0  0  0  0  0  0  0  0  0  0  0  0
   -1.4248    3.9599    8.0494 C   0  0  0  0  0  0  0  0  0  0  0  0
   -1.0587    5.2682    7.7564 C   0  0  0  0  0  0  0  0  0  0  0  0
   -1.2586    5.7690    6.4684 C   0  0  0  0  0  0  0  0  0  0  0  0
   -1.2610    3.4903    9.2927 F   0  0  0  0  0  0  0  0  0  0  0  0
    4.8354    0.3398    2.3453 O   0  0  0  0  0  0  0  0  0  0  0  0
    1.9174    1.6040    3.4408 H   0  0  0  0  0  0  0  0  0  0  0  0
    3.5664    2.1737    3.7906 H   0  0  0  0  0  0  0  0  0  0  0  0
    3.0692    0.5598    4.2723 H   0  0  0  0  0  0  0  0  0  0  0  0
    1.6082   -0.2594    1.5790 H   0  0  0  0  0  0  0  0  0  0  0  0
    2.6913   -1.2302    2.5947 H   0  0  0  0  0  0  0  0  0  0  0  0
    3.0684   -1.0092    0.8968 H   0  0  0  0  0  0  0  0  0  0  0  0
    5.1851    0.9097   -0.0133 H   0  0  0  0  0  0  0  0  0  0  0  0
    5.2111    2.5547   -1.8435 H   0  0  0  0  0  0  0  0  0  0  0  0
    3.5526    4.3733   -1.9185 H   0  0  0  0  0  0  0  0  0  0  0  0
    1.7668    2.8776    1.7009 H   0  0  0  0  0  0  0  0  0  0  0  0
    1.4113    8.2584   -3.7594 H   0  0  0  0  0  0  0  0  0  0  0  0
    1.5138    6.5158   -3.4969 H   0  0  0  0  0  0  0  0  0  0  0  0
    2.5863    7.6478   -2.5878 H   0  0  0  0  0  0  0  0  0  0  0  0
   -1.7789    6.7106    1.7425 H   0  0  0  0  0  0  0  0  0  0  0  0
   -0.0411    5.8684    3.5525 H   0  0  0  0  0  0  0  0  0  0  0  0
   -0.6672    4.2805    3.0774 H   0  0  0  0  0  0  0  0  0  0  0  0
   -2.9929    5.0239    3.6751 H   0  0  0  0  0  0  0  0  0  0  0  0
   -2.3775    6.5769    4.1811 H   0  0  0  0  0  0  0  0  0  0  0  0
   -2.5850    2.9784    5.0201 H   0  0  0  0  0  0  0  0  0  0  0  0
   -2.2396    2.1150    7.3213 H   0  0  0  0  0  0  0  0  0  0  0  0
   -0.6328    5.8921    8.5361 H   0  0  0  0  0  0  0  0  0  0  0  0
   -0.9793    6.7979    6.2519 H   0  0  0  0  0  0  0  0  0  0  0  0
    4.8511   -0.2628    3.1003 H   0  0  0  0  0  0  0  0  0  0  0  0
  1  2  1  0  0  0  0
  1 29  1  0  0  0  0
  1 30  1  0  0  0  0
  1 31  1  0  0  0  0
  2  3  1  0  0  0  0
  2  4  1  0  0  0  0
  2 28  1  0  0  0  0
  3 32  1  0  0  0  0
  3 33  1  0  0  0  0
  3 34  1  0  0  0  0
  4  9  2  0  0  0  0
  4  5  1  0  0  0  0
  5  6  2  0  0  0  0
  5 35  1  0  0  0  0
  6  7  1  0  0  0  0
  6 36  1  0  0  0  0
  7  8  2  0  0  0  0
  7 37  1  0  0  0  0
  8  9  1  0  0  0  0
  8 10  1  0  0  0  0
  9 38  1  0  0  0  0
 10 15  2  0  0  0  0
 10 11  1  0  0  0  0
 11 12  2  0  0  0  0
 12 13  1  0  0  0  0
 12 18  1  0  0  0  0
 13 14  2  0  0  0  0
 14 15  1  0  0  0  0
 14 16  1  0  0  0  0
 16 17  1  0  0  0  0
 17 39  1  0  0  0  0
 17 40  1  0  0  0  0
 17 41  1  0  0  0  0
 18 19  1  0  0  0  0
 18 42  1  0  0  0  0
 19 20  1  0  0  0  0
 19 43  1  0  0  0  0
 19 44  1  0  0  0  0
 20 21  1  0  0  0  0
 20 45  1  0  0  0  0
 20 46  1  0  0  0  0
 21 26  2  0  0  0  0
 21 22  1  0  0  0  0
 22 23  2  0  0  0  0
 22 47  1  0  0  0  0
 23 24  1  0  0  0  0
 23 48  1  0  0  0  0
 24 25  2  0  0  0  0
 24 27  1  0  0  0  0
 25 26  1  0  0  0  0
 25 49  1  0  0  0  0
 26 50  1  0  0  0  0
 28 51  1  0  0  0  0
M  END
$$$$
CHEMBL3669102_8GUT
 OpenBabel12022418143D

 55 57  0  0  0  0  0  0  0  0999 V2000
    1.1624   -0.3791    0.4740 C   0  0  0  0  0  0  0  0  0  0  0  0
    2.5207   -0.1834    0.1009 O   0  0  0  0  0  0  0  0  0  0  0  0
    3.1430    0.7415    0.9103 C   0  0  0  0  0  0  0  0  0  0  0  0
    2.7246    0.8945    2.1629 N   0  0  0  0  0  0  0  0  0  0  0  0
    3.3850    1.8018    2.8670 C   0  0  0  0  0  0  0  0  0  0  0  0
    3.0033    2.1097    4.1610 N   0  0  0  0  0  0  0  0  0  0  0  0
    2.3406    1.0614    4.9220 C   0  0  0  0  0  0  0  0  0  0  0  0
    2.0068    1.5807    6.3272 C   0  0  0  0  0  0  0  0  0  0  0  0
    1.2891    0.5581    7.1756 C   0  0  0  0  0  0  0  0  0  0  0  0
   -0.1081    0.5000    7.1857 C   0  0  0  0  0  0  0  0  0  0  0  0
   -0.7707   -0.4398    7.9784 C   0  0  0  0  0  0  0  0  0  0  0  0
   -0.0504   -1.3488    8.7541 C   0  0  0  0  0  0  0  0  0  0  0  0
    1.3425   -1.2876    8.7641 C   0  0  0  0  0  0  0  0  0  0  0  0
    2.0091   -0.3443    7.9703 C   0  0  0  0  0  0  0  0  0  0  0  0
   -0.8113   -2.2176    9.4838 O   0  0  0  0  0  0  0  0  0  0  0  0
   -0.2124   -3.4734    9.7535 C   0  0  0  0  0  0  0  0  0  0  0  0
    0.5150   -3.3760   10.8934 F   0  0  0  0  0  0  0  0  0  0  0  0
   -1.2158   -4.3526   10.0049 F   0  0  0  0  0  0  0  0  0  0  0  0
    4.3999    2.5050    2.3933 N   0  0  0  0  0  0  0  0  0  0  0  0
    4.7250    2.2878    1.1142 C   0  0  0  0  0  0  0  0  0  0  0  0
    5.7661    3.1533    0.5240 C   0  0  0  0  0  0  0  0  0  0  0  0
    6.1767    3.0228   -0.8132 C   0  0  0  0  0  0  0  0  0  0  0  0
    7.1413    3.8760   -1.3557 C   0  0  0  0  0  0  0  0  0  0  0  0
    7.7237    4.8580   -0.5608 C   0  0  0  0  0  0  0  0  0  0  0  0
    7.3687    5.0249    0.7826 C   0  0  0  0  0  0  0  0  0  0  0  0
    8.0407    6.0741    1.6582 C   0  0  0  0  0  0  0  0  0  0  0  0
    9.5510    5.8257    1.7600 C   0  0  0  0  0  0  0  0  0  0  0  0
    7.7510    7.4944    1.1651 C   0  0  0  0  0  0  0  0  0  0  0  0
    7.5281    6.0154    3.0002 O   0  0  0  0  0  0  0  0  0  0  0  0
    6.3726    4.1723    1.2928 C   0  0  0  0  0  0  0  0  0  0  0  0
    8.6480    5.6536   -1.1179 F   0  0  0  0  0  0  0  0  0  0  0  0
    4.1402    1.3921    0.3296 N   0  0  0  0  0  0  0  0  0  0  0  0
    0.7008   -1.0285   -0.2747 H   0  0  0  0  0  0  0  0  0  0  0  0
    0.6122    0.5695    0.4788 H   0  0  0  0  0  0  0  0  0  0  0  0
    1.0852   -0.8807    1.4438 H   0  0  0  0  0  0  0  0  0  0  0  0
    3.7805    2.5823    4.6091 H   0  0  0  0  0  0  0  0  0  0  0  0
    2.9876    0.1785    4.9949 H   0  0  0  0  0  0  0  0  0  0  0  0
    1.4125    0.7598    4.4206 H   0  0  0  0  0  0  0  0  0  0  0  0
    1.3919    2.4876    6.2537 H   0  0  0  0  0  0  0  0  0  0  0  0
    2.9259    1.8953    6.8389 H   0  0  0  0  0  0  0  0  0  0  0  0
   -0.6958    1.1920    6.5858 H   0  0  0  0  0  0  0  0  0  0  0  0
   -1.8587   -0.4649    7.9873 H   0  0  0  0  0  0  0  0  0  0  0  0
    1.9379   -1.9398    9.3984 H   0  0  0  0  0  0  0  0  0  0  0  0
    3.0959   -0.3079    7.9956 H   0  0  0  0  0  0  0  0  0  0  0  0
    0.4007   -3.8674    8.9351 H   0  0  0  0  0  0  0  0  0  0  0  0
    5.7367    2.2566   -1.4527 H   0  0  0  0  0  0  0  0  0  0  0  0
    7.4426    3.7794   -2.3954 H   0  0  0  0  0  0  0  0  0  0  0  0
   10.0617    5.9337    0.7987 H   0  0  0  0  0  0  0  0  0  0  0  0
    9.7528    4.8153    2.1373 H   0  0  0  0  0  0  0  0  0  0  0  0
   10.0116    6.5198    2.4722 H   0  0  0  0  0  0  0  0  0  0  0  0
    8.1547    7.6833    0.1662 H   0  0  0  0  0  0  0  0  0  0  0  0
    8.1787    8.2360    1.8506 H   0  0  0  0  0  0  0  0  0  0  0  0
    6.6713    7.6861    1.1383 H   0  0  0  0  0  0  0  0  0  0  0  0
    7.8292    5.1765    3.3884 H   0  0  0  0  0  0  0  0  0  0  0  0
    6.0380    4.3068    2.3211 H   0  0  0  0  0  0  0  0  0  0  0  0
  1  2  1  0  0  0  0
  1 33  1  0  0  0  0
  1 34  1  0  0  0  0
  1 35  1  0  0  0  0
  2  3  1  0  0  0  0
  3 32  2  0  0  0  0
  3  4  1  0  0  0  0
  4  5  2  0  0  0  0
  5  6  1  0  0  0  0
  5 19  1  0  0  0  0
  6  7  1  0  0  0  0
  6 36  1  0  0  0  0
  7  8  1  0  0  0  0
  7 37  1  0  0  0  0
  7 38  1  0  0  0  0
  8  9  1  0  0  0  0
  8 39  1  0  0  0  0
  8 40  1  0  0  0  0
  9 14  2  0  0  0  0
  9 10  1  0  0  0  0
 10 11  2  0  0  0  0
 10 41  1  0  0  0  0
 11 12  1  0  0  0  0
 11 42  1  0  0  0  0
 12 13  2  0  0  0  0
 12 15  1  0  0  0  0
 13 14  1  0  0  0  0
 13 43  1  0  0  0  0
 14 44  1  0  0  0  0
 15 16  1  0  0  0  0
 16 17  1  0  0  0  0
 16 18  1  0  0  0  0
 16 45  1  0  0  0  0
 19 20  2  0  0  0  0
 20 21  1  0  0  0  0
 20 32  1  0  0  0  0
 21 30  2  0  0  0  0
 21 22  1  0  0  0  0
 22 23  2  0  0  0  0
 22 46  1  0  0  0  0
 23 24  1  0  0  0  0
 23 47  1  0  0  0  0
 24 25  2  0  0  0  0
 24 31  1  0  0  0  0
 25 26  1  0  0  0  0
 25 30  1  0  0  0  0
 26 27  1  0  0  0  0
 26 28  1  0  0  0  0
 26 29  1  0  0  0  0
 27 48  1  0  0  0  0
 27 49  1  0  0  0  0
 27 50  1  0  0  0  0
 28 51  1  0  0  0  0
 28 52  1  0  0  0  0
 28 53  1  0  0  0  0
 29 54  1  0  0  0  0
 30 55  1  0  0  0  0
M  END
$$$$
CHEMBL3950558_5ZTY
 OpenBabel12022418143D

 48 50  0  0  0  0  0  0  0  0999 V2000
    6.0090   -0.2695   -2.1721 C   0  0  0  0  0  0  0  0  0  0  0  0
    4.9483   -0.1495   -1.0593 C   0  0  0  0  0  0  0  0  0  0  0  0
    3.5675   -0.1027   -1.7417 C   0  0  0  0  0  0  0  0  0  0  0  0
    5.0621   -1.3886   -0.1275 C   0  0  0  0  0  0  0  0  0  0  0  0
    4.8404   -2.6167   -0.8188 O   0  0  0  0  0  0  0  0  0  0  0  0
    5.1868    1.0959   -0.3066 N   0  0  0  0  0  0  0  0  0  0  0  0
    4.4266    1.5269    0.7671 C   0  0  0  0  0  0  0  0  0  0  0  0
    3.4600    0.9133    1.2141 O   0  0  0  0  0  0  0  0  0  0  0  0
    4.8624    2.8153    1.3888 C   0  0  0  0  0  0  0  0  0  0  0  0
    4.1830    3.3403    2.4688 C   0  0  0  0  0  0  0  0  0  0  0  0
    4.6453    4.5399    3.0127 C   0  0  0  0  0  0  0  0  0  0  0  0
    5.7727    5.2000    2.4915 C   0  0  0  0  0  0  0  0  0  0  0  0
    6.4056    4.5556    1.4097 C   0  0  0  0  0  0  0  0  0  0  0  0
    7.5614    5.0870    0.8541 O   0  0  0  0  0  0  0  0  0  0  0  0
    8.2739    4.0813    0.1102 C   0  0  0  0  0  0  0  0  0  0  0  0
    9.4570    4.6677   -0.5975 C   0  0  0  0  0  0  0  0  0  0  0  0
    9.8122    4.1539   -1.9770 C   0  0  0  0  0  0  0  0  0  0  0  0
    9.2815    5.5487   -1.8046 C   0  0  0  0  0  0  0  0  0  0  0  0
    5.9571    3.3959    0.8519 N   0  0  0  0  0  0  0  0  0  0  0  0
    6.1785    6.4061    3.0923 N   0  0  0  0  0  0  0  0  0  0  0  0
    5.4736    7.2573    4.0096 C   0  0  0  0  0  0  0  0  0  0  0  0
    6.2282    8.4569    3.4214 C   0  0  0  0  0  0  0  0  0  0  0  0
    7.1192    7.4162    2.7251 C   0  0  0  0  0  0  0  0  0  0  0  0
    6.8285    9.2778    4.3157 F   0  0  0  0  0  0  0  0  0  0  0  0
    5.5003    9.2540    2.5985 F   0  0  0  0  0  0  0  0  0  0  0  0
    5.8569   -1.1697   -2.7796 H   0  0  0  0  0  0  0  0  0  0  0  0
    7.0204   -0.3171   -1.7524 H   0  0  0  0  0  0  0  0  0  0  0  0
    5.9762    0.5934   -2.8474 H   0  0  0  0  0  0  0  0  0  0  0  0
    3.4041   -0.9758   -2.3840 H   0  0  0  0  0  0  0  0  0  0  0  0
    3.4727    0.7910   -2.3696 H   0  0  0  0  0  0  0  0  0  0  0  0
    2.7525   -0.0771   -1.0122 H   0  0  0  0  0  0  0  0  0  0  0  0
    4.3576   -1.3457    0.7082 H   0  0  0  0  0  0  0  0  0  0  0  0
    6.0672   -1.4355    0.3079 H   0  0  0  0  0  0  0  0  0  0  0  0
    3.8763   -2.7190   -0.9059 H   0  0  0  0  0  0  0  0  0  0  0  0
    5.9588    1.7046   -0.5682 H   0  0  0  0  0  0  0  0  0  0  0  0
    3.3152    2.8383    2.8850 H   0  0  0  0  0  0  0  0  0  0  0  0
    4.1139    4.9486    3.8667 H   0  0  0  0  0  0  0  0  0  0  0  0
    7.6294    3.6212   -0.6503 H   0  0  0  0  0  0  0  0  0  0  0  0
    8.6271    3.3076    0.8032 H   0  0  0  0  0  0  0  0  0  0  0  0
   10.2725    4.8816    0.0826 H   0  0  0  0  0  0  0  0  0  0  0  0
    9.1642    3.4278   -2.4577 H   0  0  0  0  0  0  0  0  0  0  0  0
   10.8595    4.0339   -2.2306 H   0  0  0  0  0  0  0  0  0  0  0  0
    9.9735    6.3728   -1.9335 H   0  0  0  0  0  0  0  0  0  0  0  0
    8.2730    5.7571   -2.1465 H   0  0  0  0  0  0  0  0  0  0  0  0
    5.7157    7.0228    5.0517 H   0  0  0  0  0  0  0  0  0  0  0  0
    4.3910    7.2924    3.8681 H   0  0  0  0  0  0  0  0  0  0  0  0
    7.2483    7.5679    1.6536 H   0  0  0  0  0  0  0  0  0  0  0  0
    8.0900    7.2562    3.2140 H   0  0  0  0  0  0  0  0  0  0  0  0
  1  2  1  0  0  0  0
  1 26  1  0  0  0  0
  1 27  1  0  0  0  0
  1 28  1  0  0  0  0
  2  3  1  0  0  0  0
  2  4  1  0  0  0  0
  2  6  1  0  0  0  0
  3 29  1  0  0  0  0
  3 30  1  0  0  0  0
  3 31  1  0  0  0  0
  4  5  1  0  0  0  0
  4 32  1  0  0  0  0
  4 33  1  0  0  0  0
  5 34  1  0  0  0  0
  6  7  1  0  0  0  0
  6 35  1  0  0  0  0
  7  8  2  0  0  0  0
  7  9  1  0  0  0  0
  9 19  2  0  0  0  0
  9 10  1  0  0  0  0
 10 11  2  0  0  0  0
 10 36  1  0  0  0  0
 11 12  1  0  0  0  0
 11 37  1  0  0  0  0
 12 13  2  0  0  0  0
 12 20  1  0  0  0  0
 13 14  1  0  0  0  0
 13 19  1  0  0  0  0
 14 15  1  0  0  0  0
 15 16  1  0  0  0  0
 15 38  1  0  0  0  0
 15 39  1  0  0  0  0
 16 18  1  0  0  0  0
 16 17  1  0  0  0  0
 16 40  1  0  0  0  0
 17 18  1  0  0  0  0
 17 41  1  0  0  0  0
 17 42  1  0  0  0  0
 18 43  1  0  0  0  0
 18 44  1  0  0  0  0
 20 23  1  0  0  0  0
 20 21  1  0  0  0  0
 21 22  1  0  0  0  0
 21 45  1  0  0  0  0
 21 46  1  0  0  0  0
 22 23  1  0  0  0  0
 22 24  1  0  0  0  0
 22 25  1  0  0  0  0
 23 47  1  0  0  0  0
 23 48  1  0  0  0  0
M  END
$$$$
CHEMBL3354953_8GUQ
 OpenBabel12022418143D

 42 46  0  0  1  0  0  0  0  0999 V2000
    5.0381    0.2400    0.6346 C   0  0  0  0  0  0  0  0  0  0  0  0
    3.5630    0.5526    0.4782 C   0  0  0  0  0  0  0  0  0  0  0  0
    4.6043    1.2969   -0.3320 C   0  0  0  0  0  0  0  0  0  0  0  0
    2.8805    1.2830    1.6258 C   0  0  0  0  0  0  0  0  0  0  0  0
    2.8387    0.4325    2.7698 O   0  0  0  0  0  0  0  0  0  0  0  0
    2.7280   -0.4130   -0.1966 N   0  0  0  0  0  0  0  0  0  0  0  0
    1.7841   -0.0111   -1.1279 C   0  0  0  0  0  0  0  0  0  0  0  0
    1.8004    1.0809   -1.6908 O   0  0  0  0  0  0  0  0  0  0  0  0
    0.6652   -0.9557   -1.2626 C   0  0  0  0  0  0  0  0  0  0  0  0
   -0.5104   -0.7607   -2.0135 C   0  0  0  0  0  0  0  0  0  0  0  0
   -1.4445   -1.4773   -1.3140 C   0  0  0  0  0  0  0  0  0  0  0  0
   -2.7952   -0.7891   -1.3764 C   0  0  1  0  0  0  0  0  0  0  0  0
   -2.5092    0.4316   -2.2929 C   0  0  1  0  0  0  0  0  0  0  0  0
   -1.0878    0.3202   -2.8561 C   0  0  0  0  0  0  0  0  0  0  0  0
   -3.5690   -0.5626   -2.6406 C   0  0  0  0  0  0  0  0  0  0  0  0
   -0.8081   -2.2980   -0.4325 N   0  0  0  0  0  0  0  0  0  0  0  0
   -1.3677   -3.2480    0.4523 C   0  0  0  0  0  0  0  0  0  0  0  0
   -0.5912   -3.7681    1.5037 C   0  0  0  0  0  0  0  0  0  0  0  0
   -1.1578   -4.6694    2.4079 C   0  0  0  0  0  0  0  0  0  0  0  0
   -2.4863   -5.0591    2.2515 C   0  0  0  0  0  0  0  0  0  0  0  0
   -3.2554   -4.5793    1.2058 C   0  0  0  0  0  0  0  0  0  0  0  0
   -2.6889   -3.6856    0.2995 C   0  0  0  0  0  0  0  0  0  0  0  0
   -3.4501   -3.3031   -0.7336 F   0  0  0  0  0  0  0  0  0  0  0  0
   -3.0262   -5.9146    3.1295 F   0  0  0  0  0  0  0  0  0  0  0  0
    0.5334   -2.0135   -0.4220 N   0  0  0  0  0  0  0  0  0  0  0  0
    5.5584    0.5693    1.5261 H   0  0  0  0  0  0  0  0  0  0  0  0
    5.4042   -0.6979    0.2330 H   0  0  0  0  0  0  0  0  0  0  0  0
    4.6720    1.0788   -1.3926 H   0  0  0  0  0  0  0  0  0  0  0  0
    4.7963    2.3359   -0.0922 H   0  0  0  0  0  0  0  0  0  0  0  0
    3.3982    2.2089    1.8979 H   0  0  0  0  0  0  0  0  0  0  0  0
    1.8490    1.5425    1.3650 H   0  0  0  0  0  0  0  0  0  0  0  0
    3.7609    0.2867    3.0397 H   0  0  0  0  0  0  0  0  0  0  0  0
    2.4716   -1.2602    0.3080 H   0  0  0  0  0  0  0  0  0  0  0  0
   -3.3457   -0.7008   -0.4488 H   0  0  0  0  0  0  0  0  0  0  0  0
   -2.7610    1.4151   -1.9251 H   0  0  0  0  0  0  0  0  0  0  0  0
   -0.5486    1.2647   -2.7704 H   0  0  0  0  0  0  0  0  0  0  0  0
   -1.1180    0.0138   -3.9079 H   0  0  0  0  0  0  0  0  0  0  0  0
   -4.6030   -0.2528   -2.5218 H   0  0  0  0  0  0  0  0  0  0  0  0
   -3.4175   -1.2590   -3.4552 H   0  0  0  0  0  0  0  0  0  0  0  0
    0.4414   -3.4551    1.6456 H   0  0  0  0  0  0  0  0  0  0  0  0
   -0.5814   -5.0562    3.2360 H   0  0  0  0  0  0  0  0  0  0  0  0
   -4.2817   -4.9062    1.0777 H   0  0  0  0  0  0  0  0  0  0  0  0
  1  3  1  0  0  0  0
  1  2  1  0  0  0  0
  1 26  1  0  0  0  0
  1 27  1  0  0  0  0
  2  3  1  0  0  0  0
  2  4  1  0  0  0  0
  2  6  1  0  0  0  0
  3 28  1  0  0  0  0
  3 29  1  0  0  0  0
  4  5  1  0  0  0  0
  4 30  1  0  0  0  0
  4 31  1  0  0  0  0
  5 32  1  0  0  0  0
  6  7  1  0  0  0  0
  6 33  1  0  0  0  0
  7  8  2  0  0  0  0
  7  9  1  0  0  0  0
  9 25  2  0  0  0  0
  9 10  1  0  0  0  0
 10 14  1  0  0  0  0
 10 11  2  0  0  0  0
 11 12  1  0  0  0  0
 11 16  1  0  0  0  0
 12 13  1  0  0  0  0
 12 15  1  0  0  0  0
 12 34  1  1  0  0  0
 13 14  1  0  0  0  0
 13 15  1  0  0  0  0
 13 35  1  1  0  0  0
 14 36  1  0  0  0  0
 14 37  1  0  0  0  0
 15 38  1  0  0  0  0
 15 39  1  0  0  0  0
 16 17  1  0  0  0  0
 16 25  1  0  0  0  0
 17 22  2  0  0  0  0
 17 18  1  0  0  0  0
 18 19  2  0  0  0  0
 18 40  1  0  0  0  0
 19 20  1  0  0  0  0
 19 41  1  0  0  0  0
 20 21  2  0  0  0  0
 20 24  1  0  0  0  0
 21 22  1  0  0  0  0
 21 42  1  0  0  0  0
 22 23  1  0  0  0  0
M  END
$$$$
CHEMBL3669058_8GUS
 OpenBabel12022418143D

 55 57  0  0  0  0  0  0  0  0999 V2000
    2.6324   -0.8006   -1.1638 C   0  0  0  0  0  0  0  0  0  0  0  0
    2.4457   -0.0741    0.0524 O   0  0  0  0  0  0  0  0  0  0  0  0
    3.1207    1.1184    0.1241 C   0  0  0  0  0  0  0  0  0  0  0  0
    3.3725    1.8896   -1.0174 C   0  0  0  0  0  0  0  0  0  0  0  0
    4.1071    3.0718   -0.9386 C   0  0  0  0  0  0  0  0  0  0  0  0
    4.5969    3.5406    0.2859 C   0  0  0  0  0  0  0  0  0  0  0  0
    4.2956    2.7732    1.4269 C   0  0  0  0  0  0  0  0  0  0  0  0
    3.5436    1.5711    1.3877 C   0  0  0  0  0  0  0  0  0  0  0  0
    3.2374    0.8739    2.7263 C   0  0  0  0  0  0  0  0  0  0  0  0
    4.5324    0.4046    3.4056 C   0  0  0  0  0  0  0  0  0  0  0  0
    2.4653    1.8220    3.6591 C   0  0  0  0  0  0  0  0  0  0  0  0
    2.4287   -0.3014    2.6187 O   0  0  0  0  0  0  0  0  0  0  0  0
    5.3627    4.8001    0.3780 C   0  0  0  0  0  0  0  0  0  0  0  0
    5.7899    5.1797    1.5841 N   0  0  0  0  0  0  0  0  0  0  0  0
    6.4249    6.3411    1.6349 C   0  0  0  0  0  0  0  0  0  0  0  0
    6.8635    6.8424    2.8506 N   0  0  0  0  0  0  0  0  0  0  0  0
    7.2053    5.8664    3.8793 C   0  0  0  0  0  0  0  0  0  0  0  0
    7.6908    6.5879    5.1437 C   0  0  0  0  0  0  0  0  0  0  0  0
    8.0287    5.6591    6.2890 C   0  0  0  0  0  0  0  0  0  0  0  0
    7.0506    5.3246    7.2428 C   0  0  0  0  0  0  0  0  0  0  0  0
    7.3711    4.5075    8.3286 C   0  0  0  0  0  0  0  0  0  0  0  0
    8.6640    4.0161    8.4607 C   0  0  0  0  0  0  0  0  0  0  0  0
    9.6448    4.3216    7.5180 C   0  0  0  0  0  0  0  0  0  0  0  0
    9.3248    5.1386    6.4340 C   0  0  0  0  0  0  0  0  0  0  0  0
    8.9732    3.2430    9.5104 F   0  0  0  0  0  0  0  0  0  0  0  0
    6.6602    7.1015    0.5786 N   0  0  0  0  0  0  0  0  0  0  0  0
    6.1943    6.6321   -0.5791 C   0  0  0  0  0  0  0  0  0  0  0  0
    6.4171    7.4485   -1.6654 O   0  0  0  0  0  0  0  0  0  0  0  0
    5.8626    6.9409   -2.8751 C   0  0  0  0  0  0  0  0  0  0  0  0
    5.5498    5.4882   -0.7422 N   0  0  0  0  0  0  0  0  0  0  0  0
    2.2424   -1.8114   -1.0166 H   0  0  0  0  0  0  0  0  0  0  0  0
    3.6965   -0.8826   -1.4127 H   0  0  0  0  0  0  0  0  0  0  0  0
    2.0696   -0.3485   -1.9868 H   0  0  0  0  0  0  0  0  0  0  0  0
    2.9953    1.6015   -1.9944 H   0  0  0  0  0  0  0  0  0  0  0  0
    4.2885    3.6312   -1.8554 H   0  0  0  0  0  0  0  0  0  0  0  0
    4.6544    3.1352    2.3916 H   0  0  0  0  0  0  0  0  0  0  0  0
    5.2100    1.2298    3.6468 H   0  0  0  0  0  0  0  0  0  0  0  0
    5.0718   -0.3011    2.7624 H   0  0  0  0  0  0  0  0  0  0  0  0
    4.3107   -0.1323    4.3357 H   0  0  0  0  0  0  0  0  0  0  0  0
    3.0612    2.6869    3.9696 H   0  0  0  0  0  0  0  0  0  0  0  0
    2.1329    1.3021    4.5650 H   0  0  0  0  0  0  0  0  0  0  0  0
    1.5607    2.1987    3.1660 H   0  0  0  0  0  0  0  0  0  0  0  0
    2.5284   -0.6355    1.7093 H   0  0  0  0  0  0  0  0  0  0  0  0
    7.5638    7.5508    2.6473 H   0  0  0  0  0  0  0  0  0  0  0  0
    7.9890    5.1890    3.5143 H   0  0  0  0  0  0  0  0  0  0  0  0
    6.3269    5.2560    4.1309 H   0  0  0  0  0  0  0  0  0  0  0  0
    6.9261    7.3024    5.4782 H   0  0  0  0  0  0  0  0  0  0  0  0
    8.5712    7.1994    4.9084 H   0  0  0  0  0  0  0  0  0  0  0  0
    6.0395    5.7151    7.1539 H   0  0  0  0  0  0  0  0  0  0  0  0
    6.6245    4.2598    9.0761 H   0  0  0  0  0  0  0  0  0  0  0  0
   10.6442    3.9271    7.6488 H   0  0  0  0  0  0  0  0  0  0  0  0
   10.1013    5.3823    5.7133 H   0  0  0  0  0  0  0  0  0  0  0  0
    6.0086    7.6971   -3.6531 H   0  0  0  0  0  0  0  0  0  0  0  0
    4.7857    6.7662   -2.7864 H   0  0  0  0  0  0  0  0  0  0  0  0
    6.3837    6.0304   -3.1913 H   0  0  0  0  0  0  0  0  0  0  0  0
  1  2  1  0  0  0  0
  1 31  1  0  0  0  0
  1 32  1  0  0  0  0
  1 33  1  0  0  0  0
  2  3  1  0  0  0  0
  3  8  2  0  0  0  0
  3  4  1  0  0  0  0
  4  5  2  0  0  0  0
  4 34  1  0  0  0  0
  5  6  1  0  0  0  0
  5 35  1  0  0  0  0
  6  7  2  0  0  0  0
  6 13  1  0  0  0  0
  7  8  1  0  0  0  0
  7 36  1  0  0  0  0
  8  9  1  0  0  0  0
  9 10  1  0  0  0  0
  9 11  1  0  0  0  0
  9 12  1  0  0  0  0
 10 37  1  0  0  0  0
 10 38  1  0  0  0  0
 10 39  1  0  0  0  0
 11 40  1  0  0  0  0
 11 41  1  0  0  0  0
 11 42  1  0  0  0  0
 12 43  1  0  0  0  0
 13 30  2  0  0  0  0
 13 14  1  0  0  0  0
 14 15  2  0  0  0  0
 15 16  1  0  0  0  0
 15 26  1  0  0  0  0
 16 17  1  0  0  0  0
 16 44  1  0  0  0  0
 17 18  1  0  0  0  0
 17 45  1  0  0  0  0
 17 46  1  0  0  0  0
 18 19  1  0  0  0  0
 18 47  1  0  0  0  0
 18 48  1  0  0  0  0
 19 24  2  0  0  0  0
 19 20  1  0  0  0  0
 20 21  2  0  0  0  0
 20 49  1  0  0  0  0
 21 22  1  0  0  0  0
 21 50  1  0  0  0  0
 22 23  2  0  0  0  0
 22 25  1  0  0  0  0
 23 24  1  0  0  0  0
 23 51  1  0  0  0  0
 24 52  1  0  0  0  0
 26 27  2  0  0  0  0
 27 28  1  0  0  0  0
 27 30  1  0  0  0  0
 28 29  1  0  0  0  0
 29 53  1  0  0  0  0
 29 54  1  0  0  0  0
 29 55  1  0  0  0  0
M  END
$$$$
CHEMBL3099056_8GUT
 OpenBabel12022418143D

 51 53  0  0  0  0  0  0  0  0999 V2000
    1.6155   -0.7825   -0.6973 C   0  0  0  0  0  0  0  0  0  0  0  0
    2.6323   -0.0686   -0.0074 O   0  0  0  0  0  0  0  0  0  0  0  0
    3.2134   -0.7943    1.0102 C   0  0  0  0  0  0  0  0  0  0  0  0
    2.8270   -2.0451    1.2412 N   0  0  0  0  0  0  0  0  0  0  0  0
    3.3519   -2.6007    2.3214 C   0  0  0  0  0  0  0  0  0  0  0  0
    2.8947   -3.8746    2.6248 N   0  0  0  0  0  0  0  0  0  0  0  0
    3.2919   -4.4269    3.9099 C   0  0  0  0  0  0  0  0  0  0  0  0
    2.8312   -5.8830    4.0269 C   0  0  0  0  0  0  0  0  0  0  0  0
    3.0427   -6.4309    5.4183 C   0  0  0  0  0  0  0  0  0  0  0  0
    4.2726   -7.0001    5.7816 C   0  0  0  0  0  0  0  0  0  0  0  0
    4.4629   -7.5004    7.0707 C   0  0  0  0  0  0  0  0  0  0  0  0
    3.4285   -7.4271    7.9958 C   0  0  0  0  0  0  0  0  0  0  0  0
    2.2084   -6.8552    7.6597 C   0  0  0  0  0  0  0  0  0  0  0  0
    2.0151   -6.3528    6.3718 C   0  0  0  0  0  0  0  0  0  0  0  0
    3.6110   -7.9148    9.2298 F   0  0  0  0  0  0  0  0  0  0  0  0
    4.2667   -2.0186    3.0881 N   0  0  0  0  0  0  0  0  0  0  0  0
    4.6521   -0.7976    2.7124 C   0  0  0  0  0  0  0  0  0  0  0  0
    5.7521   -0.1526    3.4689 C   0  0  0  0  0  0  0  0  0  0  0  0
    6.1643    1.1543    3.1765 C   0  0  0  0  0  0  0  0  0  0  0  0
    7.2105    1.7526    3.8773 C   0  0  0  0  0  0  0  0  0  0  0  0
    7.8826    1.0668    4.8963 C   0  0  0  0  0  0  0  0  0  0  0  0
    7.5202   -0.2465    5.2391 C   0  0  0  0  0  0  0  0  0  0  0  0
    8.1775   -1.1130    6.3290 C   0  0  0  0  0  0  0  0  0  0  0  0
    7.1437   -1.5214    7.3909 C   0  0  0  0  0  0  0  0  0  0  0  0
    8.8273   -2.3630    5.7164 C   0  0  0  0  0  0  0  0  0  0  0  0
    9.2235   -0.4808    7.0672 O   0  0  0  0  0  0  0  0  0  0  0  0
    6.4489   -0.8241    4.4971 C   0  0  0  0  0  0  0  0  0  0  0  0
    9.1403    1.9625    5.6742 Cl  0  0  0  0  0  0  0  0  0  0  0  0
    4.1312   -0.1259    1.6938 N   0  0  0  0  0  0  0  0  0  0  0  0
    1.2123   -0.1237   -1.4728 H   0  0  0  0  0  0  0  0  0  0  0  0
    0.7893   -1.0531   -0.0298 H   0  0  0  0  0  0  0  0  0  0  0  0
    2.0269   -1.6672   -1.1936 H   0  0  0  0  0  0  0  0  0  0  0  0
    2.9985   -4.4596    1.8075 H   0  0  0  0  0  0  0  0  0  0  0  0
    2.8195   -3.8328    4.7032 H   0  0  0  0  0  0  0  0  0  0  0  0
    4.3778   -4.3775    4.0548 H   0  0  0  0  0  0  0  0  0  0  0  0
    3.3733   -6.5049    3.3025 H   0  0  0  0  0  0  0  0  0  0  0  0
    1.7712   -5.9745    3.7560 H   0  0  0  0  0  0  0  0  0  0  0  0
    5.0871   -7.0620    5.0632 H   0  0  0  0  0  0  0  0  0  0  0  0
    5.4084   -7.9489    7.3587 H   0  0  0  0  0  0  0  0  0  0  0  0
    1.4160   -6.8050    8.3998 H   0  0  0  0  0  0  0  0  0  0  0  0
    1.0573   -5.9038    6.1158 H   0  0  0  0  0  0  0  0  0  0  0  0
    5.6703    1.7221    2.3896 H   0  0  0  0  0  0  0  0  0  0  0  0
    7.4976    2.7696    3.6166 H   0  0  0  0  0  0  0  0  0  0  0  0
    6.3445   -2.1516    6.9882 H   0  0  0  0  0  0  0  0  0  0  0  0
    6.6827   -0.6338    7.8409 H   0  0  0  0  0  0  0  0  0  0  0  0
    7.6233   -2.0700    8.2107 H   0  0  0  0  0  0  0  0  0  0  0  0
    8.1009   -3.0290    5.2400 H   0  0  0  0  0  0  0  0  0  0  0  0
    9.3619   -2.9394    6.4811 H   0  0  0  0  0  0  0  0  0  0  0  0
    9.5740   -2.0815    4.9640 H   0  0  0  0  0  0  0  0  0  0  0  0
    9.0133    0.4659    7.1416 H   0  0  0  0  0  0  0  0  0  0  0  0
    6.1471   -1.8482    4.7240 H   0  0  0  0  0  0  0  0  0  0  0  0
  1  2  1  0  0  0  0
  1 30  1  0  0  0  0
  1 31  1  0  0  0  0
  1 32  1  0  0  0  0
  2  3  1  0  0  0  0
  3 29  2  0  0  0  0
  3  4  1  0  0  0  0
  4  5  2  0  0  0  0
  5  6  1  0  0  0  0
  5 16  1  0  0  0  0
  6  7  1  0  0  0  0
  6 33  1  0  0  0  0
  7  8  1  0  0  0  0
  7 34  1  0  0  0  0
  7 35  1  0  0  0  0
  8  9  1  0  0  0  0
  8 36  1  0  0  0  0
  8 37  1  0  0  0  0
  9 14  2  0  0  0  0
  9 10  1  0  0  0  0
 10 11  2  0  0  0  0
 10 38  1  0  0  0  0
 11 12  1  0  0  0  0
 11 39  1  0  0  0  0
 12 13  2  0  0  0  0
 12 15  1  0  0  0  0
 13 14  1  0  0  0  0
 13 40  1  0  0  0  0
 14 41  1  0  0  0  0
 16 17  2  0  0  0  0
 17 18  1  0  0  0  0
 17 29  1  0  0  0  0
 18 27  2  0  0  0  0
 18 19  1  0  0  0  0
 19 20  2  0  0  0  0
 19 42  1  0  0  0  0
 20 21  1  0  0  0  0
 20 43  1  0  0  0  0
 21 22  2  0  0  0  0
 21 28  1  0  0  0  0
 22 23  1  0  0  0  0
 22 27  1  0  0  0  0
 23 24  1  0  0  0  0
 23 25  1  0  0  0  0
 23 26  1  0  0  0  0
 24 44  1  0  0  0  0
 24 45  1  0  0  0  0
 24 46  1  0  0  0  0
 25 47  1  0  0  0  0
 25 48  1  0  0  0  0
 25 49  1  0  0  0  0
 26 50  1  0  0  0  0
 27 51  1  0  0  0  0
M  END
$$$$
CHEMBL1259076_6KPF
 OpenBabel12022418143D

 66 69  0  0  1  0  0  0  0  0999 V2000
    2.4330   -0.7312    1.7799 C   0  0  0  0  0  0  0  0  0  0  0  0
    3.7413   -0.1764    1.2368 C   0  0  0  0  0  0  0  0  0  0  0  0
    4.0607   -0.7962   -0.1189 C   0  0  0  0  0  0  0  0  0  0  0  0
    5.3733   -0.2873   -0.7182 C   0  0  0  0  0  0  0  0  0  0  0  0
    5.5805   -0.9533   -2.0793 C   0  0  0  0  0  0  0  0  0  0  0  0
    6.8864   -0.5600   -2.7736 C   0  0  0  0  0  0  0  0  0  0  0  0
    7.0306   -1.2614   -4.1496 C   0  0  0  0  0  0  0  0  0  0  0  0
    5.9784   -0.6040   -5.1930 C   0  0  0  0  0  0  0  0  0  0  0  0
    6.3048    0.4952   -6.0010 C   0  0  0  0  0  0  0  0  0  0  0  0
    5.3473    1.1549   -6.7841 C   0  0  0  0  0  0  0  0  0  0  0  0
    3.9937    0.7976   -6.7526 C   0  0  0  0  0  0  0  0  0  0  0  0
    3.6717   -0.3540   -6.0246 C   0  0  0  0  0  0  0  0  0  0  0  0
    4.6464   -1.0431   -5.2894 C   0  0  0  0  0  0  0  0  0  0  0  0
    2.4147   -0.8839   -5.9016 O   0  0  0  0  0  0  0  0  0  0  0  0
    1.3644   -0.3092   -6.7001 C   0  0  0  0  0  0  0  0  0  0  0  0
    0.0614   -0.6775   -5.9669 C   0  0  0  0  0  0  0  0  0  0  0  0
    1.3599   -1.0315   -8.0584 C   0  0  0  0  0  0  0  0  0  0  0  0
    1.5403    1.2300   -6.7776 C   0  0  2  0  0  0  0  0  0  0  0  0
    0.3501    1.9726   -7.4104 C   0  0  0  0  0  0  0  0  0  0  0  0
    0.5892    3.4749   -7.4907 C   0  0  0  0  0  0  0  0  0  0  0  0
    1.8877    3.7770   -8.2177 C   0  0  2  0  0  0  0  0  0  0  0  0
    3.0700    3.0938   -7.5355 C   0  0  0  0  0  0  0  0  0  0  0  0
    2.8907    1.5633   -7.4685 C   0  0  1  0  0  0  0  0  0  0  0  0
    2.0927    5.1856   -8.2596 O   0  0  0  0  0  0  0  0  0  0  0  0
    5.7707    2.1764   -7.5857 O   0  0  0  0  0  0  0  0  0  0  0  0
    8.5358   -1.3563   -4.6088 C   0  0  0  0  0  0  0  0  0  0  0  0
    8.2289   -2.7717   -5.1272 C   0  0  0  0  0  0  0  0  0  0  0  0
    7.0962   -2.8334   -4.0885 C   0  0  0  0  0  0  0  0  0  0  0  0
    2.2042   -0.2857    2.7521 H   0  0  0  0  0  0  0  0  0  0  0  0
    2.4911   -1.8181    1.9058 H   0  0  0  0  0  0  0  0  0  0  0  0
    1.6017   -0.5120    1.0990 H   0  0  0  0  0  0  0  0  0  0  0  0
    4.5495   -0.3885    1.9463 H   0  0  0  0  0  0  0  0  0  0  0  0
    3.6637    0.9127    1.1425 H   0  0  0  0  0  0  0  0  0  0  0  0
    3.2393   -0.5818   -0.8145 H   0  0  0  0  0  0  0  0  0  0  0  0
    4.1117   -1.8872   -0.0146 H   0  0  0  0  0  0  0  0  0  0  0  0
    6.2124   -0.5213   -0.0504 H   0  0  0  0  0  0  0  0  0  0  0  0
    5.3391    0.8013   -0.8370 H   0  0  0  0  0  0  0  0  0  0  0  0
    4.7253   -0.6836   -2.7044 H   0  0  0  0  0  0  0  0  0  0  0  0
    5.5472   -2.0420   -1.9548 H   0  0  0  0  0  0  0  0  0  0  0  0
    7.7262   -0.8287   -2.1212 H   0  0  0  0  0  0  0  0  0  0  0  0
    6.9312    0.5291   -2.9042 H   0  0  0  0  0  0  0  0  0  0  0  0
    7.3273    0.8623   -5.9880 H   0  0  0  0  0  0  0  0  0  0  0  0
    4.3310   -1.9133   -4.7150 H   0  0  0  0  0  0  0  0  0  0  0  0
    0.0227   -1.7525   -5.7539 H   0  0  0  0  0  0  0  0  0  0  0  0
   -0.8288   -0.4212   -6.5505 H   0  0  0  0  0  0  0  0  0  0  0  0
    0.0011   -0.1709   -4.9967 H   0  0  0  0  0  0  0  0  0  0  0  0
    1.1641   -2.1020   -7.9207 H   0  0  0  0  0  0  0  0  0  0  0  0
    2.3328   -0.9785   -8.5574 H   0  0  0  0  0  0  0  0  0  0  0  0
    0.5980   -0.6341   -8.7344 H   0  0  0  0  0  0  0  0  0  0  0  0
    1.6163    1.5962   -5.7396 H   0  0  0  0  0  0  0  0  0  0  0  0
   -0.5562    1.8122   -6.8154 H   0  0  0  0  0  0  0  0  0  0  0  0
    0.1479    1.5871   -8.4152 H   0  0  0  0  0  0  0  0  0  0  0  0
    0.6162    3.9091   -6.4825 H   0  0  0  0  0  0  0  0  0  0  0  0
   -0.2479    3.9645   -8.0015 H   0  0  0  0  0  0  0  0  0  0  0  0
    1.8157    3.4330   -9.2563 H   0  0  0  0  0  0  0  0  0  0  0  0
    3.2227    3.5076   -6.5291 H   0  0  0  0  0  0  0  0  0  0  0  0
    3.9557    3.3757   -8.1094 H   0  0  0  0  0  0  0  0  0  0  0  0
    2.8694    1.1990   -8.5039 H   0  0  0  0  0  0  0  0  0  0  0  0
    2.3729    5.4763   -7.3751 H   0  0  0  0  0  0  0  0  0  0  0  0
    6.7377    2.2469   -7.5367 H   0  0  0  0  0  0  0  0  0  0  0  0
    9.2644   -1.3519   -3.7877 H   0  0  0  0  0  0  0  0  0  0  0  0
    8.8853   -0.6527   -5.3674 H   0  0  0  0  0  0  0  0  0  0  0  0
    9.0276   -3.5075   -5.0034 H   0  0  0  0  0  0  0  0  0  0  0  0
    7.8812   -2.7977   -6.1662 H   0  0  0  0  0  0  0  0  0  0  0  0
    6.2080   -3.3847   -4.4076 H   0  0  0  0  0  0  0  0  0  0  0  0
    7.4199   -3.2359   -3.1204 H   0  0  0  0  0  0  0  0  0  0  0  0
  1  2  1  0  0  0  0
  1 29  1  0  0  0  0
  1 30  1  0  0  0  0
  1 31  1  0  0  0  0
  2  3  1  0  0  0  0
  2 32  1  0  0  0  0
  2 33  1  0  0  0  0
  3  4  1  0  0  0  0
  3 34  1  0  0  0  0
  3 35  1  0  0  0  0
  4  5  1  0  0  0  0
  4 36  1  0  0  0  0
  4 37  1  0  0  0  0
  5  6  1  0  0  0  0
  5 38  1  0  0  0  0
  5 39  1  0  0  0  0
  6  7  1  0  0  0  0
  6 40  1  0  0  0  0
  6 41  1  0  0  0  0
  7 28  1  0  0  0  0
  7  8  1  0  0  0  0
  7 26  1  0  0  0  0
  8 13  2  0  0  0  0
  8  9  1  0  0  0  0
  9 10  2  0  0  0  0
  9 42  1  0  0  0  0
 10 11  1  0  0  0  0
 10 25  1  0  0  0  0
 11 23  1  0  0  0  0
 11 12  2  0  0  0  0
 12 13  1  0  0  0  0
 12 14  1  0  0  0  0
 13 43  1  0  0  0  0
 14 15  1  0  0  0  0
 15 16  1  0  0  0  0
 15 17  1  0  0  0  0
 15 18  1  0  0  0  0
 16 44  1  0  0  0  0
 16 45  1  0  0  0  0
 16 46  1  0  0  0  0
 17 47  1  0  0  0  0
 17 48  1  0  0  0  0
 17 49  1  0  0  0  0
 18 19  1  0  0  0  0
 18 23  1  0  0  0  0
 18 50  1  1  0  0  0
 19 20  1  0  0  0  0
 19 51  1  0  0  0  0
 19 52  1  0  0  0  0
 20 21  1  0  0  0  0
 20 53  1  0  0  0  0
 20 54  1  0  0  0  0
 21 22  1  0  0  0  0
 21 24  1  0  0  0  0
 21 55  1  6  0  0  0
 22 56  1  0  0  0  0
 22 57  1  0  0  0  0
 23 22  1  0  0  0  0
 23 58  1  6  0  0  0
 24 59  1  0  0  0  0
 25 60  1  0  0  0  0
 26 27  1  0  0  0  0
 26 61  1  0  0  0  0
 26 62  1  0  0  0  0
 27 28  1  0  0  0  0
 27 63  1  0  0  0  0
 27 64  1  0  0  0  0
 28 65  1  0  0  0  0
 28 66  1  0  0  0  0
M  END
$$$$
CHEMBL2152808_5ZTY
 OpenBabel12022418143D

 61 64  0  0  1  0  0  0  0  0999 V2000
   -2.2192    1.6009    1.8150 C   0  0  0  0  0  0  0  0  0  0  0  0
   -1.2105    0.5014    1.4281 C   0  0  0  0  0  0  0  0  0  0  0  0
   -2.0075   -0.5991    0.7036 C   0  0  0  0  0  0  0  0  0  0  0  0
   -0.4648   -0.0199    2.7087 C   0  0  1  0  0  0  0  0  0  0  0  0
    0.2392   -1.3608    2.4507 C   0  0  0  0  0  0  0  0  0  0  0  0
    1.3154   -0.9763    1.4325 C   0  0  0  0  0  0  0  0  0  0  0  0
    1.2294    0.5743    1.3741 C   0  0  2  0  0  0  0  0  0  0  0  0
    2.5455    1.1540    0.8890 C   0  0  0  0  0  0  0  0  0  0  0  0
    0.7651    0.9036    2.7991 C   0  0  0  0  0  0  0  0  0  0  0  0
   -0.0158    0.9937    0.5300 C   0  0  2  0  0  0  0  0  0  0  0  0
   -0.0321    2.4277    0.2469 N   0  0  0  0  0  0  0  0  0  0  0  0
   -0.6353    2.9798   -0.8545 C   0  0  0  0  0  0  0  0  0  0  0  0
   -1.1481    2.2994   -1.7460 O   0  0  0  0  0  0  0  0  0  0  0  0
   -0.6545    4.4724   -0.9159 C   0  0  0  0  0  0  0  0  0  0  0  0
   -1.1336    5.0898   -2.0112 C   0  0  0  0  0  0  0  0  0  0  0  0
   -1.2718    6.4630   -2.2108 N   0  0  0  0  0  0  0  0  0  0  0  0
   -1.8624    7.0027   -3.4584 C   0  0  0  0  0  0  0  0  0  0  0  0
   -0.7779    7.3450   -4.4869 C   0  0  0  0  0  0  0  0  0  0  0  0
   -1.3614    7.9323   -5.7742 C   0  0  0  0  0  0  0  0  0  0  0  0
   -0.2596    8.2591   -6.7772 C   0  0  0  0  0  0  0  0  0  0  0  0
   -0.8247    8.8175   -7.9548 O   0  0  0  0  0  0  0  0  0  0  0  0
   -0.8930    7.3410   -1.1684 C   0  0  0  0  0  0  0  0  0  0  0  0
   -1.0160    8.7363   -1.2371 C   0  0  0  0  0  0  0  0  0  0  0  0
   -0.6152    9.5480   -0.1734 C   0  0  0  0  0  0  0  0  0  0  0  0
   -0.0910    9.0119    0.9921 C   0  0  0  0  0  0  0  0  0  0  0  0
    0.0330    7.6343    1.1009 C   0  0  0  0  0  0  0  0  0  0  0  0
   -0.3568    6.8105    0.0309 C   0  0  0  0  0  0  0  0  0  0  0  0
   -0.1932    5.3464    0.1854 C   0  0  0  0  0  0  0  0  0  0  0  0
    0.3116    4.8818    1.2065 O   0  0  0  0  0  0  0  0  0  0  0  0
   -0.7396   10.8772   -0.2849 F   0  0  0  0  0  0  0  0  0  0  0  0
   -2.7452    1.9817    0.9321 H   0  0  0  0  0  0  0  0  0  0  0  0
   -1.7464    2.4485    2.3196 H   0  0  0  0  0  0  0  0  0  0  0  0
   -2.9821    1.2018    2.4943 H   0  0  0  0  0  0  0  0  0  0  0  0
   -2.5629   -0.1842   -0.1450 H   0  0  0  0  0  0  0  0  0  0  0  0
   -2.7264   -1.0732    1.3810 H   0  0  0  0  0  0  0  0  0  0  0  0
   -1.3631   -1.3833    0.2939 H   0  0  0  0  0  0  0  0  0  0  0  0
   -1.0866   -0.0413    3.6080 H   0  0  0  0  0  0  0  0  0  0  0  0
   -0.4142   -2.1632    2.1014 H   0  0  0  0  0  0  0  0  0  0  0  0
    0.7148   -1.7201    3.3726 H   0  0  0  0  0  0  0  0  0  0  0  0
    1.1373   -1.4310    0.4527 H   0  0  0  0  0  0  0  0  0  0  0  0
    2.2952   -1.3171    1.7878 H   0  0  0  0  0  0  0  0  0  0  0  0
    3.3780    0.8396    1.5278 H   0  0  0  0  0  0  0  0  0  0  0  0
    2.5445    2.2470    0.8608 H   0  0  0  0  0  0  0  0  0  0  0  0
    2.7571    0.7924   -0.1251 H   0  0  0  0  0  0  0  0  0  0  0  0
    1.4770    0.5870    3.5713 H   0  0  0  0  0  0  0  0  0  0  0  0
    0.5062    1.9525    2.9692 H   0  0  0  0  0  0  0  0  0  0  0  0
   -0.0045    0.4719   -0.4336 H   0  0  0  0  0  0  0  0  0  0  0  0
    0.3146    3.0721    0.9639 H   0  0  0  0  0  0  0  0  0  0  0  0
   -1.4769    4.4980   -2.8588 H   0  0  0  0  0  0  0  0  0  0  0  0
   -2.5012    7.8710   -3.2607 H   0  0  0  0  0  0  0  0  0  0  0  0
   -2.5429    6.2576   -3.8927 H   0  0  0  0  0  0  0  0  0  0  0  0
   -0.2078    6.4394   -4.7298 H   0  0  0  0  0  0  0  0  0  0  0  0
   -0.0654    8.0591   -4.0582 H   0  0  0  0  0  0  0  0  0  0  0  0
   -1.9321    8.8441   -5.5569 H   0  0  0  0  0  0  0  0  0  0  0  0
   -2.0746    7.2341   -6.2298 H   0  0  0  0  0  0  0  0  0  0  0  0
    0.3098    7.3648   -7.0518 H   0  0  0  0  0  0  0  0  0  0  0  0
    0.4370    8.9929   -6.3599 H   0  0  0  0  0  0  0  0  0  0  0  0
   -1.3657    8.1301   -8.3797 H   0  0  0  0  0  0  0  0  0  0  0  0
   -1.4181    9.2443   -2.1057 H   0  0  0  0  0  0  0  0  0  0  0  0
    0.2168    9.6663    1.8026 H   0  0  0  0  0  0  0  0  0  0  0  0
    0.4323    7.1988    2.0147 H   0  0  0  0  0  0  0  0  0  0  0  0
  1  2  1  0  0  0  0
  1 31  1  0  0  0  0
  1 32  1  0  0  0  0
  1 33  1  0  0  0  0
  2 10  1  0  0  0  0
  2  3  1  0  0  0  0
  2  4  1  0  0  0  0
  3 34  1  0  0  0  0
  3 35  1  0  0  0  0
  3 36  1  0  0  0  0
  4  5  1  0  0  0  0
  4  9  1  0  0  0  0
  4 37  1  1  0  0  0
  5  6  1  0  0  0  0
  5 38  1  0  0  0  0
  5 39  1  0  0  0  0
  6  7  1  0  0  0  0
  6 40  1  0  0  0  0
  6 41  1  0  0  0  0
  7  8  1  6  0  0  0
  7  9  1  0  0  0  0
  7 10  1  0  0  0  0
  8 42  1  0  0  0  0
  8 43  1  0  0  0  0
  8 44  1  0  0  0  0
  9 45  1  0  0  0  0
  9 46  1  0  0  0  0
 10 11  1  0  0  0  0
 10 47  1  6  0  0  0
 11 12  1  0  0  0  0
 11 48  1  0  0  0  0
 12 13  2  0  0  0  0
 12 14  1  0  0  0  0
 14 28  1  0  0  0  0
 14 15  2  0  0  0  0
 15 16  1  0  0  0  0
 15 49  1  0  0  0  0
 16 17  1  0  0  0  0
 16 22  1  0  0  0  0
 17 18  1  0  0  0  0
 17 50  1  0  0  0  0
 17 51  1  0  0  0  0
 18 19  1  0  0  0  0
 18 52  1  0  0  0  0
 18 53  1  0  0  0  0
 19 20  1  0  0  0  0
 19 54  1  0  0  0  0
 19 55  1  0  0  0  0
 20 21  1  0  0  0  0
 20 56  1  0  0  0  0
 20 57  1  0  0  0  0
 21 58  1  0  0  0  0
 22 27  2  0  0  0  0
 22 23  1  0  0  0  0
 23 24  2  0  0  0  0
 23 59  1  0  0  0  0
 24 25  1  0  0  0  0
 24 30  1  0  0  0  0
 25 26  2  0  0  0  0
 25 60  1  0  0  0  0
 26 27  1  0  0  0  0
 26 61  1  0  0  0  0
 27 28  1  0  0  0  0
 28 29  2  0  0  0  0
M  END
$$$$
CHEMBL4113646_8GUQ
 OpenBabel12022418143D

 52 54  0  0  1  0  0  0  0  0999 V2000
    1.4134    5.4164   -2.3197 C   0  0  0  0  0  0  0  0  0  0  0  0
    2.9033    5.0314   -2.2448 C   0  0  0  0  0  0  0  0  0  0  0  0
    3.5535    5.8681   -1.1309 C   0  0  0  0  0  0  0  0  0  0  0  0
    3.1597    3.4754   -2.1067 C   0  0  1  0  0  0  0  0  0  0  0  0
    2.5191    2.9382   -0.8043 C   0  0  0  0  0  0  0  0  0  0  0  0
    2.5260    2.7142   -3.3172 C   0  0  0  0  0  0  0  0  0  0  0  0
    3.0562    3.1553   -4.5704 O   0  0  0  0  0  0  0  0  0  0  0  0
    4.6289    3.2194   -2.0809 N   0  0  0  0  0  0  0  0  0  0  0  0
    5.1897    1.9627   -1.9621 C   0  0  0  0  0  0  0  0  0  0  0  0
    4.5558    0.9278   -1.8050 O   0  0  0  0  0  0  0  0  0  0  0  0
    6.6887    1.9035   -2.0308 C   0  0  0  0  0  0  0  0  0  0  0  0
    7.3303    0.6864   -1.9320 C   0  0  0  0  0  0  0  0  0  0  0  0
    8.7193    0.6850   -1.8828 C   0  0  0  0  0  0  0  0  0  0  0  0
    9.4623    1.8822   -1.9477 C   0  0  0  0  0  0  0  0  0  0  0  0
    8.7039    3.0584   -2.1091 C   0  0  0  0  0  0  0  0  0  0  0  0
    9.3583    4.2900   -2.2246 O   0  0  0  0  0  0  0  0  0  0  0  0
    8.4736    5.2497   -2.8369 C   0  0  0  0  0  0  0  0  0  0  0  0
    8.9701    6.6642   -2.8958 C   0  0  0  0  0  0  0  0  0  0  0  0
   10.1068    7.2154   -2.0789 C   0  0  0  0  0  0  0  0  0  0  0  0
   10.2545    7.0623   -3.5712 C   0  0  0  0  0  0  0  0  0  0  0  0
    7.3427    3.0842   -2.1368 N   0  0  0  0  0  0  0  0  0  0  0  0
   10.9663    1.8205   -1.7772 C   0  0  0  0  0  0  0  0  0  0  0  0
   11.7692    0.7643   -2.5194 C   0  0  0  0  0  0  0  0  0  0  0  0
   11.9074    2.2093   -2.8864 C   0  0  0  0  0  0  0  0  0  0  0  0
    1.2986    6.5020   -2.4183 H   0  0  0  0  0  0  0  0  0  0  0  0
    0.8667    5.1213   -1.4187 H   0  0  0  0  0  0  0  0  0  0  0  0
    0.9180    4.9677   -3.1848 H   0  0  0  0  0  0  0  0  0  0  0  0
    3.3678    5.3687   -3.1812 H   0  0  0  0  0  0  0  0  0  0  0  0
    3.1292    5.6425   -0.1486 H   0  0  0  0  0  0  0  0  0  0  0  0
    3.3902    6.9368   -1.3175 H   0  0  0  0  0  0  0  0  0  0  0  0
    4.6346    5.7139   -1.0886 H   0  0  0  0  0  0  0  0  0  0  0  0
    1.4436    3.1336   -0.7636 H   0  0  0  0  0  0  0  0  0  0  0  0
    2.9833    3.3815    0.0827 H   0  0  0  0  0  0  0  0  0  0  0  0
    2.6307    1.8542   -0.7067 H   0  0  0  0  0  0  0  0  0  0  0  0
    1.4376    2.8311   -3.3471 H   0  0  0  0  0  0  0  0  0  0  0  0
    2.7123    1.6384   -3.2560 H   0  0  0  0  0  0  0  0  0  0  0  0
    2.6932    4.0362   -4.7547 H   0  0  0  0  0  0  0  0  0  0  0  0
    5.2732    3.9555   -2.3519 H   0  0  0  0  0  0  0  0  0  0  0  0
    6.7665   -0.2397   -1.8682 H   0  0  0  0  0  0  0  0  0  0  0  0
    9.2338   -0.2685   -1.7737 H   0  0  0  0  0  0  0  0  0  0  0  0
    7.5402    5.3178   -2.2653 H   0  0  0  0  0  0  0  0  0  0  0  0
    8.2536    4.9212   -3.8606 H   0  0  0  0  0  0  0  0  0  0  0  0
    8.1245    7.3263   -3.0703 H   0  0  0  0  0  0  0  0  0  0  0  0
   10.6819    6.5519   -1.4467 H   0  0  0  0  0  0  0  0  0  0  0  0
    9.9844    8.2178   -1.6799 H   0  0  0  0  0  0  0  0  0  0  0  0
   10.2304    7.9608   -4.1810 H   0  0  0  0  0  0  0  0  0  0  0  0
   10.9233    6.2940   -3.9361 H   0  0  0  0  0  0  0  0  0  0  0  0
   11.3092    2.0197   -0.7622 H   0  0  0  0  0  0  0  0  0  0  0  0
   11.2804    0.1146   -3.2377 H   0  0  0  0  0  0  0  0  0  0  0  0
   12.5910    0.2869   -1.9954 H   0  0  0  0  0  0  0  0  0  0  0  0
   12.8277    2.7112   -2.6094 H   0  0  0  0  0  0  0  0  0  0  0  0
   11.4923    2.5322   -3.8329 H   0  0  0  0  0  0  0  0  0  0  0  0
  1  2  1  0  0  0  0
  1 25  1  0  0  0  0
  1 26  1  0  0  0  0
  1 27  1  0  0  0  0
  2  3  1  0  0  0  0
  2 28  1  0  0  0  0
  3 29  1  0  0  0  0
  3 30  1  0  0  0  0
  3 31  1  0  0  0  0
  4  2  1  6  0  0  0
  4  5  1  0  0  0  0
  4  6  1  0  0  0  0
  4  8  1  0  0  0  0
  5 32  1  0  0  0  0
  5 33  1  0  0  0  0
  5 34  1  0  0  0  0
  6  7  1  0  0  0  0
  6 35  1  0  0  0  0
  6 36  1  0  0  0  0
  7 37  1  0  0  0  0
  8  9  1  0  0  0  0
  8 38  1  0  0  0  0
  9 10  2  0  0  0  0
  9 11  1  0  0  0  0
 11 21  2  0  0  0  0
 11 12  1  0  0  0  0
 12 13  2  0  0  0  0
 12 39  1  0  0  0  0
 13 14  1  0  0  0  0
 13 40  1  0  0  0  0
 14 15  2  0  0  0  0
 14 22  1  0  0  0  0
 15 16  1  0  0  0  0
 15 21  1  0  0  0  0
 16 17  1  0  0  0  0
 17 18  1  0  0  0  0
 17 41  1  0  0  0  0
 17 42  1  0  0  0  0
 18 20  1  0  0  0  0
 18 19  1  0  0  0  0
 18 43  1  0  0  0  0
 19 20  1  0  0  0  0
 19 44  1  0  0  0  0
 19 45  1  0  0  0  0
 20 46  1  0  0  0  0
 20 47  1  0  0  0  0
 22 24  1  0  0  0  0
 22 23  1  0  0  0  0
 22 48  1  0  0  0  0
 23 24  1  0  0  0  0
 23 49  1  0  0  0  0
 23 50  1  0  0  0  0
 24 51  1  0  0  0  0
 24 52  1  0  0  0  0
M  END
$$$$
CHEMBL4473677_5ZTY
 OpenBabel12022418143D

 56 57  0  0  1  0  0  0  0  0999 V2000
    7.5279   -1.5840   -2.9625 C   0  0  0  0  0  0  0  0  0  0  0  0
    7.2671   -0.7568   -1.8270 O   0  0  0  0  0  0  0  0  0  0  0  0
    7.9363   -1.1004   -0.6900 C   0  0  0  0  0  0  0  0  0  0  0  0
    8.7546   -2.0084   -0.5989 O   0  0  0  0  0  0  0  0  0  0  0  0
    7.5435   -0.1632    0.4675 C   0  0  2  0  0  0  0  0  0  0  0  0
    8.4037    1.1395    0.5408 C   0  0  0  0  0  0  0  0  0  0  0  0
    9.9037    0.8555    0.7543 C   0  0  0  0  0  0  0  0  0  0  0  0
    8.2576    1.9771   -0.7451 C   0  0  0  0  0  0  0  0  0  0  0  0
    7.9040    2.0072    1.7185 C   0  0  0  0  0  0  0  0  0  0  0  0
    7.6375   -0.9363    1.7099 N   0  0  0  0  0  0  0  0  0  0  0  0
    6.6308   -1.7885    2.1052 C   0  0  0  0  0  0  0  0  0  0  0  0
    5.5728   -1.9050    1.4998 O   0  0  0  0  0  0  0  0  0  0  0  0
    6.9622   -2.5645    3.2981 C   0  0  0  0  0  0  0  0  0  0  0  0
    6.4308   -3.8335    3.6880 C   0  0  0  0  0  0  0  0  0  0  0  0
    7.0221   -4.1819    4.9018 C   0  0  0  0  0  0  0  0  0  0  0  0
    6.8154   -5.3092    5.6108 N   0  0  0  0  0  0  0  0  0  0  0  0
    5.9391   -6.1563    5.0251 C   0  0  0  0  0  0  0  0  0  0  0  0
    5.2830   -5.9363    3.8235 C   0  0  0  0  0  0  0  0  0  0  0  0
    5.5191   -4.7496    3.1325 C   0  0  0  0  0  0  0  0  0  0  0  0
    7.8699   -3.1658    5.2594 N   0  0  0  0  0  0  0  0  0  0  0  0
    8.6708   -3.1290    6.4688 C   0  0  0  0  0  0  0  0  0  0  0  0
    8.3968   -1.9207    7.3675 C   0  0  0  0  0  0  0  0  0  0  0  0
    6.9536   -1.8507    7.8740 C   0  0  0  0  0  0  0  0  0  0  0  0
    6.7607   -0.6291    8.7710 C   0  0  0  0  0  0  0  0  0  0  0  0
    5.3328   -0.5141    9.2829 C   0  0  0  0  0  0  0  0  0  0  0  0
    5.2146    0.6409   10.1052 O   0  0  0  0  0  0  0  0  0  0  0  0
    7.8636   -2.1952    4.2881 C   0  0  0  0  0  0  0  0  0  0  0  0
    6.6684   -1.5093   -3.6350 H   0  0  0  0  0  0  0  0  0  0  0  0
    7.6546   -2.6365   -2.6907 H   0  0  0  0  0  0  0  0  0  0  0  0
    8.4135   -1.2134   -3.4864 H   0  0  0  0  0  0  0  0  0  0  0  0
    6.4863    0.0998    0.3317 H   0  0  0  0  0  0  0  0  0  0  0  0
   10.4769    1.7918    0.7689 H   0  0  0  0  0  0  0  0  0  0  0  0
   10.3174    0.2372   -0.0483 H   0  0  0  0  0  0  0  0  0  0  0  0
   10.0939    0.3515    1.7069 H   0  0  0  0  0  0  0  0  0  0  0  0
    8.7707    2.9398   -0.6466 H   0  0  0  0  0  0  0  0  0  0  0  0
    7.2041    2.1870   -0.9666 H   0  0  0  0  0  0  0  0  0  0  0  0
    8.6953    1.4704   -1.6113 H   0  0  0  0  0  0  0  0  0  0  0  0
    8.4672    2.9448    1.7867 H   0  0  0  0  0  0  0  0  0  0  0  0
    8.0173    1.4918    2.6786 H   0  0  0  0  0  0  0  0  0  0  0  0
    6.8454    2.2624    1.5969 H   0  0  0  0  0  0  0  0  0  0  0  0
    8.5676   -1.2121    2.0048 H   0  0  0  0  0  0  0  0  0  0  0  0
    5.7686   -7.0778    5.5764 H   0  0  0  0  0  0  0  0  0  0  0  0
    4.5981   -6.6782    3.4265 H   0  0  0  0  0  0  0  0  0  0  0  0
    5.0276   -4.5438    2.1864 H   0  0  0  0  0  0  0  0  0  0  0  0
    9.7185   -3.1197    6.1447 H   0  0  0  0  0  0  0  0  0  0  0  0
    8.5119   -4.0562    7.0298 H   0  0  0  0  0  0  0  0  0  0  0  0
    8.6400   -0.9949    6.8320 H   0  0  0  0  0  0  0  0  0  0  0  0
    9.0772   -1.9714    8.2270 H   0  0  0  0  0  0  0  0  0  0  0  0
    6.7114   -2.7635    8.4302 H   0  0  0  0  0  0  0  0  0  0  0  0
    6.2572   -1.7899    7.0294 H   0  0  0  0  0  0  0  0  0  0  0  0
    7.0204    0.2861    8.2234 H   0  0  0  0  0  0  0  0  0  0  0  0
    7.4517   -0.6737    9.6222 H   0  0  0  0  0  0  0  0  0  0  0  0
    5.0469   -1.3899    9.8733 H   0  0  0  0  0  0  0  0  0  0  0  0
    4.6268   -0.4120    8.4531 H   0  0  0  0  0  0  0  0  0  0  0  0
    5.8295    0.5337   10.8504 H   0  0  0  0  0  0  0  0  0  0  0  0
    8.4706   -1.3056    4.3931 H   0  0  0  0  0  0  0  0  0  0  0  0
  1  2  1  0  0  0  0
  1 28  1  0  0  0  0
  1 29  1  0  0  0  0
  1 30  1  0  0  0  0
  2  3  1  0  0  0  0
  3  4  2  0  0  0  0
  5 10  1  0  0  0  0
  5  6  1  0  0  0  0
  5  3  1  0  0  0  0
  5 31  1  6  0  0  0
  6  7  1  0  0  0  0
  6  8  1  0  0  0  0
  6  9  1  0  0  0  0
  7 32  1  0  0  0  0
  7 33  1  0  0  0  0
  7 34  1  0  0  0  0
  8 35  1  0  0  0  0
  8 36  1  0  0  0  0
  8 37  1  0  0  0  0
  9 38  1  0  0  0  0
  9 39  1  0  0  0  0
  9 40  1  0  0  0  0
 10 11  1  0  0  0  0
 10 41  1  0  0  0  0
 11 12  2  0  0  0  0
 11 13  1  0  0  0  0
 13 27  2  0  0  0  0
 13 14  1  0  0  0  0
 14 19  2  0  0  0  0
 14 15  1  0  0  0  0
 15 16  2  0  0  0  0
 15 20  1  0  0  0  0
 16 17  1  0  0  0  0
 17 18  2  0  0  0  0
 17 42  1  0  0  0  0
 18 19  1  0  0  0  0
 18 43  1  0  0  0  0
 19 44  1  0  0  0  0
 20 21  1  0  0  0  0
 20 27  1  0  0  0  0
 21 22  1  0  0  0  0
 21 45  1  0  0  0  0
 21 46  1  0  0  0  0
 22 23  1  0  0  0  0
 22 47  1  0  0  0  0
 22 48  1  0  0  0  0
 23 24  1  0  0  0  0
 23 49  1  0  0  0  0
 23 50  1  0  0  0  0
 24 25  1  0  0  0  0
 24 51  1  0  0  0  0
 24 52  1  0  0  0  0
 25 26  1  0  0  0  0
 25 53  1  0  0  0  0
 25 54  1  0  0  0  0
 26 55  1  0  0  0  0
 27 56  1  0  0  0  0
M  END
$$$$
CHEMBL3354964_8GUQ
 OpenBabel12022418143D

 42 46  0  0  1  0  0  0  0  0999 V2000
    2.3005    5.1753    2.5112 C   0  0  0  0  0  0  0  0  0  0  0  0
    1.8977    5.8599    1.2441 C   0  0  0  0  0  0  0  0  0  0  0  0
    2.0010    4.3485    1.2826 C   0  0  0  0  0  0  0  0  0  0  0  0
    3.1966    3.7355    0.5494 C   0  0  0  0  0  0  0  0  0  0  0  0
    3.7428    2.6512    1.2924 O   0  0  0  0  0  0  0  0  0  0  0  0
    0.7643    3.6003    1.2043 N   0  0  0  0  0  0  0  0  0  0  0  0
    0.2810    2.7290    2.1801 C   0  0  0  0  0  0  0  0  0  0  0  0
    0.7570    2.6003    3.2994 O   0  0  0  0  0  0  0  0  0  0  0  0
   -0.8319    1.8641    1.6490 C   0  0  0  0  0  0  0  0  0  0  0  0
   -1.1203    0.5254    2.0174 C   0  0  0  0  0  0  0  0  0  0  0  0
   -0.3099   -0.0662    1.0438 C   0  0  0  0  0  0  0  0  0  0  0  0
   -0.2053   -1.5623    1.2916 C   0  0  2  0  0  0  0  0  0  0  0  0
   -1.5892   -1.8420    1.8687 C   0  0  2  0  0  0  0  0  0  0  0  0
   -2.2829   -0.4729    2.1361 C   0  0  0  0  0  0  0  0  0  0  0  0
   -0.3731   -2.1750    2.6745 C   0  0  0  0  0  0  0  0  0  0  0  0
   -0.7323    0.6744   -0.0855 N   0  0  0  0  0  0  0  0  0  0  0  0
   -1.0258    0.2887   -1.4122 C   0  0  0  0  0  0  0  0  0  0  0  0
   -1.7327    1.1703   -2.2499 C   0  0  0  0  0  0  0  0  0  0  0  0
   -1.8601    0.9200   -3.6077 C   0  0  0  0  0  0  0  0  0  0  0  0
   -1.3215   -0.2537   -4.1265 C   0  0  0  0  0  0  0  0  0  0  0  0
   -0.7224   -1.1858   -3.2893 C   0  0  0  0  0  0  0  0  0  0  0  0
   -0.5973   -0.9367   -1.9212 C   0  0  0  0  0  0  0  0  0  0  0  0
   -1.3302   -0.4522   -5.4432 F   0  0  0  0  0  0  0  0  0  0  0  0
   -2.3454    2.2730   -1.7898 F   0  0  0  0  0  0  0  0  0  0  0  0
   -1.0608    1.9393    0.3254 N   0  0  0  0  0  0  0  0  0  0  0  0
    3.3320    5.2626    2.8360 H   0  0  0  0  0  0  0  0  0  0  0  0
    1.5887    5.1463    3.3278 H   0  0  0  0  0  0  0  0  0  0  0  0
    2.6597    6.4297    0.7211 H   0  0  0  0  0  0  0  0  0  0  0  0
    0.9123    6.3050    1.2034 H   0  0  0  0  0  0  0  0  0  0  0  0
    3.9942    4.4722    0.3992 H   0  0  0  0  0  0  0  0  0  0  0  0
    2.9099    3.3611   -0.4391 H   0  0  0  0  0  0  0  0  0  0  0  0
    3.5558    2.8238    2.2325 H   0  0  0  0  0  0  0  0  0  0  0  0
    0.2927    3.5143    0.3132 H   0  0  0  0  0  0  0  0  0  0  0  0
    0.3045   -2.1925    0.5826 H   0  0  0  0  0  0  0  0  0  0  0  0
   -2.1742   -2.5967    1.3666 H   0  0  0  0  0  0  0  0  0  0  0  0
   -3.0206   -0.3082    1.3352 H   0  0  0  0  0  0  0  0  0  0  0  0
   -2.7844   -0.4692    3.1025 H   0  0  0  0  0  0  0  0  0  0  0  0
   -0.1182   -3.2193    2.8089 H   0  0  0  0  0  0  0  0  0  0  0  0
   -0.2130   -1.5850    3.5734 H   0  0  0  0  0  0  0  0  0  0  0  0
   -2.3678    1.6263   -4.2554 H   0  0  0  0  0  0  0  0  0  0  0  0
   -0.3381   -2.1105   -3.7138 H   0  0  0  0  0  0  0  0  0  0  0  0
   -0.1301   -1.6941   -1.3120 H   0  0  0  0  0  0  0  0  0  0  0  0
  1  3  1  0  0  0  0
  1  2  1  0  0  0  0
  1 26  1  0  0  0  0
  1 27  1  0  0  0  0
  2  3  1  0  0  0  0
  2 28  1  0  0  0  0
  2 29  1  0  0  0  0
  3  4  1  0  0  0  0
  3  6  1  0  0  0  0
  4  5  1  0  0  0  0
  4 30  1  0  0  0  0
  4 31  1  0  0  0  0
  5 32  1  0  0  0  0
  6  7  1  0  0  0  0
  6 33  1  0  0  0  0
  7  8  2  0  0  0  0
  7  9  1  0  0  0  0
  9 25  2  0  0  0  0
  9 10  1  0  0  0  0
 10 14  1  0  0  0  0
 10 11  2  0  0  0  0
 11 12  1  0  0  0  0
 11 16  1  0  0  0  0
 12 13  1  0  0  0  0
 12 15  1  0  0  0  0
 12 34  1  6  0  0  0
 13 14  1  0  0  0  0
 13 15  1  0  0  0  0
 13 35  1  6  0  0  0
 14 36  1  0  0  0  0
 14 37  1  0  0  0  0
 15 38  1  0  0  0  0
 15 39  1  0  0  0  0
 16 25  1  0  0  0  0
 16 17  1  0  0  0  0
 17 22  2  0  0  0  0
 17 18  1  0  0  0  0
 18 19  2  0  0  0  0
 18 24  1  0  0  0  0
 19 20  1  0  0  0  0
 19 40  1  0  0  0  0
 20 21  2  0  0  0  0
 20 23  1  0  0  0  0
 21 22  1  0  0  0  0
 21 41  1  0  0  0  0
 22 42  1  0  0  0  0
M  END
$$$$
CHEMBL4796229_5ZTY
 OpenBabel12022418143D

 53 53  0  0  0  0  0  0  0  0999 V2000
   -0.2380   -1.1527   -0.0609 C   0  0  0  0  0  0  0  0  0  0  0  0
   -1.0995   -0.0499   -0.1475 C   0  0  0  0  0  0  0  0  0  0  0  0
   -0.3269    1.1318   -0.0754 C   0  0  0  0  0  0  0  0  0  0  0  0
   -0.7723    2.5408   -0.0086 C   0  0  0  0  0  0  0  0  0  0  0  0
   -1.9578    2.8590    0.0364 O   0  0  0  0  0  0  0  0  0  0  0  0
    0.2358    3.4890    0.0274 N   0  0  0  0  0  0  0  0  0  0  0  0
   -0.0173    4.9535    0.0523 C   0  0  0  0  0  0  0  0  0  0  0  0
    1.3347    5.6958    0.0672 C   0  0  0  0  0  0  0  0  0  0  0  0
   -0.7799    5.3960   -1.2126 C   0  0  0  0  0  0  0  0  0  0  0  0
   -0.8304    5.3795    1.3059 C   0  0  0  0  0  0  0  0  0  0  0  0
   -0.1472    5.0304    2.5111 O   0  0  0  0  0  0  0  0  0  0  0  0
    0.9790    0.8176   -0.0522 N   0  0  0  0  0  0  0  0  0  0  0  0
    1.0205   -0.5421   -0.0718 N   0  0  0  0  0  0  0  0  0  0  0  0
    2.3708   -1.0718    0.0015 C   0  0  0  0  0  0  0  0  0  0  0  0
    3.0146   -1.4638   -1.3336 C   0  0  0  0  0  0  0  0  0  0  0  0
    3.2240   -0.3182   -2.3388 C   0  0  0  0  0  0  0  0  0  0  0  0
    3.9186   -0.8639   -3.5949 C   0  0  0  0  0  0  0  0  0  0  0  0
    4.1107    0.1726   -4.6905 C   0  0  0  0  0  0  0  0  0  0  0  0
   -2.9795   -0.0067   -0.2985 Br  0  0  0  0  0  0  0  0  0  0  0  0
   -0.5731   -2.6773    0.0118 C   0  0  0  0  0  0  0  0  0  0  0  0
    0.4584   -3.5218    0.7810 C   0  0  0  0  0  0  0  0  0  0  0  0
   -1.9121   -2.9382    0.7562 C   0  0  0  0  0  0  0  0  0  0  0  0
   -0.7262   -3.2910   -1.3946 C   0  0  0  0  0  0  0  0  0  0  0  0
    1.1791    3.1230   -0.0389 H   0  0  0  0  0  0  0  0  0  0  0  0
    1.9355    5.4435   -0.8137 H   0  0  0  0  0  0  0  0  0  0  0  0
    1.9275    5.4402    0.9519 H   0  0  0  0  0  0  0  0  0  0  0  0
    1.1863    6.7830    0.0683 H   0  0  0  0  0  0  0  0  0  0  0  0
   -0.2336    5.1179   -2.1208 H   0  0  0  0  0  0  0  0  0  0  0  0
   -0.9263    6.4827   -1.2258 H   0  0  0  0  0  0  0  0  0  0  0  0
   -1.7729    4.9398   -1.2764 H   0  0  0  0  0  0  0  0  0  0  0  0
   -1.8242    4.9238    1.3396 H   0  0  0  0  0  0  0  0  0  0  0  0
   -0.9778    6.4655    1.3187 H   0  0  0  0  0  0  0  0  0  0  0  0
   -0.0795    4.0592    2.5044 H   0  0  0  0  0  0  0  0  0  0  0  0
    2.3833   -1.9022    0.7046 H   0  0  0  0  0  0  0  0  0  0  0  0
    2.9936   -0.3046    0.4814 H   0  0  0  0  0  0  0  0  0  0  0  0
    2.4304   -2.2568   -1.8049 H   0  0  0  0  0  0  0  0  0  0  0  0
    4.0021   -1.8881   -1.1022 H   0  0  0  0  0  0  0  0  0  0  0  0
    3.8366    0.4739   -1.8901 H   0  0  0  0  0  0  0  0  0  0  0  0
    2.2621    0.1278   -2.6143 H   0  0  0  0  0  0  0  0  0  0  0  0
    3.3308   -1.6942   -4.0052 H   0  0  0  0  0  0  0  0  0  0  0  0
    4.8984   -1.2701   -3.3211 H   0  0  0  0  0  0  0  0  0  0  0  0
    3.1537    0.5836   -5.0229 H   0  0  0  0  0  0  0  0  0  0  0  0
    4.5931   -0.2953   -5.5578 H   0  0  0  0  0  0  0  0  0  0  0  0
    4.7503    0.9954   -4.3571 H   0  0  0  0  0  0  0  0  0  0  0  0
    0.6326   -3.1255    1.7871 H   0  0  0  0  0  0  0  0  0  0  0  0
    1.4080   -3.6029    0.2480 H   0  0  0  0  0  0  0  0  0  0  0  0
    0.1107   -4.5574    0.8972 H   0  0  0  0  0  0  0  0  0  0  0  0
   -1.9362   -2.4444    1.7336 H   0  0  0  0  0  0  0  0  0  0  0  0
   -2.0778   -4.0103    0.9225 H   0  0  0  0  0  0  0  0  0  0  0  0
   -2.7804   -2.6214    0.1755 H   0  0  0  0  0  0  0  0  0  0  0  0
    0.2162   -3.2834   -1.9501 H   0  0  0  0  0  0  0  0  0  0  0  0
   -1.4792   -2.7663   -1.9921 H   0  0  0  0  0  0  0  0  0  0  0  0
   -1.0486   -4.3397   -1.3223 H   0  0  0  0  0  0  0  0  0  0  0  0
  1 13  1  0  0  0  0
  1  2  2  0  0  0  0
  1 20  1  0  0  0  0
  2  3  1  0  0  0  0
  2 19  1  0  0  0  0
  3  4  1  0  0  0  0
  3 12  2  0  0  0  0
  4  5  2  0  0  0  0
  4  6  1  0  0  0  0
  6  7  1  0  0  0  0
  6 24  1  0  0  0  0
  7  8  1  0  0  0  0
  7  9  1  0  0  0  0
  7 10  1  0  0  0  0
  8 25  1  0  0  0  0
  8 26  1  0  0  0  0
  8 27  1  0  0  0  0
  9 28  1  0  0  0  0
  9 29  1  0  0  0  0
  9 30  1  0  0  0  0
 10 11  1  0  0  0  0
 10 31  1  0  0  0  0
 10 32  1  0  0  0  0
 11 33  1  0  0  0  0
 12 13  1  0  0  0  0
 13 14  1  0  0  0  0
 14 15  1  0  0  0  0
 14 34  1  0  0  0  0
 14 35  1  0  0  0  0
 15 16  1  0  0  0  0
 15 36  1  0  0  0  0
 15 37  1  0  0  0  0
 16 17  1  0  0  0  0
 16 38  1  0  0  0  0
 16 39  1  0  0  0  0
 17 18  1  0  0  0  0
 17 40  1  0  0  0  0
 17 41  1  0  0  0  0
 18 42  1  0  0  0  0
 18 43  1  0  0  0  0
 18 44  1  0  0  0  0
 20 21  1  0  0  0  0
 20 22  1  0  0  0  0
 20 23  1  0  0  0  0
 21 45  1  0  0  0  0
 21 46  1  0  0  0  0
 21 47  1  0  0  0  0
 22 48  1  0  0  0  0
 22 49  1  0  0  0  0
 22 50  1  0  0  0  0
 23 51  1  0  0  0  0
 23 52  1  0  0  0  0
 23 53  1  0  0  0  0
M  END
$$$$
CHEMBL5092703_6KPF
 OpenBabel12022418143D

 74 77  0  0  1  0  0  0  0  0999 V2000
    1.2574   -0.1198    0.2947 C   0  0  0  0  0  0  0  0  0  0  0  0
    0.5284    1.1155   -0.3007 C   0  0  0  0  0  0  0  0  0  0  0  0
   -0.9438    0.9039    0.0304 C   0  0  0  0  0  0  0  0  0  0  0  0
   -1.1368   -0.6108    0.0332 C   0  0  0  0  0  0  0  0  0  0  0  0
    0.2575   -1.2200   -0.1402 C   0  0  0  0  0  0  0  0  0  0  0  0
    1.4304   -0.0857    1.8273 C   0  0  0  0  0  0  0  0  0  0  0  0
    1.2439    1.0743    2.5921 C   0  0  0  0  0  0  0  0  0  0  0  0
    1.4987    1.0746    3.9658 C   0  0  0  0  0  0  0  0  0  0  0  0
    2.0145   -0.0519    4.6155 C   0  0  0  0  0  0  0  0  0  0  0  0
    2.3171   -0.0292    6.0881 C   0  0  2  0  0  0  0  0  0  0  0  0
    3.2772   -1.1748    6.4361 C   0  0  2  0  0  0  0  0  0  0  0  0
    2.8504   -2.5127    5.7540 C   0  0  0  0  0  0  0  0  0  0  0  0
    3.8858   -3.6030    6.0937 C   0  0  0  0  0  0  0  0  0  0  0  0
    1.4628   -3.1203    6.0239 C   0  0  0  0  0  0  0  0  0  0  0  0
    2.8869   -2.3229    4.3194 O   0  0  0  0  0  0  0  0  0  0  0  0
    2.2456   -1.1966    3.8574 C   0  0  0  0  0  0  0  0  0  0  0  0
    1.8722   -1.2312    2.5164 C   0  0  0  0  0  0  0  0  0  0  0  0
    3.5661   -1.1817    7.9433 C   0  0  0  0  0  0  0  0  0  0  0  0
    2.3147   -1.2277    8.8055 C   0  0  0  0  0  0  0  0  0  0  0  0
    1.2991   -0.1314    8.4436 C   0  0  2  0  0  0  0  0  0  0  0  0
    1.0309   -0.0543    6.9361 C   0  0  0  0  0  0  0  0  0  0  0  0
    1.7227    1.2475    8.9674 C   0  0  0  0  0  0  0  0  0  0  0  0
    1.8606    1.2243   10.3815 O   0  0  0  0  0  0  0  0  0  0  0  0
    1.2722    2.2102    4.6952 O   0  0  0  0  0  0  0  0  0  0  0  0
    2.6523   -0.2614   -0.4085 C   0  0  0  0  0  0  0  0  0  0  0  0
    3.3724   -1.5861   -0.1417 C   0  0  0  0  0  0  0  0  0  0  0  0
    4.7029   -1.7697   -0.8582 C   0  0  0  0  0  0  0  0  0  0  0  0
    5.2654   -3.1392   -0.4580 C   0  0  0  0  0  0  0  0  0  0  0  0
    6.6315   -3.3987   -1.0747 C   0  0  0  0  0  0  0  0  0  0  0  0
    7.1555   -4.7730   -0.6794 C   0  0  0  0  0  0  0  0  0  0  0  0
    8.4640   -4.9548   -1.3177 N   0  0  0  0  0  0  0  0  0  0  0  0
    8.9852   -5.9766   -1.0932 C   0  0  0  0  0  0  0  0  0  0  0  0
    9.7101   -7.3598   -0.7955 S   0  0  0  0  0  0  0  0  0  0  0  0
    0.6340    1.1281   -1.3931 H   0  0  0  0  0  0  0  0  0  0  0  0
    0.9062    2.0821    0.0486 H   0  0  0  0  0  0  0  0  0  0  0  0
   -1.5972    1.3995   -0.6942 H   0  0  0  0  0  0  0  0  0  0  0  0
   -1.1912    1.3112    1.0175 H   0  0  0  0  0  0  0  0  0  0  0  0
   -1.8019   -0.9288   -0.7765 H   0  0  0  0  0  0  0  0  0  0  0  0
   -1.5907   -0.9331    0.9768 H   0  0  0  0  0  0  0  0  0  0  0  0
    0.3431   -2.1618    0.4092 H   0  0  0  0  0  0  0  0  0  0  0  0
    0.4014   -1.4577   -1.2028 H   0  0  0  0  0  0  0  0  0  0  0  0
    0.9016    1.9936    2.1337 H   0  0  0  0  0  0  0  0  0  0  0  0
    2.8514    0.9078    6.2990 H   0  0  0  0  0  0  0  0  0  0  0  0
    4.2400   -0.9100    5.9639 H   0  0  0  0  0  0  0  0  0  0  0  0
    3.8343   -3.8851    7.1514 H   0  0  0  0  0  0  0  0  0  0  0  0
    4.9055   -3.2704    5.8708 H   0  0  0  0  0  0  0  0  0  0  0  0
    3.7199   -4.5097    5.5014 H   0  0  0  0  0  0  0  0  0  0  0  0
    1.2152   -3.2048    7.0786 H   0  0  0  0  0  0  0  0  0  0  0  0
    1.4101   -4.1316    5.5991 H   0  0  0  0  0  0  0  0  0  0  0  0
    0.6623   -2.5829    5.5058 H   0  0  0  0  0  0  0  0  0  0  0  0
    1.9870   -2.1828    2.0026 H   0  0  0  0  0  0  0  0  0  0  0  0
    4.1160   -0.2616    8.1871 H   0  0  0  0  0  0  0  0  0  0  0  0
    4.2468   -1.9932    8.2180 H   0  0  0  0  0  0  0  0  0  0  0  0
    2.6027   -1.1531    9.8602 H   0  0  0  0  0  0  0  0  0  0  0  0
    1.8467   -2.2100    8.7119 H   0  0  0  0  0  0  0  0  0  0  0  0
    0.3578   -0.3961    8.9436 H   0  0  0  0  0  0  0  0  0  0  0  0
    0.3898   -0.8919    6.6543 H   0  0  0  0  0  0  0  0  0  0  0  0
    0.4192    0.8301    6.7210 H   0  0  0  0  0  0  0  0  0  0  0  0
    0.9703    2.0020    8.7138 H   0  0  0  0  0  0  0  0  0  0  0  0
    2.6754    1.5726    8.5404 H   0  0  0  0  0  0  0  0  0  0  0  0
    1.0227    0.8953   10.7489 H   0  0  0  0  0  0  0  0  0  0  0  0
    0.8536    2.8724    4.1219 H   0  0  0  0  0  0  0  0  0  0  0  0
    3.3000    0.5684   -0.0955 H   0  0  0  0  0  0  0  0  0  0  0  0
    2.5238   -0.1605   -1.4939 H   0  0  0  0  0  0  0  0  0  0  0  0
    2.7095   -2.4228   -0.3897 H   0  0  0  0  0  0  0  0  0  0  0  0
    3.6274   -1.6525    0.9155 H   0  0  0  0  0  0  0  0  0  0  0  0
    5.3975   -0.9782   -0.5549 H   0  0  0  0  0  0  0  0  0  0  0  0
    4.5716   -1.7085   -1.9429 H   0  0  0  0  0  0  0  0  0  0  0  0
    4.5658   -3.9256   -0.7650 H   0  0  0  0  0  0  0  0  0  0  0  0
    5.3478   -3.2003    0.6357 H   0  0  0  0  0  0  0  0  0  0  0  0
    7.3380   -2.6267   -0.7472 H   0  0  0  0  0  0  0  0  0  0  0  0
    6.5643   -3.3292   -2.1660 H   0  0  0  0  0  0  0  0  0  0  0  0
    6.4517   -5.5516   -1.0049 H   0  0  0  0  0  0  0  0  0  0  0  0
    7.2457   -4.8373    0.4196 H   0  0  0  0  0  0  0  0  0  0  0  0
  1  5  1  0  0  0  0
  1  2  1  0  0  0  0
  1  6  1  0  0  0  0
  1 25  1  0  0  0  0
  2  3  1  0  0  0  0
  2 34  1  0  0  0  0
  2 35  1  0  0  0  0
  3  4  1  0  0  0  0
  3 36  1  0  0  0  0
  3 37  1  0  0  0  0
  4  5  1  0  0  0  0
  4 38  1  0  0  0  0
  4 39  1  0  0  0  0
  5 40  1  0  0  0  0
  5 41  1  0  0  0  0
  6 17  2  0  0  0  0
  6  7  1  0  0  0  0
  7  8  2  0  0  0  0
  7 42  1  0  0  0  0
  8  9  1  0  0  0  0
  8 24  1  0  0  0  0
  9 16  2  0  0  0  0
  9 10  1  0  0  0  0
 10 11  1  0  0  0  0
 10 21  1  0  0  0  0
 10 43  1  1  0  0  0
 11 12  1  0  0  0  0
 11 18  1  0  0  0  0
 11 44  1  6  0  0  0
 12 13  1  0  0  0  0
 12 14  1  0  0  0  0
 12 15  1  0  0  0  0
 13 45  1  0  0  0  0
 13 46  1  0  0  0  0
 13 47  1  0  0  0  0
 14 48  1  0  0  0  0
 14 49  1  0  0  0  0
 14 50  1  0  0  0  0
 15 16  1  0  0  0  0
 16 17  1  0  0  0  0
 17 51  1  0  0  0  0
 18 19  1  0  0  0  0
 18 52  1  0  0  0  0
 18 53  1  0  0  0  0
 19 20  1  0  0  0  0
 19 54  1  0  0  0  0
 19 55  1  0  0  0  0
 20 21  1  0  0  0  0
 20 22  1  0  0  0  0
 20 56  1  1  0  0  0
 21 57  1  0  0  0  0
 21 58  1  0  0  0  0
 22 23  1  0  0  0  0
 22 59  1  0  0  0  0
 22 60  1  0  0  0  0
 23 61  1  0  0  0  0
 24 62  1  0  0  0  0
 25 26  1  0  0  0  0
 25 63  1  0  0  0  0
 25 64  1  0  0  0  0
 26 27  1  0  0  0  0
 26 65  1  0  0  0  0
 26 66  1  0  0  0  0
 27 28  1  0  0  0  0
 27 67  1  0  0  0  0
 27 68  1  0  0  0  0
 28 29  1  0  0  0  0
 28 69  1  0  0  0  0
 28 70  1  0  0  0  0
 29 30  1  0  0  0  0
 29 71  1  0  0  0  0
 29 72  1  0  0  0  0
 30 31  1  0  0  0  0
 30 73  1  0  0  0  0
 30 74  1  0  0  0  0
 31 32  2  0  0  0  0
 32 33  2  0  0  0  0
M  END
$$$$
CHEMBL338484_6KPF
 OpenBabel12022418143D

 66 68  0  0  1  0  0  0  0  0999 V2000
    9.2370   -4.6443   -6.4230 C   0  0  0  0  0  0  0  0  0  0  0  0
    7.7676   -4.8380   -6.0858 C   0  0  0  0  0  0  0  0  0  0  0  0
    7.4102   -4.2352   -4.7313 C   0  0  0  0  0  0  0  0  0  0  0  0
    5.9372   -4.4724   -4.4249 C   0  0  0  0  0  0  0  0  0  0  0  0
    5.5452   -3.8421   -3.0974 C   0  0  0  0  0  0  0  0  0  0  0  0
    4.0651   -4.0791   -2.8243 C   0  0  0  0  0  0  0  0  0  0  0  0
    3.6686   -3.4798   -1.4821 C   0  0  0  0  0  0  0  0  0  0  0  0
    2.2021   -3.7812   -1.1806 C   0  0  0  0  0  0  0  0  0  0  0  0
    1.8117   -3.2874    0.2203 C   0  0  0  0  0  0  0  0  0  0  0  0
    0.3427   -3.4906    0.4536 C   0  0  0  0  0  0  0  0  0  0  0  0
   -0.2281   -4.7552    0.4281 C   0  0  0  0  0  0  0  0  0  0  0  0
   -1.6270   -4.8784    0.4269 C   0  0  0  0  0  0  0  0  0  0  0  0
   -2.4869   -3.7616    0.5748 C   0  0  0  0  0  0  0  0  0  0  0  0
   -1.8830   -2.5151    0.7040 C   0  0  0  0  0  0  0  0  0  0  0  0
   -0.4926   -2.3588    0.6159 C   0  0  0  0  0  0  0  0  0  0  0  0
   -2.6414   -1.3843    0.8793 O   0  0  0  0  0  0  0  0  0  0  0  0
   -3.6205   -1.1576   -0.1604 C   0  0  0  0  0  0  0  0  0  0  0  0
   -4.8032   -0.3944    0.5470 C   0  0  0  0  0  0  0  0  0  0  0  0
   -3.0217   -0.0491   -1.0391 C   0  0  0  0  0  0  0  0  0  0  0  0
   -4.2637   -2.4921   -0.6880 C   0  0  1  0  0  0  0  0  0  0  0  0
   -4.6124   -3.0502   -2.0760 C   0  0  0  0  0  0  0  0  0  0  0  0
   -5.7077   -4.2048   -1.8041 C   0  0  0  0  0  0  0  0  0  0  0  0
   -6.2780   -4.2586   -0.5607 C   0  0  0  0  0  0  0  0  0  0  0  0
   -7.5543   -3.4192   -0.4493 C   0  0  0  0  0  0  0  0  0  0  0  0
   -7.7169   -2.8013    0.8077 O   0  0  0  0  0  0  0  0  0  0  0  0
   -5.2707   -4.2688    0.6916 C   0  0  0  0  0  0  0  0  0  0  0  0
   -3.9082   -3.7924    0.1106 C   0  0  2  0  0  0  0  0  0  0  0  0
   -2.1492   -6.0976    0.0766 O   0  0  0  0  0  0  0  0  0  0  0  0
    9.3542   -4.4587   -7.4947 H   0  0  0  0  0  0  0  0  0  0  0  0
    9.6775   -3.8020   -5.8806 H   0  0  0  0  0  0  0  0  0  0  0  0
    9.8053   -5.5451   -6.1756 H   0  0  0  0  0  0  0  0  0  0  0  0
    7.5294   -5.9087   -6.0972 H   0  0  0  0  0  0  0  0  0  0  0  0
    7.1525   -4.3666   -6.8605 H   0  0  0  0  0  0  0  0  0  0  0  0
    8.0331   -4.6740   -3.9430 H   0  0  0  0  0  0  0  0  0  0  0  0
    7.6125   -3.1566   -4.7435 H   0  0  0  0  0  0  0  0  0  0  0  0
    5.3189   -4.0511   -5.2274 H   0  0  0  0  0  0  0  0  0  0  0  0
    5.7358   -5.5504   -4.3944 H   0  0  0  0  0  0  0  0  0  0  0  0
    5.7496   -2.7647   -3.1154 H   0  0  0  0  0  0  0  0  0  0  0  0
    6.1454   -4.2741   -2.2878 H   0  0  0  0  0  0  0  0  0  0  0  0
    3.4613   -3.6345   -3.6247 H   0  0  0  0  0  0  0  0  0  0  0  0
    3.8595   -5.1564   -2.8256 H   0  0  0  0  0  0  0  0  0  0  0  0
    3.8320   -2.3953   -1.4955 H   0  0  0  0  0  0  0  0  0  0  0  0
    4.2995   -3.8934   -0.6881 H   0  0  0  0  0  0  0  0  0  0  0  0
    1.5727   -3.2949   -1.9420 H   0  0  0  0  0  0  0  0  0  0  0  0
    2.0318   -4.8571   -1.2731 H   0  0  0  0  0  0  0  0  0  0  0  0
    2.0777   -2.2341    0.3101 H   0  0  0  0  0  0  0  0  0  0  0  0
    2.3951   -3.8272    0.9803 H   0  0  0  0  0  0  0  0  0  0  0  0
    0.3924   -5.6430    0.3130 H   0  0  0  0  0  0  0  0  0  0  0  0
   -0.0740   -1.3740    0.5924 H   0  0  0  0  0  0  0  0  0  0  0  0
   -5.2814   -1.0170    1.3123 H   0  0  0  0  0  0  0  0  0  0  0  0
   -5.5664   -0.1140   -0.1953 H   0  0  0  0  0  0  0  0  0  0  0  0
   -4.4764    0.5186    1.0529 H   0  0  0  0  0  0  0  0  0  0  0  0
   -3.7238    0.3715   -1.7662 H   0  0  0  0  0  0  0  0  0  0  0  0
   -2.7496    0.7927   -0.3724 H   0  0  0  0  0  0  0  0  0  0  0  0
   -2.0777   -0.3130   -1.5181 H   0  0  0  0  0  0  0  0  0  0  0  0
   -5.2851   -2.2285   -0.4195 H   0  0  0  0  0  0  0  0  0  0  0  0
   -3.7320   -3.5124   -2.5446 H   0  0  0  0  0  0  0  0  0  0  0  0
   -5.0337   -2.3155   -2.7641 H   0  0  0  0  0  0  0  0  0  0  0  0
   -5.2046   -5.1470   -2.0811 H   0  0  0  0  0  0  0  0  0  0  0  0
   -7.5015   -2.5930   -1.1949 H   0  0  0  0  0  0  0  0  0  0  0  0
   -8.4204   -4.0151   -0.6816 H   0  0  0  0  0  0  0  0  0  0  0  0
   -8.5482   -2.3066    0.7575 H   0  0  0  0  0  0  0  0  0  0  0  0
   -5.2137   -5.2761    1.1155 H   0  0  0  0  0  0  0  0  0  0  0  0
   -5.5870   -3.5933    1.4862 H   0  0  0  0  0  0  0  0  0  0  0  0
   -3.7499   -4.5959   -0.6209 H   0  0  0  0  0  0  0  0  0  0  0  0
   -1.5855   -6.4482   -0.6312 H   0  0  0  0  0  0  0  0  0  0  0  0
  1  2  1  0  0  0  0
  1 29  1  0  0  0  0
  1 30  1  0  0  0  0
  1 31  1  0  0  0  0
  2  3  1  0  0  0  0
  2 32  1  0  0  0  0
  2 33  1  0  0  0  0
  3  4  1  0  0  0  0
  3 34  1  0  0  0  0
  3 35  1  0  0  0  0
  4  5  1  0  0  0  0
  4 36  1  0  0  0  0
  4 37  1  0  0  0  0
  5  6  1  0  0  0  0
  5 38  1  0  0  0  0
  5 39  1  0  0  0  0
  6  7  1  0  0  0  0
  6 40  1  0  0  0  0
  6 41  1  0  0  0  0
  7  8  1  0  0  0  0
  7 42  1  0  0  0  0
  7 43  1  0  0  0  0
  8  9  1  0  0  0  0
  8 44  1  0  0  0  0
  8 45  1  0  0  0  0
  9 10  1  0  0  0  0
  9 46  1  0  0  0  0
  9 47  1  0  0  0  0
 10 15  2  0  0  0  0
 10 11  1  0  0  0  0
 11 12  2  0  0  0  0
 11 48  1  0  0  0  0
 12 13  1  0  0  0  0
 12 28  1  0  0  0  0
 13 27  1  0  0  0  0
 13 14  2  0  0  0  0
 14 15  1  0  0  0  0
 14 16  1  0  0  0  0
 15 49  1  0  0  0  0
 16 17  1  0  0  0  0
 17 20  1  0  0  0  0
 17 18  1  0  0  0  0
 17 19  1  0  0  0  0
 18 50  1  0  0  0  0
 18 51  1  0  0  0  0
 18 52  1  0  0  0  0
 19 53  1  0  0  0  0
 19 54  1  0  0  0  0
 19 55  1  0  0  0  0
 20 21  1  0  0  0  0
 20 27  1  0  0  0  0
 20 56  1  1  0  0  0
 21 22  1  0  0  0  0
 21 57  1  0  0  0  0
 21 58  1  0  0  0  0
 22 23  2  3  0  0  0
 22 59  1  0  0  0  0
 23 26  1  0  0  0  0
 23 24  1  0  0  0  0
 24 25  1  0  0  0  0
 24 60  1  0  0  0  0
 24 61  1  0  0  0  0
 25 62  1  0  0  0  0
 26 63  1  0  0  0  0
 26 64  1  0  0  0  0
 27 26  1  0  0  0  0
 27 65  1  6  0  0  0
 28 66  1  0  0  0  0
M  END
$$$$
CHEMBL4588694_8GUS
 OpenBabel12022418143D

 64 66  0  0  0  0  0  0  0  0999 V2000
    1.0302   -0.1935   -0.6385 C   0  0  0  0  0  0  0  0  0  0  0  0
    2.4865    0.0326   -0.1620 C   0  0  0  0  0  0  0  0  0  0  0  0
    3.3387   -1.0497   -0.8697 C   0  0  0  0  0  0  0  0  0  0  0  0
    2.9135    1.4757   -0.4972 C   0  0  0  0  0  0  0  0  0  0  0  0
    4.0579    1.7614   -1.2592 C   0  0  0  0  0  0  0  0  0  0  0  0
    4.4485    3.0786   -1.5153 C   0  0  0  0  0  0  0  0  0  0  0  0
    3.6886    4.1513   -1.0161 C   0  0  0  0  0  0  0  0  0  0  0  0
    4.1893    5.4466   -1.3774 C   0  0  0  0  0  0  0  0  0  0  0  0
    5.3225    5.6677   -2.1006 C   0  0  0  0  0  0  0  0  0  0  0  0
    6.1640    4.5339   -2.5610 C   0  0  0  0  0  0  0  0  0  0  0  0
    7.5357    4.5673   -1.8720 C   0  0  0  0  0  0  0  0  0  0  0  0
    6.3484    4.5652   -4.0833 C   0  0  0  0  0  0  0  0  0  0  0  0
    5.5982    3.2106   -2.2691 O   0  0  0  0  0  0  0  0  0  0  0  0
    5.3817    7.0659   -2.2023 C   0  0  0  0  0  0  0  0  0  0  0  0
    4.3497    7.6583   -1.5855 N   0  0  0  0  0  0  0  0  0  0  0  0
    3.5877    6.6100   -1.0566 O   0  0  0  0  0  0  0  0  0  0  0  0
    2.5631    3.8972   -0.2273 C   0  0  0  0  0  0  0  0  0  0  0  0
    2.1764    2.5697    0.0080 C   0  0  0  0  0  0  0  0  0  0  0  0
    1.8711    4.9734    0.2553 O   0  0  0  0  0  0  0  0  0  0  0  0
    1.2043    4.8081    1.5055 C   0  0  0  0  0  0  0  0  0  0  0  0
    1.1167    6.1655    2.1956 C   0  0  0  0  0  0  0  0  0  0  0  0
    0.3749    7.2009    1.3604 C   0  0  0  0  0  0  0  0  0  0  0  0
    0.3088    8.4348    2.0684 O   0  0  0  0  0  0  0  0  0  0  0  0
    2.5425   -0.2002    1.3819 C   0  0  0  0  0  0  0  0  0  0  0  0
    3.9260    0.0305    2.0054 C   0  0  0  0  0  0  0  0  0  0  0  0
    3.9189   -0.1776    3.5202 C   0  0  0  0  0  0  0  0  0  0  0  0
    5.3184    0.0673    4.0876 C   0  0  0  0  0  0  0  0  0  0  0  0
    5.3683   -0.1381    5.5988 C   0  0  0  0  0  0  0  0  0  0  0  0
    6.7709    0.1062    6.1339 C   0  0  0  0  0  0  0  0  0  0  0  0
    0.9274    0.0198   -1.7092 H   0  0  0  0  0  0  0  0  0  0  0  0
    0.3132    0.4404   -0.1061 H   0  0  0  0  0  0  0  0  0  0  0  0
    0.7188   -1.2320   -0.4745 H   0  0  0  0  0  0  0  0  0  0  0  0
    3.2737   -0.9566   -1.9605 H   0  0  0  0  0  0  0  0  0  0  0  0
    2.9923   -2.0567   -0.6085 H   0  0  0  0  0  0  0  0  0  0  0  0
    4.3979   -0.9951   -0.5991 H   0  0  0  0  0  0  0  0  0  0  0  0
    4.6805    0.9698   -1.6666 H   0  0  0  0  0  0  0  0  0  0  0  0
    8.0678    5.5054   -2.0651 H   0  0  0  0  0  0  0  0  0  0  0  0
    8.1662    3.7358   -2.2076 H   0  0  0  0  0  0  0  0  0  0  0  0
    7.4285    4.4561   -0.7861 H   0  0  0  0  0  0  0  0  0  0  0  0
    6.7855    5.5086   -4.4272 H   0  0  0  0  0  0  0  0  0  0  0  0
    5.3867    4.4284   -4.5927 H   0  0  0  0  0  0  0  0  0  0  0  0
    6.9935    3.7438   -4.4168 H   0  0  0  0  0  0  0  0  0  0  0  0
    6.1179    7.6888   -2.6904 H   0  0  0  0  0  0  0  0  0  0  0  0
    1.2823    2.3748    0.5941 H   0  0  0  0  0  0  0  0  0  0  0  0
    1.7505    4.1240    2.1672 H   0  0  0  0  0  0  0  0  0  0  0  0
    0.1991    4.4100    1.3250 H   0  0  0  0  0  0  0  0  0  0  0  0
    2.1272    6.5425    2.3981 H   0  0  0  0  0  0  0  0  0  0  0  0
    0.6286    6.0544    3.1712 H   0  0  0  0  0  0  0  0  0  0  0  0
   -0.6473    6.8751    1.1433 H   0  0  0  0  0  0  0  0  0  0  0  0
    0.8850    7.3881    0.4108 H   0  0  0  0  0  0  0  0  0  0  0  0
   -0.1389    8.2710    2.9142 H   0  0  0  0  0  0  0  0  0  0  0  0
    2.2223   -1.2273    1.6036 H   0  0  0  0  0  0  0  0  0  0  0  0
    1.8184    0.4530    1.8867 H   0  0  0  0  0  0  0  0  0  0  0  0
    4.2681    1.0506    1.7970 H   0  0  0  0  0  0  0  0  0  0  0  0
    4.6568   -0.6528    1.5609 H   0  0  0  0  0  0  0  0  0  0  0  0
    3.5942   -1.1981    3.7541 H   0  0  0  0  0  0  0  0  0  0  0  0
    3.2030    0.5096    3.9876 H   0  0  0  0  0  0  0  0  0  0  0  0
    5.6356    1.0897    3.8473 H   0  0  0  0  0  0  0  0  0  0  0  0
    6.0315   -0.6114    3.6033 H   0  0  0  0  0  0  0  0  0  0  0  0
    5.0589   -1.1596    5.8477 H   0  0  0  0  0  0  0  0  0  0  0  0
    4.6680    0.5453    6.0926 H   0  0  0  0  0  0  0  0  0  0  0  0
    7.4895   -0.5813    5.6759 H   0  0  0  0  0  0  0  0  0  0  0  0
    6.7974   -0.0452    7.2170 H   0  0  0  0  0  0  0  0  0  0  0  0
    7.0968    1.1303    5.9246 H   0  0  0  0  0  0  0  0  0  0  0  0
  1  2  1  0  0  0  0
  1 30  1  0  0  0  0
  1 31  1  0  0  0  0
  1 32  1  0  0  0  0
  2  3  1  0  0  0  0
  2  4  1  0  0  0  0
  2 24  1  0  0  0  0
  3 33  1  0  0  0  0
  3 34  1  0  0  0  0
  3 35  1  0  0  0  0
  4 18  2  0  0  0  0
  4  5  1  0  0  0  0
  5  6  2  0  0  0  0
  5 36  1  0  0  0  0
  6 13  1  0  0  0  0
  6  7  1  0  0  0  0
  7  8  1  0  0  0  0
  7 17  2  0  0  0  0
  8 16  1  0  0  0  0
  8  9  2  0  0  0  0
  9 10  1  0  0  0  0
  9 14  1  0  0  0  0
 10 11  1  0  0  0  0
 10 12  1  0  0  0  0
 10 13  1  0  0  0  0
 11 37  1  0  0  0  0
 11 38  1  0  0  0  0
 11 39  1  0  0  0  0
 12 40  1  0  0  0  0
 12 41  1  0  0  0  0
 12 42  1  0  0  0  0
 14 15  2  0  0  0  0
 14 43  1  0  0  0  0
 15 16  1  0  0  0  0
 17 18  1  0  0  0  0
 17 19  1  0  0  0  0
 18 44  1  0  0  0  0
 19 20  1  0  0  0  0
 20 21  1  0  0  0  0
 20 45  1  0  0  0  0
 20 46  1  0  0  0  0
 21 22  1  0  0  0  0
 21 47  1  0  0  0  0
 21 48  1  0  0  0  0
 22 23  1  0  0  0  0
 22 49  1  0  0  0  0
 22 50  1  0  0  0  0
 23 51  1  0  0  0  0
 24 25  1  0  0  0  0
 24 52  1  0  0  0  0
 24 53  1  0  0  0  0
 25 26  1  0  0  0  0
 25 54  1  0  0  0  0
 25 55  1  0  0  0  0
 26 27  1  0  0  0  0
 26 56  1  0  0  0  0
 26 57  1  0  0  0  0
 27 28  1  0  0  0  0
 27 58  1  0  0  0  0
 27 59  1  0  0  0  0
 28 29  1  0  0  0  0
 28 60  1  0  0  0  0
 28 61  1  0  0  0  0
 29 62  1  0  0  0  0
 29 63  1  0  0  0  0
 29 64  1  0  0  0  0
M  END
$$$$
CHEMBL4475022_6KPF
 OpenBabel12022418153D

 63 65  0  0  1  0  0  0  0  0999 V2000
    4.4207   -7.8942    2.0577 C   0  0  0  0  0  0  0  0  0  0  0  0
    5.7054   -7.1494    2.4109 C   0  0  0  0  0  0  0  0  0  0  0  0
    5.6864   -6.6623    3.8590 C   0  0  0  0  0  0  0  0  0  0  0  0
    6.9792   -5.9560    4.2903 C   0  0  0  0  0  0  0  0  0  0  0  0
    7.2874   -4.7220    3.6019 O   0  0  0  0  0  0  0  0  0  0  0  0
    6.5924   -3.6294    4.0178 C   0  0  0  0  0  0  0  0  0  0  0  0
    5.5245   -3.7186    4.6510 O   0  0  0  0  0  0  0  0  0  0  0  0
    7.2472   -2.2751    3.6521 C   0  0  0  0  0  0  0  0  0  0  0  0
    6.7094   -1.8770    2.2729 C   0  0  0  0  0  0  0  0  0  0  0  0
    6.6607   -1.2709    4.6846 C   0  0  0  0  0  0  0  0  0  0  0  0
    8.7958   -2.2459    3.7684 C   0  0  0  0  0  0  0  0  0  0  0  0
    9.3764   -2.6605    4.9595 C   0  0  0  0  0  0  0  0  0  0  0  0
   10.7633   -2.5781    5.1409 C   0  0  0  0  0  0  0  0  0  0  0  0
   11.7632   -2.1207    4.1202 C   0  0  0  0  0  0  0  0  0  0  0  0
   13.3730   -2.5550    4.2796 C   0  0  1  0  0  0  0  0  0  0  0  0
   14.9055   -2.0813    4.8382 C   0  0  0  0  0  0  0  0  0  0  0  0
   15.7667   -3.2055    5.6792 C   0  0  0  0  0  0  0  0  0  0  0  0
   15.2570   -4.4265    5.8645 C   0  0  0  0  0  0  0  0  0  0  0  0
   13.8811   -4.7233    5.5410 C   0  0  0  0  0  0  0  0  0  0  0  0
   13.0313   -3.4940    5.3678 C   0  0  1  0  0  0  0  0  0  0  0  0
   12.4769   -2.5540    6.5764 C   0  0  0  0  0  0  0  0  0  0  0  0
   13.3597   -2.6601    7.8393 C   0  0  0  0  0  0  0  0  0  0  0  0
   12.0649   -1.0007    6.7248 C   0  0  0  0  0  0  0  0  0  0  0  0
   11.1412   -3.0414    6.4682 O   0  0  0  0  0  0  0  0  0  0  0  0
   17.0666   -3.0034    6.4066 C   0  0  0  0  0  0  0  0  0  0  0  0
   17.0725   -1.8202    7.1763 O   0  0  0  0  0  0  0  0  0  0  0  0
   11.1373   -1.7358    2.9222 C   0  0  0  0  0  0  0  0  0  0  0  0
    9.7014   -1.7796    2.7684 C   0  0  0  0  0  0  0  0  0  0  0  0
   11.8063   -1.3667    1.7919 O   0  0  0  0  0  0  0  0  0  0  0  0
    4.4554   -8.2417    1.0205 H   0  0  0  0  0  0  0  0  0  0  0  0
    3.5445   -7.2469    2.1684 H   0  0  0  0  0  0  0  0  0  0  0  0
    4.2797   -8.7695    2.7006 H   0  0  0  0  0  0  0  0  0  0  0  0
    5.8285   -6.3008    1.7315 H   0  0  0  0  0  0  0  0  0  0  0  0
    6.5562   -7.8226    2.2570 H   0  0  0  0  0  0  0  0  0  0  0  0
    5.5360   -7.5256    4.5194 H   0  0  0  0  0  0  0  0  0  0  0  0
    4.8225   -6.0051    3.9983 H   0  0  0  0  0  0  0  0  0  0  0  0
    7.8309   -6.6225    4.1284 H   0  0  0  0  0  0  0  0  0  0  0  0
    6.9482   -5.7562    5.3688 H   0  0  0  0  0  0  0  0  0  0  0  0
    5.6085   -1.9138    2.2498 H   0  0  0  0  0  0  0  0  0  0  0  0
    7.0673   -2.5481    1.4907 H   0  0  0  0  0  0  0  0  0  0  0  0
    7.0000   -0.8523    2.0123 H   0  0  0  0  0  0  0  0  0  0  0  0
    5.5694   -1.2115    4.6181 H   0  0  0  0  0  0  0  0  0  0  0  0
    7.0622   -0.2322    4.5297 H   0  0  0  0  0  0  0  0  0  0  0  0
    6.8937   -1.5654    5.7187 H   0  0  0  0  0  0  0  0  0  0  0  0
    8.7727   -3.0472    5.7815 H   0  0  0  0  0  0  0  0  0  0  0  0
   13.5969   -3.0716    3.3278 H   0  0  0  0  0  0  0  0  0  0  0  0
   14.8776   -1.1582    5.4243 H   0  0  0  0  0  0  0  0  0  0  0  0
   15.5405   -1.8891    3.9623 H   0  0  0  0  0  0  0  0  0  0  0  0
   15.8037   -5.2205    6.3990 H   0  0  0  0  0  0  0  0  0  0  0  0
   13.8791   -5.3133    4.6063 H   0  0  0  0  0  0  0  0  0  0  0  0
   13.4310   -5.3649    6.3175 H   0  0  0  0  0  0  0  0  0  0  0  0
   12.2089   -4.1220    4.9647 H   0  0  0  0  0  0  0  0  0  0  0  0
   14.1828   -3.3555    7.7727 H   0  0  0  0  0  0  0  0  0  0  0  0
   12.7984   -2.8539    8.7462 H   0  0  0  0  0  0  0  0  0  0  0  0
   13.8959   -1.6946    7.9637 H   0  0  0  0  0  0  0  0  0  0  0  0
   11.0746   -0.7052    6.3279 H   0  0  0  0  0  0  0  0  0  0  0  0
   12.8006   -0.2791    6.3653 H   0  0  0  0  0  0  0  0  0  0  0  0
   11.8708   -0.8015    7.7942 H   0  0  0  0  0  0  0  0  0  0  0  0
   17.2228   -3.8277    7.1649 H   0  0  0  0  0  0  0  0  0  0  0  0
   17.9662   -3.0804    5.7760 H   0  0  0  0  0  0  0  0  0  0  0  0
   16.4739   -1.9847    7.9260 H   0  0  0  0  0  0  0  0  0  0  0  0
    9.3087   -1.4699    1.7983 H   0  0  0  0  0  0  0  0  0  0  0  0
   12.7535   -1.5109    1.9245 H   0  0  0  0  0  0  0  0  0  0  0  0
  1  2  1  0  0  0  0
  1 30  1  0  0  0  0
  1 31  1  0  0  0  0
  1 32  1  0  0  0  0
  2  3  1  0  0  0  0
  2 33  1  0  0  0  0
  2 34  1  0  0  0  0
  3  4  1  0  0  0  0
  3 35  1  0  0  0  0
  3 36  1  0  0  0  0
  4  5  1  0  0  0  0
  4 37  1  0  0  0  0
  4 38  1  0  0  0  0
  5  6  1  0  0  0  0
  6  7  2  0  0  0  0
  6  8  1  0  0  0  0
  8  9  1  0  0  0  0
  8 10  1  0  0  0  0
  8 11  1  0  0  0  0
  9 39  1  0  0  0  0
  9 40  1  0  0  0  0
  9 41  1  0  0  0  0
 10 42  1  0  0  0  0
 10 43  1  0  0  0  0
 10 44  1  0  0  0  0
 11 28  2  0  0  0  0
 11 12  1  0  0  0  0
 12 13  2  0  0  0  0
 12 45  1  0  0  0  0
 13 24  1  0  0  0  0
 13 14  1  0  0  0  0
 14 15  1  0  0  0  0
 14 27  2  0  0  0  0
 15 16  1  0  0  0  0
 15 20  1  0  0  0  0
 15 46  1  6  0  0  0
 16 17  1  0  0  0  0
 16 47  1  0  0  0  0
 16 48  1  0  0  0  0
 17 18  2  0  0  0  0
 17 25  1  0  0  0  0
 18 19  1  0  0  0  0
 18 49  1  0  0  0  0
 19 50  1  0  0  0  0
 19 51  1  0  0  0  0
 20 19  1  0  0  0  0
 20 21  1  0  0  0  0
 20 52  1  6  0  0  0
 21 24  1  0  0  0  0
 21 22  1  0  0  0  0
 21 23  1  0  0  0  0
 22 53  1  0  0  0  0
 22 54  1  0  0  0  0
 22 55  1  0  0  0  0
 23 56  1  0  0  0  0
 23 57  1  0  0  0  0
 23 58  1  0  0  0  0
 25 26  1  0  0  0  0
 25 59  1  0  0  0  0
 25 60  1  0  0  0  0
 26 61  1  0  0  0  0
 27 28  1  0  0  0  0
 27 29  1  0  0  0  0
 28 62  1  0  0  0  0
 29 63  1  0  0  0  0
M  END
$$$$
CHEMBL4760082_6KPF
 OpenBabel12022418153D

 68 73  0  0  1  0  0  0  0  0999 V2000
    1.2959   -0.0247    0.3430 C   0  0  0  0  0  0  0  0  0  0  0  0
    0.5236   -0.7516   -0.5671 C   0  0  0  0  0  0  0  0  0  0  0  0
   -0.9024   -0.5478   -0.6139 C   0  0  0  0  0  0  0  0  0  0  0  0
   -1.5650    0.4339    0.1321 C   0  0  0  0  0  0  0  0  0  0  0  0
   -0.8314    0.9890    1.1458 C   0  0  0  0  0  0  0  0  0  0  0  0
    0.5480    0.8636    1.1827 C   0  0  0  0  0  0  0  0  0  0  0  0
   -1.4243    1.3714    2.3165 O   0  0  0  0  0  0  0  0  0  0  0  0
   -3.0089    0.7455   -0.1979 C   0  0  1  0  0  0  0  0  0  0  0  0
   -3.7625   -0.5636   -0.0441 C   0  0  2  0  0  0  0  0  0  0  0  0
   -3.0276   -1.7114   -0.8410 C   0  0  0  0  0  0  0  0  0  0  0  0
   -2.9352   -2.9226    0.1088 C   0  0  0  0  0  0  0  0  0  0  0  0
   -3.7878   -2.1404   -2.1054 C   0  0  0  0  0  0  0  0  0  0  0  0
   -1.6751   -1.4191   -1.3452 O   0  0  0  0  0  0  0  0  0  0  0  0
   -5.2700   -0.4040   -0.3379 C   0  0  0  0  0  0  0  0  0  0  0  0
   -5.9106    0.7242    0.4700 C   0  0  0  0  0  0  0  0  0  0  0  0
   -5.1857    2.0543    0.2308 C   0  0  2  0  0  0  0  0  0  0  0  0
   -3.6887    1.9119    0.5579 C   0  0  0  0  0  0  0  0  0  0  0  0
   -5.8154    3.1840    1.0598 C   0  0  0  0  0  0  0  0  0  0  0  0
   -7.1946    3.3408    0.7474 O   0  0  0  0  0  0  0  0  0  0  0  0
    2.7899   -0.2201    0.8373 C   0  0  2  0  0  0  0  0  0  0  0  0
    2.5009   -0.8333    2.2333 C   0  0  0  0  0  0  0  0  0  0  0  0
    3.6163   -0.5246    3.1959 C   0  0  2  0  0  0  0  0  0  0  0  0
    4.0629    0.9459    3.1329 C   0  0  0  0  0  0  0  0  0  0  0  0
    4.5722    1.3288    1.7354 C   0  0  2  0  0  0  0  0  0  0  0  0
    3.4278    1.1982    0.7474 C   0  0  0  0  0  0  0  0  0  0  0  0
    5.6662    0.3773    1.2835 C   0  0  0  0  0  0  0  0  0  0  0  0
    5.1045   -1.0607    1.2770 C   0  0  2  0  0  0  0  0  0  0  0  0
    4.7300   -1.4249    2.7361 C   0  0  0  0  0  0  0  0  0  0  0  0
    6.2378   -2.0770    0.9579 C   0  0  0  0  0  0  0  0  0  0  0  0
    7.1775   -1.5100    0.0308 N   0  0  0  0  0  0  0  0  0  0  0  0
    7.2298   -2.0324   -1.0230 C   0  0  0  0  0  0  0  0  0  0  0  0
    7.2579   -2.7411   -2.4634 S   0  0  0  0  0  0  0  0  0  0  0  0
    3.8854   -1.1224    0.3656 O   0  0  0  0  0  0  0  0  0  0  0  0
    0.9730   -1.5124   -1.1993 H   0  0  0  0  0  0  0  0  0  0  0  0
    1.0374    1.3671    2.0192 H   0  0  0  0  0  0  0  0  0  0  0  0
   -1.5567    0.5225    2.7895 H   0  0  0  0  0  0  0  0  0  0  0  0
   -3.0288    1.0348   -1.2596 H   0  0  0  0  0  0  0  0  0  0  0  0
   -3.7150   -0.8153    1.0286 H   0  0  0  0  0  0  0  0  0  0  0  0
   -2.3937   -2.6557    1.0253 H   0  0  0  0  0  0  0  0  0  0  0  0
   -3.9327   -3.2709    0.4031 H   0  0  0  0  0  0  0  0  0  0  0  0
   -2.3883   -3.7530   -0.3451 H   0  0  0  0  0  0  0  0  0  0  0  0
   -3.8047   -1.3237   -2.8363 H   0  0  0  0  0  0  0  0  0  0  0  0
   -4.8153   -2.4552   -1.9011 H   0  0  0  0  0  0  0  0  0  0  0  0
   -3.2799   -2.9803   -2.5928 H   0  0  0  0  0  0  0  0  0  0  0  0
   -5.7981   -1.3364   -0.1062 H   0  0  0  0  0  0  0  0  0  0  0  0
   -5.4334   -0.1888   -1.4008 H   0  0  0  0  0  0  0  0  0  0  0  0
   -6.9668    0.8099    0.1848 H   0  0  0  0  0  0  0  0  0  0  0  0
   -5.8940    0.4707    1.5377 H   0  0  0  0  0  0  0  0  0  0  0  0
   -5.2988    2.3090   -0.8315 H   0  0  0  0  0  0  0  0  0  0  0  0
   -3.1736    2.8503    0.3140 H   0  0  0  0  0  0  0  0  0  0  0  0
   -3.6048    1.7761    1.6409 H   0  0  0  0  0  0  0  0  0  0  0  0
   -5.7408    2.9766    2.1327 H   0  0  0  0  0  0  0  0  0  0  0  0
   -5.3131    4.1378    0.8668 H   0  0  0  0  0  0  0  0  0  0  0  0
   -7.2689    3.4634   -0.2143 H   0  0  0  0  0  0  0  0  0  0  0  0
    1.5604   -0.5671    2.7169 H   0  0  0  0  0  0  0  0  0  0  0  0
    2.4011   -1.9247    2.0887 H   0  0  0  0  0  0  0  0  0  0  0  0
    3.3050   -0.7861    4.2109 H   0  0  0  0  0  0  0  0  0  0  0  0
    3.2318    1.6032    3.4126 H   0  0  0  0  0  0  0  0  0  0  0  0
    4.8658    1.1061    3.8603 H   0  0  0  0  0  0  0  0  0  0  0  0
    4.9551    2.3558    1.7335 H   0  0  0  0  0  0  0  0  0  0  0  0
    3.8009    1.3614   -0.2769 H   0  0  0  0  0  0  0  0  0  0  0  0
    2.7361    2.0259    0.9259 H   0  0  0  0  0  0  0  0  0  0  0  0
    6.5339    0.4597    1.9525 H   0  0  0  0  0  0  0  0  0  0  0  0
    6.0045    0.6697    0.2807 H   0  0  0  0  0  0  0  0  0  0  0  0
    5.5833   -1.3143    3.4173 H   0  0  0  0  0  0  0  0  0  0  0  0
    4.4150   -2.4757    2.7892 H   0  0  0  0  0  0  0  0  0  0  0  0
    6.8276   -2.2541    1.8732 H   0  0  0  0  0  0  0  0  0  0  0  0
    5.8403   -3.0563    0.6710 H   0  0  0  0  0  0  0  0  0  0  0  0
  1  6  2  0  0  0  0
  1  2  1  0  0  0  0
  2  3  2  0  0  0  0
  2 34  1  0  0  0  0
  3 13  1  0  0  0  0
  3  4  1  0  0  0  0
  4  5  2  0  0  0  0
  4  8  1  0  0  0  0
  5  6  1  0  0  0  0
  5  7  1  0  0  0  0
  6 35  1  0  0  0  0
  7 36  1  0  0  0  0
  8  9  1  0  0  0  0
  8 17  1  0  0  0  0
  8 37  1  6  0  0  0
  9 10  1  0  0  0  0
  9 14  1  0  0  0  0
  9 38  1  1  0  0  0
 10 11  1  0  0  0  0
 10 12  1  0  0  0  0
 10 13  1  0  0  0  0
 11 39  1  0  0  0  0
 11 40  1  0  0  0  0
 11 41  1  0  0  0  0
 12 42  1  0  0  0  0
 12 43  1  0  0  0  0
 12 44  1  0  0  0  0
 14 15  1  0  0  0  0
 14 45  1  0  0  0  0
 14 46  1  0  0  0  0
 15 16  1  0  0  0  0
 15 47  1  0  0  0  0
 15 48  1  0  0  0  0
 16 17  1  0  0  0  0
 16 18  1  0  0  0  0
 16 49  1  6  0  0  0
 17 50  1  0  0  0  0
 17 51  1  0  0  0  0
 18 19  1  0  0  0  0
 18 52  1  0  0  0  0
 18 53  1  0  0  0  0
 19 54  1  0  0  0  0
 20 25  1  0  0  0  0
 20 33  1  0  0  0  0
 20 21  1  0  0  0  0
 20  1  1  6  0  0  0
 21 55  1  0  0  0  0
 21 56  1  0  0  0  0
 22 21  1  0  0  0  0
 22 23  1  0  0  0  0
 22 28  1  0  0  0  0
 22 57  1  1  0  0  0
 23 58  1  0  0  0  0
 23 59  1  0  0  0  0
 24 23  1  0  0  0  0
 24 25  1  0  0  0  0
 24 26  1  0  0  0  0
 24 60  1  1  0  0  0
 25 61  1  0  0  0  0
 25 62  1  0  0  0  0
 26 27  1  0  0  0  0
 26 63  1  0  0  0  0
 26 64  1  0  0  0  0
 27 28  1  0  0  0  0
 27 33  1  0  0  0  0
 27 29  1  6  0  0  0
 28 65  1  0  0  0  0
 28 66  1  0  0  0  0
 29 30  1  0  0  0  0
 29 67  1  0  0  0  0
 29 68  1  0  0  0  0
 30 31  2  0  0  0  0
 31 32  2  0  0  0  0
M  END
$$$$
CHEMBL3669059_8GUT
 OpenBabel12022418153D

 42 44  0  0  0  0  0  0  0  0999 V2000
    1.2497   -0.1034    0.6670 C   0  0  0  0  0  0  0  0  0  0  0  0
    2.5401    0.0408    0.0880 O   0  0  0  0  0  0  0  0  0  0  0  0
    3.1746    1.1909    0.5071 C   0  0  0  0  0  0  0  0  0  0  0  0
    2.8445    1.7318    1.6696 N   0  0  0  0  0  0  0  0  0  0  0  0
    3.5566    2.8093    1.9886 C   0  0  0  0  0  0  0  0  0  0  0  0
    3.1961    3.5179    3.2346 C   0  0  0  0  0  0  0  0  0  0  0  0
    3.8793    4.6806    3.6453 C   0  0  0  0  0  0  0  0  0  0  0  0
    3.5391    5.3381    4.8318 C   0  0  0  0  0  0  0  0  0  0  0  0
    2.5060    4.8536    5.6352 C   0  0  0  0  0  0  0  0  0  0  0  0
    1.8019    3.7188    5.2415 C   0  0  0  0  0  0  0  0  0  0  0  0
    2.1432    3.0626    4.0545 C   0  0  0  0  0  0  0  0  0  0  0  0
    2.0726    5.6227    7.1164 Cl  0  0  0  0  0  0  0  0  0  0  0  0
    4.2243    6.4621    5.2047 O   0  0  0  0  0  0  0  0  0  0  0  0
    4.5417    3.3185    1.2454 N   0  0  0  0  0  0  0  0  0  0  0  0
    4.7410    2.7298    0.0755 C   0  0  0  0  0  0  0  0  0  0  0  0
    4.0967    1.6451   -0.3265 N   0  0  0  0  0  0  0  0  0  0  0  0
    5.6297    3.3691   -0.7796 N   0  0  0  0  0  0  0  0  0  0  0  0
    5.5343    3.0128   -2.1929 C   0  0  0  0  0  0  0  0  0  0  0  0
    4.2405    3.5908   -2.7916 C   0  0  0  0  0  0  0  0  0  0  0  0
    4.0911    3.3382   -4.2686 C   0  0  0  0  0  0  0  0  0  0  0  0
    4.5489    4.2842   -5.1967 C   0  0  0  0  0  0  0  0  0  0  0  0
    4.3601    4.0736   -6.5621 C   0  0  0  0  0  0  0  0  0  0  0  0
    3.7237    2.9188   -6.9956 C   0  0  0  0  0  0  0  0  0  0  0  0
    3.2770    1.9620   -6.0920 C   0  0  0  0  0  0  0  0  0  0  0  0
    3.4646    2.1681   -4.7262 C   0  0  0  0  0  0  0  0  0  0  0  0
    3.5270    2.7281   -8.3078 F   0  0  0  0  0  0  0  0  0  0  0  0
    0.7877   -0.9968    0.2365 H   0  0  0  0  0  0  0  0  0  0  0  0
    0.6131    0.7542    0.4218 H   0  0  0  0  0  0  0  0  0  0  0  0
    1.3067   -0.2505    1.7511 H   0  0  0  0  0  0  0  0  0  0  0  0
    4.6847    5.0703    3.0253 H   0  0  0  0  0  0  0  0  0  0  0  0
    0.9886    3.3352    5.8516 H   0  0  0  0  0  0  0  0  0  0  0  0
    1.5714    2.1794    3.7708 H   0  0  0  0  0  0  0  0  0  0  0  0
    4.8842    6.6801    4.5270 H   0  0  0  0  0  0  0  0  0  0  0  0
    6.5566    3.3058   -0.3756 H   0  0  0  0  0  0  0  0  0  0  0  0
    5.6129    1.9298   -2.3498 H   0  0  0  0  0  0  0  0  0  0  0  0
    6.3942    3.4576   -2.7094 H   0  0  0  0  0  0  0  0  0  0  0  0
    4.1988    4.6720   -2.6024 H   0  0  0  0  0  0  0  0  0  0  0  0
    3.3554    3.1854   -2.2855 H   0  0  0  0  0  0  0  0  0  0  0  0
    5.0344    5.1974   -4.8590 H   0  0  0  0  0  0  0  0  0  0  0  0
    4.6966    4.8086   -7.2867 H   0  0  0  0  0  0  0  0  0  0  0  0
    2.7773    1.0704   -6.4547 H   0  0  0  0  0  0  0  0  0  0  0  0
    3.1036    1.4244   -4.0175 H   0  0  0  0  0  0  0  0  0  0  0  0
  1  2  1  0  0  0  0
  1 27  1  0  0  0  0
  1 28  1  0  0  0  0
  1 29  1  0  0  0  0
  2  3  1  0  0  0  0
  3 16  2  0  0  0  0
  3  4  1  0  0  0  0
  4  5  2  0  0  0  0
  5  6  1  0  0  0  0
  5 14  1  0  0  0  0
  6 11  2  0  0  0  0
  6  7  1  0  0  0  0
  7  8  2  0  0  0  0
  7 30  1  0  0  0  0
  8  9  1  0  0  0  0
  8 13  1  0  0  0  0
  9 10  2  0  0  0  0
  9 12  1  0  0  0  0
 10 11  1  0  0  0  0
 10 31  1  0  0  0  0
 11 32  1  0  0  0  0
 13 33  1  0  0  0  0
 14 15  2  0  0  0  0
 15 16  1  0  0  0  0
 15 17  1  0  0  0  0
 17 18  1  0  0  0  0
 17 34  1  0  0  0  0
 18 19  1  0  0  0  0
 18 35  1  0  0  0  0
 18 36  1  0  0  0  0
 19 20  1  0  0  0  0
 19 37  1  0  0  0  0
 19 38  1  0  0  0  0
 20 25  2  0  0  0  0
 20 21  1  0  0  0  0
 21 22  2  0  0  0  0
 21 39  1  0  0  0  0
 22 23  1  0  0  0  0
 22 40  1  0  0  0  0
 23 24  2  0  0  0  0
 23 26  1  0  0  0  0
 24 25  1  0  0  0  0
 24 41  1  0  0  0  0
 25 42  1  0  0  0  0
M  END
$$$$
CHEMBL5077315_6KPF
 OpenBabel12022418153D

 74 77  0  0  1  0  0  0  0  0999 V2000
    1.2533   -0.1450    0.2626 C   0  0  0  0  0  0  0  0  0  0  0  0
    0.5437    1.0903   -0.3593 C   0  0  0  0  0  0  0  0  0  0  0  0
   -0.9321    0.9105   -0.0172 C   0  0  0  0  0  0  0  0  0  0  0  0
   -1.1480   -0.5998    0.0200 C   0  0  0  0  0  0  0  0  0  0  0  0
    0.2360   -1.2346   -0.1523 C   0  0  0  0  0  0  0  0  0  0  0  0
    1.4273   -0.0778    1.7954 C   0  0  0  0  0  0  0  0  0  0  0  0
    1.2912    1.1095    2.5193 C   0  0  0  0  0  0  0  0  0  0  0  0
    1.5327    1.1562    3.8995 C   0  0  0  0  0  0  0  0  0  0  0  0
    1.9661    0.0339    4.6129 C   0  0  0  0  0  0  0  0  0  0  0  0
    2.2465    0.0389    6.1038 C   0  0  2  0  0  0  0  0  0  0  0  0
    2.3643   -1.4329    6.5861 C   0  0  1  0  0  0  0  0  0  0  0  0
    3.3969   -2.1577    5.6895 C   0  0  0  0  0  0  0  0  0  0  0  0
    4.7866   -1.4843    5.6315 C   0  0  0  0  0  0  0  0  0  0  0  0
    3.6260   -3.6102    6.1414 C   0  0  0  0  0  0  0  0  0  0  0  0
    2.8335   -2.2507    4.3608 O   0  0  0  0  0  0  0  0  0  0  0  0
    2.1998   -1.1297    3.8756 C   0  0  0  0  0  0  0  0  0  0  0  0
    1.8289   -1.2088    2.5276 C   0  0  0  0  0  0  0  0  0  0  0  0
    2.5936   -1.5726    8.0959 C   0  0  0  0  0  0  0  0  0  0  0  0
    1.5748   -0.7634    8.8943 C   0  0  0  0  0  0  0  0  0  0  0  0
    1.5462    0.7055    8.4655 C   0  0  2  0  0  0  0  0  0  0  0  0
    1.2171    0.7903    6.9711 C   0  0  0  0  0  0  0  0  0  0  0  0
    2.8561    1.4437    8.7966 C   0  0  0  0  0  0  0  0  0  0  0  0
    3.1067    1.4203   10.1952 O   0  0  0  0  0  0  0  0  0  0  0  0
    1.3872    2.3582    4.5343 O   0  0  0  0  0  0  0  0  0  0  0  0
    2.6463   -0.3137   -0.4327 C   0  0  0  0  0  0  0  0  0  0  0  0
    3.3448   -1.6473   -0.1548 C   0  0  0  0  0  0  0  0  0  0  0  0
    4.6786   -1.8433   -0.8650 C   0  0  0  0  0  0  0  0  0  0  0  0
    5.2322   -3.2138   -0.4566 C   0  0  0  0  0  0  0  0  0  0  0  0
    6.5999   -3.4947   -1.0592 C   0  0  0  0  0  0  0  0  0  0  0  0
    7.0996   -4.8747   -0.6373 C   0  0  0  0  0  0  0  0  0  0  0  0
    8.4053   -5.1004   -1.2590 N   0  0  0  0  0  0  0  0  0  0  0  0
    8.9344   -6.1965   -1.0013 N   0  3  0  0  0  0  0  0  0  0  0  0
    9.4098   -7.2006   -0.7624 N   0  5  0  0  0  0  0  0  0  0  0  0
    0.6423    1.0711   -1.4534 H   0  0  0  0  0  0  0  0  0  0  0  0
    0.9382    2.0585   -0.0405 H   0  0  0  0  0  0  0  0  0  0  0  0
   -1.5793    1.4019   -0.7505 H   0  0  0  0  0  0  0  0  0  0  0  0
   -1.1654    1.3450    0.9613 H   0  0  0  0  0  0  0  0  0  0  0  0
   -1.8267   -0.9243   -0.7764 H   0  0  0  0  0  0  0  0  0  0  0  0
   -1.5980   -0.8938    0.9746 H   0  0  0  0  0  0  0  0  0  0  0  0
    0.3104   -2.1716    0.4075 H   0  0  0  0  0  0  0  0  0  0  0  0
    0.3702   -1.4861   -1.2131 H   0  0  0  0  0  0  0  0  0  0  0  0
    1.0040    2.0296    2.0240 H   0  0  0  0  0  0  0  0  0  0  0  0
    3.2103    0.5466    6.2260 H   0  0  0  0  0  0  0  0  0  0  0  0
    1.3879   -1.9089    6.3907 H   0  0  0  0  0  0  0  0  0  0  0  0
    5.1980   -1.3226    6.6341 H   0  0  0  0  0  0  0  0  0  0  0  0
    4.7737   -0.5250    5.1054 H   0  0  0  0  0  0  0  0  0  0  0  0
    5.4992   -2.1052    5.0753 H   0  0  0  0  0  0  0  0  0  0  0  0
    4.1049   -3.6641    7.1252 H   0  0  0  0  0  0  0  0  0  0  0  0
    4.2742   -4.1398    5.4320 H   0  0  0  0  0  0  0  0  0  0  0  0
    2.6842   -4.1668    6.1741 H   0  0  0  0  0  0  0  0  0  0  0  0
    1.9343   -2.1782    2.0455 H   0  0  0  0  0  0  0  0  0  0  0  0
    3.6108   -1.2760    8.3686 H   0  0  0  0  0  0  0  0  0  0  0  0
    2.4836   -2.6229    8.3909 H   0  0  0  0  0  0  0  0  0  0  0  0
    1.7823   -0.8534    9.9653 H   0  0  0  0  0  0  0  0  0  0  0  0
    0.5771   -1.1955    8.7367 H   0  0  0  0  0  0  0  0  0  0  0  0
    0.7376    1.1946    9.0242 H   0  0  0  0  0  0  0  0  0  0  0  0
    0.2133    0.3814    6.7851 H   0  0  0  0  0  0  0  0  0  0  0  0
    1.1676    1.8505    6.7140 H   0  0  0  0  0  0  0  0  0  0  0  0
    2.8067    2.4888    8.4722 H   0  0  0  0  0  0  0  0  0  0  0  0
    3.7246    0.9944    8.3077 H   0  0  0  0  0  0  0  0  0  0  0  0
    2.3648    1.8742   10.6284 H   0  0  0  0  0  0  0  0  0  0  0  0
    0.8992    2.9643    3.9508 H   0  0  0  0  0  0  0  0  0  0  0  0
    3.3058    0.5083   -0.1244 H   0  0  0  0  0  0  0  0  0  0  0  0
    2.5234   -0.2189   -1.5195 H   0  0  0  0  0  0  0  0  0  0  0  0
    2.6737   -2.4750   -0.4102 H   0  0  0  0  0  0  0  0  0  0  0  0
    3.5835   -1.7184    0.9061 H   0  0  0  0  0  0  0  0  0  0  0  0
    5.3780   -1.0540   -0.5652 H   0  0  0  0  0  0  0  0  0  0  0  0
    4.5518   -1.7870   -1.9512 H   0  0  0  0  0  0  0  0  0  0  0  0
    4.5256   -3.9955   -0.7653 H   0  0  0  0  0  0  0  0  0  0  0  0
    5.3036   -3.2695    0.6377 H   0  0  0  0  0  0  0  0  0  0  0  0
    7.3150   -2.7294   -0.7337 H   0  0  0  0  0  0  0  0  0  0  0  0
    6.5449   -3.4376   -2.1529 H   0  0  0  0  0  0  0  0  0  0  0  0
    6.3883   -5.6455   -0.9607 H   0  0  0  0  0  0  0  0  0  0  0  0
    7.1833   -4.9274    0.4552 H   0  0  0  0  0  0  0  0  0  0  0  0
  1  5  1  0  0  0  0
  1  2  1  0  0  0  0
  1  6  1  0  0  0  0
  1 25  1  0  0  0  0
  2  3  1  0  0  0  0
  2 34  1  0  0  0  0
  2 35  1  0  0  0  0
  3  4  1  0  0  0  0
  3 36  1  0  0  0  0
  3 37  1  0  0  0  0
  4  5  1  0  0  0  0
  4 38  1  0  0  0  0
  4 39  1  0  0  0  0
  5 40  1  0  0  0  0
  5 41  1  0  0  0  0
  6 17  2  0  0  0  0
  6  7  1  0  0  0  0
  7  8  2  0  0  0  0
  7 42  1  0  0  0  0
  8  9  1  0  0  0  0
  8 24  1  0  0  0  0
  9 16  2  0  0  0  0
  9 10  1  0  0  0  0
 10 11  1  0  0  0  0
 10 21  1  0  0  0  0
 10 43  1  1  0  0  0
 11 12  1  0  0  0  0
 11 18  1  0  0  0  0
 11 44  1  6  0  0  0
 12 13  1  0  0  0  0
 12 14  1  0  0  0  0
 12 15  1  0  0  0  0
 13 45  1  0  0  0  0
 13 46  1  0  0  0  0
 13 47  1  0  0  0  0
 14 48  1  0  0  0  0
 14 49  1  0  0  0  0
 14 50  1  0  0  0  0
 15 16  1  0  0  0  0
 16 17  1  0  0  0  0
 17 51  1  0  0  0  0
 18 19  1  0  0  0  0
 18 52  1  0  0  0  0
 18 53  1  0  0  0  0
 19 20  1  0  0  0  0
 19 54  1  0  0  0  0
 19 55  1  0  0  0  0
 20 21  1  0  0  0  0
 20 22  1  0  0  0  0
 20 56  1  1  0  0  0
 21 57  1  0  0  0  0
 21 58  1  0  0  0  0
 22 23  1  0  0  0  0
 22 59  1  0  0  0  0
 22 60  1  0  0  0  0
 23 61  1  0  0  0  0
 24 62  1  0  0  0  0
 25 26  1  0  0  0  0
 25 63  1  0  0  0  0
 25 64  1  0  0  0  0
 26 27  1  0  0  0  0
 26 65  1  0  0  0  0
 26 66  1  0  0  0  0
 27 28  1  0  0  0  0
 27 67  1  0  0  0  0
 27 68  1  0  0  0  0
 28 29  1  0  0  0  0
 28 69  1  0  0  0  0
 28 70  1  0  0  0  0
 29 30  1  0  0  0  0
 29 71  1  0  0  0  0
 29 72  1  0  0  0  0
 30 31  1  0  0  0  0
 30 73  1  0  0  0  0
 30 74  1  0  0  0  0
 31 32  2  0  0  0  0
 32 33  2  0  0  0  0
M  CHG  2  32   1  33  -1
M  END
$$$$
CHEMBL4079650_5ZTY
 OpenBabel12022418153D

 60 64  0  0  1  0  0  0  0  0999 V2000
    0.0216    0.8532   -3.3074 C   0  0  0  0  0  0  0  0  0  0  0  0
    0.8474   -0.1747   -2.4811 C   0  0  2  0  0  0  0  0  0  0  0  0
    0.1948   -1.5869   -2.7338 C   0  0  0  0  0  0  0  0  0  0  0  0
   -1.3035   -1.5856   -2.3082 C   0  0  2  0  0  0  0  0  0  0  0  0
   -2.0520   -0.5351   -3.1479 C   0  0  0  0  0  0  0  0  0  0  0  0
   -1.4595    0.8540   -2.8838 C   0  0  1  0  0  0  0  0  0  0  0  0
   -1.5728    1.1769   -1.3855 C   0  0  0  0  0  0  0  0  0  0  0  0
   -0.7966    0.1410   -0.5584 C   0  0  2  0  0  0  0  0  0  0  0  0
    0.6765    0.1335   -0.9770 C   0  0  0  0  0  0  0  0  0  0  0  0
   -1.3900   -1.2473   -0.8084 C   0  0  0  0  0  0  0  0  0  0  0  0
    2.3023   -0.1153   -2.8245 N   0  0  0  0  0  0  0  0  0  0  0  0
    3.0809    1.0553   -2.6407 C   0  0  0  0  0  0  0  0  0  0  0  0
    2.5731    2.0959   -2.2334 O   0  0  0  0  0  0  0  0  0  0  0  0
    4.5103    1.0065   -2.9845 C   0  0  0  0  0  0  0  0  0  0  0  0
    5.4419    2.1256   -2.9131 C   0  0  0  0  0  0  0  0  0  0  0  0
    5.3368    3.4696   -2.4696 C   0  0  0  0  0  0  0  0  0  0  0  0
    6.4194    4.3533   -2.5696 C   0  0  0  0  0  0  0  0  0  0  0  0
    7.6243    3.9217   -3.1111 C   0  0  0  0  0  0  0  0  0  0  0  0
    7.7708    2.6097   -3.5562 C   0  0  0  0  0  0  0  0  0  0  0  0
    6.6719    1.7091   -3.4489 C   0  0  0  0  0  0  0  0  0  0  0  0
    6.5138    0.3854   -3.8079 N   0  0  0  0  0  0  0  0  0  0  0  0
    5.2463   -0.0558   -3.4687 C   0  0  0  0  0  0  0  0  0  0  0  0
    7.5082   -0.4531   -4.4596 C   0  0  0  0  0  0  0  0  0  0  0  0
    7.0516   -1.0898   -5.7787 C   0  0  0  0  0  0  0  0  0  0  0  0
    6.6915   -0.0978   -6.8843 C   0  0  0  0  0  0  0  0  0  0  0  0
    6.2594   -0.8614   -8.1389 C   0  0  0  0  0  0  0  0  0  0  0  0
    5.8813    0.0821   -9.2686 C   0  0  0  0  0  0  0  0  0  0  0  0
    5.4839   -0.6675  -10.4085 O   0  0  0  0  0  0  0  0  0  0  0  0
    0.4155    1.8650   -3.1796 H   0  0  0  0  0  0  0  0  0  0  0  0
    0.0950    0.6303   -4.3809 H   0  0  0  0  0  0  0  0  0  0  0  0
    0.7190   -2.3658   -2.1650 H   0  0  0  0  0  0  0  0  0  0  0  0
    0.2620   -1.8795   -3.7905 H   0  0  0  0  0  0  0  0  0  0  0  0
   -1.7614   -2.5682   -2.4763 H   0  0  0  0  0  0  0  0  0  0  0  0
   -3.1257   -0.5380   -2.9193 H   0  0  0  0  0  0  0  0  0  0  0  0
   -1.9592   -0.7805   -4.2137 H   0  0  0  0  0  0  0  0  0  0  0  0
   -2.0068    1.6064   -3.4636 H   0  0  0  0  0  0  0  0  0  0  0  0
   -2.6278    1.1740   -1.0825 H   0  0  0  0  0  0  0  0  0  0  0  0
   -1.1884    2.1845   -1.1878 H   0  0  0  0  0  0  0  0  0  0  0  0
   -0.8618    0.3925    0.5057 H   0  0  0  0  0  0  0  0  0  0  0  0
    1.1019    1.1087   -0.7296 H   0  0  0  0  0  0  0  0  0  0  0  0
    1.2379   -0.6043   -0.3893 H   0  0  0  0  0  0  0  0  0  0  0  0
   -0.8365   -1.9962   -0.2278 H   0  0  0  0  0  0  0  0  0  0  0  0
   -2.4277   -1.2784   -0.4539 H   0  0  0  0  0  0  0  0  0  0  0  0
    2.8188   -0.9787   -2.8584 H   0  0  0  0  0  0  0  0  0  0  0  0
    4.3965    3.8255   -2.0510 H   0  0  0  0  0  0  0  0  0  0  0  0
    6.3027    5.3817   -2.2277 H   0  0  0  0  0  0  0  0  0  0  0  0
    8.4555    4.6194   -3.1964 H   0  0  0  0  0  0  0  0  0  0  0  0
    8.7136    2.2982   -3.9867 H   0  0  0  0  0  0  0  0  0  0  0  0
    4.9657   -1.0796   -3.6656 H   0  0  0  0  0  0  0  0  0  0  0  0
    7.7518   -1.2533   -3.7481 H   0  0  0  0  0  0  0  0  0  0  0  0
    8.4222    0.1265   -4.6188 H   0  0  0  0  0  0  0  0  0  0  0  0
    6.1873   -1.7389   -5.5963 H   0  0  0  0  0  0  0  0  0  0  0  0
    7.8568   -1.7392   -6.1448 H   0  0  0  0  0  0  0  0  0  0  0  0
    7.5531    0.5399   -7.1148 H   0  0  0  0  0  0  0  0  0  0  0  0
    5.8758    0.5574   -6.5578 H   0  0  0  0  0  0  0  0  0  0  0  0
    5.4067   -1.5150   -7.9120 H   0  0  0  0  0  0  0  0  0  0  0  0
    7.0624   -1.5311   -8.4729 H   0  0  0  0  0  0  0  0  0  0  0  0
    6.7240    0.7224   -9.5468 H   0  0  0  0  0  0  0  0  0  0  0  0
    5.0430    0.7198   -8.9730 H   0  0  0  0  0  0  0  0  0  0  0  0
    6.2439   -1.2059  -10.6876 H   0  0  0  0  0  0  0  0  0  0  0  0
  1  6  1  0  0  0  0
  1  2  1  0  0  0  0
  1 29  1  0  0  0  0
  1 30  1  0  0  0  0
  2  9  1  0  0  0  0
  2  3  1  0  0  0  0
  2 11  1  6  0  0  0
  3 31  1  0  0  0  0
  3 32  1  0  0  0  0
  4  3  1  0  0  0  0
  4  5  1  0  0  0  0
  4 10  1  0  0  0  0
  4 33  1  6  0  0  0
  5 34  1  0  0  0  0
  5 35  1  0  0  0  0
  6  5  1  0  0  0  0
  6  7  1  0  0  0  0
  6 36  1  6  0  0  0
  7 37  1  0  0  0  0
  7 38  1  0  0  0  0
  8  7  1  0  0  0  0
  8  9  1  0  0  0  0
  8 10  1  0  0  0  0
  8 39  1  1  0  0  0
  9 40  1  0  0  0  0
  9 41  1  0  0  0  0
 10 42  1  0  0  0  0
 10 43  1  0  0  0  0
 11 12  1  0  0  0  0
 11 44  1  0  0  0  0
 12 13  2  0  0  0  0
 12 14  1  0  0  0  0
 14 22  2  0  0  0  0
 14 15  1  0  0  0  0
 15 20  2  0  0  0  0
 15 16  1  0  0  0  0
 16 17  2  0  0  0  0
 16 45  1  0  0  0  0
 17 18  1  0  0  0  0
 17 46  1  0  0  0  0
 18 19  2  0  0  0  0
 18 47  1  0  0  0  0
 19 20  1  0  0  0  0
 19 48  1  0  0  0  0
 20 21  1  0  0  0  0
 21 22  1  0  0  0  0
 21 23  1  0  0  0  0
 22 49  1  0  0  0  0
 23 24  1  0  0  0  0
 23 50  1  0  0  0  0
 23 51  1  0  0  0  0
 24 25  1  0  0  0  0
 24 52  1  0  0  0  0
 24 53  1  0  0  0  0
 25 26  1  0  0  0  0
 25 54  1  0  0  0  0
 25 55  1  0  0  0  0
 26 27  1  0  0  0  0
 26 56  1  0  0  0  0
 26 57  1  0  0  0  0
 27 28  1  0  0  0  0
 27 58  1  0  0  0  0
 27 59  1  0  0  0  0
 28 60  1  0  0  0  0
M  END
$$$$
CHEMBL3894398_8GUQ
 OpenBabel12022418153D

 52 54  0  0  1  0  0  0  0  0999 V2000
    1.6516    1.4761   -5.8692 C   0  0  0  0  0  0  0  0  0  0  0  0
    3.1141    1.2238   -5.4598 C   0  0  0  0  0  0  0  0  0  0  0  0
    3.8221    0.5467   -6.6471 C   0  0  0  0  0  0  0  0  0  0  0  0
    3.2768    0.4403   -4.0954 C   0  0  2  0  0  0  0  0  0  0  0  0
    2.6339   -0.9621   -4.1882 C   0  0  0  0  0  0  0  0  0  0  0  0
    2.5737    1.2112   -2.9347 C   0  0  0  0  0  0  0  0  0  0  0  0
    3.1221    2.5170   -2.7507 O   0  0  0  0  0  0  0  0  0  0  0  0
    4.7290    0.2983   -3.7969 N   0  0  0  0  0  0  0  0  0  0  0  0
    5.2569   -0.3554   -2.7027 C   0  0  0  0  0  0  0  0  0  0  0  0
    4.5888   -0.8630   -1.8079 O   0  0  0  0  0  0  0  0  0  0  0  0
    6.7520   -0.4098   -2.6430 C   0  0  0  0  0  0  0  0  0  0  0  0
    7.3726   -1.0747   -1.5926 C   0  0  0  0  0  0  0  0  0  0  0  0
    8.7637   -1.0650   -1.5381 C   0  0  0  0  0  0  0  0  0  0  0  0
    9.5217   -0.4236   -2.5295 C   0  0  0  0  0  0  0  0  0  0  0  0
    8.7811    0.1601   -3.5736 C   0  0  0  0  0  0  0  0  0  0  0  0
    9.4997    0.7347   -4.6070 O   0  0  0  0  0  0  0  0  0  0  0  0
    8.7129    0.9140   -5.7886 C   0  0  0  0  0  0  0  0  0  0  0  0
    9.5841    1.0422   -7.0060 C   0  0  0  0  0  0  0  0  0  0  0  0
   11.0527    1.3820   -6.9516 C   0  0  0  0  0  0  0  0  0  0  0  0
   10.6182   -0.0167   -7.2970 C   0  0  0  0  0  0  0  0  0  0  0  0
    7.4270    0.2075   -3.6422 N   0  0  0  0  0  0  0  0  0  0  0  0
   11.0290   -0.3256   -2.4065 C   0  0  0  0  0  0  0  0  0  0  0  0
   11.8622   -1.5360   -2.0422 C   0  0  0  0  0  0  0  0  0  0  0  0
   11.9376   -0.9678   -3.4255 C   0  0  0  0  0  0  0  0  0  0  0  0
    1.6022    1.9769   -6.8430 H   0  0  0  0  0  0  0  0  0  0  0  0
    1.1362    2.1238   -5.1551 H   0  0  0  0  0  0  0  0  0  0  0  0
    1.0847    0.5448   -5.9630 H   0  0  0  0  0  0  0  0  0  0  0  0
    3.5872    2.2085   -5.3408 H   0  0  0  0  0  0  0  0  0  0  0  0
    3.3712   -0.4193   -6.8937 H   0  0  0  0  0  0  0  0  0  0  0  0
    4.8874    0.3919   -6.4559 H   0  0  0  0  0  0  0  0  0  0  0  0
    3.7485    1.1765   -7.5418 H   0  0  0  0  0  0  0  0  0  0  0  0
    2.7250   -1.5153   -3.2482 H   0  0  0  0  0  0  0  0  0  0  0  0
    3.1111   -1.5755   -4.9586 H   0  0  0  0  0  0  0  0  0  0  0  0
    1.5630   -0.9064   -4.4042 H   0  0  0  0  0  0  0  0  0  0  0  0
    2.6484    0.6771   -1.9817 H   0  0  0  0  0  0  0  0  0  0  0  0
    1.5043    1.3318   -3.1310 H   0  0  0  0  0  0  0  0  0  0  0  0
    3.7991    2.4258   -2.0565 H   0  0  0  0  0  0  0  0  0  0  0  0
    5.4068    0.7665   -4.3904 H   0  0  0  0  0  0  0  0  0  0  0  0
    6.7884   -1.5730   -0.8271 H   0  0  0  0  0  0  0  0  0  0  0  0
    9.2633   -1.5581   -0.7073 H   0  0  0  0  0  0  0  0  0  0  0  0
    8.1060    1.8207   -5.6814 H   0  0  0  0  0  0  0  0  0  0  0  0
    8.0526    0.0547   -5.9660 H   0  0  0  0  0  0  0  0  0  0  0  0
    9.0119    1.4120   -7.8506 H   0  0  0  0  0  0  0  0  0  0  0  0
   11.5181    1.5470   -5.9870 H   0  0  0  0  0  0  0  0  0  0  0  0
   11.4604    1.9940   -7.7484 H   0  0  0  0  0  0  0  0  0  0  0  0
   10.7236   -0.3505   -8.3226 H   0  0  0  0  0  0  0  0  0  0  0  0
   10.7808   -0.7952   -6.5601 H   0  0  0  0  0  0  0  0  0  0  0  0
   11.3794    0.6177   -1.9882 H   0  0  0  0  0  0  0  0  0  0  0  0
   11.3884   -2.5039   -1.9279 H   0  0  0  0  0  0  0  0  0  0  0  0
   12.7124   -1.3847   -1.3847 H   0  0  0  0  0  0  0  0  0  0  0  0
   12.8343   -0.4268   -3.7074 H   0  0  0  0  0  0  0  0  0  0  0  0
   11.4986   -1.5426   -4.2319 H   0  0  0  0  0  0  0  0  0  0  0  0
  1  2  1  0  0  0  0
  1 25  1  0  0  0  0
  1 26  1  0  0  0  0
  1 27  1  0  0  0  0
  2  3  1  0  0  0  0
  2 28  1  0  0  0  0
  3 29  1  0  0  0  0
  3 30  1  0  0  0  0
  3 31  1  0  0  0  0
  4  6  1  1  0  0  0
  4  8  1  0  0  0  0
  4  5  1  0  0  0  0
  4  2  1  0  0  0  0
  5 32  1  0  0  0  0
  5 33  1  0  0  0  0
  5 34  1  0  0  0  0
  6  7  1  0  0  0  0
  6 35  1  0  0  0  0
  6 36  1  0  0  0  0
  7 37  1  0  0  0  0
  8  9  1  0  0  0  0
  8 38  1  0  0  0  0
  9 10  2  0  0  0  0
  9 11  1  0  0  0  0
 11 21  2  0  0  0  0
 11 12  1  0  0  0  0
 12 13  2  0  0  0  0
 12 39  1  0  0  0  0
 13 14  1  0  0  0  0
 13 40  1  0  0  0  0
 14 15  2  0  0  0  0
 14 22  1  0  0  0  0
 15 16  1  0  0  0  0
 15 21  1  0  0  0  0
 16 17  1  0  0  0  0
 17 18  1  0  0  0  0
 17 41  1  0  0  0  0
 17 42  1  0  0  0  0
 18 20  1  0  0  0  0
 18 19  1  0  0  0  0
 18 43  1  0  0  0  0
 19 20  1  0  0  0  0
 19 44  1  0  0  0  0
 19 45  1  0  0  0  0
 20 46  1  0  0  0  0
 20 47  1  0  0  0  0
 22 24  1  0  0  0  0
 22 23  1  0  0  0  0
 22 48  1  0  0  0  0
 23 24  1  0  0  0  0
 23 49  1  0  0  0  0
 23 50  1  0  0  0  0
 24 51  1  0  0  0  0
 24 52  1  0  0  0  0
M  END
$$$$
CHEMBL4783221_5ZTY
 OpenBabel12022418153D

 44 44  0  0  0  0  0  0  0  0999 V2000
   -0.5482   -1.0841   -0.0153 C   0  0  0  0  0  0  0  0  0  0  0  0
   -1.2978    0.0722   -0.0087 C   0  0  0  0  0  0  0  0  0  0  0  0
   -0.3680    1.1383   -0.0089 C   0  0  0  0  0  0  0  0  0  0  0  0
   -0.6913    2.5693    0.0262 C   0  0  0  0  0  0  0  0  0  0  0  0
   -1.8454    2.9735    0.0750 O   0  0  0  0  0  0  0  0  0  0  0  0
    0.4144    3.3942    0.0135 N   0  0  0  0  0  0  0  0  0  0  0  0
    0.3583    4.8641    0.0095 C   0  0  0  0  0  0  0  0  0  0  0  0
    1.7983    5.4093   -0.0442 C   0  0  0  0  0  0  0  0  0  0  0  0
   -0.3946    5.3745   -1.2322 C   0  0  0  0  0  0  0  0  0  0  0  0
   -0.3402    5.3921    1.2910 C   0  0  0  0  0  0  0  0  0  0  0  0
    0.3462    4.9602    2.4673 O   0  0  0  0  0  0  0  0  0  0  0  0
    0.8938    0.6716   -0.0268 N   0  0  0  0  0  0  0  0  0  0  0  0
    0.7585   -0.6750   -0.0457 N   0  0  0  0  0  0  0  0  0  0  0  0
    1.9686   -1.4765   -0.0132 C   0  0  0  0  0  0  0  0  0  0  0  0
    2.5001   -1.8939   -1.3848 C   0  0  0  0  0  0  0  0  0  0  0  0
    2.8640   -0.7408   -2.3304 C   0  0  0  0  0  0  0  0  0  0  0  0
    3.4150   -1.3079   -3.6435 C   0  0  0  0  0  0  0  0  0  0  0  0
    3.7654   -0.2308   -4.6560 C   0  0  0  0  0  0  0  0  0  0  0  0
   -0.9787   -2.4910    0.0173 C   0  0  0  0  0  0  0  0  0  0  0  0
   -2.3319   -2.6071   -0.0069 F   0  0  0  0  0  0  0  0  0  0  0  0
   -0.5067   -3.1924   -1.0437 F   0  0  0  0  0  0  0  0  0  0  0  0
   -0.5506   -3.1269    1.1345 F   0  0  0  0  0  0  0  0  0  0  0  0
   -2.3772    0.1519    0.0126 H   0  0  0  0  0  0  0  0  0  0  0  0
    1.3115    2.9110   -0.0373 H   0  0  0  0  0  0  0  0  0  0  0  0
    2.3222    5.0541   -0.9396 H   0  0  0  0  0  0  0  0  0  0  0  0
    2.3866    5.0857    0.8222 H   0  0  0  0  0  0  0  0  0  0  0  0
    1.8051    6.5046   -0.0651 H   0  0  0  0  0  0  0  0  0  0  0  0
    0.0762    5.0145   -2.1541 H   0  0  0  0  0  0  0  0  0  0  0  0
   -0.4063    6.4699   -1.2642 H   0  0  0  0  0  0  0  0  0  0  0  0
   -1.4365    5.0408   -1.2484 H   0  0  0  0  0  0  0  0  0  0  0  0
   -1.3771    5.0516    1.3678 H   0  0  0  0  0  0  0  0  0  0  0  0
   -0.3553    6.4869    1.3005 H   0  0  0  0  0  0  0  0  0  0  0  0
    0.3260    3.9868    2.4458 H   0  0  0  0  0  0  0  0  0  0  0  0
    1.7569   -2.3696    0.5858 H   0  0  0  0  0  0  0  0  0  0  0  0
    2.7271   -0.9042    0.5342 H   0  0  0  0  0  0  0  0  0  0  0  0
    1.7663   -2.5397   -1.8785 H   0  0  0  0  0  0  0  0  0  0  0  0
    3.3976   -2.5033   -1.2208 H   0  0  0  0  0  0  0  0  0  0  0  0
    3.6104   -0.0881   -1.8619 H   0  0  0  0  0  0  0  0  0  0  0  0
    1.9804   -0.1286   -2.5435 H   0  0  0  0  0  0  0  0  0  0  0  0
    2.6730   -1.9806   -4.0893 H   0  0  0  0  0  0  0  0  0  0  0  0
    4.3099   -1.9066   -3.4380 H   0  0  0  0  0  0  0  0  0  0  0  0
    2.8877    0.3684   -4.9167 H   0  0  0  0  0  0  0  0  0  0  0  0
    4.1415   -0.6942   -5.5748 H   0  0  0  0  0  0  0  0  0  0  0  0
    4.5425    0.4369   -4.2724 H   0  0  0  0  0  0  0  0  0  0  0  0
  1 13  1  0  0  0  0
  1  2  2  0  0  0  0
  1 19  1  0  0  0  0
  2  3  1  0  0  0  0
  2 23  1  0  0  0  0
  3  4  1  0  0  0  0
  3 12  2  0  0  0  0
  4  5  2  0  0  0  0
  4  6  1  0  0  0  0
  6  7  1  0  0  0  0
  6 24  1  0  0  0  0
  7  8  1  0  0  0  0
  7  9  1  0  0  0  0
  7 10  1  0  0  0  0
  8 25  1  0  0  0  0
  8 26  1  0  0  0  0
  8 27  1  0  0  0  0
  9 28  1  0  0  0  0
  9 29  1  0  0  0  0
  9 30  1  0  0  0  0
 10 11  1  0  0  0  0
 10 31  1  0  0  0  0
 10 32  1  0  0  0  0
 11 33  1  0  0  0  0
 12 13  1  0  0  0  0
 13 14  1  0  0  0  0
 14 15  1  0  0  0  0
 14 34  1  0  0  0  0
 14 35  1  0  0  0  0
 15 16  1  0  0  0  0
 15 36  1  0  0  0  0
 15 37  1  0  0  0  0
 16 17  1  0  0  0  0
 16 38  1  0  0  0  0
 16 39  1  0  0  0  0
 17 18  1  0  0  0  0
 17 40  1  0  0  0  0
 17 41  1  0  0  0  0
 18 42  1  0  0  0  0
 18 43  1  0  0  0  0
 18 44  1  0  0  0  0
 19 20  1  0  0  0  0
 19 21  1  0  0  0  0
 19 22  1  0  0  0  0
M  END
$$$$
CHEMBL1835216	8GUT	best_smi
 OpenBabel12022418153D

 61 64  0  0  0  0  0  0  0  0999 V2000
    5.3511    0.1045   -5.9410 C   0  0  0  0  0  0  0  0  0  0  0  0
    4.7186   -1.2478   -5.6060 C   0  0  0  0  0  0  0  0  0  0  0  0
    4.4825   -2.0476   -6.8875 C   0  0  0  0  0  0  0  0  0  0  0  0
    5.5725   -2.0664   -4.6210 C   0  0  0  0  0  0  0  0  0  0  0  0
    5.7781   -1.3891   -3.3565 N   0  0  0  0  0  0  0  0  0  0  0  0
    4.7827   -1.1424   -2.4484 C   0  0  0  0  0  0  0  0  0  0  0  0
    3.6146   -1.4981   -2.5322 O   0  0  0  0  0  0  0  0  0  0  0  0
    5.3527   -0.3221   -1.3181 C   0  0  0  0  0  0  0  0  0  0  0  0
    6.7407   -0.2519   -1.7147 N   0  0  0  0  0  0  0  0  0  0  0  0
    7.7282    0.5260   -0.9859 C   0  0  0  0  0  0  0  0  0  0  0  0
    7.3288    1.9792   -0.9193 C   0  0  0  0  0  0  0  0  0  0  0  0
    7.6352    2.8585   -1.9649 C   0  0  0  0  0  0  0  0  0  0  0  0
    7.1381    4.1690   -1.9595 C   0  0  0  0  0  0  0  0  0  0  0  0
    6.3169    4.6288   -0.9165 C   0  0  0  0  0  0  0  0  0  0  0  0
    5.8297    6.0171   -0.8235 C   0  0  0  0  0  0  0  0  0  0  0  0
    6.6608    7.1017   -1.1026 C   0  0  0  0  0  0  0  0  0  0  0  0
    6.2732    8.3710   -0.6861 C   0  0  0  0  0  0  0  0  0  0  0  0
    5.0426    8.5338   -0.0723 C   0  0  0  0  0  0  0  0  0  0  0  0
    4.6937    9.7396    0.3963 F   0  0  0  0  0  0  0  0  0  0  0  0
    4.1932    7.4405    0.0468 C   0  0  0  0  0  0  0  0  0  0  0  0
    2.7485    7.6591    0.4618 C   0  0  0  0  0  0  0  0  0  0  0  0
    1.9507    8.2745   -0.6183 N   0  0  0  0  0  0  0  0  0  0  0  0
    0.6832    8.8459   -0.1305 C   0  0  0  0  0  0  0  0  0  0  0  0
   -0.3913    7.7926    0.1652 C   0  0  0  0  0  0  0  0  0  0  0  0
   -0.6840    7.0290   -1.0084 O   0  0  0  0  0  0  0  0  0  0  0  0
    0.4910    6.3724   -1.5010 C   0  0  0  0  0  0  0  0  0  0  0  0
    1.6602    7.3485   -1.7350 C   0  0  0  0  0  0  0  0  0  0  0  0
    4.5850    6.1791   -0.2917 N   0  0  0  0  0  0  0  0  0  0  0  0
    6.0255    3.7325    0.1266 C   0  0  0  0  0  0  0  0  0  0  0  0
    6.5339    2.4350    0.1380 C   0  0  0  0  0  0  0  0  0  0  0  0
    6.9620   -0.8700   -2.9299 C   0  0  0  0  0  0  0  0  0  0  0  0
    8.0388   -0.9278   -3.5069 O   0  0  0  0  0  0  0  0  0  0  0  0
    4.7175    0.6644   -6.6374 H   0  0  0  0  0  0  0  0  0  0  0  0
    6.3359   -0.0212   -6.4032 H   0  0  0  0  0  0  0  0  0  0  0  0
    5.4712    0.7214   -5.0450 H   0  0  0  0  0  0  0  0  0  0  0  0
    3.7399   -1.0535   -5.1512 H   0  0  0  0  0  0  0  0  0  0  0  0
    5.4258   -2.2674   -7.3987 H   0  0  0  0  0  0  0  0  0  0  0  0
    3.8429   -1.4907   -7.5807 H   0  0  0  0  0  0  0  0  0  0  0  0
    3.9859   -2.9984   -6.6663 H   0  0  0  0  0  0  0  0  0  0  0  0
    6.5566   -2.2961   -5.0698 H   0  0  0  0  0  0  0  0  0  0  0  0
    5.0747   -3.0158   -4.4091 H   0  0  0  0  0  0  0  0  0  0  0  0
    5.2565   -0.8304   -0.3601 H   0  0  0  0  0  0  0  0  0  0  0  0
    4.8933    0.6702   -1.3260 H   0  0  0  0  0  0  0  0  0  0  0  0
    8.7136    0.4279   -1.4589 H   0  0  0  0  0  0  0  0  0  0  0  0
    7.8164    0.1043    0.0221 H   0  0  0  0  0  0  0  0  0  0  0  0
    8.2498    2.5216   -2.7987 H   0  0  0  0  0  0  0  0  0  0  0  0
    7.3931    4.8213   -2.7928 H   0  0  0  0  0  0  0  0  0  0  0  0
    7.6331    6.9606   -1.5626 H   0  0  0  0  0  0  0  0  0  0  0  0
    6.9283    9.2255   -0.8180 H   0  0  0  0  0  0  0  0  0  0  0  0
    2.7666    8.3251    1.3355 H   0  0  0  0  0  0  0  0  0  0  0  0
    2.3113    6.7143    0.8072 H   0  0  0  0  0  0  0  0  0  0  0  0
    0.3049    9.5105   -0.9189 H   0  0  0  0  0  0  0  0  0  0  0  0
    0.8534    9.4806    0.7460 H   0  0  0  0  0  0  0  0  0  0  0  0
   -1.3169    8.2899    0.4730 H   0  0  0  0  0  0  0  0  0  0  0  0
   -0.0924    7.1195    0.9773 H   0  0  0  0  0  0  0  0  0  0  0  0
    0.2170    5.9095   -2.4556 H   0  0  0  0  0  0  0  0  0  0  0  0
    0.7675    5.5683   -0.8112 H   0  0  0  0  0  0  0  0  0  0  0  0
    2.5500    6.7880   -2.0417 H   0  0  0  0  0  0  0  0  0  0  0  0
    1.4020    7.9764   -2.5971 H   0  0  0  0  0  0  0  0  0  0  0  0
    5.3978    4.0572    0.9554 H   0  0  0  0  0  0  0  0  0  0  0  0
    6.2772    1.7762    0.9634 H   0  0  0  0  0  0  0  0  0  0  0  0
  1  2  1  0  0  0  0
  1 33  1  0  0  0  0
  1 34  1  0  0  0  0
  1 35  1  0  0  0  0
  2  3  1  0  0  0  0
  2  4  1  0  0  0  0
  2 36  1  0  0  0  0
  3 37  1  0  0  0  0
  3 38  1  0  0  0  0
  3 39  1  0  0  0  0
  4  5  1  0  0  0  0
  4 40  1  0  0  0  0
  4 41  1  0  0  0  0
  5 31  1  0  0  0  0
  5  6  1  0  0  0  0
  6  7  2  0  0  0  0
  6  8  1  0  0  0  0
  8  9  1  0  0  0  0
  8 42  1  0  0  0  0
  8 43  1  0  0  0  0
  9 10  1  0  0  0  0
  9 31  1  0  0  0  0
 10 11  1  0  0  0  0
 10 44  1  0  0  0  0
 10 45  1  0  0  0  0
 11 30  2  0  0  0  0
 11 12  1  0  0  0  0
 12 13  2  0  0  0  0
 12 46  1  0  0  0  0
 13 14  1  0  0  0  0
 13 47  1  0  0  0  0
 14 15  1  0  0  0  0
 14 29  2  0  0  0  0
 15 28  2  0  0  0  0
 15 16  1  0  0  0  0
 16 17  2  0  0  0  0
 16 48  1  0  0  0  0
 17 18  1  0  0  0  0
 17 49  1  0  0  0  0
 18 19  1  0  0  0  0
 18 20  2  0  0  0  0
 20 21  1  0  0  0  0
 20 28  1  0  0  0  0
 21 22  1  0  0  0  0
 21 50  1  0  0  0  0
 21 51  1  0  0  0  0
 22 27  1  0  0  0  0
 22 23  1  0  0  0  0
 23 24  1  0  0  0  0
 23 52  1  0  0  0  0
 23 53  1  0  0  0  0
 24 25  1  0  0  0  0
 24 54  1  0  0  0  0
 24 55  1  0  0  0  0
 25 26  1  0  0  0  0
 26 27  1  0  0  0  0
 26 56  1  0  0  0  0
 26 57  1  0  0  0  0
 27 58  1  0  0  0  0
 27 59  1  0  0  0  0
 29 30  1  0  0  0  0
 29 60  1  0  0  0  0
 30 61  1  0  0  0  0
 31 32  2  0  0  0  0
M  END
$$$$
CHEMBL1835131	8GUT	best_smi
 OpenBabel12022418153D

 63 66  0  0  0  0  0  0  0  0999 V2000
    5.8797   -0.4878   -4.9847 C   0  0  0  0  0  0  0  0  0  0  0  0
    5.1608   -1.7994   -4.6566 C   0  0  0  0  0  0  0  0  0  0  0  0
    5.0220   -2.6268   -5.9372 C   0  0  0  0  0  0  0  0  0  0  0  0
    5.8796   -2.6071   -3.5479 C   0  0  0  0  0  0  0  0  0  0  0  0
    5.9666   -1.8918   -2.2830 N   0  0  0  0  0  0  0  0  0  0  0  0
    4.9032   -1.5957   -1.4758 C   0  0  0  0  0  0  0  0  0  0  0  0
    3.7384   -1.9306   -1.6465 O   0  0  0  0  0  0  0  0  0  0  0  0
    5.4009   -0.7925   -0.2867 C   0  0  0  0  0  0  0  0  0  0  0  0
    6.8007   -0.6800   -0.6164 N   0  0  0  0  0  0  0  0  0  0  0  0
    7.7441    0.0915    0.1712 C   0  0  0  0  0  0  0  0  0  0  0  0
    7.3156    1.5406    0.2723 C   0  0  0  0  0  0  0  0  0  0  0  0
    7.6320    2.4484   -0.7385 C   0  0  0  0  0  0  0  0  0  0  0  0
    7.1414    3.7582   -0.6840 C   0  0  0  0  0  0  0  0  0  0  0  0
    6.3333    4.2019    0.3738 C   0  0  0  0  0  0  0  0  0  0  0  0
    5.8449    5.5995    0.4579 C   0  0  0  0  0  0  0  0  0  0  0  0
    6.6079    6.6592   -0.0359 C   0  0  0  0  0  0  0  0  0  0  0  0
    6.1256    7.9550    0.0919 C   0  0  0  0  0  0  0  0  0  0  0  0
    4.8983    8.1596    0.7172 C   0  0  0  0  0  0  0  0  0  0  0  0
    4.4489    9.4077    0.8703 F   0  0  0  0  0  0  0  0  0  0  0  0
    4.1773    7.0717    1.1969 C   0  0  0  0  0  0  0  0  0  0  0  0
    2.8433    7.2378    1.9110 C   0  0  0  0  0  0  0  0  0  0  0  0
    1.6017    7.2203    1.0941 N   0  0  0  0  0  0  0  0  0  0  0  0
    1.4137    8.4680    0.3569 C   0  0  0  0  0  0  0  0  0  0  0  0
    0.3016    8.4494   -0.6908 C   0  0  0  0  0  0  0  0  0  0  0  0
    0.3861    7.2145   -1.5714 C   0  0  0  0  0  0  0  0  0  0  0  0
    0.3277    5.9737   -0.6961 C   0  0  0  0  0  0  0  0  0  0  0  0
    1.4525    5.9723    0.3407 C   0  0  0  0  0  0  0  0  0  0  0  0
    4.6575    5.7938    1.0729 N   0  0  0  0  0  0  0  0  0  0  0  0
    6.0157    3.2703    1.3771 C   0  0  0  0  0  0  0  0  0  0  0  0
    6.5094    1.9656    1.3382 C   0  0  0  0  0  0  0  0  0  0  0  0
    7.1311   -1.4839   -1.6909 C   0  0  0  0  0  0  0  0  0  0  0  0
    8.2654   -1.7781   -2.0332 O   0  0  0  0  0  0  0  0  0  0  0  0
    5.3066    0.0863   -5.7236 H   0  0  0  0  0  0  0  0  0  0  0  0
    6.8735   -0.6731   -5.4065 H   0  0  0  0  0  0  0  0  0  0  0  0
    5.9948    0.1431   -4.0997 H   0  0  0  0  0  0  0  0  0  0  0  0
    4.1503   -1.5500   -4.3103 H   0  0  0  0  0  0  0  0  0  0  0  0
    5.9935   -2.7905   -6.4180 H   0  0  0  0  0  0  0  0  0  0  0  0
    4.3812   -2.1060   -6.6621 H   0  0  0  0  0  0  0  0  0  0  0  0
    4.5701   -3.6028   -5.7395 H   0  0  0  0  0  0  0  0  0  0  0  0
    6.8880   -2.8805   -3.8780 H   0  0  0  0  0  0  0  0  0  0  0  0
    5.3221   -3.5319   -3.3576 H   0  0  0  0  0  0  0  0  0  0  0  0
    5.2928   -1.3584    0.6427 H   0  0  0  0  0  0  0  0  0  0  0  0
    4.9136    0.1819   -0.2504 H   0  0  0  0  0  0  0  0  0  0  0  0
    8.7426    0.0320   -0.2770 H   0  0  0  0  0  0  0  0  0  0  0  0
    7.8108   -0.3657    1.1671 H   0  0  0  0  0  0  0  0  0  0  0  0
    8.2482    2.1456   -1.5822 H   0  0  0  0  0  0  0  0  0  0  0  0
    7.3947    4.4284   -1.5085 H   0  0  0  0  0  0  0  0  0  0  0  0
    7.5807    6.4946   -0.4962 H   0  0  0  0  0  0  0  0  0  0  0  0
    6.6975    8.7939   -0.2679 H   0  0  0  0  0  0  0  0  0  0  0  0
    2.8786    8.1569    2.5104 H   0  0  0  0  0  0  0  0  0  0  0  0
    2.7677    6.4318    2.6490 H   0  0  0  0  0  0  0  0  0  0  0  0
    2.3338    8.7755   -0.1485 H   0  0  0  0  0  0  0  0  0  0  0  0
    1.1693    9.2565    1.0804 H   0  0  0  0  0  0  0  0  0  0  0  0
    0.3800    9.3487   -1.3131 H   0  0  0  0  0  0  0  0  0  0  0  0
   -0.6788    8.4863   -0.2000 H   0  0  0  0  0  0  0  0  0  0  0  0
    1.3186    7.2260   -2.1485 H   0  0  0  0  0  0  0  0  0  0  0  0
   -0.4408    7.2081   -2.2899 H   0  0  0  0  0  0  0  0  0  0  0  0
    0.4153    5.0796   -1.3247 H   0  0  0  0  0  0  0  0  0  0  0  0
   -0.6475    5.9175   -0.1969 H   0  0  0  0  0  0  0  0  0  0  0  0
    1.2470    5.1618    1.0518 H   0  0  0  0  0  0  0  0  0  0  0  0
    2.3732    5.7066   -0.1885 H   0  0  0  0  0  0  0  0  0  0  0  0
    5.3719    3.5673    2.2049 H   0  0  0  0  0  0  0  0  0  0  0  0
    6.2401    1.2765    2.1373 H   0  0  0  0  0  0  0  0  0  0  0  0
  1  2  1  0  0  0  0
  1 33  1  0  0  0  0
  1 34  1  0  0  0  0
  1 35  1  0  0  0  0
  2  3  1  0  0  0  0
  2  4  1  0  0  0  0
  2 36  1  0  0  0  0
  3 37  1  0  0  0  0
  3 38  1  0  0  0  0
  3 39  1  0  0  0  0
  4  5  1  0  0  0  0
  4 40  1  0  0  0  0
  4 41  1  0  0  0  0
  5 31  1  0  0  0  0
  5  6  1  0  0  0  0
  6  7  2  0  0  0  0
  6  8  1  0  0  0  0
  8  9  1  0  0  0  0
  8 42  1  0  0  0  0
  8 43  1  0  0  0  0
  9 10  1  0  0  0  0
  9 31  1  0  0  0  0
 10 11  1  0  0  0  0
 10 44  1  0  0  0  0
 10 45  1  0  0  0  0
 11 30  2  0  0  0  0
 11 12  1  0  0  0  0
 12 13  2  0  0  0  0
 12 46  1  0  0  0  0
 13 14  1  0  0  0  0
 13 47  1  0  0  0  0
 14 15  1  0  0  0  0
 14 29  2  0  0  0  0
 15 28  2  0  0  0  0
 15 16  1  0  0  0  0
 16 17  2  0  0  0  0
 16 48  1  0  0  0  0
 17 18  1  0  0  0  0
 17 49  1  0  0  0  0
 18 19  1  0  0  0  0
 18 20  2  0  0  0  0
 20 21  1  0  0  0  0
 20 28  1  0  0  0  0
 21 22  1  0  0  0  0
 21 50  1  0  0  0  0
 21 51  1  0  0  0  0
 22 27  1  0  0  0  0
 22 23  1  0  0  0  0
 23 24  1  0  0  0  0
 23 52  1  0  0  0  0
 23 53  1  0  0  0  0
 24 25  1  0  0  0  0
 24 54  1  0  0  0  0
 24 55  1  0  0  0  0
 25 26  1  0  0  0  0
 25 56  1  0  0  0  0
 25 57  1  0  0  0  0
 26 27  1  0  0  0  0
 26 58  1  0  0  0  0
 26 59  1  0  0  0  0
 27 60  1  0  0  0  0
 27 61  1  0  0  0  0
 29 30  1  0  0  0  0
 29 62  1  0  0  0  0
 30 63  1  0  0  0  0
 31 32  2  0  0  0  0
M  END
$$$$
CHEMBL1835135	8GUT	best_smi
 OpenBabel12022418153D

 57 60  0  0  0  0  0  0  0  0999 V2000
   -0.5372    1.8332   -1.3557 O   0  0  0  0  0  0  0  0  0  0  0  0
   -0.2030    0.6577   -1.3161 C   0  0  0  0  0  0  0  0  0  0  0  0
    0.6765    0.0493   -0.2391 C   0  0  0  0  0  0  0  0  0  0  0  0
    0.7624   -1.3140   -0.7087 N   0  0  0  0  0  0  0  0  0  0  0  0
    1.5516   -2.3285   -0.0354 C   0  0  0  0  0  0  0  0  0  0  0  0
    3.0069   -1.9321    0.0538 C   0  0  0  0  0  0  0  0  0  0  0  0
    3.8838   -2.1994   -1.0020 C   0  0  0  0  0  0  0  0  0  0  0  0
    5.2124   -1.7581   -0.9516 C   0  0  0  0  0  0  0  0  0  0  0  0
    5.7072   -1.0343    0.1498 C   0  0  0  0  0  0  0  0  0  0  0  0
    7.1122   -0.5790    0.2274 C   0  0  0  0  0  0  0  0  0  0  0  0
    8.1626   -1.3028   -0.3383 C   0  0  0  0  0  0  0  0  0  0  0  0
    9.4662   -0.8364   -0.1964 C   0  0  0  0  0  0  0  0  0  0  0  0
    9.6928    0.3347    0.5106 C   0  0  0  0  0  0  0  0  0  0  0  0
   10.9511    0.7672    0.6698 F   0  0  0  0  0  0  0  0  0  0  0  0
    8.6166    1.0290    1.0519 C   0  0  0  0  0  0  0  0  0  0  0  0
    8.8363    2.3198    1.8363 C   0  0  0  0  0  0  0  0  0  0  0  0
    8.8426    3.6020    1.0840 N   0  0  0  0  0  0  0  0  0  0  0  0
   10.0707    3.7778    0.3059 C   0  0  0  0  0  0  0  0  0  0  0  0
   10.0664    4.9924   -0.6228 C   0  0  0  0  0  0  0  0  0  0  0  0
    8.8131    5.0114   -1.4825 C   0  0  0  0  0  0  0  0  0  0  0  0
    7.5943    5.0295   -0.5734 C   0  0  0  0  0  0  0  0  0  0  0  0
    7.5865    3.8148    0.3569 C   0  0  0  0  0  0  0  0  0  0  0  0
    7.3336    0.5746    0.9191 N   0  0  0  0  0  0  0  0  0  0  0  0
    4.8085   -0.7645    1.1958 C   0  0  0  0  0  0  0  0  0  0  0  0
    3.4843   -1.2137    1.1568 C   0  0  0  0  0  0  0  0  0  0  0  0
    0.0310   -1.5071   -1.8653 C   0  0  0  0  0  0  0  0  0  0  0  0
   -0.0983   -2.5557   -2.4695 O   0  0  0  0  0  0  0  0  0  0  0  0
   -0.5313   -0.3139   -2.2136 N   0  0  0  0  0  0  0  0  0  0  0  0
   -1.3098   -0.0894   -3.4197 C   0  0  0  0  0  0  0  0  0  0  0  0
   -2.5986   -0.8927   -3.4890 C   0  0  0  0  0  0  0  0  0  0  0  0
   -3.4006   -0.5770   -2.4392 F   0  0  0  0  0  0  0  0  0  0  0  0
   -3.2813   -0.5366   -4.6102 F   0  0  0  0  0  0  0  0  0  0  0  0
    0.1899    0.0810    0.7364 H   0  0  0  0  0  0  0  0  0  0  0  0
    1.6560    0.5309   -0.2474 H   0  0  0  0  0  0  0  0  0  0  0  0
    1.4574   -3.2859   -0.5604 H   0  0  0  0  0  0  0  0  0  0  0  0
    1.1320   -2.4708    0.9658 H   0  0  0  0  0  0  0  0  0  0  0  0
    3.5363   -2.7422   -1.8797 H   0  0  0  0  0  0  0  0  0  0  0  0
    5.8515   -1.9719   -1.8056 H   0  0  0  0  0  0  0  0  0  0  0  0
    7.9851   -2.2371   -0.8611 H   0  0  0  0  0  0  0  0  0  0  0  0
   10.2998   -1.3871   -0.6187 H   0  0  0  0  0  0  0  0  0  0  0  0
    9.7664    2.2302    2.4134 H   0  0  0  0  0  0  0  0  0  0  0  0
    8.0468    2.3785    2.5969 H   0  0  0  0  0  0  0  0  0  0  0  0
   10.2824    2.8986   -0.3086 H   0  0  0  0  0  0  0  0  0  0  0  0
   10.9105    3.8963    1.0031 H   0  0  0  0  0  0  0  0  0  0  0  0
   10.9540    4.9608   -1.2655 H   0  0  0  0  0  0  0  0  0  0  0  0
   10.1284    5.9180   -0.0371 H   0  0  0  0  0  0  0  0  0  0  0  0
    8.7875    4.1241   -2.1279 H   0  0  0  0  0  0  0  0  0  0  0  0
    8.8139    5.8895   -2.1362 H   0  0  0  0  0  0  0  0  0  0  0  0
    6.6825    5.0261   -1.1820 H   0  0  0  0  0  0  0  0  0  0  0  0
    7.5843    5.9561    0.0136 H   0  0  0  0  0  0  0  0  0  0  0  0
    6.7799    3.9579    1.0874 H   0  0  0  0  0  0  0  0  0  0  0  0
    7.3219    2.9444   -0.2513 H   0  0  0  0  0  0  0  0  0  0  0  0
    5.1436   -0.1925    2.0605 H   0  0  0  0  0  0  0  0  0  0  0  0
    2.8252   -0.9757    1.9889 H   0  0  0  0  0  0  0  0  0  0  0  0
   -0.6803   -0.3473   -4.2784 H   0  0  0  0  0  0  0  0  0  0  0  0
   -1.5467    0.9772   -3.4996 H   0  0  0  0  0  0  0  0  0  0  0  0
   -2.4439   -1.9742   -3.5044 H   0  0  0  0  0  0  0  0  0  0  0  0
  1  2  2  0  0  0  0
  2 28  1  0  0  0  0
  2  3  1  0  0  0  0
  3  4  1  0  0  0  0
  3 33  1  0  0  0  0
  3 34  1  0  0  0  0
  4  5  1  0  0  0  0
  4 26  1  0  0  0  0
  5  6  1  0  0  0  0
  5 35  1  0  0  0  0
  5 36  1  0  0  0  0
  6 25  2  0  0  0  0
  6  7  1  0  0  0  0
  7  8  2  0  0  0  0
  7 37  1  0  0  0  0
  8  9  1  0  0  0  0
  8 38  1  0  0  0  0
  9 10  1  0  0  0  0
  9 24  2  0  0  0  0
 10 23  2  0  0  0  0
 10 11  1  0  0  0  0
 11 12  2  0  0  0  0
 11 39  1  0  0  0  0
 12 13  1  0  0  0  0
 12 40  1  0  0  0  0
 13 14  1  0  0  0  0
 13 15  2  0  0  0  0
 15 16  1  0  0  0  0
 15 23  1  0  0  0  0
 16 17  1  0  0  0  0
 16 41  1  0  0  0  0
 16 42  1  0  0  0  0
 17 22  1  0  0  0  0
 17 18  1  0  0  0  0
 18 19  1  0  0  0  0
 18 43  1  0  0  0  0
 18 44  1  0  0  0  0
 19 20  1  0  0  0  0
 19 45  1  0  0  0  0
 19 46  1  0  0  0  0
 20 21  1  0  0  0  0
 20 47  1  0  0  0  0
 20 48  1  0  0  0  0
 21 22  1  0  0  0  0
 21 49  1  0  0  0  0
 21 50  1  0  0  0  0
 22 51  1  0  0  0  0
 22 52  1  0  0  0  0
 24 25  1  0  0  0  0
 24 53  1  0  0  0  0
 25 54  1  0  0  0  0
 26 27  2  0  0  0  0
 26 28  1  0  0  0  0
 28 29  1  0  0  0  0
 29 30  1  0  0  0  0
 29 55  1  0  0  0  0
 29 56  1  0  0  0  0
 30 31  1  0  0  0  0
 30 32  1  0  0  0  0
 30 57  1  0  0  0  0
M  END
$$$$
CHEMBL1835220	8GUT	best_smi
 OpenBabel12022418153D

 63 66  0  0  0  0  0  0  0  0999 V2000
    6.0195   -0.7613   -4.5434 C   0  0  0  0  0  0  0  0  0  0  0  0
    5.2829   -2.0496   -4.1669 C   0  0  0  0  0  0  0  0  0  0  0  0
    5.1801   -2.9510   -5.3996 C   0  0  0  0  0  0  0  0  0  0  0  0
    5.9602   -2.7973   -2.9960 C   0  0  0  0  0  0  0  0  0  0  0  0
    6.0212   -2.0002   -1.7834 N   0  0  0  0  0  0  0  0  0  0  0  0
    4.9385   -1.6201   -1.0413 C   0  0  0  0  0  0  0  0  0  0  0  0
    3.7730   -1.9439   -1.2305 O   0  0  0  0  0  0  0  0  0  0  0  0
    5.4093   -0.7346    0.0974 C   0  0  0  0  0  0  0  0  0  0  0  0
    6.8224   -0.6689   -0.1922 N   0  0  0  0  0  0  0  0  0  0  0  0
    7.7578    0.1283    0.5787 C   0  0  0  0  0  0  0  0  0  0  0  0
    7.3377    1.5794    0.6287 C   0  0  0  0  0  0  0  0  0  0  0  0
    7.6777    2.4671   -0.4007 C   0  0  0  0  0  0  0  0  0  0  0  0
    7.2030    3.7880   -0.3940 C   0  0  0  0  0  0  0  0  0  0  0  0
    6.3697    4.2579    0.6356 C   0  0  0  0  0  0  0  0  0  0  0  0
    5.9445    5.6689    0.7501 C   0  0  0  0  0  0  0  0  0  0  0  0
    6.8381    6.7108    0.5045 C   0  0  0  0  0  0  0  0  0  0  0  0
    6.5593    7.9713    1.0203 C   0  0  0  0  0  0  0  0  0  0  0  0
    5.3661    8.1742    1.6916 C   0  0  0  0  0  0  0  0  0  0  0  0
    5.1231    9.3620    2.2600 F   0  0  0  0  0  0  0  0  0  0  0  0
    4.4269    7.1520    1.7366 C   0  0  0  0  0  0  0  0  0  0  0  0
    3.0350    7.4374    2.2615 C   0  0  0  0  0  0  0  0  0  0  0  0
    2.0301    7.9407    1.3089 N   0  0  0  0  0  0  0  0  0  0  0  0
    1.2597    6.9538    0.5680 C   0  0  0  0  0  0  0  0  0  0  0  0
    1.9402    6.3888   -0.6540 C   0  0  0  0  0  0  0  0  0  0  0  0
    2.4496    7.6670   -1.7731 S   0  0  0  0  0  0  0  0  0  0  0  0
    3.5800    7.1668   -2.5310 O   0  0  0  0  0  0  0  0  0  0  0  0
    1.2524    8.1329   -2.4743 O   0  0  0  0  0  0  0  0  0  0  0  0
    3.0300    9.0095   -0.7739 C   0  0  0  0  0  0  0  0  0  0  0  0
    2.3141    9.1560    0.5588 C   0  0  0  0  0  0  0  0  0  0  0  0
    4.7180    5.8929    1.3063 N   0  0  0  0  0  0  0  0  0  0  0  0
    6.0375    3.3523    1.6588 C   0  0  0  0  0  0  0  0  0  0  0  0
    6.5209    2.0408    1.6661 C   0  0  0  0  0  0  0  0  0  0  0  0
    7.1725   -1.5342   -1.2107 C   0  0  0  0  0  0  0  0  0  0  0  0
    8.3164   -1.8265   -1.5295 O   0  0  0  0  0  0  0  0  0  0  0  0
    5.4826   -0.2337   -5.3403 H   0  0  0  0  0  0  0  0  0  0  0  0
    7.0321   -0.9724   -4.9036 H   0  0  0  0  0  0  0  0  0  0  0  0
    6.0946   -0.0765   -3.6941 H   0  0  0  0  0  0  0  0  0  0  0  0
    4.2639   -1.7763   -3.8679 H   0  0  0  0  0  0  0  0  0  0  0  0
    6.1647   -3.1318   -5.8452 H   0  0  0  0  0  0  0  0  0  0  0  0
    4.5479   -2.4846   -6.1623 H   0  0  0  0  0  0  0  0  0  0  0  0
    4.7376   -3.9213   -5.1476 H   0  0  0  0  0  0  0  0  0  0  0  0
    6.9720   -3.1061   -3.2789 H   0  0  0  0  0  0  0  0  0  0  0  0
    5.3826   -3.6995   -2.7617 H   0  0  0  0  0  0  0  0  0  0  0  0
    5.2536   -1.2230    1.0604 H   0  0  0  0  0  0  0  0  0  0  0  0
    4.9406    0.2484    0.0339 H   0  0  0  0  0  0  0  0  0  0  0  0
    8.7618    0.0459    0.1461 H   0  0  0  0  0  0  0  0  0  0  0  0
    7.8115   -0.2957    1.5881 H   0  0  0  0  0  0  0  0  0  0  0  0
    8.3139    2.1360   -1.2205 H   0  0  0  0  0  0  0  0  0  0  0  0
    7.4957    4.4460   -1.2104 H   0  0  0  0  0  0  0  0  0  0  0  0
    7.7862    6.5346    0.0071 H   0  0  0  0  0  0  0  0  0  0  0  0
    7.2754    8.7803    0.9285 H   0  0  0  0  0  0  0  0  0  0  0  0
    3.1117    8.1552    3.0887 H   0  0  0  0  0  0  0  0  0  0  0  0
    2.6555    6.5232    2.7380 H   0  0  0  0  0  0  0  0  0  0  0  0
    0.3167    7.4282    0.2611 H   0  0  0  0  0  0  0  0  0  0  0  0
    0.9543    6.1364    1.2325 H   0  0  0  0  0  0  0  0  0  0  0  0
    1.2441    5.7503   -1.2064 H   0  0  0  0  0  0  0  0  0  0  0  0
    2.8137    5.7834   -0.4007 H   0  0  0  0  0  0  0  0  0  0  0  0
    2.8815    9.9204   -1.3681 H   0  0  0  0  0  0  0  0  0  0  0  0
    4.1084    8.8814   -0.6472 H   0  0  0  0  0  0  0  0  0  0  0  0
    2.8585    9.8735    1.1839 H   0  0  0  0  0  0  0  0  0  0  0  0
    1.3502    9.6455    0.3660 H   0  0  0  0  0  0  0  0  0  0  0  0
    5.4101    3.6815    2.4867 H   0  0  0  0  0  0  0  0  0  0  0  0
    6.2412    1.3811    2.4843 H   0  0  0  0  0  0  0  0  0  0  0  0
  1  2  1  0  0  0  0
  1 35  1  0  0  0  0
  1 36  1  0  0  0  0
  1 37  1  0  0  0  0
  2  3  1  0  0  0  0
  2  4  1  0  0  0  0
  2 38  1  0  0  0  0
  3 39  1  0  0  0  0
  3 40  1  0  0  0  0
  3 41  1  0  0  0  0
  4  5  1  0  0  0  0
  4 42  1  0  0  0  0
  4 43  1  0  0  0  0
  5 33  1  0  0  0  0
  5  6  1  0  0  0  0
  6  7  2  0  0  0  0
  6  8  1  0  0  0  0
  8  9  1  0  0  0  0
  8 44  1  0  0  0  0
  8 45  1  0  0  0  0
  9 10  1  0  0  0  0
  9 33  1  0  0  0  0
 10 11  1  0  0  0  0
 10 46  1  0  0  0  0
 10 47  1  0  0  0  0
 11 32  2  0  0  0  0
 11 12  1  0  0  0  0
 12 13  2  0  0  0  0
 12 48  1  0  0  0  0
 13 14  1  0  0  0  0
 13 49  1  0  0  0  0
 14 15  1  0  0  0  0
 14 31  2  0  0  0  0
 15 30  2  0  0  0  0
 15 16  1  0  0  0  0
 16 17  2  0  0  0  0
 16 50  1  0  0  0  0
 17 18  1  0  0  0  0
 17 51  1  0  0  0  0
 18 19  1  0  0  0  0
 18 20  2  0  0  0  0
 20 21  1  0  0  0  0
 20 30  1  0  0  0  0
 21 22  1  0  0  0  0
 21 52  1  0  0  0  0
 21 53  1  0  0  0  0
 22 29  1  0  0  0  0
 22 23  1  0  0  0  0
 23 24  1  0  0  0  0
 23 54  1  0  0  0  0
 23 55  1  0  0  0  0
 24 25  1  0  0  0  0
 24 56  1  0  0  0  0
 24 57  1  0  0  0  0
 25 26  2  0  0  0  0
 25 27  2  0  0  0  0
 25 28  1  0  0  0  0
 28 29  1  0  0  0  0
 28 58  1  0  0  0  0
 28 59  1  0  0  0  0
 29 60  1  0  0  0  0
 29 61  1  0  0  0  0
 31 32  1  0  0  0  0
 31 62  1  0  0  0  0
 32 63  1  0  0  0  0
 33 34  2  0  0  0  0
M  END
$$$$
CHEMBL1835213	8GUT	best_smi
 OpenBabel12022418153D

 66 69  0  0  1  0  0  0  0  0999 V2000
    4.8107   -4.1149    3.4779 C   0  0  0  0  0  0  0  0  0  0  0  0
    5.3098   -5.1602    2.4772 C   0  0  0  0  0  0  0  0  0  0  0  0
    4.7934   -6.5416    2.8864 C   0  0  0  0  0  0  0  0  0  0  0  0
    4.8741   -4.8429    1.0347 C   0  0  0  0  0  0  0  0  0  0  0  0
    5.3783   -3.5744    0.5574 N   0  0  0  0  0  0  0  0  0  0  0  0
    4.6838   -2.4002    0.6168 C   0  0  0  0  0  0  0  0  0  0  0  0
    3.5627   -2.2366    1.0937 O   0  0  0  0  0  0  0  0  0  0  0  0
    5.4952   -1.3022   -0.0257 C   0  0  0  0  0  0  0  0  0  0  0  0
    6.7000   -2.0185   -0.3557 N   0  0  0  0  0  0  0  0  0  0  0  0
    7.7152   -1.4442   -1.2166 C   0  0  0  0  0  0  0  0  0  0  0  0
    7.3039   -1.5507   -2.6651 C   0  0  0  0  0  0  0  0  0  0  0  0
    7.6217   -2.7062   -3.3821 C   0  0  0  0  0  0  0  0  0  0  0  0
    7.1320   -2.8880   -4.6759 C   0  0  0  0  0  0  0  0  0  0  0  0
    6.3273   -1.9188   -5.3095 C   0  0  0  0  0  0  0  0  0  0  0  0
    5.9397   -2.0630   -6.7287 C   0  0  0  0  0  0  0  0  0  0  0  0
    6.8780   -2.5578   -7.6428 C   0  0  0  0  0  0  0  0  0  0  0  0
    6.5878   -2.5401   -8.9958 C   0  0  0  0  0  0  0  0  0  0  0  0
    5.3609   -2.0534   -9.4129 C   0  0  0  0  0  0  0  0  0  0  0  0
    5.1163   -1.9547  -10.7232 F   0  0  0  0  0  0  0  0  0  0  0  0
    4.4216   -1.6351   -8.4736 C   0  0  0  0  0  0  0  0  0  0  0  0
    3.0734   -1.1123   -8.9613 C   0  0  0  0  0  0  0  0  0  0  0  0
    1.9654   -2.0337   -9.2855 N   0  0  0  0  0  0  0  0  0  0  0  0
    2.0577   -2.8242  -10.5055 C   0  0  0  0  0  0  0  0  0  0  0  0
    2.6909   -4.2117  -10.3594 C   0  0  0  0  0  0  0  0  0  0  0  0
    2.3407   -4.9536   -9.0664 C   0  0  0  0  0  0  0  0  0  0  0  0
    2.2292   -4.0345   -7.8448 C   0  0  3  0  0  0  0  0  0  0  0  0
    1.6678   -4.7751   -6.6328 C   0  0  0  0  0  0  0  0  0  0  0  0
    1.4021   -2.7906   -8.1734 C   0  0  0  0  0  0  0  0  0  0  0  0
    4.7146   -1.6098   -7.1310 N   0  0  0  0  0  0  0  0  0  0  0  0
    6.0178   -0.7634   -4.5789 C   0  0  0  0  0  0  0  0  0  0  0  0
    6.5106   -0.5729   -3.2802 C   0  0  0  0  0  0  0  0  0  0  0  0
    6.5925   -3.3704   -0.0516 C   0  0  0  0  0  0  0  0  0  0  0  0
    7.4270   -4.2244   -0.3016 O   0  0  0  0  0  0  0  0  0  0  0  0
    5.0964   -4.3873    4.4993 H   0  0  0  0  0  0  0  0  0  0  0  0
    3.7200   -4.0233    3.4451 H   0  0  0  0  0  0  0  0  0  0  0  0
    5.2446   -3.1313    3.2749 H   0  0  0  0  0  0  0  0  0  0  0  0
    6.4059   -5.1754    2.5211 H   0  0  0  0  0  0  0  0  0  0  0  0
    3.7018   -6.5962    2.8118 H   0  0  0  0  0  0  0  0  0  0  0  0
    5.0713   -6.7713    3.9210 H   0  0  0  0  0  0  0  0  0  0  0  0
    5.2169   -7.3223    2.2458 H   0  0  0  0  0  0  0  0  0  0  0  0
    3.7801   -4.8270    0.9705 H   0  0  0  0  0  0  0  0  0  0  0  0
    5.2350   -5.6269    0.3600 H   0  0  0  0  0  0  0  0  0  0  0  0
    5.7232   -0.5000    0.6774 H   0  0  0  0  0  0  0  0  0  0  0  0
    4.9867   -0.9447   -0.9248 H   0  0  0  0  0  0  0  0  0  0  0  0
    8.6615   -1.9739   -1.0553 H   0  0  0  0  0  0  0  0  0  0  0  0
    7.8731   -0.3992   -0.9270 H   0  0  0  0  0  0  0  0  0  0  0  0
    8.2362   -3.4830   -2.9280 H   0  0  0  0  0  0  0  0  0  0  0  0
    7.3954   -3.8119   -5.1885 H   0  0  0  0  0  0  0  0  0  0  0  0
    7.8523   -2.9031   -7.3084 H   0  0  0  0  0  0  0  0  0  0  0  0
    7.3212   -2.8678   -9.7222 H   0  0  0  0  0  0  0  0  0  0  0  0
    3.2581   -0.4775   -9.8394 H   0  0  0  0  0  0  0  0  0  0  0  0
    2.7054   -0.4093   -8.2024 H   0  0  0  0  0  0  0  0  0  0  0  0
    2.5608   -2.2658  -11.3049 H   0  0  0  0  0  0  0  0  0  0  0  0
    1.0322   -2.9657  -10.8756 H   0  0  0  0  0  0  0  0  0  0  0  0
    3.7775   -4.1294  -10.4423 H   0  0  0  0  0  0  0  0  0  0  0  0
    2.3727   -4.8316  -11.2090 H   0  0  0  0  0  0  0  0  0  0  0  0
    3.1086   -5.7150   -8.8790 H   0  0  0  0  0  0  0  0  0  0  0  0
    1.3986   -5.4971   -9.2119 H   0  0  0  0  0  0  0  0  0  0  0  0
    3.2375   -3.7258   -7.5628 H   0  0  0  0  0  0  0  0  0  0  0  0
    0.7688   -5.3479   -6.8803 H   0  0  0  0  0  0  0  0  0  0  0  0
    1.4172   -4.0763   -5.8271 H   0  0  0  0  0  0  0  0  0  0  0  0
    2.4178   -5.4713   -6.2419 H   0  0  0  0  0  0  0  0  0  0  0  0
    0.3820   -3.1023   -8.4543 H   0  0  0  0  0  0  0  0  0  0  0  0
    1.2718   -2.1464   -7.2984 H   0  0  0  0  0  0  0  0  0  0  0  0
    5.4033    0.0126   -5.0336 H   0  0  0  0  0  0  0  0  0  0  0  0
    6.2544    0.3422   -2.7497 H   0  0  0  0  0  0  0  0  0  0  0  0
  1  2  1  0  0  0  0
  1 34  1  0  0  0  0
  1 35  1  0  0  0  0
  1 36  1  0  0  0  0
  2  3  1  0  0  0  0
  2  4  1  0  0  0  0
  2 37  1  0  0  0  0
  3 38  1  0  0  0  0
  3 39  1  0  0  0  0
  3 40  1  0  0  0  0
  4  5  1  0  0  0  0
  4 41  1  0  0  0  0
  4 42  1  0  0  0  0
  5 32  1  0  0  0  0
  5  6  1  0  0  0  0
  6  7  2  0  0  0  0
  6  8  1  0  0  0  0
  8  9  1  0  0  0  0
  8 43  1  0  0  0  0
  8 44  1  0  0  0  0
  9 10  1  0  0  0  0
  9 32  1  0  0  0  0
 10 11  1  0  0  0  0
 10 45  1  0  0  0  0
 10 46  1  0  0  0  0
 11 31  2  0  0  0  0
 11 12  1  0  0  0  0
 12 13  2  0  0  0  0
 12 47  1  0  0  0  0
 13 14  1  0  0  0  0
 13 48  1  0  0  0  0
 14 15  1  0  0  0  0
 14 30  2  0  0  0  0
 15 29  2  0  0  0  0
 15 16  1  0  0  0  0
 16 17  2  0  0  0  0
 16 49  1  0  0  0  0
 17 18  1  0  0  0  0
 17 50  1  0  0  0  0
 18 19  1  0  0  0  0
 18 20  2  0  0  0  0
 20 21  1  0  0  0  0
 20 29  1  0  0  0  0
 21 22  1  0  0  0  0
 21 51  1  0  0  0  0
 21 52  1  0  0  0  0
 22 28  1  0  0  0  0
 22 23  1  0  0  0  0
 23 24  1  0  0  0  0
 23 53  1  0  0  0  0
 23 54  1  0  0  0  0
 24 25  1  0  0  0  0
 24 55  1  0  0  0  0
 24 56  1  0  0  0  0
 25 26  1  0  0  0  0
 25 57  1  0  0  0  0
 25 58  1  0  0  0  0
 26 27  1  0  0  0  0
 26 28  1  0  0  0  0
 26 59  1  0  0  0  0
 27 60  1  0  0  0  0
 27 61  1  0  0  0  0
 27 62  1  0  0  0  0
 28 63  1  0  0  0  0
 28 64  1  0  0  0  0
 30 31  1  0  0  0  0
 30 65  1  0  0  0  0
 31 66  1  0  0  0  0
 32 33  2  0  0  0  0
M  END
$$$$
CHEMBL1835215	8GUT	best_smi
 OpenBabel12022418153D

 63 66  0  0  1  0  0  0  0  0999 V2000
    5.0379    0.2122   -3.4837 C   0  0  0  0  0  0  0  0  0  0  0  0
    4.5225   -1.0719   -2.8300 C   0  0  0  0  0  0  0  0  0  0  0  0
    4.3234   -2.1538   -3.8940 C   0  0  0  0  0  0  0  0  0  0  0  0
    5.4697   -1.5844   -1.7311 C   0  0  0  0  0  0  0  0  0  0  0  0
    5.6628   -0.6293   -0.6532 N   0  0  0  0  0  0  0  0  0  0  0  0
    4.6938   -0.2654    0.2414 C   0  0  0  0  0  0  0  0  0  0  0  0
    3.5402   -0.6616    0.2775 O   0  0  0  0  0  0  0  0  0  0  0  0
    5.2825    0.7552    1.1967 C   0  0  0  0  0  0  0  0  0  0  0  0
    6.6462    0.8076    0.7278 N   0  0  0  0  0  0  0  0  0  0  0  0
    7.6678    1.6190    1.3476 C   0  0  0  0  0  0  0  0  0  0  0  0
    7.2756    3.0732    1.3591 C   0  0  0  0  0  0  0  0  0  0  0  0
    7.5599    3.9143    0.2756 C   0  0  0  0  0  0  0  0  0  0  0  0
    7.0789    5.2339    0.2504 C   0  0  0  0  0  0  0  0  0  0  0  0
    6.2992    5.7395    1.3040 C   0  0  0  0  0  0  0  0  0  0  0  0
    5.8151    7.1338    1.3755 C   0  0  0  0  0  0  0  0  0  0  0  0
    6.6402    8.2020    1.0324 C   0  0  0  0  0  0  0  0  0  0  0  0
    6.2689    9.4846    1.4194 C   0  0  0  0  0  0  0  0  0  0  0  0
    5.0605    9.6717    2.0732 C   0  0  0  0  0  0  0  0  0  0  0  0
    4.7298   10.9037    2.4836 F   0  0  0  0  0  0  0  0  0  0  0  0
    4.2063    8.5915    2.2769 C   0  0  0  0  0  0  0  0  0  0  0  0
    2.7737    8.8646    2.7233 C   0  0  0  0  0  0  0  0  0  0  0  0
    2.2260    8.2902    3.9589 N   0  0  0  0  0  0  0  0  0  0  0  0
    1.7356    6.9207    3.8948 C   0  0  0  0  0  0  0  0  0  0  0  0
    2.7611    5.8378    4.2201 C   0  0  0  0  0  0  0  0  0  0  0  0
    3.6863    6.1678    5.3913 C   0  0  0  0  0  0  0  0  0  0  0  0
    4.1147    7.6279    5.4604 C   0  0  3  0  0  0  0  0  0  0  0  0
    4.5924    7.8687    6.7166 F   0  0  0  0  0  0  0  0  0  0  0  0
    2.9509    8.5784    5.1905 C   0  0  0  0  0  0  0  0  0  0  0  0
    4.5875    7.3230    1.9523 N   0  0  0  0  0  0  0  0  0  0  0  0
    6.0544    4.8845    2.3892 C   0  0  0  0  0  0  0  0  0  0  0  0
    6.5315    3.5785    2.4269 C   0  0  0  0  0  0  0  0  0  0  0  0
    6.8451   -0.0156   -0.3695 C   0  0  0  0  0  0  0  0  0  0  0  0
    7.9048   -0.1637   -0.9542 O   0  0  0  0  0  0  0  0  0  0  0  0
    4.3449    0.5540   -4.2604 H   0  0  0  0  0  0  0  0  0  0  0  0
    6.0177    0.0578   -3.9476 H   0  0  0  0  0  0  0  0  0  0  0  0
    5.1312    1.0214   -2.7526 H   0  0  0  0  0  0  0  0  0  0  0  0
    3.5424   -0.8522   -2.3894 H   0  0  0  0  0  0  0  0  0  0  0  0
    5.2714   -2.4222   -4.3707 H   0  0  0  0  0  0  0  0  0  0  0  0
    3.6366   -1.8118   -4.6751 H   0  0  0  0  0  0  0  0  0  0  0  0
    3.8979   -3.0617   -3.4502 H   0  0  0  0  0  0  0  0  0  0  0  0
    6.4449   -1.8400   -2.1603 H   0  0  0  0  0  0  0  0  0  0  0  0
    5.0510   -2.4968   -1.2874 H   0  0  0  0  0  0  0  0  0  0  0  0
    5.2451    0.3936    2.2294 H   0  0  0  0  0  0  0  0  0  0  0  0
    4.7860    1.7186    1.0623 H   0  0  0  0  0  0  0  0  0  0  0  0
    8.6268    1.4872    0.8314 H   0  0  0  0  0  0  0  0  0  0  0  0
    7.8137    1.2515    2.3716 H   0  0  0  0  0  0  0  0  0  0  0  0
    8.1495    3.5418   -0.5610 H   0  0  0  0  0  0  0  0  0  0  0  0
    7.3172    5.8518   -0.6124 H   0  0  0  0  0  0  0  0  0  0  0  0
    7.5968    8.0413    0.5447 H   0  0  0  0  0  0  0  0  0  0  0  0
    6.9208   10.3314    1.2323 H   0  0  0  0  0  0  0  0  0  0  0  0
    2.1229    8.5981    1.8804 H   0  0  0  0  0  0  0  0  0  0  0  0
    2.6456    9.9510    2.8171 H   0  0  0  0  0  0  0  0  0  0  0  0
    1.2714    6.7120    2.9226 H   0  0  0  0  0  0  0  0  0  0  0  0
    0.9146    6.8338    4.6194 H   0  0  0  0  0  0  0  0  0  0  0  0
    3.3437    5.6243    3.3234 H   0  0  0  0  0  0  0  0  0  0  0  0
    2.2306    4.9050    4.4509 H   0  0  0  0  0  0  0  0  0  0  0  0
    4.5817    5.5369    5.3425 H   0  0  0  0  0  0  0  0  0  0  0  0
    3.1950    5.8956    6.3328 H   0  0  0  0  0  0  0  0  0  0  0  0
    4.9410    7.8202    4.7717 H   0  0  0  0  0  0  0  0  0  0  0  0
    2.2452    8.5042    6.0302 H   0  0  0  0  0  0  0  0  0  0  0  0
    3.2931    9.6194    5.2172 H   0  0  0  0  0  0  0  0  0  0  0  0
    5.4887    5.2510    3.2377 H   0  0  0  0  0  0  0  0  0  0  0  0
    6.2991    2.9572    3.2885 H   0  0  0  0  0  0  0  0  0  0  0  0
  1  2  1  0  0  0  0
  1 34  1  0  0  0  0
  1 35  1  0  0  0  0
  1 36  1  0  0  0  0
  2  3  1  0  0  0  0
  2  4  1  0  0  0  0
  2 37  1  0  0  0  0
  3 38  1  0  0  0  0
  3 39  1  0  0  0  0
  3 40  1  0  0  0  0
  4  5  1  0  0  0  0
  4 41  1  0  0  0  0
  4 42  1  0  0  0  0
  5 32  1  0  0  0  0
  5  6  1  0  0  0  0
  6  7  2  0  0  0  0
  6  8  1  0  0  0  0
  8  9  1  0  0  0  0
  8 43  1  0  0  0  0
  8 44  1  0  0  0  0
  9 10  1  0  0  0  0
  9 32  1  0  0  0  0
 10 11  1  0  0  0  0
 10 45  1  0  0  0  0
 10 46  1  0  0  0  0
 11 31  2  0  0  0  0
 11 12  1  0  0  0  0
 12 13  2  0  0  0  0
 12 47  1  0  0  0  0
 13 14  1  0  0  0  0
 13 48  1  0  0  0  0
 14 15  1  0  0  0  0
 14 30  2  0  0  0  0
 15 29  2  0  0  0  0
 15 16  1  0  0  0  0
 16 17  2  0  0  0  0
 16 49  1  0  0  0  0
 17 18  1  0  0  0  0
 17 50  1  0  0  0  0
 18 19  1  0  0  0  0
 18 20  2  0  0  0  0
 20 21  1  0  0  0  0
 20 29  1  0  0  0  0
 21 22  1  0  0  0  0
 21 51  1  0  0  0  0
 21 52  1  0  0  0  0
 22 28  1  0  0  0  0
 22 23  1  0  0  0  0
 23 24  1  0  0  0  0
 23 53  1  0  0  0  0
 23 54  1  0  0  0  0
 24 25  1  0  0  0  0
 24 55  1  0  0  0  0
 24 56  1  0  0  0  0
 25 26  1  0  0  0  0
 25 57  1  0  0  0  0
 25 58  1  0  0  0  0
 26 27  1  0  0  0  0
 26 28  1  0  0  0  0
 26 59  1  0  0  0  0
 28 60  1  0  0  0  0
 28 61  1  0  0  0  0
 30 31  1  0  0  0  0
 30 62  1  0  0  0  0
 31 63  1  0  0  0  0
 32 33  2  0  0  0  0
M  END
$$$$
CHEMBL1835218	8GUT	best_smi
 OpenBabel12022418153D

 63 66  0  0  0  0  0  0  0  0999 V2000
    4.7913   -3.2521   -3.6621 C   0  0  0  0  0  0  0  0  0  0  0  0
    5.7476   -2.6199   -4.6750 C   0  0  0  0  0  0  0  0  0  0  0  0
    5.5607   -3.2923   -6.0384 C   0  0  0  0  0  0  0  0  0  0  0  0
    5.5348   -1.1002   -4.8147 C   0  0  0  0  0  0  0  0  0  0  0  0
    5.7725   -0.3642   -3.5866 N   0  0  0  0  0  0  0  0  0  0  0  0
    4.8068   -0.0380   -2.6898 C   0  0  0  0  0  0  0  0  0  0  0  0
    3.6161   -0.3170   -2.7523 O   0  0  0  0  0  0  0  0  0  0  0  0
    5.4340    0.7933   -1.5850 C   0  0  0  0  0  0  0  0  0  0  0  0
    6.8194    0.8200   -2.0176 N   0  0  0  0  0  0  0  0  0  0  0  0
    7.8395    1.5941   -1.3383 C   0  0  0  0  0  0  0  0  0  0  0  0
    7.4470    3.0500   -1.2621 C   0  0  0  0  0  0  0  0  0  0  0  0
    7.7268    3.9304   -2.3116 C   0  0  0  0  0  0  0  0  0  0  0  0
    7.2107    5.2368   -2.3039 C   0  0  0  0  0  0  0  0  0  0  0  0
    6.3970    5.6926   -1.2531 C   0  0  0  0  0  0  0  0  0  0  0  0
    5.8861    7.0770   -1.1541 C   0  0  0  0  0  0  0  0  0  0  0  0
    6.7020    8.1601   -1.4818 C   0  0  0  0  0  0  0  0  0  0  0  0
    6.3394    9.4274   -1.0458 C   0  0  0  0  0  0  0  0  0  0  0  0
    5.1444    9.5884   -0.3647 C   0  0  0  0  0  0  0  0  0  0  0  0
    4.8232   10.8037    0.1017 F   0  0  0  0  0  0  0  0  0  0  0  0
    4.2839    8.5030   -0.2030 C   0  0  0  0  0  0  0  0  0  0  0  0
    2.8464    8.7859    0.2149 C   0  0  0  0  0  0  0  0  0  0  0  0
    2.2561    8.2115    1.4288 N   0  0  0  0  0  0  0  0  0  0  0  0
    1.7501    6.8529    1.3469 C   0  0  0  0  0  0  0  0  0  0  0  0
    2.7453    5.7488    1.6921 C   0  0  0  0  0  0  0  0  0  0  0  0
    3.7140    6.0503    2.8400 C   0  0  0  0  0  0  0  0  0  0  0  0
    4.0729    7.5135    3.0492 C   0  0  0  0  0  0  0  0  0  0  0  0
    5.1970    7.8223    2.3554 F   0  0  0  0  0  0  0  0  0  0  0  0
    4.4009    7.6890    4.3614 F   0  0  0  0  0  0  0  0  0  0  0  0
    2.9480    8.4847    2.6874 C   0  0  0  0  0  0  0  0  0  0  0  0
    4.6548    7.2430   -0.5747 N   0  0  0  0  0  0  0  0  0  0  0  0
    6.1570    4.8008   -0.1964 C   0  0  0  0  0  0  0  0  0  0  0  0
    6.6795    3.5078   -0.1876 C   0  0  0  0  0  0  0  0  0  0  0  0
    6.9947    0.1419   -3.2111 C   0  0  0  0  0  0  0  0  0  0  0  0
    8.0502    0.0268   -3.8116 O   0  0  0  0  0  0  0  0  0  0  0  0
    4.9254   -4.3389   -3.6279 H   0  0  0  0  0  0  0  0  0  0  0  0
    3.7465   -3.0501   -3.9213 H   0  0  0  0  0  0  0  0  0  0  0  0
    4.9755   -2.8732   -2.6524 H   0  0  0  0  0  0  0  0  0  0  0  0
    6.7737   -2.8085   -4.3348 H   0  0  0  0  0  0  0  0  0  0  0  0
    4.5697   -3.0780   -6.4543 H   0  0  0  0  0  0  0  0  0  0  0  0
    5.6628   -4.3800   -5.9576 H   0  0  0  0  0  0  0  0  0  0  0  0
    6.3108   -2.9384   -6.7532 H   0  0  0  0  0  0  0  0  0  0  0  0
    4.5092   -0.8971   -5.1432 H   0  0  0  0  0  0  0  0  0  0  0  0
    6.2137   -0.7103   -5.5847 H   0  0  0  0  0  0  0  0  0  0  0  0
    5.3552    0.2992   -0.6164 H   0  0  0  0  0  0  0  0  0  0  0  0
    5.0013    1.7962   -1.5948 H   0  0  0  0  0  0  0  0  0  0  0  0
    8.8031    1.4844   -1.8489 H   0  0  0  0  0  0  0  0  0  0  0  0
    7.9604    1.1777   -0.3312 H   0  0  0  0  0  0  0  0  0  0  0  0
    8.3336    3.6014   -3.1544 H   0  0  0  0  0  0  0  0  0  0  0  0
    7.4506    5.8887   -3.1407 H   0  0  0  0  0  0  0  0  0  0  0  0
    7.6490    8.0197   -1.9913 H   0  0  0  0  0  0  0  0  0  0  0  0
    6.9878   10.2803   -1.2145 H   0  0  0  0  0  0  0  0  0  0  0  0
    2.2138    8.5389   -0.6476 H   0  0  0  0  0  0  0  0  0  0  0  0
    2.7286    9.8734    0.3155 H   0  0  0  0  0  0  0  0  0  0  0  0
    1.3018    6.6551    0.3646 H   0  0  0  0  0  0  0  0  0  0  0  0
    0.9088    6.7797    2.0502 H   0  0  0  0  0  0  0  0  0  0  0  0
    3.2989    5.4707    0.7923 H   0  0  0  0  0  0  0  0  0  0  0  0
    2.1732    4.8513    1.9666 H   0  0  0  0  0  0  0  0  0  0  0  0
    4.6384    5.4863    2.6683 H   0  0  0  0  0  0  0  0  0  0  0  0
    3.2959    5.6498    3.7703 H   0  0  0  0  0  0  0  0  0  0  0  0
    2.1983    8.4453    3.4899 H   0  0  0  0  0  0  0  0  0  0  0  0
    3.3216    9.5155    2.7041 H   0  0  0  0  0  0  0  0  0  0  0  0
    5.5638    5.1286    0.6491 H   0  0  0  0  0  0  0  0  0  0  0  0
    6.4487    2.8548    0.6511 H   0  0  0  0  0  0  0  0  0  0  0  0
  1  2  1  0  0  0  0
  1 35  1  0  0  0  0
  1 36  1  0  0  0  0
  1 37  1  0  0  0  0
  2  3  1  0  0  0  0
  2  4  1  0  0  0  0
  2 38  1  0  0  0  0
  3 39  1  0  0  0  0
  3 40  1  0  0  0  0
  3 41  1  0  0  0  0
  4  5  1  0  0  0  0
  4 42  1  0  0  0  0
  4 43  1  0  0  0  0
  5 33  1  0  0  0  0
  5  6  1  0  0  0  0
  6  7  2  0  0  0  0
  6  8  1  0  0  0  0
  8  9  1  0  0  0  0
  8 44  1  0  0  0  0
  8 45  1  0  0  0  0
  9 10  1  0  0  0  0
  9 33  1  0  0  0  0
 10 11  1  0  0  0  0
 10 46  1  0  0  0  0
 10 47  1  0  0  0  0
 11 32  2  0  0  0  0
 11 12  1  0  0  0  0
 12 13  2  0  0  0  0
 12 48  1  0  0  0  0
 13 14  1  0  0  0  0
 13 49  1  0  0  0  0
 14 15  1  0  0  0  0
 14 31  2  0  0  0  0
 15 30  2  0  0  0  0
 15 16  1  0  0  0  0
 16 17  2  0  0  0  0
 16 50  1  0  0  0  0
 17 18  1  0  0  0  0
 17 51  1  0  0  0  0
 18 19  1  0  0  0  0
 18 20  2  0  0  0  0
 20 21  1  0  0  0  0
 20 30  1  0  0  0  0
 21 22  1  0  0  0  0
 21 52  1  0  0  0  0
 21 53  1  0  0  0  0
 22 29  1  0  0  0  0
 22 23  1  0  0  0  0
 23 24  1  0  0  0  0
 23 54  1  0  0  0  0
 23 55  1  0  0  0  0
 24 25  1  0  0  0  0
 24 56  1  0  0  0  0
 24 57  1  0  0  0  0
 25 26  1  0  0  0  0
 25 58  1  0  0  0  0
 25 59  1  0  0  0  0
 26 27  1  0  0  0  0
 26 28  1  0  0  0  0
 26 29  1  0  0  0  0
 29 60  1  0  0  0  0
 29 61  1  0  0  0  0
 31 32  1  0  0  0  0
 31 62  1  0  0  0  0
 32 63  1  0  0  0  0
 33 34  2  0  0  0  0
M  END
$$$$
