MODEL 1
REMARK VINA RESULT:   -12.227      0.000      0.000
REMARK INTER + INTRA:          -6.714
REMARK INTER:                 -15.086
REMARK INTRA:                   8.372
REMARK UNBOUND:                 8.372
REMARK  4 active torsions:
REMARK  status: ('A' for Active; 'I' for Inactive)
REMARK    1  A    between atoms: C3_3  and  C4_4 
REMARK       I    between atoms: C4_4  and  N6_6 
REMARK    2  A    between atoms: N6_6  and  N7_7 
REMARK    3  A    between atoms: N14_14  and  C15_15 
REMARK    4  A    between atoms: C23_23  and  C24_24 
ROOT
ATOM      1  C1  UNL A   1      -6.483  -1.828  11.862  1.00  0.00     0.034 C 
ATOM      2  C2  UNL A   1      -6.540  -2.543  10.556  1.00  0.00     0.020 A 
ATOM      3  C3  UNL A   1      -7.552  -3.459  10.122  1.00  0.00     0.156 A 
ATOM      4  N13 UNL A   1      -7.295  -3.885   8.877  1.00  0.00    -0.161 NA
ATOM      5  N14 UNL A   1      -6.163  -3.249   8.480  1.00  0.00    -0.229 N 
ATOM      6  C23 UNL A   1      -5.633  -2.433   9.492  1.00  0.00     0.081 A 
ENDROOT
BRANCH   3   7
ATOM      7  C4  UNL A   1      -8.766  -3.946  10.844  1.00  0.00     0.290 C 
ATOM      8  O5  UNL A   1      -8.831  -4.053  12.068  1.00  0.00    -0.264 OA
ATOM      9  N6  UNL A   1      -9.797  -4.281   9.974  1.00  0.00    -0.265 N 
ATOM     10  H31 UNL A   1      -9.643  -4.126   9.013  1.00  0.00     0.190 HD
BRANCH   9  11
ATOM     11  N7  UNL A   1     -11.035  -4.818  10.345  1.00  0.00    -0.287 N 
ATOM     12  C8  UNL A   1     -12.084  -3.914  10.814  1.00  0.00     0.152 C 
ATOM     13  C9  UNL A   1     -12.540  -4.134  12.270  1.00  0.00     0.168 C 
ATOM     14  O10 UNL A   1     -12.723  -5.521  12.572  1.00  0.00    -0.350 OA
ATOM     15  C11 UNL A   1     -11.486  -6.220  12.374  1.00  0.00     0.168 C 
ATOM     16  C12 UNL A   1     -11.063  -6.167  10.904  1.00  0.00     0.152 C 
ENDBRANCH   9  11
ENDBRANCH   3   7
BRANCH   6  17
ATOM     17  C24 UNL A   1      -4.443  -1.554   9.370  1.00  0.00     0.018 A 
ATOM     18  C25 UNL A   1      -3.239  -1.839  10.036  1.00  0.00     0.002 A 
ATOM     19  C26 UNL A   1      -2.150  -0.959   9.981  1.00  0.00     0.006 A 
ATOM     20  C27 UNL A   1      -2.224   0.184   9.188  1.00  0.00     0.030 A 
ATOM     21  I28 UNL A   1      -0.600   1.476   9.086  1.00  0.00    -0.043 I 
ATOM     22  C29 UNL A   1      -3.380   0.458   8.470  1.00  0.00     0.006 A 
ATOM     23  C30 UNL A   1      -4.487  -0.397   8.575  1.00  0.00     0.002 A 
ENDBRANCH   6  17
BRANCH   5  24
ATOM     24  C15 UNL A   1      -5.643  -3.526   7.178  1.00  0.00     0.093 A 
ATOM     25  C16 UNL A   1      -6.014  -2.707   6.092  1.00  0.00     0.021 A 
ATOM     26  C17 UNL A   1      -5.594  -3.021   4.798  1.00  0.00     0.013 A 
ATOM     27  C18 UNL A   1      -4.781  -4.126   4.575  1.00  0.00     0.059 A 
ATOM     28 CL19 UNL A   1      -4.294  -4.527   2.978  1.00  0.00    -0.082 Cl
ATOM     29  C20 UNL A   1      -4.371  -4.922   5.644  1.00  0.00     0.024 A 
ATOM     30  C21 UNL A   1      -4.802  -4.630   6.944  1.00  0.00     0.076 A 
ATOM     31 CL22 UNL A   1      -4.353  -5.791   8.152  1.00  0.00    -0.081 Cl
ENDBRANCH   5  24
TORSDOF 4
BEGIN_RES SER A 173
REMARK  2 active torsions:
REMARK  status: ('A' for Active; 'I' for Inactive)
REMARK    1  A    between atoms: CA   and  CB  
REMARK    2  A    between atoms: CB   and  OG  
ROOT
ATOM      1  CA  SER A 173      -4.540 -11.597  11.543  1.00127.03     0.292 C 
ENDROOT
BRANCH   1   2
ATOM      2  CB  SER A 173      -4.003 -10.168  11.569  1.00131.20     0.194 C 
BRANCH   2   3
ATOM      3  OG  SER A 173      -3.938  -9.667  12.893  1.00137.49    -0.550 OA
ATOM      4  HG  SER A 173      -4.578  -8.979  13.033  1.00  0.00     0.310 HD
ENDBRANCH   2   3
ENDBRANCH   1   2
END_RES SER A 173
BEGIN_RES SER A 383
REMARK  2 active torsions:
REMARK  status: ('A' for Active; 'I' for Inactive)
REMARK    3  A    between atoms: CA   and  CB  
REMARK    4  A    between atoms: CB   and  OG  
ROOT
ATOM      5  CA  SER A 383      -8.934   0.934   8.031  1.00 88.23     0.292 C 
ENDROOT
BRANCH   5   6
ATOM      6  CB  SER A 383      -8.589   0.249   9.352  1.00 82.13     0.194 C 
BRANCH   6   7
ATOM      7  OG  SER A 383      -7.413   0.798   9.919  1.00 85.59    -0.550 OA
ATOM      8  HG  SER A 383      -6.665   0.232   9.768  1.00  0.00     0.310 HD
ENDBRANCH   6   7
ENDBRANCH   5   6
END_RES SER A 383
ENDMDL
MODEL 2
REMARK VINA RESULT:   -10.228      1.340      1.983
REMARK INTER + INTRA:          -4.248
REMARK INTER:                 -13.055
REMARK INTRA:                   8.808
REMARK UNBOUND:                 8.372
REMARK  4 active torsions:
REMARK  status: ('A' for Active; 'I' for Inactive)
REMARK    1  A    between atoms: C3_3  and  C4_4 
REMARK       I    between atoms: C4_4  and  N6_6 
REMARK    2  A    between atoms: N6_6  and  N7_7 
REMARK    3  A    between atoms: N14_14  and  C15_15 
REMARK    4  A    between atoms: C23_23  and  C24_24 
ROOT
ATOM      1  C1  UNL A   1      -5.936  -1.603  12.566  1.00  0.00     0.034 C 
ATOM      2  C2  UNL A   1      -6.066  -2.311  11.261  1.00  0.00     0.020 A 
ATOM      3  C3  UNL A   1      -7.096  -3.230  10.883  1.00  0.00     0.156 A 
ATOM      4  N13 UNL A   1      -6.912  -3.647   9.622  1.00  0.00    -0.161 NA
ATOM      5  N14 UNL A   1      -5.809  -3.001   9.162  1.00  0.00    -0.229 N 
ATOM      6  C23 UNL A   1      -5.225  -2.188  10.145  1.00  0.00     0.081 A 
ENDROOT
BRANCH   3   7
ATOM      7  C4  UNL A   1      -8.261  -3.730  11.673  1.00  0.00     0.290 C 
ATOM      8  O5  UNL A   1      -8.276  -3.781  12.902  1.00  0.00    -0.264 OA
ATOM      9  N6  UNL A   1      -9.309  -4.146  10.860  1.00  0.00    -0.265 N 
ATOM     10  H31 UNL A   1      -9.198  -4.030   9.888  1.00  0.00     0.190 HD
BRANCH   9  11
ATOM     11  N7  UNL A   1     -10.510  -4.713  11.303  1.00  0.00    -0.287 N 
ATOM     12  C8  UNL A   1     -10.894  -6.032  10.802  1.00  0.00     0.152 C 
ATOM     13  C9  UNL A   1     -12.198  -6.069   9.981  1.00  0.00     0.168 C 
ATOM     14  O10 UNL A   1     -13.239  -5.300  10.591  1.00  0.00    -0.350 OA
ATOM     15  C11 UNL A   1     -12.817  -3.935  10.709  1.00  0.00     0.168 C 
ATOM     16  C12 UNL A   1     -11.612  -3.818  11.645  1.00  0.00     0.152 C 
ENDBRANCH   9  11
ENDBRANCH   3   7
BRANCH   6  17
ATOM     17  C24 UNL A   1      -4.050  -1.300   9.959  1.00  0.00     0.018 A 
ATOM     18  C25 UNL A   1      -4.189   0.087   9.780  1.00  0.00     0.002 A 
ATOM     19  C26 UNL A   1      -3.079   0.903   9.522  1.00  0.00     0.006 A 
ATOM     20  C27 UNL A   1      -1.801   0.352   9.520  1.00  0.00     0.030 A 
ATOM     21  I28 UNL A   1      -0.153   1.565   9.163  1.00  0.00    -0.043 I 
ATOM     22  C29 UNL A   1      -1.629  -1.006   9.755  1.00  0.00     0.006 A 
ATOM     23  C30 UNL A   1      -2.748  -1.827   9.956  1.00  0.00     0.002 A 
ENDBRANCH   6  17
BRANCH   5  24
ATOM     24  C15 UNL A   1      -5.366  -3.266   7.829  1.00  0.00     0.093 A 
ATOM     25  C16 UNL A   1      -4.938  -4.564   7.484  1.00  0.00     0.021 A 
ATOM     26  C17 UNL A   1      -4.411  -4.817   6.216  1.00  0.00     0.013 A 
ATOM     27  C18 UNL A   1      -4.333  -3.798   5.275  1.00  0.00     0.059 A 
ATOM     28 CL19 UNL A   1      -3.654  -4.107   3.728  1.00  0.00    -0.082 Cl
ATOM     29  C20 UNL A   1      -4.790  -2.518   5.586  1.00  0.00     0.024 A 
ATOM     30  C21 UNL A   1      -5.303  -2.246   6.862  1.00  0.00     0.076 A 
ATOM     31 CL22 UNL A   1      -5.684  -0.582   7.168  1.00  0.00    -0.081 Cl
ENDBRANCH   5  24
TORSDOF 4
BEGIN_RES SER A 173
REMARK  2 active torsions:
REMARK  status: ('A' for Active; 'I' for Inactive)
REMARK    1  A    between atoms: CA   and  CB  
REMARK    2  A    between atoms: CB   and  OG  
ROOT
ATOM      1  CA  SER A 173      -4.540 -11.597  11.543  1.00127.03     0.292 C 
ENDROOT
BRANCH   1   2
ATOM      2  CB  SER A 173      -4.003 -10.168  11.569  1.00131.20     0.194 C 
BRANCH   2   3
ATOM      3  OG  SER A 173      -3.941  -9.666  12.893  1.00137.49    -0.550 OA
ATOM      4  HG  SER A 173      -3.407 -10.222  13.448  1.00  0.00     0.310 HD
ENDBRANCH   2   3
ENDBRANCH   1   2
END_RES SER A 173
BEGIN_RES SER A 383
REMARK  2 active torsions:
REMARK  status: ('A' for Active; 'I' for Inactive)
REMARK    3  A    between atoms: CA   and  CB  
REMARK    4  A    between atoms: CB   and  OG  
ROOT
ATOM      5  CA  SER A 383      -8.934   0.934   8.031  1.00 88.23     0.292 C 
ENDROOT
BRANCH   5   6
ATOM      6  CB  SER A 383      -8.589   0.249   9.352  1.00 82.13     0.194 C 
BRANCH   6   7
ATOM      7  OG  SER A 383      -7.350   0.712   9.858  1.00 85.59    -0.550 OA
ATOM      8  HG  SER A 383      -6.646   0.545   9.243  1.00  0.00     0.310 HD
ENDBRANCH   6   7
ENDBRANCH   5   6
END_RES SER A 383
ENDMDL
