MODEL 1
REMARK VINA RESULT:   -10.555      0.000      0.000
REMARK INTER + INTRA:          -7.003
REMARK INTER:                 -15.491
REMARK INTRA:                   8.489
REMARK UNBOUND:                 8.489
REMARK  8 active torsions:
REMARK  status: ('A' for Active; 'I' for Inactive)
REMARK    1  A    between atoms: C3_3  and  C4_4 
REMARK       I    between atoms: C4_4  and  N6_6 
REMARK    2  A    between atoms: N6_6  and  N7_7 
REMARK    3  A    between atoms: N14_14  and  C15_15 
REMARK    4  A    between atoms: C23_23  and  C24_24 
REMARK    5  A    between atoms: C27_27  and  C28_28 
REMARK    6  A    between atoms: C28_28  and  C29_29 
REMARK    7  A    between atoms: C29_29  and  C30_30 
REMARK    8  A    between atoms: C30_30  and  C31_31 
ROOT
ATOM      1  C1  UNL A   1      -6.507  -2.052  12.131  1.00  0.00     0.034 C 
ATOM      2  C2  UNL A   1      -6.698  -2.738  10.812  1.00  0.00     0.020 A 
ATOM      3  C3  UNL A   1      -7.818  -3.483  10.278  1.00  0.00     0.155 A 
ATOM      4  N13 UNL A   1      -7.604  -3.774   8.991  1.00  0.00    -0.161 NA
ATOM      5  N14 UNL A   1      -6.358  -3.348   8.698  1.00  0.00    -0.229 N 
ATOM      6  C23 UNL A   1      -5.782  -2.669   9.757  1.00  0.00     0.086 A 
ENDROOT
BRANCH   6   7
ATOM      7  C24 UNL A   1      -4.542  -1.923   9.695  1.00  0.00     0.048 A 
ATOM      8  C25 UNL A   1      -3.307  -2.278  10.210  1.00  0.00     0.009 A 
ATOM      9  C26 UNL A   1      -2.312  -1.279   9.977  1.00  0.00     0.015 A 
ATOM     10  C27 UNL A   1      -2.810  -0.214   9.268  1.00  0.00     0.071 A 
ATOM     11  S34 UNL A   1      -4.455  -0.395   8.927  1.00  0.00    -0.077 SA
BRANCH  10  12
ATOM     12  C28 UNL A   1      -2.090   0.937   8.849  1.00  0.00    -0.058 C 
BRANCH  12  13
ATOM     13  C29 UNL A   1      -1.359   1.962   8.508  1.00  0.00    -0.086 C 
BRANCH  13  14
ATOM     14  C30 UNL A   1      -0.507   3.156   8.111  1.00  0.00     0.076 C 
BRANCH  14  15
ATOM     15  C31 UNL A   1       0.927   2.700   7.785  1.00  0.00     0.013 C 
ATOM     16  C32 UNL A   1       1.751   2.432   9.050  1.00  0.00     0.001 C 
ATOM     17  C33 UNL A   1       0.893   1.443   6.916  1.00  0.00     0.001 C 
ENDBRANCH  14  15
ENDBRANCH  13  14
ENDBRANCH  12  13
ENDBRANCH  10  12
ENDBRANCH   6   7
BRANCH   5  18
ATOM     18  C15 UNL A   1      -5.826  -3.624   7.404  1.00  0.00     0.093 A 
ATOM     19  C16 UNL A   1      -6.266  -2.873   6.298  1.00  0.00     0.021 A 
ATOM     20  C17 UNL A   1      -5.789  -3.145   5.016  1.00  0.00     0.013 A 
ATOM     21  C18 UNL A   1      -4.864  -4.167   4.827  1.00  0.00     0.059 A 
ATOM     22 CL19 UNL A   1      -4.287  -4.511   3.243  1.00  0.00    -0.082 Cl
ATOM     23  C20 UNL A   1      -4.425  -4.928   5.906  1.00  0.00     0.024 A 
ATOM     24  C21 UNL A   1      -4.895  -4.660   7.199  1.00  0.00     0.076 A 
ATOM     25 CL22 UNL A   1      -4.404  -5.784   8.427  1.00  0.00    -0.081 Cl
ENDBRANCH   5  18
BRANCH   3  26
ATOM     26  C4  UNL A   1      -9.125  -3.904  10.890  1.00  0.00     0.287 C 
ATOM     27  O5  UNL A   1      -9.167  -4.513  11.930  1.00  0.00    -0.265 OA
ATOM     28  N6  UNL A   1     -10.274  -3.527  10.151  1.00  0.00    -0.282 N 
ATOM     29  H35 UNL A   1     -10.134  -3.010   9.324  1.00  0.00     0.184 HD
BRANCH  28  30
ATOM     30  N7  UNL A   1     -11.630  -3.842  10.518  1.00  0.00    -0.199 NA
ATOM     31  C8  UNL A   1     -11.907  -5.281  10.501  1.00  0.00     0.094 C 
ATOM     32  C9  UNL A   1     -13.391  -5.572  10.731  1.00  0.00     0.019 C 
ATOM     33  C10 UNL A   1     -13.900  -4.922  12.012  1.00  0.00     0.003 C 
ATOM     34  C11 UNL A   1     -13.572  -3.433  12.010  1.00  0.00     0.019 C 
ATOM     35  C12 UNL A   1     -12.074  -3.208  11.768  1.00  0.00     0.094 C 
ENDBRANCH  28  30
ENDBRANCH   3  26
TORSDOF 8
BEGIN_RES SER A 173
REMARK  2 active torsions:
REMARK  status: ('A' for Active; 'I' for Inactive)
REMARK    1  A    between atoms: CA   and  CB  
REMARK    2  A    between atoms: CB   and  OG  
ROOT
ATOM      1  CA  SER A 173      -4.540 -11.597  11.543  1.00127.03     0.292 C 
ENDROOT
BRANCH   1   2
ATOM      2  CB  SER A 173      -4.003 -10.168  11.569  1.00131.20     0.194 C 
BRANCH   2   3
ATOM      3  OG  SER A 173      -3.950  -9.663  12.892  1.00137.49    -0.550 OA
ATOM      4  HG  SER A 173      -4.710  -9.932  13.394  1.00  0.00     0.310 HD
ENDBRANCH   2   3
ENDBRANCH   1   2
END_RES SER A 173
BEGIN_RES SER A 383
REMARK  2 active torsions:
REMARK  status: ('A' for Active; 'I' for Inactive)
REMARK    3  A    between atoms: CA   and  CB  
REMARK    4  A    between atoms: CB   and  OG  
ROOT
ATOM      5  CA  SER A 383      -8.934   0.934   8.031  1.00 88.23     0.292 C 
ENDROOT
BRANCH   5   6
ATOM      6  CB  SER A 383      -8.589   0.249   9.352  1.00 82.13     0.194 C 
BRANCH   6   7
ATOM      7  OG  SER A 383      -7.396   0.776   9.903  1.00 85.59    -0.550 OA
ATOM      8  HG  SER A 383      -6.835   1.133   9.224  1.00  0.00     0.310 HD
ENDBRANCH   6   7
ENDBRANCH   5   6
END_RES SER A 383
ENDMDL
MODEL 2
REMARK VINA RESULT:    -8.344      6.246     13.680
REMARK INTER + INTRA:          -3.757
REMARK INTER:                 -11.984
REMARK INTRA:                   8.227
REMARK UNBOUND:                 8.489
REMARK  8 active torsions:
REMARK  status: ('A' for Active; 'I' for Inactive)
REMARK    1  A    between atoms: C3_3  and  C4_4 
REMARK       I    between atoms: C4_4  and  N6_6 
REMARK    2  A    between atoms: N6_6  and  N7_7 
REMARK    3  A    between atoms: N14_14  and  C15_15 
REMARK    4  A    between atoms: C23_23  and  C24_24 
REMARK    5  A    between atoms: C27_27  and  C28_28 
REMARK    6  A    between atoms: C28_28  and  C29_29 
REMARK    7  A    between atoms: C29_29  and  C30_30 
REMARK    8  A    between atoms: C30_30  and  C31_31 
ROOT
ATOM      1  C1  UNL A   1     -13.985  -2.836  11.721  1.00  0.00     0.034 C 
ATOM      2  C2  UNL A   1     -13.775  -4.042  12.586  1.00  0.00     0.020 A 
ATOM      3  C3  UNL A   1     -12.708  -5.018  12.618  1.00  0.00     0.155 A 
ATOM      4  N13 UNL A   1     -12.858  -5.829  13.670  1.00  0.00    -0.161 NA
ATOM      5  N14 UNL A   1     -14.025  -5.492  14.257  1.00  0.00    -0.229 N 
ATOM      6  C23 UNL A   1     -14.598  -4.381  13.665  1.00  0.00     0.086 A 
ENDROOT
BRANCH   6   7
ATOM      7  C24 UNL A   1     -15.742  -3.655  14.182  1.00  0.00     0.048 A 
ATOM      8  C25 UNL A   1     -15.743  -2.542  15.004  1.00  0.00     0.009 A 
ATOM      9  C26 UNL A   1     -17.065  -2.109  15.332  1.00  0.00     0.015 A 
ATOM     10  C27 UNL A   1     -18.024  -2.883  14.727  1.00  0.00     0.071 A 
ATOM     11  S34 UNL A   1     -17.344  -4.133  13.815  1.00  0.00    -0.077 SA
BRANCH  10  12
ATOM     12  C28 UNL A   1     -19.432  -2.717  14.820  1.00  0.00    -0.058 C 
BRANCH  12  13
ATOM     13  C29 UNL A   1     -20.727  -2.639  14.954  1.00  0.00    -0.086 C 
BRANCH  13  14
ATOM     14  C30 UNL A   1     -22.236  -2.549  15.110  1.00  0.00     0.076 C 
BRANCH  14  15
ATOM     15  C31 UNL A   1     -22.853  -1.830  13.897  1.00  0.00     0.013 C 
ATOM     16  C32 UNL A   1     -22.169  -2.223  12.581  1.00  0.00     0.001 C 
ATOM     17  C33 UNL A   1     -24.348  -2.135  13.811  1.00  0.00     0.001 C 
ENDBRANCH  14  15
ENDBRANCH  13  14
ENDBRANCH  12  13
ENDBRANCH  10  12
ENDBRANCH   6   7
BRANCH   5  18
ATOM     18  C15 UNL A   1     -14.488  -6.271  15.358  1.00  0.00     0.093 A 
ATOM     19  C16 UNL A   1     -13.926  -6.073  16.633  1.00  0.00     0.021 A 
ATOM     20  C17 UNL A   1     -14.336  -6.846  17.721  1.00  0.00     0.013 A 
ATOM     21  C18 UNL A   1     -15.314  -7.819  17.545  1.00  0.00     0.059 A 
ATOM     22 CL19 UNL A   1     -15.809  -8.781  18.883  1.00  0.00    -0.082 Cl
ATOM     23  C20 UNL A   1     -15.875  -8.037  16.290  1.00  0.00     0.024 A 
ATOM     24  C21 UNL A   1     -15.473  -7.264  15.192  1.00  0.00     0.076 A 
ATOM     25 CL22 UNL A   1     -16.120  -7.745  13.655  1.00  0.00    -0.081 Cl
ENDBRANCH   5  18
BRANCH   3  26
ATOM     26  C4  UNL A   1     -11.502  -5.216  11.741  1.00  0.00     0.287 C 
ATOM     27  O5  UNL A   1     -11.365  -6.211  11.074  1.00  0.00    -0.265 OA
ATOM     28  N6  UNL A   1     -10.569  -4.151  11.769  1.00  0.00    -0.282 N 
ATOM     29  H35 UNL A   1     -10.784  -3.371  12.330  1.00  0.00     0.184 HD
BRANCH  28  30
ATOM     30  N7  UNL A   1      -9.328  -4.123  11.040  1.00  0.00    -0.199 NA
ATOM     31  C8  UNL A   1      -9.469  -3.562   9.693  1.00  0.00     0.094 C 
ATOM     32  C9  UNL A   1      -8.176  -3.699   8.887  1.00  0.00     0.019 C 
ATOM     33  C10 UNL A   1      -6.987  -3.091   9.622  1.00  0.00     0.003 C 
ATOM     34  C11 UNL A   1      -6.886  -3.674  11.026  1.00  0.00     0.019 C 
ATOM     35  C12 UNL A   1      -8.213  -3.513  11.779  1.00  0.00     0.094 C 
ENDBRANCH  28  30
ENDBRANCH   3  26
TORSDOF 8
BEGIN_RES SER A 173
REMARK  2 active torsions:
REMARK  status: ('A' for Active; 'I' for Inactive)
REMARK    1  A    between atoms: CA   and  CB  
REMARK    2  A    between atoms: CB   and  OG  
ROOT
ATOM      1  CA  SER A 173      -4.540 -11.597  11.543  1.00127.03     0.292 C 
ENDROOT
BRANCH   1   2
ATOM      2  CB  SER A 173      -4.003 -10.168  11.569  1.00131.20     0.194 C 
BRANCH   2   3
ATOM      3  OG  SER A 173      -3.918  -9.675  12.895  1.00137.49    -0.550 OA
ATOM      4  HG  SER A 173      -4.746  -9.308  13.180  1.00  0.00     0.310 HD
ENDBRANCH   2   3
ENDBRANCH   1   2
END_RES SER A 173
BEGIN_RES SER A 383
REMARK  2 active torsions:
REMARK  status: ('A' for Active; 'I' for Inactive)
REMARK    3  A    between atoms: CA   and  CB  
REMARK    4  A    between atoms: CB   and  OG  
ROOT
ATOM      5  CA  SER A 383      -8.934   0.934   8.031  1.00 88.23     0.292 C 
ENDROOT
BRANCH   5   6
ATOM      6  CB  SER A 383      -8.589   0.249   9.352  1.00 82.13     0.194 C 
BRANCH   6   7
ATOM      7  OG  SER A 383      -7.239   0.482   9.710  1.00 85.59    -0.550 OA
ATOM      8  HG  SER A 383      -7.082   0.254  10.619  1.00  0.00     0.310 HD
ENDBRANCH   6   7
ENDBRANCH   5   6
END_RES SER A 383
ENDMDL
MODEL 3
REMARK VINA RESULT:    -8.317      8.237     13.063
REMARK INTER + INTRA:          -3.718
REMARK INTER:                 -11.954
REMARK INTRA:                   8.236
REMARK UNBOUND:                 8.489
REMARK  8 active torsions:
REMARK  status: ('A' for Active; 'I' for Inactive)
REMARK    1  A    between atoms: C3_3  and  C4_4 
REMARK       I    between atoms: C4_4  and  N6_6 
REMARK    2  A    between atoms: N6_6  and  N7_7 
REMARK    3  A    between atoms: N14_14  and  C15_15 
REMARK    4  A    between atoms: C23_23  and  C24_24 
REMARK    5  A    between atoms: C27_27  and  C28_28 
REMARK    6  A    between atoms: C28_28  and  C29_29 
REMARK    7  A    between atoms: C29_29  and  C30_30 
REMARK    8  A    between atoms: C30_30  and  C31_31 
ROOT
ATOM      1  C1  UNL A   1     -18.246  -1.160  14.011  1.00  0.00     0.034 C 
ATOM      2  C2  UNL A   1     -18.537  -2.576  14.411  1.00  0.00     0.020 A 
ATOM      3  C3  UNL A   1     -19.788  -3.263  14.645  1.00  0.00     0.155 A 
ATOM      4  N13 UNL A   1     -19.569  -4.569  14.822  1.00  0.00    -0.161 NA
ATOM      5  N14 UNL A   1     -18.231  -4.743  14.819  1.00  0.00    -0.229 N 
ATOM      6  C23 UNL A   1     -17.559  -3.570  14.526  1.00  0.00     0.086 A 
ENDROOT
BRANCH   6   7
ATOM      7  C24 UNL A   1     -16.139  -3.466  14.253  1.00  0.00     0.048 A 
ATOM      8  C25 UNL A   1     -15.115  -3.231  15.154  1.00  0.00     0.009 A 
ATOM      9  C26 UNL A   1     -13.836  -3.171  14.518  1.00  0.00     0.015 A 
ATOM     10  C27 UNL A   1     -13.922  -3.392  13.166  1.00  0.00     0.071 A 
ATOM     11  S34 UNL A   1     -15.519  -3.627  12.665  1.00  0.00    -0.077 SA
BRANCH  10  12
ATOM     12  C28 UNL A   1     -12.845  -3.425  12.241  1.00  0.00    -0.058 C 
BRANCH  12  13
ATOM     13  C29 UNL A   1     -11.828  -3.529  11.431  1.00  0.00    -0.086 C 
BRANCH  13  14
ATOM     14  C30 UNL A   1     -10.642  -3.651  10.488  1.00  0.00     0.076 C 
BRANCH  14  15
ATOM     15  C31 UNL A   1      -9.596  -4.617  11.073  1.00  0.00     0.013 C 
ATOM     16  C32 UNL A   1      -8.579  -3.896  11.967  1.00  0.00     0.001 C 
ATOM     17  C33 UNL A   1     -10.289  -5.722  11.869  1.00  0.00     0.001 C 
ENDBRANCH  14  15
ENDBRANCH  13  14
ENDBRANCH  12  13
ENDBRANCH  10  12
ENDBRANCH   6   7
BRANCH   5  18
ATOM     18  C15 UNL A   1     -17.708  -6.042  15.091  1.00  0.00     0.093 A 
ATOM     19  C16 UNL A   1     -17.601  -6.979  14.046  1.00  0.00     0.021 A 
ATOM     20  C17 UNL A   1     -17.126  -8.268  14.291  1.00  0.00     0.013 A 
ATOM     21  C18 UNL A   1     -16.749  -8.630  15.579  1.00  0.00     0.059 A 
ATOM     22 CL19 UNL A   1     -16.176 -10.224  15.883  1.00  0.00    -0.082 Cl
ATOM     23  C20 UNL A   1     -16.856  -7.721  16.628  1.00  0.00     0.024 A 
ATOM     24  C21 UNL A   1     -17.329  -6.423  16.392  1.00  0.00     0.076 A 
ATOM     25 CL22 UNL A   1     -17.577  -5.444  17.803  1.00  0.00    -0.081 Cl
ENDBRANCH   5  18
BRANCH   3  26
ATOM     26  C4  UNL A   1     -21.211  -2.777  14.664  1.00  0.00     0.287 C 
ATOM     27  O5  UNL A   1     -21.844  -2.722  15.689  1.00  0.00    -0.265 OA
ATOM     28  N6  UNL A   1     -21.724  -2.397  13.399  1.00  0.00    -0.282 N 
ATOM     29  H35 UNL A   1     -21.118  -2.456  12.625  1.00  0.00     0.184 HD
BRANCH  28  30
ATOM     30  N7  UNL A   1     -23.064  -1.929  13.160  1.00  0.00    -0.199 NA
ATOM     31  C8  UNL A   1     -23.161  -0.467  13.121  1.00  0.00     0.094 C 
ATOM     32  C9  UNL A   1     -24.616  -0.000  13.032  1.00  0.00     0.019 C 
ATOM     33  C10 UNL A   1     -25.341  -0.639  11.854  1.00  0.00     0.003 C 
ATOM     34  C11 UNL A   1     -25.197  -2.155  11.909  1.00  0.00     0.019 C 
ATOM     35  C12 UNL A   1     -23.720  -2.558  12.004  1.00  0.00     0.094 C 
ENDBRANCH  28  30
ENDBRANCH   3  26
TORSDOF 8
BEGIN_RES SER A 173
REMARK  2 active torsions:
REMARK  status: ('A' for Active; 'I' for Inactive)
REMARK    1  A    between atoms: CA   and  CB  
REMARK    2  A    between atoms: CB   and  OG  
ROOT
ATOM      1  CA  SER A 173      -4.540 -11.597  11.543  1.00127.03     0.292 C 
ENDROOT
BRANCH   1   2
ATOM      2  CB  SER A 173      -4.003 -10.168  11.569  1.00131.20     0.194 C 
BRANCH   2   3
ATOM      3  OG  SER A 173      -3.942  -9.666  12.893  1.00137.49    -0.550 OA
ATOM      4  HG  SER A 173      -4.177  -8.746  12.924  1.00  0.00     0.310 HD
ENDBRANCH   2   3
ENDBRANCH   1   2
END_RES SER A 173
BEGIN_RES SER A 383
REMARK  2 active torsions:
REMARK  status: ('A' for Active; 'I' for Inactive)
REMARK    3  A    between atoms: CA   and  CB  
REMARK    4  A    between atoms: CB   and  OG  
ROOT
ATOM      5  CA  SER A 383      -8.934   0.934   8.031  1.00 88.23     0.292 C 
ENDROOT
BRANCH   5   6
ATOM      6  CB  SER A 383      -8.589   0.249   9.352  1.00 82.13     0.194 C 
BRANCH   6   7
ATOM      7  OG  SER A 383      -7.337   0.692   9.844  1.00 85.59    -0.550 OA
ATOM      8  HG  SER A 383      -7.059   0.171  10.589  1.00  0.00     0.310 HD
ENDBRANCH   6   7
ENDBRANCH   5   6
END_RES SER A 383
ENDMDL
MODEL 4
REMARK VINA RESULT:    -8.241     10.278     14.562
REMARK INTER + INTRA:          -3.606
REMARK INTER:                 -11.918
REMARK INTRA:                   8.312
REMARK UNBOUND:                 8.489
REMARK  8 active torsions:
REMARK  status: ('A' for Active; 'I' for Inactive)
REMARK    1  A    between atoms: C3_3  and  C4_4 
REMARK       I    between atoms: C4_4  and  N6_6 
REMARK    2  A    between atoms: N6_6  and  N7_7 
REMARK    3  A    between atoms: N14_14  and  C15_15 
REMARK    4  A    between atoms: C23_23  and  C24_24 
REMARK    5  A    between atoms: C27_27  and  C28_28 
REMARK    6  A    between atoms: C28_28  and  C29_29 
REMARK    7  A    between atoms: C29_29  and  C30_30 
REMARK    8  A    between atoms: C30_30  and  C31_31 
ROOT
ATOM      1  C1  UNL A   1     -16.095  -6.984  18.710  1.00  0.00     0.034 C 
ATOM      2  C2  UNL A   1     -15.189  -6.552  17.597  1.00  0.00     0.020 A 
ATOM      3  C3  UNL A   1     -13.764  -6.713  17.409  1.00  0.00     0.155 A 
ATOM      4  N13 UNL A   1     -13.413  -6.313  16.184  1.00  0.00    -0.161 NA
ATOM      5  N14 UNL A   1     -14.522  -5.803  15.609  1.00  0.00    -0.229 N 
ATOM      6  C23 UNL A   1     -15.640  -5.968  16.408  1.00  0.00     0.086 A 
ENDROOT
BRANCH   6   7
ATOM      7  C24 UNL A   1     -17.005  -5.710  15.997  1.00  0.00     0.048 A 
ATOM      8  C25 UNL A   1     -17.929  -6.612  15.498  1.00  0.00     0.009 A 
ATOM      9  C26 UNL A   1     -19.176  -5.992  15.177  1.00  0.00     0.015 A 
ATOM     10  C27 UNL A   1     -19.173  -4.650  15.468  1.00  0.00     0.071 A 
ATOM     11  S34 UNL A   1     -17.682  -4.139  16.078  1.00  0.00    -0.077 SA
BRANCH  10  12
ATOM     12  C28 UNL A   1     -20.251  -3.741  15.294  1.00  0.00    -0.058 C 
BRANCH  12  13
ATOM     13  C29 UNL A   1     -21.225  -2.910  15.047  1.00  0.00    -0.086 C 
BRANCH  13  14
ATOM     14  C30 UNL A   1     -22.359  -1.941  14.759  1.00  0.00     0.076 C 
BRANCH  14  15
ATOM     15  C31 UNL A   1     -23.260  -2.494  13.640  1.00  0.00     0.013 C 
ATOM     16  C32 UNL A   1     -24.615  -1.777  13.579  1.00  0.00     0.001 C 
ATOM     17  C33 UNL A   1     -22.553  -2.374  12.290  1.00  0.00     0.001 C 
ENDBRANCH  14  15
ENDBRANCH  13  14
ENDBRANCH  12  13
ENDBRANCH  10  12
ENDBRANCH   6   7
BRANCH   5  18
ATOM     18  C15 UNL A   1     -14.412  -5.205  14.319  1.00  0.00     0.093 A 
ATOM     19  C16 UNL A   1     -14.082  -3.840  14.212  1.00  0.00     0.021 A 
ATOM     20  C17 UNL A   1     -14.002  -3.222  12.964  1.00  0.00     0.013 A 
ATOM     21  C18 UNL A   1     -14.244  -3.962  11.811  1.00  0.00     0.059 A 
ATOM     22 CL19 UNL A   1     -14.159  -3.196  10.273  1.00  0.00    -0.082 Cl
ATOM     23  C20 UNL A   1     -14.581  -5.310  11.896  1.00  0.00     0.024 A 
ATOM     24  C21 UNL A   1     -14.661  -5.941  13.145  1.00  0.00     0.076 A 
ATOM     25 CL22 UNL A   1     -15.254  -7.572  13.128  1.00  0.00    -0.081 Cl
ENDBRANCH   5  18
BRANCH   3  26
ATOM     26  C4  UNL A   1     -12.693  -7.277  18.302  1.00  0.00     0.287 C 
ATOM     27  O5  UNL A   1     -11.563  -6.856  18.273  1.00  0.00    -0.265 OA
ATOM     28  N6  UNL A   1     -13.124  -8.319  19.159  1.00  0.00    -0.282 N 
ATOM     29  H35 UNL A   1     -14.074  -8.575  19.123  1.00  0.00     0.184 HD
BRANCH  28  30
ATOM     30  N7  UNL A   1     -12.277  -9.033  20.079  1.00  0.00    -0.199 NA
ATOM     31  C8  UNL A   1     -12.297  -8.466  21.431  1.00  0.00     0.094 C 
ATOM     32  C9  UNL A   1     -11.266  -9.139  22.339  1.00  0.00     0.019 C 
ATOM     33  C10 UNL A   1     -11.443 -10.653  22.367  1.00  0.00     0.003 C 
ATOM     34  C11 UNL A   1     -11.447 -11.206  20.947  1.00  0.00     0.019 C 
ATOM     35  C12 UNL A   1     -12.494 -10.487  20.086  1.00  0.00     0.094 C 
ENDBRANCH  28  30
ENDBRANCH   3  26
TORSDOF 8
BEGIN_RES SER A 173
REMARK  2 active torsions:
REMARK  status: ('A' for Active; 'I' for Inactive)
REMARK    1  A    between atoms: CA   and  CB  
REMARK    2  A    between atoms: CB   and  OG  
ROOT
ATOM      1  CA  SER A 173      -4.540 -11.597  11.543  1.00127.03     0.292 C 
ENDROOT
BRANCH   1   2
ATOM      2  CB  SER A 173      -4.003 -10.168  11.569  1.00131.20     0.194 C 
BRANCH   2   3
ATOM      3  OG  SER A 173      -3.933  -9.669  12.894  1.00137.49    -0.550 OA
ATOM      4  HG  SER A 173      -4.249  -8.775  12.942  1.00  0.00     0.310 HD
ENDBRANCH   2   3
ENDBRANCH   1   2
END_RES SER A 173
BEGIN_RES SER A 383
REMARK  2 active torsions:
REMARK  status: ('A' for Active; 'I' for Inactive)
REMARK    3  A    between atoms: CA   and  CB  
REMARK    4  A    between atoms: CB   and  OG  
ROOT
ATOM      5  CA  SER A 383      -8.934   0.934   8.031  1.00 88.23     0.292 C 
ENDROOT
BRANCH   5   6
ATOM      6  CB  SER A 383      -8.589   0.249   9.352  1.00 82.13     0.194 C 
BRANCH   6   7
ATOM      7  OG  SER A 383      -7.313   0.651   9.816  1.00 85.59    -0.550 OA
ATOM      8  HG  SER A 383      -7.375   1.437  10.348  1.00  0.00     0.310 HD
ENDBRANCH   6   7
ENDBRANCH   5   6
END_RES SER A 383
ENDMDL
MODEL 5
REMARK VINA RESULT:    -8.169      5.780     12.884
REMARK INTER + INTRA:          -3.501
REMARK INTER:                 -11.728
REMARK INTRA:                   8.226
REMARK UNBOUND:                 8.489
REMARK  8 active torsions:
REMARK  status: ('A' for Active; 'I' for Inactive)
REMARK    1  A    between atoms: C3_3  and  C4_4 
REMARK       I    between atoms: C4_4  and  N6_6 
REMARK    2  A    between atoms: N6_6  and  N7_7 
REMARK    3  A    between atoms: N14_14  and  C15_15 
REMARK    4  A    between atoms: C23_23  and  C24_24 
REMARK    5  A    between atoms: C27_27  and  C28_28 
REMARK    6  A    between atoms: C28_28  and  C29_29 
REMARK    7  A    between atoms: C29_29  and  C30_30 
REMARK    8  A    between atoms: C30_30  and  C31_31 
ROOT
ATOM      1  C1  UNL A   1     -11.452  -6.230  12.648  1.00  0.00     0.034 C 
ATOM      2  C2  UNL A   1     -12.261  -4.969  12.605  1.00  0.00     0.020 A 
ATOM      3  C3  UNL A   1     -12.063  -3.732  11.881  1.00  0.00     0.155 A 
ATOM      4  N13 UNL A   1     -13.131  -2.941  12.021  1.00  0.00    -0.161 NA
ATOM      5  N14 UNL A   1     -13.963  -3.560  12.885  1.00  0.00    -0.229 N 
ATOM      6  C23 UNL A   1     -13.503  -4.818  13.233  1.00  0.00     0.086 A 
ENDROOT
BRANCH   6   7
ATOM      7  C24 UNL A   1     -14.256  -5.806  13.978  1.00  0.00     0.048 A 
ATOM      8  C25 UNL A   1     -15.218  -6.680  13.503  1.00  0.00     0.009 A 
ATOM      9  C26 UNL A   1     -15.768  -7.499  14.537  1.00  0.00     0.015 A 
ATOM     10  C27 UNL A   1     -15.189  -7.246  15.756  1.00  0.00     0.071 A 
ATOM     11  S34 UNL A   1     -14.034  -6.015  15.663  1.00  0.00    -0.077 SA
BRANCH  10  12
ATOM     12  C28 UNL A   1     -15.482  -7.893  16.986  1.00  0.00    -0.058 C 
BRANCH  12  13
ATOM     13  C29 UNL A   1     -15.665  -8.481  18.136  1.00  0.00    -0.086 C 
BRANCH  13  14
ATOM     14  C30 UNL A   1     -15.878  -9.166  19.475  1.00  0.00     0.076 C 
BRANCH  14  15
ATOM     15  C31 UNL A   1     -14.697 -10.103  19.786  1.00  0.00     0.013 C 
ATOM     16  C32 UNL A   1     -14.620 -11.282  18.807  1.00  0.00     0.001 C 
ATOM     17  C33 UNL A   1     -13.384  -9.321  19.754  1.00  0.00     0.001 C 
ENDBRANCH  14  15
ENDBRANCH  13  14
ENDBRANCH  12  13
ENDBRANCH  10  12
ENDBRANCH   6   7
BRANCH   5  18
ATOM     18  C15 UNL A   1     -15.149  -2.884  13.296  1.00  0.00     0.093 A 
ATOM     19  C16 UNL A   1     -16.257  -2.838  12.429  1.00  0.00     0.021 A 
ATOM     20  C17 UNL A   1     -17.418  -2.154  12.792  1.00  0.00     0.013 A 
ATOM     21  C18 UNL A   1     -17.484  -1.515  14.026  1.00  0.00     0.059 A 
ATOM     22 CL19 UNL A   1     -18.911  -0.660  14.467  1.00  0.00    -0.082 Cl
ATOM     23  C20 UNL A   1     -16.396  -1.541  14.892  1.00  0.00     0.024 A 
ATOM     24  C21 UNL A   1     -15.226  -2.228  14.539  1.00  0.00     0.076 A 
ATOM     25 CL22 UNL A   1     -13.886  -2.043  15.626  1.00  0.00    -0.081 Cl
ENDBRANCH   5  18
BRANCH   3  26
ATOM     26  C4  UNL A   1     -10.938  -3.252  11.007  1.00  0.00     0.287 C 
ATOM     27  O5  UNL A   1     -11.137  -2.857   9.885  1.00  0.00    -0.265 OA
ATOM     28  N6  UNL A   1      -9.656  -3.304  11.608  1.00  0.00    -0.282 N 
ATOM     29  H35 UNL A   1      -9.602  -3.621  12.539  1.00  0.00     0.184 HD
BRANCH  28  30
ATOM     30  N7  UNL A   1      -8.427  -2.927  10.962  1.00  0.00    -0.199 NA
ATOM     31  C8  UNL A   1      -7.333  -2.689  11.908  1.00  0.00     0.094 C 
ATOM     32  C9  UNL A   1      -6.092  -2.131  11.207  1.00  0.00     0.019 C 
ATOM     33  C10 UNL A   1      -5.647  -3.024  10.055  1.00  0.00     0.003 C 
ATOM     34  C11 UNL A   1      -6.814  -3.275   9.106  1.00  0.00     0.019 C 
ATOM     35  C12 UNL A   1      -8.026  -3.825   9.868  1.00  0.00     0.094 C 
ENDBRANCH  28  30
ENDBRANCH   3  26
TORSDOF 8
BEGIN_RES SER A 173
REMARK  2 active torsions:
REMARK  status: ('A' for Active; 'I' for Inactive)
REMARK    1  A    between atoms: CA   and  CB  
REMARK    2  A    between atoms: CB   and  OG  
ROOT
ATOM      1  CA  SER A 173      -4.540 -11.597  11.543  1.00127.03     0.292 C 
ENDROOT
BRANCH   1   2
ATOM      2  CB  SER A 173      -4.003 -10.168  11.569  1.00131.20     0.194 C 
BRANCH   2   3
ATOM      3  OG  SER A 173      -3.918  -9.675  12.895  1.00137.49    -0.550 OA
ATOM      4  HG  SER A 173      -4.758  -9.725  13.336  1.00  0.00     0.310 HD
ENDBRANCH   2   3
ENDBRANCH   1   2
END_RES SER A 173
BEGIN_RES SER A 383
REMARK  2 active torsions:
REMARK  status: ('A' for Active; 'I' for Inactive)
REMARK    3  A    between atoms: CA   and  CB  
REMARK    4  A    between atoms: CB   and  OG  
ROOT
ATOM      5  CA  SER A 383      -8.934   0.934   8.031  1.00 88.23     0.292 C 
ENDROOT
BRANCH   5   6
ATOM      6  CB  SER A 383      -8.589   0.249   9.352  1.00 82.13     0.194 C 
BRANCH   6   7
ATOM      7  OG  SER A 383      -7.325   0.672   9.830  1.00 85.59    -0.550 OA
ATOM      8  HG  SER A 383      -6.630   0.114   9.499  1.00  0.00     0.310 HD
ENDBRANCH   6   7
ENDBRANCH   5   6
END_RES SER A 383
ENDMDL
MODEL 6
REMARK VINA RESULT:    -7.928      5.350     12.762
REMARK INTER + INTRA:          -3.147
REMARK INTER:                 -11.343
REMARK INTRA:                   8.196
REMARK UNBOUND:                 8.489
REMARK  8 active torsions:
REMARK  status: ('A' for Active; 'I' for Inactive)
REMARK    1  A    between atoms: C3_3  and  C4_4 
REMARK       I    between atoms: C4_4  and  N6_6 
REMARK    2  A    between atoms: N6_6  and  N7_7 
REMARK    3  A    between atoms: N14_14  and  C15_15 
REMARK    4  A    between atoms: C23_23  and  C24_24 
REMARK    5  A    between atoms: C27_27  and  C28_28 
REMARK    6  A    between atoms: C28_28  and  C29_29 
REMARK    7  A    between atoms: C29_29  and  C30_30 
REMARK    8  A    between atoms: C30_30  and  C31_31 
ROOT
ATOM      1  C1  UNL A   1     -10.851  -6.178  12.180  1.00  0.00     0.034 C 
ATOM      2  C2  UNL A   1     -11.706  -4.949  12.262  1.00  0.00     0.020 A 
ATOM      3  C3  UNL A   1     -11.402  -3.557  12.011  1.00  0.00     0.155 A 
ATOM      4  N13 UNL A   1     -12.522  -2.828  12.050  1.00  0.00    -0.161 NA
ATOM      5  N14 UNL A   1     -13.516  -3.662  12.419  1.00  0.00    -0.229 N 
ATOM      6  C23 UNL A   1     -13.082  -4.973  12.514  1.00  0.00     0.086 A 
ENDROOT
BRANCH   6   7
ATOM      7  C24 UNL A   1     -13.941  -6.126  12.694  1.00  0.00     0.048 A 
ATOM      8  C25 UNL A   1     -14.509  -6.925  11.717  1.00  0.00     0.009 A 
ATOM      9  C26 UNL A   1     -15.321  -7.964  12.268  1.00  0.00     0.015 A 
ATOM     10  C27 UNL A   1     -15.321  -7.943  13.641  1.00  0.00     0.071 A 
ATOM     11  S34 UNL A   1     -14.393  -6.670  14.253  1.00  0.00    -0.077 SA
BRANCH  10  12
ATOM     12  C28 UNL A   1     -16.002  -8.843  14.504  1.00  0.00    -0.058 C 
BRANCH  12  13
ATOM     13  C29 UNL A   1     -16.554  -9.720  15.295  1.00  0.00    -0.086 C 
BRANCH  13  14
ATOM     14  C30 UNL A   1     -17.197 -10.742  16.218  1.00  0.00     0.076 C 
BRANCH  14  15
ATOM     15  C31 UNL A   1     -16.250 -11.936  16.431  1.00  0.00     0.013 C 
ATOM     16  C32 UNL A   1     -15.821 -12.579  15.105  1.00  0.00     0.001 C 
ATOM     17  C33 UNL A   1     -15.013 -11.492  17.211  1.00  0.00     0.001 C 
ENDBRANCH  14  15
ENDBRANCH  13  14
ENDBRANCH  12  13
ENDBRANCH  10  12
ENDBRANCH   6   7
BRANCH   5  18
ATOM     18  C15 UNL A   1     -14.817  -3.122  12.639  1.00  0.00     0.093 A 
ATOM     19  C16 UNL A   1     -15.196  -2.731  13.937  1.00  0.00     0.021 A 
ATOM     20  C17 UNL A   1     -16.476  -2.232  14.186  1.00  0.00     0.013 A 
ATOM     21  C18 UNL A   1     -17.385  -2.113  13.140  1.00  0.00     0.059 A 
ATOM     22 CL19 UNL A   1     -18.966  -1.511  13.450  1.00  0.00    -0.082 Cl
ATOM     23  C20 UNL A   1     -17.032  -2.504  11.851  1.00  0.00     0.024 A 
ATOM     24  C21 UNL A   1     -15.749  -3.003  11.590  1.00  0.00     0.076 A 
ATOM     25 CL22 UNL A   1     -15.490  -3.612   9.986  1.00  0.00    -0.081 Cl
ENDBRANCH   5  18
BRANCH   3  26
ATOM     26  C4  UNL A   1     -10.114  -2.856  11.678  1.00  0.00     0.287 C 
ATOM     27  O5  UNL A   1      -9.815  -1.809  12.196  1.00  0.00    -0.265 OA
ATOM     28  N6  UNL A   1      -9.306  -3.523  10.725  1.00  0.00    -0.282 N 
ATOM     29  H35 UNL A   1      -9.629  -4.386  10.377  1.00  0.00     0.184 HD
BRANCH  28  30
ATOM     30  N7  UNL A   1      -8.047  -3.035  10.226  1.00  0.00    -0.199 NA
ATOM     31  C8  UNL A   1      -6.931  -3.291  11.143  1.00  0.00     0.094 C 
ATOM     32  C9  UNL A   1      -5.643  -2.617  10.665  1.00  0.00     0.019 C 
ATOM     33  C10 UNL A   1      -5.294  -3.019   9.237  1.00  0.00     0.003 C 
ATOM     34  C11 UNL A   1      -6.483  -2.767   8.316  1.00  0.00     0.019 C 
ATOM     35  C12 UNL A   1      -7.742  -3.461   8.852  1.00  0.00     0.094 C 
ENDBRANCH  28  30
ENDBRANCH   3  26
TORSDOF 8
BEGIN_RES SER A 173
REMARK  2 active torsions:
REMARK  status: ('A' for Active; 'I' for Inactive)
REMARK    1  A    between atoms: CA   and  CB  
REMARK    2  A    between atoms: CB   and  OG  
ROOT
ATOM      1  CA  SER A 173      -4.540 -11.597  11.543  1.00127.03     0.292 C 
ENDROOT
BRANCH   1   2
ATOM      2  CB  SER A 173      -4.003 -10.168  11.569  1.00131.20     0.194 C 
BRANCH   2   3
ATOM      3  OG  SER A 173      -3.946  -9.664  12.892  1.00137.49    -0.550 OA
ATOM      4  HG  SER A 173      -4.675  -9.082  13.071  1.00  0.00     0.310 HD
ENDBRANCH   2   3
ENDBRANCH   1   2
END_RES SER A 173
BEGIN_RES SER A 383
REMARK  2 active torsions:
REMARK  status: ('A' for Active; 'I' for Inactive)
REMARK    3  A    between atoms: CA   and  CB  
REMARK    4  A    between atoms: CB   and  OG  
ROOT
ATOM      5  CA  SER A 383      -8.934   0.934   8.031  1.00 88.23     0.292 C 
ENDROOT
BRANCH   5   6
ATOM      6  CB  SER A 383      -8.589   0.249   9.352  1.00 82.13     0.194 C 
BRANCH   6   7
ATOM      7  OG  SER A 383      -7.226   0.440   9.684  1.00 85.59    -0.550 OA
ATOM      8  HG  SER A 383      -7.012   1.365   9.730  1.00  0.00     0.310 HD
ENDBRANCH   6   7
ENDBRANCH   5   6
END_RES SER A 383
ENDMDL
MODEL 7
REMARK VINA RESULT:    -7.855      6.654     11.289
REMARK INTER + INTRA:          -3.040
REMARK INTER:                 -11.802
REMARK INTRA:                   8.762
REMARK UNBOUND:                 8.489
REMARK  8 active torsions:
REMARK  status: ('A' for Active; 'I' for Inactive)
REMARK    1  A    between atoms: C3_3  and  C4_4 
REMARK       I    between atoms: C4_4  and  N6_6 
REMARK    2  A    between atoms: N6_6  and  N7_7 
REMARK    3  A    between atoms: N14_14  and  C15_15 
REMARK    4  A    between atoms: C23_23  and  C24_24 
REMARK    5  A    between atoms: C27_27  and  C28_28 
REMARK    6  A    between atoms: C28_28  and  C29_29 
REMARK    7  A    between atoms: C29_29  and  C30_30 
REMARK    8  A    between atoms: C30_30  and  C31_31 
ROOT
ATOM      1  C1  UNL A   1     -16.621  -3.260  11.764  1.00  0.00     0.034 C 
ATOM      2  C2  UNL A   1     -16.515  -3.793  13.161  1.00  0.00     0.020 A 
ATOM      3  C3  UNL A   1     -17.472  -3.825  14.245  1.00  0.00     0.155 A 
ATOM      4  N13 UNL A   1     -16.992  -4.549  15.261  1.00  0.00    -0.161 NA
ATOM      5  N14 UNL A   1     -15.731  -4.897  14.930  1.00  0.00    -0.229 N 
ATOM      6  C23 UNL A   1     -15.409  -4.502  13.643  1.00  0.00     0.086 A 
ENDROOT
BRANCH   6   7
ATOM      7  C24 UNL A   1     -14.213  -4.895  12.924  1.00  0.00     0.048 A 
ATOM      8  C25 UNL A   1     -13.894  -6.144  12.420  1.00  0.00     0.009 A 
ATOM      9  C26 UNL A   1     -12.613  -6.164  11.787  1.00  0.00     0.015 A 
ATOM     10  C27 UNL A   1     -12.014  -4.929  11.800  1.00  0.00     0.071 A 
ATOM     11  S34 UNL A   1     -12.958  -3.777  12.598  1.00  0.00    -0.077 SA
BRANCH  10  12
ATOM     12  C28 UNL A   1     -10.752  -4.592  11.240  1.00  0.00    -0.058 C 
BRANCH  12  13
ATOM     13  C29 UNL A   1      -9.639  -4.242  10.660  1.00  0.00    -0.086 C 
BRANCH  13  14
ATOM     14  C30 UNL A   1      -8.340  -3.835   9.984  1.00  0.00     0.076 C 
BRANCH  14  15
ATOM     15  C31 UNL A   1      -7.197  -3.787  11.014  1.00  0.00     0.013 C 
ATOM     16  C32 UNL A   1      -5.815  -3.831  10.348  1.00  0.00     0.001 C 
ATOM     17  C33 UNL A   1      -7.315  -2.526  11.870  1.00  0.00     0.001 C 
ENDBRANCH  14  15
ENDBRANCH  13  14
ENDBRANCH  12  13
ENDBRANCH  10  12
ENDBRANCH   6   7
BRANCH   5  18
ATOM     18  C15 UNL A   1     -14.940  -5.598  15.887  1.00  0.00     0.093 A 
ATOM     19  C16 UNL A   1     -13.683  -5.084  16.258  1.00  0.00     0.021 A 
ATOM     20  C17 UNL A   1     -12.874  -5.768  17.166  1.00  0.00     0.013 A 
ATOM     21  C18 UNL A   1     -13.315  -6.967  17.715  1.00  0.00     0.059 A 
ATOM     22 CL19 UNL A   1     -12.310  -7.817  18.823  1.00  0.00    -0.082 Cl
ATOM     23  C20 UNL A   1     -14.550  -7.497  17.353  1.00  0.00     0.024 A 
ATOM     24  C21 UNL A   1     -15.372  -6.816  16.444  1.00  0.00     0.076 A 
ATOM     25 CL22 UNL A   1     -16.805  -7.660  15.947  1.00  0.00    -0.081 Cl
ENDBRANCH   5  18
BRANCH   3  26
ATOM     26  C4  UNL A   1     -18.857  -3.255  14.377  1.00  0.00     0.287 C 
ATOM     27  O5  UNL A   1     -19.707  -3.808  15.029  1.00  0.00    -0.265 OA
ATOM     28  N6  UNL A   1     -19.064  -2.037  13.684  1.00  0.00    -0.282 N 
ATOM     29  H35 UNL A   1     -18.298  -1.653  13.198  1.00  0.00     0.184 HD
BRANCH  28  30
ATOM     30  N7  UNL A   1     -20.310  -1.317  13.636  1.00  0.00    -0.199 NA
ATOM     31  C8  UNL A   1     -20.251  -0.025  14.326  1.00  0.00     0.094 C 
ATOM     32  C9  UNL A   1     -21.628   0.637  14.402  1.00  0.00     0.019 C 
ATOM     33  C10 UNL A   1     -22.265   0.770  13.024  1.00  0.00     0.003 C 
ATOM     34  C11 UNL A   1     -22.285  -0.583  12.322  1.00  0.00     0.019 C 
ATOM     35  C12 UNL A   1     -20.880  -1.197  12.285  1.00  0.00     0.094 C 
ENDBRANCH  28  30
ENDBRANCH   3  26
TORSDOF 8
BEGIN_RES SER A 173
REMARK  2 active torsions:
REMARK  status: ('A' for Active; 'I' for Inactive)
REMARK    1  A    between atoms: CA   and  CB  
REMARK    2  A    between atoms: CB   and  OG  
ROOT
ATOM      1  CA  SER A 173      -4.540 -11.597  11.543  1.00127.03     0.292 C 
ENDROOT
BRANCH   1   2
ATOM      2  CB  SER A 173      -4.003 -10.168  11.569  1.00131.20     0.194 C 
BRANCH   2   3
ATOM      3  OG  SER A 173      -3.933  -9.669  12.894  1.00137.49    -0.550 OA
ATOM      4  HG  SER A 173      -3.032  -9.597  13.187  1.00  0.00     0.310 HD
ENDBRANCH   2   3
ENDBRANCH   1   2
END_RES SER A 173
BEGIN_RES SER A 383
REMARK  2 active torsions:
REMARK  status: ('A' for Active; 'I' for Inactive)
REMARK    3  A    between atoms: CA   and  CB  
REMARK    4  A    between atoms: CB   and  OG  
ROOT
ATOM      5  CA  SER A 383      -8.934   0.934   8.031  1.00 88.23     0.292 C 
ENDROOT
BRANCH   5   6
ATOM      6  CB  SER A 383      -8.589   0.249   9.352  1.00 82.13     0.194 C 
BRANCH   6   7
ATOM      7  OG  SER A 383      -7.190   0.079   9.488  1.00 85.59    -0.550 OA
ATOM      8  HG  SER A 383      -6.721   0.545   8.804  1.00  0.00     0.310 HD
ENDBRANCH   6   7
ENDBRANCH   5   6
END_RES SER A 383
ENDMDL
MODEL 8
REMARK VINA RESULT:    -7.666     10.307     14.259
REMARK INTER + INTRA:          -2.762
REMARK INTER:                 -11.029
REMARK INTRA:                   8.266
REMARK UNBOUND:                 8.489
REMARK  8 active torsions:
REMARK  status: ('A' for Active; 'I' for Inactive)
REMARK    1  A    between atoms: C3_3  and  C4_4 
REMARK       I    between atoms: C4_4  and  N6_6 
REMARK    2  A    between atoms: N6_6  and  N7_7 
REMARK    3  A    between atoms: N14_14  and  C15_15 
REMARK    4  A    between atoms: C23_23  and  C24_24 
REMARK    5  A    between atoms: C27_27  and  C28_28 
REMARK    6  A    between atoms: C28_28  and  C29_29 
REMARK    7  A    between atoms: C29_29  and  C30_30 
REMARK    8  A    between atoms: C30_30  and  C31_31 
ROOT
ATOM      1  C1  UNL A   1     -20.456  -4.637  16.079  1.00  0.00     0.034 C 
ATOM      2  C2  UNL A   1     -19.527  -3.871  15.186  1.00  0.00     0.020 A 
ATOM      3  C3  UNL A   1     -19.537  -2.487  14.761  1.00  0.00     0.155 A 
ATOM      4  N13 UNL A   1     -18.415  -2.203  14.094  1.00  0.00    -0.161 NA
ATOM      5  N14 UNL A   1     -17.730  -3.360  13.974  1.00  0.00    -0.229 N 
ATOM      6  C23 UNL A   1     -18.340  -4.394  14.662  1.00  0.00     0.086 A 
ENDROOT
BRANCH   6   7
ATOM      7  C24 UNL A   1     -17.758  -5.700  14.893  1.00  0.00     0.048 A 
ATOM      8  C25 UNL A   1     -17.813  -6.815  14.074  1.00  0.00     0.009 A 
ATOM      9  C26 UNL A   1     -17.140  -7.940  14.641  1.00  0.00     0.015 A 
ATOM     10  C27 UNL A   1     -16.568  -7.641  15.853  1.00  0.00     0.071 A 
ATOM     11  S34 UNL A   1     -16.874  -6.046  16.319  1.00  0.00    -0.077 SA
BRANCH  10  12
ATOM     12  C28 UNL A   1     -15.809  -8.518  16.673  1.00  0.00    -0.058 C 
BRANCH  12  13
ATOM     13  C29 UNL A   1     -15.160  -9.391  17.392  1.00  0.00    -0.086 C 
BRANCH  13  14
ATOM     14  C30 UNL A   1     -14.403 -10.409  18.230  1.00  0.00     0.076 C 
BRANCH  14  15
ATOM     15  C31 UNL A   1     -12.891 -10.129  18.166  1.00  0.00     0.013 C 
ATOM     16  C32 UNL A   1     -12.533  -8.747  18.728  1.00  0.00     0.001 C 
ATOM     17  C33 UNL A   1     -12.124 -11.209  18.930  1.00  0.00     0.001 C 
ENDBRANCH  14  15
ENDBRANCH  13  14
ENDBRANCH  12  13
ENDBRANCH  10  12
ENDBRANCH   6   7
BRANCH   5  18
ATOM     18  C15 UNL A   1     -16.526  -3.367  13.210  1.00  0.00     0.093 A 
ATOM     19  C16 UNL A   1     -16.582  -3.640  11.830  1.00  0.00     0.021 A 
ATOM     20  C17 UNL A   1     -15.415  -3.687  11.065  1.00  0.00     0.013 A 
ATOM     21  C18 UNL A   1     -14.185  -3.457  11.671  1.00  0.00     0.059 A 
ATOM     22 CL19 UNL A   1     -12.746  -3.529  10.730  1.00  0.00    -0.082 Cl
ATOM     23  C20 UNL A   1     -14.108  -3.195  13.035  1.00  0.00     0.024 A 
ATOM     24  C21 UNL A   1     -15.274  -3.142  13.812  1.00  0.00     0.076 A 
ATOM     25 CL22 UNL A   1     -15.032  -2.977  15.523  1.00  0.00    -0.081 Cl
ENDBRANCH   5  18
BRANCH   3  26
ATOM     26  C4  UNL A   1     -20.525  -1.377  14.987  1.00  0.00     0.287 C 
ATOM     27  O5  UNL A   1     -21.602  -1.583  15.490  1.00  0.00    -0.265 OA
ATOM     28  N6  UNL A   1     -20.084  -0.097  14.568  1.00  0.00    -0.282 N 
ATOM     29  H35 UNL A   1     -19.178  -0.030  14.190  1.00  0.00     0.184 HD
BRANCH  28  30
ATOM     30  N7  UNL A   1     -20.862   1.111  14.653  1.00  0.00    -0.199 NA
ATOM     31  C8  UNL A   1     -20.093   2.251  15.163  1.00  0.00     0.094 C 
ATOM     32  C9  UNL A   1     -20.984   3.472  15.399  1.00  0.00     0.019 C 
ATOM     33  C10 UNL A   1     -21.770   3.845  14.147  1.00  0.00     0.003 C 
ATOM     34  C11 UNL A   1     -22.534   2.633  13.627  1.00  0.00     0.019 C 
ATOM     35  C12 UNL A   1     -21.589   1.443  13.419  1.00  0.00     0.094 C 
ENDBRANCH  28  30
ENDBRANCH   3  26
TORSDOF 8
BEGIN_RES SER A 173
REMARK  2 active torsions:
REMARK  status: ('A' for Active; 'I' for Inactive)
REMARK    1  A    between atoms: CA   and  CB  
REMARK    2  A    between atoms: CB   and  OG  
ROOT
ATOM      1  CA  SER A 173      -4.540 -11.597  11.543  1.00127.03     0.292 C 
ENDROOT
BRANCH   1   2
ATOM      2  CB  SER A 173      -4.003 -10.168  11.569  1.00131.20     0.194 C 
BRANCH   2   3
ATOM      3  OG  SER A 173      -3.932  -9.670  12.894  1.00137.49    -0.550 OA
ATOM      4  HG  SER A 173      -3.037  -9.462  13.136  1.00  0.00     0.310 HD
ENDBRANCH   2   3
ENDBRANCH   1   2
END_RES SER A 173
BEGIN_RES SER A 383
REMARK  2 active torsions:
REMARK  status: ('A' for Active; 'I' for Inactive)
REMARK    3  A    between atoms: CA   and  CB  
REMARK    4  A    between atoms: CB   and  OG  
ROOT
ATOM      5  CA  SER A 383      -8.934   0.934   8.031  1.00 88.23     0.292 C 
ENDROOT
BRANCH   5   6
ATOM      6  CB  SER A 383      -8.589   0.249   9.352  1.00 82.13     0.194 C 
BRANCH   6   7
ATOM      7  OG  SER A 383      -7.187   0.123   9.510  1.00 85.59    -0.550 OA
ATOM      8  HG  SER A 383      -6.936  -0.787   9.614  1.00  0.00     0.310 HD
ENDBRANCH   6   7
ENDBRANCH   5   6
END_RES SER A 383
ENDMDL
MODEL 9
REMARK VINA RESULT:    -7.625     10.346     14.861
REMARK INTER + INTRA:          -2.703
REMARK INTER:                 -11.151
REMARK INTRA:                   8.448
REMARK UNBOUND:                 8.489
REMARK  8 active torsions:
REMARK  status: ('A' for Active; 'I' for Inactive)
REMARK    1  A    between atoms: C3_3  and  C4_4 
REMARK       I    between atoms: C4_4  and  N6_6 
REMARK    2  A    between atoms: N6_6  and  N7_7 
REMARK    3  A    between atoms: N14_14  and  C15_15 
REMARK    4  A    between atoms: C23_23  and  C24_24 
REMARK    5  A    between atoms: C27_27  and  C28_28 
REMARK    6  A    between atoms: C28_28  and  C29_29 
REMARK    7  A    between atoms: C29_29  and  C30_30 
REMARK    8  A    between atoms: C30_30  and  C31_31 
ROOT
ATOM      1  C1  UNL A   1     -20.542  -4.602  16.302  1.00  0.00     0.034 C 
ATOM      2  C2  UNL A   1     -19.552  -3.825  15.487  1.00  0.00     0.020 A 
ATOM      3  C3  UNL A   1     -19.596  -2.477  14.964  1.00  0.00     0.155 A 
ATOM      4  N13 UNL A   1     -18.413  -2.151  14.434  1.00  0.00    -0.161 NA
ATOM      5  N14 UNL A   1     -17.642  -3.256  14.494  1.00  0.00    -0.229 N 
ATOM      6  C23 UNL A   1     -18.271  -4.288  15.169  1.00  0.00     0.086 A 
ENDROOT
BRANCH   6   7
ATOM      7  C24 UNL A   1     -17.639  -5.528  15.573  1.00  0.00     0.048 A 
ATOM      8  C25 UNL A   1     -16.866  -5.764  16.697  1.00  0.00     0.009 A 
ATOM      9  C26 UNL A   1     -16.389  -7.109  16.756  1.00  0.00     0.015 A 
ATOM     10  C27 UNL A   1     -16.837  -7.861  15.699  1.00  0.00     0.071 A 
ATOM     11  S34 UNL A   1     -17.780  -6.952  14.631  1.00  0.00    -0.077 SA
BRANCH  10  12
ATOM     12  C28 UNL A   1     -16.571  -9.237  15.462  1.00  0.00    -0.058 C 
BRANCH  12  13
ATOM     13  C29 UNL A   1     -16.374 -10.518  15.319  1.00  0.00    -0.086 C 
BRANCH  13  14
ATOM     14  C30 UNL A   1     -16.144 -12.011  15.152  1.00  0.00     0.076 C 
BRANCH  14  15
ATOM     15  C31 UNL A   1     -15.790 -12.648  16.507  1.00  0.00     0.013 C 
ATOM     16  C32 UNL A   1     -14.651 -11.904  17.217  1.00  0.00     0.001 C 
ATOM     17  C33 UNL A   1     -17.023 -12.683  17.409  1.00  0.00     0.001 C 
ENDBRANCH  14  15
ENDBRANCH  13  14
ENDBRANCH  12  13
ENDBRANCH  10  12
ENDBRANCH   6   7
BRANCH   5  18
ATOM     18  C15 UNL A   1     -16.345  -3.220  13.901  1.00  0.00     0.093 A 
ATOM     19  C16 UNL A   1     -15.204  -3.260  14.724  1.00  0.00     0.021 A 
ATOM     20  C17 UNL A   1     -13.925  -3.191  14.172  1.00  0.00     0.013 A 
ATOM     21  C18 UNL A   1     -13.774  -3.086  12.793  1.00  0.00     0.059 A 
ATOM     22 CL19 UNL A   1     -12.196  -2.987  12.114  1.00  0.00    -0.082 Cl
ATOM     23  C20 UNL A   1     -14.890  -3.035  11.963  1.00  0.00     0.024 A 
ATOM     24  C21 UNL A   1     -16.179  -3.107  12.508  1.00  0.00     0.076 A 
ATOM     25 CL22 UNL A   1     -17.484  -2.862  11.389  1.00  0.00    -0.081 Cl
ENDBRANCH   5  18
BRANCH   3  26
ATOM     26  C4  UNL A   1     -20.678  -1.433  14.972  1.00  0.00     0.287 C 
ATOM     27  O5  UNL A   1     -21.815  -1.707  15.267  1.00  0.00    -0.265 OA
ATOM     28  N6  UNL A   1     -20.248  -0.132  14.613  1.00  0.00    -0.282 N 
ATOM     29  H35 UNL A   1     -19.293  -0.007  14.412  1.00  0.00     0.184 HD
BRANCH  28  30
ATOM     30  N7  UNL A   1     -21.104   1.022  14.521  1.00  0.00    -0.199 NA
ATOM     31  C8  UNL A   1     -20.436   2.263  14.924  1.00  0.00     0.094 C 
ATOM     32  C9  UNL A   1     -21.413   3.439  14.974  1.00  0.00     0.019 C 
ATOM     33  C10 UNL A   1     -22.156   3.610  13.654  1.00  0.00     0.003 C 
ATOM     34  C11 UNL A   1     -22.815   2.296  13.250  1.00  0.00     0.019 C 
ATOM     35  C12 UNL A   1     -21.787   1.158  13.225  1.00  0.00     0.094 C 
ENDBRANCH  28  30
ENDBRANCH   3  26
TORSDOF 8
BEGIN_RES SER A 173
REMARK  2 active torsions:
REMARK  status: ('A' for Active; 'I' for Inactive)
REMARK    1  A    between atoms: CA   and  CB  
REMARK    2  A    between atoms: CB   and  OG  
ROOT
ATOM      1  CA  SER A 173      -4.540 -11.597  11.543  1.00127.03     0.292 C 
ENDROOT
BRANCH   1   2
ATOM      2  CB  SER A 173      -4.003 -10.168  11.569  1.00131.20     0.194 C 
BRANCH   2   3
ATOM      3  OG  SER A 173      -3.896  -9.683  12.896  1.00137.49    -0.550 OA
ATOM      4  HG  SER A 173      -4.722  -9.759  13.359  1.00  0.00     0.310 HD
ENDBRANCH   2   3
ENDBRANCH   1   2
END_RES SER A 173
BEGIN_RES SER A 383
REMARK  2 active torsions:
REMARK  status: ('A' for Active; 'I' for Inactive)
REMARK    3  A    between atoms: CA   and  CB  
REMARK    4  A    between atoms: CB   and  OG  
ROOT
ATOM      5  CA  SER A 383      -8.934   0.934   8.031  1.00 88.23     0.292 C 
ENDROOT
BRANCH   5   6
ATOM      6  CB  SER A 383      -8.589   0.249   9.352  1.00 82.13     0.194 C 
BRANCH   6   7
ATOM      7  OG  SER A 383      -7.293   0.614   9.792  1.00 85.59    -0.550 OA
ATOM      8  HG  SER A 383      -7.251   1.541   9.996  1.00  0.00     0.310 HD
ENDBRANCH   6   7
ENDBRANCH   5   6
END_RES SER A 383
ENDMDL
