MODEL 1
REMARK VINA RESULT:   -11.979      0.000      0.000
REMARK INTER + INTRA:          -6.410
REMARK INTER:                 -14.781
REMARK INTRA:                   8.370
REMARK UNBOUND:                 8.370
REMARK  4 active torsions:
REMARK  status: ('A' for Active; 'I' for Inactive)
REMARK    1  A    between atoms: C3_3  and  C4_4 
REMARK       I    between atoms: C4_4  and  N6_6 
REMARK    2  A    between atoms: N6_6  and  N7_7 
REMARK    3  A    between atoms: N14_14  and  C15_15 
REMARK    4  A    between atoms: C23_23  and  C24_24 
ROOT
ATOM      1  C1  UNL A   1      -5.950  -1.605  12.107  1.00  0.00     0.034 C 
ATOM      2  C2  UNL A   1      -6.125  -2.319  10.810  1.00  0.00     0.020 A 
ATOM      3  C3  UNL A   1      -7.199  -3.183  10.434  1.00  0.00     0.155 A 
ATOM      4  N13 UNL A   1      -7.048  -3.592   9.165  1.00  0.00    -0.161 NA
ATOM      5  N14 UNL A   1      -5.904  -3.030   8.717  1.00  0.00    -0.229 N 
ATOM      6  C23 UNL A   1      -5.286  -2.232   9.691  1.00  0.00     0.081 A 
ENDROOT
BRANCH   3   7
ATOM      7  C4  UNL A   1      -8.381  -3.653  11.221  1.00  0.00     0.287 C 
ATOM      8  O5  UNL A   1      -8.313  -3.928  12.417  1.00  0.00    -0.265 OA
ATOM      9  N6  UNL A   1      -9.546  -3.747  10.455  1.00  0.00    -0.282 N 
ATOM     10  H31 UNL A   1      -9.485  -3.451   9.518  1.00  0.00     0.184 HD
BRANCH   9  11
ATOM     11  N7  UNL A   1     -10.811  -4.228  10.895  1.00  0.00    -0.199 NA
ATOM     12  C8  UNL A   1     -11.876  -3.227  10.828  1.00  0.00     0.094 C 
ATOM     13  C9  UNL A   1     -13.180  -3.732  11.450  1.00  0.00     0.019 C 
ATOM     14  C10 UNL A   1     -13.619  -5.055  10.829  1.00  0.00     0.003 C 
ATOM     15  C11 UNL A   1     -12.477  -6.063  10.882  1.00  0.00     0.019 C 
ATOM     16  C12 UNL A   1     -11.196  -5.490  10.258  1.00  0.00     0.094 C 
ENDBRANCH   9  11
ENDBRANCH   3   7
BRANCH   6  17
ATOM     17  C24 UNL A   1      -4.070  -1.398   9.490  1.00  0.00     0.018 A 
ATOM     18  C25 UNL A   1      -2.845  -1.719  10.099  1.00  0.00     0.002 A 
ATOM     19  C26 UNL A   1      -1.725  -0.887   9.978  1.00  0.00     0.007 A 
ATOM     20  C27 UNL A   1      -1.788   0.241   9.170  1.00  0.00     0.035 A 
ATOM     21 BR28 UNL A   1      -0.267   1.346   8.978  1.00  0.00    -0.049 Br
ATOM     22  C29 UNL A   1      -2.965   0.553   8.502  1.00  0.00     0.007 A 
ATOM     23  C30 UNL A   1      -4.104  -0.247   8.683  1.00  0.00     0.002 A 
ENDBRANCH   6  17
BRANCH   5  24
ATOM     24  C15 UNL A   1      -5.458  -3.357   7.400  1.00  0.00     0.093 A 
ATOM     25  C16 UNL A   1      -5.734  -2.475   6.339  1.00  0.00     0.021 A 
ATOM     26  C17 UNL A   1      -5.376  -2.808   5.029  1.00  0.00     0.013 A 
ATOM     27  C18 UNL A   1      -4.706  -4.000   4.776  1.00  0.00     0.059 A 
ATOM     28 CL19 UNL A   1      -4.283  -4.416   3.163  1.00  0.00    -0.082 Cl
ATOM     29  C20 UNL A   1      -4.393  -4.866   5.819  1.00  0.00     0.024 A 
ATOM     30  C21 UNL A   1      -4.767  -4.556   7.132  1.00  0.00     0.076 A 
ATOM     31 CL22 UNL A   1      -4.471  -5.798   8.306  1.00  0.00    -0.081 Cl
ENDBRANCH   5  24
TORSDOF 4
BEGIN_RES SER A 173
REMARK  2 active torsions:
REMARK  status: ('A' for Active; 'I' for Inactive)
REMARK    1  A    between atoms: CA   and  CB  
REMARK    2  A    between atoms: CB   and  OG  
ROOT
ATOM      1  CA  SER A 173      -4.540 -11.597  11.543  1.00127.03     0.292 C 
ENDROOT
BRANCH   1   2
ATOM      2  CB  SER A 173      -4.003 -10.168  11.569  1.00131.20     0.194 C 
BRANCH   2   3
ATOM      3  OG  SER A 173      -3.929  -9.670  12.894  1.00137.49    -0.550 OA
ATOM      4  HG  SER A 173      -3.035  -9.460  13.134  1.00  0.00     0.310 HD
ENDBRANCH   2   3
ENDBRANCH   1   2
END_RES SER A 173
BEGIN_RES SER A 383
REMARK  2 active torsions:
REMARK  status: ('A' for Active; 'I' for Inactive)
REMARK    3  A    between atoms: CA   and  CB  
REMARK    4  A    between atoms: CB   and  OG  
ROOT
ATOM      5  CA  SER A 383      -8.934   0.934   8.031  1.00 88.23     0.292 C 
ENDROOT
BRANCH   5   6
ATOM      6  CB  SER A 383      -8.589   0.249   9.352  1.00 82.13     0.194 C 
BRANCH   6   7
ATOM      7  OG  SER A 383      -7.343   0.701   9.850  1.00 85.59    -0.550 OA
ATOM      8  HG  SER A 383      -6.772   0.976   9.142  1.00  0.00     0.310 HD
ENDBRANCH   6   7
ENDBRANCH   5   6
END_RES SER A 383
ENDMDL
MODEL 2
REMARK VINA RESULT:   -10.116      3.702      6.097
REMARK INTER + INTRA:          -4.111
REMARK INTER:                 -12.885
REMARK INTRA:                   8.774
REMARK UNBOUND:                 8.370
REMARK  4 active torsions:
REMARK  status: ('A' for Active; 'I' for Inactive)
REMARK    1  A    between atoms: C3_3  and  C4_4 
REMARK       I    between atoms: C4_4  and  N6_6 
REMARK    2  A    between atoms: N6_6  and  N7_7 
REMARK    3  A    between atoms: N14_14  and  C15_15 
REMARK    4  A    between atoms: C23_23  and  C24_24 
ROOT
ATOM      1  C1  UNL A   1      -7.163  -4.279  10.330  1.00  0.00     0.034 C 
ATOM      2  C2  UNL A   1      -6.090  -3.258  10.489  1.00  0.00     0.020 A 
ATOM      3  C3  UNL A   1      -5.681  -2.611  11.696  1.00  0.00     0.155 A 
ATOM      4  N13 UNL A   1      -4.640  -1.797  11.462  1.00  0.00    -0.161 NA
ATOM      5  N14 UNL A   1      -4.375  -1.890  10.140  1.00  0.00    -0.229 N 
ATOM      6  C23 UNL A   1      -5.240  -2.778   9.484  1.00  0.00     0.081 A 
ENDROOT
BRANCH   3   7
ATOM      7  C4  UNL A   1      -6.230  -2.718  13.083  1.00  0.00     0.287 C 
ATOM      8  O5  UNL A   1      -7.391  -3.051  13.311  1.00  0.00    -0.265 OA
ATOM      9  N6  UNL A   1      -5.293  -2.399  14.069  1.00  0.00    -0.282 N 
ATOM     10  H31 UNL A   1      -4.379  -2.195  13.762  1.00  0.00     0.184 HD
BRANCH   9  11
ATOM     11  N7  UNL A   1      -5.527  -2.339  15.471  1.00  0.00    -0.199 NA
ATOM     12  C8  UNL A   1      -4.383  -2.767  16.277  1.00  0.00     0.094 C 
ATOM     13  C9  UNL A   1      -4.723  -2.835  17.768  1.00  0.00     0.019 C 
ATOM     14  C10 UNL A   1      -5.295  -1.512  18.270  1.00  0.00     0.003 C 
ATOM     15  C11 UNL A   1      -6.460  -1.077  17.389  1.00  0.00     0.019 C 
ATOM     16  C12 UNL A   1      -6.059  -1.045  15.907  1.00  0.00     0.094 C 
ENDBRANCH   9  11
ENDBRANCH   3   7
BRANCH   6  17
ATOM     17  C24 UNL A   1      -5.153  -3.181   8.054  1.00  0.00     0.018 A 
ATOM     18  C25 UNL A   1      -4.506  -4.364   7.658  1.00  0.00     0.002 A 
ATOM     19  C26 UNL A   1      -4.350  -4.699   6.308  1.00  0.00     0.007 A 
ATOM     20  C27 UNL A   1      -4.920  -3.895   5.328  1.00  0.00     0.035 A 
ATOM     21 BR28 UNL A   1      -4.742  -4.364   3.506  1.00  0.00    -0.049 Br
ATOM     22  C29 UNL A   1      -5.622  -2.752   5.688  1.00  0.00     0.007 A 
ATOM     23  C30 UNL A   1      -5.714  -2.385   7.039  1.00  0.00     0.002 A 
ENDBRANCH   6  17
BRANCH   5  24
ATOM     24  C15 UNL A   1      -3.344  -1.064   9.596  1.00  0.00     0.093 A 
ATOM     25  C16 UNL A   1      -2.005  -1.303   9.957  1.00  0.00     0.021 A 
ATOM     26  C17 UNL A   1      -0.986  -0.462   9.500  1.00  0.00     0.013 A 
ATOM     27  C18 UNL A   1      -1.290   0.595   8.648  1.00  0.00     0.059 A 
ATOM     28 CL19 UNL A   1      -0.039   1.638   8.101  1.00  0.00    -0.082 Cl
ATOM     29  C20 UNL A   1      -2.604   0.822   8.252  1.00  0.00     0.024 A 
ATOM     30  C21 UNL A   1      -3.637   0.002   8.721  1.00  0.00     0.076 A 
ATOM     31 CL22 UNL A   1      -5.241   0.501   8.291  1.00  0.00    -0.081 Cl
ENDBRANCH   5  24
TORSDOF 4
BEGIN_RES SER A 173
REMARK  2 active torsions:
REMARK  status: ('A' for Active; 'I' for Inactive)
REMARK    1  A    between atoms: CA   and  CB  
REMARK    2  A    between atoms: CB   and  OG  
ROOT
ATOM      1  CA  SER A 173      -4.540 -11.597  11.543  1.00127.03     0.292 C 
ENDROOT
BRANCH   1   2
ATOM      2  CB  SER A 173      -4.003 -10.168  11.569  1.00131.20     0.194 C 
BRANCH   2   3
ATOM      3  OG  SER A 173      -3.910  -9.678  12.895  1.00137.49    -0.550 OA
ATOM      4  HG  SER A 173      -3.088  -9.931  13.300  1.00  0.00     0.310 HD
ENDBRANCH   2   3
ENDBRANCH   1   2
END_RES SER A 173
BEGIN_RES SER A 383
REMARK  2 active torsions:
REMARK  status: ('A' for Active; 'I' for Inactive)
REMARK    3  A    between atoms: CA   and  CB  
REMARK    4  A    between atoms: CB   and  OG  
ROOT
ATOM      5  CA  SER A 383      -8.934   0.934   8.031  1.00 88.23     0.292 C 
ENDROOT
BRANCH   5   6
ATOM      6  CB  SER A 383      -8.589   0.249   9.352  1.00 82.13     0.194 C 
BRANCH   6   7
ATOM      7  OG  SER A 383      -7.998   1.161  10.260  1.00 85.59    -0.550 OA
ATOM      8  HG  SER A 383      -7.491   0.704  10.922  1.00  0.00     0.310 HD
ENDBRANCH   6   7
ENDBRANCH   5   6
END_RES SER A 383
ENDMDL
MODEL 3
REMARK VINA RESULT:    -9.599      5.954     11.092
REMARK INTER + INTRA:          -3.474
REMARK INTER:                 -11.783
REMARK INTRA:                   8.310
REMARK UNBOUND:                 8.370
REMARK  4 active torsions:
REMARK  status: ('A' for Active; 'I' for Inactive)
REMARK    1  A    between atoms: C3_3  and  C4_4 
REMARK       I    between atoms: C4_4  and  N6_6 
REMARK    2  A    between atoms: N6_6  and  N7_7 
REMARK    3  A    between atoms: N14_14  and  C15_15 
REMARK    4  A    between atoms: C23_23  and  C24_24 
ROOT
ATOM      1  C1  UNL A   1     -11.369  -6.311  12.289  1.00  0.00     0.034 C 
ATOM      2  C2  UNL A   1     -12.218  -5.087  12.353  1.00  0.00     0.020 A 
ATOM      3  C3  UNL A   1     -11.938  -3.808  11.781  1.00  0.00     0.155 A 
ATOM      4  N13 UNL A   1     -12.963  -2.967  11.990  1.00  0.00    -0.161 NA
ATOM      5  N14 UNL A   1     -13.887  -3.661  12.690  1.00  0.00    -0.229 N 
ATOM      6  C23 UNL A   1     -13.482  -4.979  12.947  1.00  0.00     0.081 A 
ENDROOT
BRANCH   3   7
ATOM      7  C4  UNL A   1     -10.734  -3.326  11.036  1.00  0.00     0.287 C 
ATOM      8  O5  UNL A   1     -10.736  -3.148   9.820  1.00  0.00    -0.265 OA
ATOM      9  N6  UNL A   1      -9.628  -3.111  11.863  1.00  0.00    -0.282 N 
ATOM     10  H31 UNL A   1      -9.765  -3.241  12.829  1.00  0.00     0.184 HD
BRANCH   9  11
ATOM     11  N7  UNL A   1      -8.324  -2.722  11.446  1.00  0.00    -0.199 NA
ATOM     12  C8  UNL A   1      -7.479  -2.238  12.539  1.00  0.00     0.094 C 
ATOM     13  C9  UNL A   1      -6.143  -1.687  12.032  1.00  0.00     0.019 C 
ATOM     14  C10 UNL A   1      -5.409  -2.710  11.171  1.00  0.00     0.003 C 
ATOM     15  C11 UNL A   1      -6.327  -3.220  10.066  1.00  0.00     0.019 C 
ATOM     16  C12 UNL A   1      -7.653  -3.743  10.638  1.00  0.00     0.094 C 
ENDBRANCH   9  11
ENDBRANCH   3   7
BRANCH   6  17
ATOM     17  C24 UNL A   1     -14.305  -6.030  13.604  1.00  0.00     0.018 A 
ATOM     18  C25 UNL A   1     -14.536  -6.029  14.990  1.00  0.00     0.002 A 
ATOM     19  C26 UNL A   1     -15.238  -7.064  15.619  1.00  0.00     0.007 A 
ATOM     20  C27 UNL A   1     -15.800  -8.079  14.854  1.00  0.00     0.035 A 
ATOM     21 BR28 UNL A   1     -16.778  -9.460  15.697  1.00  0.00    -0.049 Br
ATOM     22  C29 UNL A   1     -15.646  -8.077  13.474  1.00  0.00     0.007 A 
ATOM     23  C30 UNL A   1     -14.882  -7.074  12.858  1.00  0.00     0.002 A 
ENDBRANCH   6  17
BRANCH   5  24
ATOM     24  C15 UNL A   1     -15.068  -2.979  13.115  1.00  0.00     0.093 A 
ATOM     25  C16 UNL A   1     -16.161  -2.877  12.235  1.00  0.00     0.021 A 
ATOM     26  C17 UNL A   1     -17.298  -2.149  12.598  1.00  0.00     0.013 A 
ATOM     27  C18 UNL A   1     -17.369  -1.555  13.853  1.00  0.00     0.059 A 
ATOM     28 CL19 UNL A   1     -18.760  -0.646  14.291  1.00  0.00    -0.082 Cl
ATOM     29  C20 UNL A   1     -16.312  -1.678  14.749  1.00  0.00     0.024 A 
ATOM     30  C21 UNL A   1     -15.157  -2.384  14.390  1.00  0.00     0.076 A 
ATOM     31 CL22 UNL A   1     -13.852  -2.311  15.529  1.00  0.00    -0.081 Cl
ENDBRANCH   5  24
TORSDOF 4
BEGIN_RES SER A 173
REMARK  2 active torsions:
REMARK  status: ('A' for Active; 'I' for Inactive)
REMARK    1  A    between atoms: CA   and  CB  
REMARK    2  A    between atoms: CB   and  OG  
ROOT
ATOM      1  CA  SER A 173      -4.540 -11.597  11.543  1.00127.03     0.292 C 
ENDROOT
BRANCH   1   2
ATOM      2  CB  SER A 173      -4.003 -10.168  11.569  1.00131.20     0.194 C 
BRANCH   2   3
ATOM      3  OG  SER A 173      -3.945  -9.664  12.892  1.00137.49    -0.550 OA
ATOM      4  HG  SER A 173      -3.253 -10.083  13.390  1.00  0.00     0.310 HD
ENDBRANCH   2   3
ENDBRANCH   1   2
END_RES SER A 173
BEGIN_RES SER A 383
REMARK  2 active torsions:
REMARK  status: ('A' for Active; 'I' for Inactive)
REMARK    3  A    between atoms: CA   and  CB  
REMARK    4  A    between atoms: CB   and  OG  
ROOT
ATOM      5  CA  SER A 383      -8.934   0.934   8.031  1.00 88.23     0.292 C 
ENDROOT
BRANCH   5   6
ATOM      6  CB  SER A 383      -8.589   0.249   9.352  1.00 82.13     0.194 C 
BRANCH   6   7
ATOM      7  OG  SER A 383      -7.340   0.696   9.847  1.00 85.59    -0.550 OA
ATOM      8  HG  SER A 383      -6.684   0.012   9.787  1.00  0.00     0.310 HD
ENDBRANCH   6   7
ENDBRANCH   5   6
END_RES SER A 383
ENDMDL
MODEL 4
REMARK VINA RESULT:    -9.274      5.720     10.380
REMARK INTER + INTRA:          -3.072
REMARK INTER:                 -11.656
REMARK INTRA:                   8.584
REMARK UNBOUND:                 8.370
REMARK  4 active torsions:
REMARK  status: ('A' for Active; 'I' for Inactive)
REMARK    1  A    between atoms: C3_3  and  C4_4 
REMARK       I    between atoms: C4_4  and  N6_6 
REMARK    2  A    between atoms: N6_6  and  N7_7 
REMARK    3  A    between atoms: N14_14  and  C15_15 
REMARK    4  A    between atoms: C23_23  and  C24_24 
ROOT
ATOM      1  C1  UNL A   1     -10.704  -5.895  12.610  1.00  0.00     0.034 C 
ATOM      2  C2  UNL A   1     -11.655  -5.033  11.851  1.00  0.00     0.020 A 
ATOM      3  C3  UNL A   1     -11.334  -4.040  10.875  1.00  0.00     0.155 A 
ATOM      4  N13 UNL A   1     -12.454  -3.512  10.359  1.00  0.00    -0.161 NA
ATOM      5  N14 UNL A   1     -13.485  -4.124  10.982  1.00  0.00    -0.229 N 
ATOM      6  C23 UNL A   1     -13.054  -5.075  11.918  1.00  0.00     0.081 A 
ENDROOT
BRANCH   3   7
ATOM      7  C4  UNL A   1     -10.004  -3.552  10.394  1.00  0.00     0.287 C 
ATOM      8  O5  UNL A   1      -9.685  -3.562   9.208  1.00  0.00    -0.265 OA
ATOM      9  N6  UNL A   1      -9.181  -3.099  11.429  1.00  0.00    -0.282 N 
ATOM     10  H31 UNL A   1      -9.568  -3.096  12.334  1.00  0.00     0.184 HD
BRANCH   9  11
ATOM     11  N7  UNL A   1      -7.839  -2.643  11.303  1.00  0.00    -0.199 NA
ATOM     12  C8  UNL A   1      -7.292  -2.081  12.539  1.00  0.00     0.094 C 
ATOM     13  C9  UNL A   1      -5.907  -1.464  12.326  1.00  0.00     0.019 C 
ATOM     14  C10 UNL A   1      -4.942  -2.462  11.692  1.00  0.00     0.003 C 
ATOM     15  C11 UNL A   1      -5.557  -3.054  10.429  1.00  0.00     0.019 C 
ATOM     16  C12 UNL A   1      -6.949  -3.642  10.706  1.00  0.00     0.094 C 
ENDBRANCH   9  11
ENDBRANCH   3   7
BRANCH   6  17
ATOM     17  C24 UNL A   1     -13.931  -5.989  12.698  1.00  0.00     0.018 A 
ATOM     18  C25 UNL A   1     -14.474  -7.154  12.130  1.00  0.00     0.002 A 
ATOM     19  C26 UNL A   1     -15.367  -7.968  12.837  1.00  0.00     0.007 A 
ATOM     20  C27 UNL A   1     -15.664  -7.676  14.162  1.00  0.00     0.035 A 
ATOM     21 BR28 UNL A   1     -16.842  -8.793  15.130  1.00  0.00    -0.049 Br
ATOM     22  C29 UNL A   1     -15.094  -6.568  14.775  1.00  0.00     0.007 A 
ATOM     23  C30 UNL A   1     -14.255  -5.718  14.039  1.00  0.00     0.002 A 
ENDBRANCH   6  17
BRANCH   5  24
ATOM     24  C15 UNL A   1     -14.813  -3.699  10.671  1.00  0.00     0.093 A 
ATOM     25  C16 UNL A   1     -15.353  -3.988   9.404  1.00  0.00     0.021 A 
ATOM     26  C17 UNL A   1     -16.620  -3.517   9.049  1.00  0.00     0.013 A 
ATOM     27  C18 UNL A   1     -17.372  -2.792   9.967  1.00  0.00     0.059 A 
ATOM     28 CL19 UNL A   1     -18.922  -2.199   9.522  1.00  0.00    -0.082 Cl
ATOM     29  C20 UNL A   1     -16.869  -2.529  11.237  1.00  0.00     0.024 A 
ATOM     30  C21 UNL A   1     -15.591  -2.975  11.598  1.00  0.00     0.076 A 
ATOM     31 CL22 UNL A   1     -15.019  -2.430  13.141  1.00  0.00    -0.081 Cl
ENDBRANCH   5  24
TORSDOF 4
BEGIN_RES SER A 173
REMARK  2 active torsions:
REMARK  status: ('A' for Active; 'I' for Inactive)
REMARK    1  A    between atoms: CA   and  CB  
REMARK    2  A    between atoms: CB   and  OG  
ROOT
ATOM      1  CA  SER A 173      -4.540 -11.597  11.543  1.00127.03     0.292 C 
ENDROOT
BRANCH   1   2
ATOM      2  CB  SER A 173      -4.003 -10.168  11.569  1.00131.20     0.194 C 
BRANCH   2   3
ATOM      3  OG  SER A 173      -3.937  -9.667  12.893  1.00137.49    -0.550 OA
ATOM      4  HG  SER A 173      -4.718  -9.892  13.386  1.00  0.00     0.310 HD
ENDBRANCH   2   3
ENDBRANCH   1   2
END_RES SER A 173
BEGIN_RES SER A 383
REMARK  2 active torsions:
REMARK  status: ('A' for Active; 'I' for Inactive)
REMARK    3  A    between atoms: CA   and  CB  
REMARK    4  A    between atoms: CB   and  OG  
ROOT
ATOM      5  CA  SER A 383      -8.934   0.934   8.031  1.00 88.23     0.292 C 
ENDROOT
BRANCH   5   6
ATOM      6  CB  SER A 383      -8.589   0.249   9.352  1.00 82.13     0.194 C 
BRANCH   6   7
ATOM      7  OG  SER A 383      -7.198   0.004   9.451  1.00 85.59    -0.550 OA
ATOM      8  HG  SER A 383      -7.010  -0.926   9.394  1.00  0.00     0.310 HD
ENDBRANCH   6   7
ENDBRANCH   5   6
END_RES SER A 383
ENDMDL
