MODEL 1
REMARK VINA RESULT:    -8.671      0.000      0.000
REMARK INTER + INTRA:         -10.669
REMARK INTER:                 -16.782
REMARK INTRA:                   6.112
REMARK UNBOUND:                 6.112
REMARK  16 active torsions:
REMARK  status: ('A' for Active; 'I' for Inactive)
REMARK    1  A    between atoms: C3_3  and  C4_4 
REMARK       I    between atoms: C4_4  and  N6_6 
REMARK    2  A    between atoms: N6_6  and  N7_7 
REMARK    3  A    between atoms: N14_14  and  C15_15 
REMARK    4  A    between atoms: C23_23  and  C24_24 
REMARK    5  A    between atoms: C27_27  and  C28_28 
REMARK    6  A    between atoms: C29_29  and  C30_30 
REMARK    7  A    between atoms: C30_30  and  C31_31 
REMARK    8  A    between atoms: C31_31  and  O32_32 
REMARK    9  A    between atoms: O32_32  and  C33_33 
REMARK   10  A    between atoms: C33_33  and  C35_35 
REMARK   11  A    between atoms: C35_35  and  C36_36 
REMARK   12  A    between atoms: C36_36  and  C37_37 
REMARK   13  A    between atoms: C37_37  and  C38_38 
REMARK   14  A    between atoms: C38_38  and  C39_39 
REMARK   15  A    between atoms: C39_39  and  O41_41 
REMARK   16  A    between atoms: O41_41  and  C42_42 
ROOT
ATOM      1  C1  UNL A   1     -13.471  -3.258  10.764  1.00  0.00     0.034 C 
ATOM      2  C2  UNL A   1     -13.288  -4.077  11.999  1.00  0.00     0.020 C 
ATOM      3  C3  UNL A   1     -12.195  -4.995  12.216  1.00  0.00     0.155 C 
ATOM      4  N13 UNL A   1     -12.384  -5.667  13.357  1.00  0.00    -0.161 NA
ATOM      5  N14 UNL A   1     -13.538  -5.199  13.879  1.00  0.00    -0.229 N 
ATOM      6  C23 UNL A   1     -14.046  -4.081  13.197  1.00  0.00     0.081 C 
ENDROOT
BRANCH   6   7
ATOM      7  C24 UNL A   1     -15.150  -3.182  13.726  1.00  0.00     0.018 C 
ATOM      8  C25 UNL A   1     -16.179  -2.621  12.939  1.00  0.00     0.002 C 
ATOM      9  C26 UNL A   1     -16.992  -1.524  13.372  1.00  0.00     0.008 C 
ATOM     10  C27 UNL A   1     -16.876  -1.014  14.660  1.00  0.00     0.042 C 
ATOM     11  C46 UNL A   1     -16.056  -1.742  15.513  1.00  0.00     0.008 C 
ATOM     12  C47 UNL A   1     -15.183  -2.771  15.056  1.00  0.00     0.002 C 
BRANCH  10  13
ATOM     13  C28 UNL A   1     -17.400   0.262  15.111  1.00  0.00    -0.064 C 
ATOM     14  C29 UNL A   1     -17.657   1.393  15.452  1.00  0.00    -0.084 C 
BRANCH  14  15
ATOM     15  C30 UNL A   1     -17.826   2.797  15.956  1.00  0.00     0.109 C 
BRANCH  15  16
ATOM     16  C31 UNL A   1     -18.882   3.655  15.249  1.00  0.00     0.166 C 
BRANCH  16  17
ATOM     17  O32 UNL A   1     -20.204   3.051  15.276  1.00  0.00    -0.301 OA
BRANCH  17  18
ATOM     18  C33 UNL A   1     -20.891   3.071  14.098  1.00  0.00     0.272 C 
ATOM     19  O34 UNL A   1     -20.811   3.961  13.258  1.00  0.00    -0.264 OA
BRANCH  18  20
ATOM     20  C35 UNL A   1     -21.715   1.814  13.919  1.00  0.00     0.096 C 
BRANCH  20  21
ATOM     21  C36 UNL A   1     -20.999   0.580  14.468  1.00  0.00     0.011 C 
BRANCH  21  22
ATOM     22  C37 UNL A   1     -21.485  -0.721  13.842  1.00  0.00     0.011 C 
BRANCH  22  23
ATOM     23  C38 UNL A   1     -20.487  -1.832  14.114  1.00  0.00     0.096 C 
BRANCH  23  24
ATOM     24  C39 UNL A   1     -20.848  -2.558  15.360  1.00  0.00     0.272 C 
ATOM     25  O40 UNL A   1     -21.977  -2.842  15.723  1.00  0.00    -0.264 OA
BRANCH  24  26
ATOM     26  O41 UNL A   1     -19.695  -2.861  15.980  1.00  0.00    -0.307 OA
BRANCH  26  27
ATOM     27  C42 UNL A   1     -19.207  -4.187  16.110  1.00  0.00     0.101 C 
ATOM     28  C43 UNL A   1     -18.660  -4.652  14.734  1.00  0.00     0.030 C 
ATOM     29  C44 UNL A   1     -18.360  -3.923  17.371  1.00  0.00     0.030 C 
ATOM     30  C45 UNL A   1     -20.266  -5.194  16.527  1.00  0.00     0.030 C 
ENDBRANCH  26  27
ENDBRANCH  24  26
ENDBRANCH  23  24
ENDBRANCH  22  23
ENDBRANCH  21  22
ENDBRANCH  20  21
ENDBRANCH  18  20
ENDBRANCH  17  18
ENDBRANCH  16  17
ENDBRANCH  15  16
ENDBRANCH  14  15
ENDBRANCH  10  13
ENDBRANCH   6   7
BRANCH   5  31
ATOM     31  C15 UNL A   1     -14.077  -5.885  14.998  1.00  0.00     0.093 A 
ATOM     32  C16 UNL A   1     -13.427  -5.809  16.242  1.00  0.00     0.021 A 
ATOM     33  C17 UNL A   1     -13.899  -6.566  17.319  1.00  0.00     0.013 A 
ATOM     34  C18 UNL A   1     -15.021  -7.375  17.155  1.00  0.00     0.059 A 
ATOM     35 CL19 UNL A   1     -15.574  -8.348  18.462  1.00  0.00    -0.082 Cl
ATOM     36  C20 UNL A   1     -15.689  -7.426  15.934  1.00  0.00     0.024 A 
ATOM     37  C21 UNL A   1     -15.225  -6.678  14.850  1.00  0.00     0.076 A 
ATOM     38 CL22 UNL A   1     -16.032  -6.935  13.339  1.00  0.00    -0.081 Cl
ENDBRANCH   5  31
BRANCH   3  39
ATOM     39  C4  UNL A   1     -10.957  -5.254  11.411  1.00  0.00     0.287 C 
ATOM     40  O5  UNL A   1     -10.832  -6.222  10.665  1.00  0.00    -0.265 OA
ATOM     41  N6  UNL A   1      -9.986  -4.259  11.586  1.00  0.00    -0.282 N 
ATOM     42  H48 UNL A   1     -10.207  -3.528  12.209  1.00  0.00     0.184 HD
BRANCH  41  43
ATOM     43  N7  UNL A   1      -8.710  -4.197  10.951  1.00  0.00    -0.199 NA
ATOM     44  C8  UNL A   1      -8.756  -3.635   9.594  1.00  0.00     0.094 C 
ATOM     45  C9  UNL A   1      -7.398  -3.745   8.889  1.00  0.00     0.019 C 
ATOM     46  C10 UNL A   1      -6.287  -3.107   9.716  1.00  0.00     0.003 C 
ATOM     47  C11 UNL A   1      -6.288  -3.681  11.128  1.00  0.00     0.019 C 
ATOM     48  C12 UNL A   1      -7.672  -3.568  11.781  1.00  0.00     0.094 C 
ENDBRANCH  41  43
ENDBRANCH   3  39
TORSDOF 16
BEGIN_RES SER A 173
REMARK  2 active torsions:
REMARK  status: ('A' for Active; 'I' for Inactive)
REMARK    1  A    between atoms: CA   and  CB  
REMARK    2  A    between atoms: CB   and  OG  
ROOT
ATOM      1  CA  SER A 173      -4.540 -11.597  11.543  1.00127.03     0.292 C 
ENDROOT
BRANCH   1   2
ATOM      2  CB  SER A 173      -4.003 -10.168  11.569  1.00131.20     0.194 C 
BRANCH   2   3
ATOM      3  OG  SER A 173      -3.949  -9.663  12.892  1.00137.49    -0.550 OA
ATOM      4  HG  SER A 173      -3.281 -10.106  13.403  1.00  0.00     0.310 HD
ENDBRANCH   2   3
ENDBRANCH   1   2
END_RES SER A 173
BEGIN_RES SER A 383
REMARK  2 active torsions:
REMARK  status: ('A' for Active; 'I' for Inactive)
REMARK    3  A    between atoms: CA   and  CB  
REMARK    4  A    between atoms: CB   and  OG  
ROOT
ATOM      5  CA  SER A 383      -8.934   0.934   8.031  1.00 88.23     0.292 C 
ENDROOT
BRANCH   5   6
ATOM      6  CB  SER A 383      -8.589   0.249   9.352  1.00 82.13     0.194 C 
BRANCH   6   7
ATOM      7  OG  SER A 383      -7.948   1.147  10.239  1.00 85.59    -0.550 OA
ATOM      8  HG  SER A 383      -8.579   1.716  10.665  1.00  0.00     0.310 HD
ENDBRANCH   6   7
ENDBRANCH   5   6
END_RES SER A 383
ENDMDL
MODEL 2
REMARK VINA RESULT:    -8.298      4.218      8.613
REMARK INTER + INTRA:          -9.947
REMARK INTER:                 -16.737
REMARK INTRA:                   6.790
REMARK UNBOUND:                 6.112
REMARK  16 active torsions:
REMARK  status: ('A' for Active; 'I' for Inactive)
REMARK    1  A    between atoms: C3_3  and  C4_4 
REMARK       I    between atoms: C4_4  and  N6_6 
REMARK    2  A    between atoms: N6_6  and  N7_7 
REMARK    3  A    between atoms: N14_14  and  C15_15 
REMARK    4  A    between atoms: C23_23  and  C24_24 
REMARK    5  A    between atoms: C27_27  and  C28_28 
REMARK    6  A    between atoms: C29_29  and  C30_30 
REMARK    7  A    between atoms: C30_30  and  C31_31 
REMARK    8  A    between atoms: C31_31  and  O32_32 
REMARK    9  A    between atoms: O32_32  and  C33_33 
REMARK   10  A    between atoms: C33_33  and  C35_35 
REMARK   11  A    between atoms: C35_35  and  C36_36 
REMARK   12  A    between atoms: C36_36  and  C37_37 
REMARK   13  A    between atoms: C37_37  and  C38_38 
REMARK   14  A    between atoms: C38_38  and  C39_39 
REMARK   15  A    between atoms: C39_39  and  O41_41 
REMARK   16  A    between atoms: O41_41  and  C42_42 
ROOT
ATOM      1  C1  UNL A   1     -11.422  -6.190  12.484  1.00  0.00     0.034 C 
ATOM      2  C2  UNL A   1     -12.430  -5.094  12.370  1.00  0.00     0.020 C 
ATOM      3  C3  UNL A   1     -12.168  -3.802  11.781  1.00  0.00     0.155 C 
ATOM      4  N13 UNL A   1     -13.230  -3.004  11.945  1.00  0.00    -0.161 NA
ATOM      5  N14 UNL A   1     -14.156  -3.742  12.593  1.00  0.00    -0.229 N 
ATOM      6  C23 UNL A   1     -13.806  -5.097  12.711  1.00  0.00     0.081 C 
ENDROOT
BRANCH   6   7
ATOM      7  C24 UNL A   1     -14.768  -6.198  13.123  1.00  0.00     0.018 C 
ATOM      8  C25 UNL A   1     -15.569  -6.174  14.284  1.00  0.00     0.002 C 
ATOM      9  C26 UNL A   1     -16.198  -7.339  14.832  1.00  0.00     0.008 C 
ATOM     10  C27 UNL A   1     -16.133  -8.561  14.173  1.00  0.00     0.042 C 
ATOM     11  C46 UNL A   1     -15.575  -8.520  12.902  1.00  0.00     0.008 C 
ATOM     12  C47 UNL A   1     -14.872  -7.385  12.402  1.00  0.00     0.002 C 
BRANCH  10  13
ATOM     13  C28 UNL A   1     -16.447  -9.852  14.758  1.00  0.00    -0.064 C 
ATOM     14  C29 UNL A   1     -16.563 -10.995  15.134  1.00  0.00    -0.084 C 
BRANCH  14  15
ATOM     15  C30 UNL A   1     -16.685 -12.460  15.440  1.00  0.00     0.109 C 
BRANCH  15  16
ATOM     16  C31 UNL A   1     -17.794 -12.864  16.418  1.00  0.00     0.166 C 
BRANCH  16  17
ATOM     17  O32 UNL A   1     -17.545 -12.395  17.772  1.00  0.00    -0.301 OA
BRANCH  17  18
ATOM     18  C33 UNL A   1     -17.059 -13.324  18.644  1.00  0.00     0.272 C 
ATOM     19  O34 UNL A   1     -17.737 -14.185  19.197  1.00  0.00    -0.264 OA
BRANCH  18  20
ATOM     20  C35 UNL A   1     -15.557 -13.211  18.790  1.00  0.00     0.096 C 
BRANCH  20  21
ATOM     21  C36 UNL A   1     -15.105 -11.758  18.921  1.00  0.00     0.011 C 
BRANCH  21  22
ATOM     22  C37 UNL A   1     -14.129 -11.334  17.831  1.00  0.00     0.011 C 
BRANCH  22  23
ATOM     23  C38 UNL A   1     -12.818 -10.889  18.453  1.00  0.00     0.096 C 
BRANCH  23  24
ATOM     24  C39 UNL A   1     -12.702  -9.408  18.412  1.00  0.00     0.272 C 
ATOM     25  O40 UNL A   1     -11.746  -8.753  18.790  1.00  0.00    -0.264 OA
BRANCH  24  26
ATOM     26  O41 UNL A   1     -13.835  -8.946  17.854  1.00  0.00    -0.307 OA
BRANCH  26  27
ATOM     27  C42 UNL A   1     -14.486  -7.760  18.284  1.00  0.00     0.101 C 
ATOM     28  C43 UNL A   1     -13.850  -6.551  17.547  1.00  0.00     0.030 C 
ATOM     29  C44 UNL A   1     -15.922  -8.283  18.078  1.00  0.00     0.030 C 
ATOM     30  C45 UNL A   1     -14.353  -7.490  19.773  1.00  0.00     0.030 C 
ENDBRANCH  26  27
ENDBRANCH  24  26
ENDBRANCH  23  24
ENDBRANCH  22  23
ENDBRANCH  21  22
ENDBRANCH  20  21
ENDBRANCH  18  20
ENDBRANCH  17  18
ENDBRANCH  16  17
ENDBRANCH  15  16
ENDBRANCH  14  15
ENDBRANCH  10  13
ENDBRANCH   6   7
BRANCH   5  31
ATOM     31  C15 UNL A   1     -15.312  -3.072  13.068  1.00  0.00     0.093 A 
ATOM     32  C16 UNL A   1     -16.443  -2.960  12.241  1.00  0.00     0.021 A 
ATOM     33  C17 UNL A   1     -17.545  -2.212  12.670  1.00  0.00     0.013 A 
ATOM     34  C18 UNL A   1     -17.520  -1.600  13.921  1.00  0.00     0.059 A 
ATOM     35 CL19 UNL A   1     -18.851  -0.637  14.431  1.00  0.00    -0.082 Cl
ATOM     36  C20 UNL A   1     -16.415  -1.739  14.758  1.00  0.00     0.024 A 
ATOM     37  C21 UNL A   1     -15.307  -2.479  14.340  1.00  0.00     0.076 A 
ATOM     38 CL22 UNL A   1     -13.929  -2.456  15.389  1.00  0.00    -0.081 Cl
ENDBRANCH   5  31
BRANCH   3  39
ATOM     39  C4  UNL A   1     -10.971  -3.285  11.042  1.00  0.00     0.287 C 
ATOM     40  O5  UNL A   1     -11.021  -2.887   9.880  1.00  0.00    -0.265 OA
ATOM     41  N6  UNL A   1      -9.814  -3.282  11.831  1.00  0.00    -0.282 N 
ATOM     42  H48 UNL A   1      -9.903  -3.623  12.751  1.00  0.00     0.184 HD
BRANCH  41  43
ATOM     43  N7  UNL A   1      -8.518  -2.835  11.435  1.00  0.00    -0.199 NA
ATOM     44  C8  UNL A   1      -7.740  -2.247  12.533  1.00  0.00     0.094 C 
ATOM     45  C9  UNL A   1      -6.429  -1.628  12.031  1.00  0.00     0.019 C 
ATOM     46  C10 UNL A   1      -5.600  -2.639  11.244  1.00  0.00     0.003 C 
ATOM     47  C11 UNL A   1      -6.444  -3.259  10.137  1.00  0.00     0.019 C 
ATOM     48  C12 UNL A   1      -7.753  -3.844  10.687  1.00  0.00     0.094 C 
ENDBRANCH  41  43
ENDBRANCH   3  39
TORSDOF 16
BEGIN_RES SER A 173
REMARK  2 active torsions:
REMARK  status: ('A' for Active; 'I' for Inactive)
REMARK    1  A    between atoms: CA   and  CB  
REMARK    2  A    between atoms: CB   and  OG  
ROOT
ATOM      1  CA  SER A 173      -4.540 -11.597  11.543  1.00127.03     0.292 C 
ENDROOT
BRANCH   1   2
ATOM      2  CB  SER A 173      -4.003 -10.168  11.569  1.00131.20     0.194 C 
BRANCH   2   3
ATOM      3  OG  SER A 173      -3.818  -9.712  12.898  1.00137.49    -0.550 OA
ATOM      4  HG  SER A 173      -4.314 -10.237  13.515  1.00  0.00     0.310 HD
ENDBRANCH   2   3
ENDBRANCH   1   2
END_RES SER A 173
BEGIN_RES SER A 383
REMARK  2 active torsions:
REMARK  status: ('A' for Active; 'I' for Inactive)
REMARK    3  A    between atoms: CA   and  CB  
REMARK    4  A    between atoms: CB   and  OG  
ROOT
ATOM      5  CA  SER A 383      -8.934   0.934   8.031  1.00 88.23     0.292 C 
ENDROOT
BRANCH   5   6
ATOM      6  CB  SER A 383      -8.589   0.249   9.352  1.00 82.13     0.194 C 
BRANCH   6   7
ATOM      7  OG  SER A 383      -8.011   1.164  10.265  1.00 85.59    -0.550 OA
ATOM      8  HG  SER A 383      -8.517   1.211  11.068  1.00  0.00     0.310 HD
ENDBRANCH   6   7
ENDBRANCH   5   6
END_RES SER A 383
ENDMDL
MODEL 3
REMARK VINA RESULT:    -8.175      4.723      9.286
REMARK INTER + INTRA:          -9.709
REMARK INTER:                 -17.163
REMARK INTRA:                   7.454
REMARK UNBOUND:                 6.112
REMARK  16 active torsions:
REMARK  status: ('A' for Active; 'I' for Inactive)
REMARK    1  A    between atoms: C3_3  and  C4_4 
REMARK       I    between atoms: C4_4  and  N6_6 
REMARK    2  A    between atoms: N6_6  and  N7_7 
REMARK    3  A    between atoms: N14_14  and  C15_15 
REMARK    4  A    between atoms: C23_23  and  C24_24 
REMARK    5  A    between atoms: C27_27  and  C28_28 
REMARK    6  A    between atoms: C29_29  and  C30_30 
REMARK    7  A    between atoms: C30_30  and  C31_31 
REMARK    8  A    between atoms: C31_31  and  O32_32 
REMARK    9  A    between atoms: O32_32  and  C33_33 
REMARK   10  A    between atoms: C33_33  and  C35_35 
REMARK   11  A    between atoms: C35_35  and  C36_36 
REMARK   12  A    between atoms: C36_36  and  C37_37 
REMARK   13  A    between atoms: C37_37  and  C38_38 
REMARK   14  A    between atoms: C38_38  and  C39_39 
REMARK   15  A    between atoms: C39_39  and  O41_41 
REMARK   16  A    between atoms: O41_41  and  C42_42 
ROOT
ATOM      1  C1  UNL A   1     -11.331  -6.236  12.639  1.00  0.00     0.034 C 
ATOM      2  C2  UNL A   1     -12.318  -5.123  12.505  1.00  0.00     0.020 C 
ATOM      3  C3  UNL A   1     -12.037  -3.855  11.874  1.00  0.00     0.155 C 
ATOM      4  N13 UNL A   1     -13.079  -3.030  12.028  1.00  0.00    -0.161 NA
ATOM      5  N14 UNL A   1     -14.012  -3.730  12.709  1.00  0.00    -0.229 N 
ATOM      6  C23 UNL A   1     -13.689  -5.087  12.863  1.00  0.00     0.081 C 
ENDROOT
BRANCH   6   7
ATOM      7  C24 UNL A   1     -14.667  -6.155  13.321  1.00  0.00     0.018 C 
ATOM      8  C25 UNL A   1     -15.306  -6.177  14.579  1.00  0.00     0.002 C 
ATOM      9  C26 UNL A   1     -15.942  -7.341  15.120  1.00  0.00     0.008 C 
ATOM     10  C27 UNL A   1     -16.056  -8.505  14.369  1.00  0.00     0.042 C 
ATOM     11  C46 UNL A   1     -15.668  -8.394  13.040  1.00  0.00     0.008 C 
ATOM     12  C47 UNL A   1     -14.954  -7.268  12.535  1.00  0.00     0.002 C 
BRANCH  10  13
ATOM     13  C28 UNL A   1     -16.386  -9.817  14.894  1.00  0.00    -0.064 C 
ATOM     14  C29 UNL A   1     -16.606 -10.838  15.505  1.00  0.00    -0.084 C 
BRANCH  14  15
ATOM     15  C30 UNL A   1     -16.733 -12.076  16.343  1.00  0.00     0.109 C 
BRANCH  15  16
ATOM     16  C31 UNL A   1     -15.429 -12.802  16.692  1.00  0.00     0.166 C 
BRANCH  16  17
ATOM     17  O32 UNL A   1     -14.435 -11.917  17.280  1.00  0.00    -0.301 OA
BRANCH  17  18
ATOM     18  C33 UNL A   1     -14.625 -11.597  18.592  1.00  0.00     0.272 C 
ATOM     19  O34 UNL A   1     -14.767 -12.413  19.497  1.00  0.00    -0.264 OA
BRANCH  18  20
ATOM     20  C35 UNL A   1     -14.565 -10.100  18.807  1.00  0.00     0.096 C 
BRANCH  20  21
ATOM     21  C36 UNL A   1     -13.132  -9.613  19.021  1.00  0.00     0.011 C 
BRANCH  21  22
ATOM     22  C37 UNL A   1     -12.334 -10.498  19.970  1.00  0.00     0.011 C 
BRANCH  22  23
ATOM     23  C38 UNL A   1     -12.701 -10.181  21.408  1.00  0.00     0.096 C 
BRANCH  23  24
ATOM     24  C39 UNL A   1     -11.847  -9.082  21.929  1.00  0.00     0.272 C 
ATOM     25  O40 UNL A   1     -12.223  -7.959  22.218  1.00  0.00    -0.264 OA
BRANCH  24  26
ATOM     26  O41 UNL A   1     -10.604  -9.579  22.047  1.00  0.00    -0.307 OA
BRANCH  26  27
ATOM     27  C42 UNL A   1     -10.097 -10.131  23.252  1.00  0.00     0.101 C 
ATOM     28  C43 UNL A   1      -9.688 -11.605  22.988  1.00  0.00     0.030 C 
ATOM     29  C44 UNL A   1      -9.130  -8.972  23.565  1.00  0.00     0.030 C 
ATOM     30  C45 UNL A   1     -11.104 -10.150  24.391  1.00  0.00     0.030 C 
ENDBRANCH  26  27
ENDBRANCH  24  26
ENDBRANCH  23  24
ENDBRANCH  22  23
ENDBRANCH  21  22
ENDBRANCH  20  21
ENDBRANCH  18  20
ENDBRANCH  17  18
ENDBRANCH  16  17
ENDBRANCH  15  16
ENDBRANCH  14  15
ENDBRANCH  10  13
ENDBRANCH   6   7
BRANCH   5  31
ATOM     31  C15 UNL A   1     -15.148  -3.021  13.179  1.00  0.00     0.093 A 
ATOM     32  C16 UNL A   1     -16.259  -2.846  12.336  1.00  0.00     0.021 A 
ATOM     33  C17 UNL A   1     -17.336  -2.062  12.761  1.00  0.00     0.013 A 
ATOM     34  C18 UNL A   1     -17.307  -1.476  14.025  1.00  0.00     0.059 A 
ATOM     35 CL19 UNL A   1     -18.606  -0.468  14.532  1.00  0.00    -0.082 Cl
ATOM     36  C20 UNL A   1     -16.224  -1.676  14.877  1.00  0.00     0.024 A 
ATOM     37  C21 UNL A   1     -15.141  -2.454  14.462  1.00  0.00     0.076 A 
ATOM     38 CL22 UNL A   1     -13.781  -2.508  15.534  1.00  0.00    -0.081 Cl
ENDBRANCH   5  31
BRANCH   3  39
ATOM     39  C4  UNL A   1     -10.840  -3.386  11.105  1.00  0.00     0.287 C 
ATOM     40  O5  UNL A   1     -10.870  -3.140   9.902  1.00  0.00    -0.265 OA
ATOM     41  N6  UNL A   1      -9.707  -3.234  11.916  1.00  0.00    -0.282 N 
ATOM     42  H48 UNL A   1      -9.811  -3.459  12.870  1.00  0.00     0.184 HD
BRANCH  41  43
ATOM     43  N7  UNL A   1      -8.418  -2.786  11.499  1.00  0.00    -0.199 NA
ATOM     44  C8  UNL A   1      -7.567  -2.334  12.607  1.00  0.00     0.094 C 
ATOM     45  C9  UNL A   1      -6.263  -1.705  12.100  1.00  0.00     0.019 C 
ATOM     46  C10 UNL A   1      -5.509  -2.654  11.174  1.00  0.00     0.003 C 
ATOM     47  C11 UNL A   1      -6.427  -3.136  10.057  1.00  0.00     0.019 C 
ATOM     48  C12 UNL A   1      -7.726  -3.735  10.614  1.00  0.00     0.094 C 
ENDBRANCH  41  43
ENDBRANCH   3  39
TORSDOF 16
BEGIN_RES SER A 173
REMARK  2 active torsions:
REMARK  status: ('A' for Active; 'I' for Inactive)
REMARK    1  A    between atoms: CA   and  CB  
REMARK    2  A    between atoms: CB   and  OG  
ROOT
ATOM      1  CA  SER A 173      -4.540 -11.597  11.543  1.00127.03     0.292 C 
ENDROOT
BRANCH   1   2
ATOM      2  CB  SER A 173      -4.003 -10.168  11.569  1.00131.20     0.194 C 
BRANCH   2   3
ATOM      3  OG  SER A 173      -3.912  -9.677  12.895  1.00137.49    -0.550 OA
ATOM      4  HG  SER A 173      -4.752  -9.356  13.202  1.00  0.00     0.310 HD
ENDBRANCH   2   3
ENDBRANCH   1   2
END_RES SER A 173
BEGIN_RES SER A 383
REMARK  2 active torsions:
REMARK  status: ('A' for Active; 'I' for Inactive)
REMARK    3  A    between atoms: CA   and  CB  
REMARK    4  A    between atoms: CB   and  OG  
ROOT
ATOM      5  CA  SER A 383      -8.934   0.934   8.031  1.00 88.23     0.292 C 
ENDROOT
BRANCH   5   6
ATOM      6  CB  SER A 383      -8.589   0.249   9.352  1.00 82.13     0.194 C 
BRANCH   6   7
ATOM      7  OG  SER A 383      -7.229   0.451   9.691  1.00 85.59    -0.550 OA
ATOM      8  HG  SER A 383      -7.053   1.369   9.865  1.00  0.00     0.310 HD
ENDBRANCH   6   7
ENDBRANCH   5   6
END_RES SER A 383
ENDMDL
MODEL 4
REMARK VINA RESULT:    -8.049      3.252     11.779
REMARK INTER + INTRA:          -9.466
REMARK INTER:                 -17.584
REMARK INTRA:                   8.118
REMARK UNBOUND:                 6.112
REMARK  16 active torsions:
REMARK  status: ('A' for Active; 'I' for Inactive)
REMARK    1  A    between atoms: C3_3  and  C4_4 
REMARK       I    between atoms: C4_4  and  N6_6 
REMARK    2  A    between atoms: N6_6  and  N7_7 
REMARK    3  A    between atoms: N14_14  and  C15_15 
REMARK    4  A    between atoms: C23_23  and  C24_24 
REMARK    5  A    between atoms: C27_27  and  C28_28 
REMARK    6  A    between atoms: C29_29  and  C30_30 
REMARK    7  A    between atoms: C30_30  and  C31_31 
REMARK    8  A    between atoms: C31_31  and  O32_32 
REMARK    9  A    between atoms: O32_32  and  C33_33 
REMARK   10  A    between atoms: C33_33  and  C35_35 
REMARK   11  A    between atoms: C35_35  and  C36_36 
REMARK   12  A    between atoms: C36_36  and  C37_37 
REMARK   13  A    between atoms: C37_37  and  C38_38 
REMARK   14  A    between atoms: C38_38  and  C39_39 
REMARK   15  A    between atoms: C39_39  and  O41_41 
REMARK   16  A    between atoms: O41_41  and  C42_42 
ROOT
ATOM      1  C1  UNL A   1     -16.786  -1.987  14.018  1.00  0.00     0.034 C 
ATOM      2  C2  UNL A   1     -17.191  -3.416  14.166  1.00  0.00     0.020 C 
ATOM      3  C3  UNL A   1     -18.502  -3.854  14.584  1.00  0.00     0.155 C 
ATOM      4  N13 UNL A   1     -18.508  -5.183  14.742  1.00  0.00    -0.161 NA
ATOM      5  N14 UNL A   1     -17.266  -5.603  14.423  1.00  0.00    -0.229 N 
ATOM      6  C23 UNL A   1     -16.460  -4.594  13.871  1.00  0.00     0.081 C 
ENDROOT
BRANCH   6   7
ATOM      7  C24 UNL A   1     -15.140  -4.843  13.161  1.00  0.00     0.018 C 
ATOM      8  C25 UNL A   1     -14.204  -5.834  13.525  1.00  0.00     0.002 C 
ATOM      9  C26 UNL A   1     -12.843  -5.834  13.079  1.00  0.00     0.008 C 
ATOM     10  C27 UNL A   1     -12.393  -4.893  12.160  1.00  0.00     0.042 C 
ATOM     11  C46 UNL A   1     -13.381  -4.091  11.603  1.00  0.00     0.008 C 
ATOM     12  C47 UNL A   1     -14.710  -4.033  12.114  1.00  0.00     0.002 C 
BRANCH  10  13
ATOM     13  C28 UNL A   1     -11.003  -4.593  11.873  1.00  0.00    -0.064 C 
ATOM     14  C29 UNL A   1      -9.901  -4.333  11.447  1.00  0.00    -0.084 C 
BRANCH  14  15
ATOM     15  C30 UNL A   1      -8.566  -4.122  10.794  1.00  0.00     0.109 C 
BRANCH  15  16
ATOM     16  C31 UNL A   1      -7.855  -2.799  11.104  1.00  0.00     0.166 C 
BRANCH  16  17
ATOM     17  O32 UNL A   1      -7.314  -2.756  12.453  1.00  0.00    -0.301 OA
BRANCH  17  18
ATOM     18  C33 UNL A   1      -5.985  -3.038  12.570  1.00  0.00     0.272 C 
ATOM     19  O34 UNL A   1      -5.510  -4.170  12.586  1.00  0.00    -0.264 OA
BRANCH  18  20
ATOM     20  C35 UNL A   1      -5.154  -1.774  12.603  1.00  0.00     0.096 C 
BRANCH  20  21
ATOM     21  C36 UNL A   1      -4.969  -1.177  11.208  1.00  0.00     0.011 C 
BRANCH  21  22
ATOM     22  C37 UNL A   1      -4.012  -1.980  10.336  1.00  0.00     0.011 C 
BRANCH  22  23
ATOM     23  C38 UNL A   1      -4.584  -2.128   8.938  1.00  0.00     0.096 C 
BRANCH  23  24
ATOM     24  C39 UNL A   1      -4.782  -3.564   8.609  1.00  0.00     0.272 C 
ATOM     25  O40 UNL A   1      -5.330  -4.392   9.316  1.00  0.00    -0.264 OA
BRANCH  24  26
ATOM     26  O41 UNL A   1      -4.271  -3.753   7.380  1.00  0.00    -0.307 OA
BRANCH  26  27
ATOM     27  C42 UNL A   1      -5.008  -3.528   6.188  1.00  0.00     0.101 C 
ATOM     28  C43 UNL A   1      -4.564  -2.171   5.579  1.00  0.00     0.030 C 
ATOM     29  C44 UNL A   1      -4.746  -4.918   5.573  1.00  0.00     0.030 C 
ATOM     30  C45 UNL A   1      -6.511  -3.446   6.400  1.00  0.00     0.030 C 
ENDBRANCH  26  27
ENDBRANCH  24  26
ENDBRANCH  23  24
ENDBRANCH  22  23
ENDBRANCH  21  22
ENDBRANCH  20  21
ENDBRANCH  18  20
ENDBRANCH  17  18
ENDBRANCH  16  17
ENDBRANCH  15  16
ENDBRANCH  14  15
ENDBRANCH  10  13
ENDBRANCH   6   7
BRANCH   5  31
ATOM     31  C15 UNL A   1     -16.942  -6.957  14.695  1.00  0.00     0.093 A 
ATOM     32  C16 UNL A   1     -16.997  -7.909  13.662  1.00  0.00     0.021 A 
ATOM     33  C17 UNL A   1     -16.778  -9.260  13.951  1.00  0.00     0.013 A 
ATOM     34  C18 UNL A   1     -16.490  -9.650  15.256  1.00  0.00     0.059 A 
ATOM     35 CL19 UNL A   1     -16.272 -11.316  15.626  1.00  0.00    -0.082 Cl
ATOM     36  C20 UNL A   1     -16.400  -8.705  16.276  1.00  0.00     0.024 A 
ATOM     37  C21 UNL A   1     -16.620  -7.354  16.002  1.00  0.00     0.076 A 
ATOM     38 CL22 UNL A   1     -16.640  -6.288  17.367  1.00  0.00    -0.081 Cl
ENDBRANCH   5  31
BRANCH   3  39
ATOM     39  C4  UNL A   1     -19.766  -3.083  14.816  1.00  0.00     0.287 C 
ATOM     40  O5  UNL A   1     -20.319  -3.018  15.911  1.00  0.00    -0.265 OA
ATOM     41  N6  UNL A   1     -20.217  -2.432  13.660  1.00  0.00    -0.282 N 
ATOM     42  H48 UNL A   1     -19.682  -2.558  12.843  1.00  0.00     0.184 HD
BRANCH  41  43
ATOM     43  N7  UNL A   1     -21.373  -1.604  13.550  1.00  0.00    -0.199 NA
ATOM     44  C8  UNL A   1     -21.176  -0.432  12.686  1.00  0.00     0.094 C 
ATOM     45  C9  UNL A   1     -22.381   0.515  12.731  1.00  0.00     0.019 C 
ATOM     46  C10 UNL A   1     -23.677  -0.213  12.389  1.00  0.00     0.003 C 
ATOM     47  C11 UNL A   1     -23.836  -1.444  13.274  1.00  0.00     0.019 C 
ATOM     48  C12 UNL A   1     -22.596  -2.347  13.211  1.00  0.00     0.094 C 
ENDBRANCH  41  43
ENDBRANCH   3  39
TORSDOF 16
BEGIN_RES SER A 173
REMARK  2 active torsions:
REMARK  status: ('A' for Active; 'I' for Inactive)
REMARK    1  A    between atoms: CA   and  CB  
REMARK    2  A    between atoms: CB   and  OG  
ROOT
ATOM      1  CA  SER A 173      -4.540 -11.597  11.543  1.00127.03     0.292 C 
ENDROOT
BRANCH   1   2
ATOM      2  CB  SER A 173      -4.003 -10.168  11.569  1.00131.20     0.194 C 
BRANCH   2   3
ATOM      3  OG  SER A 173      -3.957  -9.660  12.891  1.00137.49    -0.550 OA
ATOM      4  HG  SER A 173      -4.829  -9.479  13.222  1.00  0.00     0.310 HD
ENDBRANCH   2   3
ENDBRANCH   1   2
END_RES SER A 173
BEGIN_RES SER A 383
REMARK  2 active torsions:
REMARK  status: ('A' for Active; 'I' for Inactive)
REMARK    3  A    between atoms: CA   and  CB  
REMARK    4  A    between atoms: CB   and  OG  
ROOT
ATOM      5  CA  SER A 383      -8.934   0.934   8.031  1.00 88.23     0.292 C 
ENDROOT
BRANCH   5   6
ATOM      6  CB  SER A 383      -8.589   0.249   9.352  1.00 82.13     0.194 C 
BRANCH   6   7
ATOM      7  OG  SER A 383      -7.338   0.692   9.844  1.00 85.59    -0.550 OA
ATOM      8  HG  SER A 383      -7.287   1.642   9.843  1.00  0.00     0.310 HD
ENDBRANCH   6   7
ENDBRANCH   5   6
END_RES SER A 383
ENDMDL
MODEL 5
REMARK VINA RESULT:    -8.035      4.478      8.346
REMARK INTER + INTRA:          -9.438
REMARK INTER:                 -16.494
REMARK INTRA:                   7.055
REMARK UNBOUND:                 6.112
REMARK  16 active torsions:
REMARK  status: ('A' for Active; 'I' for Inactive)
REMARK    1  A    between atoms: C3_3  and  C4_4 
REMARK       I    between atoms: C4_4  and  N6_6 
REMARK    2  A    between atoms: N6_6  and  N7_7 
REMARK    3  A    between atoms: N14_14  and  C15_15 
REMARK    4  A    between atoms: C23_23  and  C24_24 
REMARK    5  A    between atoms: C27_27  and  C28_28 
REMARK    6  A    between atoms: C29_29  and  C30_30 
REMARK    7  A    between atoms: C30_30  and  C31_31 
REMARK    8  A    between atoms: C31_31  and  O32_32 
REMARK    9  A    between atoms: O32_32  and  C33_33 
REMARK   10  A    between atoms: C33_33  and  C35_35 
REMARK   11  A    between atoms: C35_35  and  C36_36 
REMARK   12  A    between atoms: C36_36  and  C37_37 
REMARK   13  A    between atoms: C37_37  and  C38_38 
REMARK   14  A    between atoms: C38_38  and  C39_39 
REMARK   15  A    between atoms: C39_39  and  O41_41 
REMARK   16  A    between atoms: O41_41  and  C42_42 
ROOT
ATOM      1  C1  UNL A   1     -11.106  -6.453  12.426  1.00  0.00     0.034 C 
ATOM      2  C2  UNL A   1     -11.978  -5.244  12.337  1.00  0.00     0.020 C 
ATOM      3  C3  UNL A   1     -11.588  -3.999  11.719  1.00  0.00     0.155 C 
ATOM      4  N13 UNL A   1     -12.537  -3.077  11.915  1.00  0.00    -0.161 NA
ATOM      5  N14 UNL A   1     -13.517  -3.691  12.612  1.00  0.00    -0.229 N 
ATOM      6  C23 UNL A   1     -13.328  -5.077  12.735  1.00  0.00     0.081 C 
ENDROOT
BRANCH   6   7
ATOM      7  C24 UNL A   1     -14.397  -6.050  13.204  1.00  0.00     0.018 C 
ATOM      8  C25 UNL A   1     -15.051  -5.988  14.453  1.00  0.00     0.002 C 
ATOM      9  C26 UNL A   1     -15.788  -7.082  15.011  1.00  0.00     0.008 C 
ATOM     10  C27 UNL A   1     -15.987  -8.251  14.287  1.00  0.00     0.042 C 
ATOM     11  C46 UNL A   1     -15.575  -8.205  12.961  1.00  0.00     0.008 C 
ATOM     12  C47 UNL A   1     -14.765  -7.154  12.440  1.00  0.00     0.002 C 
BRANCH  10  13
ATOM     13  C28 UNL A   1     -16.431  -9.519  14.838  1.00  0.00    -0.064 C 
ATOM     14  C29 UNL A   1     -16.643 -10.562  15.413  1.00  0.00    -0.084 C 
BRANCH  14  15
ATOM     15  C30 UNL A   1     -16.740 -11.886  16.112  1.00  0.00     0.109 C 
BRANCH  15  16
ATOM     16  C31 UNL A   1     -15.436 -12.680  16.257  1.00  0.00     0.166 C 
BRANCH  16  17
ATOM     17  O32 UNL A   1     -14.463 -12.008  17.104  1.00  0.00    -0.301 OA
BRANCH  17  18
ATOM     18  C33 UNL A   1     -14.713 -12.046  18.444  1.00  0.00     0.272 C 
ATOM     19  O34 UNL A   1     -15.133 -13.028  19.048  1.00  0.00    -0.264 OA
BRANCH  18  20
ATOM     20  C35 UNL A   1     -14.336 -10.742  19.112  1.00  0.00     0.096 C 
BRANCH  20  21
ATOM     21  C36 UNL A   1     -14.975  -9.540  18.417  1.00  0.00     0.011 C 
BRANCH  21  22
ATOM     22  C37 UNL A   1     -13.954  -8.541  17.890  1.00  0.00     0.011 C 
BRANCH  22  23
ATOM     23  C38 UNL A   1     -14.133  -7.201  18.579  1.00  0.00     0.096 C 
BRANCH  23  24
ATOM     24  C39 UNL A   1     -12.885  -6.810  19.284  1.00  0.00     0.272 C 
ATOM     25  O40 UNL A   1     -12.226  -5.807  19.072  1.00  0.00    -0.264 OA
BRANCH  24  26
ATOM     26  O41 UNL A   1     -12.652  -7.755  20.211  1.00  0.00    -0.307 OA
BRANCH  26  27
ATOM     27  C42 UNL A   1     -13.247  -7.745  21.499  1.00  0.00     0.101 C 
ATOM     28  C43 UNL A   1     -13.047  -9.140  22.149  1.00  0.00     0.030 C 
ATOM     29  C44 UNL A   1     -12.588  -6.432  21.969  1.00  0.00     0.030 C 
ATOM     30  C45 UNL A   1     -14.742  -7.475  21.484  1.00  0.00     0.030 C 
ENDBRANCH  26  27
ENDBRANCH  24  26
ENDBRANCH  23  24
ENDBRANCH  22  23
ENDBRANCH  21  22
ENDBRANCH  20  21
ENDBRANCH  18  20
ENDBRANCH  17  18
ENDBRANCH  16  17
ENDBRANCH  15  16
ENDBRANCH  14  15
ENDBRANCH  10  13
ENDBRANCH   6   7
BRANCH   5  31
ATOM     31  C15 UNL A   1     -14.562  -2.882  13.125  1.00  0.00     0.093 A 
ATOM     32  C16 UNL A   1     -14.556  -2.510  14.481  1.00  0.00     0.021 A 
ATOM     33  C17 UNL A   1     -15.637  -1.799  15.011  1.00  0.00     0.013 A 
ATOM     34  C18 UNL A   1     -16.703  -1.447  14.187  1.00  0.00     0.059 A 
ATOM     35 CL19 UNL A   1     -18.059  -0.618  14.845  1.00  0.00    -0.082 Cl
ATOM     36  C20 UNL A   1     -16.697  -1.783  12.835  1.00  0.00     0.024 A 
ATOM     37  C21 UNL A   1     -15.626  -2.496  12.294  1.00  0.00     0.076 A 
ATOM     38 CL22 UNL A   1     -15.792  -2.997  10.645  1.00  0.00    -0.081 Cl
ENDBRANCH   5  31
BRANCH   3  39
ATOM     39  C4  UNL A   1     -10.370  -3.638  10.923  1.00  0.00     0.287 C 
ATOM     40  O5  UNL A   1     -10.329  -3.698   9.697  1.00  0.00    -0.265 OA
ATOM     41  N6  UNL A   1      -9.311  -3.203  11.731  1.00  0.00    -0.282 N 
ATOM     42  H48 UNL A   1      -9.469  -3.195  12.703  1.00  0.00     0.184 HD
BRANCH  41  43
ATOM     43  N7  UNL A   1      -8.027  -2.770  11.286  1.00  0.00    -0.199 NA
ATOM     44  C8  UNL A   1      -7.325  -1.919  12.257  1.00  0.00     0.094 C 
ATOM     45  C9  UNL A   1      -6.031  -1.340  11.672  1.00  0.00     0.019 C 
ATOM     46  C10 UNL A   1      -5.119  -2.439  11.138  1.00  0.00     0.003 C 
ATOM     47  C11 UNL A   1      -5.883  -3.327  10.163  1.00  0.00     0.019 C 
ATOM     48  C12 UNL A   1      -7.180  -3.864  10.787  1.00  0.00     0.094 C 
ENDBRANCH  41  43
ENDBRANCH   3  39
TORSDOF 16
BEGIN_RES SER A 173
REMARK  2 active torsions:
REMARK  status: ('A' for Active; 'I' for Inactive)
REMARK    1  A    between atoms: CA   and  CB  
REMARK    2  A    between atoms: CB   and  OG  
ROOT
ATOM      1  CA  SER A 173      -4.540 -11.597  11.543  1.00127.03     0.292 C 
ENDROOT
BRANCH   1   2
ATOM      2  CB  SER A 173      -4.003 -10.168  11.569  1.00131.20     0.194 C 
BRANCH   2   3
ATOM      3  OG  SER A 173      -3.939  -9.667  12.893  1.00137.49    -0.550 OA
ATOM      4  HG  SER A 173      -3.187 -10.015  13.358  1.00  0.00     0.310 HD
ENDBRANCH   2   3
ENDBRANCH   1   2
END_RES SER A 173
BEGIN_RES SER A 383
REMARK  2 active torsions:
REMARK  status: ('A' for Active; 'I' for Inactive)
REMARK    3  A    between atoms: CA   and  CB  
REMARK    4  A    between atoms: CB   and  OG  
ROOT
ATOM      5  CA  SER A 383      -8.934   0.934   8.031  1.00 88.23     0.292 C 
ENDROOT
BRANCH   5   6
ATOM      6  CB  SER A 383      -8.589   0.249   9.352  1.00 82.13     0.194 C 
BRANCH   6   7
ATOM      7  OG  SER A 383      -8.090   1.181  10.294  1.00 85.59    -0.550 OA
ATOM      8  HG  SER A 383      -8.771   1.782  10.574  1.00  0.00     0.310 HD
ENDBRANCH   6   7
ENDBRANCH   5   6
END_RES SER A 383
ENDMDL
MODEL 6
REMARK VINA RESULT:    -8.024      3.356     11.803
REMARK INTER + INTRA:          -9.417
REMARK INTER:                 -17.324
REMARK INTRA:                   7.907
REMARK UNBOUND:                 6.112
REMARK  16 active torsions:
REMARK  status: ('A' for Active; 'I' for Inactive)
REMARK    1  A    between atoms: C3_3  and  C4_4 
REMARK       I    between atoms: C4_4  and  N6_6 
REMARK    2  A    between atoms: N6_6  and  N7_7 
REMARK    3  A    between atoms: N14_14  and  C15_15 
REMARK    4  A    between atoms: C23_23  and  C24_24 
REMARK    5  A    between atoms: C27_27  and  C28_28 
REMARK    6  A    between atoms: C29_29  and  C30_30 
REMARK    7  A    between atoms: C30_30  and  C31_31 
REMARK    8  A    between atoms: C31_31  and  O32_32 
REMARK    9  A    between atoms: O32_32  and  C33_33 
REMARK   10  A    between atoms: C33_33  and  C35_35 
REMARK   11  A    between atoms: C35_35  and  C36_36 
REMARK   12  A    between atoms: C36_36  and  C37_37 
REMARK   13  A    between atoms: C37_37  and  C38_38 
REMARK   14  A    between atoms: C38_38  and  C39_39 
REMARK   15  A    between atoms: C39_39  and  O41_41 
REMARK   16  A    between atoms: O41_41  and  C42_42 
ROOT
ATOM      1  C1  UNL A   1     -18.346  -1.466  14.066  1.00  0.00     0.034 C 
ATOM      2  C2  UNL A   1     -18.444  -2.863  14.583  1.00  0.00     0.020 C 
ATOM      3  C3  UNL A   1     -19.667  -3.483  15.035  1.00  0.00     0.155 C 
ATOM      4  N13 UNL A   1     -19.403  -4.687  15.554  1.00  0.00    -0.161 NA
ATOM      5  N14 UNL A   1     -18.070  -4.862  15.430  1.00  0.00    -0.229 N 
ATOM      6  C23 UNL A   1     -17.445  -3.865  14.663  1.00  0.00     0.081 C 
ENDROOT
BRANCH   6   7
ATOM      7  C24 UNL A   1     -16.029  -3.962  14.121  1.00  0.00     0.018 C 
ATOM      8  C25 UNL A   1     -14.982  -3.071  14.440  1.00  0.00     0.002 C 
ATOM      9  C26 UNL A   1     -13.775  -2.967  13.675  1.00  0.00     0.008 C 
ATOM     10  C27 UNL A   1     -13.525  -3.833  12.617  1.00  0.00     0.042 C 
ATOM     11  C46 UNL A   1     -14.431  -4.876  12.478  1.00  0.00     0.008 C 
ATOM     12  C47 UNL A   1     -15.672  -4.922  13.178  1.00  0.00     0.002 C 
BRANCH  10  13
ATOM     13  C28 UNL A   1     -12.518  -3.639  11.590  1.00  0.00    -0.064 C 
ATOM     14  C29 UNL A   1     -11.579  -3.618  10.828  1.00  0.00    -0.084 C 
BRANCH  14  15
ATOM     15  C30 UNL A   1     -10.314  -3.602  10.020  1.00  0.00     0.109 C 
BRANCH  15  16
ATOM     16  C31 UNL A   1      -9.099  -4.304  10.637  1.00  0.00     0.166 C 
BRANCH  16  17
ATOM     17  O32 UNL A   1      -8.878  -3.926  12.024  1.00  0.00    -0.301 OA
BRANCH  17  18
ATOM     18  C33 UNL A   1      -7.749  -3.202  12.271  1.00  0.00     0.272 C 
ATOM     19  O34 UNL A   1      -7.320  -2.938  13.390  1.00  0.00    -0.264 OA
BRANCH  18  20
ATOM     20  C35 UNL A   1      -7.045  -2.825  10.986  1.00  0.00     0.096 C 
BRANCH  20  21
ATOM     21  C36 UNL A   1      -5.632  -3.403  10.920  1.00  0.00     0.011 C 
BRANCH  21  22
ATOM     22  C37 UNL A   1      -5.083  -3.482   9.501  1.00  0.00     0.011 C 
BRANCH  22  23
ATOM     23  C38 UNL A   1      -4.539  -2.130   9.079  1.00  0.00     0.096 C 
BRANCH  23  24
ATOM     24  C39 UNL A   1      -4.825  -1.883   7.641  1.00  0.00     0.272 C 
ATOM     25  O40 UNL A   1      -4.398  -0.956   6.974  1.00  0.00    -0.264 OA
BRANCH  24  26
ATOM     26  O41 UNL A   1      -5.611  -2.891   7.224  1.00  0.00    -0.307 OA
BRANCH  26  27
ATOM     27  C42 UNL A   1      -5.386  -3.604   6.018  1.00  0.00     0.101 C 
ATOM     28  C43 UNL A   1      -4.399  -4.767   6.306  1.00  0.00     0.030 C 
ATOM     29  C44 UNL A   1      -6.874  -3.761   5.646  1.00  0.00     0.030 C 
ATOM     30  C45 UNL A   1      -4.768  -2.765   4.912  1.00  0.00     0.030 C 
ENDBRANCH  26  27
ENDBRANCH  24  26
ENDBRANCH  23  24
ENDBRANCH  22  23
ENDBRANCH  21  22
ENDBRANCH  20  21
ENDBRANCH  18  20
ENDBRANCH  17  18
ENDBRANCH  16  17
ENDBRANCH  15  16
ENDBRANCH  14  15
ENDBRANCH  10  13
ENDBRANCH   6   7
BRANCH   5  31
ATOM     31  C15 UNL A   1     -17.493  -5.982  16.083  1.00  0.00     0.093 A 
ATOM     32  C16 UNL A   1     -16.905  -5.824  17.350  1.00  0.00     0.021 A 
ATOM     33  C17 UNL A   1     -16.246  -6.903  17.949  1.00  0.00     0.013 A 
ATOM     34  C18 UNL A   1     -16.194  -8.131  17.293  1.00  0.00     0.059 A 
ATOM     35 CL19 UNL A   1     -15.341  -9.446  18.002  1.00  0.00    -0.082 Cl
ATOM     36  C20 UNL A   1     -16.806  -8.301  16.053  1.00  0.00     0.024 A 
ATOM     37  C21 UNL A   1     -17.463  -7.231  15.443  1.00  0.00     0.076 A 
ATOM     38 CL22 UNL A   1     -18.050  -7.506  13.837  1.00  0.00    -0.081 Cl
ENDBRANCH   5  31
BRANCH   3  39
ATOM     39  C4  UNL A   1     -21.087  -3.007  14.978  1.00  0.00     0.287 C 
ATOM     40  O5  UNL A   1     -21.759  -2.780  15.982  1.00  0.00    -0.265 OA
ATOM     41  N6  UNL A   1     -21.540  -2.826  13.665  1.00  0.00    -0.282 N 
ATOM     42  H48 UNL A   1     -20.904  -3.037  12.943  1.00  0.00     0.184 HD
BRANCH  41  43
ATOM     43  N7  UNL A   1     -22.831  -2.364  13.268  1.00  0.00    -0.199 NA
ATOM     44  C8  UNL A   1     -22.929  -0.901  13.178  1.00  0.00     0.094 C 
ATOM     45  C9  UNL A   1     -24.369  -0.445  12.916  1.00  0.00     0.019 C 
ATOM     46  C10 UNL A   1     -24.951  -1.116  11.676  1.00  0.00     0.003 C 
ATOM     47  C11 UNL A   1     -24.801  -2.629  11.780  1.00  0.00     0.019 C 
ATOM     48  C12 UNL A   1     -23.347  -3.033  12.065  1.00  0.00     0.094 C 
ENDBRANCH  41  43
ENDBRANCH   3  39
TORSDOF 16
BEGIN_RES SER A 173
REMARK  2 active torsions:
REMARK  status: ('A' for Active; 'I' for Inactive)
REMARK    1  A    between atoms: CA   and  CB  
REMARK    2  A    between atoms: CB   and  OG  
ROOT
ATOM      1  CA  SER A 173      -4.540 -11.597  11.543  1.00127.03     0.292 C 
ENDROOT
BRANCH   1   2
ATOM      2  CB  SER A 173      -4.003 -10.168  11.569  1.00131.20     0.194 C 
BRANCH   2   3
ATOM      3  OG  SER A 173      -3.840  -9.704  12.898  1.00137.49    -0.550 OA
ATOM      4  HG  SER A 173      -4.200 -10.320  13.525  1.00  0.00     0.310 HD
ENDBRANCH   2   3
ENDBRANCH   1   2
END_RES SER A 173
BEGIN_RES SER A 383
REMARK  2 active torsions:
REMARK  status: ('A' for Active; 'I' for Inactive)
REMARK    3  A    between atoms: CA   and  CB  
REMARK    4  A    between atoms: CB   and  OG  
ROOT
ATOM      5  CA  SER A 383      -8.934   0.934   8.031  1.00 88.23     0.292 C 
ENDROOT
BRANCH   5   6
ATOM      6  CB  SER A 383      -8.589   0.249   9.352  1.00 82.13     0.194 C 
BRANCH   6   7
ATOM      7  OG  SER A 383      -7.320   0.663   9.824  1.00 85.59    -0.550 OA
ATOM      8  HG  SER A 383      -7.264   1.611   9.867  1.00  0.00     0.310 HD
ENDBRANCH   6   7
ENDBRANCH   5   6
END_RES SER A 383
ENDMDL
MODEL 7
REMARK VINA RESULT:    -7.895      5.660      9.845
REMARK INTER + INTRA:          -9.167
REMARK INTER:                 -16.967
REMARK INTRA:                   7.800
REMARK UNBOUND:                 6.112
REMARK  16 active torsions:
REMARK  status: ('A' for Active; 'I' for Inactive)
REMARK    1  A    between atoms: C3_3  and  C4_4 
REMARK       I    between atoms: C4_4  and  N6_6 
REMARK    2  A    between atoms: N6_6  and  N7_7 
REMARK    3  A    between atoms: N14_14  and  C15_15 
REMARK    4  A    between atoms: C23_23  and  C24_24 
REMARK    5  A    between atoms: C27_27  and  C28_28 
REMARK    6  A    between atoms: C29_29  and  C30_30 
REMARK    7  A    between atoms: C30_30  and  C31_31 
REMARK    8  A    between atoms: C31_31  and  O32_32 
REMARK    9  A    between atoms: O32_32  and  C33_33 
REMARK   10  A    between atoms: C33_33  and  C35_35 
REMARK   11  A    between atoms: C35_35  and  C36_36 
REMARK   12  A    between atoms: C36_36  and  C37_37 
REMARK   13  A    between atoms: C37_37  and  C38_38 
REMARK   14  A    between atoms: C38_38  and  C39_39 
REMARK   15  A    between atoms: C39_39  and  O41_41 
REMARK   16  A    between atoms: O41_41  and  C42_42 
ROOT
ATOM      1  C1  UNL A   1     -11.104  -6.404  12.396  1.00  0.00     0.034 C 
ATOM      2  C2  UNL A   1     -12.040  -5.248  12.269  1.00  0.00     0.020 C 
ATOM      3  C3  UNL A   1     -11.698  -3.983  11.662  1.00  0.00     0.155 C 
ATOM      4  N13 UNL A   1     -12.706  -3.116  11.818  1.00  0.00    -0.161 NA
ATOM      5  N14 UNL A   1     -13.675  -3.785  12.478  1.00  0.00    -0.229 N 
ATOM      6  C23 UNL A   1     -13.412  -5.158  12.614  1.00  0.00     0.081 C 
ENDROOT
BRANCH   6   7
ATOM      7  C24 UNL A   1     -14.441  -6.190  13.044  1.00  0.00     0.018 C 
ATOM      8  C25 UNL A   1     -15.109  -6.191  14.287  1.00  0.00     0.002 C 
ATOM      9  C26 UNL A   1     -15.802  -7.332  14.807  1.00  0.00     0.008 C 
ATOM     10  C27 UNL A   1     -15.942  -8.489  14.049  1.00  0.00     0.042 C 
ATOM     11  C46 UNL A   1     -15.518  -8.388  12.731  1.00  0.00     0.008 C 
ATOM     12  C47 UNL A   1     -14.751  -7.288  12.247  1.00  0.00     0.002 C 
BRANCH  10  13
ATOM     13  C28 UNL A   1     -16.333  -9.789  14.561  1.00  0.00    -0.064 C 
ATOM     14  C29 UNL A   1     -16.492 -10.866  15.089  1.00  0.00    -0.084 C 
BRANCH  14  15
ATOM     15  C30 UNL A   1     -16.525 -12.231  15.712  1.00  0.00     0.109 C 
BRANCH  15  16
ATOM     16  C31 UNL A   1     -17.745 -12.557  16.581  1.00  0.00     0.166 C 
BRANCH  16  17
ATOM     17  O32 UNL A   1     -17.379 -13.098  17.880  1.00  0.00    -0.301 OA
BRANCH  17  18
ATOM     18  C33 UNL A   1     -16.510 -14.149  17.863  1.00  0.00     0.272 C 
ATOM     19  O34 UNL A   1     -15.336 -14.090  18.216  1.00  0.00    -0.264 OA
BRANCH  18  20
ATOM     20  C35 UNL A   1     -17.195 -15.424  17.424  1.00  0.00     0.096 C 
BRANCH  20  21
ATOM     21  C36 UNL A   1     -16.502 -16.059  16.219  1.00  0.00     0.011 C 
BRANCH  21  22
ATOM     22  C37 UNL A   1     -17.203 -15.761  14.900  1.00  0.00     0.011 C 
BRANCH  22  23
ATOM     23  C38 UNL A   1     -16.505 -16.490  13.765  1.00  0.00     0.096 C 
BRANCH  23  24
ATOM     24  C39 UNL A   1     -15.842 -15.518  12.857  1.00  0.00     0.272 C 
ATOM     25  O40 UNL A   1     -14.841 -14.869  13.110  1.00  0.00    -0.264 OA
BRANCH  24  26
ATOM     26  O41 UNL A   1     -16.539 -15.523  11.708  1.00  0.00    -0.307 OA
BRANCH  26  27
ATOM     27  C42 UNL A   1     -16.137 -16.252  10.558  1.00  0.00     0.101 C 
ATOM     28  C43 UNL A   1     -17.392 -16.908   9.923  1.00  0.00     0.030 C 
ATOM     29  C44 UNL A   1     -15.303 -15.116   9.932  1.00  0.00     0.030 C 
ATOM     30  C45 UNL A   1     -15.154 -17.373  10.852  1.00  0.00     0.030 C 
ENDBRANCH  26  27
ENDBRANCH  24  26
ENDBRANCH  23  24
ENDBRANCH  22  23
ENDBRANCH  21  22
ENDBRANCH  20  21
ENDBRANCH  18  20
ENDBRANCH  17  18
ENDBRANCH  16  17
ENDBRANCH  15  16
ENDBRANCH  14  15
ENDBRANCH  10  13
ENDBRANCH   6   7
BRANCH   5  31
ATOM     31  C15 UNL A   1     -14.784  -3.036  12.948  1.00  0.00     0.093 A 
ATOM     32  C16 UNL A   1     -14.833  -2.629  14.293  1.00  0.00     0.021 A 
ATOM     33  C17 UNL A   1     -15.971  -1.980  14.781  1.00  0.00     0.013 A 
ATOM     34  C18 UNL A   1     -17.041  -1.725  13.927  1.00  0.00     0.059 A 
ATOM     35 CL19 UNL A   1     -18.464  -0.974  14.534  1.00  0.00    -0.082 Cl
ATOM     36  C20 UNL A   1     -16.982  -2.095  12.585  1.00  0.00     0.024 A 
ATOM     37  C21 UNL A   1     -15.853  -2.747  12.086  1.00  0.00     0.076 A 
ATOM     38 CL22 UNL A   1     -15.949  -3.302  10.448  1.00  0.00    -0.081 Cl
ENDBRANCH   5  31
BRANCH   3  39
ATOM     39  C4  UNL A   1     -10.473  -3.554  10.913  1.00  0.00     0.287 C 
ATOM     40  O5  UNL A   1     -10.428  -3.480   9.687  1.00  0.00    -0.265 OA
ATOM     41  N6  UNL A   1      -9.412  -3.223  11.765  1.00  0.00    -0.282 N 
ATOM     42  H48 UNL A   1      -9.573  -3.318  12.733  1.00  0.00     0.184 HD
BRANCH  41  43
ATOM     43  N7  UNL A   1      -8.120  -2.760  11.373  1.00  0.00    -0.199 NA
ATOM     44  C8  UNL A   1      -7.296  -2.297  12.497  1.00  0.00     0.094 C 
ATOM     45  C9  UNL A   1      -5.990  -1.653  12.014  1.00  0.00     0.019 C 
ATOM     46  C10 UNL A   1      -5.207  -2.594  11.105  1.00  0.00     0.003 C 
ATOM     47  C11 UNL A   1      -6.097  -3.088   9.971  1.00  0.00     0.019 C 
ATOM     48  C12 UNL A   1      -7.400  -3.702  10.504  1.00  0.00     0.094 C 
ENDBRANCH  41  43
ENDBRANCH   3  39
TORSDOF 16
BEGIN_RES SER A 173
REMARK  2 active torsions:
REMARK  status: ('A' for Active; 'I' for Inactive)
REMARK    1  A    between atoms: CA   and  CB  
REMARK    2  A    between atoms: CB   and  OG  
ROOT
ATOM      1  CA  SER A 173      -4.540 -11.597  11.543  1.00127.03     0.292 C 
ENDROOT
BRANCH   1   2
ATOM      2  CB  SER A 173      -4.003 -10.168  11.569  1.00131.20     0.194 C 
BRANCH   2   3
ATOM      3  OG  SER A 173      -3.939  -9.667  12.893  1.00137.49    -0.550 OA
ATOM      4  HG  SER A 173      -4.037  -8.722  12.909  1.00  0.00     0.310 HD
ENDBRANCH   2   3
ENDBRANCH   1   2
END_RES SER A 173
BEGIN_RES SER A 383
REMARK  2 active torsions:
REMARK  status: ('A' for Active; 'I' for Inactive)
REMARK    3  A    between atoms: CA   and  CB  
REMARK    4  A    between atoms: CB   and  OG  
ROOT
ATOM      5  CA  SER A 383      -8.934   0.934   8.031  1.00 88.23     0.292 C 
ENDROOT
BRANCH   5   6
ATOM      6  CB  SER A 383      -8.589   0.249   9.352  1.00 82.13     0.194 C 
BRANCH   6   7
ATOM      7  OG  SER A 383      -7.333   0.685   9.839  1.00 85.59    -0.550 OA
ATOM      8  HG  SER A 383      -7.279   1.634   9.843  1.00  0.00     0.310 HD
ENDBRANCH   6   7
ENDBRANCH   5   6
END_RES SER A 383
ENDMDL
MODEL 8
REMARK VINA RESULT:    -7.611      6.351     10.344
REMARK INTER + INTRA:          -8.617
REMARK INTER:                 -16.313
REMARK INTRA:                   7.696
REMARK UNBOUND:                 6.112
REMARK  16 active torsions:
REMARK  status: ('A' for Active; 'I' for Inactive)
REMARK    1  A    between atoms: C3_3  and  C4_4 
REMARK       I    between atoms: C4_4  and  N6_6 
REMARK    2  A    between atoms: N6_6  and  N7_7 
REMARK    3  A    between atoms: N14_14  and  C15_15 
REMARK    4  A    between atoms: C23_23  and  C24_24 
REMARK    5  A    between atoms: C27_27  and  C28_28 
REMARK    6  A    between atoms: C29_29  and  C30_30 
REMARK    7  A    between atoms: C30_30  and  C31_31 
REMARK    8  A    between atoms: C31_31  and  O32_32 
REMARK    9  A    between atoms: O32_32  and  C33_33 
REMARK   10  A    between atoms: C33_33  and  C35_35 
REMARK   11  A    between atoms: C35_35  and  C36_36 
REMARK   12  A    between atoms: C36_36  and  C37_37 
REMARK   13  A    between atoms: C37_37  and  C38_38 
REMARK   14  A    between atoms: C38_38  and  C39_39 
REMARK   15  A    between atoms: C39_39  and  O41_41 
REMARK   16  A    between atoms: O41_41  and  C42_42 
ROOT
ATOM      1  C1  UNL A   1     -11.341  -6.260  12.638  1.00  0.00     0.034 C 
ATOM      2  C2  UNL A   1     -12.340  -5.162  12.480  1.00  0.00     0.020 C 
ATOM      3  C3  UNL A   1     -12.070  -3.898  11.835  1.00  0.00     0.155 C 
ATOM      4  N13 UNL A   1     -13.124  -3.085  11.969  1.00  0.00    -0.161 NA
ATOM      5  N14 UNL A   1     -14.054  -3.787  12.651  1.00  0.00    -0.229 N 
ATOM      6  C23 UNL A   1     -13.715  -5.139  12.826  1.00  0.00     0.081 C 
ENDROOT
BRANCH   6   7
ATOM      7  C24 UNL A   1     -14.684  -6.213  13.289  1.00  0.00     0.018 C 
ATOM      8  C25 UNL A   1     -15.383  -6.193  14.515  1.00  0.00     0.002 C 
ATOM      9  C26 UNL A   1     -16.012  -7.349  15.082  1.00  0.00     0.008 C 
ATOM     10  C27 UNL A   1     -16.055  -8.551  14.386  1.00  0.00     0.042 C 
ATOM     11  C46 UNL A   1     -15.605  -8.492  13.073  1.00  0.00     0.008 C 
ATOM     12  C47 UNL A   1     -14.900  -7.371  12.547  1.00  0.00     0.002 C 
BRANCH  10  13
ATOM     13  C28 UNL A   1     -16.372  -9.846  14.960  1.00  0.00    -0.064 C 
ATOM     14  C29 UNL A   1     -16.683 -10.824  15.600  1.00  0.00    -0.084 C 
BRANCH  14  15
ATOM     15  C30 UNL A   1     -16.982 -11.969  16.523  1.00  0.00     0.109 C 
BRANCH  15  16
ATOM     16  C31 UNL A   1     -17.871 -13.085  15.962  1.00  0.00     0.166 C 
BRANCH  16  17
ATOM     17  O32 UNL A   1     -17.126 -14.300  15.668  1.00  0.00    -0.301 OA
BRANCH  17  18
ATOM     18  C33 UNL A   1     -17.308 -14.822  14.422  1.00  0.00     0.272 C 
ATOM     19  O34 UNL A   1     -18.302 -14.638  13.726  1.00  0.00    -0.264 OA
BRANCH  18  20
ATOM     20  C35 UNL A   1     -16.092 -15.600  13.968  1.00  0.00     0.096 C 
BRANCH  20  21
ATOM     21  C36 UNL A   1     -15.352 -14.891  12.834  1.00  0.00     0.011 C 
BRANCH  21  22
ATOM     22  C37 UNL A   1     -15.172 -15.764  11.599  1.00  0.00     0.011 C 
BRANCH  22  23
ATOM     23  C38 UNL A   1     -15.559 -17.198  11.915  1.00  0.00     0.096 C 
BRANCH  23  24
ATOM     24  C39 UNL A   1     -15.836 -17.947  10.662  1.00  0.00     0.272 C 
ATOM     25  O40 UNL A   1     -15.132 -17.964   9.667  1.00  0.00    -0.264 OA
BRANCH  24  26
ATOM     26  O41 UNL A   1     -16.985 -18.617  10.856  1.00  0.00    -0.307 OA
BRANCH  26  27
ATOM     27  C42 UNL A   1     -18.263 -18.069  10.571  1.00  0.00     0.101 C 
ATOM     28  C43 UNL A   1     -18.099 -16.962   9.495  1.00  0.00     0.030 C 
ATOM     29  C44 UNL A   1     -18.974 -19.422  10.367  1.00  0.00     0.030 C 
ATOM     30  C45 UNL A   1     -18.937 -17.423  11.770  1.00  0.00     0.030 C 
ENDBRANCH  26  27
ENDBRANCH  24  26
ENDBRANCH  23  24
ENDBRANCH  22  23
ENDBRANCH  21  22
ENDBRANCH  20  21
ENDBRANCH  18  20
ENDBRANCH  17  18
ENDBRANCH  16  17
ENDBRANCH  15  16
ENDBRANCH  14  15
ENDBRANCH  10  13
ENDBRANCH   6   7
BRANCH   5  31
ATOM     31  C15 UNL A   1     -15.203  -3.088  13.102  1.00  0.00     0.093 A 
ATOM     32  C16 UNL A   1     -16.319  -2.961  12.257  1.00  0.00     0.021 A 
ATOM     33  C17 UNL A   1     -17.411  -2.185  12.660  1.00  0.00     0.013 A 
ATOM     34  C18 UNL A   1     -17.391  -1.560  13.904  1.00  0.00     0.059 A 
ATOM     35 CL19 UNL A   1     -18.709  -0.563  14.384  1.00  0.00    -0.082 Cl
ATOM     36  C20 UNL A   1     -16.302  -1.712  14.759  1.00  0.00     0.024 A 
ATOM     37  C21 UNL A   1     -15.205  -2.480  14.367  1.00  0.00     0.076 A 
ATOM     38 CL22 UNL A   1     -13.842  -2.474  15.436  1.00  0.00    -0.081 Cl
ENDBRANCH   5  31
BRANCH   3  39
ATOM     39  C4  UNL A   1     -10.872  -3.424  11.070  1.00  0.00     0.287 C 
ATOM     40  O5  UNL A   1     -10.906  -3.152   9.872  1.00  0.00    -0.265 OA
ATOM     41  N6  UNL A   1      -9.734  -3.301  11.878  1.00  0.00    -0.282 N 
ATOM     42  H48 UNL A   1      -9.835  -3.545  12.827  1.00  0.00     0.184 HD
BRANCH  41  43
ATOM     43  N7  UNL A   1      -8.443  -2.856  11.464  1.00  0.00    -0.199 NA
ATOM     44  C8  UNL A   1      -7.591  -2.411  12.575  1.00  0.00     0.094 C 
ATOM     45  C9  UNL A   1      -6.285  -1.786  12.071  1.00  0.00     0.019 C 
ATOM     46  C10 UNL A   1      -5.533  -2.734  11.143  1.00  0.00     0.003 C 
ATOM     47  C11 UNL A   1      -6.452  -3.208  10.023  1.00  0.00     0.019 C 
ATOM     48  C12 UNL A   1      -7.754  -3.805  10.577  1.00  0.00     0.094 C 
ENDBRANCH  41  43
ENDBRANCH   3  39
TORSDOF 16
BEGIN_RES SER A 173
REMARK  2 active torsions:
REMARK  status: ('A' for Active; 'I' for Inactive)
REMARK    1  A    between atoms: CA   and  CB  
REMARK    2  A    between atoms: CB   and  OG  
ROOT
ATOM      1  CA  SER A 173      -4.540 -11.597  11.543  1.00127.03     0.292 C 
ENDROOT
BRANCH   1   2
ATOM      2  CB  SER A 173      -4.003 -10.168  11.569  1.00131.20     0.194 C 
BRANCH   2   3
ATOM      3  OG  SER A 173      -3.925  -9.672  12.894  1.00137.49    -0.550 OA
ATOM      4  HG  SER A 173      -4.784  -9.627  13.297  1.00  0.00     0.310 HD
ENDBRANCH   2   3
ENDBRANCH   1   2
END_RES SER A 173
BEGIN_RES SER A 383
REMARK  2 active torsions:
REMARK  status: ('A' for Active; 'I' for Inactive)
REMARK    3  A    between atoms: CA   and  CB  
REMARK    4  A    between atoms: CB   and  OG  
ROOT
ATOM      5  CA  SER A 383      -8.934   0.934   8.031  1.00 88.23     0.292 C 
ENDROOT
BRANCH   5   6
ATOM      6  CB  SER A 383      -8.589   0.249   9.352  1.00 82.13     0.194 C 
BRANCH   6   7
ATOM      7  OG  SER A 383      -7.237   0.477   9.707  1.00 85.59    -0.550 OA
ATOM      8  HG  SER A 383      -7.012   0.018  10.507  1.00  0.00     0.310 HD
ENDBRANCH   6   7
ENDBRANCH   5   6
END_RES SER A 383
ENDMDL
MODEL 9
REMARK VINA RESULT:    -7.535      4.202      8.128
REMARK INTER + INTRA:          -8.471
REMARK INTER:                 -16.009
REMARK INTRA:                   7.538
REMARK UNBOUND:                 6.112
REMARK  16 active torsions:
REMARK  status: ('A' for Active; 'I' for Inactive)
REMARK    1  A    between atoms: C3_3  and  C4_4 
REMARK       I    between atoms: C4_4  and  N6_6 
REMARK    2  A    between atoms: N6_6  and  N7_7 
REMARK    3  A    between atoms: N14_14  and  C15_15 
REMARK    4  A    between atoms: C23_23  and  C24_24 
REMARK    5  A    between atoms: C27_27  and  C28_28 
REMARK    6  A    between atoms: C29_29  and  C30_30 
REMARK    7  A    between atoms: C30_30  and  C31_31 
REMARK    8  A    between atoms: C31_31  and  O32_32 
REMARK    9  A    between atoms: O32_32  and  C33_33 
REMARK   10  A    between atoms: C33_33  and  C35_35 
REMARK   11  A    between atoms: C35_35  and  C36_36 
REMARK   12  A    between atoms: C36_36  and  C37_37 
REMARK   13  A    between atoms: C37_37  and  C38_38 
REMARK   14  A    between atoms: C38_38  and  C39_39 
REMARK   15  A    between atoms: C39_39  and  O41_41 
REMARK   16  A    between atoms: O41_41  and  C42_42 
ROOT
ATOM      1  C1  UNL A   1     -11.278  -6.275  12.575  1.00  0.00     0.034 C 
ATOM      2  C2  UNL A   1     -12.269  -5.165  12.445  1.00  0.00     0.020 C 
ATOM      3  C3  UNL A   1     -11.988  -3.886  11.836  1.00  0.00     0.155 C 
ATOM      4  N13 UNL A   1     -13.036  -3.069  11.990  1.00  0.00    -0.161 NA
ATOM      5  N14 UNL A   1     -13.973  -3.783  12.650  1.00  0.00    -0.229 N 
ATOM      6  C23 UNL A   1     -13.644  -5.141  12.788  1.00  0.00     0.081 C 
ENDROOT
BRANCH   6   7
ATOM      7  C24 UNL A   1     -14.622  -6.221  13.220  1.00  0.00     0.018 C 
ATOM      8  C25 UNL A   1     -15.303  -6.244  14.455  1.00  0.00     0.002 C 
ATOM      9  C26 UNL A   1     -15.941  -7.413  14.982  1.00  0.00     0.008 C 
ATOM     10  C27 UNL A   1     -16.012  -8.584  14.236  1.00  0.00     0.042 C 
ATOM     11  C46 UNL A   1     -15.580  -8.475  12.920  1.00  0.00     0.008 C 
ATOM     12  C47 UNL A   1     -14.866  -7.342  12.432  1.00  0.00     0.002 C 
BRANCH  10  13
ATOM     13  C28 UNL A   1     -16.341  -9.897  14.758  1.00  0.00    -0.064 C 
ATOM     14  C29 UNL A   1     -16.609 -10.906  15.369  1.00  0.00    -0.084 C 
BRANCH  14  15
ATOM     15  C30 UNL A   1     -16.821 -12.112  16.237  1.00  0.00     0.109 C 
BRANCH  15  16
ATOM     16  C31 UNL A   1     -16.019 -12.164  17.543  1.00  0.00     0.166 C 
BRANCH  16  17
ATOM     17  O32 UNL A   1     -15.301 -10.928  17.810  1.00  0.00    -0.301 OA
BRANCH  17  18
ATOM     18  C33 UNL A   1     -13.981 -11.062  18.123  1.00  0.00     0.272 C 
ATOM     19  O34 UNL A   1     -13.416 -12.133  18.324  1.00  0.00    -0.264 OA
BRANCH  18  20
ATOM     20  C35 UNL A   1     -13.274  -9.724  18.119  1.00  0.00     0.096 C 
BRANCH  20  21
ATOM     21  C36 UNL A   1     -14.214  -8.582  18.506  1.00  0.00     0.011 C 
BRANCH  21  22
ATOM     22  C37 UNL A   1     -14.309  -8.370  20.011  1.00  0.00     0.011 C 
BRANCH  22  23
ATOM     23  C38 UNL A   1     -15.754  -8.483  20.462  1.00  0.00     0.096 C 
BRANCH  23  24
ATOM     24  C39 UNL A   1     -15.981  -7.665  21.681  1.00  0.00     0.272 C 
ATOM     25  O40 UNL A   1     -15.117  -7.182  22.392  1.00  0.00    -0.264 OA
BRANCH  24  26
ATOM     26  O41 UNL A   1     -17.312  -7.538  21.820  1.00  0.00    -0.307 OA
BRANCH  26  27
ATOM     27  C42 UNL A   1     -17.945  -6.319  22.179  1.00  0.00     0.101 C 
ATOM     28  C43 UNL A   1     -17.952  -5.382  20.941  1.00  0.00     0.030 C 
ATOM     29  C44 UNL A   1     -19.187  -6.967  22.822  1.00  0.00     0.030 C 
ATOM     30  C45 UNL A   1     -17.243  -5.567  23.298  1.00  0.00     0.030 C 
ENDBRANCH  26  27
ENDBRANCH  24  26
ENDBRANCH  23  24
ENDBRANCH  22  23
ENDBRANCH  21  22
ENDBRANCH  20  21
ENDBRANCH  18  20
ENDBRANCH  17  18
ENDBRANCH  16  17
ENDBRANCH  15  16
ENDBRANCH  14  15
ENDBRANCH  10  13
ENDBRANCH   6   7
BRANCH   5  31
ATOM     31  C15 UNL A   1     -15.117  -3.087  13.117  1.00  0.00     0.093 A 
ATOM     32  C16 UNL A   1     -16.215  -2.895  12.260  1.00  0.00     0.021 A 
ATOM     33  C17 UNL A   1     -17.301  -2.122  12.685  1.00  0.00     0.013 A 
ATOM     34  C18 UNL A   1     -17.294  -1.564  13.962  1.00  0.00     0.059 A 
ATOM     35 CL19 UNL A   1     -18.602  -0.571  14.470  1.00  0.00    -0.082 Cl
ATOM     36  C20 UNL A   1     -16.224  -1.782  14.827  1.00  0.00     0.024 A 
ATOM     37  C21 UNL A   1     -15.132  -2.548  14.413  1.00  0.00     0.076 A 
ATOM     38 CL22 UNL A   1     -13.790  -2.624  15.505  1.00  0.00    -0.081 Cl
ENDBRANCH   5  31
BRANCH   3  39
ATOM     39  C4  UNL A   1     -10.784  -3.400  11.087  1.00  0.00     0.287 C 
ATOM     40  O5  UNL A   1     -10.798  -3.152   9.884  1.00  0.00    -0.265 OA
ATOM     41  N6  UNL A   1      -9.667  -3.236  11.916  1.00  0.00    -0.282 N 
ATOM     42  H48 UNL A   1      -9.783  -3.464  12.868  1.00  0.00     0.184 HD
BRANCH  41  43
ATOM     43  N7  UNL A   1      -8.378  -2.770  11.521  1.00  0.00    -0.199 NA
ATOM     44  C8  UNL A   1      -7.545  -2.322  12.645  1.00  0.00     0.094 C 
ATOM     45  C9  UNL A   1      -6.241  -1.675  12.162  1.00  0.00     0.019 C 
ATOM     46  C10 UNL A   1      -5.466  -2.606  11.236  1.00  0.00     0.003 C 
ATOM     47  C11 UNL A   1      -6.365  -3.085  10.101  1.00  0.00     0.019 C 
ATOM     48  C12 UNL A   1      -7.664  -3.703  10.635  1.00  0.00     0.094 C 
ENDBRANCH  41  43
ENDBRANCH   3  39
TORSDOF 16
BEGIN_RES SER A 173
REMARK  2 active torsions:
REMARK  status: ('A' for Active; 'I' for Inactive)
REMARK    1  A    between atoms: CA   and  CB  
REMARK    2  A    between atoms: CB   and  OG  
ROOT
ATOM      1  CA  SER A 173      -4.540 -11.597  11.543  1.00127.03     0.292 C 
ENDROOT
BRANCH   1   2
ATOM      2  CB  SER A 173      -4.003 -10.168  11.569  1.00131.20     0.194 C 
BRANCH   2   3
ATOM      3  OG  SER A 173      -3.919  -9.674  12.895  1.00137.49    -0.550 OA
ATOM      4  HG  SER A 173      -3.279  -8.976  12.963  1.00  0.00     0.310 HD
ENDBRANCH   2   3
ENDBRANCH   1   2
END_RES SER A 173
BEGIN_RES SER A 383
REMARK  2 active torsions:
REMARK  status: ('A' for Active; 'I' for Inactive)
REMARK    3  A    between atoms: CA   and  CB  
REMARK    4  A    between atoms: CB   and  OG  
ROOT
ATOM      5  CA  SER A 383      -8.934   0.934   8.031  1.00 88.23     0.292 C 
ENDROOT
BRANCH   5   6
ATOM      6  CB  SER A 383      -8.589   0.249   9.352  1.00 82.13     0.194 C 
BRANCH   6   7
ATOM      7  OG  SER A 383      -7.315   0.654   9.819  1.00 85.59    -0.550 OA
ATOM      8  HG  SER A 383      -6.917  -0.022  10.355  1.00  0.00     0.310 HD
ENDBRANCH   6   7
ENDBRANCH   5   6
END_RES SER A 383
ENDMDL
