REMARK  6 active torsions:
REMARK  status: ('A' for Active; 'I' for Inactive)
REMARK    1  A    between atoms: C2_2  and  C3_3 
REMARK    2  A    between atoms: C4_4  and  C5_5 
REMARK    3  A    between atoms: C8_8  and  C9_9 
REMARK    4  A    between atoms: C12_12  and  C13_13 
REMARK       I    between atoms: C13_13  and  N15_15 
REMARK    5  A    between atoms: N15_15  and  N16_16 
REMARK    6  A    between atoms: N24_24  and  C25_25 
ROOT
ATOM      1  C9  UNL A   1       4.393  -4.517  -6.035  1.00  0.00     0.086 A 
ATOM      2  C10 UNL A   1       3.186  -5.175  -6.297  1.00  0.00     0.020 A 
ATOM      3  C11 UNL A   1       1.789  -4.795  -5.929  1.00  0.00     0.034 C 
ATOM      4  C12 UNL A   1       3.525  -6.331  -7.061  1.00  0.00     0.155 A 
ATOM      5  N23 UNL A   1       4.837  -6.358  -7.326  1.00  0.00    -0.161 NA
ATOM      6  N24 UNL A   1       5.374  -5.262  -6.716  1.00  0.00    -0.229 N 
ENDROOT
BRANCH   4   7
ATOM      7  C13 UNL A   1       2.584  -7.380  -7.538  1.00  0.00     0.287 C 
ATOM      8  O14 UNL A   1       1.399  -7.390  -7.209  1.00  0.00    -0.265 OA
ATOM      9  N15 UNL A   1       3.160  -8.333  -8.379  1.00  0.00    -0.282 N 
ATOM     10  H34 UNL A   1       4.118  -8.251  -8.589  1.00  0.00     0.184 HD
BRANCH   9  11
ATOM     11  N16 UNL A   1       2.430  -9.425  -8.954  1.00  0.00    -0.199 NA
ATOM     12  C17 UNL A   1       1.859 -10.322  -7.941  1.00  0.00     0.094 C 
ATOM     13  C18 UNL A   1       1.861 -11.783  -8.411  1.00  0.00     0.019 C 
ATOM     14  C19 UNL A   1       0.763 -12.167  -9.398  1.00  0.00     0.002 C 
ATOM     15  C20 UNL A   1       0.715 -11.325 -10.667  1.00  0.00     0.002 C 
ATOM     16  C21 UNL A   1       0.330  -9.878 -10.388  1.00  0.00     0.019 C 
ATOM     17  C22 UNL A   1       1.497  -8.963  -9.992  1.00  0.00     0.094 C 
ENDBRANCH   9  11
ENDBRANCH   4   7
BRANCH   1  18
ATOM     18  C8  UNL A   1       4.556  -3.245  -5.339  1.00  0.00     0.048 C 
ATOM     19  C7  UNL A   1       5.409  -2.184  -5.601  1.00  0.00     0.009 C 
ATOM     20  C6  UNL A   1       5.091  -1.008  -4.844  1.00  0.00     0.015 C 
ATOM     21  C5  UNL A   1       3.968  -1.192  -4.072  1.00  0.00     0.071 C 
ATOM     22  S33 UNL A   1       3.584  -2.850  -3.964  1.00  0.00    -0.077 SA
BRANCH  21  23
ATOM     23  C4  UNL A   1       3.196  -0.171  -3.444  1.00  0.00    -0.058 C 
ATOM     24  C3  UNL A   1       2.467   0.662  -2.960  1.00  0.00    -0.086 C 
BRANCH  24  25
ATOM     25  C2  UNL A   1       1.569   1.637  -2.328  1.00  0.00     0.076 C 
ATOM     26  C1  UNL A   1       0.499   2.163  -3.271  1.00  0.00     0.015 C 
ENDBRANCH  24  25
ENDBRANCH  21  23
ENDBRANCH   1  18
BRANCH   6  27
ATOM     27  C25 UNL A   1       6.791  -5.049  -6.791  1.00  0.00     0.093 A 
ATOM     28  C26 UNL A   1       7.462  -4.490  -5.687  1.00  0.00     0.021 A 
ATOM     29  C27 UNL A   1       8.817  -4.154  -5.760  1.00  0.00     0.013 A 
ATOM     30  C28 UNL A   1       9.537  -4.434  -6.913  1.00  0.00     0.059 A 
ATOM     31 CL29 UNL A   1      11.198  -3.998  -7.012  1.00  0.00    -0.082 Cl
ATOM     32  C30 UNL A   1       8.915  -5.058  -7.990  1.00  0.00     0.024 A 
ATOM     33  C31 UNL A   1       7.545  -5.366  -7.940  1.00  0.00     0.076 A 
ATOM     34 CL32 UNL A   1       6.891  -6.012  -9.409  1.00  0.00    -0.081 Cl
ENDBRANCH   6  27
TORSDOF 6
