REMARK  5 active torsions:
REMARK  status: ('A' for Active; 'I' for Inactive)
REMARK    1  A    between atoms: C3_3  and  C4_4 
REMARK       I    between atoms: C4_4  and  N6_6 
REMARK    2  A    between atoms: N6_6  and  N7_7 
REMARK    3  A    between atoms: N14_14  and  C15_15 
REMARK    4  A    between atoms: C23_23  and  C24_24 
REMARK    5  A    between atoms: C27_27  and  N28_28 
ROOT
ATOM      1  C1  UNL A   1       1.139   0.407  -0.039  1.00  0.00     0.034 C 
ATOM      2  C2  UNL A   1       2.620   0.252  -0.033  1.00  0.00     0.020 A 
ATOM      3  C3  UNL A   1       3.360  -0.968  -0.130  1.00  0.00     0.155 A 
ATOM      4  N13 UNL A   1       4.678  -0.718  -0.145  1.00  0.00    -0.161 NA
ATOM      5  N14 UNL A   1       4.813   0.625  -0.058  1.00  0.00    -0.229 N 
ATOM      6  C23 UNL A   1       3.574   1.277   0.016  1.00  0.00     0.081 A 
ENDROOT
BRANCH   3   7
ATOM      7  C4  UNL A   1       2.874  -2.373  -0.220  1.00  0.00     0.287 C 
ATOM      8  O5  UNL A   1       1.683  -2.671  -0.177  1.00  0.00    -0.265 OA
ATOM      9  N6  UNL A   1       3.917  -3.291  -0.350  1.00  0.00    -0.282 N 
ATOM     10  H31 UNL A   1       4.829  -2.925  -0.405  1.00  0.00     0.184 HD
BRANCH   9  11
ATOM     11  N7  UNL A   1       3.784  -4.704  -0.412  1.00  0.00    -0.199 NA
ATOM     12  C8  UNL A   1       3.132  -5.277   0.773  1.00  0.00     0.094 C 
ATOM     13  C9  UNL A   1       3.159  -6.811   0.737  1.00  0.00     0.019 C 
ATOM     14  C10 UNL A   1       2.551  -7.350  -0.553  1.00  0.00     0.003 C 
ATOM     15  C11 UNL A   1       3.212  -6.698  -1.762  1.00  0.00     0.019 C 
ATOM     16  C12 UNL A   1       3.175  -5.167  -1.665  1.00  0.00     0.094 C 
ENDBRANCH   9  11
ENDBRANCH   3   7
BRANCH   6  17
ATOM     17  C24 UNL A   1       3.371   2.747   0.034  1.00  0.00     0.018 A 
ATOM     18  C25 UNL A   1       4.159   3.610  -0.743  1.00  0.00     0.003 A 
ATOM     19  C26 UNL A   1       4.041   5.002  -0.631  1.00  0.00     0.017 A 
ATOM     20  C27 UNL A   1       3.050   5.575   0.162  1.00  0.00     0.050 A 
ATOM     21  C29 UNL A   1       2.248   4.727   0.926  1.00  0.00     0.017 A 
ATOM     22  C30 UNL A   1       2.404   3.333   0.862  1.00  0.00     0.003 A 
BRANCH  20  23
ATOM     23  N28 UNL A   1       3.021   6.957   0.370  1.00  0.00    -0.398 N 
ATOM     24  H32 UNL A   1       3.590   7.549  -0.173  1.00  0.00     0.156 HD
ATOM     25  H33 UNL A   1       2.432   7.339   1.061  1.00  0.00     0.156 HD
ENDBRANCH  20  23
ENDBRANCH   6  17
BRANCH   5  26
ATOM     26  C15 UNL A   1       6.130   1.171   0.025  1.00  0.00     0.093 A 
ATOM     27  C16 UNL A   1       6.385   2.228   0.920  1.00  0.00     0.021 A 
ATOM     28  C17 UNL A   1       7.648   2.825   0.972  1.00  0.00     0.013 A 
ATOM     29  C18 UNL A   1       8.672   2.350   0.159  1.00  0.00     0.059 A 
ATOM     30 CL19 UNL A   1      10.219   3.100   0.205  1.00  0.00    -0.082 Cl
ATOM     31  C20 UNL A   1       8.447   1.283  -0.706  1.00  0.00     0.024 A 
ATOM     32  C21 UNL A   1       7.180   0.690  -0.781  1.00  0.00     0.076 A 
ATOM     33 CL22 UNL A   1       6.993  -0.517  -2.010  1.00  0.00    -0.081 Cl
ENDBRANCH   5  26
TORSDOF 5
