REMARK  4 active torsions:
REMARK  status: ('A' for Active; 'I' for Inactive)
REMARK    1  A    between atoms: C3_3  and  C4_4 
REMARK       I    between atoms: C4_4  and  N6_6 
REMARK    2  A    between atoms: N6_6  and  N7_7 
REMARK    3  A    between atoms: N15_15  and  C16_16 
REMARK    4  A    between atoms: C24_24  and  C25_25 
ROOT
ATOM      1  C1  UNL A   1       1.337   0.248   0.086  1.00  0.00     0.034 C 
ATOM      2  C2  UNL A   1       2.821   0.120   0.061  1.00  0.00     0.020 A 
ATOM      3  C3  UNL A   1       3.586  -1.091  -0.002  1.00  0.00     0.155 A 
ATOM      4  N14 UNL A   1       4.897  -0.817  -0.093  1.00  0.00    -0.161 NA
ATOM      5  N15 UNL A   1       5.006   0.530  -0.054  1.00  0.00    -0.229 N 
ATOM      6  C24 UNL A   1       3.761   1.154   0.037  1.00  0.00     0.086 A 
ENDROOT
BRANCH   3   7
ATOM      7  C4  UNL A   1       3.130  -2.508   0.003  1.00  0.00     0.287 C 
ATOM      8  O5  UNL A   1       1.949  -2.828   0.121  1.00  0.00    -0.265 OA
ATOM      9  N6  UNL A   1       4.186  -3.406  -0.141  1.00  0.00    -0.282 N 
ATOM     10  H31 UNL A   1       5.097  -3.035  -0.193  1.00  0.00     0.184 HD
BRANCH   9  11
ATOM     11  N7  UNL A   1       4.045  -4.822  -0.217  1.00  0.00    -0.199 NA
ATOM     12  C8  UNL A   1       3.579  -5.420   1.033  1.00  0.00     0.094 C 
ATOM     13  C9  UNL A   1       4.153  -6.827   1.251  1.00  0.00     0.019 C 
ATOM     14  C10 UNL A   1       3.451  -7.944   0.489  1.00  0.00     0.002 C 
ATOM     15  C11 UNL A   1       3.469  -7.784  -1.026  1.00  0.00     0.002 C 
ATOM     16  C12 UNL A   1       2.653  -6.585  -1.492  1.00  0.00     0.019 C 
ATOM     17  C13 UNL A   1       3.394  -5.246  -1.460  1.00  0.00     0.094 C 
ENDBRANCH   9  11
ENDBRANCH   3   7
BRANCH   6  18
ATOM     18  C25 UNL A   1       3.543   2.590   0.014  1.00  0.00     0.047 A 
ATOM     19  C26 UNL A   1       4.215   3.547  -0.735  1.00  0.00     0.009 A 
ATOM     20  C27 UNL A   1       3.783   4.882  -0.459  1.00  0.00     0.014 A 
ATOM     21  C28 UNL A   1       2.754   4.888   0.444  1.00  0.00     0.064 A 
ATOM     22 BR29 UNL A   1       1.878   6.445   1.006  1.00  0.00    -0.042 Br
ATOM     23  S30 UNL A   1       2.358   3.345   1.011  1.00  0.00    -0.079 SA
ENDBRANCH   6  18
BRANCH   5  24
ATOM     24  C16 UNL A   1       6.309   1.103   0.004  1.00  0.00     0.093 A 
ATOM     25  C17 UNL A   1       6.557   2.154   0.905  1.00  0.00     0.021 A 
ATOM     26  C18 UNL A   1       7.826   2.735   0.981  1.00  0.00     0.013 A 
ATOM     27  C19 UNL A   1       8.854   2.256   0.175  1.00  0.00     0.059 A 
ATOM     28 CL20 UNL A   1      10.412   2.980   0.263  1.00  0.00    -0.082 Cl
ATOM     29  C21 UNL A   1       8.629   1.204  -0.708  1.00  0.00     0.024 A 
ATOM     30  C22 UNL A   1       7.358   0.622  -0.799  1.00  0.00     0.076 A 
ATOM     31 CL23 UNL A   1       7.169  -0.580  -2.033  1.00  0.00    -0.081 Cl
ENDBRANCH   5  24
TORSDOF 4
