REMARK  9 active torsions:
REMARK  status: ('A' for Active; 'I' for Inactive)
REMARK    1  A    between atoms: C2_2  and  C3_3 
REMARK    2  A    between atoms: C3_3  and  C4_4 
REMARK    3  A    between atoms: C4_4  and  C5_5 
REMARK    4  A    between atoms: C5_5  and  C6_6 
REMARK    5  A    between atoms: C6_6  and  C7_7 
REMARK    6  A    between atoms: C10_10  and  C11_11 
REMARK    7  A    between atoms: C14_14  and  C15_15 
REMARK       I    between atoms: C15_15  and  N17_17 
REMARK    8  A    between atoms: N17_17  and  N18_18 
REMARK    9  A    between atoms: N26_26  and  C27_27 
ROOT
ATOM      1  C11 UNL A   1       7.056  -2.643  -8.514  1.00  0.00     0.086 A 
ATOM      2  C12 UNL A   1       5.988  -3.440  -8.912  1.00  0.00     0.020 A 
ATOM      3  C13 UNL A   1       4.638  -3.495  -8.298  1.00  0.00     0.034 C 
ATOM      4  C14 UNL A   1       6.436  -4.180 -10.053  1.00  0.00     0.155 A 
ATOM      5  N25 UNL A   1       7.701  -3.805 -10.367  1.00  0.00    -0.161 NA
ATOM      6  N26 UNL A   1       8.083  -2.872  -9.434  1.00  0.00    -0.229 N 
ENDROOT
BRANCH   1   7
ATOM      7  C10 UNL A   1       7.005  -1.646  -7.469  1.00  0.00     0.048 C 
ATOM      8  C9  UNL A   1       7.700  -0.466  -7.334  1.00  0.00     0.009 C 
ATOM      9  C8  UNL A   1       7.099   0.403  -6.371  1.00  0.00     0.015 C 
ATOM     10  C7  UNL A   1       5.964  -0.140  -5.830  1.00  0.00     0.071 C 
ATOM     11  S35 UNL A   1       5.898  -1.784  -6.170  1.00  0.00    -0.077 SA
BRANCH  10  12
ATOM     12  C6  UNL A   1       5.021   0.457  -4.978  1.00  0.00    -0.058 C 
BRANCH  12  13
ATOM     13  C5  UNL A   1       4.214   0.936  -4.074  1.00  0.00    -0.086 C 
BRANCH  13  14
ATOM     14  C4  UNL A   1       3.272   1.494  -3.019  1.00  0.00     0.076 C 
BRANCH  14  15
ATOM     15  C3  UNL A   1       2.147   2.272  -3.687  1.00  0.00     0.014 C 
BRANCH  15  16
ATOM     16  C2  UNL A   1       1.187   2.846  -2.650  1.00  0.00     0.001 C 
ATOM     17  C1  UNL A   1       0.065   3.622  -3.317  1.00  0.00     0.000 C 
ENDBRANCH  15  16
ENDBRANCH  14  15
ENDBRANCH  13  14
ENDBRANCH  12  13
ENDBRANCH  10  12
ENDBRANCH   1   7
BRANCH   6  18
ATOM     18  C27 UNL A   1       9.413  -2.309  -9.448  1.00  0.00     0.093 A 
ATOM     19  C28 UNL A   1      10.032  -1.918  -8.239  1.00  0.00     0.021 A 
ATOM     20  C29 UNL A   1      11.299  -1.314  -8.222  1.00  0.00     0.013 A 
ATOM     21  C30 UNL A   1      11.984  -1.125  -9.412  1.00  0.00     0.059 A 
ATOM     22 CL31 UNL A   1      13.536  -0.386  -9.398  1.00  0.00    -0.082 Cl
ATOM     23  C32 UNL A   1      11.412  -1.526 -10.616  1.00  0.00     0.024 A 
ATOM     24  C33 UNL A   1      10.136  -2.124 -10.641  1.00  0.00     0.076 A 
ATOM     25 CL34 UNL A   1       9.502  -2.470 -12.210  1.00  0.00    -0.081 Cl
ENDBRANCH   6  18
BRANCH   4  26
ATOM     26  C15 UNL A   1       5.687  -5.210 -10.838  1.00  0.00     0.287 C 
ATOM     27  O16 UNL A   1       4.508  -5.547 -10.519  1.00  0.00    -0.265 OA
ATOM     28  N17 UNL A   1       6.349  -5.762 -11.935  1.00  0.00    -0.282 N 
ATOM     29  H36 UNL A   1       7.268  -5.456 -12.115  1.00  0.00     0.184 HD
BRANCH  28  30
ATOM     30  N18 UNL A   1       5.789  -6.742 -12.822  1.00  0.00    -0.199 NA
ATOM     31  C19 UNL A   1       5.464  -7.982 -12.108  1.00  0.00     0.094 C 
ATOM     32  C20 UNL A   1       5.696  -9.205 -12.996  1.00  0.00     0.019 C 
ATOM     33  C21 UNL A   1       4.614  -9.477 -14.038  1.00  0.00     0.002 C 
ATOM     34  C22 UNL A   1       4.293  -8.304 -14.959  1.00  0.00     0.002 C 
ATOM     35  C23 UNL A   1       3.655  -7.140 -14.210  1.00  0.00     0.019 C 
ATOM     36  C24 UNL A   1       4.665  -6.173 -13.583  1.00  0.00     0.094 C 
ENDBRANCH  28  30
ENDBRANCH   4  26
TORSDOF 9
