MODEL 1
REMARK VINA RESULT:   -11.005      0.000      0.000
REMARK INTER + INTRA:          -7.409
REMARK INTER:                 -16.152
REMARK INTRA:                   8.743
REMARK UNBOUND:                 8.743
REMARK  8 active torsions:
REMARK  status: ('A' for Active; 'I' for Inactive)
REMARK    1  A    between atoms: C2_2  and  C3_3 
REMARK    2  A    between atoms: C3_3  and  C4_4 
REMARK    3  A    between atoms: C4_4  and  C5_5 
REMARK    4  A    between atoms: C5_5  and  C6_6 
REMARK    5  A    between atoms: C9_9  and  C10_10 
REMARK    6  A    between atoms: C13_13  and  C14_14 
REMARK       I    between atoms: C14_14  and  N16_16 
REMARK    7  A    between atoms: N16_16  and  N17_17 
REMARK    8  A    between atoms: N24_24  and  C25_25 
ROOT
ATOM      1  C10 UNL A   1      -5.066  -2.001   9.358  1.00  0.00     0.086 A 
ATOM      2  C11 UNL A   1      -5.766  -1.957  10.563  1.00  0.00     0.020 A 
ATOM      3  C12 UNL A   1      -5.490  -1.036  11.696  1.00  0.00     0.034 C 
ATOM      4  C13 UNL A   1      -6.773  -2.960  10.484  1.00  0.00     0.155 A 
ATOM      5  N23 UNL A   1      -6.769  -3.518   9.246  1.00  0.00    -0.161 NA
ATOM      6  N24 UNL A   1      -5.739  -2.936   8.563  1.00  0.00    -0.229 N 
ENDROOT
BRANCH   1   7
ATOM      7  C9  UNL A   1      -3.978  -1.140   8.982  1.00  0.00     0.048 C 
ATOM      8  C8  UNL A   1      -3.898  -0.149   8.033  1.00  0.00     0.009 C 
ATOM      9  C7  UNL A   1      -2.773   0.683   8.169  1.00  0.00     0.015 C 
ATOM     10  C6  UNL A   1      -2.022   0.294   9.284  1.00  0.00     0.071 C 
ATOM     11  S33 UNL A   1      -2.459  -1.229   9.788  1.00  0.00    -0.077 SA
BRANCH  10  12
ATOM     12  C5  UNL A   1      -0.933   0.966   9.848  1.00  0.00    -0.058 C 
BRANCH  12  13
ATOM     13  C4  UNL A   1       0.112   1.657  10.211  1.00  0.00    -0.086 C 
BRANCH  13  14
ATOM     14  C3  UNL A   1       1.329   2.463  10.633  1.00  0.00     0.076 C 
BRANCH  14  15
ATOM     15  C2  UNL A   1       1.726   2.120  12.066  1.00  0.00     0.014 C 
ATOM     16  C1  UNL A   1       3.210   1.810  12.170  1.00  0.00     0.001 C 
ENDBRANCH  14  15
ENDBRANCH  13  14
ENDBRANCH  12  13
ENDBRANCH  10  12
ENDBRANCH   1   7
BRANCH   6  17
ATOM     17  C25 UNL A   1      -5.407  -3.380   7.239  1.00  0.00     0.093 A 
ATOM     18  C26 UNL A   1      -5.741  -2.591   6.120  1.00  0.00     0.021 A 
ATOM     19  C27 UNL A   1      -5.494  -2.991   4.823  1.00  0.00     0.013 A 
ATOM     20  C28 UNL A   1      -4.825  -4.189   4.595  1.00  0.00     0.059 A 
ATOM     21 CL29 UNL A   1      -4.459  -4.684   3.000  1.00  0.00    -0.082 Cl
ATOM     22  C30 UNL A   1      -4.447  -4.981   5.685  1.00  0.00     0.024 A 
ATOM     23  C31 UNL A   1      -4.738  -4.602   7.002  1.00  0.00     0.076 A 
ATOM     24 CL32 UNL A   1      -4.344  -5.747   8.228  1.00  0.00    -0.081 Cl
ENDBRANCH   6  17
BRANCH   4  25
ATOM     25  C14 UNL A   1      -7.741  -3.410  11.539  1.00  0.00     0.287 C 
ATOM     26  O15 UNL A   1      -7.397  -3.522  12.723  1.00  0.00    -0.265 OA
ATOM     27  N16 UNL A   1      -9.011  -3.713  11.057  1.00  0.00    -0.282 N 
ATOM     28  H34 UNL A   1      -9.159  -3.622  10.088  1.00  0.00     0.184 HD
BRANCH  27  29
ATOM     29  N17 UNL A   1     -10.118  -4.142  11.850  1.00  0.00    -0.199 NA
ATOM     30  C18 UNL A   1     -11.370  -3.566  11.325  1.00  0.00     0.094 C 
ATOM     31  C19 UNL A   1     -12.589  -4.029  12.126  1.00  0.00     0.019 C 
ATOM     32  C20 UNL A   1     -12.704  -5.549  12.140  1.00  0.00     0.003 C 
ATOM     33  C21 UNL A   1     -11.392  -6.176  12.599  1.00  0.00     0.019 C 
ATOM     34  C22 UNL A   1     -10.205  -5.624  11.809  1.00  0.00     0.094 C 
ENDBRANCH  27  29
ENDBRANCH   4  25
TORSDOF 8
BEGIN_RES SER A 173
REMARK  2 active torsions:
REMARK  status: ('A' for Active; 'I' for Inactive)
REMARK    1  A    between atoms: CA   and  CB  
REMARK    2  A    between atoms: CB   and  OG  
ROOT
ATOM      1  CA  SER A 173      -4.540 -11.597  11.543  1.00127.03     0.292 C 
ENDROOT
BRANCH   1   2
ATOM      2  CB  SER A 173      -4.003 -10.168  11.569  1.00131.20     0.194 C 
BRANCH   2   3
ATOM      3  OG  SER A 173      -3.922  -9.673  12.894  1.00137.49    -0.550 OA
ATOM      4  HG  SER A 173      -3.248  -9.009  12.974  1.00  0.00     0.310 HD
ENDBRANCH   2   3
ENDBRANCH   1   2
END_RES SER A 173
BEGIN_RES SER A 383
REMARK  2 active torsions:
REMARK  status: ('A' for Active; 'I' for Inactive)
REMARK    3  A    between atoms: CA   and  CB  
REMARK    4  A    between atoms: CB   and  OG  
ROOT
ATOM      5  CA  SER A 383      -8.934   0.934   8.031  1.00 88.23     0.292 C 
ENDROOT
BRANCH   5   6
ATOM      6  CB  SER A 383      -8.589   0.249   9.352  1.00 82.13     0.194 C 
BRANCH   6   7
ATOM      7  OG  SER A 383      -7.726   1.055  10.134  1.00 85.59    -0.550 OA
ATOM      8  HG  SER A 383      -6.817   0.808  10.003  1.00  0.00     0.310 HD
ENDBRANCH   6   7
ENDBRANCH   5   6
END_RES SER A 383
ENDMDL
MODEL 2
REMARK VINA RESULT:   -10.498      1.287      1.761
REMARK INTER + INTRA:          -6.665
REMARK INTER:                 -15.480
REMARK INTRA:                   8.815
REMARK UNBOUND:                 8.743
REMARK  8 active torsions:
REMARK  status: ('A' for Active; 'I' for Inactive)
REMARK    1  A    between atoms: C2_2  and  C3_3 
REMARK    2  A    between atoms: C3_3  and  C4_4 
REMARK    3  A    between atoms: C4_4  and  C5_5 
REMARK    4  A    between atoms: C5_5  and  C6_6 
REMARK    5  A    between atoms: C9_9  and  C10_10 
REMARK    6  A    between atoms: C13_13  and  C14_14 
REMARK       I    between atoms: C14_14  and  N16_16 
REMARK    7  A    between atoms: N16_16  and  N17_17 
REMARK    8  A    between atoms: N24_24  and  C25_25 
ROOT
ATOM      1  C10 UNL A   1      -5.569  -2.547   9.761  1.00  0.00     0.086 A 
ATOM      2  C11 UNL A   1      -6.575  -2.603  10.723  1.00  0.00     0.020 A 
ATOM      3  C12 UNL A   1      -6.503  -2.026  12.091  1.00  0.00     0.034 C 
ATOM      4  C13 UNL A   1      -7.658  -3.317  10.138  1.00  0.00     0.155 A 
ATOM      5  N23 UNL A   1      -7.379  -3.589   8.836  1.00  0.00    -0.161 NA
ATOM      6  N24 UNL A   1      -6.116  -3.120   8.606  1.00  0.00    -0.229 N 
ENDROOT
BRANCH   1   7
ATOM      7  C9  UNL A   1      -4.298  -1.891   9.904  1.00  0.00     0.048 C 
ATOM      8  C8  UNL A   1      -3.054  -2.389  10.208  1.00  0.00     0.009 C 
ATOM      9  C7  UNL A   1      -2.001  -1.493   9.952  1.00  0.00     0.015 C 
ATOM     10  C6  UNL A   1      -2.505  -0.305   9.410  1.00  0.00     0.071 C 
ATOM     11  S33 UNL A   1      -4.145  -0.193   9.655  1.00  0.00    -0.077 SA
BRANCH  10  12
ATOM     12  C5  UNL A   1      -1.772   0.757   8.870  1.00  0.00    -0.058 C 
BRANCH  12  13
ATOM     13  C4  UNL A   1      -0.958   1.697   8.477  1.00  0.00    -0.086 C 
BRANCH  13  14
ATOM     14  C3  UNL A   1      -0.010   2.793   8.020  1.00  0.00     0.076 C 
BRANCH  14  15
ATOM     15  C2  UNL A   1       1.293   2.737   8.813  1.00  0.00     0.014 C 
ATOM     16  C1  UNL A   1       1.039   2.381  10.269  1.00  0.00     0.001 C 
ENDBRANCH  14  15
ENDBRANCH  13  14
ENDBRANCH  12  13
ENDBRANCH  10  12
ENDBRANCH   1   7
BRANCH   6  17
ATOM     17  C25 UNL A   1      -5.484  -3.339   7.337  1.00  0.00     0.093 A 
ATOM     18  C26 UNL A   1      -5.611  -2.386   6.306  1.00  0.00     0.021 A 
ATOM     19  C27 UNL A   1      -5.070  -2.566   5.050  1.00  0.00     0.013 A 
ATOM     20  C28 UNL A   1      -4.305  -3.700   4.794  1.00  0.00     0.059 A 
ATOM     21 CL29 UNL A   1      -3.580  -3.924   3.262  1.00  0.00    -0.082 Cl
ATOM     22  C30 UNL A   1      -4.130  -4.650   5.806  1.00  0.00     0.024 A 
ATOM     23  C31 UNL A   1      -4.717  -4.495   7.068  1.00  0.00     0.076 A 
ATOM     24 CL32 UNL A   1      -4.536  -5.815   8.159  1.00  0.00    -0.081 Cl
ENDBRANCH   6  17
BRANCH   4  25
ATOM     25  C14 UNL A   1      -8.951  -3.752  10.765  1.00  0.00     0.287 C 
ATOM     26  O15 UNL A   1      -8.975  -4.300  11.875  1.00  0.00    -0.265 OA
ATOM     27  N16 UNL A   1     -10.075  -3.516   9.979  1.00  0.00    -0.282 N 
ATOM     28  H34 UNL A   1      -9.929  -3.108   9.095  1.00  0.00     0.184 HD
BRANCH  27  29
ATOM     29  N17 UNL A   1     -11.421  -3.815  10.347  1.00  0.00    -0.199 NA
ATOM     30  C18 UNL A   1     -11.597  -5.273  10.485  1.00  0.00     0.094 C 
ATOM     31  C19 UNL A   1     -13.019  -5.637  10.914  1.00  0.00     0.019 C 
ATOM     32  C20 UNL A   1     -13.397  -4.960  12.226  1.00  0.00     0.003 C 
ATOM     33  C21 UNL A   1     -13.146  -3.459  12.141  1.00  0.00     0.019 C 
ATOM     34  C22 UNL A   1     -11.733  -3.158  11.642  1.00  0.00     0.094 C 
ENDBRANCH  27  29
ENDBRANCH   4  25
TORSDOF 8
BEGIN_RES SER A 173
REMARK  2 active torsions:
REMARK  status: ('A' for Active; 'I' for Inactive)
REMARK    1  A    between atoms: CA   and  CB  
REMARK    2  A    between atoms: CB   and  OG  
ROOT
ATOM      1  CA  SER A 173      -4.540 -11.597  11.543  1.00127.03     0.292 C 
ENDROOT
BRANCH   1   2
ATOM      2  CB  SER A 173      -4.003 -10.168  11.569  1.00131.20     0.194 C 
BRANCH   2   3
ATOM      3  OG  SER A 173      -3.968  -9.656  12.890  1.00137.49    -0.550 OA
ATOM      4  HG  SER A 173      -4.698  -9.978  13.404  1.00  0.00     0.310 HD
ENDBRANCH   2   3
ENDBRANCH   1   2
END_RES SER A 173
BEGIN_RES SER A 383
REMARK  2 active torsions:
REMARK  status: ('A' for Active; 'I' for Inactive)
REMARK    3  A    between atoms: CA   and  CB  
REMARK    4  A    between atoms: CB   and  OG  
ROOT
ATOM      5  CA  SER A 383      -8.934   0.934   8.031  1.00 88.23     0.292 C 
ENDROOT
BRANCH   5   6
ATOM      6  CB  SER A 383      -8.589   0.249   9.352  1.00 82.13     0.194 C 
BRANCH   6   7
ATOM      7  OG  SER A 383      -7.347   0.708   9.855  1.00 85.59    -0.550 OA
ATOM      8  HG  SER A 383      -6.916   1.280   9.230  1.00  0.00     0.310 HD
ENDBRANCH   6   7
ENDBRANCH   5   6
END_RES SER A 383
ENDMDL
MODEL 3
REMARK VINA RESULT:    -8.372      5.809     12.302
REMARK INTER + INTRA:          -3.545
REMARK INTER:                 -11.740
REMARK INTRA:                   8.195
REMARK UNBOUND:                 8.743
REMARK  8 active torsions:
REMARK  status: ('A' for Active; 'I' for Inactive)
REMARK    1  A    between atoms: C2_2  and  C3_3 
REMARK    2  A    between atoms: C3_3  and  C4_4 
REMARK    3  A    between atoms: C4_4  and  C5_5 
REMARK    4  A    between atoms: C5_5  and  C6_6 
REMARK    5  A    between atoms: C9_9  and  C10_10 
REMARK    6  A    between atoms: C13_13  and  C14_14 
REMARK       I    between atoms: C14_14  and  N16_16 
REMARK    7  A    between atoms: N16_16  and  N17_17 
REMARK    8  A    between atoms: N24_24  and  C25_25 
ROOT
ATOM      1  C10 UNL A   1     -13.624  -5.022  11.803  1.00  0.00     0.086 A 
ATOM      2  C11 UNL A   1     -12.251  -4.917  12.020  1.00  0.00     0.020 A 
ATOM      3  C12 UNL A   1     -11.417  -5.875  12.791  1.00  0.00     0.034 C 
ATOM      4  C13 UNL A   1     -11.828  -3.725  11.368  1.00  0.00     0.155 A 
ATOM      5  N23 UNL A   1     -12.867  -3.181  10.685  1.00  0.00    -0.161 NA
ATOM      6  N24 UNL A   1     -13.954  -3.967  10.944  1.00  0.00    -0.229 N 
ENDROOT
BRANCH   1   7
ATOM      7  C9  UNL A   1     -14.471  -6.093  12.253  1.00  0.00     0.048 C 
ATOM      8  C8  UNL A   1     -14.786  -7.299  11.675  1.00  0.00     0.009 C 
ATOM      9  C7  UNL A   1     -15.395  -8.213  12.553  1.00  0.00     0.015 C 
ATOM     10  C6  UNL A   1     -15.497  -7.652  13.831  1.00  0.00     0.071 C 
ATOM     11  S33 UNL A   1     -15.276  -6.005  13.774  1.00  0.00    -0.077 SA
BRANCH  10  12
ATOM     12  C5  UNL A   1     -15.887  -8.296  15.010  1.00  0.00    -0.058 C 
BRANCH  12  13
ATOM     13  C4  UNL A   1     -16.169  -9.040  16.044  1.00  0.00    -0.086 C 
BRANCH  13  14
ATOM     14  C3  UNL A   1     -16.496  -9.908  17.248  1.00  0.00     0.076 C 
BRANCH  14  15
ATOM     15  C2  UNL A   1     -15.824 -11.272  17.122  1.00  0.00     0.014 C 
ATOM     16  C1  UNL A   1     -16.144 -11.926  15.788  1.00  0.00     0.001 C 
ENDBRANCH  14  15
ENDBRANCH  13  14
ENDBRANCH  12  13
ENDBRANCH  10  12
ENDBRANCH   1   7
BRANCH   6  17
ATOM     17  C25 UNL A   1     -15.247  -3.603  10.438  1.00  0.00     0.093 A 
ATOM     18  C26 UNL A   1     -15.618  -3.947   9.123  1.00  0.00     0.021 A 
ATOM     19  C27 UNL A   1     -16.825  -3.579   8.566  1.00  0.00     0.013 A 
ATOM     20  C28 UNL A   1     -17.756  -2.898   9.345  1.00  0.00     0.059 A 
ATOM     21 CL29 UNL A   1     -19.280  -2.475   8.696  1.00  0.00    -0.082 Cl
ATOM     22  C30 UNL A   1     -17.433  -2.571  10.666  1.00  0.00     0.024 A 
ATOM     23  C31 UNL A   1     -16.190  -2.900  11.222  1.00  0.00     0.076 A 
ATOM     24 CL32 UNL A   1     -15.883  -2.302  12.807  1.00  0.00    -0.081 Cl
ENDBRANCH   6  17
BRANCH   4  25
ATOM     25  C14 UNL A   1     -10.471  -3.081  11.368  1.00  0.00     0.287 C 
ATOM     26  O15 UNL A   1     -10.188  -2.177  12.164  1.00  0.00    -0.265 OA
ATOM     27  N16 UNL A   1      -9.610  -3.565  10.387  1.00  0.00    -0.282 N 
ATOM     28  H34 UNL A   1      -9.959  -4.261   9.785  1.00  0.00     0.184 HD
BRANCH  27  29
ATOM     29  N17 UNL A   1      -8.263  -3.139  10.184  1.00  0.00    -0.199 NA
ATOM     30  C18 UNL A   1      -7.354  -3.894  11.067  1.00  0.00     0.094 C 
ATOM     31  C19 UNL A   1      -5.893  -3.494  10.857  1.00  0.00     0.019 C 
ATOM     32  C20 UNL A   1      -5.462  -3.690   9.408  1.00  0.00     0.003 C 
ATOM     33  C21 UNL A   1      -6.434  -2.988   8.466  1.00  0.00     0.019 C 
ATOM     34  C22 UNL A   1      -7.882  -3.376   8.769  1.00  0.00     0.094 C 
ENDBRANCH  27  29
ENDBRANCH   4  25
TORSDOF 8
BEGIN_RES SER A 173
REMARK  2 active torsions:
REMARK  status: ('A' for Active; 'I' for Inactive)
REMARK    1  A    between atoms: CA   and  CB  
REMARK    2  A    between atoms: CB   and  OG  
ROOT
ATOM      1  CA  SER A 173      -4.540 -11.597  11.543  1.00127.03     0.292 C 
ENDROOT
BRANCH   1   2
ATOM      2  CB  SER A 173      -4.003 -10.168  11.569  1.00131.20     0.194 C 
BRANCH   2   3
ATOM      3  OG  SER A 173      -3.929  -9.671  12.894  1.00137.49    -0.550 OA
ATOM      4  HG  SER A 173      -3.105  -9.223  13.048  1.00  0.00     0.310 HD
ENDBRANCH   2   3
ENDBRANCH   1   2
END_RES SER A 173
BEGIN_RES SER A 383
REMARK  2 active torsions:
REMARK  status: ('A' for Active; 'I' for Inactive)
REMARK    3  A    between atoms: CA   and  CB  
REMARK    4  A    between atoms: CB   and  OG  
ROOT
ATOM      5  CA  SER A 383      -8.934   0.934   8.031  1.00 88.23     0.292 C 
ENDROOT
BRANCH   5   6
ATOM      6  CB  SER A 383      -8.589   0.249   9.352  1.00 82.13     0.194 C 
BRANCH   6   7
ATOM      7  OG  SER A 383      -7.318   0.660   9.822  1.00 85.59    -0.550 OA
ATOM      8  HG  SER A 383      -6.834  -0.075  10.183  1.00  0.00     0.310 HD
ENDBRANCH   6   7
ENDBRANCH   5   6
END_RES SER A 383
ENDMDL
MODEL 4
REMARK VINA RESULT:    -8.273      6.135     12.531
REMARK INTER + INTRA:          -3.400
REMARK INTER:                 -11.665
REMARK INTRA:                   8.265
REMARK UNBOUND:                 8.743
REMARK  8 active torsions:
REMARK  status: ('A' for Active; 'I' for Inactive)
REMARK    1  A    between atoms: C2_2  and  C3_3 
REMARK    2  A    between atoms: C3_3  and  C4_4 
REMARK    3  A    between atoms: C4_4  and  C5_5 
REMARK    4  A    between atoms: C5_5  and  C6_6 
REMARK    5  A    between atoms: C9_9  and  C10_10 
REMARK    6  A    between atoms: C13_13  and  C14_14 
REMARK       I    between atoms: C14_14  and  N16_16 
REMARK    7  A    between atoms: N16_16  and  N17_17 
REMARK    8  A    between atoms: N24_24  and  C25_25 
ROOT
ATOM      1  C10 UNL A   1     -13.911  -4.688  13.232  1.00  0.00     0.086 A 
ATOM      2  C11 UNL A   1     -12.690  -4.876  12.585  1.00  0.00     0.020 A 
ATOM      3  C12 UNL A   1     -11.878  -6.121  12.605  1.00  0.00     0.034 C 
ATOM      4  C13 UNL A   1     -12.390  -3.654  11.922  1.00  0.00     0.155 A 
ATOM      5  N23 UNL A   1     -13.430  -2.790  12.057  1.00  0.00    -0.161 NA
ATOM      6  N24 UNL A   1     -14.352  -3.417  12.847  1.00  0.00    -0.229 N 
ENDROOT
BRANCH   1   7
ATOM      7  C9  UNL A   1     -14.619  -5.674  14.002  1.00  0.00     0.048 C 
ATOM      8  C8  UNL A   1     -15.412  -6.726  13.611  1.00  0.00     0.009 C 
ATOM      9  C7  UNL A   1     -15.676  -7.654  14.634  1.00  0.00     0.015 C 
ATOM     10  C6  UNL A   1     -15.020  -7.270  15.809  1.00  0.00     0.071 C 
ATOM     11  S33 UNL A   1     -14.533  -5.683  15.723  1.00  0.00    -0.077 SA
BRANCH  10  12
ATOM     12  C5  UNL A   1     -14.898  -8.008  16.991  1.00  0.00    -0.058 C 
BRANCH  12  13
ATOM     13  C4  UNL A   1     -14.665  -8.575  18.142  1.00  0.00    -0.086 C 
BRANCH  13  14
ATOM     14  C3  UNL A   1     -14.391  -9.236  19.483  1.00  0.00     0.076 C 
BRANCH  14  15
ATOM     15  C2  UNL A   1     -12.944  -9.714  19.558  1.00  0.00     0.014 C 
ATOM     16  C1  UNL A   1     -12.597 -10.614  18.384  1.00  0.00     0.001 C 
ENDBRANCH  14  15
ENDBRANCH  13  14
ENDBRANCH  12  13
ENDBRANCH  10  12
ENDBRANCH   1   7
BRANCH   6  17
ATOM     17  C25 UNL A   1     -15.540  -2.725  13.259  1.00  0.00     0.093 A 
ATOM     18  C26 UNL A   1     -16.685  -2.725  12.436  1.00  0.00     0.021 A 
ATOM     19  C27 UNL A   1     -17.835  -2.035  12.755  1.00  0.00     0.013 A 
ATOM     20  C28 UNL A   1     -17.911  -1.362  13.971  1.00  0.00     0.059 A 
ATOM     21 CL29 UNL A   1     -19.344  -0.542  14.415  1.00  0.00    -0.082 Cl
ATOM     22  C30 UNL A   1     -16.805  -1.371  14.828  1.00  0.00     0.024 A 
ATOM     23  C31 UNL A   1     -15.617  -2.030  14.487  1.00  0.00     0.076 A 
ATOM     24 CL32 UNL A   1     -14.296  -1.827  15.573  1.00  0.00    -0.081 Cl
ENDBRANCH   6  17
BRANCH   4  25
ATOM     25  C14 UNL A   1     -11.153  -3.272  11.162  1.00  0.00     0.287 C 
ATOM     26  O15 UNL A   1     -11.165  -3.154   9.930  1.00  0.00    -0.265 OA
ATOM     27  N16 UNL A   1     -10.022  -3.107  11.957  1.00  0.00    -0.282 N 
ATOM     28  H34 UNL A   1     -10.124  -3.265  12.923  1.00  0.00     0.184 HD
BRANCH  27  29
ATOM     29  N17 UNL A   1      -8.728  -2.728  11.489  1.00  0.00    -0.199 NA
ATOM     30  C18 UNL A   1      -7.902  -2.252  12.614  1.00  0.00     0.094 C 
ATOM     31  C19 UNL A   1      -6.492  -1.867  12.162  1.00  0.00     0.019 C 
ATOM     32  C20 UNL A   1      -5.786  -3.033  11.479  1.00  0.00     0.003 C 
ATOM     33  C21 UNL A   1      -6.657  -3.600  10.363  1.00  0.00     0.019 C 
ATOM     34  C22 UNL A   1      -8.071  -3.901  10.858  1.00  0.00     0.094 C 
ENDBRANCH  27  29
ENDBRANCH   4  25
TORSDOF 8
BEGIN_RES SER A 173
REMARK  2 active torsions:
REMARK  status: ('A' for Active; 'I' for Inactive)
REMARK    1  A    between atoms: CA   and  CB  
REMARK    2  A    between atoms: CB   and  OG  
ROOT
ATOM      1  CA  SER A 173      -4.540 -11.597  11.543  1.00127.03     0.292 C 
ENDROOT
BRANCH   1   2
ATOM      2  CB  SER A 173      -4.003 -10.168  11.569  1.00131.20     0.194 C 
BRANCH   2   3
ATOM      3  OG  SER A 173      -3.940  -9.666  12.893  1.00137.49    -0.550 OA
ATOM      4  HG  SER A 173      -3.043  -9.625  13.204  1.00  0.00     0.310 HD
ENDBRANCH   2   3
ENDBRANCH   1   2
END_RES SER A 173
BEGIN_RES SER A 383
REMARK  2 active torsions:
REMARK  status: ('A' for Active; 'I' for Inactive)
REMARK    3  A    between atoms: CA   and  CB  
REMARK    4  A    between atoms: CB   and  OG  
ROOT
ATOM      5  CA  SER A 383      -8.934   0.934   8.031  1.00 88.23     0.292 C 
ENDROOT
BRANCH   5   6
ATOM      6  CB  SER A 383      -8.589   0.249   9.352  1.00 82.13     0.194 C 
BRANCH   6   7
ATOM      7  OG  SER A 383      -7.221   0.423   9.674  1.00 85.59    -0.550 OA
ATOM      8  HG  SER A 383      -6.979  -0.101  10.429  1.00  0.00     0.310 HD
ENDBRANCH   6   7
ENDBRANCH   5   6
END_RES SER A 383
ENDMDL
MODEL 5
REMARK VINA RESULT:    -8.217      6.097     12.807
REMARK INTER + INTRA:          -3.318
REMARK INTER:                 -12.173
REMARK INTRA:                   8.855
REMARK UNBOUND:                 8.743
REMARK  8 active torsions:
REMARK  status: ('A' for Active; 'I' for Inactive)
REMARK    1  A    between atoms: C2_2  and  C3_3 
REMARK    2  A    between atoms: C3_3  and  C4_4 
REMARK    3  A    between atoms: C4_4  and  C5_5 
REMARK    4  A    between atoms: C5_5  and  C6_6 
REMARK    5  A    between atoms: C9_9  and  C10_10 
REMARK    6  A    between atoms: C13_13  and  C14_14 
REMARK       I    between atoms: C14_14  and  N16_16 
REMARK    7  A    between atoms: N16_16  and  N17_17 
REMARK    8  A    between atoms: N24_24  and  C25_25 
ROOT
ATOM      1  C10 UNL A   1     -13.866  -4.933  12.279  1.00  0.00     0.086 A 
ATOM      2  C11 UNL A   1     -12.509  -4.897  11.960  1.00  0.00     0.020 A 
ATOM      3  C12 UNL A   1     -11.626  -6.079  11.783  1.00  0.00     0.034 C 
ATOM      4  C13 UNL A   1     -12.155  -3.523  11.849  1.00  0.00     0.155 A 
ATOM      5  N23 UNL A   1     -13.265  -2.750  11.978  1.00  0.00    -0.161 NA
ATOM      6  N24 UNL A   1     -14.301  -3.603  12.236  1.00  0.00    -0.229 N 
ENDROOT
BRANCH   1   7
ATOM      7  C9  UNL A   1     -14.661  -6.117  12.457  1.00  0.00     0.048 C 
ATOM      8  C8  UNL A   1     -14.829  -7.220  11.654  1.00  0.00     0.009 C 
ATOM      9  C7  UNL A   1     -15.436  -8.311  12.302  1.00  0.00     0.015 C 
ATOM     10  C6  UNL A   1     -15.689  -7.992  13.640  1.00  0.00     0.071 C 
ATOM     11  S33 UNL A   1     -15.595  -6.350  13.885  1.00  0.00    -0.077 SA
BRANCH  10  12
ATOM     12  C5  UNL A   1     -16.126  -8.858  14.649  1.00  0.00    -0.058 C 
BRANCH  12  13
ATOM     13  C4  UNL A   1     -16.415  -9.780  15.524  1.00  0.00    -0.086 C 
BRANCH  13  14
ATOM     14  C3  UNL A   1     -16.751 -10.856  16.544  1.00  0.00     0.076 C 
BRANCH  14  15
ATOM     15  C2  UNL A   1     -15.860 -12.078  16.344  1.00  0.00     0.014 C 
ATOM     16  C1  UNL A   1     -14.866 -12.231  17.484  1.00  0.00     0.001 C 
ENDBRANCH  14  15
ENDBRANCH  13  14
ENDBRANCH  12  13
ENDBRANCH  10  12
ENDBRANCH   1   7
BRANCH   6  17
ATOM     17  C25 UNL A   1     -15.609  -3.086  12.519  1.00  0.00     0.093 A 
ATOM     18  C26 UNL A   1     -16.590  -3.038  11.507  1.00  0.00     0.021 A 
ATOM     19  C27 UNL A   1     -17.846  -2.504  11.707  1.00  0.00     0.013 A 
ATOM     20  C28 UNL A   1     -18.200  -2.051  12.974  1.00  0.00     0.059 A 
ATOM     21 CL29 UNL A   1     -19.767  -1.433  13.262  1.00  0.00    -0.082 Cl
ATOM     22  C30 UNL A   1     -17.262  -2.116  14.011  1.00  0.00     0.024 A 
ATOM     23  C31 UNL A   1     -15.969  -2.613  13.801  1.00  0.00     0.076 A 
ATOM     24 CL32 UNL A   1     -14.883  -2.491  15.132  1.00  0.00    -0.081 Cl
ENDBRANCH   6  17
BRANCH   4  25
ATOM     25  C14 UNL A   1     -10.802  -2.913  11.622  1.00  0.00     0.287 C 
ATOM     26  O15 UNL A   1     -10.430  -1.918  12.257  1.00  0.00    -0.265 OA
ATOM     27  N16 UNL A   1     -10.053  -3.539  10.630  1.00  0.00    -0.282 N 
ATOM     28  H34 UNL A   1     -10.468  -4.300  10.164  1.00  0.00     0.184 HD
BRANCH  27  29
ATOM     29  N17 UNL A   1      -8.732  -3.171  10.233  1.00  0.00    -0.199 NA
ATOM     30  C18 UNL A   1      -7.738  -3.915  11.030  1.00  0.00     0.094 C 
ATOM     31  C19 UNL A   1      -6.305  -3.576  10.613  1.00  0.00     0.019 C 
ATOM     32  C20 UNL A   1      -6.073  -3.857   9.133  1.00  0.00     0.003 C 
ATOM     33  C21 UNL A   1      -7.139  -3.167   8.288  1.00  0.00     0.019 C 
ATOM     34  C22 UNL A   1      -8.545  -3.489   8.795  1.00  0.00     0.094 C 
ENDBRANCH  27  29
ENDBRANCH   4  25
TORSDOF 8
BEGIN_RES SER A 173
REMARK  2 active torsions:
REMARK  status: ('A' for Active; 'I' for Inactive)
REMARK    1  A    between atoms: CA   and  CB  
REMARK    2  A    between atoms: CB   and  OG  
ROOT
ATOM      1  CA  SER A 173      -4.540 -11.597  11.543  1.00127.03     0.292 C 
ENDROOT
BRANCH   1   2
ATOM      2  CB  SER A 173      -4.003 -10.168  11.569  1.00131.20     0.194 C 
BRANCH   2   3
ATOM      3  OG  SER A 173      -3.930  -9.670  12.894  1.00137.49    -0.550 OA
ATOM      4  HG  SER A 173      -4.643 -10.002  13.427  1.00  0.00     0.310 HD
ENDBRANCH   2   3
ENDBRANCH   1   2
END_RES SER A 173
BEGIN_RES SER A 383
REMARK  2 active torsions:
REMARK  status: ('A' for Active; 'I' for Inactive)
REMARK    3  A    between atoms: CA   and  CB  
REMARK    4  A    between atoms: CB   and  OG  
ROOT
ATOM      5  CA  SER A 383      -8.934   0.934   8.031  1.00 88.23     0.292 C 
ENDROOT
BRANCH   5   6
ATOM      6  CB  SER A 383      -8.589   0.249   9.352  1.00 82.13     0.194 C 
BRANCH   6   7
ATOM      7  OG  SER A 383      -7.188   0.122   9.509  1.00 85.59    -0.550 OA
ATOM      8  HG  SER A 383      -6.784  -0.216   8.718  1.00  0.00     0.310 HD
ENDBRANCH   6   7
ENDBRANCH   5   6
END_RES SER A 383
ENDMDL
MODEL 6
REMARK VINA RESULT:    -8.149      9.454     14.112
REMARK INTER + INTRA:          -3.217
REMARK INTER:                 -11.429
REMARK INTRA:                   8.212
REMARK UNBOUND:                 8.743
REMARK  8 active torsions:
REMARK  status: ('A' for Active; 'I' for Inactive)
REMARK    1  A    between atoms: C2_2  and  C3_3 
REMARK    2  A    between atoms: C3_3  and  C4_4 
REMARK    3  A    between atoms: C4_4  and  C5_5 
REMARK    4  A    between atoms: C5_5  and  C6_6 
REMARK    5  A    between atoms: C9_9  and  C10_10 
REMARK    6  A    between atoms: C13_13  and  C14_14 
REMARK       I    between atoms: C14_14  and  N16_16 
REMARK    7  A    between atoms: N16_16  and  N17_17 
REMARK    8  A    between atoms: N24_24  and  C25_25 
ROOT
ATOM      1  C10 UNL A   1     -17.865  -3.453  14.556  1.00  0.00     0.086 A 
ATOM      2  C11 UNL A   1     -18.903  -2.536  14.398  1.00  0.00     0.020 A 
ATOM      3  C12 UNL A   1     -18.752  -1.111  14.004  1.00  0.00     0.034 C 
ATOM      4  C13 UNL A   1     -20.109  -3.233  14.691  1.00  0.00     0.155 A 
ATOM      5  N23 UNL A   1     -19.839  -4.546  14.908  1.00  0.00    -0.161 NA
ATOM      6  N24 UNL A   1     -18.482  -4.681  14.823  1.00  0.00    -0.229 N 
ENDROOT
BRANCH   1   7
ATOM      7  C9  UNL A   1     -16.469  -3.196  14.332  1.00  0.00     0.048 C 
ATOM      8  C8  UNL A   1     -15.426  -3.042  15.214  1.00  0.00     0.009 C 
ATOM      9  C7  UNL A   1     -14.156  -3.115  14.616  1.00  0.00     0.015 C 
ATOM     10  C6  UNL A   1     -14.287  -3.362  13.244  1.00  0.00     0.071 C 
ATOM     11  S33 UNL A   1     -15.840  -3.058  12.734  1.00  0.00    -0.077 SA
BRANCH  10  12
ATOM     12  C5  UNL A   1     -13.265  -3.665  12.337  1.00  0.00    -0.058 C 
BRANCH  12  13
ATOM     13  C4  UNL A   1     -12.230  -4.021  11.630  1.00  0.00    -0.086 C 
BRANCH  13  14
ATOM     14  C3  UNL A   1     -11.022  -4.435  10.806  1.00  0.00     0.076 C 
BRANCH  14  15
ATOM     15  C2  UNL A   1     -10.845  -5.951  10.842  1.00  0.00     0.014 C 
ATOM     16  C1  UNL A   1     -10.722  -6.460  12.268  1.00  0.00     0.001 C 
ENDBRANCH  14  15
ENDBRANCH  13  14
ENDBRANCH  12  13
ENDBRANCH  10  12
ENDBRANCH   1   7
BRANCH   6  17
ATOM     17  C25 UNL A   1     -17.863  -5.946  15.098  1.00  0.00     0.093 A 
ATOM     18  C26 UNL A   1     -17.676  -6.886  14.065  1.00  0.00     0.021 A 
ATOM     19  C27 UNL A   1     -17.135  -8.137  14.281  1.00  0.00     0.013 A 
ATOM     20  C28 UNL A   1     -16.686  -8.475  15.554  1.00  0.00     0.059 A 
ATOM     21 CL29 UNL A   1     -15.964  -9.998  15.838  1.00  0.00    -0.082 Cl
ATOM     22  C30 UNL A   1     -16.824  -7.551  16.596  1.00  0.00     0.024 A 
ATOM     23  C31 UNL A   1     -17.416  -6.298  16.393  1.00  0.00     0.076 A 
ATOM     24 CL32 UNL A   1     -17.652  -5.331  17.798  1.00  0.00    -0.081 Cl
ENDBRANCH   6  17
BRANCH   4  25
ATOM     25  C14 UNL A   1     -21.510  -2.700  14.773  1.00  0.00     0.287 C 
ATOM     26  O15 UNL A   1     -22.139  -2.705  15.839  1.00  0.00    -0.265 OA
ATOM     27  N16 UNL A   1     -22.023  -2.253  13.559  1.00  0.00    -0.282 N 
ATOM     28  H34 UNL A   1     -21.442  -2.333  12.768  1.00  0.00     0.184 HD
BRANCH  27  29
ATOM     29  N17 UNL A   1     -23.317  -1.684  13.365  1.00  0.00    -0.199 NA
ATOM     30  C18 UNL A   1     -23.205  -0.230  13.145  1.00  0.00     0.094 C 
ATOM     31  C19 UNL A   1     -24.569   0.416  12.897  1.00  0.00     0.019 C 
ATOM     32  C20 UNL A   1     -25.279  -0.218  11.707  1.00  0.00     0.003 C 
ATOM     33  C21 UNL A   1     -25.337  -1.733  11.868  1.00  0.00     0.019 C 
ATOM     34  C22 UNL A   1     -23.957  -2.312  12.181  1.00  0.00     0.094 C 
ENDBRANCH  27  29
ENDBRANCH   4  25
TORSDOF 8
BEGIN_RES SER A 173
REMARK  2 active torsions:
REMARK  status: ('A' for Active; 'I' for Inactive)
REMARK    1  A    between atoms: CA   and  CB  
REMARK    2  A    between atoms: CB   and  OG  
ROOT
ATOM      1  CA  SER A 173      -4.540 -11.597  11.543  1.00127.03     0.292 C 
ENDROOT
BRANCH   1   2
ATOM      2  CB  SER A 173      -4.003 -10.168  11.569  1.00131.20     0.194 C 
BRANCH   2   3
ATOM      3  OG  SER A 173      -3.910  -9.678  12.895  1.00137.49    -0.550 OA
ATOM      4  HG  SER A 173      -3.018  -9.431  13.110  1.00  0.00     0.310 HD
ENDBRANCH   2   3
ENDBRANCH   1   2
END_RES SER A 173
BEGIN_RES SER A 383
REMARK  2 active torsions:
REMARK  status: ('A' for Active; 'I' for Inactive)
REMARK    3  A    between atoms: CA   and  CB  
REMARK    4  A    between atoms: CB   and  OG  
ROOT
ATOM      5  CA  SER A 383      -8.934   0.934   8.031  1.00 88.23     0.292 C 
ENDROOT
BRANCH   5   6
ATOM      6  CB  SER A 383      -8.589   0.249   9.352  1.00 82.13     0.194 C 
BRANCH   6   7
ATOM      7  OG  SER A 383      -7.208   0.370   9.643  1.00 85.59    -0.550 OA
ATOM      8  HG  SER A 383      -6.985  -0.099  10.439  1.00  0.00     0.310 HD
ENDBRANCH   6   7
ENDBRANCH   5   6
END_RES SER A 383
ENDMDL
MODEL 7
REMARK VINA RESULT:    -8.114      6.634     13.667
REMARK INTER + INTRA:          -3.166
REMARK INTER:                 -11.470
REMARK INTRA:                   8.303
REMARK UNBOUND:                 8.743
REMARK  8 active torsions:
REMARK  status: ('A' for Active; 'I' for Inactive)
REMARK    1  A    between atoms: C2_2  and  C3_3 
REMARK    2  A    between atoms: C3_3  and  C4_4 
REMARK    3  A    between atoms: C4_4  and  C5_5 
REMARK    4  A    between atoms: C5_5  and  C6_6 
REMARK    5  A    between atoms: C9_9  and  C10_10 
REMARK    6  A    between atoms: C13_13  and  C14_14 
REMARK       I    between atoms: C14_14  and  N16_16 
REMARK    7  A    between atoms: N16_16  and  N17_17 
REMARK    8  A    between atoms: N24_24  and  C25_25 
ROOT
ATOM      1  C10 UNL A   1     -14.712  -4.412  13.753  1.00  0.00     0.086 A 
ATOM      2  C11 UNL A   1     -13.910  -4.070  12.664  1.00  0.00     0.020 A 
ATOM      3  C12 UNL A   1     -14.078  -2.869  11.805  1.00  0.00     0.034 C 
ATOM      4  C13 UNL A   1     -12.926  -5.091  12.548  1.00  0.00     0.155 A 
ATOM      5  N23 UNL A   1     -13.042  -5.961  13.585  1.00  0.00    -0.161 NA
ATOM      6  N24 UNL A   1     -14.120  -5.549  14.316  1.00  0.00    -0.229 N 
ENDROOT
BRANCH   1   7
ATOM      7  C9  UNL A   1     -15.818  -3.648  14.261  1.00  0.00     0.048 C 
ATOM      8  C8  UNL A   1     -15.853  -2.557  15.096  1.00  0.00     0.009 C 
ATOM      9  C7  UNL A   1     -17.092  -1.893  15.118  1.00  0.00     0.015 C 
ATOM     10  C6  UNL A   1     -17.983  -2.515  14.236  1.00  0.00     0.071 C 
ATOM     11  S33 UNL A   1     -17.437  -4.027  13.812  1.00  0.00    -0.077 SA
BRANCH  10  12
ATOM     12  C5  UNL A   1     -19.249  -2.060  13.850  1.00  0.00    -0.058 C 
BRANCH  12  13
ATOM     13  C4  UNL A   1     -20.485  -1.802  13.523  1.00  0.00    -0.086 C 
BRANCH  13  14
ATOM     14  C3  UNL A   1     -21.925  -1.500  13.142  1.00  0.00     0.076 C 
BRANCH  14  15
ATOM     15  C2  UNL A   1     -22.860  -1.794  14.312  1.00  0.00     0.014 C 
ATOM     16  C1  UNL A   1     -24.091  -2.560  13.857  1.00  0.00     0.001 C 
ENDBRANCH  14  15
ENDBRANCH  13  14
ENDBRANCH  12  13
ENDBRANCH  10  12
ENDBRANCH   1   7
BRANCH   6  17
ATOM     17  C25 UNL A   1     -14.570  -6.321  15.439  1.00  0.00     0.093 A 
ATOM     18  C26 UNL A   1     -13.966  -6.156  16.703  1.00  0.00     0.021 A 
ATOM     19  C27 UNL A   1     -14.321  -6.907  17.804  1.00  0.00     0.013 A 
ATOM     20  C28 UNL A   1     -15.364  -7.822  17.698  1.00  0.00     0.059 A 
ATOM     21 CL29 UNL A   1     -15.858  -8.728  19.061  1.00  0.00    -0.082 Cl
ATOM     22  C30 UNL A   1     -16.008  -7.986  16.467  1.00  0.00     0.024 A 
ATOM     23  C31 UNL A   1     -15.621  -7.261  15.333  1.00  0.00     0.076 A 
ATOM     24 CL32 UNL A   1     -16.405  -7.677  13.858  1.00  0.00    -0.081 Cl
ENDBRANCH   6  17
BRANCH   4  25
ATOM     25  C14 UNL A   1     -11.876  -5.273  11.491  1.00  0.00     0.287 C 
ATOM     26  O15 UNL A   1     -12.043  -6.056  10.546  1.00  0.00    -0.265 OA
ATOM     27  N16 UNL A   1     -10.721  -4.525  11.698  1.00  0.00    -0.282 N 
ATOM     28  H34 UNL A   1     -10.686  -3.965  12.507  1.00  0.00     0.184 HD
BRANCH  27  29
ATOM     29  N17 UNL A   1      -9.584  -4.501  10.836  1.00  0.00    -0.199 NA
ATOM     30  C18 UNL A   1      -9.859  -3.656   9.659  1.00  0.00     0.094 C 
ATOM     31  C19 UNL A   1      -8.652  -3.572   8.722  1.00  0.00     0.019 C 
ATOM     32  C20 UNL A   1      -7.421  -3.039   9.445  1.00  0.00     0.003 C 
ATOM     33  C21 UNL A   1      -7.160  -3.843  10.714  1.00  0.00     0.019 C 
ATOM     34  C22 UNL A   1      -8.420  -3.949  11.574  1.00  0.00     0.094 C 
ENDBRANCH  27  29
ENDBRANCH   4  25
TORSDOF 8
BEGIN_RES SER A 173
REMARK  2 active torsions:
REMARK  status: ('A' for Active; 'I' for Inactive)
REMARK    1  A    between atoms: CA   and  CB  
REMARK    2  A    between atoms: CB   and  OG  
ROOT
ATOM      1  CA  SER A 173      -4.540 -11.597  11.543  1.00127.03     0.292 C 
ENDROOT
BRANCH   1   2
ATOM      2  CB  SER A 173      -4.003 -10.168  11.569  1.00131.20     0.194 C 
BRANCH   2   3
ATOM      3  OG  SER A 173      -3.898  -9.682  12.896  1.00137.49    -0.550 OA
ATOM      4  HG  SER A 173      -3.335  -8.919  12.940  1.00  0.00     0.310 HD
ENDBRANCH   2   3
ENDBRANCH   1   2
END_RES SER A 173
BEGIN_RES SER A 383
REMARK  2 active torsions:
REMARK  status: ('A' for Active; 'I' for Inactive)
REMARK    3  A    between atoms: CA   and  CB  
REMARK    4  A    between atoms: CB   and  OG  
ROOT
ATOM      5  CA  SER A 383      -8.934   0.934   8.031  1.00 88.23     0.292 C 
ENDROOT
BRANCH   5   6
ATOM      6  CB  SER A 383      -8.589   0.249   9.352  1.00 82.13     0.194 C 
BRANCH   6   7
ATOM      7  OG  SER A 383      -7.292   0.612   9.791  1.00 85.59    -0.550 OA
ATOM      8  HG  SER A 383      -6.881   1.212   9.180  1.00  0.00     0.310 HD
ENDBRANCH   6   7
ENDBRANCH   5   6
END_RES SER A 383
ENDMDL
