MODEL 1
REMARK VINA RESULT:   -11.445      0.000      0.000
REMARK INTER + INTRA:          -6.619
REMARK INTER:                 -15.459
REMARK INTRA:                   8.840
REMARK UNBOUND:                 8.840
REMARK  6 active torsions:
REMARK  status: ('A' for Active; 'I' for Inactive)
REMARK    1  A    between atoms: C2_2  and  C3_3 
REMARK    2  A    between atoms: C4_4  and  C5_5 
REMARK    3  A    between atoms: C8_8  and  C9_9 
REMARK    4  A    between atoms: C12_12  and  C13_13 
REMARK       I    between atoms: C13_13  and  N15_15 
REMARK    5  A    between atoms: N15_15  and  N16_16 
REMARK    6  A    between atoms: N24_24  and  C25_25 
ROOT
ATOM      1  C9  UNL A   1      -5.521  -2.517   9.820  1.00  0.00     0.086 A 
ATOM      2  C10 UNL A   1      -6.544  -2.598  10.772  1.00  0.00     0.020 A 
ATOM      3  C11 UNL A   1      -6.624  -2.014  12.144  1.00  0.00     0.034 C 
ATOM      4  C12 UNL A   1      -7.592  -3.350  10.161  1.00  0.00     0.155 A 
ATOM      5  N23 UNL A   1      -7.283  -3.654   8.894  1.00  0.00    -0.161 NA
ATOM      6  N24 UNL A   1      -6.034  -3.150   8.672  1.00  0.00    -0.229 N 
ENDROOT
BRANCH   4   7
ATOM      7  C13 UNL A   1      -8.876  -3.751  10.796  1.00  0.00     0.287 C 
ATOM      8  O14 UNL A   1      -8.920  -4.243  11.922  1.00  0.00    -0.265 OA
ATOM      9  N15 UNL A   1     -10.006  -3.518  10.010  1.00  0.00    -0.282 N 
ATOM     10  H34 UNL A   1      -9.879  -3.122   9.118  1.00  0.00     0.184 HD
BRANCH   9  11
ATOM     11  N16 UNL A   1     -11.341  -3.825  10.434  1.00  0.00    -0.199 NA
ATOM     12  C17 UNL A   1     -11.546  -5.260  10.669  1.00  0.00     0.094 C 
ATOM     13  C18 UNL A   1     -12.964  -5.701  10.282  1.00  0.00     0.019 C 
ATOM     14  C19 UNL A   1     -14.064  -5.360  11.282  1.00  0.00     0.002 C 
ATOM     15  C20 UNL A   1     -14.175  -3.883  11.638  1.00  0.00     0.002 C 
ATOM     16  C21 UNL A   1     -12.956  -3.378  12.400  1.00  0.00     0.019 C 
ATOM     17  C22 UNL A   1     -11.781  -2.934  11.518  1.00  0.00     0.094 C 
ENDBRANCH   9  11
ENDBRANCH   4   7
BRANCH   1  18
ATOM     18  C8  UNL A   1      -4.265  -1.788   9.956  1.00  0.00     0.048 C 
ATOM     19  C7  UNL A   1      -3.021  -2.221  10.389  1.00  0.00     0.009 C 
ATOM     20  C6  UNL A   1      -1.977  -1.270  10.138  1.00  0.00     0.015 C 
ATOM     21  C5  UNL A   1      -2.448  -0.167   9.466  1.00  0.00     0.071 C 
ATOM     22  S33 UNL A   1      -4.152  -0.117   9.525  1.00  0.00    -0.077 SA
BRANCH  21  23
ATOM     23  C4  UNL A   1      -1.663   0.813   8.791  1.00  0.00    -0.058 C 
ATOM     24  C3  UNL A   1      -0.930   1.628   8.284  1.00  0.00    -0.086 C 
BRANCH  24  25
ATOM     25  C2  UNL A   1      -0.016   2.576   7.634  1.00  0.00     0.076 C 
ATOM     26  C1  UNL A   1       0.935   1.912   6.652  1.00  0.00     0.015 C 
ENDBRANCH  24  25
ENDBRANCH  21  23
ENDBRANCH   1  18
BRANCH   6  27
ATOM     27  C25 UNL A   1      -5.415  -3.363   7.396  1.00  0.00     0.093 A 
ATOM     28  C26 UNL A   1      -5.528  -2.372   6.402  1.00  0.00     0.021 A 
ATOM     29  C27 UNL A   1      -5.045  -2.589   5.108  1.00  0.00     0.013 A 
ATOM     30  C28 UNL A   1      -4.383  -3.771   4.807  1.00  0.00     0.059 A 
ATOM     31 CL29 UNL A   1      -3.810  -4.048   3.209  1.00  0.00    -0.082 Cl
ATOM     32  C30 UNL A   1      -4.189  -4.734   5.793  1.00  0.00     0.024 A 
ATOM     33  C31 UNL A   1      -4.703  -4.541   7.087  1.00  0.00     0.076 A 
ATOM     34 CL32 UNL A   1      -4.500  -5.888   8.158  1.00  0.00    -0.081 Cl
ENDBRANCH   6  27
TORSDOF 6
BEGIN_RES SER A 173
REMARK  2 active torsions:
REMARK  status: ('A' for Active; 'I' for Inactive)
REMARK    1  A    between atoms: CA   and  CB  
REMARK    2  A    between atoms: CB   and  OG  
ROOT
ATOM      1  CA  SER A 173      -4.540 -11.597  11.543  1.00127.03     0.292 C 
ENDROOT
BRANCH   1   2
ATOM      2  CB  SER A 173      -4.003 -10.168  11.569  1.00131.20     0.194 C 
BRANCH   2   3
ATOM      3  OG  SER A 173      -3.929  -9.671  12.894  1.00137.49    -0.550 OA
ATOM      4  HG  SER A 173      -3.077  -9.842  13.279  1.00  0.00     0.310 HD
ENDBRANCH   2   3
ENDBRANCH   1   2
END_RES SER A 173
BEGIN_RES SER A 383
REMARK  2 active torsions:
REMARK  status: ('A' for Active; 'I' for Inactive)
REMARK    3  A    between atoms: CA   and  CB  
REMARK    4  A    between atoms: CB   and  OG  
ROOT
ATOM      5  CA  SER A 383      -8.934   0.934   8.031  1.00 88.23     0.292 C 
ENDROOT
BRANCH   5   6
ATOM      6  CB  SER A 383      -8.589   0.249   9.352  1.00 82.13     0.194 C 
BRANCH   6   7
ATOM      7  OG  SER A 383      -7.361   0.728   9.869  1.00 85.59    -0.550 OA
ATOM      8  HG  SER A 383      -7.328   0.635  10.814  1.00  0.00     0.310 HD
ENDBRANCH   6   7
ENDBRANCH   5   6
END_RES SER A 383
ENDMDL
MODEL 2
REMARK VINA RESULT:   -11.420      1.524      1.999
REMARK INTER + INTRA:          -6.585
REMARK INTER:                 -15.507
REMARK INTRA:                   8.923
REMARK UNBOUND:                 8.840
REMARK  6 active torsions:
REMARK  status: ('A' for Active; 'I' for Inactive)
REMARK    1  A    between atoms: C2_2  and  C3_3 
REMARK    2  A    between atoms: C4_4  and  C5_5 
REMARK    3  A    between atoms: C8_8  and  C9_9 
REMARK    4  A    between atoms: C12_12  and  C13_13 
REMARK       I    between atoms: C13_13  and  N15_15 
REMARK    5  A    between atoms: N15_15  and  N16_16 
REMARK    6  A    between atoms: N24_24  and  C25_25 
ROOT
ATOM      1  C9  UNL A   1      -5.036  -1.909   9.243  1.00  0.00     0.086 A 
ATOM      2  C10 UNL A   1      -5.805  -1.911  10.412  1.00  0.00     0.020 A 
ATOM      3  C11 UNL A   1      -5.716  -1.032  11.617  1.00  0.00     0.034 C 
ATOM      4  C12 UNL A   1      -6.782  -2.935  10.241  1.00  0.00     0.155 A 
ATOM      5  N23 UNL A   1      -6.686  -3.485   9.024  1.00  0.00    -0.161 NA
ATOM      6  N24 UNL A   1      -5.637  -2.869   8.406  1.00  0.00    -0.229 N 
ENDROOT
BRANCH   4   7
ATOM      7  C13 UNL A   1      -7.801  -3.358  11.239  1.00  0.00     0.287 C 
ATOM      8  O14 UNL A   1      -7.533  -3.479  12.433  1.00  0.00    -0.265 OA
ATOM      9  N15 UNL A   1      -9.068  -3.598  10.704  1.00  0.00    -0.282 N 
ATOM     10  H34 UNL A   1      -9.195  -3.479   9.735  1.00  0.00     0.184 HD
BRANCH   9  11
ATOM     11  N16 UNL A   1     -10.194  -4.008  11.491  1.00  0.00    -0.199 NA
ATOM     12  C17 UNL A   1     -11.447  -3.373  11.063  1.00  0.00     0.094 C 
ATOM     13  C18 UNL A   1     -12.374  -3.089  12.253  1.00  0.00     0.019 C 
ATOM     14  C19 UNL A   1     -13.145  -4.287  12.798  1.00  0.00     0.002 C 
ATOM     15  C20 UNL A   1     -12.282  -5.470  13.220  1.00  0.00     0.002 C 
ATOM     16  C21 UNL A   1     -11.574  -6.121  12.039  1.00  0.00     0.019 C 
ATOM     17  C22 UNL A   1     -10.242  -5.470  11.643  1.00  0.00     0.094 C 
ENDBRANCH   9  11
ENDBRANCH   4   7
BRANCH   1  18
ATOM     18  C8  UNL A   1      -3.951  -0.990   8.917  1.00  0.00     0.048 C 
ATOM     19  C7  UNL A   1      -3.940   0.126   8.094  1.00  0.00     0.009 C 
ATOM     20  C6  UNL A   1      -2.749   0.913   8.233  1.00  0.00     0.015 C 
ATOM     21  C5  UNL A   1      -1.916   0.404   9.201  1.00  0.00     0.071 C 
ATOM     22  S33 UNL A   1      -2.378  -1.186   9.609  1.00  0.00    -0.077 SA
BRANCH  21  23
ATOM     23  C4  UNL A   1      -0.819   1.078   9.814  1.00  0.00    -0.058 C 
ATOM     24  C3  UNL A   1       0.145   1.664  10.247  1.00  0.00    -0.086 C 
BRANCH  24  25
ATOM     25  C2  UNL A   1       1.285   2.427  10.770  1.00  0.00     0.076 C 
ATOM     26  C1  UNL A   1       1.666   2.036  12.188  1.00  0.00     0.015 C 
ENDBRANCH  24  25
ENDBRANCH  21  23
ENDBRANCH   1  18
BRANCH   6  27
ATOM     27  C25 UNL A   1      -5.263  -3.289   7.086  1.00  0.00     0.093 A 
ATOM     28  C26 UNL A   1      -5.467  -2.414   6.003  1.00  0.00     0.021 A 
ATOM     29  C27 UNL A   1      -5.230  -2.826   4.688  1.00  0.00     0.013 A 
ATOM     30  C28 UNL A   1      -4.723  -4.094   4.442  1.00  0.00     0.059 A 
ATOM     31 CL29 UNL A   1      -4.455  -4.610   2.823  1.00  0.00    -0.082 Cl
ATOM     32  C30 UNL A   1      -4.439  -4.950   5.502  1.00  0.00     0.024 A 
ATOM     33  C31 UNL A   1      -4.708  -4.559   6.824  1.00  0.00     0.076 A 
ATOM     34 CL32 UNL A   1      -4.430  -5.786   8.016  1.00  0.00    -0.081 Cl
ENDBRANCH   6  27
TORSDOF 6
BEGIN_RES SER A 173
REMARK  2 active torsions:
REMARK  status: ('A' for Active; 'I' for Inactive)
REMARK    1  A    between atoms: CA   and  CB  
REMARK    2  A    between atoms: CB   and  OG  
ROOT
ATOM      1  CA  SER A 173      -4.540 -11.597  11.543  1.00127.03     0.292 C 
ENDROOT
BRANCH   1   2
ATOM      2  CB  SER A 173      -4.003 -10.168  11.569  1.00131.20     0.194 C 
BRANCH   2   3
ATOM      3  OG  SER A 173      -3.951  -9.662  12.892  1.00137.49    -0.550 OA
ATOM      4  HG  SER A 173      -3.948 -10.366  13.530  1.00  0.00     0.310 HD
ENDBRANCH   2   3
ENDBRANCH   1   2
END_RES SER A 173
BEGIN_RES SER A 383
REMARK  2 active torsions:
REMARK  status: ('A' for Active; 'I' for Inactive)
REMARK    3  A    between atoms: CA   and  CB  
REMARK    4  A    between atoms: CB   and  OG  
ROOT
ATOM      5  CA  SER A 383      -8.934   0.934   8.031  1.00 88.23     0.292 C 
ENDROOT
BRANCH   5   6
ATOM      6  CB  SER A 383      -8.589   0.249   9.352  1.00 82.13     0.194 C 
BRANCH   6   7
ATOM      7  OG  SER A 383      -8.090   1.181  10.294  1.00 85.59    -0.550 OA
ATOM      8  HG  SER A 383      -8.587   1.990  10.270  1.00  0.00     0.310 HD
ENDBRANCH   6   7
ENDBRANCH   5   6
END_RES SER A 383
ENDMDL
MODEL 3
REMARK VINA RESULT:    -9.132      5.224     11.694
REMARK INTER + INTRA:          -3.495
REMARK INTER:                 -11.928
REMARK INTRA:                   8.432
REMARK UNBOUND:                 8.840
REMARK  6 active torsions:
REMARK  status: ('A' for Active; 'I' for Inactive)
REMARK    1  A    between atoms: C2_2  and  C3_3 
REMARK    2  A    between atoms: C4_4  and  C5_5 
REMARK    3  A    between atoms: C8_8  and  C9_9 
REMARK    4  A    between atoms: C12_12  and  C13_13 
REMARK       I    between atoms: C13_13  and  N15_15 
REMARK    5  A    between atoms: N15_15  and  N16_16 
REMARK    6  A    between atoms: N24_24  and  C25_25 
ROOT
ATOM      1  C9  UNL A   1     -13.766  -5.046  11.851  1.00  0.00     0.086 A 
ATOM      2  C10 UNL A   1     -12.401  -4.880  12.107  1.00  0.00     0.020 A 
ATOM      3  C11 UNL A   1     -11.450  -5.765  12.844  1.00  0.00     0.034 C 
ATOM      4  C12 UNL A   1     -12.026  -3.659  11.471  1.00  0.00     0.155 A 
ATOM      5  N23 UNL A   1     -13.060  -3.136  10.800  1.00  0.00    -0.161 NA
ATOM      6  N24 UNL A   1     -14.119  -3.969  11.016  1.00  0.00    -0.229 N 
ENDROOT
BRANCH   4   7
ATOM      7  C13 UNL A   1     -10.681  -3.024  11.503  1.00  0.00     0.287 C 
ATOM      8  O14 UNL A   1     -10.445  -2.033  12.192  1.00  0.00    -0.265 OA
ATOM      9  N15 UNL A   1      -9.729  -3.647  10.694  1.00  0.00    -0.282 N 
ATOM     10  H34 UNL A   1     -10.005  -4.435  10.173  1.00  0.00     0.184 HD
BRANCH   9  11
ATOM     11  N16 UNL A   1      -8.371  -3.201  10.584  1.00  0.00    -0.199 NA
ATOM     12  C17 UNL A   1      -7.580  -3.488  11.787  1.00  0.00     0.094 C 
ATOM     13  C18 UNL A   1      -6.546  -2.387  12.062  1.00  0.00     0.019 C 
ATOM     14  C19 UNL A   1      -5.288  -2.424  11.201  1.00  0.00     0.002 C 
ATOM     15  C20 UNL A   1      -5.535  -2.392   9.698  1.00  0.00     0.002 C 
ATOM     16  C21 UNL A   1      -6.237  -3.649   9.200  1.00  0.00     0.019 C 
ATOM     17  C22 UNL A   1      -7.768  -3.621   9.311  1.00  0.00     0.094 C 
ENDBRANCH   9  11
ENDBRANCH   4   7
BRANCH   1  18
ATOM     18  C8  UNL A   1     -14.591  -6.185  12.241  1.00  0.00     0.048 C 
ATOM     19  C7  UNL A   1     -14.785  -7.406  11.614  1.00  0.00     0.009 C 
ATOM     20  C6  UNL A   1     -15.470  -8.358  12.440  1.00  0.00     0.015 C 
ATOM     21  C5  UNL A   1     -15.723  -7.851  13.693  1.00  0.00     0.071 C 
ATOM     22  S33 UNL A   1     -15.512  -6.159  13.705  1.00  0.00    -0.077 SA
BRANCH  21  23
ATOM     23  C4  UNL A   1     -16.098  -8.598  14.848  1.00  0.00    -0.058 C 
ATOM     24  C3  UNL A   1     -16.335  -9.280  15.817  1.00  0.00    -0.086 C 
BRANCH  24  25
ATOM     25  C2  UNL A   1     -16.596 -10.069  17.028  1.00  0.00     0.076 C 
ATOM     26  C1  UNL A   1     -15.328 -10.467  17.765  1.00  0.00     0.015 C 
ENDBRANCH  24  25
ENDBRANCH  21  23
ENDBRANCH   1  18
BRANCH   6  27
ATOM     27  C25 UNL A   1     -15.394  -3.634  10.450  1.00  0.00     0.093 A 
ATOM     28  C26 UNL A   1     -15.659  -3.969   9.108  1.00  0.00     0.021 A 
ATOM     29  C27 UNL A   1     -16.839  -3.556   8.481  1.00  0.00     0.013 A 
ATOM     30  C28 UNL A   1     -17.799  -2.862   9.204  1.00  0.00     0.059 A 
ATOM     31 CL29 UNL A   1     -19.239  -2.333   8.426  1.00  0.00    -0.082 Cl
ATOM     32  C30 UNL A   1     -17.594  -2.588  10.553  1.00  0.00     0.024 A 
ATOM     33  C31 UNL A   1     -16.397  -2.966  11.182  1.00  0.00     0.076 A 
ATOM     34 CL32 UNL A   1     -16.237  -2.431  12.823  1.00  0.00    -0.081 Cl
ENDBRANCH   6  27
TORSDOF 6
BEGIN_RES SER A 173
REMARK  2 active torsions:
REMARK  status: ('A' for Active; 'I' for Inactive)
REMARK    1  A    between atoms: CA   and  CB  
REMARK    2  A    between atoms: CB   and  OG  
ROOT
ATOM      1  CA  SER A 173      -4.540 -11.597  11.543  1.00127.03     0.292 C 
ENDROOT
BRANCH   1   2
ATOM      2  CB  SER A 173      -4.003 -10.168  11.569  1.00131.20     0.194 C 
BRANCH   2   3
ATOM      3  OG  SER A 173      -3.934  -9.669  12.893  1.00137.49    -0.550 OA
ATOM      4  HG  SER A 173      -3.164  -9.995  13.345  1.00  0.00     0.310 HD
ENDBRANCH   2   3
ENDBRANCH   1   2
END_RES SER A 173
BEGIN_RES SER A 383
REMARK  2 active torsions:
REMARK  status: ('A' for Active; 'I' for Inactive)
REMARK    3  A    between atoms: CA   and  CB  
REMARK    4  A    between atoms: CB   and  OG  
ROOT
ATOM      5  CA  SER A 383      -8.934   0.934   8.031  1.00 88.23     0.292 C 
ENDROOT
BRANCH   5   6
ATOM      6  CB  SER A 383      -8.589   0.249   9.352  1.00 82.13     0.194 C 
BRANCH   6   7
ATOM      7  OG  SER A 383      -7.331   0.682   9.837  1.00 85.59    -0.550 OA
ATOM      8  HG  SER A 383      -6.846   1.145   9.164  1.00  0.00     0.310 HD
ENDBRANCH   6   7
ENDBRANCH   5   6
END_RES SER A 383
ENDMDL
MODEL 4
REMARK VINA RESULT:    -9.124      5.392     12.231
REMARK INTER + INTRA:          -3.484
REMARK INTER:                 -12.299
REMARK INTRA:                   8.815
REMARK UNBOUND:                 8.840
REMARK  6 active torsions:
REMARK  status: ('A' for Active; 'I' for Inactive)
REMARK    1  A    between atoms: C2_2  and  C3_3 
REMARK    2  A    between atoms: C4_4  and  C5_5 
REMARK    3  A    between atoms: C8_8  and  C9_9 
REMARK    4  A    between atoms: C12_12  and  C13_13 
REMARK       I    between atoms: C13_13  and  N15_15 
REMARK    5  A    between atoms: N15_15  and  N16_16 
REMARK    6  A    between atoms: N24_24  and  C25_25 
ROOT
ATOM      1  C9  UNL A   1     -13.754  -5.110  12.274  1.00  0.00     0.086 A 
ATOM      2  C10 UNL A   1     -12.493  -5.151  11.669  1.00  0.00     0.020 A 
ATOM      3  C11 UNL A   1     -11.693  -6.323  11.201  1.00  0.00     0.034 C 
ATOM      4  C12 UNL A   1     -12.080  -3.793  11.524  1.00  0.00     0.155 A 
ATOM      5  N23 UNL A   1     -13.042  -2.958  11.936  1.00  0.00    -0.161 NA
ATOM      6  N24 UNL A   1     -14.064  -3.742  12.387  1.00  0.00    -0.229 N 
ENDROOT
BRANCH   4   7
ATOM      7  C13 UNL A   1     -10.780  -3.320  10.978  1.00  0.00     0.287 C 
ATOM      8  O14 UNL A   1     -10.683  -2.841   9.849  1.00  0.00    -0.265 OA
ATOM      9  N15 UNL A   1      -9.701  -3.465  11.850  1.00  0.00    -0.282 N 
ATOM     10  H34 UNL A   1      -9.867  -3.861  12.736  1.00  0.00     0.184 HD
BRANCH   9  11
ATOM     11  N16 UNL A   1      -8.362  -3.067  11.525  1.00  0.00    -0.199 NA
ATOM     12  C17 UNL A   1      -7.522  -2.877  12.714  1.00  0.00     0.094 C 
ATOM     13  C18 UNL A   1      -6.515  -1.734  12.521  1.00  0.00     0.019 C 
ATOM     14  C19 UNL A   1      -5.285  -2.064  11.681  1.00  0.00     0.002 C 
ATOM     15  C20 UNL A   1      -5.584  -2.593  10.284  1.00  0.00     0.002 C 
ATOM     16  C21 UNL A   1      -6.262  -3.956  10.312  1.00  0.00     0.019 C 
ATOM     17  C22 UNL A   1      -7.788  -3.916  10.471  1.00  0.00     0.094 C 
ENDBRANCH   9  11
ENDBRANCH   4   7
BRANCH   1  18
ATOM     18  C8  UNL A   1     -14.614  -6.251  12.568  1.00  0.00     0.048 C 
ATOM     19  C7  UNL A   1     -14.920  -7.363  11.799  1.00  0.00     0.009 C 
ATOM     20  C6  UNL A   1     -15.601  -8.387  12.538  1.00  0.00     0.015 C 
ATOM     21  C5  UNL A   1     -15.739  -8.047  13.863  1.00  0.00     0.071 C 
ATOM     22  S33 UNL A   1     -15.430  -6.385  14.087  1.00  0.00    -0.077 SA
BRANCH  21  23
ATOM     23  C4  UNL A   1     -16.076  -8.927  14.932  1.00  0.00    -0.058 C 
ATOM     24  C3  UNL A   1     -16.418  -9.720  15.778  1.00  0.00    -0.086 C 
BRANCH  24  25
ATOM     25  C2  UNL A   1     -16.788 -10.718  16.790  1.00  0.00     0.076 C 
ATOM     26  C1  UNL A   1     -17.053 -12.095  16.203  1.00  0.00     0.015 C 
ENDBRANCH  24  25
ENDBRANCH  21  23
ENDBRANCH   1  18
BRANCH   6  27
ATOM     27  C25 UNL A   1     -15.230  -3.114  12.938  1.00  0.00     0.093 A 
ATOM     28  C26 UNL A   1     -16.397  -3.023  12.156  1.00  0.00     0.021 A 
ATOM     29  C27 UNL A   1     -17.515  -2.315  12.607  1.00  0.00     0.013 A 
ATOM     30  C28 UNL A   1     -17.508  -1.746  13.873  1.00  0.00     0.059 A 
ATOM     31 CL29 UNL A   1     -18.874  -0.854  14.418  1.00  0.00    -0.082 Cl
ATOM     32  C30 UNL A   1     -16.396  -1.889  14.696  1.00  0.00     0.024 A 
ATOM     33  C31 UNL A   1     -15.253  -2.568  14.238  1.00  0.00     0.076 A 
ATOM     34 CL32 UNL A   1     -13.906  -2.539  15.327  1.00  0.00    -0.081 Cl
ENDBRANCH   6  27
TORSDOF 6
BEGIN_RES SER A 173
REMARK  2 active torsions:
REMARK  status: ('A' for Active; 'I' for Inactive)
REMARK    1  A    between atoms: CA   and  CB  
REMARK    2  A    between atoms: CB   and  OG  
ROOT
ATOM      1  CA  SER A 173      -4.540 -11.597  11.543  1.00127.03     0.292 C 
ENDROOT
BRANCH   1   2
ATOM      2  CB  SER A 173      -4.003 -10.168  11.569  1.00131.20     0.194 C 
BRANCH   2   3
ATOM      3  OG  SER A 173      -3.940  -9.666  12.893  1.00137.49    -0.550 OA
ATOM      4  HG  SER A 173      -3.050  -9.440  13.134  1.00  0.00     0.310 HD
ENDBRANCH   2   3
ENDBRANCH   1   2
END_RES SER A 173
BEGIN_RES SER A 383
REMARK  2 active torsions:
REMARK  status: ('A' for Active; 'I' for Inactive)
REMARK    3  A    between atoms: CA   and  CB  
REMARK    4  A    between atoms: CB   and  OG  
ROOT
ATOM      5  CA  SER A 383      -8.934   0.934   8.031  1.00 88.23     0.292 C 
ENDROOT
BRANCH   5   6
ATOM      6  CB  SER A 383      -8.589   0.249   9.352  1.00 82.13     0.194 C 
BRANCH   6   7
ATOM      7  OG  SER A 383      -7.310   0.645   9.813  1.00 85.59    -0.550 OA
ATOM      8  HG  SER A 383      -7.134   1.553   9.594  1.00  0.00     0.310 HD
ENDBRANCH   6   7
ENDBRANCH   5   6
END_RES SER A 383
ENDMDL
MODEL 5
REMARK VINA RESULT:    -9.010      3.826      6.502
REMARK INTER + INTRA:          -3.330
REMARK INTER:                 -12.568
REMARK INTRA:                   9.238
REMARK UNBOUND:                 8.840
REMARK  6 active torsions:
REMARK  status: ('A' for Active; 'I' for Inactive)
REMARK    1  A    between atoms: C2_2  and  C3_3 
REMARK    2  A    between atoms: C4_4  and  C5_5 
REMARK    3  A    between atoms: C8_8  and  C9_9 
REMARK    4  A    between atoms: C12_12  and  C13_13 
REMARK       I    between atoms: C13_13  and  N15_15 
REMARK    5  A    between atoms: N15_15  and  N16_16 
REMARK    6  A    between atoms: N24_24  and  C25_25 
ROOT
ATOM      1  C9  UNL A   1      -5.694  -2.584  10.190  1.00  0.00     0.086 A 
ATOM      2  C10 UNL A   1      -6.391  -2.951  11.347  1.00  0.00     0.020 A 
ATOM      3  C11 UNL A   1      -7.540  -3.891  11.514  1.00  0.00     0.034 C 
ATOM      4  C12 UNL A   1      -5.758  -2.263  12.424  1.00  0.00     0.155 A 
ATOM      5  N23 UNL A   1      -4.695  -1.576  11.990  1.00  0.00    -0.161 NA
ATOM      6  N24 UNL A   1      -4.640  -1.766  10.640  1.00  0.00    -0.229 N 
ENDROOT
BRANCH   4   7
ATOM      7  C13 UNL A   1      -6.173  -2.290  13.853  1.00  0.00     0.287 C 
ATOM      8  O14 UNL A   1      -7.023  -3.075  14.269  1.00  0.00    -0.265 OA
ATOM      9  N15 UNL A   1      -5.519  -1.359  14.661  1.00  0.00    -0.282 N 
ATOM     10  H34 UNL A   1      -4.853  -0.766  14.244  1.00  0.00     0.184 HD
BRANCH   9  11
ATOM     11  N16 UNL A   1      -5.765  -1.222  16.067  1.00  0.00    -0.199 NA
ATOM     12  C17 UNL A   1      -4.552  -1.402  16.876  1.00  0.00     0.094 C 
ATOM     13  C18 UNL A   1      -4.859  -2.086  18.215  1.00  0.00     0.019 C 
ATOM     14  C19 UNL A   1      -5.470  -1.196  19.293  1.00  0.00     0.002 C 
ATOM     15  C20 UNL A   1      -6.754  -0.484  18.889  1.00  0.00     0.002 C 
ATOM     16  C21 UNL A   1      -6.525   0.546  17.790  1.00  0.00     0.019 C 
ATOM     17  C22 UNL A   1      -6.551  -0.015  16.362  1.00  0.00     0.094 C 
ENDBRANCH   9  11
ENDBRANCH   4   7
BRANCH   1  18
ATOM     18  C8  UNL A   1      -5.928  -3.083   8.839  1.00  0.00     0.048 C 
ATOM     19  C7  UNL A   1      -7.062  -3.016   8.044  1.00  0.00     0.009 C 
ATOM     20  C6  UNL A   1      -6.816  -3.396   6.683  1.00  0.00     0.015 C 
ATOM     21  C5  UNL A   1      -5.488  -3.684   6.470  1.00  0.00     0.071 C 
ATOM     22  S33 UNL A   1      -4.677  -3.887   7.957  1.00  0.00    -0.077 SA
BRANCH  21  23
ATOM     23  C4  UNL A   1      -4.838  -3.793   5.206  1.00  0.00    -0.058 C 
ATOM     24  C3  UNL A   1      -4.371  -3.873   4.095  1.00  0.00    -0.086 C 
BRANCH  24  25
ATOM     25  C2  UNL A   1      -3.796  -3.913   2.744  1.00  0.00     0.076 C 
ATOM     26  C1  UNL A   1      -2.505  -3.120   2.621  1.00  0.00     0.015 C 
ENDBRANCH  24  25
ENDBRANCH  21  23
ENDBRANCH   1  18
BRANCH   6  27
ATOM     27  C25 UNL A   1      -3.614  -1.105   9.885  1.00  0.00     0.093 A 
ATOM     28  C26 UNL A   1      -2.266  -1.307  10.233  1.00  0.00     0.021 A 
ATOM     29  C27 UNL A   1      -1.243  -0.590   9.605  1.00  0.00     0.013 A 
ATOM     30  C28 UNL A   1      -1.547   0.287   8.574  1.00  0.00     0.059 A 
ATOM     31 CL29 UNL A   1      -0.291   1.187   7.817  1.00  0.00    -0.082 Cl
ATOM     32  C30 UNL A   1      -2.865   0.446   8.158  1.00  0.00     0.024 A 
ATOM     33  C31 UNL A   1      -3.904  -0.242   8.808  1.00  0.00     0.076 A 
ATOM     34 CL32 UNL A   1      -5.498   0.168   8.265  1.00  0.00    -0.081 Cl
ENDBRANCH   6  27
TORSDOF 6
BEGIN_RES SER A 173
REMARK  2 active torsions:
REMARK  status: ('A' for Active; 'I' for Inactive)
REMARK    1  A    between atoms: CA   and  CB  
REMARK    2  A    between atoms: CB   and  OG  
ROOT
ATOM      1  CA  SER A 173      -4.540 -11.597  11.543  1.00127.03     0.292 C 
ENDROOT
BRANCH   1   2
ATOM      2  CB  SER A 173      -4.003 -10.168  11.569  1.00131.20     0.194 C 
BRANCH   2   3
ATOM      3  OG  SER A 173      -3.922  -9.673  12.894  1.00137.49    -0.550 OA
ATOM      4  HG  SER A 173      -4.646  -9.986  13.424  1.00  0.00     0.310 HD
ENDBRANCH   2   3
ENDBRANCH   1   2
END_RES SER A 173
BEGIN_RES SER A 383
REMARK  2 active torsions:
REMARK  status: ('A' for Active; 'I' for Inactive)
REMARK    3  A    between atoms: CA   and  CB  
REMARK    4  A    between atoms: CB   and  OG  
ROOT
ATOM      5  CA  SER A 383      -8.934   0.934   8.031  1.00 88.23     0.292 C 
ENDROOT
BRANCH   5   6
ATOM      6  CB  SER A 383      -8.589   0.249   9.352  1.00 82.13     0.194 C 
BRANCH   6   7
ATOM      7  OG  SER A 383      -7.959   1.150  10.244  1.00 85.59    -0.550 OA
ATOM      8  HG  SER A 383      -8.112   2.052   9.984  1.00  0.00     0.310 HD
ENDBRANCH   6   7
ENDBRANCH   5   6
END_RES SER A 383
ENDMDL
