MODEL 1
REMARK VINA RESULT:   -11.036      0.000      0.000
REMARK INTER + INTRA:          -8.188
REMARK INTER:                 -16.842
REMARK INTRA:                   8.654
REMARK UNBOUND:                 8.654
REMARK  9 active torsions:
REMARK  status: ('A' for Active; 'I' for Inactive)
REMARK    1  A    between atoms: C2_2  and  C3_3 
REMARK    2  A    between atoms: C3_3  and  C4_4 
REMARK    3  A    between atoms: C4_4  and  C5_5 
REMARK    4  A    between atoms: C5_5  and  C6_6 
REMARK    5  A    between atoms: C6_6  and  C7_7 
REMARK    6  A    between atoms: C10_10  and  C11_11 
REMARK    7  A    between atoms: C14_14  and  C15_15 
REMARK       I    between atoms: C15_15  and  N17_17 
REMARK    8  A    between atoms: N17_17  and  N18_18 
REMARK    9  A    between atoms: N26_26  and  C27_27 
ROOT
ATOM      1  C11 UNL A   1      -5.083  -2.001   9.231  1.00  0.00     0.086 A 
ATOM      2  C12 UNL A   1      -5.812  -1.967  10.415  1.00  0.00     0.020 A 
ATOM      3  C13 UNL A   1      -5.572  -1.086  11.585  1.00  0.00     0.034 C 
ATOM      4  C14 UNL A   1      -6.861  -2.931  10.275  1.00  0.00     0.155 A 
ATOM      5  N25 UNL A   1      -6.805  -3.484   9.038  1.00  0.00    -0.161 NA
ATOM      6  N26 UNL A   1      -5.726  -2.923   8.399  1.00  0.00    -0.229 N 
ENDROOT
BRANCH   1   7
ATOM      7  C10 UNL A   1      -4.001  -1.105   8.894  1.00  0.00     0.048 C 
ATOM      8  C9  UNL A   1      -3.988   0.003   8.077  1.00  0.00     0.009 C 
ATOM      9  C8  UNL A   1      -2.838   0.821   8.301  1.00  0.00     0.015 C 
ATOM     10  C7  UNL A   1      -2.036   0.316   9.290  1.00  0.00     0.071 C 
ATOM     11  S35 UNL A   1      -2.454  -1.280   9.607  1.00  0.00    -0.077 SA
BRANCH  10  12
ATOM     12  C6  UNL A   1      -0.913   0.900   9.898  1.00  0.00    -0.058 C 
BRANCH  12  13
ATOM     13  C5  UNL A   1       0.155   1.510  10.329  1.00  0.00    -0.086 C 
BRANCH  13  14
ATOM     14  C4  UNL A   1       1.400   2.223  10.832  1.00  0.00     0.076 C 
BRANCH  14  15
ATOM     15  C3  UNL A   1       1.479   2.122  12.349  1.00  0.00     0.014 C 
BRANCH  15  16
ATOM     16  C2  UNL A   1       2.928   2.159  12.826  1.00  0.00     0.001 C 
ATOM     17  C1  UNL A   1       3.821   1.331  11.919  1.00  0.00     0.000 C 
ENDBRANCH  15  16
ENDBRANCH  14  15
ENDBRANCH  13  14
ENDBRANCH  12  13
ENDBRANCH  10  12
ENDBRANCH   1   7
BRANCH   6  18
ATOM     18  C27 UNL A   1      -5.348  -3.345   7.071  1.00  0.00     0.093 A 
ATOM     19  C28 UNL A   1      -5.606  -2.510   5.960  1.00  0.00     0.021 A 
ATOM     20  C29 UNL A   1      -5.305  -2.913   4.649  1.00  0.00     0.013 A 
ATOM     21  C30 UNL A   1      -4.706  -4.144   4.432  1.00  0.00     0.059 A 
ATOM     22 CL31 UNL A   1      -4.335  -4.644   2.830  1.00  0.00    -0.082 Cl
ATOM     23  C32 UNL A   1      -4.413  -4.976   5.509  1.00  0.00     0.024 A 
ATOM     24  C33 UNL A   1      -4.722  -4.581   6.826  1.00  0.00     0.076 A 
ATOM     25 CL34 UNL A   1      -4.406  -5.755   8.053  1.00  0.00    -0.081 Cl
ENDBRANCH   6  18
BRANCH   4  26
ATOM     26  C15 UNL A   1      -7.901  -3.316  11.279  1.00  0.00     0.287 C 
ATOM     27  O16 UNL A   1      -7.647  -3.310  12.520  1.00  0.00    -0.265 OA
ATOM     28  N17 UNL A   1      -9.155  -3.666  10.776  1.00  0.00    -0.282 N 
ATOM     29  H36 UNL A   1      -9.274  -3.655   9.798  1.00  0.00     0.184 HD
BRANCH  28  30
ATOM     30  N18 UNL A   1     -10.285  -4.038  11.580  1.00  0.00    -0.199 NA
ATOM     31  C19 UNL A   1     -11.526  -3.461  11.052  1.00  0.00     0.094 C 
ATOM     32  C20 UNL A   1     -12.486  -3.093  12.184  1.00  0.00     0.019 C 
ATOM     33  C21 UNL A   1     -13.249  -4.259  12.806  1.00  0.00     0.002 C 
ATOM     34  C22 UNL A   1     -12.378  -5.408  13.307  1.00  0.00     0.002 C 
ATOM     35  C23 UNL A   1     -11.667  -6.131  12.170  1.00  0.00     0.019 C 
ATOM     36  C24 UNL A   1     -10.331  -5.498  11.767  1.00  0.00     0.094 C 
ENDBRANCH  28  30
ENDBRANCH   4  26
TORSDOF 9
BEGIN_RES SER A 173
REMARK  2 active torsions:
REMARK  status: ('A' for Active; 'I' for Inactive)
REMARK    1  A    between atoms: CA   and  CB  
REMARK    2  A    between atoms: CB   and  OG  
ROOT
ATOM      1  CA  SER A 173      -4.540 -11.597  11.543  1.00127.03     0.292 C 
ENDROOT
BRANCH   1   2
ATOM      2  CB  SER A 173      -4.003 -10.168  11.569  1.00131.20     0.194 C 
BRANCH   2   3
ATOM      3  OG  SER A 173      -3.955  -9.661  12.891  1.00137.49    -0.550 OA
ATOM      4  HG  SER A 173      -4.828  -9.506  13.233  1.00  0.00     0.310 HD
ENDBRANCH   2   3
ENDBRANCH   1   2
END_RES SER A 173
BEGIN_RES SER A 383
REMARK  2 active torsions:
REMARK  status: ('A' for Active; 'I' for Inactive)
REMARK    3  A    between atoms: CA   and  CB  
REMARK    4  A    between atoms: CB   and  OG  
ROOT
ATOM      5  CA  SER A 383      -8.934   0.934   8.031  1.00 88.23     0.292 C 
ENDROOT
BRANCH   5   6
ATOM      6  CB  SER A 383      -8.589   0.249   9.352  1.00 82.13     0.194 C 
BRANCH   6   7
ATOM      7  OG  SER A 383      -7.770   1.078  10.157  1.00 85.59    -0.550 OA
ATOM      8  HG  SER A 383      -7.340   1.744   9.634  1.00  0.00     0.310 HD
ENDBRANCH   6   7
ENDBRANCH   5   6
END_RES SER A 383
ENDMDL
MODEL 2
REMARK VINA RESULT:   -10.664      1.427      2.107
REMARK INTER + INTRA:          -7.620
REMARK INTER:                 -16.462
REMARK INTRA:                   8.842
REMARK UNBOUND:                 8.654
REMARK  9 active torsions:
REMARK  status: ('A' for Active; 'I' for Inactive)
REMARK    1  A    between atoms: C2_2  and  C3_3 
REMARK    2  A    between atoms: C3_3  and  C4_4 
REMARK    3  A    between atoms: C4_4  and  C5_5 
REMARK    4  A    between atoms: C5_5  and  C6_6 
REMARK    5  A    between atoms: C6_6  and  C7_7 
REMARK    6  A    between atoms: C10_10  and  C11_11 
REMARK    7  A    between atoms: C14_14  and  C15_15 
REMARK       I    between atoms: C15_15  and  N17_17 
REMARK    8  A    between atoms: N17_17  and  N18_18 
REMARK    9  A    between atoms: N26_26  and  C27_27 
ROOT
ATOM      1  C11 UNL A   1      -6.009  -2.720   9.918  1.00  0.00     0.086 A 
ATOM      2  C12 UNL A   1      -7.045  -2.812  10.842  1.00  0.00     0.020 A 
ATOM      3  C13 UNL A   1      -7.053  -2.286  12.229  1.00  0.00     0.034 C 
ATOM      4  C14 UNL A   1      -8.119  -3.490  10.181  1.00  0.00     0.155 A 
ATOM      5  N25 UNL A   1      -7.770  -3.747   8.896  1.00  0.00    -0.161 NA
ATOM      6  N26 UNL A   1      -6.488  -3.282   8.732  1.00  0.00    -0.229 N 
ENDROOT
BRANCH   1   7
ATOM      7  C10 UNL A   1      -4.771  -2.003  10.126  1.00  0.00     0.048 C 
ATOM      8  C9  UNL A   1      -3.575  -2.433  10.654  1.00  0.00     0.009 C 
ATOM      9  C8  UNL A   1      -2.502  -1.541  10.344  1.00  0.00     0.015 C 
ATOM     10  C7  UNL A   1      -2.919  -0.485   9.578  1.00  0.00     0.071 C 
ATOM     11  S35 UNL A   1      -4.595  -0.379   9.615  1.00  0.00    -0.077 SA
BRANCH  10  12
ATOM     12  C6  UNL A   1      -2.149   0.507   8.950  1.00  0.00    -0.058 C 
BRANCH  12  13
ATOM     13  C5  UNL A   1      -1.345   1.425   8.491  1.00  0.00    -0.086 C 
BRANCH  13  14
ATOM     14  C4  UNL A   1      -0.408   2.496   7.956  1.00  0.00     0.076 C 
BRANCH  14  15
ATOM     15  C3  UNL A   1       0.850   2.558   8.810  1.00  0.00     0.014 C 
BRANCH  15  16
ATOM     16  C2  UNL A   1       0.569   2.094  10.236  1.00  0.00     0.001 C 
ATOM     17  C1  UNL A   1       1.753   2.374  11.143  1.00  0.00     0.000 C 
ENDBRANCH  15  16
ENDBRANCH  14  15
ENDBRANCH  13  14
ENDBRANCH  12  13
ENDBRANCH  10  12
ENDBRANCH   1   7
BRANCH   6  18
ATOM     18  C27 UNL A   1      -5.789  -3.456   7.479  1.00  0.00     0.093 A 
ATOM     19  C28 UNL A   1      -6.004  -2.553   6.414  1.00  0.00     0.021 A 
ATOM     20  C29 UNL A   1      -5.387  -2.727   5.165  1.00  0.00     0.013 A 
ATOM     21  C30 UNL A   1      -4.515  -3.787   4.973  1.00  0.00     0.059 A 
ATOM     22 CL31 UNL A   1      -3.756  -4.005   3.446  1.00  0.00    -0.082 Cl
ATOM     23  C32 UNL A   1      -4.262  -4.677   6.013  1.00  0.00     0.024 A 
ATOM     24  C33 UNL A   1      -4.886  -4.514   7.266  1.00  0.00     0.076 A 
ATOM     25 CL34 UNL A   1      -4.567  -5.752   8.428  1.00  0.00    -0.081 Cl
ENDBRANCH   6  18
BRANCH   4  26
ATOM     26  C15 UNL A   1      -9.450  -3.880  10.743  1.00  0.00     0.287 C 
ATOM     27  O16 UNL A   1      -9.548  -4.778  11.632  1.00  0.00    -0.265 OA
ATOM     28  N17 UNL A   1     -10.561  -3.196  10.248  1.00  0.00    -0.282 N 
ATOM     29  H36 UNL A   1     -10.406  -2.517   9.552  1.00  0.00     0.184 HD
BRANCH  28  30
ATOM     30  N18 UNL A   1     -11.913  -3.409  10.680  1.00  0.00    -0.199 NA
ATOM     31  C19 UNL A   1     -12.264  -4.834  10.646  1.00  0.00     0.094 C 
ATOM     32  C20 UNL A   1     -13.730  -5.030  10.257  1.00  0.00     0.019 C 
ATOM     33  C21 UNL A   1     -14.746  -4.767  11.366  1.00  0.00     0.002 C 
ATOM     34  C22 UNL A   1     -14.635  -3.400  12.035  1.00  0.00     0.002 C 
ATOM     35  C23 UNL A   1     -13.338  -3.246  12.820  1.00  0.00     0.019 C 
ATOM     36  C24 UNL A   1     -12.153  -2.760  11.979  1.00  0.00     0.094 C 
ENDBRANCH  28  30
ENDBRANCH   4  26
TORSDOF 9
BEGIN_RES SER A 173
REMARK  2 active torsions:
REMARK  status: ('A' for Active; 'I' for Inactive)
REMARK    1  A    between atoms: CA   and  CB  
REMARK    2  A    between atoms: CB   and  OG  
ROOT
ATOM      1  CA  SER A 173      -4.540 -11.597  11.543  1.00127.03     0.292 C 
ENDROOT
BRANCH   1   2
ATOM      2  CB  SER A 173      -4.003 -10.168  11.569  1.00131.20     0.194 C 
BRANCH   2   3
ATOM      3  OG  SER A 173      -3.939  -9.667  12.893  1.00137.49    -0.550 OA
ATOM      4  HG  SER A 173      -4.532  -8.935  13.013  1.00  0.00     0.310 HD
ENDBRANCH   2   3
ENDBRANCH   1   2
END_RES SER A 173
BEGIN_RES SER A 383
REMARK  2 active torsions:
REMARK  status: ('A' for Active; 'I' for Inactive)
REMARK    3  A    between atoms: CA   and  CB  
REMARK    4  A    between atoms: CB   and  OG  
ROOT
ATOM      5  CA  SER A 383      -8.934   0.934   8.031  1.00 88.23     0.292 C 
ENDROOT
BRANCH   5   6
ATOM      6  CB  SER A 383      -8.589   0.249   9.352  1.00 82.13     0.194 C 
BRANCH   6   7
ATOM      7  OG  SER A 383      -7.742   1.063  10.142  1.00 85.59    -0.550 OA
ATOM      8  HG  SER A 383      -6.894   0.652  10.269  1.00  0.00     0.310 HD
ENDBRANCH   6   7
ENDBRANCH   5   6
END_RES SER A 383
ENDMDL
MODEL 3
REMARK VINA RESULT:    -8.443      5.956     12.894
REMARK INTER + INTRA:          -4.231
REMARK INTER:                 -12.818
REMARK INTRA:                   8.587
REMARK UNBOUND:                 8.654
REMARK  9 active torsions:
REMARK  status: ('A' for Active; 'I' for Inactive)
REMARK    1  A    between atoms: C2_2  and  C3_3 
REMARK    2  A    between atoms: C3_3  and  C4_4 
REMARK    3  A    between atoms: C4_4  and  C5_5 
REMARK    4  A    between atoms: C5_5  and  C6_6 
REMARK    5  A    between atoms: C6_6  and  C7_7 
REMARK    6  A    between atoms: C10_10  and  C11_11 
REMARK    7  A    between atoms: C14_14  and  C15_15 
REMARK       I    between atoms: C15_15  and  N17_17 
REMARK    8  A    between atoms: N17_17  and  N18_18 
REMARK    9  A    between atoms: N26_26  and  C27_27 
ROOT
ATOM      1  C11 UNL A   1     -13.964  -4.806  13.019  1.00  0.00     0.086 A 
ATOM      2  C12 UNL A   1     -12.717  -4.974  12.427  1.00  0.00     0.020 A 
ATOM      3  C13 UNL A   1     -11.931  -6.230  12.344  1.00  0.00     0.034 C 
ATOM      4  C14 UNL A   1     -12.349  -3.701  11.886  1.00  0.00     0.155 A 
ATOM      5  N25 UNL A   1     -13.355  -2.815  12.091  1.00  0.00    -0.161 NA
ATOM      6  N26 UNL A   1     -14.339  -3.481  12.780  1.00  0.00    -0.229 N 
ENDROOT
BRANCH   1   7
ATOM      7  C10 UNL A   1     -14.765  -5.867  13.587  1.00  0.00     0.048 C 
ATOM      8  C9  UNL A   1     -15.302  -6.987  12.994  1.00  0.00     0.009 C 
ATOM      9  C8  UNL A   1     -15.701  -7.965  13.959  1.00  0.00     0.015 C 
ATOM     10  C7  UNL A   1     -15.433  -7.559  15.239  1.00  0.00     0.071 C 
ATOM     11  S35 UNL A   1     -15.116  -5.910  15.262  1.00  0.00    -0.077 SA
BRANCH  10  12
ATOM     12  C6  UNL A   1     -15.533  -8.289  16.434  1.00  0.00    -0.058 C 
BRANCH  12  13
ATOM     13  C5  UNL A   1     -15.537  -8.861  17.605  1.00  0.00    -0.086 C 
BRANCH  13  14
ATOM     14  C4  UNL A   1     -15.541  -9.528  18.971  1.00  0.00     0.076 C 
BRANCH  14  15
ATOM     15  C3  UNL A   1     -14.131  -9.543  19.545  1.00  0.00     0.014 C 
BRANCH  15  16
ATOM     16  C2  UNL A   1     -13.098  -9.799  18.452  1.00  0.00     0.001 C 
ATOM     17  C1  UNL A   1     -12.792 -11.281  18.328  1.00  0.00     0.000 C 
ENDBRANCH  15  16
ENDBRANCH  14  15
ENDBRANCH  13  14
ENDBRANCH  12  13
ENDBRANCH  10  12
ENDBRANCH   1   7
BRANCH   6  18
ATOM     18  C27 UNL A   1     -15.535  -2.798  13.213  1.00  0.00     0.093 A 
ATOM     19  C28 UNL A   1     -16.683  -2.783  12.388  1.00  0.00     0.021 A 
ATOM     20  C29 UNL A   1     -17.842  -2.080  12.751  1.00  0.00     0.013 A 
ATOM     21  C30 UNL A   1     -17.886  -1.411  13.964  1.00  0.00     0.059 A 
ATOM     22 CL31 UNL A   1     -19.303  -0.548  14.415  1.00  0.00    -0.082 Cl
ATOM     23  C32 UNL A   1     -16.781  -1.431  14.811  1.00  0.00     0.024 A 
ATOM     24  C33 UNL A   1     -15.611  -2.127  14.447  1.00  0.00     0.076 A 
ATOM     25 CL34 UNL A   1     -14.281  -1.976  15.540  1.00  0.00    -0.081 Cl
ENDBRANCH   6  18
BRANCH   4  26
ATOM     26  C15 UNL A   1     -11.083  -3.328  11.182  1.00  0.00     0.287 C 
ATOM     27  O16 UNL A   1     -11.082  -3.031   9.950  1.00  0.00    -0.265 OA
ATOM     28  N17 UNL A   1      -9.920  -3.314  11.953  1.00  0.00    -0.282 N 
ATOM     29  H36 UNL A   1      -9.999  -3.566  12.902  1.00  0.00     0.184 HD
BRANCH  28  30
ATOM     30  N18 UNL A   1      -8.618  -2.959  11.465  1.00  0.00    -0.199 NA
ATOM     31  C19 UNL A   1      -7.648  -2.861  12.561  1.00  0.00     0.094 C 
ATOM     32  C20 UNL A   1      -6.624  -1.757  12.293  1.00  0.00     0.019 C 
ATOM     33  C21 UNL A   1      -5.521  -2.110  11.298  1.00  0.00     0.002 C 
ATOM     34  C22 UNL A   1      -6.008  -2.614   9.943  1.00  0.00     0.002 C 
ATOM     35  C23 UNL A   1      -6.713  -3.961  10.048  1.00  0.00     0.019 C 
ATOM     36  C24 UNL A   1      -8.207  -3.860  10.376  1.00  0.00     0.094 C 
ENDBRANCH  28  30
ENDBRANCH   4  26
TORSDOF 9
BEGIN_RES SER A 173
REMARK  2 active torsions:
REMARK  status: ('A' for Active; 'I' for Inactive)
REMARK    1  A    between atoms: CA   and  CB  
REMARK    2  A    between atoms: CB   and  OG  
ROOT
ATOM      1  CA  SER A 173      -4.540 -11.597  11.543  1.00127.03     0.292 C 
ENDROOT
BRANCH   1   2
ATOM      2  CB  SER A 173      -4.003 -10.168  11.569  1.00131.20     0.194 C 
BRANCH   2   3
ATOM      3  OG  SER A 173      -3.937  -9.668  12.893  1.00137.49    -0.550 OA
ATOM      4  HG  SER A 173      -4.112  -8.735  12.918  1.00  0.00     0.310 HD
ENDBRANCH   2   3
ENDBRANCH   1   2
END_RES SER A 173
BEGIN_RES SER A 383
REMARK  2 active torsions:
REMARK  status: ('A' for Active; 'I' for Inactive)
REMARK    3  A    between atoms: CA   and  CB  
REMARK    4  A    between atoms: CB   and  OG  
ROOT
ATOM      5  CA  SER A 383      -8.934   0.934   8.031  1.00 88.23     0.292 C 
ENDROOT
BRANCH   5   6
ATOM      6  CB  SER A 383      -8.589   0.249   9.352  1.00 82.13     0.194 C 
BRANCH   6   7
ATOM      7  OG  SER A 383      -7.335   0.688   9.841  1.00 85.59    -0.550 OA
ATOM      8  HG  SER A 383      -6.634   0.122   9.541  1.00  0.00     0.310 HD
ENDBRANCH   6   7
ENDBRANCH   5   6
END_RES SER A 383
ENDMDL
MODEL 4
REMARK VINA RESULT:    -8.412      5.837     12.607
REMARK INTER + INTRA:          -4.183
REMARK INTER:                 -12.491
REMARK INTRA:                   8.307
REMARK UNBOUND:                 8.654
REMARK  9 active torsions:
REMARK  status: ('A' for Active; 'I' for Inactive)
REMARK    1  A    between atoms: C2_2  and  C3_3 
REMARK    2  A    between atoms: C3_3  and  C4_4 
REMARK    3  A    between atoms: C4_4  and  C5_5 
REMARK    4  A    between atoms: C5_5  and  C6_6 
REMARK    5  A    between atoms: C6_6  and  C7_7 
REMARK    6  A    between atoms: C10_10  and  C11_11 
REMARK    7  A    between atoms: C14_14  and  C15_15 
REMARK       I    between atoms: C15_15  and  N17_17 
REMARK    8  A    between atoms: N17_17  and  N18_18 
REMARK    9  A    between atoms: N26_26  and  C27_27 
ROOT
ATOM      1  C11 UNL A   1     -13.825  -4.939  11.797  1.00  0.00     0.086 A 
ATOM      2  C12 UNL A   1     -12.488  -4.780  12.145  1.00  0.00     0.020 A 
ATOM      3  C13 UNL A   1     -11.658  -5.712  12.948  1.00  0.00     0.034 C 
ATOM      4  C14 UNL A   1     -12.056  -3.550  11.551  1.00  0.00     0.155 A 
ATOM      5  N25 UNL A   1     -13.072  -3.017  10.827  1.00  0.00    -0.161 NA
ATOM      6  N26 UNL A   1     -14.149  -3.856  10.974  1.00  0.00    -0.229 N 
ENDROOT
BRANCH   1   7
ATOM      7  C10 UNL A   1     -14.627  -6.106  12.087  1.00  0.00     0.048 C 
ATOM      8  C9  UNL A   1     -14.742  -7.295  11.404  1.00  0.00     0.009 C 
ATOM      9  C8  UNL A   1     -15.337  -8.318  12.207  1.00  0.00     0.015 C 
ATOM     10  C7  UNL A   1     -15.628  -7.873  13.469  1.00  0.00     0.071 C 
ATOM     11  S35 UNL A   1     -15.573  -6.195  13.511  1.00  0.00    -0.077 SA
BRANCH  10  12
ATOM     12  C6  UNL A   1     -16.070  -8.607  14.581  1.00  0.00    -0.058 C 
BRANCH  12  13
ATOM     13  C5  UNL A   1     -16.349  -9.364  15.605  1.00  0.00    -0.086 C 
BRANCH  13  14
ATOM     14  C4  UNL A   1     -16.673 -10.247  16.799  1.00  0.00     0.076 C 
BRANCH  14  15
ATOM     15  C3  UNL A   1     -15.615 -10.069  17.879  1.00  0.00     0.014 C 
BRANCH  15  16
ATOM     16  C2  UNL A   1     -15.240 -11.409  18.504  1.00  0.00     0.001 C 
ATOM     17  C1  UNL A   1     -13.959 -11.954  17.898  1.00  0.00     0.000 C 
ENDBRANCH  15  16
ENDBRANCH  14  15
ENDBRANCH  13  14
ENDBRANCH  12  13
ENDBRANCH  10  12
ENDBRANCH   1   7
BRANCH   6  18
ATOM     18  C27 UNL A   1     -15.424  -3.541  10.372  1.00  0.00     0.093 A 
ATOM     19  C28 UNL A   1     -15.707  -3.956   9.051  1.00  0.00     0.021 A 
ATOM     20  C29 UNL A   1     -16.912  -3.617   8.415  1.00  0.00     0.013 A 
ATOM     21  C30 UNL A   1     -17.868  -2.887   9.104  1.00  0.00     0.059 A 
ATOM     22 CL31 UNL A   1     -19.346  -2.468   8.331  1.00  0.00    -0.082 Cl
ATOM     23  C32 UNL A   1     -17.629  -2.489  10.416  1.00  0.00     0.024 A 
ATOM     24  C33 UNL A   1     -16.418  -2.818  11.057  1.00  0.00     0.076 A 
ATOM     25 CL34 UNL A   1     -16.208  -2.166  12.642  1.00  0.00    -0.081 Cl
ENDBRANCH   6  18
BRANCH   4  26
ATOM     26  C15 UNL A   1     -10.715  -2.896  11.654  1.00  0.00     0.287 C 
ATOM     27  O16 UNL A   1     -10.564  -1.805  12.280  1.00  0.00    -0.265 OA
ATOM     28  N17 UNL A   1      -9.650  -3.556  11.038  1.00  0.00    -0.282 N 
ATOM     29  H36 UNL A   1      -9.847  -4.396  10.563  1.00  0.00     0.184 HD
BRANCH  28  30
ATOM     30  N18 UNL A   1      -8.289  -3.101  11.048  1.00  0.00    -0.199 NA
ATOM     31  C19 UNL A   1      -7.682  -3.267  12.374  1.00  0.00     0.094 C 
ATOM     32  C20 UNL A   1      -6.699  -2.136  12.675  1.00  0.00     0.019 C 
ATOM     33  C21 UNL A   1      -5.337  -2.248  11.996  1.00  0.00     0.002 C 
ATOM     34  C22 UNL A   1      -5.381  -2.417  10.480  1.00  0.00     0.002 C 
ATOM     35  C23 UNL A   1      -5.997  -3.748  10.065  1.00  0.00     0.019 C 
ATOM     36  C24 UNL A   1      -7.525  -3.721   9.954  1.00  0.00     0.094 C 
ENDBRANCH  28  30
ENDBRANCH   4  26
TORSDOF 9
BEGIN_RES SER A 173
REMARK  2 active torsions:
REMARK  status: ('A' for Active; 'I' for Inactive)
REMARK    1  A    between atoms: CA   and  CB  
REMARK    2  A    between atoms: CB   and  OG  
ROOT
ATOM      1  CA  SER A 173      -4.540 -11.597  11.543  1.00127.03     0.292 C 
ENDROOT
BRANCH   1   2
ATOM      2  CB  SER A 173      -4.003 -10.168  11.569  1.00131.20     0.194 C 
BRANCH   2   3
ATOM      3  OG  SER A 173      -3.924  -9.672  12.894  1.00137.49    -0.550 OA
ATOM      4  HG  SER A 173      -3.053  -9.788  13.254  1.00  0.00     0.310 HD
ENDBRANCH   2   3
ENDBRANCH   1   2
END_RES SER A 173
BEGIN_RES SER A 383
REMARK  2 active torsions:
REMARK  status: ('A' for Active; 'I' for Inactive)
REMARK    3  A    between atoms: CA   and  CB  
REMARK    4  A    between atoms: CB   and  OG  
ROOT
ATOM      5  CA  SER A 383      -8.934   0.934   8.031  1.00 88.23     0.292 C 
ENDROOT
BRANCH   5   6
ATOM      6  CB  SER A 383      -8.589   0.249   9.352  1.00 82.13     0.194 C 
BRANCH   6   7
ATOM      7  OG  SER A 383      -7.310   0.645   9.812  1.00 85.59    -0.550 OA
ATOM      8  HG  SER A 383      -6.752   0.907   9.089  1.00  0.00     0.310 HD
ENDBRANCH   6   7
ENDBRANCH   5   6
END_RES SER A 383
ENDMDL
MODEL 5
REMARK VINA RESULT:    -8.328      5.796     13.266
REMARK INTER + INTRA:          -4.056
REMARK INTER:                 -12.874
REMARK INTRA:                   8.818
REMARK UNBOUND:                 8.654
REMARK  9 active torsions:
REMARK  status: ('A' for Active; 'I' for Inactive)
REMARK    1  A    between atoms: C2_2  and  C3_3 
REMARK    2  A    between atoms: C3_3  and  C4_4 
REMARK    3  A    between atoms: C4_4  and  C5_5 
REMARK    4  A    between atoms: C5_5  and  C6_6 
REMARK    5  A    between atoms: C6_6  and  C7_7 
REMARK    6  A    between atoms: C10_10  and  C11_11 
REMARK    7  A    between atoms: C14_14  and  C15_15 
REMARK       I    between atoms: C15_15  and  N17_17 
REMARK    8  A    between atoms: N17_17  and  N18_18 
REMARK    9  A    between atoms: N26_26  and  C27_27 
ROOT
ATOM      1  C11 UNL A   1     -13.635  -5.069  12.123  1.00  0.00     0.086 A 
ATOM      2  C12 UNL A   1     -12.364  -5.183  11.570  1.00  0.00     0.020 A 
ATOM      3  C13 UNL A   1     -11.675  -6.434  11.166  1.00  0.00     0.034 C 
ATOM      4  C14 UNL A   1     -11.857  -3.850  11.438  1.00  0.00     0.155 A 
ATOM      5  N25 UNL A   1     -12.803  -2.965  11.841  1.00  0.00    -0.161 NA
ATOM      6  N26 UNL A   1     -13.885  -3.700  12.259  1.00  0.00    -0.229 N 
ENDROOT
BRANCH   1   7
ATOM      7  C10 UNL A   1     -14.557  -6.164  12.320  1.00  0.00     0.048 C 
ATOM      8  C9  UNL A   1     -14.881  -7.211  11.488  1.00  0.00     0.009 C 
ATOM      9  C8  UNL A   1     -15.539  -8.269  12.189  1.00  0.00     0.015 C 
ATOM     10  C7  UNL A   1     -15.670  -7.994  13.524  1.00  0.00     0.071 C 
ATOM     11  S35 UNL A   1     -15.392  -6.361  13.802  1.00  0.00    -0.077 SA
BRANCH  10  12
ATOM     12  C6  UNL A   1     -16.115  -8.834  14.557  1.00  0.00    -0.058 C 
BRANCH  12  13
ATOM     13  C5  UNL A   1     -16.394  -9.686  15.504  1.00  0.00    -0.086 C 
BRANCH  13  14
ATOM     14  C4  UNL A   1     -16.721 -10.678  16.608  1.00  0.00     0.076 C 
BRANCH  14  15
ATOM     15  C3  UNL A   1     -15.917 -11.956  16.412  1.00  0.00     0.014 C 
BRANCH  15  16
ATOM     16  C2  UNL A   1     -16.744 -13.019  15.695  1.00  0.00     0.001 C 
ATOM     17  C1  UNL A   1     -18.163 -13.060  16.233  1.00  0.00     0.000 C 
ENDBRANCH  15  16
ENDBRANCH  14  15
ENDBRANCH  13  14
ENDBRANCH  12  13
ENDBRANCH  10  12
ENDBRANCH   1   7
BRANCH   6  18
ATOM     18  C27 UNL A   1     -15.053  -3.055  12.811  1.00  0.00     0.093 A 
ATOM     19  C28 UNL A   1     -16.194  -2.840  12.004  1.00  0.00     0.021 A 
ATOM     20  C29 UNL A   1     -17.323  -2.164  12.492  1.00  0.00     0.013 A 
ATOM     21  C30 UNL A   1     -17.345  -1.724  13.806  1.00  0.00     0.059 A 
ATOM     22 CL31 UNL A   1     -18.725  -0.896  14.409  1.00  0.00    -0.082 Cl
ATOM     23  C32 UNL A   1     -16.247  -1.947  14.633  1.00  0.00     0.024 A 
ATOM     24  C33 UNL A   1     -15.106  -2.616  14.147  1.00  0.00     0.076 A 
ATOM     25 CL34 UNL A   1     -13.778  -2.726  15.245  1.00  0.00    -0.081 Cl
ENDBRANCH   6  18
BRANCH   4  26
ATOM     26  C15 UNL A   1     -10.516  -3.418  10.935  1.00  0.00     0.287 C 
ATOM     27  O16 UNL A   1     -10.348  -3.083   9.724  1.00  0.00    -0.265 OA
ATOM     28  N17 UNL A   1      -9.478  -3.392  11.867  1.00  0.00    -0.282 N 
ATOM     29  H36 UNL A   1      -9.684  -3.675  12.788  1.00  0.00     0.184 HD
BRANCH  28  30
ATOM     30  N18 UNL A   1      -8.132  -2.983  11.582  1.00  0.00    -0.199 NA
ATOM     31  C19 UNL A   1      -7.342  -2.860  12.813  1.00  0.00     0.094 C 
ATOM     32  C20 UNL A   1      -6.333  -1.716  12.707  1.00  0.00     0.019 C 
ATOM     33  C21 UNL A   1      -5.081  -2.016  11.888  1.00  0.00     0.002 C 
ATOM     34  C22 UNL A   1      -5.339  -2.523  10.473  1.00  0.00     0.002 C 
ATOM     35  C23 UNL A   1      -5.998  -3.897  10.464  1.00  0.00     0.019 C 
ATOM     36  C24 UNL A   1      -7.527  -3.856  10.563  1.00  0.00     0.094 C 
ENDBRANCH  28  30
ENDBRANCH   4  26
TORSDOF 9
BEGIN_RES SER A 173
REMARK  2 active torsions:
REMARK  status: ('A' for Active; 'I' for Inactive)
REMARK    1  A    between atoms: CA   and  CB  
REMARK    2  A    between atoms: CB   and  OG  
ROOT
ATOM      1  CA  SER A 173      -4.540 -11.597  11.543  1.00127.03     0.292 C 
ENDROOT
BRANCH   1   2
ATOM      2  CB  SER A 173      -4.003 -10.168  11.569  1.00131.20     0.194 C 
BRANCH   2   3
ATOM      3  OG  SER A 173      -3.941  -9.666  12.893  1.00137.49    -0.550 OA
ATOM      4  HG  SER A 173      -4.795  -9.684  13.309  1.00  0.00     0.310 HD
ENDBRANCH   2   3
ENDBRANCH   1   2
END_RES SER A 173
BEGIN_RES SER A 383
REMARK  2 active torsions:
REMARK  status: ('A' for Active; 'I' for Inactive)
REMARK    3  A    between atoms: CA   and  CB  
REMARK    4  A    between atoms: CB   and  OG  
ROOT
ATOM      5  CA  SER A 383      -8.934   0.934   8.031  1.00 88.23     0.292 C 
ENDROOT
BRANCH   5   6
ATOM      6  CB  SER A 383      -8.589   0.249   9.352  1.00 82.13     0.194 C 
BRANCH   6   7
ATOM      7  OG  SER A 383      -7.317   0.658   9.821  1.00 85.59    -0.550 OA
ATOM      8  HG  SER A 383      -6.639   0.052   9.542  1.00  0.00     0.310 HD
ENDBRANCH   6   7
ENDBRANCH   5   6
END_RES SER A 383
ENDMDL
MODEL 6
REMARK VINA RESULT:    -8.283      5.398     12.967
REMARK INTER + INTRA:          -3.988
REMARK INTER:                 -13.282
REMARK INTRA:                   9.294
REMARK UNBOUND:                 8.654
REMARK  9 active torsions:
REMARK  status: ('A' for Active; 'I' for Inactive)
REMARK    1  A    between atoms: C2_2  and  C3_3 
REMARK    2  A    between atoms: C3_3  and  C4_4 
REMARK    3  A    between atoms: C4_4  and  C5_5 
REMARK    4  A    between atoms: C5_5  and  C6_6 
REMARK    5  A    between atoms: C6_6  and  C7_7 
REMARK    6  A    between atoms: C10_10  and  C11_11 
REMARK    7  A    between atoms: C14_14  and  C15_15 
REMARK       I    between atoms: C15_15  and  N17_17 
REMARK    8  A    between atoms: N17_17  and  N18_18 
REMARK    9  A    between atoms: N26_26  and  C27_27 
ROOT
ATOM      1  C11 UNL A   1     -13.128  -4.913  11.904  1.00  0.00     0.086 A 
ATOM      2  C12 UNL A   1     -11.947  -5.057  11.184  1.00  0.00     0.020 A 
ATOM      3  C13 UNL A   1     -11.442  -6.293  10.536  1.00  0.00     0.034 C 
ATOM      4  C14 UNL A   1     -11.322  -3.769  11.165  1.00  0.00     0.155 A 
ATOM      5  N25 UNL A   1     -12.119  -2.871  11.796  1.00  0.00    -0.161 NA
ATOM      6  N26 UNL A   1     -13.217  -3.561  12.249  1.00  0.00    -0.229 N 
ENDROOT
BRANCH   1   7
ATOM      7  C10 UNL A   1     -14.130  -5.941  12.072  1.00  0.00     0.048 C 
ATOM      8  C9  UNL A   1     -14.490  -6.974  11.236  1.00  0.00     0.009 C 
ATOM      9  C8  UNL A   1     -15.248  -7.976  11.919  1.00  0.00     0.015 C 
ATOM     10  C7  UNL A   1     -15.415  -7.676  13.244  1.00  0.00     0.071 C 
ATOM     11  S35 UNL A   1     -15.038  -6.062  13.518  1.00  0.00    -0.077 SA
BRANCH  10  12
ATOM     12  C6  UNL A   1     -15.960  -8.471  14.266  1.00  0.00    -0.058 C 
BRANCH  12  13
ATOM     13  C5  UNL A   1     -16.369  -9.317  15.168  1.00  0.00    -0.086 C 
BRANCH  13  14
ATOM     14  C4  UNL A   1     -16.847 -10.306  16.220  1.00  0.00     0.076 C 
BRANCH  14  15
ATOM     15  C3  UNL A   1     -15.731 -11.284  16.558  1.00  0.00     0.014 C 
BRANCH  15  16
ATOM     16  C2  UNL A   1     -15.810 -12.530  15.682  1.00  0.00     0.001 C 
ATOM     17  C1  UNL A   1     -17.248 -12.994  15.523  1.00  0.00     0.000 C 
ENDBRANCH  15  16
ENDBRANCH  14  15
ENDBRANCH  13  14
ENDBRANCH  12  13
ENDBRANCH  10  12
ENDBRANCH   1   7
BRANCH   6  18
ATOM     18  C27 UNL A   1     -14.241  -2.902  13.024  1.00  0.00     0.093 A 
ATOM     19  C28 UNL A   1     -14.097  -2.767  14.424  1.00  0.00     0.021 A 
ATOM     20  C29 UNL A   1     -15.099  -2.184  15.215  1.00  0.00     0.013 A 
ATOM     21  C30 UNL A   1     -16.247  -1.693  14.614  1.00  0.00     0.059 A 
ATOM     22 CL31 UNL A   1     -17.479  -0.978  15.577  1.00  0.00    -0.082 Cl
ATOM     23  C32 UNL A   1     -16.405  -1.786  13.234  1.00  0.00     0.024 A 
ATOM     24  C33 UNL A   1     -15.407  -2.379  12.435  1.00  0.00     0.076 A 
ATOM     25 CL34 UNL A   1     -15.783  -2.528  10.756  1.00  0.00    -0.081 Cl
ENDBRANCH   6  18
BRANCH   4  26
ATOM     26  C15 UNL A   1     -10.010  -3.388  10.556  1.00  0.00     0.287 C 
ATOM     27  O16 UNL A   1      -9.902  -3.178   9.311  1.00  0.00    -0.265 OA
ATOM     28  N17 UNL A   1      -8.929  -3.266  11.429  1.00  0.00    -0.282 N 
ATOM     29  H36 UNL A   1      -9.089  -3.454  12.383  1.00  0.00     0.184 HD
BRANCH  28  30
ATOM     30  N18 UNL A   1      -7.600  -2.886  11.040  1.00  0.00    -0.199 NA
ATOM     31  C19 UNL A   1      -6.740  -2.684  12.212  1.00  0.00     0.094 C 
ATOM     32  C20 UNL A   1      -5.737  -1.556  11.969  1.00  0.00     0.019 C 
ATOM     33  C21 UNL A   1      -4.534  -1.919  11.102  1.00  0.00     0.002 C 
ATOM     34  C22 UNL A   1      -4.875  -2.521   9.743  1.00  0.00     0.002 C 
ATOM     35  C23 UNL A   1      -5.537  -3.888   9.866  1.00  0.00     0.019 C 
ATOM     36  C24 UNL A   1      -7.057  -3.831  10.051  1.00  0.00     0.094 C 
ENDBRANCH  28  30
ENDBRANCH   4  26
TORSDOF 9
BEGIN_RES SER A 173
REMARK  2 active torsions:
REMARK  status: ('A' for Active; 'I' for Inactive)
REMARK    1  A    between atoms: CA   and  CB  
REMARK    2  A    between atoms: CB   and  OG  
ROOT
ATOM      1  CA  SER A 173      -4.540 -11.597  11.543  1.00127.03     0.292 C 
ENDROOT
BRANCH   1   2
ATOM      2  CB  SER A 173      -4.003 -10.168  11.569  1.00131.20     0.194 C 
BRANCH   2   3
ATOM      3  OG  SER A 173      -3.939  -9.667  12.893  1.00137.49    -0.550 OA
ATOM      4  HG  SER A 173      -4.550 -10.119  13.463  1.00  0.00     0.310 HD
ENDBRANCH   2   3
ENDBRANCH   1   2
END_RES SER A 173
BEGIN_RES SER A 383
REMARK  2 active torsions:
REMARK  status: ('A' for Active; 'I' for Inactive)
REMARK    3  A    between atoms: CA   and  CB  
REMARK    4  A    between atoms: CB   and  OG  
ROOT
ATOM      5  CA  SER A 383      -8.934   0.934   8.031  1.00 88.23     0.292 C 
ENDROOT
BRANCH   5   6
ATOM      6  CB  SER A 383      -8.589   0.249   9.352  1.00 82.13     0.194 C 
BRANCH   6   7
ATOM      7  OG  SER A 383      -7.198   0.004   9.451  1.00 85.59    -0.550 OA
ATOM      8  HG  SER A 383      -6.983  -0.872   9.153  1.00  0.00     0.310 HD
ENDBRANCH   6   7
ENDBRANCH   5   6
END_RES SER A 383
ENDMDL
